OCNT-2308855
     RDKit          3D

 42 44  0  0  0  0  0  0  0  0999 V2000
    5.2952   -1.2803    2.2525 C   0  0  0  0  0  0  0  0  0  0  0  0
    4.6233   -0.4539    1.1969 C   0  0  0  0  0  0  0  0  0  0  0  0
    3.2385   -0.4894    1.0626 C   0  0  0  0  0  0  0  0  0  0  0  0
    2.6395    0.2757    0.0683 C   0  0  0  0  0  0  0  0  0  0  0  0
    1.2483    0.3281   -0.1574 N   0  0  0  0  0  0  0  0  0  0  0  0
    0.2540   -0.3329    0.5286 C   0  0  0  0  0  0  0  0  0  0  0  0
    0.4017   -1.1064    1.4663 O   0  0  0  0  0  0  0  0  0  0  0  0
   -0.9823   -0.0206    0.0317 N   0  0  0  0  0  0  0  0  0  0  0  0
   -2.2167   -0.5669    0.5694 C   0  0  0  0  0  0  0  0  0  0  0  0
   -3.3518    0.4280    0.3381 C   0  0  0  0  0  0  0  0  0  0  0  0
   -4.4313    0.4738    1.2201 C   0  0  0  0  0  0  0  0  0  0  0  0
   -5.4511    1.3928    0.9885 C   0  0  0  0  0  0  0  0  0  0  0  0
   -5.3707    2.2391   -0.1109 C   0  0  0  0  0  0  0  0  0  0  0  0
   -4.2669    2.1349   -0.9401 C   0  0  0  0  0  0  0  0  0  0  0  0
   -3.2584    1.2572   -0.7445 N   0  0  0  0  0  0  0  0  0  0  0  0
   -2.4435   -1.9280   -0.0521 C   0  0  0  0  0  0  0  0  0  0  0  0
   -3.7750   -2.4633   -0.5357 C   0  0  0  0  0  0  0  0  0  0  0  0
   -2.7112   -2.0952   -1.5321 C   0  0  0  0  0  0  0  0  0  0  0  0
    3.4523    1.0477   -0.7624 C   0  0  0  0  0  0  0  0  0  0  0  0
    4.8298    1.0288   -0.5707 C   0  0  0  0  0  0  0  0  0  0  0  0
    5.7242    1.8497   -1.4500 C   0  0  0  0  0  0  0  0  0  0  0  0
    5.4197    0.2916    0.3952 N   0  0  0  0  0  0  0  0  0  0  0  0
    4.8596   -1.0718    3.2359 H   0  0  0  0  0  0  0  0  0  0  0  0
    5.1799   -2.3457    2.0254 H   0  0  0  0  0  0  0  0  0  0  0  0
    6.3658   -1.0546    2.2991 H   0  0  0  0  0  0  0  0  0  0  0  0
    2.6621   -1.1104    1.7373 H   0  0  0  0  0  0  0  0  0  0  0  0
    0.9335    0.9183   -0.9114 H   0  0  0  0  0  0  0  0  0  0  0  0
   -1.1105    0.6400   -0.7208 H   0  0  0  0  0  0  0  0  0  0  0  0
   -2.0847   -0.6942    1.6512 H   0  0  0  0  0  0  0  0  0  0  0  0
   -4.4812   -0.1964    2.0725 H   0  0  0  0  0  0  0  0  0  0  0  0
   -6.3020    1.4477    1.6618 H   0  0  0  0  0  0  0  0  0  0  0  0
   -6.1501    2.9649   -0.3162 H   0  0  0  0  0  0  0  0  0  0  0  0
   -4.1621    2.7766   -1.8095 H   0  0  0  0  0  0  0  0  0  0  0  0
   -1.7640   -2.6516    0.3947 H   0  0  0  0  0  0  0  0  0  0  0  0
   -4.6623   -1.8433   -0.5073 H   0  0  0  0  0  0  0  0  0  0  0  0
   -3.9783   -3.5176   -0.3781 H   0  0  0  0  0  0  0  0  0  0  0  0
   -2.8713   -1.2110   -2.1394 H   0  0  0  0  0  0  0  0  0  0  0  0
   -2.1922   -2.8954   -2.0476 H   0  0  0  0  0  0  0  0  0  0  0  0
    3.0301    1.6587   -1.5522 H   0  0  0  0  0  0  0  0  0  0  0  0
    5.5907    1.5633   -2.4980 H   0  0  0  0  0  0  0  0  0  0  0  0
    6.7764    1.6982   -1.1869 H   0  0  0  0  0  0  0  0  0  0  0  0
    5.4930    2.9136   -1.3341 H   0  0  0  0  0  0  0  0  0  0  0  0
  1  2  1  0
  2  3  1  0
  3  4  2  0
  4  5  1  0
  5  6  1  0
  6  7  2  0
  6  8  1  0
  8  9  1  0
  9 10  1  0
 10 11  2  0
 11 12  1  0
 12 13  2  0
 13 14  1  0
 14 15  2  0
  9 16  1  0
 16 17  1  0
 17 18  1  0
  4 19  1  0
 19 20  2  0
 20 21  1  0
 20 22  1  0
 22  2  2  0
 15 10  1  0
 18 16  1  0
  1 23  1  0
  1 24  1  0
  1 25  1  0
  3 26  1  0
  5 27  1  0
  8 28  1  0
  9 29  1  0
 11 30  1  0
 12 31  1  0
 13 32  1  0
 14 33  1  0
 16 34  1  0
 17 35  1  0
 17 36  1  0
 18 37  1  0
 18 38  1  0
 19 39  1  0
 21 40  1  0
 21 41  1  0
 21 42  1  0
M  END
$$$$
OCNT-2308857
     RDKit          3D

 52 55  0  0  0  0  0  0  0  0999 V2000
    4.7018    0.3807    2.5271 C   0  0  0  0  0  0  0  0  0  0  0  0
    5.1867    0.1997    1.1189 C   0  0  0  0  0  0  0  0  0  0  0  0
    6.2352   -0.6843    0.8368 C   0  0  0  0  0  0  0  0  0  0  0  0
    6.7030   -0.8323   -0.4698 C   0  0  0  0  0  0  0  0  0  0  0  0
    6.1318   -0.0930   -1.5050 C   0  0  0  0  0  0  0  0  0  0  0  0
    5.0983    0.8002   -1.2314 C   0  0  0  0  0  0  0  0  0  0  0  0
    4.4747    1.5384   -2.2764 N   0  0  0  0  0  0  0  0  0  0  0  0
    3.5970    0.7051   -3.4549 S   0  0  0  0  0  0  0  0  0  0  0  0
    4.4842   -0.1779   -4.1815 O   0  0  0  0  0  0  0  0  0  0  0  0
    2.7922    1.6916   -4.1437 O   0  0  0  0  0  0  0  0  0  0  0  0
    2.4851   -0.2958   -2.4935 C   0  0  0  0  0  0  0  0  0  0  0  0
    2.6805   -1.6771   -2.4062 C   0  0  0  0  0  0  0  0  0  0  0  0
    1.8159   -2.4457   -1.6266 C   0  0  0  0  0  0  0  0  0  0  0  0
    0.7579   -1.8374   -0.9454 C   0  0  0  0  0  0  0  0  0  0  0  0
    0.5524   -0.4545   -1.0570 C   0  0  0  0  0  0  0  0  0  0  0  0
   -0.5428    0.2357   -0.3227 C   0  0  0  0  0  0  0  0  0  0  0  0
   -0.3125    1.3514    0.1278 O   0  0  0  0  0  0  0  0  0  0  0  0
   -1.7311   -0.4660   -0.2557 N   0  0  0  0  0  0  0  0  0  0  0  0
   -2.9174   -0.0791    0.4030 C   0  0  0  0  0  0  0  0  0  0  0  0
   -3.0408    1.0789    1.1745 C   0  0  0  0  0  0  0  0  0  0  0  0
   -4.2501    1.3943    1.8060 C   0  0  0  0  0  0  0  0  0  0  0  0
   -5.3600    0.5571    1.6654 C   0  0  0  0  0  0  0  0  0  0  0  0
   -6.6543    0.8609    2.3733 C   0  0  0  0  0  0  0  0  0  0  0  0
   -7.8295    0.2591    1.6093 C   0  0  0  0  0  0  0  0  0  0  0  0
   -7.5911   -1.1277    1.2780 N   0  0  0  0  0  0  0  0  0  0  0  0
   -6.3879   -1.5451    0.7584 C   0  0  0  0  0  0  0  0  0  0  0  0
   -6.2749   -2.6330    0.2075 O   0  0  0  0  0  0  0  0  0  0  0  0
   -5.2347   -0.6138    0.9018 C   0  0  0  0  0  0  0  0  0  0  0  0
   -4.0222   -0.9278    0.2752 C   0  0  0  0  0  0  0  0  0  0  0  0
    1.4193    0.3211   -1.8331 C   0  0  0  0  0  0  0  0  0  0  0  0
    4.6309    0.9532    0.0763 C   0  0  0  0  0  0  0  0  0  0  0  0
    3.6355    0.6298    2.5432 H   0  0  0  0  0  0  0  0  0  0  0  0
    5.2615    1.1846    3.0150 H   0  0  0  0  0  0  0  0  0  0  0  0
    4.8283   -0.5404    3.1056 H   0  0  0  0  0  0  0  0  0  0  0  0
    6.6954   -1.2636    1.6347 H   0  0  0  0  0  0  0  0  0  0  0  0
    7.5163   -1.5218   -0.6820 H   0  0  0  0  0  0  0  0  0  0  0  0
    6.5085   -0.2114   -2.5180 H   0  0  0  0  0  0  0  0  0  0  0  0
    4.0348    2.4240   -2.0308 H   0  0  0  0  0  0  0  0  0  0  0  0
    3.5096   -2.1558   -2.9241 H   0  0  0  0  0  0  0  0  0  0  0  0
    1.9774   -3.5180   -1.5370 H   0  0  0  0  0  0  0  0  0  0  0  0
    0.1239   -2.4492   -0.3082 H   0  0  0  0  0  0  0  0  0  0  0  0
   -1.7890   -1.3264   -0.7866 H   0  0  0  0  0  0  0  0  0  0  0  0
   -2.2067    1.7606    1.3130 H   0  0  0  0  0  0  0  0  0  0  0  0
   -4.3104    2.2985    2.4083 H   0  0  0  0  0  0  0  0  0  0  0  0
   -6.6020    0.4327    3.3817 H   0  0  0  0  0  0  0  0  0  0  0  0
   -6.8006    1.9425    2.4702 H   0  0  0  0  0  0  0  0  0  0  0  0
   -8.7492    0.3163    2.1993 H   0  0  0  0  0  0  0  0  0  0  0  0
   -7.9910    0.7942    0.6660 H   0  0  0  0  0  0  0  0  0  0  0  0
   -8.3713   -1.7307    1.0450 H   0  0  0  0  0  0  0  0  0  0  0  0
   -3.9563   -1.8421   -0.3101 H   0  0  0  0  0  0  0  0  0  0  0  0
    1.2649    1.3956   -1.9128 H   0  0  0  0  0  0  0  0  0  0  0  0
    3.8227    1.6483    0.2911 H   0  0  0  0  0  0  0  0  0  0  0  0
  1  2  1  0
  2  3  2  0
  3  4  1  0
  4  5  2  0
  5  6  1  0
  6  7  1  0
  7  8  1  0
  8  9  2  0
  8 10  2  0
  8 11  1  0
 11 12  2  0
 12 13  1  0
 13 14  2  0
 14 15  1  0
 15 16  1  0
 16 17  2  0
 16 18  1  0
 18 19  1  0
 19 20  1  0
 20 21  2  0
 21 22  1  0
 22 23  1  0
 23 24  1  0
 24 25  1  0
 25 26  1  0
 26 27  2  0
 26 28  1  0
 28 29  1  0
 15 30  2  0
  6 31  2  0
 31  2  1  0
 30 11  1  0
 29 19  2  0
 28 22  2  0
  1 32  1  0
  1 33  1  0
  1 34  1  0
  3 35  1  0
  4 36  1  0
  5 37  1  0
  7 38  1  0
 12 39  1  0
 13 40  1  0
 14 41  1  0
 18 42  1  0
 20 43  1  0
 21 44  1  0
 23 45  1  0
 23 46  1  0
 24 47  1  0
 24 48  1  0
 25 49  1  0
 29 50  1  0
 30 51  1  0
 31 52  1  0
M  END
$$$$
OCNT-2308859
     RDKit          3D

 41 43  0  0  0  0  0  0  0  0999 V2000
    5.3835    0.6871    1.8727 C   0  0  0  0  0  0  0  0  0  0  0  0
    5.2219   -0.0941    0.5662 C   0  0  0  0  0  0  0  0  0  0  0  0
    5.8380    0.6718   -0.6071 C   0  0  0  0  0  0  0  0  0  0  0  0
    3.7690   -0.4459    0.3009 C   0  0  0  0  0  0  0  0  0  0  0  0
    3.3808   -1.7874    0.2266 C   0  0  0  0  0  0  0  0  0  0  0  0
    2.0511   -2.1217   -0.0181 C   0  0  0  0  0  0  0  0  0  0  0  0
    1.0912   -1.1204   -0.1908 C   0  0  0  0  0  0  0  0  0  0  0  0
    1.4364    0.2315   -0.1212 C   0  0  0  0  0  0  0  0  0  0  0  0
    0.5259    1.2913   -0.2901 N   0  0  0  0  0  0  0  0  0  0  0  0
   -0.8022    1.2601   -0.5487 C   0  0  0  0  0  0  0  0  0  0  0  0
   -1.5652    0.2072   -0.7422 N   0  0  0  0  0  0  0  0  0  0  0  0
   -2.8875    0.5701   -0.9723 C   0  0  0  0  0  0  0  0  0  0  0  0
   -3.9007   -0.5206   -1.2152 C   0  0  0  0  0  0  0  0  0  0  0  0
   -4.1012   -1.4138    0.0281 C   0  0  0  0  0  0  0  0  0  0  0  0
   -4.8876   -0.8114    1.0681 O   0  0  0  0  0  0  0  0  0  0  0  0
   -5.9129    0.0539    0.5714 C   0  0  0  0  0  0  0  0  0  0  0  0
   -6.2624   -0.2202   -0.8873 C   0  0  0  0  0  0  0  0  0  0  0  0
   -5.1391    0.0054   -1.7439 O   0  0  0  0  0  0  0  0  0  0  0  0
   -3.1066    1.9332   -0.9740 C   0  0  0  0  0  0  0  0  0  0  0  0
   -1.6501    2.7665   -0.6560 S   0  0  0  0  0  0  0  0  0  0  0  0
    2.7871    0.5465    0.1237 C   0  0  0  0  0  0  0  0  0  0  0  0
    4.9519    0.1349    2.7150 H   0  0  0  0  0  0  0  0  0  0  0  0
    6.4435    0.8563    2.0910 H   0  0  0  0  0  0  0  0  0  0  0  0
    4.8934    1.6658    1.8291 H   0  0  0  0  0  0  0  0  0  0  0  0
    5.7921   -1.0261    0.6770 H   0  0  0  0  0  0  0  0  0  0  0  0
    5.7352    0.1068   -1.5402 H   0  0  0  0  0  0  0  0  0  0  0  0
    6.9061    0.8441   -0.4355 H   0  0  0  0  0  0  0  0  0  0  0  0
    5.3635    1.6481   -0.7542 H   0  0  0  0  0  0  0  0  0  0  0  0
    4.1092   -2.5840    0.3580 H   0  0  0  0  0  0  0  0  0  0  0  0
    1.7546   -3.1657   -0.0754 H   0  0  0  0  0  0  0  0  0  0  0  0
    0.0678   -1.4283   -0.3787 H   0  0  0  0  0  0  0  0  0  0  0  0
    0.9330    2.2094   -0.1733 H   0  0  0  0  0  0  0  0  0  0  0  0
   -3.4845   -1.1494   -2.0125 H   0  0  0  0  0  0  0  0  0  0  0  0
   -4.6235   -2.3326   -0.2651 H   0  0  0  0  0  0  0  0  0  0  0  0
   -3.1451   -1.7185    0.4671 H   0  0  0  0  0  0  0  0  0  0  0  0
   -5.5567    1.0823    0.6921 H   0  0  0  0  0  0  0  0  0  0  0  0
   -6.7932   -0.0722    1.2087 H   0  0  0  0  0  0  0  0  0  0  0  0
   -6.5986   -1.2537   -1.0274 H   0  0  0  0  0  0  0  0  0  0  0  0
   -7.0688    0.4418   -1.2169 H   0  0  0  0  0  0  0  0  0  0  0  0
   -4.0338    2.4606   -1.1460 H   0  0  0  0  0  0  0  0  0  0  0  0
    3.0842    1.5915    0.1780 H   0  0  0  0  0  0  0  0  0  0  0  0
  1  2  1  0
  2  3  1  0
  2  4  1  0
  4  5  2  0
  5  6  1  0
  6  7  2  0
  7  8  1  0
  8  9  1  0
  9 10  1  0
 10 11  2  0
 11 12  1  0
 12 13  1  0
 13 14  1  0
 14 15  1  0
 15 16  1  0
 16 17  1  0
 17 18  1  0
 12 19  2  0
 19 20  1  0
  8 21  2  0
 21  4  1  0
 20 10  1  0
 18 13  1  0
  1 22  1  0
  1 23  1  0
  1 24  1  0
  2 25  1  0
  3 26  1  0
  3 27  1  0
  3 28  1  0
  5 29  1  0
  6 30  1  0
  7 31  1  0
  9 32  1  0
 13 33  1  0
 14 34  1  0
 14 35  1  0
 16 36  1  0
 16 37  1  0
 17 38  1  0
 17 39  1  0
 19 40  1  0
 21 41  1  0
M  END
$$$$
OCNT-2308860
     RDKit          3D

 32 33  0  0  0  0  0  0  0  0999 V2000
   -1.8007    2.3867   -1.0104 O   0  0  0  0  0  0  0  0  0  0  0  0
   -1.6053    1.3351   -0.4070 C   0  0  0  0  0  0  0  0  0  0  0  0
   -0.3774    0.6974   -0.3175 N   0  0  0  0  0  0  0  0  0  0  0  0
    0.8595    1.0851   -0.8831 C   0  0  0  0  0  0  0  0  0  0  0  0
    1.0295    2.2293   -1.6678 C   0  0  0  0  0  0  0  0  0  0  0  0
    2.2845    2.5377   -2.1954 C   0  0  0  0  0  0  0  0  0  0  0  0
    3.3620    1.7022   -1.9369 C   0  0  0  0  0  0  0  0  0  0  0  0
    4.5646    2.0021   -2.4449 F   0  0  0  0  0  0  0  0  0  0  0  0
    3.2193    0.5584   -1.1585 C   0  0  0  0  0  0  0  0  0  0  0  0
    1.9679    0.2430   -0.6262 C   0  0  0  0  0  0  0  0  0  0  0  0
    1.7030   -0.8529    0.1636 O   0  0  0  0  0  0  0  0  0  0  0  0
    2.7797   -1.7660    0.4042 C   0  0  0  0  0  0  0  0  0  0  0  0
    2.2813   -2.9062    1.2780 C   0  0  0  0  0  0  0  0  0  0  0  0
    1.5822   -3.7943    0.5245 F   0  0  0  0  0  0  0  0  0  0  0  0
    3.3394   -3.5849    1.7900 F   0  0  0  0  0  0  0  0  0  0  0  0
   -2.7627    0.6664    0.2950 C   0  0  0  0  0  0  0  0  0  0  0  0
   -3.9767    1.2679    0.1309 N   0  0  0  0  0  0  0  0  0  0  0  0
   -5.0432    0.7052    0.7389 C   0  0  0  0  0  0  0  0  0  0  0  0
   -4.9687   -0.4403    1.5141 C   0  0  0  0  0  0  0  0  0  0  0  0
   -3.7268   -1.0447    1.6767 C   0  0  0  0  0  0  0  0  0  0  0  0
   -2.6118   -0.4849    1.0611 C   0  0  0  0  0  0  0  0  0  0  0  0
   -1.4213   -1.0798    1.2325 F   0  0  0  0  0  0  0  0  0  0  0  0
   -0.3195   -0.1699    0.2103 H   0  0  0  0  0  0  0  0  0  0  0  0
    0.2054    2.9001   -1.8894 H   0  0  0  0  0  0  0  0  0  0  0  0
    2.4218    3.4246   -2.8062 H   0  0  0  0  0  0  0  0  0  0  0  0
    4.1012   -0.0483   -0.9953 H   0  0  0  0  0  0  0  0  0  0  0  0
    3.5918   -1.2509    0.9299 H   0  0  0  0  0  0  0  0  0  0  0  0
    3.1476   -2.1748   -0.5438 H   0  0  0  0  0  0  0  0  0  0  0  0
    1.6411   -2.5657    2.0966 H   0  0  0  0  0  0  0  0  0  0  0  0
   -5.9891    1.2171    0.5801 H   0  0  0  0  0  0  0  0  0  0  0  0
   -5.8583   -0.8510    1.9801 H   0  0  0  0  0  0  0  0  0  0  0  0
   -3.6205   -1.9437    2.2758 H   0  0  0  0  0  0  0  0  0  0  0  0
  1  2  2  0
  2  3  1  0
  3  4  1  0
  4  5  1  0
  5  6  2  0
  6  7  1  0
  7  8  1  0
  7  9  2  0
  9 10  1  0
 10 11  1  0
 11 12  1  0
 12 13  1  0
 13 14  1  0
 13 15  1  0
  2 16  1  0
 16 17  1  0
 17 18  2  0
 18 19  1  0
 19 20  2  0
 20 21  1  0
 21 22  1  0
 10  4  2  0
 21 16  2  0
  3 23  1  0
  5 24  1  0
  6 25  1  0
  9 26  1  0
 12 27  1  0
 12 28  1  0
 13 29  1  0
 18 30  1  0
 19 31  1  0
 20 32  1  0
M  END
$$$$
OCNT-2308866
     RDKit          3D

 43 45  0  0  0  0  0  0  0  0999 V2000
    7.3786    1.2700    1.9930 C   0  0  0  0  0  0  0  0  0  0  0  0
    6.0770    0.6998    1.9948 O   0  0  0  0  0  0  0  0  0  0  0  0
    5.3931    0.6926    0.8072 C   0  0  0  0  0  0  0  0  0  0  0  0
    5.8661    1.2274   -0.4017 C   0  0  0  0  0  0  0  0  0  0  0  0
    5.0966    1.1773   -1.5692 C   0  0  0  0  0  0  0  0  0  0  0  0
    3.8265    0.5993   -1.5744 C   0  0  0  0  0  0  0  0  0  0  0  0
    3.3584    0.0760   -0.3656 C   0  0  0  0  0  0  0  0  0  0  0  0
    4.1068    0.1038    0.8112 C   0  0  0  0  0  0  0  0  0  0  0  0
    3.3154   -0.5320    1.8124 C   0  0  0  0  0  0  0  0  0  0  0  0
    2.1012   -0.8945    1.2570 C   0  0  0  0  0  0  0  0  0  0  0  0
    0.9850   -1.5566    1.8927 C   0  0  0  0  0  0  0  0  0  0  0  0
    1.0932   -2.2700    2.8837 O   0  0  0  0  0  0  0  0  0  0  0  0
   -0.2307   -1.2924    1.3015 N   0  0  0  0  0  0  0  0  0  0  0  0
   -1.4375   -1.7688    1.9303 C   0  0  0  0  0  0  0  0  0  0  0  0
   -2.5877   -1.4415    1.0839 C   0  0  0  0  0  0  0  0  0  0  0  0
   -3.5344   -1.1428    0.4044 C   0  0  0  0  0  0  0  0  0  0  0  0
   -4.6993   -0.7684   -0.4132 C   0  0  0  0  0  0  0  0  0  0  0  0
   -4.2656   -0.3776   -1.8296 C   0  0  0  0  0  0  0  0  0  0  0  0
   -5.4605    0.1068   -2.6467 C   0  0  0  0  0  0  0  0  0  0  0  0
   -6.2340    1.1798   -1.8861 C   0  0  0  0  0  0  0  0  0  0  0  0
   -6.5531    0.7134   -0.4711 C   0  0  0  0  0  0  0  0  0  0  0  0
   -5.3600    0.3350    0.2163 O   0  0  0  0  0  0  0  0  0  0  0  0
    2.1627   -0.5372   -0.0725 N   0  0  0  0  0  0  0  0  0  0  0  0
    7.7746    1.2036    3.0105 H   0  0  0  0  0  0  0  0  0  0  0  0
    7.3460    2.3307    1.7175 H   0  0  0  0  0  0  0  0  0  0  0  0
    8.0528    0.7101    1.3349 H   0  0  0  0  0  0  0  0  0  0  0  0
    6.8430    1.6953   -0.4660 H   0  0  0  0  0  0  0  0  0  0  0  0
    5.4932    1.5988   -2.4908 H   0  0  0  0  0  0  0  0  0  0  0  0
    3.2338    0.5633   -2.4820 H   0  0  0  0  0  0  0  0  0  0  0  0
    3.6036   -0.6921    2.8452 H   0  0  0  0  0  0  0  0  0  0  0  0
   -0.3064   -0.4202    0.8015 H   0  0  0  0  0  0  0  0  0  0  0  0
   -1.3542   -2.8486    2.0837 H   0  0  0  0  0  0  0  0  0  0  0  0
   -1.5263   -1.2895    2.9104 H   0  0  0  0  0  0  0  0  0  0  0  0
   -5.3922   -1.6194   -0.4510 H   0  0  0  0  0  0  0  0  0  0  0  0
   -3.7810   -1.2215   -2.3362 H   0  0  0  0  0  0  0  0  0  0  0  0
   -3.5289    0.4349   -1.7812 H   0  0  0  0  0  0  0  0  0  0  0  0
   -6.1243   -0.7402   -2.8567 H   0  0  0  0  0  0  0  0  0  0  0  0
   -5.1230    0.4984   -3.6130 H   0  0  0  0  0  0  0  0  0  0  0  0
   -5.6171    2.0844   -1.8345 H   0  0  0  0  0  0  0  0  0  0  0  0
   -7.1543    1.4362   -2.4205 H   0  0  0  0  0  0  0  0  0  0  0  0
   -7.2543   -0.1292   -0.4772 H   0  0  0  0  0  0  0  0  0  0  0  0
   -7.0184    1.5278    0.0946 H   0  0  0  0  0  0  0  0  0  0  0  0
    1.4354   -0.7223   -0.7474 H   0  0  0  0  0  0  0  0  0  0  0  0
  1  2  1  0
  2  3  1  0
  3  4  1  0
  4  5  2  0
  5  6  1  0
  6  7  2  0
  7  8  1  0
  8  9  1  0
  9 10  2  0
 10 11  1  0
 11 12  2  0
 11 13  1  0
 13 14  1  0
 14 15  1  0
 15 16  3  0
 16 17  1  0
 17 18  1  0
 18 19  1  0
 19 20  1  0
 20 21  1  0
 21 22  1  0
 10 23  1  0
  8  3  2  0
 22 17  1  0
 23  7  1  0
  1 24  1  0
  1 25  1  0
  1 26  1  0
  4 27  1  0
  5 28  1  0
  6 29  1  0
  9 30  1  0
 13 31  1  0
 14 32  1  0
 14 33  1  0
 17 34  1  0
 18 35  1  0
 18 36  1  0
 19 37  1  0
 19 38  1  0
 20 39  1  0
 20 40  1  0
 21 41  1  0
 21 42  1  0
 23 43  1  0
M  END
$$$$
OCNT-2308867
     RDKit          3D

 44 46  0  0  0  0  0  0  0  0999 V2000
    3.1668    2.2912   -1.3442 C   0  0  0  0  0  0  0  0  0  0  0  0
    2.6959    0.8895   -0.9425 C   0  0  1  0  0  0  0  0  0  0  0  0
    3.8150    0.0715   -0.3159 C   0  0  0  0  0  0  0  0  0  0  0  0
    4.3719    0.4183    0.9288 C   0  0  0  0  0  0  0  0  0  0  0  0
    5.4029   -0.3408    1.4899 C   0  0  0  0  0  0  0  0  0  0  0  0
    5.8941   -1.4551    0.8144 C   0  0  0  0  0  0  0  0  0  0  0  0
    5.3507   -1.8005   -0.4159 C   0  0  0  0  0  0  0  0  0  0  0  0
    5.8214   -2.8714   -1.0684 F   0  0  0  0  0  0  0  0  0  0  0  0
    4.3233   -1.0529   -0.9853 C   0  0  0  0  0  0  0  0  0  0  0  0
    1.5140    0.8907   -0.0839 N   0  0  0  0  0  0  0  0  0  0  0  0
    0.5290   -0.0557   -0.0247 C   0  0  0  0  0  0  0  0  0  0  0  0
   -0.3422    0.4264    0.9275 C   0  0  0  0  0  0  0  0  0  0  0  0
   -1.6008   -0.1656    1.4594 C   0  0  0  0  0  0  0  0  0  0  0  0
   -2.9087    0.3594    0.8107 C   0  0  0  0  0  0  0  0  0  0  0  0
   -3.0946    1.7933    1.1546 C   0  0  0  0  0  0  0  0  0  0  0  0
   -3.2979    2.9051    1.4180 N   0  0  0  0  0  0  0  0  0  0  0  0
   -2.8629    0.2010   -0.7355 C   0  0  0  0  0  0  0  0  0  0  0  0
   -4.2554    0.0546   -1.3449 C   0  0  0  0  0  0  0  0  0  0  0  0
   -4.9598   -1.2049   -0.8392 C   0  0  0  0  0  0  0  0  0  0  0  0
   -4.5127   -1.6275    0.5602 C   0  0  0  0  0  0  0  0  0  0  0  0
   -4.1180   -0.4235    1.4098 C   0  0  0  0  0  0  0  0  0  0  0  0
    0.1336    1.6160    1.4063 N   0  0  0  0  0  0  0  0  0  0  0  0
    1.2665    1.8941    0.7781 N   0  0  0  0  0  0  0  0  0  0  0  0
    3.5077    2.8771   -0.4832 H   0  0  0  0  0  0  0  0  0  0  0  0
    2.3561    2.8501   -1.8249 H   0  0  0  0  0  0  0  0  0  0  0  0
    4.0013    2.2315   -2.0519 H   0  0  0  0  0  0  0  0  0  0  0  0
    2.3669    0.3898   -1.8643 H   0  0  0  0  0  0  0  0  0  0  0  0
    4.0003    1.2837    1.4785 H   0  0  0  0  0  0  0  0  0  0  0  0
    5.8189   -0.0608    2.4549 H   0  0  0  0  0  0  0  0  0  0  0  0
    6.6940   -2.0538    1.2379 H   0  0  0  0  0  0  0  0  0  0  0  0
    3.9345   -1.3621   -1.9513 H   0  0  0  0  0  0  0  0  0  0  0  0
    0.5415   -0.9511   -0.6280 H   0  0  0  0  0  0  0  0  0  0  0  0
   -1.6257    0.0107    2.5440 H   0  0  0  0  0  0  0  0  0  0  0  0
   -1.5455   -1.2556    1.3345 H   0  0  0  0  0  0  0  0  0  0  0  0
   -2.2858   -0.6926   -1.0082 H   0  0  0  0  0  0  0  0  0  0  0  0
   -2.3538    1.0547   -1.2013 H   0  0  0  0  0  0  0  0  0  0  0  0
   -4.8589    0.9370   -1.0991 H   0  0  0  0  0  0  0  0  0  0  0  0
   -4.1876    0.0205   -2.4383 H   0  0  0  0  0  0  0  0  0  0  0  0
   -4.7794   -2.0361   -1.5316 H   0  0  0  0  0  0  0  0  0  0  0  0
   -6.0425   -1.0299   -0.8481 H   0  0  0  0  0  0  0  0  0  0  0  0
   -5.3193   -2.1867    1.0479 H   0  0  0  0  0  0  0  0  0  0  0  0
   -3.6617   -2.3152    0.4824 H   0  0  0  0  0  0  0  0  0  0  0  0
   -4.9984    0.2292    1.4970 H   0  0  0  0  0  0  0  0  0  0  0  0
   -3.8948   -0.7536    2.4324 H   0  0  0  0  0  0  0  0  0  0  0  0
  1  2  1  0
  2  3  1  0
  3  4  2  0
  4  5  1  0
  5  6  2  0
  6  7  1  0
  7  8  1  0
  7  9  2  0
  2 10  1  0
 10 11  1  0
 11 12  2  0
 12 13  1  0
 13 14  1  0
 14 15  1  0
 15 16  3  0
 14 17  1  0
 17 18  1  0
 18 19  1  0
 19 20  1  0
 20 21  1  0
 12 22  1  0
 22 23  2  0
  9  3  1  0
 23 10  1  0
 21 14  1  0
  1 24  1  0
  1 25  1  0
  1 26  1  0
  2 27  1  6
  4 28  1  0
  5 29  1  0
  6 30  1  0
  9 31  1  0
 11 32  1  0
 13 33  1  0
 13 34  1  0
 17 35  1  0
 17 36  1  0
 18 37  1  0
 18 38  1  0
 19 39  1  0
 19 40  1  0
 20 41  1  0
 20 42  1  0
 21 43  1  0
 21 44  1  0
M  END
$$$$
OCNT-2308870
     RDKit          3D

 45 47  0  0  0  0  0  0  0  0999 V2000
   -3.2113    2.6800    1.5305 C   0  0  0  0  0  0  0  0  0  0  0  0
   -3.2510    1.3591    0.9889 O   0  0  0  0  0  0  0  0  0  0  0  0
   -4.5002    0.8073    0.9801 C   0  0  0  0  0  0  0  0  0  0  0  0
   -5.5138    1.3674    1.3785 O   0  0  0  0  0  0  0  0  0  0  0  0
   -4.4671   -0.5278    0.4350 C   0  0  0  0  0  0  0  0  0  0  0  0
   -3.4354   -1.3184   -0.0537 C   0  0  0  0  0  0  0  0  0  0  0  0
   -2.1127   -0.9090   -0.1090 N   0  0  0  0  0  0  0  0  0  0  0  0
   -1.0520   -1.6806   -0.5417 C   0  0  0  0  0  0  0  0  0  0  0  0
   -1.0952   -2.8544   -0.8915 O   0  0  0  0  0  0  0  0  0  0  0  0
    0.2659   -0.9847   -0.5344 C   0  0  0  0  0  0  0  0  0  0  0  0
    0.3883    0.3714   -0.8516 C   0  0  0  0  0  0  0  0  0  0  0  0
    1.6484    0.9868   -0.8331 C   0  0  0  0  0  0  0  0  0  0  0  0
    2.8125    0.2749   -0.5007 C   0  0  0  0  0  0  0  0  0  0  0  0
    4.0734    0.8732   -0.4876 N   0  0  0  0  0  0  0  0  0  0  0  0
    4.2888    2.3101   -0.5777 C   0  0  0  0  0  0  0  0  0  0  0  0
    5.7894    2.4499   -0.3900 C   0  0  0  0  0  0  0  0  0  0  0  0
    6.1058    1.0843    0.1287 C   0  0  0  0  0  0  0  0  0  0  0  0
    7.4606    0.7522    0.6551 C   0  0  0  0  0  0  0  0  0  0  0  0
    5.1421    0.2213    0.0593 N   0  0  0  0  0  0  0  0  0  0  0  0
    2.6623   -1.0927   -0.2115 C   0  0  0  0  0  0  0  0  0  0  0  0
    1.4112   -1.7204   -0.2302 C   0  0  0  0  0  0  0  0  0  0  0  0
   -4.0026   -2.5524   -0.4621 C   0  0  0  0  0  0  0  0  0  0  0  0
   -5.3585   -2.5022   -0.2169 C   0  0  0  0  0  0  0  0  0  0  0  0
   -6.4253   -3.5059   -0.4469 C   0  0  0  0  0  0  0  0  0  0  0  0
   -5.6239   -1.2733    0.3265 N   0  0  0  0  0  0  0  0  0  0  0  0
   -2.1747    3.0268    1.4985 H   0  0  0  0  0  0  0  0  0  0  0  0
   -3.8222    3.3601    0.9287 H   0  0  0  0  0  0  0  0  0  0  0  0
   -3.5431    2.6778    2.5735 H   0  0  0  0  0  0  0  0  0  0  0  0
   -1.9315    0.0159    0.2638 H   0  0  0  0  0  0  0  0  0  0  0  0
   -0.4763    0.9588   -1.1476 H   0  0  0  0  0  0  0  0  0  0  0  0
    1.7022    2.0384   -1.0993 H   0  0  0  0  0  0  0  0  0  0  0  0
    3.7560    2.8366    0.2231 H   0  0  0  0  0  0  0  0  0  0  0  0
    3.9751    2.7184   -1.5442 H   0  0  0  0  0  0  0  0  0  0  0  0
    6.3131    2.6104   -1.3366 H   0  0  0  0  0  0  0  0  0  0  0  0
    6.0565    3.2295    0.3267 H   0  0  0  0  0  0  0  0  0  0  0  0
    7.7055    1.4279    1.4786 H   0  0  0  0  0  0  0  0  0  0  0  0
    8.1981    0.8760   -0.1421 H   0  0  0  0  0  0  0  0  0  0  0  0
    7.4889   -0.2794    1.0154 H   0  0  0  0  0  0  0  0  0  0  0  0
    3.5401   -1.6899    0.0288 H   0  0  0  0  0  0  0  0  0  0  0  0
    1.3402   -2.7824   -0.0054 H   0  0  0  0  0  0  0  0  0  0  0  0
   -3.4790   -3.3978   -0.8921 H   0  0  0  0  0  0  0  0  0  0  0  0
   -6.9273   -3.7563    0.4931 H   0  0  0  0  0  0  0  0  0  0  0  0
   -7.1725   -3.1188   -1.1471 H   0  0  0  0  0  0  0  0  0  0  0  0
   -6.0125   -4.4286   -0.8669 H   0  0  0  0  0  0  0  0  0  0  0  0
   -6.5361   -0.9395    0.6147 H   0  0  0  0  0  0  0  0  0  0  0  0
  1  2  1  0
  2  3  1  0
  3  4  2  0
  3  5  1  0
  5  6  2  0
  6  7  1  0
  7  8  1  0
  8  9  2  0
  8 10  1  0
 10 11  1  0
 11 12  2  0
 12 13  1  0
 13 14  1  0
 14 15  1  0
 15 16  1  0
 16 17  1  0
 17 18  1  0
 17 19  2  0
 13 20  2  0
 20 21  1  0
  6 22  1  0
 22 23  2  0
 23 24  1  0
 23 25  1  0
 25  5  1  0
 21 10  2  0
 19 14  1  0
  1 26  1  0
  1 27  1  0
  1 28  1  0
  7 29  1  0
 11 30  1  0
 12 31  1  0
 15 32  1  0
 15 33  1  0
 16 34  1  0
 16 35  1  0
 18 36  1  0
 18 37  1  0
 18 38  1  0
 20 39  1  0
 21 40  1  0
 22 41  1  0
 24 42  1  0
 24 43  1  0
 24 44  1  0
 25 45  1  0
M  END
$$$$
OCNT-2308871
     RDKit          3D

  0  0  0  0  0  0  0  0  0  0999 V3000
M  V30 BEGIN CTAB
M  V30 COUNTS 38 41 0 0 0
M  V30 BEGIN ATOM
M  V30 1 F 7.851303 -0.516517 -0.747309 0
M  V30 2 C 6.918308 0.445076 -0.574180 0
M  V30 3 F 6.533590 0.882692 -1.792806 0
M  V30 4 F 7.495611 1.475534 0.081333 0
M  V30 5 C 5.772182 -0.085336 0.213938 0 CFG=2
M  V30 6 C 4.631248 -0.831698 -0.442614 0
M  V30 7 C 4.395279 0.546573 0.131535 0 CFG=1
M  V30 8 C 3.584494 0.741542 1.377682 0
M  V30 9 N 2.170318 0.880347 1.081665 0
M  V30 10 C 1.224499 -0.099734 1.028488 0
M  V30 11 C 0.068512 0.579983 0.712020 0
M  V30 12 C -1.285832 0.061666 0.513440 0
M  V30 13 N -2.341976 0.827221 0.215176 0
M  V30 14 N -3.365065 -0.037961 0.122146 0
M  V30 15 C -4.725756 0.438100 -0.200943 0
M  V30 16 C -5.431005 -0.334634 -1.339979 0
M  V30 17 C -6.729046 -0.207907 -0.511471 0
M  V30 18 C -5.836281 -0.079136 0.743035 0
M  V30 19 C -2.994001 -1.334967 0.353559 0
M  V30 20 C -1.642961 -1.302649 0.611750 0
M  V30 21 N 0.350465 1.916876 0.592374 0
M  V30 22 N 1.647130 2.089550 0.822470 0
M  V30 23 H 6.120251 -0.446102 1.174053 0
M  V30 24 H 4.229276 -1.695773 0.074438 0
M  V30 25 H 4.632430 -0.931446 -1.524137 0
M  V30 26 H 4.260123 1.368282 -0.567708 0
M  V30 27 H 3.904164 1.648873 1.902278 0
M  V30 28 H 3.691599 -0.101041 2.070589 0
M  V30 29 H 1.445311 -1.140261 1.206731 0
M  V30 30 H -4.762951 1.527097 -0.341756 0
M  V30 31 H -5.116309 -1.372994 -1.491581 0
M  V30 32 H -5.447321 0.169442 -2.310390 0
M  V30 33 H -7.394732 -1.074177 -0.534733 0
M  V30 34 H -7.308227 0.695469 -0.734968 0
M  V30 35 H -5.647331 -1.038236 1.237637 0
M  V30 36 H -6.187215 0.635892 1.492458 0
M  V30 37 H -3.700097 -2.151478 0.316481 0
M  V30 38 H -1.009985 -2.148170 0.837895 0
M  V30 END ATOM
M  V30 BEGIN BOND
M  V30 1 1 1 2
M  V30 2 1 2 3
M  V30 3 1 2 4
M  V30 4 1 2 5
M  V30 5 1 5 6
M  V30 6 1 6 7
M  V30 7 1 7 8
M  V30 8 1 8 9
M  V30 9 1 9 10
M  V30 10 2 10 11
M  V30 11 1 11 12
M  V30 12 2 12 13
M  V30 13 1 13 14
M  V30 14 1 14 15
M  V30 15 1 15 16
M  V30 16 1 16 17
M  V30 17 1 17 18
M  V30 18 1 14 19
M  V30 19 2 19 20
M  V30 20 1 11 21
M  V30 21 2 21 22
M  V30 22 1 7 5
M  V30 23 1 22 9
M  V30 24 1 20 12
M  V30 25 1 18 15
M  V30 26 1 5 23 CFG=1
M  V30 27 1 6 24
M  V30 28 1 6 25
M  V30 29 1 7 26 CFG=3
M  V30 30 1 8 27
M  V30 31 1 8 28
M  V30 32 1 10 29
M  V30 33 1 15 30
M  V30 34 1 16 31
M  V30 35 1 16 32
M  V30 36 1 17 33
M  V30 37 1 17 34
M  V30 38 1 18 35
M  V30 39 1 18 36
M  V30 40 1 19 37
M  V30 41 1 20 38
M  V30 END BOND
M  V30 BEGIN COLLECTION
M  V30 MDLV30/STERAC1 ATOMS=(2 5 7)
M  V30 END COLLECTION
M  V30 END CTAB
M  END
>  <_CXSMILES_Data>  (108) 
|&1:4,6|

$$$$
OCNT-2308896
     RDKit          3D

 37 39  0  0  0  0  0  0  0  0999 V2000
   -2.0157   -3.3027   -3.8558 C   0  0  0  0  0  0  0  0  0  0  0  0
   -1.6456   -2.2794   -2.9082 N   0  0  0  0  0  0  0  0  0  0  0  0
   -0.6405   -2.3441   -1.9947 C   0  0  0  0  0  0  0  0  0  0  0  0
   -0.6638   -1.1484   -1.3233 C   0  0  0  0  0  0  0  0  0  0  0  0
    0.1563   -0.7155   -0.2944 N   0  0  0  0  0  0  0  0  0  0  0  0
    1.2121   -1.4150    0.2467 C   0  0  0  0  0  0  0  0  0  0  0  0
    1.6264   -2.5079   -0.1247 O   0  0  0  0  0  0  0  0  0  0  0  0
    1.9109   -0.7432    1.3719 C   0  0  0  0  0  0  0  0  0  0  0  0
    1.2979    0.1822    2.2220 C   0  0  0  0  0  0  0  0  0  0  0  0
    2.0382    0.7567    3.2572 C   0  0  0  0  0  0  0  0  0  0  0  0
    3.3703    0.3830    3.4146 C   0  0  0  0  0  0  0  0  0  0  0  0
    4.1600    1.0018    4.5207 C   0  0  0  0  0  0  0  0  0  0  0  0
    3.7375    1.8294    5.3111 O   0  0  0  0  0  0  0  0  0  0  0  0
    5.4312    0.5621    4.5856 O   0  0  0  0  0  0  0  0  0  0  0  0
    3.9866   -0.5224    2.6115 N   0  0  0  0  0  0  0  0  0  0  0  0
    3.2410   -1.0681    1.6176 C   0  0  0  0  0  0  0  0  0  0  0  0
   -1.7424   -0.4061   -1.9060 C   0  0  0  0  0  0  0  0  0  0  0  0
   -2.1852    0.9482   -1.5319 C   0  0  0  0  0  0  0  0  0  0  0  0
   -3.2461    1.5634   -2.1919 C   0  0  0  0  0  0  0  0  0  0  0  0
   -3.6260    2.8461   -1.8057 C   0  0  0  0  0  0  0  0  0  0  0  0
   -2.9401    3.4787   -0.7765 C   0  0  0  0  0  0  0  0  0  0  0  0
   -1.8963    2.8004   -0.1693 C   0  0  0  0  0  0  0  0  0  0  0  0
   -1.5001    1.5541   -0.5149 N   0  0  0  0  0  0  0  0  0  0  0  0
   -2.3347   -1.1236   -2.8818 N   0  0  0  0  0  0  0  0  0  0  0  0
   -1.9325   -2.8863   -4.8629 H   0  0  0  0  0  0  0  0  0  0  0  0
   -3.0447   -3.6071   -3.6491 H   0  0  0  0  0  0  0  0  0  0  0  0
   -1.3445   -4.1585   -3.7496 H   0  0  0  0  0  0  0  0  0  0  0  0
   -0.0054   -3.2140   -1.9011 H   0  0  0  0  0  0  0  0  0  0  0  0
   -0.0624    0.2309    0.0126 H   0  0  0  0  0  0  0  0  0  0  0  0
    0.2499    0.4481    2.1160 H   0  0  0  0  0  0  0  0  0  0  0  0
    1.5810    1.4750    3.9317 H   0  0  0  0  0  0  0  0  0  0  0  0
    5.8271    1.0378    5.3423 H   0  0  0  0  0  0  0  0  0  0  0  0
    3.7667   -1.7949    1.0013 H   0  0  0  0  0  0  0  0  0  0  0  0
   -3.7700    1.0547   -2.9957 H   0  0  0  0  0  0  0  0  0  0  0  0
   -4.4506    3.3449   -2.3074 H   0  0  0  0  0  0  0  0  0  0  0  0
   -3.2130    4.4782   -0.4558 H   0  0  0  0  0  0  0  0  0  0  0  0
   -1.3337    3.2610    0.6382 H   0  0  0  0  0  0  0  0  0  0  0  0
  1  2  1  0
  2  3  1  0
  3  4  2  0
  4  5  1  0
  5  6  1  0
  6  7  2  0
  6  8  1  0
  8  9  2  0
  9 10  1  0
 10 11  2  0
 11 12  1  0
 12 13  2  0
 12 14  1  0
 11 15  1  0
 15 16  2  0
  4 17  1  0
 17 18  1  0
 18 19  2  0
 19 20  1  0
 20 21  2  0
 21 22  1  0
 22 23  2  0
 17 24  2  0
 24  2  1  0
 16  8  1  0
 23 18  1  0
  1 25  1  0
  1 26  1  0
  1 27  1  0
  3 28  1  0
  5 29  1  0
  9 30  1  0
 10 31  1  0
 14 32  1  0
 16 33  1  0
 19 34  1  0
 20 35  1  0
 21 36  1  0
 22 37  1  0
M  END
$$$$
OCNT-2308899
     RDKit          3D

 38 40  0  0  0  0  0  0  0  0999 V2000
   -6.4545    2.2548    1.2445 F   0  0  0  0  0  0  0  0  0  0  0  0
   -6.0122    1.0084    1.5694 C   0  0  0  0  0  0  0  0  0  0  0  0
   -7.0631    0.1699    1.3438 F   0  0  0  0  0  0  0  0  0  0  0  0
   -5.8311    1.0170    2.9201 F   0  0  0  0  0  0  0  0  0  0  0  0
   -4.7716    0.6210    0.8045 C   0  0  0  0  0  0  0  0  0  0  0  0
   -4.8720    0.0042   -0.4517 C   0  0  0  0  0  0  0  0  0  0  0  0
   -3.7240   -0.3359   -1.1713 C   0  0  0  0  0  0  0  0  0  0  0  0
   -2.4548   -0.0558   -0.6521 C   0  0  0  0  0  0  0  0  0  0  0  0
   -1.2073   -0.4343   -1.4135 C   0  0  0  0  0  0  0  0  0  0  0  0
   -0.6208   -1.7632   -0.9247 C   0  0  0  0  0  0  0  0  0  0  0  0
    0.5771   -2.1204   -1.6724 N   0  0  0  0  0  0  0  0  0  0  0  0
    1.7657   -1.5497   -1.3957 C   0  0  0  0  0  0  0  0  0  0  0  0
    2.0212   -0.7421   -0.3706 N   0  0  0  0  0  0  0  0  0  0  0  0
    3.3374   -0.4176   -0.4957 N   0  0  0  0  0  0  0  0  0  0  0  0
    4.0157    0.4512    0.4277 C   0  0  0  0  0  0  0  0  0  0  0  0
    3.3148    0.9699    1.4628 N   0  0  0  0  0  0  0  0  0  0  0  0
    3.9848    1.7770    2.3041 C   0  0  0  0  0  0  0  0  0  0  0  0
    5.3147    2.0892    2.1581 C   0  0  0  0  0  0  0  0  0  0  0  0
    5.9444    1.5188    1.0781 C   0  0  0  0  0  0  0  0  0  0  0  0
    5.3290    0.7030    0.2014 N   0  0  0  0  0  0  0  0  0  0  0  0
    3.8989   -1.0210   -1.6042 C   0  0  0  0  0  0  0  0  0  0  0  0
    2.9036   -1.7555   -2.1999 C   0  0  0  0  0  0  0  0  0  0  0  0
   -2.3508    0.5640    0.5997 C   0  0  0  0  0  0  0  0  0  0  0  0
   -3.4981    0.9036    1.3193 C   0  0  0  0  0  0  0  0  0  0  0  0
   -5.8506   -0.2166   -0.8759 H   0  0  0  0  0  0  0  0  0  0  0  0
   -3.8280   -0.8178   -2.1412 H   0  0  0  0  0  0  0  0  0  0  0  0
   -1.4323   -0.4985   -2.4862 H   0  0  0  0  0  0  0  0  0  0  0  0
   -0.4739    0.3764   -1.3178 H   0  0  0  0  0  0  0  0  0  0  0  0
   -0.4137   -1.7335    0.1527 H   0  0  0  0  0  0  0  0  0  0  0  0
   -1.3591   -2.5624   -1.0655 H   0  0  0  0  0  0  0  0  0  0  0  0
    0.4166   -2.5684   -2.5667 H   0  0  0  0  0  0  0  0  0  0  0  0
    3.3986    2.1776    3.1262 H   0  0  0  0  0  0  0  0  0  0  0  0
    5.8313    2.7410    2.8485 H   0  0  0  0  0  0  0  0  0  0  0  0
    6.9958    1.7062    0.8790 H   0  0  0  0  0  0  0  0  0  0  0  0
    4.9396   -0.8693   -1.8525 H   0  0  0  0  0  0  0  0  0  0  0  0
    2.9911   -2.3606   -3.0899 H   0  0  0  0  0  0  0  0  0  0  0  0
   -1.3699    0.7857    1.0194 H   0  0  0  0  0  0  0  0  0  0  0  0
   -3.3923    1.3892    2.2883 H   0  0  0  0  0  0  0  0  0  0  0  0
  1  2  1  0
  2  3  1  0
  2  4  1  0
  2  5  1  0
  5  6  1  0
  6  7  2  0
  7  8  1  0
  8  9  1  0
  9 10  1  0
 10 11  1  0
 11 12  1  0
 12 13  2  0
 13 14  1  0
 14 15  1  0
 15 16  2  0
 16 17  1  0
 17 18  2  0
 18 19  1  0
 19 20  2  0
 14 21  1  0
 21 22  2  0
  8 23  2  0
 23 24  1  0
 24  5  2  0
 22 12  1  0
 20 15  1  0
  6 25  1  0
  7 26  1  0
  9 27  1  0
  9 28  1  0
 10 29  1  0
 10 30  1  0
 11 31  1  0
 17 32  1  0
 18 33  1  0
 19 34  1  0
 21 35  1  0
 22 36  1  0
 23 37  1  0
 24 38  1  0
M  END
$$$$
OCNT-2308900
     RDKit          3D

 44 47  0  0  0  0  0  0  0  0999 V2000
    2.6811    1.0450    1.3636 C   0  0  0  0  0  0  0  0  0  0  0  0
    2.9634    0.1932    0.1471 C   0  0  0  0  0  0  0  0  0  0  0  0
    1.8691   -0.3425   -0.5948 C   0  0  0  0  0  0  0  0  0  0  0  0
    0.5586   -0.2672   -0.0517 N   0  0  0  0  0  0  0  0  0  0  0  0
   -0.6447   -0.5506   -0.6724 C   0  0  0  0  0  0  0  0  0  0  0  0
   -0.7647   -0.8143   -1.8632 O   0  0  0  0  0  0  0  0  0  0  0  0
   -1.8107   -0.4544    0.1923 C   0  0  0  0  0  0  0  0  0  0  0  0
   -1.9807   -0.6973    1.5577 C   0  0  0  0  0  0  0  0  0  0  0  0
   -0.9937   -1.1984    2.5665 C   0  0  0  0  0  0  0  0  0  0  0  0
    0.1750   -0.4959    2.4844 F   0  0  0  0  0  0  0  0  0  0  0  0
   -1.4216   -1.0399    3.8477 F   0  0  0  0  0  0  0  0  0  0  0  0
   -3.2887   -0.4459    1.9327 N   0  0  0  0  0  0  0  0  0  0  0  0
   -3.9179   -0.0730    0.8443 C   0  0  0  0  0  0  0  0  0  0  0  0
   -5.3509    0.3224    0.7326 C   0  0  0  0  0  0  0  0  0  0  0  0
   -5.6115    1.1258   -0.5407 C   0  0  0  0  0  0  0  0  0  0  0  0
   -4.9952    0.4203   -1.7465 C   0  0  0  0  0  0  0  0  0  0  0  0
   -3.4810    0.2625   -1.5858 C   0  0  0  0  0  0  0  0  0  0  0  0
   -3.0802   -0.1171   -0.2407 N   0  0  0  0  0  0  0  0  0  0  0  0
    2.1098   -0.9638   -1.8261 C   0  0  0  0  0  0  0  0  0  0  0  0
    3.3997   -1.0777   -2.3338 C   0  0  0  0  0  0  0  0  0  0  0  0
    4.4795   -0.6180   -1.5923 C   0  0  0  0  0  0  0  0  0  0  0  0
    4.2851   -0.0215   -0.3323 C   0  0  0  0  0  0  0  0  0  0  0  0
    5.4643    0.3045    0.3982 N   0  0  0  0  0  0  0  0  0  0  0  0
    5.6674    0.4867    1.7444 C   0  0  0  0  0  0  0  0  0  0  0  0
    6.9316    0.7621    1.9691 N   0  0  0  0  0  0  0  0  0  0  0  0
    7.5440    0.7068    0.7488 N   0  0  0  0  0  0  0  0  0  0  0  0
    6.6771    0.3985   -0.2041 N   0  0  0  0  0  0  0  0  0  0  0  0
    2.6168    0.4234    2.2608 H   0  0  0  0  0  0  0  0  0  0  0  0
    3.4389    1.8228    1.4950 H   0  0  0  0  0  0  0  0  0  0  0  0
    1.7495    1.6103    1.2536 H   0  0  0  0  0  0  0  0  0  0  0  0
    0.4924    0.0706    0.9009 H   0  0  0  0  0  0  0  0  0  0  0  0
   -0.7712   -2.2567    2.4050 H   0  0  0  0  0  0  0  0  0  0  0  0
   -5.9655   -0.5857    0.7305 H   0  0  0  0  0  0  0  0  0  0  0  0
   -5.6447    0.9126    1.6075 H   0  0  0  0  0  0  0  0  0  0  0  0
   -6.6903    1.2496   -0.6859 H   0  0  0  0  0  0  0  0  0  0  0  0
   -5.1798    2.1302   -0.4453 H   0  0  0  0  0  0  0  0  0  0  0  0
   -5.4551   -0.5703   -1.8560 H   0  0  0  0  0  0  0  0  0  0  0  0
   -5.2124    0.9754   -2.6657 H   0  0  0  0  0  0  0  0  0  0  0  0
   -3.1296   -0.5058   -2.2801 H   0  0  0  0  0  0  0  0  0  0  0  0
   -2.9737    1.2086   -1.8058 H   0  0  0  0  0  0  0  0  0  0  0  0
    1.3091   -1.3878   -2.4240 H   0  0  0  0  0  0  0  0  0  0  0  0
    3.5629   -1.5557   -3.2971 H   0  0  0  0  0  0  0  0  0  0  0  0
    5.4776   -0.7692   -2.0038 H   0  0  0  0  0  0  0  0  0  0  0  0
    4.9110    0.3772    2.5025 H   0  0  0  0  0  0  0  0  0  0  0  0
  1  2  1  0
  2  3  2  0
  3  4  1  0
  4  5  1  0
  5  6  2  0
  5  7  1  0
  7  8  2  0
  8  9  1  0
  9 10  1  0
  9 11  1  0
  8 12  1  0
 12 13  2  0
 13 14  1  0
 14 15  1  0
 15 16  1  0
 16 17  1  0
 17 18  1  0
  3 19  1  0
 19 20  2  0
 20 21  1  0
 21 22  2  0
 22 23  1  0
 23 24  1  0
 24 25  2  0
 25 26  1  0
 26 27  2  0
 22  2  1  0
 27 23  1  0
 18  7  1  0
 18 13  1  0
  1 28  1  0
  1 29  1  0
  1 30  1  0
  4 31  1  0
  9 32  1  0
 14 33  1  0
 14 34  1  0
 15 35  1  0
 15 36  1  0
 16 37  1  0
 16 38  1  0
 17 39  1  0
 17 40  1  0
 19 41  1  0
 20 42  1  0
 21 43  1  0
 24 44  1  0
M  END
$$$$
OCNT-2308903
     RDKit          3D

 38 40  0  0  0  0  0  0  0  0999 V2000
    4.8855   -0.4814    1.6551 C   0  0  0  0  0  0  0  0  0  0  0  0
    5.1080   -0.0034    0.3158 N   0  0  0  0  0  0  0  0  0  0  0  0
    6.3374    0.1077   -0.2750 C   0  0  0  0  0  0  0  0  0  0  0  0
    6.2474    0.5663   -1.5022 N   0  0  0  0  0  0  0  0  0  0  0  0
    4.9048    0.7587   -1.7113 C   0  0  0  0  0  0  0  0  0  0  0  0
    4.1739    0.4125   -0.5949 C   0  0  0  0  0  0  0  0  0  0  0  0
    2.6375    0.5032   -0.4813 C   0  0  0  0  0  0  0  0  0  0  0  0
    1.8504    0.1799    0.5965 C   0  0  0  0  0  0  0  0  0  0  0  0
    0.5833    0.4336    0.1591 N   0  0  0  0  0  0  0  0  0  0  0  0
   -0.6631    0.2766    0.8832 C   0  0  0  0  0  0  0  0  0  0  0  0
   -1.2888   -1.0973    0.6240 C   0  0  0  0  0  0  0  0  0  0  0  0
   -0.5231   -2.0881    1.3307 O   0  0  0  0  0  0  0  0  0  0  0  0
   -2.7374   -1.1783    1.1332 C   0  0  0  0  0  0  0  0  0  0  0  0
   -3.7145   -0.3186    0.3729 C   0  0  0  0  0  0  0  0  0  0  0  0
   -4.3319    0.7783    0.9940 C   0  0  0  0  0  0  0  0  0  0  0  0
   -5.2359    1.5799    0.2908 C   0  0  0  0  0  0  0  0  0  0  0  0
   -5.5359    1.2901   -1.0384 C   0  0  0  0  0  0  0  0  0  0  0  0
   -4.9316    0.2007   -1.6523 C   0  0  0  0  0  0  0  0  0  0  0  0
   -5.2250   -0.0843   -2.9277 F   0  0  0  0  0  0  0  0  0  0  0  0
   -4.0282   -0.6031   -0.9630 C   0  0  0  0  0  0  0  0  0  0  0  0
    0.5788    0.8941   -1.1025 N   0  0  0  0  0  0  0  0  0  0  0  0
    1.8412    0.9406   -1.5074 N   0  0  0  0  0  0  0  0  0  0  0  0
    4.4056    0.3111    2.2344 H   0  0  0  0  0  0  0  0  0  0  0  0
    4.2558   -1.3731    1.6088 H   0  0  0  0  0  0  0  0  0  0  0  0
    5.8425   -0.7383    2.1175 H   0  0  0  0  0  0  0  0  0  0  0  0
    7.2592   -0.1568    0.2272 H   0  0  0  0  0  0  0  0  0  0  0  0
    4.5306    1.1371   -2.6544 H   0  0  0  0  0  0  0  0  0  0  0  0
    2.0465   -0.2029    1.5846 H   0  0  0  0  0  0  0  0  0  0  0  0
   -1.3135    1.0966    0.5617 H   0  0  0  0  0  0  0  0  0  0  0  0
   -0.4346    0.4135    1.9465 H   0  0  0  0  0  0  0  0  0  0  0  0
   -1.2385   -1.3464   -0.4429 H   0  0  0  0  0  0  0  0  0  0  0  0
   -0.7995   -2.9609    0.9959 H   0  0  0  0  0  0  0  0  0  0  0  0
   -3.0848   -2.2194    1.0833 H   0  0  0  0  0  0  0  0  0  0  0  0
   -2.7614   -0.9327    2.2035 H   0  0  0  0  0  0  0  0  0  0  0  0
   -4.1154    1.0200    2.0330 H   0  0  0  0  0  0  0  0  0  0  0  0
   -5.7067    2.4289    0.7805 H   0  0  0  0  0  0  0  0  0  0  0  0
   -6.2359    1.9025   -1.5976 H   0  0  0  0  0  0  0  0  0  0  0  0
   -3.5829   -1.4466   -1.4826 H   0  0  0  0  0  0  0  0  0  0  0  0
  1  2  1  0
  2  3  1  0
  3  4  2  0
  4  5  1  0
  5  6  2  0
  6  7  1  0
  7  8  2  0
  8  9  1  0
  9 10  1  0
 10 11  1  0
 11 12  1  0
 11 13  1  0
 13 14  1  0
 14 15  2  0
 15 16  1  0
 16 17  2  0
 17 18  1  0
 18 19  1  0
 18 20  2  0
  9 21  1  0
 21 22  2  0
  6  2  1  0
 22  7  1  0
 20 14  1  0
  1 23  1  0
  1 24  1  0
  1 25  1  0
  3 26  1  0
  5 27  1  0
  8 28  1  0
 10 29  1  0
 10 30  1  0
 11 31  1  0
 12 32  1  0
 13 33  1  0
 13 34  1  0
 15 35  1  0
 16 36  1  0
 17 37  1  0
 20 38  1  0
M  END
$$$$
OCNT-2308905
     RDKit          3D

 42 45  0  0  0  0  0  0  0  0999 V2000
   -6.7689    2.2477    0.3105 C   0  0  0  0  0  0  0  0  0  0  0  0
   -5.5299    1.4112    0.3291 C   0  0  0  0  0  0  0  0  0  0  0  0
   -4.3628    1.8771    0.9115 C   0  0  0  0  0  0  0  0  0  0  0  0
   -3.2030    1.1869    0.9385 N   0  0  0  0  0  0  0  0  0  0  0  0
   -3.1727   -0.0411    0.3455 C   0  0  0  0  0  0  0  0  0  0  0  0
   -1.8752   -0.7066    0.4148 C   0  0  0  0  0  0  0  0  0  0  0  0
   -0.7700   -0.2364    1.0958 C   0  0  0  0  0  0  0  0  0  0  0  0
    0.1873   -1.1710    0.8610 N   0  0  0  0  0  0  0  0  0  0  0  0
    1.5520   -1.1784    1.3240 C   0  0  0  0  0  0  0  0  0  0  0  0
    2.5052   -0.4357    0.3914 C   0  0  0  0  0  0  0  0  0  0  0  0
    2.7362   -1.1794   -0.9249 C   0  0  0  0  0  0  0  0  0  0  0  0
    3.5943   -0.4218   -1.7894 O   0  0  0  0  0  0  0  0  0  0  0  0
    4.6826    0.0708   -1.1194 C   0  0  0  0  0  0  0  0  0  0  0  0
    5.7373    0.5447   -1.8976 C   0  0  0  0  0  0  0  0  0  0  0  0
    6.8870    1.0426   -1.2824 C   0  0  0  0  0  0  0  0  0  0  0  0
    6.9790    1.0686    0.1105 C   0  0  0  0  0  0  0  0  0  0  0  0
    5.9170    0.6063    0.8897 C   0  0  0  0  0  0  0  0  0  0  0  0
    4.7639    0.1222    0.2743 C   0  0  0  0  0  0  0  0  0  0  0  0
    3.7532   -0.2948    1.1001 O   0  0  0  0  0  0  0  0  0  0  0  0
   -0.2764   -2.1726    0.0974 N   0  0  0  0  0  0  0  0  0  0  0  0
   -1.5411   -1.8938   -0.1902 N   0  0  0  0  0  0  0  0  0  0  0  0
   -4.2969   -0.5972   -0.2794 C   0  0  0  0  0  0  0  0  0  0  0  0
   -4.2988   -1.9426   -0.9459 C   0  0  0  0  0  0  0  0  0  0  0  0
   -5.4817    0.1582   -0.2812 C   0  0  0  0  0  0  0  0  0  0  0  0
   -7.6583    1.6339    0.1340 H   0  0  0  0  0  0  0  0  0  0  0  0
   -6.7029    2.9993   -0.4824 H   0  0  0  0  0  0  0  0  0  0  0  0
   -6.9079    2.7534    1.2716 H   0  0  0  0  0  0  0  0  0  0  0  0
   -4.3210    2.8535    1.3882 H   0  0  0  0  0  0  0  0  0  0  0  0
   -0.6083    0.6499    1.6923 H   0  0  0  0  0  0  0  0  0  0  0  0
    1.5605   -0.7188    2.3202 H   0  0  0  0  0  0  0  0  0  0  0  0
    1.8654   -2.2198    1.4678 H   0  0  0  0  0  0  0  0  0  0  0  0
    2.1243    0.5759    0.1918 H   0  0  0  0  0  0  0  0  0  0  0  0
    1.7988   -1.3274   -1.4682 H   0  0  0  0  0  0  0  0  0  0  0  0
    3.1946   -2.1630   -0.7613 H   0  0  0  0  0  0  0  0  0  0  0  0
    5.6675    0.5159   -2.9817 H   0  0  0  0  0  0  0  0  0  0  0  0
    7.7124    1.4059   -1.8896 H   0  0  0  0  0  0  0  0  0  0  0  0
    7.8766    1.4526    0.5892 H   0  0  0  0  0  0  0  0  0  0  0  0
    5.9853    0.6343    1.9734 H   0  0  0  0  0  0  0  0  0  0  0  0
   -5.2931   -2.1978   -1.3296 H   0  0  0  0  0  0  0  0  0  0  0  0
   -3.6139   -1.9499   -1.7997 H   0  0  0  0  0  0  0  0  0  0  0  0
   -4.0242   -2.7268   -0.2335 H   0  0  0  0  0  0  0  0  0  0  0  0
   -6.3734   -0.2360   -0.7658 H   0  0  0  0  0  0  0  0  0  0  0  0
  1  2  1  0
  2  3  1  0
  3  4  2  0
  4  5  1  0
  5  6  1  0
  6  7  2  0
  7  8  1  0
  8  9  1  0
  9 10  1  0
 10 11  1  0
 11 12  1  0
 12 13  1  0
 13 14  2  0
 14 15  1  0
 15 16  2  0
 16 17  1  0
 17 18  2  0
 18 19  1  0
  8 20  1  0
 20 21  2  0
  5 22  2  0
 22 23  1  0
 22 24  1  0
 24  2  2  0
 21  6  1  0
 19 10  1  0
 18 13  1  0
  1 25  1  0
  1 26  1  0
  1 27  1  0
  3 28  1  0
  7 29  1  0
  9 30  1  0
  9 31  1  0
 10 32  1  0
 11 33  1  0
 11 34  1  0
 14 35  1  0
 15 36  1  0
 16 37  1  0
 17 38  1  0
 23 39  1  0
 23 40  1  0
 23 41  1  0
 24 42  1  0
M  END
$$$$
OCNT-2308908
     RDKit          3D

 47 50  0  0  0  0  0  0  0  0999 V2000
    5.1006    2.3533    1.0844 C   0  0  0  0  0  0  0  0  0  0  0  0
    4.4325    1.0247    0.8590 C   0  0  0  0  0  0  0  0  0  0  0  0
    3.6174    0.4865    1.8654 C   0  0  0  0  0  0  0  0  0  0  0  0
    2.9781   -0.7414    1.6887 C   0  0  0  0  0  0  0  0  0  0  0  0
    3.1414   -1.4625    0.5005 C   0  0  0  0  0  0  0  0  0  0  0  0
    2.4464   -2.7885    0.3033 C   0  0  0  0  0  0  0  0  0  0  0  0
    1.1485   -2.4827   -0.3479 C   0  0  0  0  0  0  0  0  0  0  0  0
    0.9562   -2.6075   -1.6699 N   0  0  0  0  0  0  0  0  0  0  0  0
   -0.3742   -2.2220   -1.8383 O   0  0  0  0  0  0  0  0  0  0  0  0
   -0.8505   -1.9263   -0.5954 C   0  0  0  0  0  0  0  0  0  0  0  0
   -2.2536   -1.4578   -0.5049 C   0  0  0  0  0  0  0  0  0  0  0  0
   -2.3389   -0.0130    0.0281 C   0  0  0  0  0  0  0  0  0  0  0  0
   -1.8026    1.0185   -0.9709 C   0  0  0  0  0  0  0  0  0  0  0  0
   -2.7480    1.2464   -2.1290 C   0  0  0  0  0  0  0  0  0  0  0  0
   -2.3537    1.5063   -3.2627 O   0  0  0  0  0  0  0  0  0  0  0  0
   -4.0837    1.2437   -1.8311 N   0  0  0  0  0  0  0  0  0  0  0  0
   -4.6065    0.8999   -0.5824 C   0  0  0  0  0  0  0  0  0  0  0  0
   -5.9577    1.1172   -0.3175 C   0  0  0  0  0  0  0  0  0  0  0  0
   -6.4792    0.7807    0.9321 C   0  0  0  0  0  0  0  0  0  0  0  0
   -5.6539    0.2196    1.9068 C   0  0  0  0  0  0  0  0  0  0  0  0
   -4.3063   -0.0169    1.6325 C   0  0  0  0  0  0  0  0  0  0  0  0
   -3.7739    0.3195    0.3813 C   0  0  0  0  0  0  0  0  0  0  0  0
    0.0345   -2.0929    0.3602 N   0  0  0  0  0  0  0  0  0  0  0  0
    3.9526   -0.9229   -0.5099 C   0  0  0  0  0  0  0  0  0  0  0  0
    4.6006    0.3128   -0.3447 C   0  0  0  0  0  0  0  0  0  0  0  0
    5.4536    0.8503   -1.4613 C   0  0  0  0  0  0  0  0  0  0  0  0
    4.8715    2.7555    2.0770 H   0  0  0  0  0  0  0  0  0  0  0  0
    6.1881    2.2493    1.0156 H   0  0  0  0  0  0  0  0  0  0  0  0
    4.7551    3.0828    0.3451 H   0  0  0  0  0  0  0  0  0  0  0  0
    3.4699    1.0250    2.7990 H   0  0  0  0  0  0  0  0  0  0  0  0
    2.3431   -1.1279    2.4832 H   0  0  0  0  0  0  0  0  0  0  0  0
    3.0597   -3.4580   -0.3105 H   0  0  0  0  0  0  0  0  0  0  0  0
    2.2886   -3.2900    1.2648 H   0  0  0  0  0  0  0  0  0  0  0  0
   -2.7860   -2.1401    0.1704 H   0  0  0  0  0  0  0  0  0  0  0  0
   -2.7490   -1.5466   -1.4797 H   0  0  0  0  0  0  0  0  0  0  0  0
   -1.7314    0.0726    0.9400 H   0  0  0  0  0  0  0  0  0  0  0  0
   -0.8246    0.7208   -1.3633 H   0  0  0  0  0  0  0  0  0  0  0  0
   -1.6718    1.9888   -0.4741 H   0  0  0  0  0  0  0  0  0  0  0  0
   -4.7005    1.5363   -2.5784 H   0  0  0  0  0  0  0  0  0  0  0  0
   -6.6105    1.5580   -1.0655 H   0  0  0  0  0  0  0  0  0  0  0  0
   -7.5302    0.9572    1.1476 H   0  0  0  0  0  0  0  0  0  0  0  0
   -6.0639   -0.0425    2.8794 H   0  0  0  0  0  0  0  0  0  0  0  0
   -3.6792   -0.4740    2.3952 H   0  0  0  0  0  0  0  0  0  0  0  0
    4.0731   -1.4707   -1.4440 H   0  0  0  0  0  0  0  0  0  0  0  0
    6.4859    0.9816   -1.1219 H   0  0  0  0  0  0  0  0  0  0  0  0
    5.0591    1.8087   -1.8132 H   0  0  0  0  0  0  0  0  0  0  0  0
    5.4733    0.1678   -2.3176 H   0  0  0  0  0  0  0  0  0  0  0  0
  1  2  1  0
  2  3  1  0
  3  4  2  0
  4  5  1  0
  5  6  1  0
  6  7  1  0
  7  8  2  0
  8  9  1  0
  9 10  1  0
 10 11  1  0
 11 12  1  0
 12 13  1  0
 13 14  1  0
 14 15  2  0
 14 16  1  0
 16 17  1  0
 17 18  2  0
 18 19  1  0
 19 20  2  0
 20 21  1  0
 21 22  2  0
 10 23  2  0
  5 24  2  0
 24 25  1  0
 25 26  1  0
 25  2  2  0
 23  7  1  0
 22 12  1  0
 22 17  1  0
  1 27  1  0
  1 28  1  0
  1 29  1  0
  3 30  1  0
  4 31  1  0
  6 32  1  0
  6 33  1  0
 11 34  1  0
 11 35  1  0
 12 36  1  0
 13 37  1  0
 13 38  1  0
 16 39  1  0
 18 40  1  0
 19 41  1  0
 20 42  1  0
 21 43  1  0
 24 44  1  0
 26 45  1  0
 26 46  1  0
 26 47  1  0
M  END
$$$$
OCNT-2308918
     RDKit          3D

 43 45  0  0  0  0  0  0  0  0999 V2000
    4.6415    2.6843    2.0643 N   0  0  0  0  0  0  0  0  0  0  0  0
    3.5775    1.8738    1.7876 C   0  0  0  0  0  0  0  0  0  0  0  0
    2.6931    1.6945    2.6222 O   0  0  0  0  0  0  0  0  0  0  0  0
    3.5798    1.2667    0.4768 C   0  0  0  0  0  0  0  0  0  0  0  0
    2.6656    0.4024   -0.1166 C   0  0  0  0  0  0  0  0  0  0  0  0
    1.5299   -0.0073    0.5794 N   0  0  0  0  0  0  0  0  0  0  0  0
    0.5429   -0.8812    0.1724 C   0  0  0  0  0  0  0  0  0  0  0  0
    0.4896   -1.4837   -0.8910 O   0  0  0  0  0  0  0  0  0  0  0  0
   -0.5172   -1.0485    1.2501 C   0  0  0  0  0  0  0  0  0  0  0  0
   -1.6826   -1.9151    0.7815 C   0  0  0  0  0  0  0  0  0  0  0  0
   -2.6926   -2.1082    1.8817 C   0  0  0  0  0  0  0  0  0  0  0  0
   -3.9228   -1.5750    1.9538 C   0  0  0  0  0  0  0  0  0  0  0  0
   -4.4951   -0.6596    0.9667 C   0  0  0  0  0  0  0  0  0  0  0  0
   -4.1146    0.6865    0.9397 C   0  0  0  0  0  0  0  0  0  0  0  0
   -4.6638    1.5534   -0.0070 C   0  0  0  0  0  0  0  0  0  0  0  0
   -5.5958    1.0789   -0.9295 C   0  0  0  0  0  0  0  0  0  0  0  0
   -5.9797   -0.2615   -0.9062 C   0  0  0  0  0  0  0  0  0  0  0  0
   -5.4319   -1.1296    0.0407 C   0  0  0  0  0  0  0  0  0  0  0  0
    3.1794    0.1301   -1.4276 C   0  0  0  0  0  0  0  0  0  0  0  0
    2.8081   -0.6193   -2.5642 C   0  0  0  0  0  0  0  0  0  0  0  0
    3.6293   -0.6200   -3.7039 C   0  0  0  0  0  0  0  0  0  0  0  0
    4.8126    0.1132   -3.7362 C   0  0  0  0  0  0  0  0  0  0  0  0
    5.2100    0.8696   -2.6334 C   0  0  0  0  0  0  0  0  0  0  0  0
    4.3717    0.8486   -1.5177 C   0  0  0  0  0  0  0  0  0  0  0  0
    4.6131    1.5337   -0.3718 O   0  0  0  0  0  0  0  0  0  0  0  0
    5.3733    2.8287    1.3803 H   0  0  0  0  0  0  0  0  0  0  0  0
    4.6938    3.1349    2.9660 H   0  0  0  0  0  0  0  0  0  0  0  0
    1.4439    0.3860    1.5172 H   0  0  0  0  0  0  0  0  0  0  0  0
   -0.8820   -0.0539    1.5348 H   0  0  0  0  0  0  0  0  0  0  0  0
   -0.0386   -1.5008    2.1276 H   0  0  0  0  0  0  0  0  0  0  0  0
   -2.1378   -1.4764   -0.1138 H   0  0  0  0  0  0  0  0  0  0  0  0
   -1.3176   -2.9041    0.4773 H   0  0  0  0  0  0  0  0  0  0  0  0
   -2.3848   -2.7755    2.6856 H   0  0  0  0  0  0  0  0  0  0  0  0
   -4.5722   -1.8170    2.7919 H   0  0  0  0  0  0  0  0  0  0  0  0
   -3.3881    1.0659    1.6542 H   0  0  0  0  0  0  0  0  0  0  0  0
   -4.3628    2.5975   -0.0263 H   0  0  0  0  0  0  0  0  0  0  0  0
   -6.0210    1.7532   -1.6684 H   0  0  0  0  0  0  0  0  0  0  0  0
   -6.7031   -0.6327   -1.6273 H   0  0  0  0  0  0  0  0  0  0  0  0
   -5.7326   -2.1743    0.0456 H   0  0  0  0  0  0  0  0  0  0  0  0
    1.8941   -1.2019   -2.5880 H   0  0  0  0  0  0  0  0  0  0  0  0
    3.3298   -1.2031   -4.5724 H   0  0  0  0  0  0  0  0  0  0  0  0
    5.4324    0.0973   -4.6299 H   0  0  0  0  0  0  0  0  0  0  0  0
    6.1251    1.4495   -2.6385 H   0  0  0  0  0  0  0  0  0  0  0  0
  1  2  1  0
  2  3  2  0
  2  4  1  0
  4  5  2  0
  5  6  1  0
  6  7  1  0
  7  8  2  0
  7  9  1  0
  9 10  1  0
 10 11  1  0
 11 12  2  3
 12 13  1  0
 13 14  2  0
 14 15  1  0
 15 16  2  0
 16 17  1  0
 17 18  2  0
  5 19  1  0
 19 20  2  0
 20 21  1  0
 21 22  2  0
 22 23  1  0
 23 24  2  0
 24 25  1  0
 25  4  1  0
 18 13  1  0
 24 19  1  0
  1 26  1  0
  1 27  1  0
  6 28  1  0
  9 29  1  0
  9 30  1  0
 10 31  1  0
 10 32  1  0
 11 33  1  0
 12 34  1  0
 14 35  1  0
 15 36  1  0
 16 37  1  0
 17 38  1  0
 18 39  1  0
 20 40  1  0
 21 41  1  0
 22 42  1  0
 23 43  1  0
M  END
$$$$
OCNT-2308924
     RDKit          3D

 37 39  0  0  0  0  0  0  0  0999 V2000
   -3.3698   -2.1144    0.5928 C   0  0  0  0  0  0  0  0  0  0  0  0
   -3.2833   -0.6119    0.3235 C   0  0  0  0  0  0  0  0  0  0  0  0
   -1.8469   -0.2221    0.3059 N   0  0  0  0  0  0  0  0  0  0  0  0
   -1.3683    1.0563    0.0762 C   0  0  0  0  0  0  0  0  0  0  0  0
   -2.0754    2.0339   -0.1298 O   0  0  0  0  0  0  0  0  0  0  0  0
    0.1087    1.2120    0.1289 C   0  0  0  0  0  0  0  0  0  0  0  0
    0.6343    2.3874    0.6663 C   0  0  0  0  0  0  0  0  0  0  0  0
    2.0138    2.5492    0.7435 C   0  0  0  0  0  0  0  0  0  0  0  0
    2.8669    1.5461    0.2693 C   0  0  0  0  0  0  0  0  0  0  0  0
    2.3659    0.3748   -0.3122 C   0  0  0  0  0  0  0  0  0  0  0  0
    3.1719   -0.6724   -0.7978 N   0  0  0  0  0  0  0  0  0  0  0  0
    4.5174   -0.8189   -0.7408 C   0  0  0  0  0  0  0  0  0  0  0  0
    5.3854   -0.0695   -0.0968 N   0  0  0  0  0  0  0  0  0  0  0  0
    6.6694   -0.5436   -0.2705 C   0  0  0  0  0  0  0  0  0  0  0  0
    6.7841   -1.6703   -1.0503 C   0  0  0  0  0  0  0  0  0  0  0  0
    5.2334   -2.1555   -1.5840 S   0  0  0  0  0  0  0  0  0  0  0  0
    0.9692    0.2197   -0.3664 C   0  0  0  0  0  0  0  0  0  0  0  0
   -4.2013    0.2465    1.2286 C   0  0  0  0  0  0  0  0  0  0  0  0
   -5.2543    0.2268    0.0974 C   0  0  0  0  0  0  0  0  0  0  0  0
   -6.2191   -0.7142    0.2348 F   0  0  0  0  0  0  0  0  0  0  0  0
   -5.8904    1.3947   -0.1399 F   0  0  0  0  0  0  0  0  0  0  0  0
   -4.1239   -0.1423   -0.8899 C   0  0  0  0  0  0  0  0  0  0  0  0
   -2.8448   -2.6815   -0.1841 H   0  0  0  0  0  0  0  0  0  0  0  0
   -4.4065   -2.4672    0.6132 H   0  0  0  0  0  0  0  0  0  0  0  0
   -2.9186   -2.3654    1.5593 H   0  0  0  0  0  0  0  0  0  0  0  0
   -1.1634   -0.8984    0.6292 H   0  0  0  0  0  0  0  0  0  0  0  0
   -0.0267    3.1709    1.0307 H   0  0  0  0  0  0  0  0  0  0  0  0
    2.4335    3.4567    1.1709 H   0  0  0  0  0  0  0  0  0  0  0  0
    3.9371    1.7178    0.3484 H   0  0  0  0  0  0  0  0  0  0  0  0
    2.6791   -1.3587   -1.3540 H   0  0  0  0  0  0  0  0  0  0  0  0
    7.4938   -0.0227    0.2010 H   0  0  0  0  0  0  0  0  0  0  0  0
    7.6770   -2.2144   -1.3213 H   0  0  0  0  0  0  0  0  0  0  0  0
    0.5501   -0.6732   -0.8222 H   0  0  0  0  0  0  0  0  0  0  0  0
   -3.8468    1.2534    1.4697 H   0  0  0  0  0  0  0  0  0  0  0  0
   -4.5238   -0.2273    2.1612 H   0  0  0  0  0  0  0  0  0  0  0  0
   -4.3862   -0.9203   -1.6140 H   0  0  0  0  0  0  0  0  0  0  0  0
   -3.7416    0.7180   -1.4478 H   0  0  0  0  0  0  0  0  0  0  0  0
  1  2  1  0
  2  3  1  0
  3  4  1  0
  4  5  2  0
  4  6  1  0
  6  7  1  0
  7  8  2  0
  8  9  1  0
  9 10  2  0
 10 11  1  0
 11 12  1  0
 12 13  2  0
 13 14  1  0
 14 15  2  0
 15 16  1  0
 10 17  1  0
  2 18  1  0
 18 19  1  0
 19 20  1  0
 19 21  1  0
 19 22  1  0
 22  2  1  0
 17  6  2  0
 16 12  1  0
  1 23  1  0
  1 24  1  0
  1 25  1  0
  3 26  1  0
  7 27  1  0
  8 28  1  0
  9 29  1  0
 11 30  1  0
 14 31  1  0
 15 32  1  0
 17 33  1  0
 18 34  1  0
 18 35  1  0
 22 36  1  0
 22 37  1  0
M  END
$$$$
OCNT-2308925
     RDKit          3D

  0  0  0  0  0  0  0  0  0  0999 V3000
M  V30 BEGIN CTAB
M  V30 COUNTS 46 49 0 0 0
M  V30 BEGIN ATOM
M  V30 1 C 5.111271 0.978922 -1.632897 0
M  V30 2 C 5.195258 0.049480 -0.434560 0
M  V30 3 N 4.466592 0.553733 0.712068 0
M  V30 4 C 5.028600 1.256150 1.746641 0
M  V30 5 C 3.990923 1.518930 2.606341 0
M  V30 6 N 2.820205 0.995828 2.126941 0
M  V30 7 C 3.124768 0.417030 0.978269 0
M  V30 8 C 2.073997 -0.303882 0.086466 0
M  V30 9 C 0.735748 -0.408866 0.378526 0
M  V30 10 N 0.221357 -1.106107 -0.675275 0
M  V30 11 C -1.149304 -1.571862 -0.902830 0 CFG=2
M  V30 12 C -2.166938 -0.511106 -0.503954 0
M  V30 13 C -2.229523 0.693224 -1.232308 0
M  V30 14 C -3.133225 1.703480 -0.895229 0
M  V30 15 O -3.071980 2.813628 -1.690931 0
M  V30 16 C -3.949417 3.884889 -1.368370 0
M  V30 17 C -3.996030 1.510263 0.179405 0
M  V30 18 C -3.953566 0.317272 0.907108 0
M  V30 19 C -3.040164 -0.696090 0.581705 0
M  V30 20 C -3.074596 -1.985257 1.362027 0
M  V30 21 C -1.788166 -2.797693 1.238751 0
M  V30 22 C -1.360516 -2.943155 -0.220098 0 CFG=1
M  V30 23 O -2.355029 -3.699433 -0.927633 0
M  V30 24 N 1.191811 -1.430275 -1.557773 0
M  V30 25 N 2.332563 -0.931520 -1.099252 0
M  V30 26 H 5.523935 1.964986 -1.394079 0
M  V30 27 H 4.076516 1.123377 -1.958963 0
M  V30 28 H 5.678866 0.566618 -2.472785 0
M  V30 29 H 4.820344 -0.949962 -0.672512 0
M  V30 30 H 6.242346 -0.071047 -0.132562 0
M  V30 31 H 6.080315 1.503096 1.782388 0
M  V30 32 H 4.024687 2.056630 3.544973 0
M  V30 33 H 0.145140 -0.048030 1.207822 0
M  V30 34 H -1.246106 -1.712729 -1.989095 0
M  V30 35 H -1.560954 0.854698 -2.077479 0
M  V30 36 H -4.996488 3.581679 -1.471939 0
M  V30 37 H -3.747041 4.273402 -0.364742 0
M  V30 38 H -3.765407 4.694064 -2.081684 0
M  V30 39 H -4.719867 2.262020 0.475044 0
M  V30 40 H -4.648318 0.181003 1.733915 0
M  V30 41 H -3.249929 -1.772550 2.423654 0
M  V30 42 H -3.924147 -2.579740 1.003534 0
M  V30 43 H -0.989447 -2.318719 1.816808 0
M  V30 44 H -1.957647 -3.786134 1.682362 0
M  V30 45 H -0.438681 -3.535585 -0.272030 0
M  V30 46 H -2.372755 -4.594661 -0.545772 0
M  V30 END ATOM
M  V30 BEGIN BOND
M  V30 1 1 1 2
M  V30 2 1 2 3
M  V30 3 1 3 4
M  V30 4 2 4 5
M  V30 5 1 5 6
M  V30 6 2 6 7
M  V30 7 1 7 8
M  V30 8 2 8 9
M  V30 9 1 9 10
M  V30 10 1 10 11
M  V30 11 1 11 12
M  V30 12 1 12 13
M  V30 13 2 13 14
M  V30 14 1 14 15
M  V30 15 1 15 16
M  V30 16 1 14 17
M  V30 17 2 17 18
M  V30 18 1 18 19
M  V30 19 1 19 20
M  V30 20 1 20 21
M  V30 21 1 21 22
M  V30 22 1 22 23
M  V30 23 1 10 24
M  V30 24 2 24 25
M  V30 25 1 7 3
M  V30 26 1 25 8
M  V30 27 1 22 11
M  V30 28 2 19 12
M  V30 29 1 1 26
M  V30 30 1 1 27
M  V30 31 1 1 28
M  V30 32 1 2 29
M  V30 33 1 2 30
M  V30 34 1 4 31
M  V30 35 1 5 32
M  V30 36 1 9 33
M  V30 37 1 11 34 CFG=3
M  V30 38 1 13 35
M  V30 39 1 16 36
M  V30 40 1 16 37
M  V30 41 1 16 38
M  V30 42 1 17 39
M  V30 43 1 18 40
M  V30 44 1 20 41
M  V30 45 1 20 42
M  V30 46 1 21 43
M  V30 47 1 21 44
M  V30 48 1 22 45 CFG=1
M  V30 49 1 23 46
M  V30 END BOND
M  V30 BEGIN COLLECTION
M  V30 MDLV30/STERAC1 ATOMS=(2 11 22)
M  V30 END COLLECTION
M  V30 END CTAB
M  END
>  <_CXSMILES_Data>  (117) 
|&1:10,21|

$$$$
OCNT-2308929
     RDKit          3D

 41 43  0  0  0  0  0  0  0  0999 V2000
    3.3811    1.6704    0.0517 C   0  0  0  0  0  0  0  0  0  0  0  0
    3.2777    0.7128    1.2218 C   0  0  0  0  0  0  0  0  0  0  0  0
    2.0172    0.0537    1.2723 O   0  0  0  0  0  0  0  0  0  0  0  0
    1.6506   -0.9436    0.2705 C   0  0  0  0  0  0  0  0  0  0  0  0
    0.6744   -0.3366   -0.7650 C   0  0  0  0  0  0  0  0  0  0  0  0
   -0.6829   -0.0673   -0.2488 N   0  0  0  0  0  0  0  0  0  0  0  0
   -0.8017    0.8038    0.9333 C   0  0  0  0  0  0  0  0  0  0  0  0
   -2.1888    1.1293    1.4087 C   0  0  0  0  0  0  0  0  0  0  0  0
   -3.2905    0.3111    1.5744 C   0  0  0  0  0  0  0  0  0  0  0  0
   -4.3968    1.0637    2.0561 C   0  0  0  0  0  0  0  0  0  0  0  0
   -4.1950    2.3606    2.2720 N   0  0  0  0  0  0  0  0  0  0  0  0
   -2.6208    2.7153    1.8857 S   0  0  0  0  0  0  0  0  0  0  0  0
   -1.5951    0.1168   -1.2892 C   0  0  0  0  0  0  0  0  0  0  0  0
   -2.3026   -0.9971   -1.5893 N   0  0  0  0  0  0  0  0  0  0  0  0
   -3.2182   -0.9151   -2.5652 C   0  0  0  0  0  0  0  0  0  0  0  0
   -3.4948    0.1707   -3.2936 N   0  0  0  0  0  0  0  0  0  0  0  0
   -2.7634    1.2598   -2.9900 C   0  0  0  0  0  0  0  0  0  0  0  0
   -1.7930    1.2962   -2.0051 C   0  0  0  0  0  0  0  0  0  0  0  0
   -0.8167    2.9011   -1.7872 Br  0  0  0  0  0  0  0  0  0  0  0  0
    2.7859   -1.8213   -0.3588 C   0  0  0  0  0  0  0  0  0  0  0  0
    2.5639   -2.8236    0.7871 C   0  0  0  0  0  0  0  0  0  0  0  0
    1.1284   -2.2807    0.8957 C   0  0  0  0  0  0  0  0  0  0  0  0
    4.3041    2.2543    0.1124 H   0  0  0  0  0  0  0  0  0  0  0  0
    3.3827    1.1316   -0.9003 H   0  0  0  0  0  0  0  0  0  0  0  0
    2.5289    2.3575    0.0363 H   0  0  0  0  0  0  0  0  0  0  0  0
    4.0942   -0.0146    1.2261 H   0  0  0  0  0  0  0  0  0  0  0  0
    3.3668    1.2844    2.1518 H   0  0  0  0  0  0  0  0  0  0  0  0
    1.1084    0.5791   -1.1799 H   0  0  0  0  0  0  0  0  0  0  0  0
    0.5917   -1.0393   -1.6064 H   0  0  0  0  0  0  0  0  0  0  0  0
   -0.2122    1.7167    0.7916 H   0  0  0  0  0  0  0  0  0  0  0  0
   -0.3389    0.2809    1.7792 H   0  0  0  0  0  0  0  0  0  0  0  0
   -3.2988   -0.7474    1.3476 H   0  0  0  0  0  0  0  0  0  0  0  0
   -5.3857    0.6748    2.2627 H   0  0  0  0  0  0  0  0  0  0  0  0
   -3.7840   -1.8142   -2.7830 H   0  0  0  0  0  0  0  0  0  0  0  0
   -2.9875    2.1339   -3.5956 H   0  0  0  0  0  0  0  0  0  0  0  0
    3.7913   -1.4004   -0.4199 H   0  0  0  0  0  0  0  0  0  0  0  0
    2.5448   -2.2357   -1.3460 H   0  0  0  0  0  0  0  0  0  0  0  0
    3.1789   -2.6255    1.6724 H   0  0  0  0  0  0  0  0  0  0  0  0
    2.6549   -3.8793    0.5203 H   0  0  0  0  0  0  0  0  0  0  0  0
    0.7383   -2.2120    1.9152 H   0  0  0  0  0  0  0  0  0  0  0  0
    0.4033   -2.8247    0.2785 H   0  0  0  0  0  0  0  0  0  0  0  0
  1  2  1  0
  2  3  1  0
  3  4  1  0
  4  5  1  0
  5  6  1  0
  6  7  1  0
  7  8  1  0
  8  9  2  0
  9 10  1  0
 10 11  2  0
 11 12  1  0
  6 13  1  0
 13 14  2  0
 14 15  1  0
 15 16  2  0
 16 17  1  0
 17 18  2  0
 18 19  1  0
  4 20  1  0
 20 21  1  0
 21 22  1  0
 22  4  1  0
 12  8  1  0
 18 13  1  0
  1 23  1  0
  1 24  1  0
  1 25  1  0
  2 26  1  0
  2 27  1  0
  5 28  1  0
  5 29  1  0
  7 30  1  0
  7 31  1  0
  9 32  1  0
 10 33  1  0
 15 34  1  0
 17 35  1  0
 20 36  1  0
 20 37  1  0
 21 38  1  0
 21 39  1  0
 22 40  1  0
 22 41  1  0
M  END
$$$$
OCNT-2308945
     RDKit          3D

 41 43  0  0  0  0  0  0  0  0999 V2000
    6.2601    1.0303   -1.3866 C   0  0  0  0  0  0  0  0  0  0  0  0
    5.7154   -0.3438   -1.0279 C   0  0  0  0  0  0  0  0  0  0  0  0
    4.2473   -0.2927   -0.6867 C   0  0  0  0  0  0  0  0  0  0  0  0
    3.2792   -0.4796   -1.6918 C   0  0  0  0  0  0  0  0  0  0  0  0
    1.9112   -0.4192   -1.4000 C   0  0  0  0  0  0  0  0  0  0  0  0
    1.5180   -0.1648   -0.0973 C   0  0  0  0  0  0  0  0  0  0  0  0
    2.4736    0.0270    0.9009 C   0  0  0  0  0  0  0  0  0  0  0  0
    3.8337   -0.0313    0.6260 C   0  0  0  0  0  0  0  0  0  0  0  0
    1.8388    0.2878    2.2257 C   0  0  0  0  0  0  0  0  0  0  0  0
    0.3470    0.2376    1.8810 C   0  0  0  0  0  0  0  0  0  0  0  0
    0.2173   -0.0529    0.4406 N   0  0  0  0  0  0  0  0  0  0  0  0
   -0.9666   -0.1899   -0.2827 C   0  0  0  0  0  0  0  0  0  0  0  0
   -1.0014   -0.4346   -1.4868 O   0  0  0  0  0  0  0  0  0  0  0  0
   -2.1094   -0.0236    0.4865 N   0  0  0  0  0  0  0  0  0  0  0  0
   -3.4188   -0.1041    0.0318 C   0  0  0  0  0  0  0  0  0  0  0  0
   -3.8616   -0.3627   -1.2427 C   0  0  0  0  0  0  0  0  0  0  0  0
   -5.2208   -0.3393   -1.1954 N   0  0  0  0  0  0  0  0  0  0  0  0
   -6.1294   -0.5580   -2.2951 C   0  0  0  0  0  0  0  0  0  0  0  0
   -5.7118   -0.0814    0.0293 N   0  0  0  0  0  0  0  0  0  0  0  0
   -4.6128    0.0657    0.7997 C   0  0  0  0  0  0  0  0  0  0  0  0
   -4.7026    0.3655    2.2669 C   0  0  0  0  0  0  0  0  0  0  0  0
   -3.4602    0.4843    2.8298 F   0  0  0  0  0  0  0  0  0  0  0  0
   -5.3380   -0.6103    2.9687 F   0  0  0  0  0  0  0  0  0  0  0  0
   -5.3459    1.5335    2.5318 F   0  0  0  0  0  0  0  0  0  0  0  0
    6.1495    1.7315   -0.5523 H   0  0  0  0  0  0  0  0  0  0  0  0
    7.3244    0.9631   -1.6338 H   0  0  0  0  0  0  0  0  0  0  0  0
    5.7365    1.4527   -2.2512 H   0  0  0  0  0  0  0  0  0  0  0  0
    5.8773   -1.0362   -1.8629 H   0  0  0  0  0  0  0  0  0  0  0  0
    6.2758   -0.7550   -0.1795 H   0  0  0  0  0  0  0  0  0  0  0  0
    3.5877   -0.6741   -2.7172 H   0  0  0  0  0  0  0  0  0  0  0  0
    1.1939   -0.5701   -2.1988 H   0  0  0  0  0  0  0  0  0  0  0  0
    4.5618    0.1250    1.4168 H   0  0  0  0  0  0  0  0  0  0  0  0
    2.1020   -0.4878    2.9518 H   0  0  0  0  0  0  0  0  0  0  0  0
    2.1207    1.2699    2.6177 H   0  0  0  0  0  0  0  0  0  0  0  0
   -0.1413    1.1955    2.0954 H   0  0  0  0  0  0  0  0  0  0  0  0
   -0.1664   -0.5447    2.4521 H   0  0  0  0  0  0  0  0  0  0  0  0
   -1.9958    0.1796    1.4677 H   0  0  0  0  0  0  0  0  0  0  0  0
   -3.3328   -0.5598   -2.1656 H   0  0  0  0  0  0  0  0  0  0  0  0
   -5.5585   -0.7395   -3.2090 H   0  0  0  0  0  0  0  0  0  0  0  0
   -6.7482   -1.4281   -2.0621 H   0  0  0  0  0  0  0  0  0  0  0  0
   -6.7486    0.3348   -2.4129 H   0  0  0  0  0  0  0  0  0  0  0  0
  1  2  1  0
  2  3  1  0
  3  4  1  0
  4  5  2  0
  5  6  1  0
  6  7  2  0
  7  8  1  0
  7  9  1  0
  9 10  1  0
 10 11  1  0
 11 12  1  0
 12 13  2  0
 12 14  1  0
 14 15  1  0
 15 16  2  0
 16 17  1  0
 17 18  1  0
 17 19  1  0
 19 20  2  0
 20 21  1  0
 21 22  1  0
 21 23  1  0
 21 24  1  0
  8  3  2  0
 20 15  1  0
 11  6  1  0
  1 25  1  0
  1 26  1  0
  1 27  1  0
  2 28  1  0
  2 29  1  0
  4 30  1  0
  5 31  1  0
  8 32  1  0
  9 33  1  0
  9 34  1  0
 10 35  1  0
 10 36  1  0
 14 37  1  0
 16 38  1  0
 18 39  1  0
 18 40  1  0
 18 41  1  0
M  END
$$$$
OCNT-2308952
     RDKit          3D

 38 41  0  0  0  0  0  0  0  0999 V2000
   -6.2695    0.3234   -0.1986 Br  0  0  0  0  0  0  0  0  0  0  0  0
   -4.4341    0.3587   -0.6439 C   0  0  0  0  0  0  0  0  0  0  0  0
   -4.0563    0.5022   -1.9811 C   0  0  0  0  0  0  0  0  0  0  0  0
   -2.6998    0.5283   -2.3382 C   0  0  0  0  0  0  0  0  0  0  0  0
   -1.7069    0.3996   -1.3649 C   0  0  0  0  0  0  0  0  0  0  0  0
   -2.0882    0.2467   -0.0388 C   0  0  0  0  0  0  0  0  0  0  0  0
   -3.4468    0.2489    0.3225 C   0  0  0  0  0  0  0  0  0  0  0  0
   -3.5878    0.0911    1.8063 C   0  0  0  0  0  0  0  0  0  0  0  0
   -2.1882    0.5137    2.2731 C   0  0  0  0  0  0  0  0  0  0  0  0
   -1.2020    0.0656    1.1695 C   0  0  0  0  0  0  0  0  0  0  0  0
   -0.8249   -1.3310    1.3981 N   0  0  0  0  0  0  0  0  0  0  0  0
    0.2659   -1.8103    0.5416 C   0  0  0  0  0  0  0  0  0  0  0  0
    1.5754   -1.1869    0.9126 C   0  0  0  0  0  0  0  0  0  0  0  0
    1.9956   -1.1857    2.1942 N   0  0  0  0  0  0  0  0  0  0  0  0
    3.2295   -0.5396    2.1946 O   0  0  0  0  0  0  0  0  0  0  0  0
    3.5103   -0.1714    0.9314 C   0  0  0  0  0  0  0  0  0  0  0  0
    2.5137   -0.5486    0.0759 C   0  0  0  0  0  0  0  0  0  0  0  0
    2.5951   -0.2409   -1.3658 C   0  0  0  0  0  0  0  0  0  0  0  0
    3.9374    0.1515   -1.7504 O   0  0  0  0  0  0  0  0  0  0  0  0
    4.5269    1.1151   -0.8464 C   0  0  0  0  0  0  0  0  0  0  0  0
    4.7540    0.5235    0.5634 C   0  0  0  0  0  0  0  0  0  0  0  0
   -4.8107    0.5953   -2.7586 H   0  0  0  0  0  0  0  0  0  0  0  0
   -2.4225    0.6445   -3.3833 H   0  0  0  0  0  0  0  0  0  0  0  0
   -0.6608    0.4186   -1.6485 H   0  0  0  0  0  0  0  0  0  0  0  0
   -4.3506    0.7465    2.2351 H   0  0  0  0  0  0  0  0  0  0  0  0
   -3.7993   -0.9525    2.0609 H   0  0  0  0  0  0  0  0  0  0  0  0
   -1.9465    0.1207    3.2670 H   0  0  0  0  0  0  0  0  0  0  0  0
   -2.1542    1.6103    2.3553 H   0  0  0  0  0  0  0  0  0  0  0  0
   -0.3439    0.7463    1.1578 H   0  0  0  0  0  0  0  0  0  0  0  0
   -0.4937   -1.4244    2.3616 H   0  0  0  0  0  0  0  0  0  0  0  0
    0.0403   -1.6631   -0.5186 H   0  0  0  0  0  0  0  0  0  0  0  0
    0.3533   -2.8946    0.6822 H   0  0  0  0  0  0  0  0  0  0  0  0
    2.3258   -1.1132   -1.9688 H   0  0  0  0  0  0  0  0  0  0  0  0
    1.9155    0.5781   -1.6247 H   0  0  0  0  0  0  0  0  0  0  0  0
    3.8770    1.9984   -0.8061 H   0  0  0  0  0  0  0  0  0  0  0  0
    5.4851    1.4288   -1.2729 H   0  0  0  0  0  0  0  0  0  0  0  0
    5.5712   -0.2053    0.5296 H   0  0  0  0  0  0  0  0  0  0  0  0
    5.0146    1.3116    1.2754 H   0  0  0  0  0  0  0  0  0  0  0  0
  1  2  1  0
  2  3  1  0
  3  4  2  0
  4  5  1  0
  5  6  2  0
  6  7  1  0
  7  8  1  0
  8  9  1  0
  9 10  1  0
 10 11  1  0
 11 12  1  0
 12 13  1  0
 13 14  2  0
 14 15  1  0
 15 16  1  0
 16 17  2  0
 17 18  1  0
 18 19  1  0
 19 20  1  0
 20 21  1  0
  7  2  2  0
 17 13  1  0
 10  6  1  0
 21 16  1  0
  3 22  1  0
  4 23  1  0
  5 24  1  0
  8 25  1  0
  8 26  1  0
  9 27  1  0
  9 28  1  0
 10 29  1  0
 11 30  1  0
 12 31  1  0
 12 32  1  0
 18 33  1  0
 18 34  1  0
 20 35  1  0
 20 36  1  0
 21 37  1  0
 21 38  1  0
M  END
$$$$
OCNT-2308958
     RDKit          3D

 48 50  0  0  0  0  0  0  0  0999 V2000
    8.1107   -0.0101    0.0478 C   0  0  0  0  0  0  0  0  0  0  0  0
    6.6147   -0.1496    0.0100 C   0  0  0  0  0  0  0  0  0  0  0  0
    6.0436   -1.3889   -0.3122 C   0  0  0  0  0  0  0  0  0  0  0  0
    4.6541   -1.5413   -0.3534 C   0  0  0  0  0  0  0  0  0  0  0  0
    4.0181   -3.0988   -0.7666 Cl  0  0  0  0  0  0  0  0  0  0  0  0
    3.7991   -0.4635   -0.0664 C   0  0  0  0  0  0  0  0  0  0  0  0
    2.4014   -0.6726   -0.1376 N   0  0  0  0  0  0  0  0  0  0  0  0
    1.4028    0.1393    0.3493 C   0  0  0  0  0  0  0  0  0  0  0  0
    1.5948    1.1148    1.0688 O   0  0  0  0  0  0  0  0  0  0  0  0
    0.1142   -0.2777   -0.0163 N   0  0  0  0  0  0  0  0  0  0  0  0
   -0.1555   -0.8723   -1.3273 C   0  0  0  0  0  0  0  0  0  0  0  0
   -1.4283   -1.7080   -1.3107 C   0  0  0  0  0  0  0  0  0  0  0  0
   -2.6178   -0.9050   -0.7848 C   0  0  0  0  0  0  0  0  0  0  0  0
   -2.3038   -0.3137    0.5965 C   0  0  0  0  0  0  0  0  0  0  0  0
   -3.4329    0.5101    1.2712 C   0  0  0  0  0  0  0  0  0  0  0  0
   -4.8196   -0.1486    1.3044 C   0  0  0  0  0  0  0  0  0  0  0  0
   -5.6986    0.1890    0.1061 C   0  0  0  0  0  0  0  0  0  0  0  0
   -5.6714    1.6824   -0.1742 C   0  0  0  0  0  0  0  0  0  0  0  0
   -4.2391    2.1669   -0.3074 C   0  0  0  0  0  0  0  0  0  0  0  0
   -3.4801    1.8775    0.8583 O   0  0  0  0  0  0  0  0  0  0  0  0
   -0.9966    0.4972    0.5454 C   0  0  0  0  0  0  0  0  0  0  0  0
    4.3681    0.7748    0.2423 C   0  0  0  0  0  0  0  0  0  0  0  0
    5.7600    0.9296    0.2830 C   0  0  0  0  0  0  0  0  0  0  0  0
    6.3884    2.4932    0.6699 Cl  0  0  0  0  0  0  0  0  0  0  0  0
    8.4449    0.7204   -0.6959 H   0  0  0  0  0  0  0  0  0  0  0  0
    8.4406    0.3015    1.0440 H   0  0  0  0  0  0  0  0  0  0  0  0
    8.6077   -0.9596   -0.1786 H   0  0  0  0  0  0  0  0  0  0  0  0
    6.6826   -2.2414   -0.5334 H   0  0  0  0  0  0  0  0  0  0  0  0
    2.1218   -1.6258   -0.3268 H   0  0  0  0  0  0  0  0  0  0  0  0
    0.6752   -1.4924   -1.6724 H   0  0  0  0  0  0  0  0  0  0  0  0
   -0.2471   -0.0467   -2.0442 H   0  0  0  0  0  0  0  0  0  0  0  0
   -1.2777   -2.5885   -0.6736 H   0  0  0  0  0  0  0  0  0  0  0  0
   -1.6460   -2.0740   -2.3203 H   0  0  0  0  0  0  0  0  0  0  0  0
   -3.4808   -1.5758   -0.7273 H   0  0  0  0  0  0  0  0  0  0  0  0
   -2.8551   -0.1200   -1.5069 H   0  0  0  0  0  0  0  0  0  0  0  0
   -2.1257   -1.1788    1.2536 H   0  0  0  0  0  0  0  0  0  0  0  0
   -3.1201    0.5727    2.3233 H   0  0  0  0  0  0  0  0  0  0  0  0
   -5.3413    0.2269    2.1957 H   0  0  0  0  0  0  0  0  0  0  0  0
   -4.7382   -1.2335    1.4335 H   0  0  0  0  0  0  0  0  0  0  0  0
   -5.3636   -0.3544   -0.7827 H   0  0  0  0  0  0  0  0  0  0  0  0
   -6.7276   -0.1352    0.2991 H   0  0  0  0  0  0  0  0  0  0  0  0
   -6.2368    1.9090   -1.0841 H   0  0  0  0  0  0  0  0  0  0  0  0
   -6.1567    2.2076    0.6575 H   0  0  0  0  0  0  0  0  0  0  0  0
   -4.2341    3.2543   -0.4368 H   0  0  0  0  0  0  0  0  0  0  0  0
   -3.7508    1.7465   -1.1892 H   0  0  0  0  0  0  0  0  0  0  0  0
   -1.1069    1.3970   -0.0727 H   0  0  0  0  0  0  0  0  0  0  0  0
   -0.7352    0.8244    1.5588 H   0  0  0  0  0  0  0  0  0  0  0  0
    3.7447    1.6409    0.4465 H   0  0  0  0  0  0  0  0  0  0  0  0
  1  2  1  0
  2  3  2  0
  3  4  1  0
  4  5  1  0
  4  6  2  0
  6  7  1  0
  7  8  1  0
  8  9  2  0
  8 10  1  0
 10 11  1  0
 11 12  1  0
 12 13  1  0
 13 14  1  0
 14 15  1  0
 15 16  1  0
 16 17  1  0
 17 18  1  0
 18 19  1  0
 19 20  1  0
 14 21  1  0
  6 22  1  0
 22 23  2  0
 23 24  1  0
 23  2  1  0
 21 10  1  0
 20 15  1  0
  1 25  1  0
  1 26  1  0
  1 27  1  0
  3 28  1  0
  7 29  1  0
 11 30  1  0
 11 31  1  0
 12 32  1  0
 12 33  1  0
 13 34  1  0
 13 35  1  0
 14 36  1  0
 15 37  1  0
 16 38  1  0
 16 39  1  0
 17 40  1  0
 17 41  1  0
 18 42  1  0
 18 43  1  0
 19 44  1  0
 19 45  1  0
 21 46  1  0
 21 47  1  0
 22 48  1  0
M  END
$$$$
OCNT-2308961
     RDKit          3D

 42 45  0  0  0  0  0  0  0  0999 V2000
   -2.0233   -2.3577   -1.4893 C   0  0  0  0  0  0  0  0  0  0  0  0
   -1.7326   -1.8142   -0.2074 O   0  0  0  0  0  0  0  0  0  0  0  0
   -1.4541   -0.3939   -0.1490 C   0  0  0  0  0  0  0  0  0  0  0  0
   -2.7712    0.3458   -0.3589 C   0  0  0  0  0  0  0  0  0  0  0  0
   -2.9267    1.4299   -1.1028 N   0  0  0  0  0  0  0  0  0  0  0  0
   -4.2464    1.7758   -1.0152 C   0  0  0  0  0  0  0  0  0  0  0  0
   -4.9220    0.8972   -0.2082 C   0  0  0  0  0  0  0  0  0  0  0  0
   -3.9820   -0.0078    0.2070 N   0  0  0  0  0  0  0  0  0  0  0  0
   -4.2604   -1.1285    1.0735 C   0  0  0  0  0  0  0  0  0  0  0  0
   -0.4054    0.0475   -1.1969 C   0  0  0  0  0  0  0  0  0  0  0  0
    0.9954   -0.4059   -0.7983 C   0  0  0  0  0  0  0  0  0  0  0  0
    1.3676    0.1115    0.5257 N   0  0  0  0  0  0  0  0  0  0  0  0
    2.6193    0.7369    0.5982 C   0  0  0  0  0  0  0  0  0  0  0  0
    2.7006    2.0011    1.0871 N   0  0  0  0  0  0  0  0  0  0  0  0
    3.8915    2.6110    1.1549 C   0  0  0  0  0  0  0  0  0  0  0  0
    5.0785    2.1165    0.8047 N   0  0  0  0  0  0  0  0  0  0  0  0
    5.0267    0.8414    0.3524 C   0  0  0  0  0  0  0  0  0  0  0  0
    3.8380    0.1222    0.2379 C   0  0  0  0  0  0  0  0  0  0  0  0
    4.1646   -1.4795   -0.3273 S   0  0  0  0  0  0  0  0  0  0  0  0
    5.8405   -1.1876   -0.4504 C   0  0  0  0  0  0  0  0  0  0  0  0
    6.1672    0.0872   -0.0550 C   0  0  0  0  0  0  0  0  0  0  0  0
    0.3069    0.7690    1.2929 C   0  0  0  0  0  0  0  0  0  0  0  0
   -0.9317   -0.1214    1.2864 C   0  0  0  0  0  0  0  0  0  0  0  0
   -1.1032   -2.4877   -2.0653 H   0  0  0  0  0  0  0  0  0  0  0  0
   -2.4608   -3.3490   -1.3404 H   0  0  0  0  0  0  0  0  0  0  0  0
   -2.7408   -1.7475   -2.0446 H   0  0  0  0  0  0  0  0  0  0  0  0
   -4.6395    2.6379   -1.5380 H   0  0  0  0  0  0  0  0  0  0  0  0
   -5.9587    0.8434    0.0926 H   0  0  0  0  0  0  0  0  0  0  0  0
   -4.3395   -2.0284    0.4595 H   0  0  0  0  0  0  0  0  0  0  0  0
   -5.2080   -0.9549    1.5913 H   0  0  0  0  0  0  0  0  0  0  0  0
   -3.4673   -1.2287    1.8158 H   0  0  0  0  0  0  0  0  0  0  0  0
   -0.6381   -0.3322   -2.1972 H   0  0  0  0  0  0  0  0  0  0  0  0
   -0.3951    1.1418   -1.2969 H   0  0  0  0  0  0  0  0  0  0  0  0
    1.0368   -1.5010   -0.7732 H   0  0  0  0  0  0  0  0  0  0  0  0
    1.6869   -0.0687   -1.5810 H   0  0  0  0  0  0  0  0  0  0  0  0
    3.8866    3.6258    1.5396 H   0  0  0  0  0  0  0  0  0  0  0  0
    6.5073   -1.9649   -0.7980 H   0  0  0  0  0  0  0  0  0  0  0  0
    7.1782    0.4730   -0.0453 H   0  0  0  0  0  0  0  0  0  0  0  0
    0.0677    1.7615    0.8893 H   0  0  0  0  0  0  0  0  0  0  0  0
    0.6232    0.9020    2.3357 H   0  0  0  0  0  0  0  0  0  0  0  0
   -0.6816   -1.0714    1.7789 H   0  0  0  0  0  0  0  0  0  0  0  0
   -1.6949    0.3525    1.9156 H   0  0  0  0  0  0  0  0  0  0  0  0
  1  2  1  0
  2  3  1  0
  3  4  1  0
  4  5  2  0
  5  6  1  0
  6  7  2  0
  7  8  1  0
  8  9  1  0
  3 10  1  0
 10 11  1  0
 11 12  1  0
 12 13  1  0
 13 14  1  0
 14 15  2  0
 15 16  1  0
 16 17  2  0
 17 18  1  0
 18 19  1  0
 19 20  1  0
 20 21  2  0
 12 22  1  0
 22 23  1  0
 23  3  1  0
  8  4  1  0
 18 13  2  0
 21 17  1  0
  1 24  1  0
  1 25  1  0
  1 26  1  0
  6 27  1  0
  7 28  1  0
  9 29  1  0
  9 30  1  0
  9 31  1  0
 10 32  1  0
 10 33  1  0
 11 34  1  0
 11 35  1  0
 15 36  1  0
 20 37  1  0
 21 38  1  0
 22 39  1  0
 22 40  1  0
 23 41  1  0
 23 42  1  0
M  END
$$$$
OCNT-2308965
     RDKit          3D

 51 53  0  0  0  0  0  0  0  0999 V2000
    7.0172    1.7307   -0.2405 C   0  0  0  0  0  0  0  0  0  0  0  0
    6.5637    0.3628    0.1928 C   0  0  0  0  0  0  0  0  0  0  0  0
    7.0901   -0.2368    1.1240 O   0  0  0  0  0  0  0  0  0  0  0  0
    5.5087   -0.1369   -0.5397 N   0  0  0  0  0  0  0  0  0  0  0  0
    4.8348   -1.3597   -0.1052 C   0  0  0  0  0  0  0  0  0  0  0  0
    4.0237   -1.9773   -1.2381 C   0  0  0  0  0  0  0  0  0  0  0  0
    2.7026   -1.2009   -1.2292 C   0  0  0  0  0  0  0  0  0  0  0  0
    2.6292   -0.5605    0.0955 N   0  0  0  0  0  0  0  0  0  0  0  0
    1.3585   -0.5667    0.6867 C   0  0  0  0  0  0  0  0  0  0  0  0
    1.1929   -1.2821    1.8105 N   0  0  0  0  0  0  0  0  0  0  0  0
   -0.0273   -1.2941    2.3482 C   0  0  0  0  0  0  0  0  0  0  0  0
   -1.1113   -0.6877    1.8621 N   0  0  0  0  0  0  0  0  0  0  0  0
   -0.9556    0.0296    0.7375 C   0  0  0  0  0  0  0  0  0  0  0  0
   -2.0850    0.6525    0.1966 N   0  0  0  0  0  0  0  0  0  0  0  0
   -2.5084    0.1619   -1.1261 C   0  0  0  0  0  0  0  0  0  0  0  0
   -4.0095   -0.0909   -1.0045 C   0  0  0  0  0  0  0  0  0  0  0  0
   -4.4380    0.8849    0.0849 C   0  0  0  0  0  0  0  0  0  0  0  0
   -5.7305    0.5525    0.6590 N   0  0  0  0  0  0  0  0  0  0  0  0
   -6.8973    0.8653   -0.0009 C   0  0  0  0  0  0  0  0  0  0  0  0
   -8.1429    0.3578    0.6742 C   0  0  0  0  0  0  0  0  0  0  0  0
   -6.9355    1.4901   -1.0554 O   0  0  0  0  0  0  0  0  0  0  0  0
   -3.2629    0.7749    1.0685 C   0  0  0  0  0  0  0  0  0  0  0  0
    0.3003    0.1630    0.1319 C   0  0  0  0  0  0  0  0  0  0  0  0
    0.5095    1.0827   -1.0374 C   0  0  0  0  0  0  0  0  0  0  0  0
    3.7356   -1.0725    0.9303 C   0  0  0  0  0  0  0  0  0  0  0  0
    8.1097    1.7482   -0.2855 H   0  0  0  0  0  0  0  0  0  0  0  0
    6.6648    2.4706    0.4828 H   0  0  0  0  0  0  0  0  0  0  0  0
    6.6306    1.9862   -1.2312 H   0  0  0  0  0  0  0  0  0  0  0  0
    4.9193    0.5496   -0.9956 H   0  0  0  0  0  0  0  0  0  0  0  0
    5.5828   -2.0574    0.2858 H   0  0  0  0  0  0  0  0  0  0  0  0
    3.8211   -3.0320   -1.0136 H   0  0  0  0  0  0  0  0  0  0  0  0
    4.5213   -1.9308   -2.2119 H   0  0  0  0  0  0  0  0  0  0  0  0
    1.8657   -1.8796   -1.4339 H   0  0  0  0  0  0  0  0  0  0  0  0
    2.7227   -0.4291   -2.0062 H   0  0  0  0  0  0  0  0  0  0  0  0
   -0.1521   -1.8604    3.2642 H   0  0  0  0  0  0  0  0  0  0  0  0
   -2.3221    0.9437   -1.8710 H   0  0  0  0  0  0  0  0  0  0  0  0
   -1.9944   -0.7523   -1.4464 H   0  0  0  0  0  0  0  0  0  0  0  0
   -4.5346    0.0653   -1.9518 H   0  0  0  0  0  0  0  0  0  0  0  0
   -4.1914   -1.1268   -0.6902 H   0  0  0  0  0  0  0  0  0  0  0  0
   -4.4848    1.9008   -0.3295 H   0  0  0  0  0  0  0  0  0  0  0  0
   -5.7651   -0.1530    1.3847 H   0  0  0  0  0  0  0  0  0  0  0  0
   -8.5379   -0.4887    0.1065 H   0  0  0  0  0  0  0  0  0  0  0  0
   -7.9435    0.0372    1.7006 H   0  0  0  0  0  0  0  0  0  0  0  0
   -8.8847    1.1607    0.7054 H   0  0  0  0  0  0  0  0  0  0  0  0
   -3.4140   -0.1039    1.7085 H   0  0  0  0  0  0  0  0  0  0  0  0
   -3.1926    1.6615    1.7078 H   0  0  0  0  0  0  0  0  0  0  0  0
    1.5186    1.5083   -1.0385 H   0  0  0  0  0  0  0  0  0  0  0  0
    0.3477    0.5470   -1.9776 H   0  0  0  0  0  0  0  0  0  0  0  0
   -0.1660    1.9437   -0.9977 H   0  0  0  0  0  0  0  0  0  0  0  0
    4.0411   -0.3323    1.6772 H   0  0  0  0  0  0  0  0  0  0  0  0
    3.4752   -2.0136    1.4316 H   0  0  0  0  0  0  0  0  0  0  0  0
  1  2  1  0
  2  3  2  0
  2  4  1  0
  4  5  1  0
  5  6  1  0
  6  7  1  0
  7  8  1  0
  8  9  1  0
  9 10  1  0
 10 11  2  0
 11 12  1  0
 12 13  2  0
 13 14  1  0
 14 15  1  0
 15 16  1  0
 16 17  1  0
 17 18  1  0
 18 19  1  0
 19 20  1  0
 19 21  2  0
 17 22  1  0
 13 23  1  0
 23 24  1  0
  8 25  1  0
 25  5  1  0
 23  9  2  0
 22 14  1  0
  1 26  1  0
  1 27  1  0
  1 28  1  0
  4 29  1  0
  5 30  1  0
  6 31  1  0
  6 32  1  0
  7 33  1  0
  7 34  1  0
 11 35  1  0
 15 36  1  0
 15 37  1  0
 16 38  1  0
 16 39  1  0
 17 40  1  0
 18 41  1  0
 20 42  1  0
 20 43  1  0
 20 44  1  0
 22 45  1  0
 22 46  1  0
 24 47  1  0
 24 48  1  0
 24 49  1  0
 25 50  1  0
 25 51  1  0
M  END
$$$$
OCNT-2308971
     RDKit          3D

 50 52  0  0  0  0  0  0  0  0999 V2000
    6.3311   -2.7662    0.0538 C   0  0  0  0  0  0  0  0  0  0  0  0
    5.6430   -1.4450    0.2070 C   0  0  0  0  0  0  0  0  0  0  0  0
    6.0434   -0.5013    1.0719 C   0  0  0  0  0  0  0  0  0  0  0  0
    5.3669    0.6866    1.1679 N   0  0  0  0  0  0  0  0  0  0  0  0
    4.2547    1.0036    0.4257 C   0  0  0  0  0  0  0  0  0  0  0  0
    3.6549    2.0638    0.5759 O   0  0  0  0  0  0  0  0  0  0  0  0
    3.8044   -0.0261   -0.5587 C   0  0  0  0  0  0  0  0  0  0  0  0
    2.6374    0.3153   -1.4282 C   0  0  0  0  0  0  0  0  0  0  0  0
    1.4521    0.4727   -0.6149 N   0  0  0  0  0  0  0  0  0  0  0  0
    0.2196    0.4492   -1.2155 C   0  0  0  0  0  0  0  0  0  0  0  0
    0.0350    0.1808   -2.3942 O   0  0  0  0  0  0  0  0  0  0  0  0
   -0.7697    0.7471   -0.3203 N   0  0  0  0  0  0  0  0  0  0  0  0
   -2.1799    0.7352   -0.6756 C   0  0  0  0  0  0  0  0  0  0  0  0
   -2.9119    1.8896   -0.0004 C   0  0  0  0  0  0  0  0  0  0  0  0
   -3.7389    2.7248   -0.7708 C   0  0  0  0  0  0  0  0  0  0  0  0
   -4.4337    3.7846   -0.1843 C   0  0  0  0  0  0  0  0  0  0  0  0
   -4.3148    4.0254    1.1818 C   0  0  0  0  0  0  0  0  0  0  0  0
   -3.5016    3.2073    1.9617 C   0  0  0  0  0  0  0  0  0  0  0  0
   -2.8054    2.1470    1.3762 C   0  0  0  0  0  0  0  0  0  0  0  0
   -2.8855   -0.6168   -0.4146 C   0  0  0  0  0  0  0  0  0  0  0  0
   -2.3750   -1.7768   -1.2727 C   0  0  0  0  0  0  0  0  0  0  0  0
   -3.0406   -2.9906   -0.6405 C   0  0  0  0  0  0  0  0  0  0  0  0
   -3.0884   -2.6848    0.8545 C   0  0  0  0  0  0  0  0  0  0  0  0
   -2.7739   -1.1940    1.0011 C   0  0  0  0  0  0  0  0  0  0  0  0
    4.4895   -1.1825   -0.6346 C   0  0  0  0  0  0  0  0  0  0  0  0
    5.6412   -3.5874    0.2759 H   0  0  0  0  0  0  0  0  0  0  0  0
    6.7020   -2.8911   -0.9691 H   0  0  0  0  0  0  0  0  0  0  0  0
    7.1870   -2.8596    0.7309 H   0  0  0  0  0  0  0  0  0  0  0  0
    6.8986   -0.6247    1.7288 H   0  0  0  0  0  0  0  0  0  0  0  0
    5.6669    1.3897    1.8320 H   0  0  0  0  0  0  0  0  0  0  0  0
    2.8105    1.2535   -1.9678 H   0  0  0  0  0  0  0  0  0  0  0  0
    2.4587   -0.4639   -2.1785 H   0  0  0  0  0  0  0  0  0  0  0  0
    1.5390    1.1834    0.1020 H   0  0  0  0  0  0  0  0  0  0  0  0
   -0.5206    0.7020    0.6540 H   0  0  0  0  0  0  0  0  0  0  0  0
   -2.2281    0.9115   -1.7588 H   0  0  0  0  0  0  0  0  0  0  0  0
   -3.8449    2.5565   -1.8409 H   0  0  0  0  0  0  0  0  0  0  0  0
   -5.0661    4.4227   -0.7960 H   0  0  0  0  0  0  0  0  0  0  0  0
   -4.8545    4.8510    1.6378 H   0  0  0  0  0  0  0  0  0  0  0  0
   -3.4081    3.3946    3.0283 H   0  0  0  0  0  0  0  0  0  0  0  0
   -2.1819    1.5242    2.0115 H   0  0  0  0  0  0  0  0  0  0  0  0
   -3.9554   -0.4881   -0.6398 H   0  0  0  0  0  0  0  0  0  0  0  0
   -1.2878   -1.8858   -1.2019 H   0  0  0  0  0  0  0  0  0  0  0  0
   -2.6432   -1.6655   -2.3275 H   0  0  0  0  0  0  0  0  0  0  0  0
   -4.0605   -3.1024   -1.0275 H   0  0  0  0  0  0  0  0  0  0  0  0
   -2.5003   -3.9171   -0.8564 H   0  0  0  0  0  0  0  0  0  0  0  0
   -4.0765   -2.9237    1.2625 H   0  0  0  0  0  0  0  0  0  0  0  0
   -2.3543   -3.2840    1.4039 H   0  0  0  0  0  0  0  0  0  0  0  0
   -1.7616   -1.0799    1.4043 H   0  0  0  0  0  0  0  0  0  0  0  0
   -3.4667   -0.7141    1.6992 H   0  0  0  0  0  0  0  0  0  0  0  0
    4.1937   -1.9507   -1.3443 H   0  0  0  0  0  0  0  0  0  0  0  0
  1  2  1  0
  2  3  2  0
  3  4  1  0
  4  5  1  0
  5  6  2  0
  5  7  1  0
  7  8  1  0
  8  9  1  0
  9 10  1  0
 10 11  2  0
 10 12  1  0
 12 13  1  0
 13 14  1  0
 14 15  2  0
 15 16  1  0
 16 17  2  0
 17 18  1  0
 18 19  2  0
 13 20  1  0
 20 21  1  0
 21 22  1  0
 22 23  1  0
 23 24  1  0
  7 25  2  0
 25  2  1  0
 19 14  1  0
 24 20  1  0
  1 26  1  0
  1 27  1  0
  1 28  1  0
  3 29  1  0
  4 30  1  0
  8 31  1  0
  8 32  1  0
  9 33  1  0
 12 34  1  0
 13 35  1  0
 15 36  1  0
 16 37  1  0
 17 38  1  0
 18 39  1  0
 19 40  1  0
 20 41  1  0
 21 42  1  0
 21 43  1  0
 22 44  1  0
 22 45  1  0
 23 46  1  0
 23 47  1  0
 24 48  1  0
 24 49  1  0
 25 50  1  0
M  END
$$$$
OCNT-2308975
     RDKit          3D

 43 45  0  0  0  0  0  0  0  0999 V2000
    4.4052    2.0752   -1.2723 C   0  0  0  0  0  0  0  0  0  0  0  0
    3.7129    0.8005   -0.7793 C   0  0  0  0  0  0  0  0  0  0  0  0
    4.1147    0.5290    0.6690 C   0  0  0  0  0  0  0  0  0  0  0  0
    2.1849    0.9260   -0.9859 C   0  0  0  0  0  0  0  0  0  0  0  0
    1.3911   -0.3378   -0.6348 C   0  0  0  0  0  0  0  0  0  0  0  0
    0.8877   -0.4201    0.8187 C   0  0  0  0  0  0  0  0  0  0  0  0
    1.1955    0.3454    1.7243 O   0  0  0  0  0  0  0  0  0  0  0  0
    0.0348   -1.4797    1.0540 N   0  0  0  0  0  0  0  0  0  0  0  0
   -0.1604   -2.5140    0.0607 C   0  0  0  0  0  0  0  0  0  0  0  0
   -0.3269   -1.9783   -1.3755 C   0  0  0  0  0  0  0  0  0  0  0  0
    0.2181   -0.5900   -1.5548 N   0  0  0  0  0  0  0  0  0  0  0  0
   -0.9718    0.6249   -1.7505 S   0  0  0  0  0  0  0  0  0  0  0  0
   -0.3288    1.9027   -1.9593 O   0  0  0  0  0  0  0  0  0  0  0  0
   -1.9476    0.1302   -2.6997 O   0  0  0  0  0  0  0  0  0  0  0  0
   -1.8663    0.8406   -0.2862 C   0  0  0  0  0  0  0  0  0  0  0  0
   -1.5525    1.7439    0.7161 C   0  0  0  0  0  0  0  0  0  0  0  0
   -2.4521    1.5713    1.7322 N   0  0  0  0  0  0  0  0  0  0  0  0
   -3.3493    0.5968    1.3933 C   0  0  0  0  0  0  0  0  0  0  0  0
   -4.3571    0.1964    2.1894 N   0  0  0  0  0  0  0  0  0  0  0  0
   -5.1297   -0.7584    1.6271 C   0  0  0  0  0  0  0  0  0  0  0  0
   -4.9423   -1.3099    0.3680 C   0  0  0  0  0  0  0  0  0  0  0  0
   -3.8728   -0.8678   -0.4119 C   0  0  0  0  0  0  0  0  0  0  0  0
   -3.0314    0.1272    0.1204 C   0  0  0  0  0  0  0  0  0  0  0  0
    4.0854    2.9493   -0.6948 H   0  0  0  0  0  0  0  0  0  0  0  0
    5.4931    1.9880   -1.1814 H   0  0  0  0  0  0  0  0  0  0  0  0
    4.1745    2.2618   -2.3265 H   0  0  0  0  0  0  0  0  0  0  0  0
    4.0775   -0.0326   -1.3940 H   0  0  0  0  0  0  0  0  0  0  0  0
    5.2054    0.5017    0.7692 H   0  0  0  0  0  0  0  0  0  0  0  0
    3.7376    1.3083    1.3393 H   0  0  0  0  0  0  0  0  0  0  0  0
    3.7381   -0.4389    1.0122 H   0  0  0  0  0  0  0  0  0  0  0  0
    1.8124    1.7855   -0.4153 H   0  0  0  0  0  0  0  0  0  0  0  0
    2.0392    1.1541   -2.0493 H   0  0  0  0  0  0  0  0  0  0  0  0
    2.0720   -1.1902   -0.7749 H   0  0  0  0  0  0  0  0  0  0  0  0
   -0.2617   -1.6075    2.0151 H   0  0  0  0  0  0  0  0  0  0  0  0
   -1.0291   -3.1127    0.3524 H   0  0  0  0  0  0  0  0  0  0  0  0
    0.7196   -3.1660    0.1081 H   0  0  0  0  0  0  0  0  0  0  0  0
    0.1906   -2.6421   -2.0783 H   0  0  0  0  0  0  0  0  0  0  0  0
   -1.3825   -2.0302   -1.6548 H   0  0  0  0  0  0  0  0  0  0  0  0
   -0.7520    2.4692    0.7961 H   0  0  0  0  0  0  0  0  0  0  0  0
   -2.4721    2.0720    2.6092 H   0  0  0  0  0  0  0  0  0  0  0  0
   -5.9598   -1.0883    2.2480 H   0  0  0  0  0  0  0  0  0  0  0  0
   -5.6241   -2.0659   -0.0070 H   0  0  0  0  0  0  0  0  0  0  0  0
   -3.7197   -1.2697   -1.4089 H   0  0  0  0  0  0  0  0  0  0  0  0
  1  2  1  0
  2  3  1  0
  2  4  1  0
  4  5  1  0
  5  6  1  0
  6  7  2  0
  6  8  1  0
  8  9  1  0
  9 10  1  0
 10 11  1  0
 11 12  1  0
 12 13  2  0
 12 14  2  0
 12 15  1  0
 15 16  2  0
 16 17  1  0
 17 18  1  0
 18 19  1  0
 19 20  2  0
 20 21  1  0
 21 22  2  0
 22 23  1  0
 11  5  1  0
 23 15  1  0
 23 18  2  0
  1 24  1  0
  1 25  1  0
  1 26  1  0
  2 27  1  0
  3 28  1  0
  3 29  1  0
  3 30  1  0
  4 31  1  0
  4 32  1  0
  5 33  1  0
  8 34  1  0
  9 35  1  0
  9 36  1  0
 10 37  1  0
 10 38  1  0
 16 39  1  0
 17 40  1  0
 20 41  1  0
 21 42  1  0
 22 43  1  0
M  END
$$$$
OCNT-2308989
     RDKit          3D

 35 38  0  0  0  0  0  0  0  0999 V2000
   -6.0976   -0.4069    1.1165 C   0  0  0  0  0  0  0  0  0  0  0  0
   -4.8198   -1.1484    0.7575 C   0  0  0  0  0  0  0  0  0  0  0  0
   -3.6116   -0.4769    1.2933 C   0  0  0  0  0  0  0  0  0  0  0  0
   -3.0630   -0.8081    2.4692 N   0  0  0  0  0  0  0  0  0  0  0  0
   -1.9667    0.0509    2.5649 O   0  0  0  0  0  0  0  0  0  0  0  0
   -1.9781    0.8160    1.4359 C   0  0  0  0  0  0  0  0  0  0  0  0
   -0.9110    1.8405    1.3033 C   0  0  0  0  0  0  0  0  0  0  0  0
   -0.1765    1.6358    0.0639 N   0  0  0  0  0  0  0  0  0  0  0  0
   -0.6823    2.1359   -1.1165 C   0  0  0  0  0  0  0  0  0  0  0  0
   -0.1544    1.9688   -2.2827 N   0  0  0  0  0  0  0  0  0  0  0  0
    0.9857    1.2332   -2.2839 C   0  0  0  0  0  0  0  0  0  0  0  0
    1.6158    0.6466   -1.1969 C   0  0  0  0  0  0  0  0  0  0  0  0
    0.9398    0.7993    0.0880 C   0  0  0  0  0  0  0  0  0  0  0  0
    1.2738    0.2238    1.1185 O   0  0  0  0  0  0  0  0  0  0  0  0
    2.8392   -0.0164   -1.5895 C   0  0  0  0  0  0  0  0  0  0  0  0
    3.9520   -0.7469   -0.7019 C   0  0  0  0  0  0  0  0  0  0  0  0
    5.0431   -1.4114   -1.2389 C   0  0  0  0  0  0  0  0  0  0  0  0
    5.9023   -1.9689   -0.2448 C   0  0  0  0  0  0  0  0  0  0  0  0
    5.4476   -1.7063    1.0244 C   0  0  0  0  0  0  0  0  0  0  0  0
    4.0065   -0.7959    1.0020 S   0  0  0  0  0  0  0  0  0  0  0  0
    3.0093    0.0482   -2.9618 C   0  0  0  0  0  0  0  0  0  0  0  0
    1.7912    0.9363   -3.7519 S   0  0  0  0  0  0  0  0  0  0  0  0
   -2.9777    0.5405    0.6253 N   0  0  0  0  0  0  0  0  0  0  0  0
   -6.9681   -0.9270    0.7043 H   0  0  0  0  0  0  0  0  0  0  0  0
   -6.2239   -0.3385    2.2027 H   0  0  0  0  0  0  0  0  0  0  0  0
   -6.0887    0.6125    0.7155 H   0  0  0  0  0  0  0  0  0  0  0  0
   -4.8766   -2.1754    1.1375 H   0  0  0  0  0  0  0  0  0  0  0  0
   -4.7378   -1.2211   -0.3336 H   0  0  0  0  0  0  0  0  0  0  0  0
   -1.3746    2.8336    1.2803 H   0  0  0  0  0  0  0  0  0  0  0  0
   -0.2288    1.8113    2.1598 H   0  0  0  0  0  0  0  0  0  0  0  0
   -1.6097    2.7228   -1.0105 H   0  0  0  0  0  0  0  0  0  0  0  0
    5.2355   -1.5174   -2.2978 H   0  0  0  0  0  0  0  0  0  0  0  0
    6.8035   -2.5322   -0.4537 H   0  0  0  0  0  0  0  0  0  0  0  0
    5.8913   -2.0032    1.9643 H   0  0  0  0  0  0  0  0  0  0  0  0
    3.8101   -0.3562   -3.5631 H   0  0  0  0  0  0  0  0  0  0  0  0
  1  2  1  0
  2  3  1  0
  3  4  2  0
  4  5  1  0
  5  6  1  0
  6  7  1  0
  7  8  1  0
  8  9  1  0
  9 10  2  0
 10 11  1  0
 11 12  2  0
 12 13  1  0
 13 14  2  0
 12 15  1  0
 15 16  1  0
 16 17  2  0
 17 18  1  0
 18 19  2  0
 19 20  1  0
 15 21  2  0
 21 22  1  0
  6 23  2  0
 23  3  1  0
 13  8  1  0
 20 16  1  0
 22 11  1  0
  1 24  1  0
  1 25  1  0
  1 26  1  0
  2 27  1  0
  2 28  1  0
  7 29  1  0
  7 30  1  0
  9 31  1  0
 17 32  1  0
 18 33  1  0
 19 34  1  0
 21 35  1  0
M  END
$$$$
OCNT-2308995
     RDKit          3D

 41 44  0  0  0  0  0  0  0  0999 V2000
   -2.4422   -2.9111    1.1945 C   0  0  0  0  0  0  0  0  0  0  0  0
   -1.2721   -1.9370    1.3618 C   0  0  0  0  0  0  0  0  0  0  0  0
   -0.2991   -2.0017    0.2132 C   0  0  0  0  0  0  0  0  0  0  0  0
    1.0019   -1.7911    0.2179 N   0  0  0  0  0  0  0  0  0  0  0  0
    1.2968   -1.8068   -1.1239 C   0  0  0  0  0  0  0  0  0  0  0  0
    2.6442   -1.4887   -1.6577 C   0  0  0  0  0  0  0  0  0  0  0  0
    2.8594   -0.0194   -1.4040 C   0  0  0  0  0  0  0  0  0  0  0  0
    3.7613    0.4264   -0.4315 C   0  0  0  0  0  0  0  0  0  0  0  0
    3.9352    1.7915   -0.2222 C   0  0  0  0  0  0  0  0  0  0  0  0
    3.1994    2.6732   -0.9952 C   0  0  0  0  0  0  0  0  0  0  0  0
    2.3187    2.2862   -1.9412 N   0  0  0  0  0  0  0  0  0  0  0  0
    2.1670    0.9539   -2.1234 C   0  0  0  0  0  0  0  0  0  0  0  0
    0.2673   -2.1170   -1.9240 N   0  0  0  0  0  0  0  0  0  0  0  0
   -0.8041   -2.2263   -1.0364 O   0  0  0  0  0  0  0  0  0  0  0  0
   -1.7574   -0.5825    1.7786 N   0  0  0  0  0  0  0  0  0  0  0  0
   -0.7241    0.2620    2.4464 C   0  0  0  0  0  0  0  0  0  0  0  0
   -0.1834    1.2917    1.4440 C   0  0  0  0  0  0  0  0  0  0  0  0
   -1.3128    1.3368    0.4799 C   0  0  0  0  0  0  0  0  0  0  0  0
   -1.5142    2.2309   -0.5591 C   0  0  0  0  0  0  0  0  0  0  0  0
   -2.6322    2.0523   -1.3723 C   0  0  0  0  0  0  0  0  0  0  0  0
   -3.5182    0.9914   -1.1371 C   0  0  0  0  0  0  0  0  0  0  0  0
   -3.2878    0.0868   -0.0950 C   0  0  0  0  0  0  0  0  0  0  0  0
   -2.1689    0.2546    0.7039 C   0  0  0  0  0  0  0  0  0  0  0  0
   -3.1291   -2.8484    2.0455 H   0  0  0  0  0  0  0  0  0  0  0  0
   -3.0179   -2.7264    0.2832 H   0  0  0  0  0  0  0  0  0  0  0  0
   -2.0761   -3.9427    1.1327 H   0  0  0  0  0  0  0  0  0  0  0  0
   -0.7193   -2.3303    2.2275 H   0  0  0  0  0  0  0  0  0  0  0  0
    2.7218   -1.6991   -2.7304 H   0  0  0  0  0  0  0  0  0  0  0  0
    3.4029   -2.0943   -1.1500 H   0  0  0  0  0  0  0  0  0  0  0  0
    4.3242   -0.2832    0.1698 H   0  0  0  0  0  0  0  0  0  0  0  0
    4.6280    2.1588    0.5265 H   0  0  0  0  0  0  0  0  0  0  0  0
    3.3014    3.7473   -0.8700 H   0  0  0  0  0  0  0  0  0  0  0  0
    1.4416    0.6836   -2.8880 H   0  0  0  0  0  0  0  0  0  0  0  0
    0.0866   -0.3276    2.8902 H   0  0  0  0  0  0  0  0  0  0  0  0
   -1.2164    0.7861    3.2771 H   0  0  0  0  0  0  0  0  0  0  0  0
    0.0085    2.2557    1.9230 H   0  0  0  0  0  0  0  0  0  0  0  0
    0.7252    0.9316    0.9541 H   0  0  0  0  0  0  0  0  0  0  0  0
   -0.8145    3.0397   -0.7460 H   0  0  0  0  0  0  0  0  0  0  0  0
   -2.8169    2.7385   -2.1950 H   0  0  0  0  0  0  0  0  0  0  0  0
   -4.3919    0.8695   -1.7723 H   0  0  0  0  0  0  0  0  0  0  0  0
   -3.9930   -0.7150    0.0868 H   0  0  0  0  0  0  0  0  0  0  0  0
  1  2  1  0
  2  3  1  0
  3  4  2  0
  4  5  1  0
  5  6  1  0
  6  7  1  0
  7  8  1  0
  8  9  2  0
  9 10  1  0
 10 11  2  0
 11 12  1  0
  5 13  2  0
 13 14  1  0
  2 15  1  0
 15 16  1  0
 16 17  1  0
 17 18  1  0
 18 19  2  0
 19 20  1  0
 20 21  2  0
 21 22  1  0
 22 23  2  0
 14  3  1  0
 23 15  1  0
 12  7  2  0
 23 18  1  0
  1 24  1  0
  1 25  1  0
  1 26  1  0
  2 27  1  0
  6 28  1  0
  6 29  1  0
  8 30  1  0
  9 31  1  0
 10 32  1  0
 12 33  1  0
 16 34  1  0
 16 35  1  0
 17 36  1  0
 17 37  1  0
 19 38  1  0
 20 39  1  0
 21 40  1  0
 22 41  1  0
M  END
$$$$
OCNT-2308998
     RDKit          3D

 42 44  0  0  0  0  0  0  0  0999 V2000
    7.1993    0.6793    0.4224 C   0  0  0  0  0  0  0  0  0  0  0  0
    5.9858    0.0789   -0.2239 C   0  0  0  0  0  0  0  0  0  0  0  0
    6.0696   -0.4890   -1.4982 C   0  0  0  0  0  0  0  0  0  0  0  0
    4.9321   -1.0113   -2.1101 C   0  0  0  0  0  0  0  0  0  0  0  0
    3.6991   -0.9615   -1.4565 C   0  0  0  0  0  0  0  0  0  0  0  0
    3.5785   -0.3868   -0.1809 C   0  0  0  0  0  0  0  0  0  0  0  0
    2.2792   -0.3307    0.5056 C   0  0  0  0  0  0  0  0  0  0  0  0
    2.1212   -0.7689    1.8217 C   0  0  0  0  0  0  0  0  0  0  0  0
    0.9572   -0.7350    2.5163 N   0  0  0  0  0  0  0  0  0  0  0  0
   -0.1247   -0.2439    1.8656 C   0  0  0  0  0  0  0  0  0  0  0  0
   -0.0974    0.2009    0.5509 C   0  0  0  0  0  0  0  0  0  0  0  0
   -1.2938    0.7471   -0.1421 C   0  0  0  0  0  0  0  0  0  0  0  0
   -1.1136    1.5598   -1.0424 O   0  0  0  0  0  0  0  0  0  0  0  0
   -2.5112    0.2487    0.2758 N   0  0  0  0  0  0  0  0  0  0  0  0
   -3.8125    0.6319   -0.1432 C   0  0  0  0  0  0  0  0  0  0  0  0
   -4.0299    1.7034   -1.0176 C   0  0  0  0  0  0  0  0  0  0  0  0
   -5.3249    2.0776   -1.3892 C   0  0  0  0  0  0  0  0  0  0  0  0
   -6.4254    1.3940   -0.8848 C   0  0  0  0  0  0  0  0  0  0  0  0
   -6.2346    0.3225   -0.0140 C   0  0  0  0  0  0  0  0  0  0  0  0
   -4.9361   -0.0766    0.3502 C   0  0  0  0  0  0  0  0  0  0  0  0
   -4.7511   -1.2387    1.2719 C   0  0  0  0  0  0  0  0  0  0  0  0
   -5.7562   -2.1633    1.3547 N   0  0  0  0  0  0  0  0  0  0  0  0
   -3.7116   -1.3978    1.9049 O   0  0  0  0  0  0  0  0  0  0  0  0
    1.1291    0.1655   -0.1246 C   0  0  0  0  0  0  0  0  0  0  0  0
    4.7390    0.1362    0.4180 C   0  0  0  0  0  0  0  0  0  0  0  0
    8.1104    0.1670    0.0959 H   0  0  0  0  0  0  0  0  0  0  0  0
    7.2766    1.7391    0.1611 H   0  0  0  0  0  0  0  0  0  0  0  0
    7.1474    0.5852    1.5122 H   0  0  0  0  0  0  0  0  0  0  0  0
    7.0217   -0.5267   -2.0228 H   0  0  0  0  0  0  0  0  0  0  0  0
    5.0036   -1.4568   -3.0990 H   0  0  0  0  0  0  0  0  0  0  0  0
    2.8282   -1.3846   -1.9534 H   0  0  0  0  0  0  0  0  0  0  0  0
    2.9595   -1.1826    2.3783 H   0  0  0  0  0  0  0  0  0  0  0  0
   -1.0252   -0.2093    2.4727 H   0  0  0  0  0  0  0  0  0  0  0  0
   -2.5094   -0.5144    0.9554 H   0  0  0  0  0  0  0  0  0  0  0  0
   -3.2066    2.2839   -1.4232 H   0  0  0  0  0  0  0  0  0  0  0  0
   -5.4668    2.9172   -2.0663 H   0  0  0  0  0  0  0  0  0  0  0  0
   -7.4304    1.7022   -1.1628 H   0  0  0  0  0  0  0  0  0  0  0  0
   -7.1117   -0.1732    0.3917 H   0  0  0  0  0  0  0  0  0  0  0  0
   -6.4770   -2.2408    0.6512 H   0  0  0  0  0  0  0  0  0  0  0  0
   -5.5461   -2.9994    1.8866 H   0  0  0  0  0  0  0  0  0  0  0  0
    1.1860    0.5395   -1.1458 H   0  0  0  0  0  0  0  0  0  0  0  0
    4.6728    0.6109    1.3963 H   0  0  0  0  0  0  0  0  0  0  0  0
  1  2  1  0
  2  3  2  0
  3  4  1  0
  4  5  2  0
  5  6  1  0
  6  7  1  0
  7  8  2  0
  8  9  1  0
  9 10  2  0
 10 11  1  0
 11 12  1  0
 12 13  2  0
 12 14  1  0
 14 15  1  0
 15 16  2  0
 16 17  1  0
 17 18  2  0
 18 19  1  0
 19 20  2  0
 20 21  1  0
 21 22  1  0
 21 23  2  0
 11 24  2  0
  6 25  2  0
 25  2  1  0
 24  7  1  0
 20 15  1  0
  1 26  1  0
  1 27  1  0
  1 28  1  0
  3 29  1  0
  4 30  1  0
  5 31  1  0
  8 32  1  0
 10 33  1  0
 14 34  1  0
 16 35  1  0
 17 36  1  0
 18 37  1  0
 19 38  1  0
 22 39  1  0
 22 40  1  0
 24 41  1  0
 25 42  1  0
M  END
$$$$
OCNT-2309004
     RDKit          3D

 37 39  0  0  0  0  0  0  0  0999 V2000
    0.8696   -0.5946    1.8717 O   0  0  0  0  0  0  0  0  0  0  0  0
    0.9936   -0.5963    0.6506 C   0  0  0  0  0  0  0  0  0  0  0  0
    2.1928   -0.7990    0.0033 N   0  0  0  0  0  0  0  0  0  0  0  0
    3.4660   -0.9379    0.6001 C   0  0  0  0  0  0  0  0  0  0  0  0
    3.7441   -0.7586    1.9549 C   0  0  0  0  0  0  0  0  0  0  0  0
    4.9832   -0.8821    2.5026 N   0  0  0  0  0  0  0  0  0  0  0  0
    5.9920   -1.2010    1.6609 C   0  0  0  0  0  0  0  0  0  0  0  0
    5.8181   -1.3963    0.3008 C   0  0  0  0  0  0  0  0  0  0  0  0
    7.1479   -1.7927   -0.7101 Cl  0  0  0  0  0  0  0  0  0  0  0  0
    4.5398   -1.2610   -0.2357 C   0  0  0  0  0  0  0  0  0  0  0  0
   -0.0952   -0.3839   -0.1943 N   0  0  0  0  0  0  0  0  0  0  0  0
   -0.0198   -0.2651   -1.6507 C   0  0  0  0  0  0  0  0  0  0  0  0
   -1.3355    0.1722   -2.2911 C   0  0  0  0  0  0  0  0  0  0  0  0
   -1.9301    1.3630   -1.5431 C   0  0  0  0  0  0  0  0  0  0  0  0
   -2.0997    1.0826   -0.0333 C   0  0  0  0  0  0  0  0  0  0  0  0
   -3.5422    1.1118    0.3809 C   0  0  0  0  0  0  0  0  0  0  0  0
   -4.1994    1.8759    1.3228 C   0  0  0  0  0  0  0  0  0  0  0  0
   -5.5380    1.4500    1.2655 C   0  0  0  0  0  0  0  0  0  0  0  0
   -5.7251    0.4894    0.3585 N   0  0  0  0  0  0  0  0  0  0  0  0
   -4.5035    0.2976   -0.1612 N   0  0  0  0  0  0  0  0  0  0  0  0
   -1.4232   -0.2328    0.4037 C   0  0  0  0  0  0  0  0  0  0  0  0
    2.1490   -0.9767   -0.9859 H   0  0  0  0  0  0  0  0  0  0  0  0
    2.9798   -0.4937    2.6789 H   0  0  0  0  0  0  0  0  0  0  0  0
    6.9682   -1.2940    2.1279 H   0  0  0  0  0  0  0  0  0  0  0  0
    4.3925   -1.4086   -1.3010 H   0  0  0  0  0  0  0  0  0  0  0  0
    0.2875   -1.2344   -2.0583 H   0  0  0  0  0  0  0  0  0  0  0  0
    0.7646    0.4632   -1.8882 H   0  0  0  0  0  0  0  0  0  0  0  0
   -1.1663    0.4321   -3.3421 H   0  0  0  0  0  0  0  0  0  0  0  0
   -2.0515   -0.6590   -2.2827 H   0  0  0  0  0  0  0  0  0  0  0  0
   -2.8717    1.6640   -2.0181 H   0  0  0  0  0  0  0  0  0  0  0  0
   -1.2495    2.2170   -1.6629 H   0  0  0  0  0  0  0  0  0  0  0  0
   -1.5921    1.9025    0.4956 H   0  0  0  0  0  0  0  0  0  0  0  0
   -3.7720    2.6342    1.9645 H   0  0  0  0  0  0  0  0  0  0  0  0
   -6.3823    1.7992    1.8458 H   0  0  0  0  0  0  0  0  0  0  0  0
   -4.4011   -0.4030   -0.8879 H   0  0  0  0  0  0  0  0  0  0  0  0
   -1.3818   -0.2773    1.4979 H   0  0  0  0  0  0  0  0  0  0  0  0
   -2.0088   -1.1067    0.0891 H   0  0  0  0  0  0  0  0  0  0  0  0
  1  2  2  0
  2  3  1  0
  3  4  1  0
  4  5  2  0
  5  6  1  0
  6  7  2  0
  7  8  1  0
  8  9  1  0
  8 10  2  0
  2 11  1  0
 11 12  1  0
 12 13  1  0
 13 14  1  0
 14 15  1  0
 15 16  1  0
 16 17  2  0
 17 18  1  0
 18 19  2  0
 19 20  1  0
 15 21  1  0
 10  4  1  0
 21 11  1  0
 20 16  1  0
  3 22  1  0
  5 23  1  0
  7 24  1  0
 10 25  1  0
 12 26  1  0
 12 27  1  0
 13 28  1  0
 13 29  1  0
 14 30  1  0
 14 31  1  0
 15 32  1  0
 17 33  1  0
 18 34  1  0
 20 35  1  0
 21 36  1  0
 21 37  1  0
M  END
$$$$
OCNT-2309014
     RDKit          3D

  0  0  0  0  0  0  0  0  0  0999 V3000
M  V30 BEGIN CTAB
M  V30 COUNTS 43 46 0 0 0
M  V30 BEGIN ATOM
M  V30 1 C -5.369497 1.688053 0.956330 0
M  V30 2 N -4.105198 1.127535 0.574217 0
M  V30 3 C -2.864802 1.673217 0.816068 0
M  V30 4 O -2.629773 2.726498 1.390383 0
M  V30 5 O -1.852973 0.847552 0.304926 0
M  V30 6 C -2.557994 -0.214457 -0.251611 0
M  V30 7 C -2.028462 -1.321624 -0.892349 0
M  V30 8 C -0.573639 -1.561436 -1.098378 0
M  V30 9 O -0.194618 -2.591811 -1.646594 0
M  V30 10 N 0.297494 -0.594857 -0.651358 0
M  V30 11 C 1.733778 -0.843160 -0.602543 0 CFG=1
M  V30 12 C 2.519785 0.461776 -0.630671 0
M  V30 13 C 2.123975 1.497422 -1.498036 0
M  V30 14 C 2.837666 2.693753 -1.563165 0
M  V30 15 C 3.967825 2.870533 -0.773400 0
M  V30 16 C 4.391273 1.846666 0.071913 0
M  V30 17 C 3.688033 0.632650 0.139918 0
M  V30 18 C 4.192798 -0.433903 1.081798 0
M  V30 19 C 3.586063 -1.810096 0.823822 0
M  V30 20 C 2.076719 -1.721876 0.631902 0 CFG=1
M  V30 21 O 1.468633 -1.219872 1.835711 0
M  V30 22 C -2.943985 -2.276801 -1.372668 0
M  V30 23 C -4.333371 -2.108158 -1.207781 0
M  V30 24 C -4.839820 -0.981814 -0.558444 0
M  V30 25 C -3.924854 -0.060017 -0.095051 0
M  V30 26 H -5.975470 1.858725 0.061662 0
M  V30 27 H -5.224458 2.640092 1.474525 0
M  V30 28 H -5.885816 0.993910 1.625931 0
M  V30 29 H -0.058539 0.141381 -0.054302 0
M  V30 30 H 2.021170 -1.400025 -1.504841 0
M  V30 31 H 1.250660 1.373980 -2.136449 0
M  V30 32 H 2.511626 3.485128 -2.233032 0
M  V30 33 H 4.524273 3.802922 -0.820059 0
M  V30 34 H 5.281948 1.998054 0.678839 0
M  V30 35 H 5.283659 -0.513889 0.999207 0
M  V30 36 H 3.966748 -0.118096 2.107974 0
M  V30 37 H 4.042050 -2.255913 -0.069064 0
M  V30 38 H 3.823411 -2.461858 1.672836 0
M  V30 39 H 1.670883 -2.729477 0.487223 0
M  V30 40 H 1.602503 -0.255847 1.854693 0
M  V30 41 H -2.578863 -3.168320 -1.882808 0
M  V30 42 H -5.013121 -2.866937 -1.590992 0
M  V30 43 H -5.907724 -0.849601 -0.428737 0
M  V30 END ATOM
M  V30 BEGIN BOND
M  V30 1 1 1 2
M  V30 2 1 2 3
M  V30 3 2 3 4
M  V30 4 1 3 5
M  V30 5 1 5 6
M  V30 6 2 6 7
M  V30 7 1 7 8
M  V30 8 2 8 9
M  V30 9 1 8 10
M  V30 10 1 10 11
M  V30 11 1 11 12
M  V30 12 2 12 13
M  V30 13 1 13 14
M  V30 14 2 14 15
M  V30 15 1 15 16
M  V30 16 2 16 17
M  V30 17 1 17 18
M  V30 18 1 18 19
M  V30 19 1 19 20
M  V30 20 1 20 21
M  V30 21 1 7 22
M  V30 22 2 22 23
M  V30 23 1 23 24
M  V30 24 2 24 25
M  V30 25 1 25 2
M  V30 26 1 25 6
M  V30 27 1 20 11
M  V30 28 1 17 12
M  V30 29 1 1 26
M  V30 30 1 1 27
M  V30 31 1 1 28
M  V30 32 1 10 29
M  V30 33 1 11 30 CFG=3
M  V30 34 1 13 31
M  V30 35 1 14 32
M  V30 36 1 15 33
M  V30 37 1 16 34
M  V30 38 1 18 35
M  V30 39 1 18 36
M  V30 40 1 19 37
M  V30 41 1 19 38
M  V30 42 1 20 39 CFG=3
M  V30 43 1 21 40
M  V30 44 1 22 41
M  V30 45 1 23 42
M  V30 46 1 24 43
M  V30 END BOND
M  V30 BEGIN COLLECTION
M  V30 MDLV30/STERAC1 ATOMS=(2 11 20)
M  V30 END COLLECTION
M  V30 END CTAB
M  END
>  <_CXSMILES_Data>  (130) 
|&1:10,19|

$$$$
OCNT-2309025
     RDKit          3D

 45 49  0  0  0  0  0  0  0  0999 V2000
   -0.9352   -2.3114    0.5860 C   0  0  0  0  0  0  0  0  0  0  0  0
   -2.0899   -2.5676   -0.2305 N   0  0  0  0  0  0  0  0  0  0  0  0
   -2.6532   -3.7920   -0.4348 C   0  0  0  0  0  0  0  0  0  0  0  0
   -3.6850   -3.6764   -1.2407 N   0  0  0  0  0  0  0  0  0  0  0  0
   -3.7853   -2.3526   -1.5939 N   0  0  0  0  0  0  0  0  0  0  0  0
   -2.8308   -1.6766   -0.9689 C   0  0  0  0  0  0  0  0  0  0  0  0
   -2.5503   -0.1991   -1.0672 C   0  0  0  0  0  0  0  0  0  0  0  0
   -3.7980    0.5756   -1.5413 C   0  0  0  0  0  0  0  0  0  0  0  0
   -3.6593    0.5757   -3.0560 C   0  0  0  0  0  0  0  0  0  0  0  0
   -2.1616    0.7758   -3.2536 C   0  0  0  0  0  0  0  0  0  0  0  0
   -1.5375    0.1399   -2.0877 N   0  0  0  0  0  0  0  0  0  0  0  0
   -0.2657    0.5246   -1.7113 C   0  0  0  0  0  0  0  0  0  0  0  0
    0.7015    0.8382   -2.6671 C   0  0  0  0  0  0  0  0  0  0  0  0
    1.9847    1.2085   -2.2742 C   0  0  0  0  0  0  0  0  0  0  0  0
    2.3015    1.2456   -0.9215 C   0  0  0  0  0  0  0  0  0  0  0  0
    1.3159    0.8976   -0.0111 C   0  0  0  0  0  0  0  0  0  0  0  0
    1.5705    0.9111    1.3910 N   0  0  0  0  0  0  0  0  0  0  0  0
    0.5666    0.9836    2.3367 C   0  0  0  0  0  0  0  0  0  0  0  0
    1.0199    1.0641    3.5646 N   0  0  0  0  0  0  0  0  0  0  0  0
    2.3819    0.9848    3.4364 C   0  0  0  0  0  0  0  0  0  0  0  0
    3.3542    0.9953    4.4511 C   0  0  0  0  0  0  0  0  0  0  0  0
    4.7002    0.8273    4.1068 C   0  0  0  0  0  0  0  0  0  0  0  0
    5.0715    0.6435    2.7769 C   0  0  0  0  0  0  0  0  0  0  0  0
    4.1175    0.6436    1.7494 C   0  0  0  0  0  0  0  0  0  0  0  0
    2.7685    0.8505    2.0974 C   0  0  0  0  0  0  0  0  0  0  0  0
    0.0517    0.5569   -0.3972 N   0  0  0  0  0  0  0  0  0  0  0  0
   -0.0618   -2.2481   -0.0679 H   0  0  0  0  0  0  0  0  0  0  0  0
   -0.8028   -3.1378    1.2914 H   0  0  0  0  0  0  0  0  0  0  0  0
   -1.0856   -1.3887    1.1506 H   0  0  0  0  0  0  0  0  0  0  0  0
   -2.2843   -4.7080    0.0048 H   0  0  0  0  0  0  0  0  0  0  0  0
   -2.3053    0.1824   -0.0681 H   0  0  0  0  0  0  0  0  0  0  0  0
   -3.7493    1.6103   -1.1763 H   0  0  0  0  0  0  0  0  0  0  0  0
   -4.7468    0.1470   -1.2045 H   0  0  0  0  0  0  0  0  0  0  0  0
   -4.2510    1.3613   -3.5338 H   0  0  0  0  0  0  0  0  0  0  0  0
   -3.9742   -0.3876   -3.4764 H   0  0  0  0  0  0  0  0  0  0  0  0
   -1.8288    0.3179   -4.1915 H   0  0  0  0  0  0  0  0  0  0  0  0
   -1.9396    1.8509   -3.2800 H   0  0  0  0  0  0  0  0  0  0  0  0
    0.4713    0.7895   -3.7271 H   0  0  0  0  0  0  0  0  0  0  0  0
    2.7297    1.4733   -3.0233 H   0  0  0  0  0  0  0  0  0  0  0  0
    3.2832    1.5944   -0.6272 H   0  0  0  0  0  0  0  0  0  0  0  0
   -0.4754    1.0104    2.0572 H   0  0  0  0  0  0  0  0  0  0  0  0
    3.0502    1.1106    5.4862 H   0  0  0  0  0  0  0  0  0  0  0  0
    5.4564    0.8211    4.8887 H   0  0  0  0  0  0  0  0  0  0  0  0
    6.1204    0.4822    2.5295 H   0  0  0  0  0  0  0  0  0  0  0  0
    4.4397    0.4525    0.7309 H   0  0  0  0  0  0  0  0  0  0  0  0
  1  2  1  0
  2  3  1  0
  3  4  2  0
  4  5  1  0
  5  6  2  0
  6  7  1  0
  7  8  1  0
  8  9  1  0
  9 10  1  0
 10 11  1  0
 11 12  1  0
 12 13  1  0
 13 14  2  0
 14 15  1  0
 15 16  2  0
 16 17  1  0
 17 18  1  0
 18 19  2  0
 19 20  1  0
 20 21  2  0
 21 22  1  0
 22 23  2  0
 23 24  1  0
 24 25  2  0
 16 26  1  0
  6  2  1  0
 11  7  1  0
 26 12  2  0
 25 17  1  0
 25 20  1  0
  1 27  1  0
  1 28  1  0
  1 29  1  0
  3 30  1  0
  7 31  1  0
  8 32  1  0
  8 33  1  0
  9 34  1  0
  9 35  1  0
 10 36  1  0
 10 37  1  0
 13 38  1  0
 14 39  1  0
 15 40  1  0
 18 41  1  0
 21 42  1  0
 22 43  1  0
 23 44  1  0
 24 45  1  0
M  END
$$$$
OCNT-2309038
     RDKit          3D

 45 48  0  0  0  0  0  0  0  0999 V2000
   -2.8208    3.1807   -0.3872 C   0  0  0  0  0  0  0  0  0  0  0  0
   -1.8509    2.0144   -0.2302 C   0  0  0  0  0  0  0  0  0  0  0  0
   -2.2660    0.8223   -0.9820 N   0  0  0  0  0  0  0  0  0  0  0  0
   -3.4971    0.1854   -0.4910 C   0  0  0  0  0  0  0  0  0  0  0  0
   -3.3395   -0.5160    0.8596 C   0  0  0  0  0  0  0  0  0  0  0  0
   -2.2031   -1.5385    0.8435 C   0  0  1  0  0  0  0  0  0  0  0  0
   -2.6328   -2.6807    0.0784 O   0  0  0  0  0  0  0  0  0  0  0  0
   -1.6331   -3.7061    0.1184 C   0  0  0  0  0  0  0  0  0  0  0  0
   -0.3250   -3.2214   -0.5028 C   0  0  0  0  0  0  0  0  0  0  0  0
    0.1456   -1.9676    0.0924 N   0  0  0  0  0  0  0  0  0  0  0  0
    1.5046   -1.6555   -0.1174 C   0  0  0  0  0  0  0  0  0  0  0  0
    2.2254   -2.4240   -0.7595 O   0  0  0  0  0  0  0  0  0  0  0  0
    2.0681   -0.4020    0.4312 C   0  0  0  0  0  0  0  0  0  0  0  0
    1.6197    0.1944    1.5555 N   0  0  0  0  0  0  0  0  0  0  0  0
    2.4302    1.2518    1.7172 N   0  0  0  0  0  0  0  0  0  0  0  0
    3.3876    1.3852    0.7533 C   0  0  0  0  0  0  0  0  0  0  0  0
    4.3955    2.3375    0.5710 C   0  0  0  0  0  0  0  0  0  0  0  0
    5.2352    2.1721   -0.5349 C   0  0  0  0  0  0  0  0  0  0  0  0
    5.0701    1.0999   -1.4110 C   0  0  0  0  0  0  0  0  0  0  0  0
    4.0534    0.1589   -1.2073 C   0  0  0  0  0  0  0  0  0  0  0  0
    3.1924    0.3078   -0.1019 C   0  0  0  0  0  0  0  0  0  0  0  0
   -0.9007   -0.9310    0.2712 C   0  0  1  0  0  0  0  0  0  0  0  0
   -1.1863   -0.1800   -1.0562 C   0  0  0  0  0  0  0  0  0  0  0  0
   -3.7750    2.9891    0.1123 H   0  0  0  0  0  0  0  0  0  0  0  0
   -2.3926    4.0833    0.0617 H   0  0  0  0  0  0  0  0  0  0  0  0
   -3.0161    3.3939   -1.4434 H   0  0  0  0  0  0  0  0  0  0  0  0
   -1.7050    1.8057    0.8352 H   0  0  0  0  0  0  0  0  0  0  0  0
   -0.8824    2.3572   -0.6166 H   0  0  0  0  0  0  0  0  0  0  0  0
   -4.3167    0.9097   -0.4357 H   0  0  0  0  0  0  0  0  0  0  0  0
   -3.8255   -0.5488   -1.2388 H   0  0  0  0  0  0  0  0  0  0  0  0
   -3.1558    0.2258    1.6454 H   0  0  0  0  0  0  0  0  0  0  0  0
   -4.2840   -1.0168    1.1043 H   0  0  0  0  0  0  0  0  0  0  0  0
   -2.0315   -1.8784    1.8736 H   0  0  0  0  0  0  0  0  0  0  0  0
   -1.4835   -4.0219    1.1577 H   0  0  0  0  0  0  0  0  0  0  0  0
   -2.0144   -4.5676   -0.4387 H   0  0  0  0  0  0  0  0  0  0  0  0
   -0.4641   -3.0358   -1.5744 H   0  0  0  0  0  0  0  0  0  0  0  0
    0.4396   -3.9987   -0.3960 H   0  0  0  0  0  0  0  0  0  0  0  0
    2.2812    1.8526    2.5197 H   0  0  0  0  0  0  0  0  0  0  0  0
    4.5299    3.1693    1.2546 H   0  0  0  0  0  0  0  0  0  0  0  0
    6.0335    2.8897   -0.7129 H   0  0  0  0  0  0  0  0  0  0  0  0
    5.7382    0.9890   -2.2621 H   0  0  0  0  0  0  0  0  0  0  0  0
    3.9353   -0.6765   -1.8930 H   0  0  0  0  0  0  0  0  0  0  0  0
   -0.5606   -0.1995    1.0023 H   0  0  0  0  0  0  0  0  0  0  0  0
   -0.2679    0.2942   -1.4252 H   0  0  0  0  0  0  0  0  0  0  0  0
   -1.4550   -0.9030   -1.8376 H   0  0  0  0  0  0  0  0  0  0  0  0
  1  2  1  0
  2  3  1  0
  3  4  1  0
  4  5  1  0
  5  6  1  0
  6  7  1  0
  7  8  1  0
  8  9  1  0
  9 10  1  0
 10 11  1  0
 11 12  2  0
 11 13  1  0
 13 14  2  0
 14 15  1  0
 15 16  1  0
 16 17  2  0
 17 18  1  0
 18 19  2  0
 19 20  1  0
 20 21  2  0
 10 22  1  0
 22 23  1  0
 23  3  1  0
 22  6  1  0
 21 13  1  0
 21 16  1  0
  1 24  1  0
  1 25  1  0
  1 26  1  0
  2 27  1  0
  2 28  1  0
  4 29  1  0
  4 30  1  0
  5 31  1  0
  5 32  1  0
  6 33  1  1
  8 34  1  0
  8 35  1  0
  9 36  1  0
  9 37  1  0
 15 38  1  0
 17 39  1  0
 18 40  1  0
 19 41  1  0
 20 42  1  0
 22 43  1  1
 23 44  1  0
 23 45  1  0
M  END
$$$$
OCNT-2309039
     RDKit          3D

 51 54  0  0  0  0  0  0  0  0999 V2000
    1.1568    2.1955    1.4305 C   0  0  0  0  0  0  0  0  0  0  0  0
    1.1836    0.6893    1.1728 C   0  0  0  0  0  0  0  0  0  0  0  0
    0.2770    0.2897   -0.0246 C   0  0  0  0  0  0  0  0  0  0  0  0
   -1.1402    0.6527    0.1319 N   0  0  0  0  0  0  0  0  0  0  0  0
   -1.8859    0.4887   -1.1250 C   0  0  0  0  0  0  0  0  0  0  0  0
   -3.3714    0.9050   -0.9900 C   0  0  0  0  0  0  0  0  0  0  0  0
   -4.0219    0.3109    0.1916 N   0  0  0  0  0  0  0  0  0  0  0  0
   -5.3740   -0.0137    0.0581 C   0  0  0  0  0  0  0  0  0  0  0  0
   -6.2667    0.8952   -0.5161 C   0  0  0  0  0  0  0  0  0  0  0  0
   -7.6186    0.5732   -0.6348 C   0  0  0  0  0  0  0  0  0  0  0  0
   -8.0637   -0.6528   -0.1695 C   0  0  0  0  0  0  0  0  0  0  0  0
   -7.1321   -1.4982    0.4005 C   0  0  0  0  0  0  0  0  0  0  0  0
   -5.8183   -1.2032    0.5233 N   0  0  0  0  0  0  0  0  0  0  0  0
   -3.2117   -0.6607    0.9363 C   0  0  0  0  0  0  0  0  0  0  0  0
   -1.7972   -0.0952    1.2326 C   0  0  0  0  0  0  0  0  0  0  0  0
    2.5579    0.2612    0.9437 N   0  0  0  0  0  0  0  0  0  0  0  0
    2.9556   -1.0488    1.0822 C   0  0  0  0  0  0  0  0  0  0  0  0
    2.2161   -1.9302    1.5106 O   0  0  0  0  0  0  0  0  0  0  0  0
    4.3260   -1.3144    0.6666 C   0  0  0  0  0  0  0  0  0  0  0  0
    4.9616   -2.5423    0.7735 C   0  0  0  0  0  0  0  0  0  0  0  0
    6.2367   -2.4209    0.2881 N   0  0  0  0  0  0  0  0  0  0  0  0
    6.4527   -1.1354   -0.1445 C   0  0  0  0  0  0  0  0  0  0  0  0
    7.5714   -0.5275   -0.7131 C   0  0  0  0  0  0  0  0  0  0  0  0
    7.4311    0.8189   -1.0376 C   0  0  0  0  0  0  0  0  0  0  0  0
    6.2244    1.4575   -0.7866 C   0  0  0  0  0  0  0  0  0  0  0  0
    5.1292    0.8868   -0.2387 N   0  0  0  0  0  0  0  0  0  0  0  0
    5.2739   -0.4278    0.0805 C   0  0  0  0  0  0  0  0  0  0  0  0
    0.1513    2.5403    1.6908 H   0  0  0  0  0  0  0  0  0  0  0  0
    1.8237    2.4566    2.2599 H   0  0  0  0  0  0  0  0  0  0  0  0
    1.4942    2.7537    0.5501 H   0  0  0  0  0  0  0  0  0  0  0  0
    0.8374    0.1761    2.0779 H   0  0  0  0  0  0  0  0  0  0  0  0
    0.6771    0.7920   -0.9164 H   0  0  0  0  0  0  0  0  0  0  0  0
    0.3684   -0.7868   -0.2217 H   0  0  0  0  0  0  0  0  0  0  0  0
   -1.4347    1.1075   -1.9103 H   0  0  0  0  0  0  0  0  0  0  0  0
   -1.8299   -0.5534   -1.4677 H   0  0  0  0  0  0  0  0  0  0  0  0
   -3.4304    1.9971   -0.9043 H   0  0  0  0  0  0  0  0  0  0  0  0
   -3.8795    0.6139   -1.9186 H   0  0  0  0  0  0  0  0  0  0  0  0
   -5.9213    1.8667   -0.8522 H   0  0  0  0  0  0  0  0  0  0  0  0
   -8.3121    1.2813   -1.0776 H   0  0  0  0  0  0  0  0  0  0  0  0
   -9.1063   -0.9389   -0.2397 H   0  0  0  0  0  0  0  0  0  0  0  0
   -7.4221   -2.4693    0.7904 H   0  0  0  0  0  0  0  0  0  0  0  0
   -3.6786   -0.9065    1.8987 H   0  0  0  0  0  0  0  0  0  0  0  0
   -3.1155   -1.5901    0.3590 H   0  0  0  0  0  0  0  0  0  0  0  0
   -1.8724    0.5955    2.0816 H   0  0  0  0  0  0  0  0  0  0  0  0
   -1.1824   -0.9393    1.5703 H   0  0  0  0  0  0  0  0  0  0  0  0
    3.2056    0.8926    0.4747 H   0  0  0  0  0  0  0  0  0  0  0  0
    4.6000   -3.4869    1.1604 H   0  0  0  0  0  0  0  0  0  0  0  0
    6.9187   -3.1668    0.2502 H   0  0  0  0  0  0  0  0  0  0  0  0
    8.4951   -1.0651   -0.8929 H   0  0  0  0  0  0  0  0  0  0  0  0
    8.2554    1.3666   -1.4830 H   0  0  0  0  0  0  0  0  0  0  0  0
    6.1060    2.5095   -1.0372 H   0  0  0  0  0  0  0  0  0  0  0  0
  1  2  1  0
  2  3  1  0
  3  4  1  0
  4  5  1  0
  5  6  1  0
  6  7  1  0
  7  8  1  0
  8  9  2  0
  9 10  1  0
 10 11  2  0
 11 12  1  0
 12 13  2  0
  7 14  1  0
 14 15  1  0
  2 16  1  0
 16 17  1  0
 17 18  2  0
 17 19  1  0
 19 20  2  0
 20 21  1  0
 21 22  1  0
 22 23  1  0
 23 24  2  0
 24 25  1  0
 25 26  2  0
 26 27  1  0
 15  4  1  0
 27 19  1  0
 13  8  1  0
 27 22  2  0
  1 28  1  0
  1 29  1  0
  1 30  1  0
  2 31  1  0
  3 32  1  0
  3 33  1  0
  5 34  1  0
  5 35  1  0
  6 36  1  0
  6 37  1  0
  9 38  1  0
 10 39  1  0
 11 40  1  0
 12 41  1  0
 14 42  1  0
 14 43  1  0
 15 44  1  0
 15 45  1  0
 16 46  1  0
 20 47  1  0
 21 48  1  0
 23 49  1  0
 24 50  1  0
 25 51  1  0
M  END
$$$$
OCNT-2309040
     RDKit          3D

 40 42  0  0  0  0  0  0  0  0999 V2000
   -6.8452    2.7442   -0.2496 O   0  0  0  0  0  0  0  0  0  0  0  0
   -5.8068    2.0927   -0.1733 C   0  0  0  0  0  0  0  0  0  0  0  0
   -4.4328    2.7245    0.0302 C   0  0  0  0  0  0  0  0  0  0  0  0
   -3.3674    1.9322    0.5309 O   0  0  0  0  0  0  0  0  0  0  0  0
   -3.4382    0.5993    0.1933 C   0  0  0  0  0  0  0  0  0  0  0  0
   -2.2553   -0.1548    0.3621 C   0  0  0  0  0  0  0  0  0  0  0  0
   -1.0723    0.5122    0.7196 N   0  0  0  0  0  0  0  0  0  0  0  0
   -0.0136   -0.1838    1.4397 C   0  0  0  0  0  0  0  0  0  0  0  0
    1.1118   -0.5651    0.4841 C   0  0  0  0  0  0  0  0  0  0  0  0
    2.2514   -1.2525    1.2293 C   0  0  0  0  0  0  0  0  0  0  0  0
    3.2681   -1.6762    0.3214 O   0  0  0  0  0  0  0  0  0  0  0  0
    4.2909   -0.8202    0.0268 C   0  0  0  0  0  0  0  0  0  0  0  0
    4.3873    0.5186    0.4084 C   0  0  0  0  0  0  0  0  0  0  0  0
    5.4979    1.2807    0.0265 C   0  0  0  0  0  0  0  0  0  0  0  0
    6.5095    0.7047   -0.7389 C   0  0  0  0  0  0  0  0  0  0  0  0
    7.8717    1.6458   -1.2048 Cl  0  0  0  0  0  0  0  0  0  0  0  0
    6.4203   -0.6275   -1.1298 C   0  0  0  0  0  0  0  0  0  0  0  0
    5.3104   -1.3845   -0.7474 C   0  0  0  0  0  0  0  0  0  0  0  0
   -2.2966   -1.5171    0.0445 C   0  0  0  0  0  0  0  0  0  0  0  0
   -3.4903   -2.1185   -0.3642 C   0  0  0  0  0  0  0  0  0  0  0  0
   -3.5130   -3.8030   -0.7227 Cl  0  0  0  0  0  0  0  0  0  0  0  0
   -4.6616   -1.3762   -0.4897 C   0  0  0  0  0  0  0  0  0  0  0  0
   -4.6294   -0.0118   -0.2193 C   0  0  0  0  0  0  0  0  0  0  0  0
   -5.8015    0.7360   -0.3388 N   0  0  0  0  0  0  0  0  0  0  0  0
   -4.5625    3.5562    0.7314 H   0  0  0  0  0  0  0  0  0  0  0  0
   -4.1192    3.1485   -0.9312 H   0  0  0  0  0  0  0  0  0  0  0  0
   -1.3048    1.4255    1.1161 H   0  0  0  0  0  0  0  0  0  0  0  0
    0.3846    0.5027    2.1971 H   0  0  0  0  0  0  0  0  0  0  0  0
   -0.3911   -1.0553    1.9879 H   0  0  0  0  0  0  0  0  0  0  0  0
    0.7466   -1.2277   -0.3097 H   0  0  0  0  0  0  0  0  0  0  0  0
    1.4804    0.3271   -0.0361 H   0  0  0  0  0  0  0  0  0  0  0  0
    2.6529   -0.6446    2.0485 H   0  0  0  0  0  0  0  0  0  0  0  0
    1.8653   -2.1652    1.6990 H   0  0  0  0  0  0  0  0  0  0  0  0
    3.6156    1.0078    0.9923 H   0  0  0  0  0  0  0  0  0  0  0  0
    5.5637    2.3231    0.3270 H   0  0  0  0  0  0  0  0  0  0  0  0
    7.2033   -1.0828   -1.7295 H   0  0  0  0  0  0  0  0  0  0  0  0
    5.2389   -2.4255   -1.0545 H   0  0  0  0  0  0  0  0  0  0  0  0
   -1.4007   -2.1265    0.1043 H   0  0  0  0  0  0  0  0  0  0  0  0
   -5.5801   -1.8614   -0.8059 H   0  0  0  0  0  0  0  0  0  0  0  0
   -6.6882    0.2984   -0.5524 H   0  0  0  0  0  0  0  0  0  0  0  0
  1  2  2  0
  2  3  1  0
  3  4  1  0
  4  5  1  0
  5  6  1  0
  6  7  1  0
  7  8  1  0
  8  9  1  0
  9 10  1  0
 10 11  1  0
 11 12  1  0
 12 13  1  0
 13 14  2  0
 14 15  1  0
 15 16  1  0
 15 17  2  0
 17 18  1  0
  6 19  2  0
 19 20  1  0
 20 21  1  0
 20 22  2  0
 22 23  1  0
 23 24  1  0
 24  2  1  0
 23  5  2  0
 18 12  2  0
  3 25  1  0
  3 26  1  0
  7 27  1  0
  8 28  1  0
  8 29  1  0
  9 30  1  0
  9 31  1  0
 10 32  1  0
 10 33  1  0
 13 34  1  0
 14 35  1  0
 17 36  1  0
 18 37  1  0
 19 38  1  0
 22 39  1  0
 24 40  1  0
M  END
$$$$
OCNT-2309042
     RDKit          3D

 29 31  0  0  0  0  0  0  0  0999 V2000
    2.2106    1.7988    0.3386 O   0  0  0  0  0  0  0  0  0  0  0  0
    2.0467    0.5984    0.1580 C   0  0  0  0  0  0  0  0  0  0  0  0
    3.0268   -0.3097   -0.2152 N   0  0  0  0  0  0  0  0  0  0  0  0
    4.3428    0.0582   -0.3399 C   0  0  0  0  0  0  0  0  0  0  0  0
    4.9366    1.1963   -0.0629 N   0  0  0  0  0  0  0  0  0  0  0  0
    6.2798    1.0676   -0.3421 N   0  0  0  0  0  0  0  0  0  0  0  0
    6.4744   -0.1487   -0.7871 C   0  0  0  0  0  0  0  0  0  0  0  0
    5.2905   -0.8184   -0.7996 N   0  0  0  0  0  0  0  0  0  0  0  0
    0.7173   -0.0388    0.3066 C   0  0  0  0  0  0  0  0  0  0  0  0
   -0.4162    0.6109    0.0043 N   0  0  0  0  0  0  0  0  0  0  0  0
   -1.4376   -0.2334    0.2793 N   0  0  0  0  0  0  0  0  0  0  0  0
   -2.7898    0.1631    0.0977 C   0  0  0  0  0  0  0  0  0  0  0  0
   -3.1029    1.4272   -0.4199 C   0  0  0  0  0  0  0  0  0  0  0  0
   -2.1605    2.3079   -0.7824 F   0  0  0  0  0  0  0  0  0  0  0  0
   -4.4296    1.8311   -0.5982 C   0  0  0  0  0  0  0  0  0  0  0  0
   -5.4749    0.9776   -0.2628 C   0  0  0  0  0  0  0  0  0  0  0  0
   -5.1836   -0.2817    0.2502 C   0  0  0  0  0  0  0  0  0  0  0  0
   -3.8552   -0.6813    0.4270 C   0  0  0  0  0  0  0  0  0  0  0  0
   -3.6650   -1.9076    0.9315 F   0  0  0  0  0  0  0  0  0  0  0  0
   -0.9455   -1.4452    0.7228 C   0  0  0  0  0  0  0  0  0  0  0  0
    0.4243   -1.3488    0.7554 C   0  0  0  0  0  0  0  0  0  0  0  0
    2.7497   -1.2437   -0.4688 H   0  0  0  0  0  0  0  0  0  0  0  0
    7.4158   -0.5758   -1.1007 H   0  0  0  0  0  0  0  0  0  0  0  0
    5.1431   -1.7688   -1.0976 H   0  0  0  0  0  0  0  0  0  0  0  0
   -4.6300    2.8200   -1.0024 H   0  0  0  0  0  0  0  0  0  0  0  0
   -6.5062    1.2923   -0.4002 H   0  0  0  0  0  0  0  0  0  0  0  0
   -5.9851   -0.9642    0.5202 H   0  0  0  0  0  0  0  0  0  0  0  0
   -1.5862   -2.2695    0.9930 H   0  0  0  0  0  0  0  0  0  0  0  0
    1.1101   -2.1136    1.0906 H   0  0  0  0  0  0  0  0  0  0  0  0
  1  2  2  0
  2  3  1  0
  3  4  1  0
  4  5  2  0
  5  6  1  0
  6  7  2  0
  7  8  1  0
  2  9  1  0
  9 10  2  0
 10 11  1  0
 11 12  1  0
 12 13  2  0
 13 14  1  0
 13 15  1  0
 15 16  2  0
 16 17  1  0
 17 18  2  0
 18 19  1  0
 11 20  1  0
 20 21  2  0
  8  4  1  0
 21  9  1  0
 18 12  1  0
  3 22  1  0
  7 23  1  0
  8 24  1  0
 15 25  1  0
 16 26  1  0
 17 27  1  0
 20 28  1  0
 21 29  1  0
M  END
$$$$
OCNT-2309065
     RDKit          3D

 51 54  0  0  0  0  0  0  0  0999 V2000
   -7.0708    0.6952    2.6193 C   0  0  0  0  0  0  0  0  0  0  0  0
   -5.9652   -0.2922    2.6301 C   0  0  0  0  0  0  0  0  0  0  0  0
   -5.9906   -1.3083    3.4981 N   0  0  0  0  0  0  0  0  0  0  0  0
   -4.8414   -2.0325    3.2649 O   0  0  0  0  0  0  0  0  0  0  0  0
   -4.1334   -1.4563    2.2591 C   0  0  0  0  0  0  0  0  0  0  0  0
   -2.8658   -2.1253    1.9038 C   0  0  0  0  0  0  0  0  0  0  0  0
   -4.8006   -0.3328    1.8081 C   0  0  0  0  0  0  0  0  0  0  0  0
   -4.4228    0.6272    0.7170 C   0  0  0  0  0  0  0  0  0  0  0  0
   -4.6244    0.0125   -0.6704 C   0  0  0  0  0  0  0  0  0  0  0  0
   -3.0330    1.1508    0.8774 C   0  0  0  0  0  0  0  0  0  0  0  0
   -1.8911    0.6868    0.4164 N   0  0  0  0  0  0  0  0  0  0  0  0
   -0.9922    1.5989    0.9060 C   0  0  0  0  0  0  0  0  0  0  0  0
    0.4651    1.4966    0.6495 C   0  0  0  0  0  0  0  0  0  0  0  0
    0.8793    2.2749   -0.6015 C   0  0  0  0  0  0  0  0  0  0  0  0
    2.3865    2.2154   -0.8338 C   0  0  0  0  0  0  0  0  0  0  0  0
    2.7591    0.8554   -1.0414 O   0  0  0  0  0  0  0  0  0  0  0  0
    4.0943    0.5682   -1.1965 C   0  0  0  0  0  0  0  0  0  0  0  0
    5.1000    1.5381   -1.2678 C   0  0  0  0  0  0  0  0  0  0  0  0
    6.4323    1.1604   -1.4256 C   0  0  0  0  0  0  0  0  0  0  0  0
    6.7716   -0.1874   -1.5160 C   0  0  0  0  0  0  0  0  0  0  0  0
    5.7843   -1.1803   -1.4524 C   0  0  0  0  0  0  0  0  0  0  0  0
    6.1308   -2.5389   -1.5465 C   0  0  0  0  0  0  0  0  0  0  0  0
    5.1553   -3.5337   -1.4855 C   0  0  0  0  0  0  0  0  0  0  0  0
    3.8200   -3.1834   -1.3299 C   0  0  0  0  0  0  0  0  0  0  0  0
    3.4609   -1.8374   -1.2346 C   0  0  0  0  0  0  0  0  0  0  0  0
    4.4269   -0.8082   -1.2925 C   0  0  0  0  0  0  0  0  0  0  0  0
   -1.5298    2.5935    1.6234 N   0  0  0  0  0  0  0  0  0  0  0  0
   -2.8931    2.2954    1.6107 O   0  0  0  0  0  0  0  0  0  0  0  0
   -6.6949    1.6880    2.8869 H   0  0  0  0  0  0  0  0  0  0  0  0
   -7.5223    0.7527    1.6236 H   0  0  0  0  0  0  0  0  0  0  0  0
   -7.8589    0.4293    3.3316 H   0  0  0  0  0  0  0  0  0  0  0  0
   -2.0174   -1.5910    2.3418 H   0  0  0  0  0  0  0  0  0  0  0  0
   -2.8448   -3.1550    2.2750 H   0  0  0  0  0  0  0  0  0  0  0  0
   -2.7316   -2.1611    0.8189 H   0  0  0  0  0  0  0  0  0  0  0  0
   -5.0978    1.4923    0.7739 H   0  0  0  0  0  0  0  0  0  0  0  0
   -3.9778   -0.8570   -0.8326 H   0  0  0  0  0  0  0  0  0  0  0  0
   -5.6607   -0.3178   -0.8044 H   0  0  0  0  0  0  0  0  0  0  0  0
   -4.3993    0.7410   -1.4574 H   0  0  0  0  0  0  0  0  0  0  0  0
    1.0169    1.8710    1.5206 H   0  0  0  0  0  0  0  0  0  0  0  0
    0.7305    0.4381    0.5418 H   0  0  0  0  0  0  0  0  0  0  0  0
    0.3598    1.8544   -1.4722 H   0  0  0  0  0  0  0  0  0  0  0  0
    0.5704    3.3236   -0.5139 H   0  0  0  0  0  0  0  0  0  0  0  0
    2.9062    2.6284    0.0393 H   0  0  0  0  0  0  0  0  0  0  0  0
    2.6280    2.8073   -1.7245 H   0  0  0  0  0  0  0  0  0  0  0  0
    4.8809    2.5985   -1.2078 H   0  0  0  0  0  0  0  0  0  0  0  0
    7.2093    1.9189   -1.4800 H   0  0  0  0  0  0  0  0  0  0  0  0
    7.8181   -0.4584   -1.6390 H   0  0  0  0  0  0  0  0  0  0  0  0
    7.1707   -2.8338   -1.6692 H   0  0  0  0  0  0  0  0  0  0  0  0
    5.4395   -4.5799   -1.5601 H   0  0  0  0  0  0  0  0  0  0  0  0
    3.0546   -3.9532   -1.2826 H   0  0  0  0  0  0  0  0  0  0  0  0
    2.4083   -1.5886   -1.1144 H   0  0  0  0  0  0  0  0  0  0  0  0
  1  2  1  0
  2  3  2  0
  3  4  1  0
  4  5  1  0
  5  6  1  0
  5  7  2  0
  7  8  1  0
  8  9  1  0
  8 10  1  0
 10 11  2  0
 11 12  1  0
 12 13  1  0
 13 14  1  0
 14 15  1  0
 15 16  1  0
 16 17  1  0
 17 18  2  0
 18 19  1  0
 19 20  2  0
 20 21  1  0
 21 22  2  0
 22 23  1  0
 23 24  2  0
 24 25  1  0
 25 26  2  0
 12 27  2  0
 27 28  1  0
  7  2  1  0
 28 10  1  0
 26 17  1  0
 26 21  1  0
  1 29  1  0
  1 30  1  0
  1 31  1  0
  6 32  1  0
  6 33  1  0
  6 34  1  0
  8 35  1  0
  9 36  1  0
  9 37  1  0
  9 38  1  0
 13 39  1  0
 13 40  1  0
 14 41  1  0
 14 42  1  0
 15 43  1  0
 15 44  1  0
 18 45  1  0
 19 46  1  0
 20 47  1  0
 22 48  1  0
 23 49  1  0
 24 50  1  0
 25 51  1  0
M  END
$$$$
OCNT-2309070
     RDKit          3D

 32 33  0  0  0  0  0  0  0  0999 V2000
    4.3298    2.8144   -0.5117 C   0  0  0  0  0  0  0  0  0  0  0  0
    4.2951    1.4252   -0.1929 O   0  0  0  0  0  0  0  0  0  0  0  0
    3.0407    0.8849   -0.1627 C   0  0  0  0  0  0  0  0  0  0  0  0
    2.0102    1.5189   -0.3871 O   0  0  0  0  0  0  0  0  0  0  0  0
    3.0210   -0.5462    0.1682 C   0  0  0  0  0  0  0  0  0  0  0  0
    4.1296   -1.2674    0.4322 N   0  0  0  0  0  0  0  0  0  0  0  0
    3.6655   -2.5018    0.6848 N   0  0  0  0  0  0  0  0  0  0  0  0
    2.3116   -2.6075    0.5978 C   0  0  0  0  0  0  0  0  0  0  0  0
    1.8488   -1.3612    0.2597 C   0  0  0  0  0  0  0  0  0  0  0  0
    0.5398   -0.9510    0.0524 N   0  0  0  0  0  0  0  0  0  0  0  0
   -0.5727   -1.7666    0.1147 C   0  0  0  0  0  0  0  0  0  0  0  0
   -0.5747   -2.9767    0.3129 O   0  0  0  0  0  0  0  0  0  0  0  0
   -1.8775   -1.0799   -0.1175 C   0  0  0  0  0  0  0  0  0  0  0  0
   -2.9115   -1.8088   -0.7177 C   0  0  0  0  0  0  0  0  0  0  0  0
   -4.1486   -1.2106   -0.9565 C   0  0  0  0  0  0  0  0  0  0  0  0
   -4.3650    0.1165   -0.5848 C   0  0  0  0  0  0  0  0  0  0  0  0
   -3.3511    0.8567    0.0435 C   0  0  0  0  0  0  0  0  0  0  0  0
   -3.5872    2.2939    0.4424 C   0  0  0  0  0  0  0  0  0  0  0  0
   -4.8900    2.5638    0.7319 F   0  0  0  0  0  0  0  0  0  0  0  0
   -3.2318    3.1650   -0.5408 F   0  0  0  0  0  0  0  0  0  0  0  0
   -2.8766    2.6618    1.5444 F   0  0  0  0  0  0  0  0  0  0  0  0
   -2.1026    0.2492    0.2703 C   0  0  0  0  0  0  0  0  0  0  0  0
    5.3743    3.1378   -0.5075 H   0  0  0  0  0  0  0  0  0  0  0  0
    3.9176    2.9895   -1.5103 H   0  0  0  0  0  0  0  0  0  0  0  0
    3.7852    3.3945    0.2399 H   0  0  0  0  0  0  0  0  0  0  0  0
    4.3339   -3.2309    0.9131 H   0  0  0  0  0  0  0  0  0  0  0  0
    1.8095   -3.5476    0.7797 H   0  0  0  0  0  0  0  0  0  0  0  0
    0.4358    0.0231   -0.2203 H   0  0  0  0  0  0  0  0  0  0  0  0
   -2.7522   -2.8471   -1.0049 H   0  0  0  0  0  0  0  0  0  0  0  0
   -4.9442   -1.7818   -1.4300 H   0  0  0  0  0  0  0  0  0  0  0  0
   -5.3365    0.5711   -0.7777 H   0  0  0  0  0  0  0  0  0  0  0  0
   -1.3260    0.8189    0.7782 H   0  0  0  0  0  0  0  0  0  0  0  0
  1  2  1  0
  2  3  1  0
  3  4  2  0
  3  5  1  0
  5  6  2  0
  6  7  1  0
  7  8  1  0
  8  9  2  0
  9 10  1  0
 10 11  1  0
 11 12  2  0
 11 13  1  0
 13 14  1  0
 14 15  2  0
 15 16  1  0
 16 17  2  0
 17 18  1  0
 18 19  1  0
 18 20  1  0
 18 21  1  0
 17 22  1  0
  9  5  1  0
 22 13  2  0
  1 23  1  0
  1 24  1  0
  1 25  1  0
  7 26  1  0
  8 27  1  0
 10 28  1  0
 14 29  1  0
 15 30  1  0
 16 31  1  0
 22 32  1  0
M  END
$$$$
OCNT-2309077
     RDKit          3D

 50 52  0  0  0  0  0  0  0  0999 V2000
   -2.7203   -3.8134   -0.0046 C   0  0  0  0  0  0  0  0  0  0  0  0
   -3.3469   -2.8256    0.9712 C   0  0  0  0  0  0  0  0  0  0  0  0
   -2.9090   -1.4467    0.7297 N   0  0  0  0  0  0  0  0  0  0  0  0
   -3.5529   -0.7867   -0.3189 C   0  0  0  0  0  0  0  0  0  0  0  0
   -4.4308   -1.2923   -1.0170 O   0  0  0  0  0  0  0  0  0  0  0  0
   -3.1606    0.6093   -0.5703 C   0  0  0  0  0  0  0  0  0  0  0  0
   -3.7470    1.3538   -1.6014 C   0  0  0  0  0  0  0  0  0  0  0  0
   -3.3705    2.6825   -1.7934 C   0  0  0  0  0  0  0  0  0  0  0  0
   -2.4189    3.2604   -0.9546 C   0  0  0  0  0  0  0  0  0  0  0  0
   -1.8419    2.5071    0.0713 C   0  0  0  0  0  0  0  0  0  0  0  0
   -2.2036    1.1715    0.2665 C   0  0  0  0  0  0  0  0  0  0  0  0
   -1.5931    0.4475    1.2935 N   0  0  0  0  0  0  0  0  0  0  0  0
   -1.9423   -0.7853    1.4678 C   0  0  0  0  0  0  0  0  0  0  0  0
   -1.1450   -1.6008    2.7951 S   0  0  0  0  0  0  0  0  0  0  0  0
    0.2779   -2.3438    1.9631 C   0  0  0  0  0  0  0  0  0  0  0  0
    0.7912   -1.5623    0.7659 C   0  0  0  0  0  0  0  0  0  0  0  0
    0.3194   -1.8050   -0.3502 O   0  0  0  0  0  0  0  0  0  0  0  0
    1.8239   -0.6432    0.9514 N   0  0  0  0  0  0  0  0  0  0  0  0
    2.1775   -0.0811    2.2525 C   0  0  0  0  0  0  0  0  0  0  0  0
    2.3816    0.0053   -0.2530 C   0  0  0  0  0  0  0  0  0  0  0  0
    1.5370    1.2207   -0.6835 C   0  0  0  0  0  0  0  0  0  0  0  0
    2.3104    2.2385   -1.5257 C   0  0  0  0  0  0  0  0  0  0  0  0
    3.4112    1.5801   -2.3449 C   0  0  0  0  0  0  0  0  0  0  0  0
    4.4384    0.8738   -1.4577 C   0  0  0  0  0  0  0  0  0  0  0  0
    3.8640    0.3819   -0.1258 C   0  0  0  0  0  0  0  0  0  0  0  0
   -2.9817   -3.5739   -1.0402 H   0  0  0  0  0  0  0  0  0  0  0  0
   -1.6306   -3.8120    0.0681 H   0  0  0  0  0  0  0  0  0  0  0  0
   -3.0745   -4.8271    0.2064 H   0  0  0  0  0  0  0  0  0  0  0  0
   -4.4380   -2.8688    0.8642 H   0  0  0  0  0  0  0  0  0  0  0  0
   -3.1344   -3.1377    1.9962 H   0  0  0  0  0  0  0  0  0  0  0  0
   -4.4944    0.9009   -2.2489 H   0  0  0  0  0  0  0  0  0  0  0  0
   -3.8216    3.2661   -2.5922 H   0  0  0  0  0  0  0  0  0  0  0  0
   -2.1240    4.2970   -1.0973 H   0  0  0  0  0  0  0  0  0  0  0  0
   -1.0999    2.9601    0.7238 H   0  0  0  0  0  0  0  0  0  0  0  0
   -0.0125   -3.3378    1.6072 H   0  0  0  0  0  0  0  0  0  0  0  0
    1.0815   -2.5246    2.6828 H   0  0  0  0  0  0  0  0  0  0  0  0
    1.5880   -0.4891    3.0718 H   0  0  0  0  0  0  0  0  0  0  0  0
    3.2324   -0.2890    2.4520 H   0  0  0  0  0  0  0  0  0  0  0  0
    2.0152    1.0005    2.2328 H   0  0  0  0  0  0  0  0  0  0  0  0
    2.3217   -0.7337   -1.0645 H   0  0  0  0  0  0  0  0  0  0  0  0
    1.1254    1.7412    0.1885 H   0  0  0  0  0  0  0  0  0  0  0  0
    0.6719    0.8605   -1.2543 H   0  0  0  0  0  0  0  0  0  0  0  0
    1.6155    2.7737   -2.1828 H   0  0  0  0  0  0  0  0  0  0  0  0
    2.7566    2.9920   -0.8643 H   0  0  0  0  0  0  0  0  0  0  0  0
    3.9167    2.3242   -2.9709 H   0  0  0  0  0  0  0  0  0  0  0  0
    2.9610    0.8511   -3.0304 H   0  0  0  0  0  0  0  0  0  0  0  0
    4.8608    0.0283   -2.0145 H   0  0  0  0  0  0  0  0  0  0  0  0
    5.2764    1.5501   -1.2495 H   0  0  0  0  0  0  0  0  0  0  0  0
    3.9864    1.1744    0.6236 H   0  0  0  0  0  0  0  0  0  0  0  0
    4.4527   -0.4727    0.2289 H   0  0  0  0  0  0  0  0  0  0  0  0
  1  2  1  0
  2  3  1  0
  3  4  1  0
  4  5  2  0
  4  6  1  0
  6  7  2  0
  7  8  1  0
  8  9  2  0
  9 10  1  0
 10 11  2  0
 11 12  1  0
 12 13  2  0
 13 14  1  0
 14 15  1  0
 15 16  1  0
 16 17  2  0
 16 18  1  0
 18 19  1  0
 18 20  1  0
 20 21  1  0
 21 22  1  0
 22 23  1  0
 23 24  1  0
 24 25  1  0
 13  3  1  0
 25 20  1  0
 11  6  1  0
  1 26  1  0
  1 27  1  0
  1 28  1  0
  2 29  1  0
  2 30  1  0
  7 31  1  0
  8 32  1  0
  9 33  1  0
 10 34  1  0
 15 35  1  0
 15 36  1  0
 19 37  1  0
 19 38  1  0
 19 39  1  0
 20 40  1  0
 21 41  1  0
 21 42  1  0
 22 43  1  0
 22 44  1  0
 23 45  1  0
 23 46  1  0
 24 47  1  0
 24 48  1  0
 25 49  1  0
 25 50  1  0
M  END
$$$$
OCNT-2309093
     RDKit          3D

 38 41  0  0  0  0  0  0  0  0999 V2000
   -4.3593   -0.0560    2.4637 C   0  0  0  0  0  0  0  0  0  0  0  0
   -3.3976    0.7570    1.7897 O   0  0  0  0  0  0  0  0  0  0  0  0
   -3.6401    0.7657    0.4386 C   0  0  0  0  0  0  0  0  0  0  0  0
   -4.6477    1.6086   -0.0448 C   0  0  0  0  0  0  0  0  0  0  0  0
   -4.8854    1.6995   -1.4149 C   0  0  0  0  0  0  0  0  0  0  0  0
   -4.1076    0.9613   -2.3037 C   0  0  0  0  0  0  0  0  0  0  0  0
   -3.0860    0.1361   -1.8230 C   0  0  0  0  0  0  0  0  0  0  0  0
   -2.8325    0.0310   -0.4446 C   0  0  0  0  0  0  0  0  0  0  0  0
   -1.7681   -0.8329    0.0309 C   0  0  0  0  0  0  0  0  0  0  0  0
   -0.5362   -1.0098   -0.5605 C   0  0  0  0  0  0  0  0  0  0  0  0
    0.0958   -1.8970    0.2611 N   0  0  0  0  0  0  0  0  0  0  0  0
    1.4329   -2.4408    0.1322 C   0  0  0  0  0  0  0  0  0  0  0  0
    2.4408   -1.4947    0.6688 C   0  0  0  0  0  0  0  0  0  0  0  0
    2.5387   -0.9348    1.9228 C   0  0  0  0  0  0  0  0  0  0  0  0
    3.6387   -0.1358    1.9482 O   0  0  0  0  0  0  0  0  0  0  0  0
    4.1671   -0.2478    0.6912 C   0  0  0  0  0  0  0  0  0  0  0  0
    5.4537    0.5054    0.2468 C   0  0  0  0  0  0  0  0  0  0  0  0
    5.4442    2.0125    0.2226 C   0  0  0  0  0  0  0  0  0  0  0  0
    5.4585    1.2441   -1.0673 C   0  0  0  0  0  0  0  0  0  0  0  0
    3.4929   -1.0529   -0.1074 N   0  0  0  0  0  0  0  0  0  0  0  0
   -0.6997   -2.2803    1.2769 N   0  0  0  0  0  0  0  0  0  0  0  0
   -1.8455   -1.6238    1.1493 N   0  0  0  0  0  0  0  0  0  0  0  0
   -5.3221    0.4615    2.5291 H   0  0  0  0  0  0  0  0  0  0  0  0
   -4.4866   -1.0305    1.9788 H   0  0  0  0  0  0  0  0  0  0  0  0
   -3.9977   -0.2285    3.4819 H   0  0  0  0  0  0  0  0  0  0  0  0
   -5.2375    2.2033    0.6475 H   0  0  0  0  0  0  0  0  0  0  0  0
   -5.6709    2.3515   -1.7883 H   0  0  0  0  0  0  0  0  0  0  0  0
   -4.2915    1.0303   -3.3733 H   0  0  0  0  0  0  0  0  0  0  0  0
   -2.4961   -0.4327   -2.5385 H   0  0  0  0  0  0  0  0  0  0  0  0
   -0.0651   -0.5836   -1.4337 H   0  0  0  0  0  0  0  0  0  0  0  0
    1.4697   -3.3964    0.6666 H   0  0  0  0  0  0  0  0  0  0  0  0
    1.6024   -2.6396   -0.9317 H   0  0  0  0  0  0  0  0  0  0  0  0
    1.9568   -0.9884    2.8324 H   0  0  0  0  0  0  0  0  0  0  0  0
    6.3727    0.0161    0.5482 H   0  0  0  0  0  0  0  0  0  0  0  0
    4.5307    2.5284    0.4970 H   0  0  0  0  0  0  0  0  0  0  0  0
    6.3500    2.5279    0.5198 H   0  0  0  0  0  0  0  0  0  0  0  0
    6.3736    1.2334   -1.6473 H   0  0  0  0  0  0  0  0  0  0  0  0
    4.5541    1.2326   -1.6664 H   0  0  0  0  0  0  0  0  0  0  0  0
  1  2  1  0
  2  3  1  0
  3  4  2  0
  4  5  1  0
  5  6  2  0
  6  7  1  0
  7  8  2  0
  8  9  1  0
  9 10  2  0
 10 11  1  0
 11 12  1  0
 12 13  1  0
 13 14  2  0
 14 15  1  0
 15 16  1  0
 16 17  1  0
 17 18  1  0
 18 19  1  0
 16 20  2  0
 11 21  1  0
 21 22  2  0
  8  3  1  0
 22  9  1  0
 20 13  1  0
 19 17  1  0
  1 23  1  0
  1 24  1  0
  1 25  1  0
  4 26  1  0
  5 27  1  0
  6 28  1  0
  7 29  1  0
 10 30  1  0
 12 31  1  0
 12 32  1  0
 14 33  1  0
 17 34  1  0
 18 35  1  0
 18 36  1  0
 19 37  1  0
 19 38  1  0
M  END
$$$$
OCNT-2309109
     RDKit          3D

 42 44  0  0  0  0  0  0  0  0999 V2000
   -3.0970   -0.6433    2.1700 C   0  0  0  0  0  0  0  0  0  0  0  0
   -2.5125    0.2779    1.2575 O   0  0  0  0  0  0  0  0  0  0  0  0
   -3.0587    0.3547    0.0018 C   0  0  0  0  0  0  0  0  0  0  0  0
   -4.2035   -0.3398   -0.4070 C   0  0  0  0  0  0  0  0  0  0  0  0
   -4.6850   -0.2114   -1.7122 C   0  0  0  0  0  0  0  0  0  0  0  0
   -4.0262    0.6074   -2.6225 C   0  0  0  0  0  0  0  0  0  0  0  0
   -2.8881    1.3060   -2.2260 C   0  0  0  0  0  0  0  0  0  0  0  0
   -2.3969    1.2001   -0.9107 C   0  0  0  0  0  0  0  0  0  0  0  0
   -1.1493    1.9668   -0.5102 C   0  0  2  0  0  0  0  0  0  0  0  0
   -1.2163    3.3067   -1.0229 O   0  0  0  0  0  0  0  0  0  0  0  0
    0.1661    1.3120   -1.0025 C   0  0  0  0  0  0  0  0  0  0  0  0
    0.4000   -0.0323   -0.4648 N   0  0  0  0  0  0  0  0  0  0  0  0
    1.7648   -0.4959   -0.6474 C   0  0  0  0  0  0  0  0  0  0  0  0
    1.7824   -2.0394   -0.7164 C   0  0  0  0  0  0  0  0  0  0  0  0
    3.1844   -2.4694   -0.2696 C   0  0  0  0  0  0  0  0  0  0  0  0
    3.5010   -1.3971    0.7273 C   0  0  0  0  0  0  0  0  0  0  0  0
    4.4716   -1.4219    1.7157 C   0  0  0  0  0  0  0  0  0  0  0  0
    4.6123   -0.2952    2.5224 C   0  0  0  0  0  0  0  0  0  0  0  0
    5.5445   -0.3124    3.4874 F   0  0  0  0  0  0  0  0  0  0  0  0
    3.8059    0.8357    2.3333 C   0  0  0  0  0  0  0  0  0  0  0  0
    4.0003    2.2214    3.3392 Cl  0  0  0  0  0  0  0  0  0  0  0  0
    2.8388    0.8578    1.3239 C   0  0  0  0  0  0  0  0  0  0  0  0
    2.6876   -0.2692    0.5257 C   0  0  0  0  0  0  0  0  0  0  0  0
   -4.1241   -0.3551    2.4155 H   0  0  0  0  0  0  0  0  0  0  0  0
   -3.0516   -1.6668    1.7835 H   0  0  0  0  0  0  0  0  0  0  0  0
   -2.5135   -0.6119    3.0950 H   0  0  0  0  0  0  0  0  0  0  0  0
   -4.7465   -0.9947    0.2660 H   0  0  0  0  0  0  0  0  0  0  0  0
   -5.5728   -0.7587   -2.0189 H   0  0  0  0  0  0  0  0  0  0  0  0
   -4.3940    0.6994   -3.6411 H   0  0  0  0  0  0  0  0  0  0  0  0
   -2.3744    1.9366   -2.9497 H   0  0  0  0  0  0  0  0  0  0  0  0
   -1.1007    2.0826    0.5783 H   0  0  0  0  0  0  0  0  0  0  0  0
   -2.1275    3.6104   -0.8653 H   0  0  0  0  0  0  0  0  0  0  0  0
    0.1626    1.2647   -2.0991 H   0  0  0  0  0  0  0  0  0  0  0  0
    0.9877    1.9886   -0.7382 H   0  0  0  0  0  0  0  0  0  0  0  0
    0.1214   -0.0903    0.5142 H   0  0  0  0  0  0  0  0  0  0  0  0
    2.2242   -0.0936   -1.5597 H   0  0  0  0  0  0  0  0  0  0  0  0
    1.5335   -2.4141   -1.7150 H   0  0  0  0  0  0  0  0  0  0  0  0
    1.0452   -2.4671   -0.0200 H   0  0  0  0  0  0  0  0  0  0  0  0
    3.8969   -2.4360   -1.1000 H   0  0  0  0  0  0  0  0  0  0  0  0
    3.1729   -3.4672    0.1775 H   0  0  0  0  0  0  0  0  0  0  0  0
    5.1089   -2.2853    1.8701 H   0  0  0  0  0  0  0  0  0  0  0  0
    2.2256    1.7394    1.1730 H   0  0  0  0  0  0  0  0  0  0  0  0
  1  2  1  0
  2  3  1  0
  3  4  2  0
  4  5  1  0
  5  6  2  0
  6  7  1  0
  7  8  2  0
  8  9  1  0
  9 10  1  0
  9 11  1  0
 11 12  1  0
 12 13  1  0
 13 14  1  0
 14 15  1  0
 15 16  1  0
 16 17  1  0
 17 18  2  0
 18 19  1  0
 18 20  1  0
 20 21  1  0
 20 22  2  0
 22 23  1  0
  8  3  1  0
 23 13  1  0
 23 16  2  0
  1 24  1  0
  1 25  1  0
  1 26  1  0
  4 27  1  0
  5 28  1  0
  6 29  1  0
  7 30  1  0
  9 31  1  1
 10 32  1  0
 11 33  1  0
 11 34  1  0
 12 35  1  0
 13 36  1  0
 14 37  1  0
 14 38  1  0
 15 39  1  0
 15 40  1  0
 17 41  1  0
 22 42  1  0
M  END
$$$$
OCNT-2309110
     RDKit          3D

 44 46  0  0  0  0  0  0  0  0999 V2000
    3.0831    3.7482   -1.7402 C   0  0  0  0  0  0  0  0  0  0  0  0
    3.0331    2.4842   -0.9179 C   0  0  0  0  0  0  0  0  0  0  0  0
    4.0977    2.1566   -0.2453 N   0  0  0  0  0  0  0  0  0  0  0  0
    4.0229    1.0068    0.4924 C   0  0  0  0  0  0  0  0  0  0  0  0
    4.9190    0.3631    1.3092 C   0  0  0  0  0  0  0  0  0  0  0  0
    6.6680    0.8927    1.7180 Br  0  0  0  0  0  0  0  0  0  0  0  0
    4.2752   -0.7918    1.7892 C   0  0  0  0  0  0  0  0  0  0  0  0
    4.8037   -1.8321    2.7059 C   0  0  0  0  0  0  0  0  0  0  0  0
    3.0305   -0.8949    1.3055 N   0  0  0  0  0  0  0  0  0  0  0  0
    2.8699    0.2197    0.5259 N   0  0  0  0  0  0  0  0  0  0  0  0
    1.7115    0.5777   -0.2120 C   0  0  0  0  0  0  0  0  0  0  0  0
    0.6073   -0.2697   -0.1039 N   0  0  0  0  0  0  0  0  0  0  0  0
   -0.3877   -0.4949   -1.1395 C   0  0  0  0  0  0  0  0  0  0  0  0
   -1.3980   -1.5109   -0.6848 C   0  0  0  0  0  0  0  0  0  0  0  0
   -1.0347   -2.8586   -0.5438 C   0  0  0  0  0  0  0  0  0  0  0  0
   -1.9743   -3.7919   -0.1210 C   0  0  0  0  0  0  0  0  0  0  0  0
   -3.2564   -3.3488    0.1453 C   0  0  0  0  0  0  0  0  0  0  0  0
   -3.6483   -2.0640    0.0170 N   0  0  0  0  0  0  0  0  0  0  0  0
   -2.7166   -1.1704   -0.3875 C   0  0  0  0  0  0  0  0  0  0  0  0
   -3.0805    0.1522   -0.5400 O   0  0  0  0  0  0  0  0  0  0  0  0
   -4.4123    0.4854   -0.1285 C   0  0  0  0  0  0  0  0  0  0  0  0
   -4.4511    0.7350    1.3774 C   0  0  0  0  0  0  0  0  0  0  0  0
   -4.7897    1.7627   -0.8765 C   0  0  0  0  0  0  0  0  0  0  0  0
    1.7574    1.7030   -0.9468 C   0  0  0  0  0  0  0  0  0  0  0  0
    3.8477    3.6423   -2.5154 H   0  0  0  0  0  0  0  0  0  0  0  0
    3.3460    4.5901   -1.0928 H   0  0  0  0  0  0  0  0  0  0  0  0
    2.1223    3.9574   -2.2173 H   0  0  0  0  0  0  0  0  0  0  0  0
    5.6872   -2.3115    2.2725 H   0  0  0  0  0  0  0  0  0  0  0  0
    4.0601   -2.6123    2.9002 H   0  0  0  0  0  0  0  0  0  0  0  0
    5.0839   -1.3893    3.6670 H   0  0  0  0  0  0  0  0  0  0  0  0
    0.8485   -1.1024    0.4439 H   0  0  0  0  0  0  0  0  0  0  0  0
    0.1005   -0.8698   -2.0481 H   0  0  0  0  0  0  0  0  0  0  0  0
   -0.8661    0.4510   -1.4135 H   0  0  0  0  0  0  0  0  0  0  0  0
   -0.0185   -3.1803   -0.7604 H   0  0  0  0  0  0  0  0  0  0  0  0
   -1.7122   -4.8371   -0.0013 H   0  0  0  0  0  0  0  0  0  0  0  0
   -4.0281   -4.0366    0.4789 H   0  0  0  0  0  0  0  0  0  0  0  0
   -5.1372   -0.2853   -0.4178 H   0  0  0  0  0  0  0  0  0  0  0  0
   -5.4443    1.0645    1.6980 H   0  0  0  0  0  0  0  0  0  0  0  0
   -3.7184    1.4968    1.6661 H   0  0  0  0  0  0  0  0  0  0  0  0
   -4.1958   -0.1712    1.9358 H   0  0  0  0  0  0  0  0  0  0  0  0
   -4.7438    1.5972   -1.9585 H   0  0  0  0  0  0  0  0  0  0  0  0
   -5.8005    2.0923   -0.6173 H   0  0  0  0  0  0  0  0  0  0  0  0
   -4.0870    2.5731   -0.6525 H   0  0  0  0  0  0  0  0  0  0  0  0
    0.9259    2.0720   -1.5287 H   0  0  0  0  0  0  0  0  0  0  0  0
  1  2  1  0
  2  3  2  0
  3  4  1  0
  4  5  2  0
  5  6  1  0
  5  7  1  0
  7  8  1  0
  7  9  2  0
  9 10  1  0
 10 11  1  0
 11 12  1  0
 12 13  1  0
 13 14  1  0
 14 15  1  0
 15 16  2  0
 16 17  1  0
 17 18  2  0
 18 19  1  0
 19 20  1  0
 20 21  1  0
 21 22  1  0
 21 23  1  0
 11 24  2  0
 24  2  1  0
 10  4  1  0
 19 14  2  0
  1 25  1  0
  1 26  1  0
  1 27  1  0
  8 28  1  0
  8 29  1  0
  8 30  1  0
 12 31  1  0
 13 32  1  0
 13 33  1  0
 15 34  1  0
 16 35  1  0
 17 36  1  0
 21 37  1  0
 22 38  1  0
 22 39  1  0
 22 40  1  0
 23 41  1  0
 23 42  1  0
 23 43  1  0
 24 44  1  0
M  END
$$$$
OCNT-2309111
     RDKit          3D

 43 46  0  0  0  0  0  0  0  0999 V2000
   -3.6337   -1.8197    1.5420 C   0  0  0  0  0  0  0  0  0  0  0  0
   -3.8962   -0.5776    0.8092 N   0  0  0  0  0  0  0  0  0  0  0  0
   -4.8117    0.3206    1.5192 C   0  0  0  0  0  0  0  0  0  0  0  0
   -2.6653    0.0620    0.5201 C   0  0  0  0  0  0  0  0  0  0  0  0
   -2.1942    0.9868    1.3836 N   0  0  0  0  0  0  0  0  0  0  0  0
   -1.0225    1.5841    1.1001 C   0  0  0  0  0  0  0  0  0  0  0  0
   -0.2483    1.2769   -0.0011 C   0  0  0  0  0  0  0  0  0  0  0  0
   -0.6940    0.2900   -0.8783 C   0  0  0  0  0  0  0  0  0  0  0  0
   -1.9586   -0.2848   -0.6460 C   0  0  0  0  0  0  0  0  0  0  0  0
   -2.5309   -1.2495   -1.6509 C   0  0  0  0  0  0  0  0  0  0  0  0
   -2.1255   -0.7993   -3.0427 C   0  0  0  0  0  0  0  0  0  0  0  0
   -0.6117   -0.7515   -3.1451 C   0  0  0  0  0  0  0  0  0  0  0  0
    0.0703   -0.1005   -2.0277 N   0  0  0  0  0  0  0  0  0  0  0  0
    1.4644    0.0568   -2.1938 C   0  0  0  0  0  0  0  0  0  0  0  0
    1.9747    0.0824   -3.3152 O   0  0  0  0  0  0  0  0  0  0  0  0
    2.3169    0.0464   -1.0056 C   0  0  0  0  0  0  0  0  0  0  0  0
    2.2299   -0.8080    0.0720 C   0  0  0  0  0  0  0  0  0  0  0  0
    3.2385   -0.5155    0.9358 O   0  0  0  0  0  0  0  0  0  0  0  0
    3.9180    0.5066    0.3284 C   0  0  0  0  0  0  0  0  0  0  0  0
    5.1796    1.1847    0.9382 C   0  0  0  0  0  0  0  0  0  0  0  0
    5.7510    0.6871    2.2411 C   0  0  0  0  0  0  0  0  0  0  0  0
    5.0285    2.0037    2.1947 C   0  0  0  0  0  0  0  0  0  0  0  0
    3.4089    0.8783   -0.8280 N   0  0  0  0  0  0  0  0  0  0  0  0
   -3.0104   -2.5087    0.9612 H   0  0  0  0  0  0  0  0  0  0  0  0
   -3.1445   -1.6300    2.5054 H   0  0  0  0  0  0  0  0  0  0  0  0
   -4.5786   -2.3381    1.7403 H   0  0  0  0  0  0  0  0  0  0  0  0
   -4.4662    0.5581    2.5328 H   0  0  0  0  0  0  0  0  0  0  0  0
   -5.7935   -0.1581    1.6078 H   0  0  0  0  0  0  0  0  0  0  0  0
   -4.9619    1.2523    0.9608 H   0  0  0  0  0  0  0  0  0  0  0  0
   -0.7100    2.3480    1.8064 H   0  0  0  0  0  0  0  0  0  0  0  0
    0.6616    1.8434   -0.1631 H   0  0  0  0  0  0  0  0  0  0  0  0
   -3.6249   -1.2752   -1.6089 H   0  0  0  0  0  0  0  0  0  0  0  0
   -2.1596   -2.2593   -1.4400 H   0  0  0  0  0  0  0  0  0  0  0  0
   -2.5311   -1.4797   -3.7999 H   0  0  0  0  0  0  0  0  0  0  0  0
   -2.5398    0.1965   -3.2493 H   0  0  0  0  0  0  0  0  0  0  0  0
   -0.2111   -1.7719   -3.2098 H   0  0  0  0  0  0  0  0  0  0  0  0
   -0.3331   -0.2452   -4.0774 H   0  0  0  0  0  0  0  0  0  0  0  0
    1.5720   -1.6164    0.3543 H   0  0  0  0  0  0  0  0  0  0  0  0
    5.8832    1.5390    0.1929 H   0  0  0  0  0  0  0  0  0  0  0  0
    5.2646   -0.1426    2.7415 H   0  0  0  0  0  0  0  0  0  0  0  0
    6.8287    0.7006    2.3561 H   0  0  0  0  0  0  0  0  0  0  0  0
    4.0521    2.0617    2.6628 H   0  0  0  0  0  0  0  0  0  0  0  0
    5.6146    2.9111    2.2759 H   0  0  0  0  0  0  0  0  0  0  0  0
  1  2  1  0
  2  3  1  0
  2  4  1  0
  4  5  1  0
  5  6  2  0
  6  7  1  0
  7  8  2  0
  8  9  1  0
  9 10  1  0
 10 11  1  0
 11 12  1  0
 12 13  1  0
 13 14  1  0
 14 15  2  0
 14 16  1  0
 16 17  2  0
 17 18  1  0
 18 19  1  0
 19 20  1  0
 20 21  1  0
 21 22  1  0
 19 23  2  0
  9  4  2  0
 23 16  1  0
 13  8  1  0
 22 20  1  0
  1 24  1  0
  1 25  1  0
  1 26  1  0
  3 27  1  0
  3 28  1  0
  3 29  1  0
  6 30  1  0
  7 31  1  0
 10 32  1  0
 10 33  1  0
 11 34  1  0
 11 35  1  0
 12 36  1  0
 12 37  1  0
 17 38  1  0
 20 39  1  0
 21 40  1  0
 21 41  1  0
 22 42  1  0
 22 43  1  0
M  END
$$$$
OCNT-2309126
     RDKit          3D

 51 53  0  0  0  0  0  0  0  0999 V2000
    5.8657    1.6802    3.3330 C   0  0  0  0  0  0  0  0  0  0  0  0
    6.1402    0.3283    2.9828 O   0  0  0  0  0  0  0  0  0  0  0  0
    5.4124   -0.1067    1.8927 C   0  0  0  0  0  0  0  0  0  0  0  0
    5.6607   -1.4026    1.4711 C   0  0  0  0  0  0  0  0  0  0  0  0
    4.9479   -1.8900    0.3825 C   0  0  0  0  0  0  0  0  0  0  0  0
    4.0201   -1.0656   -0.2455 C   0  0  0  0  0  0  0  0  0  0  0  0
    3.8388    0.2309    0.2331 C   0  0  0  0  0  0  0  0  0  0  0  0
    2.8089    1.1385   -0.3979 C   0  0  0  0  0  0  0  0  0  0  0  0
    1.5320    1.0313    0.2781 N   0  0  0  0  0  0  0  0  0  0  0  0
    0.5839    0.1160   -0.1323 C   0  0  0  0  0  0  0  0  0  0  0  0
    0.7302   -0.5830   -1.1290 O   0  0  0  0  0  0  0  0  0  0  0  0
   -0.5953    0.0215    0.8249 C   0  0  0  0  0  0  0  0  0  0  0  0
   -1.9142   -0.5005    0.1971 C   0  0  0  0  0  0  0  0  0  0  0  0
   -2.3559    0.4279   -0.8577 N   0  0  0  0  0  0  0  0  0  0  0  0
   -3.0711   -0.0460   -2.0416 C   0  0  0  0  0  0  0  0  0  0  0  0
   -3.3423    1.1105   -3.0210 C   0  0  0  0  0  0  0  0  0  0  0  0
   -4.1674    2.1440   -2.4672 O   0  0  0  0  0  0  0  0  0  0  0  0
   -4.0580    2.2480   -1.0434 C   0  0  0  0  0  0  0  0  0  0  0  0
   -2.6891    1.8109   -0.4954 C   0  0  0  0  0  0  0  0  0  0  0  0
   -1.7561   -1.9825   -0.2368 C   0  0  0  0  0  0  0  0  0  0  0  0
   -3.1341   -2.6344   -0.1127 C   0  0  0  0  0  0  0  0  0  0  0  0
   -3.9543   -1.7282    0.7977 C   0  0  0  0  0  0  0  0  0  0  0  0
   -2.9785   -0.6791    1.3136 C   0  0  0  0  0  0  0  0  0  0  0  0
    4.5148    0.7161    1.3075 N   0  0  0  0  0  0  0  0  0  0  0  0
    6.4951    1.9365    4.1908 H   0  0  0  0  0  0  0  0  0  0  0  0
    6.1236    2.3631    2.5159 H   0  0  0  0  0  0  0  0  0  0  0  0
    4.8211    1.8071    3.6378 H   0  0  0  0  0  0  0  0  0  0  0  0
    6.3907   -2.0181    1.9837 H   0  0  0  0  0  0  0  0  0  0  0  0
    5.1084   -2.9044    0.0290 H   0  0  0  0  0  0  0  0  0  0  0  0
    3.4379   -1.4319   -1.0871 H   0  0  0  0  0  0  0  0  0  0  0  0
    2.6995    0.9221   -1.4663 H   0  0  0  0  0  0  0  0  0  0  0  0
    3.1363    2.1796   -0.3023 H   0  0  0  0  0  0  0  0  0  0  0  0
    1.5054    1.3647    1.2323 H   0  0  0  0  0  0  0  0  0  0  0  0
   -0.2746   -0.6453    1.6370 H   0  0  0  0  0  0  0  0  0  0  0  0
   -0.7566    1.0027    1.2884 H   0  0  0  0  0  0  0  0  0  0  0  0
   -2.4879   -0.8025   -2.5744 H   0  0  0  0  0  0  0  0  0  0  0  0
   -4.0350   -0.4787   -1.7588 H   0  0  0  0  0  0  0  0  0  0  0  0
   -2.4012    1.5672   -3.3504 H   0  0  0  0  0  0  0  0  0  0  0  0
   -3.8484    0.7331   -3.9156 H   0  0  0  0  0  0  0  0  0  0  0  0
   -4.2519    3.2919   -0.7762 H   0  0  0  0  0  0  0  0  0  0  0  0
   -4.8588    1.6464   -0.5969 H   0  0  0  0  0  0  0  0  0  0  0  0
   -2.6736    1.9840    0.5848 H   0  0  0  0  0  0  0  0  0  0  0  0
   -1.9152    2.4578   -0.9267 H   0  0  0  0  0  0  0  0  0  0  0  0
   -1.3382   -2.1124   -1.2395 H   0  0  0  0  0  0  0  0  0  0  0  0
   -1.0696   -2.5031    0.4448 H   0  0  0  0  0  0  0  0  0  0  0  0
   -3.6170   -2.7392   -1.0898 H   0  0  0  0  0  0  0  0  0  0  0  0
   -3.0443   -3.6421    0.3076 H   0  0  0  0  0  0  0  0  0  0  0  0
   -4.7684   -1.2564    0.2375 H   0  0  0  0  0  0  0  0  0  0  0  0
   -4.4124   -2.2874    1.6200 H   0  0  0  0  0  0  0  0  0  0  0  0
   -2.5059   -1.0601    2.2292 H   0  0  0  0  0  0  0  0  0  0  0  0
   -3.4985    0.2404    1.5967 H   0  0  0  0  0  0  0  0  0  0  0  0
  1  2  1  0
  2  3  1  0
  3  4  1  0
  4  5  2  0
  5  6  1  0
  6  7  2  0
  7  8  1  0
  8  9  1  0
  9 10  1  0
 10 11  2  0
 10 12  1  0
 12 13  1  0
 13 14  1  0
 14 15  1  0
 15 16  1  0
 16 17  1  0
 17 18  1  0
 18 19  1  0
 13 20  1  0
 20 21  1  0
 21 22  1  0
 22 23  1  0
  7 24  1  0
 24  3  2  0
 23 13  1  0
 19 14  1  0
  1 25  1  0
  1 26  1  0
  1 27  1  0
  4 28  1  0
  5 29  1  0
  6 30  1  0
  8 31  1  0
  8 32  1  0
  9 33  1  0
 12 34  1  0
 12 35  1  0
 15 36  1  0
 15 37  1  0
 16 38  1  0
 16 39  1  0
 18 40  1  0
 18 41  1  0
 19 42  1  0
 19 43  1  0
 20 44  1  0
 20 45  1  0
 21 46  1  0
 21 47  1  0
 22 48  1  0
 22 49  1  0
 23 50  1  0
 23 51  1  0
M  END
$$$$
OCNT-2309138
     RDKit          3D

 37 39  0  0  0  0  0  0  0  0999 V2000
    3.0837    1.8362    0.0549 C   0  0  0  0  0  0  0  0  0  0  0  0
    2.6280    1.0463   -1.1594 C   0  0  0  0  0  0  0  0  0  0  0  0
    3.2019   -0.2891   -1.2003 N   0  0  0  0  0  0  0  0  0  0  0  0
    4.3661   -0.4545   -1.8737 N   0  0  0  0  0  0  0  0  0  0  0  0
    4.5989   -1.7650   -1.7860 C   0  0  0  0  0  0  0  0  0  0  0  0
    3.6008   -2.4375   -1.0618 C   0  0  0  0  0  0  0  0  0  0  0  0
    3.5850   -4.1049   -0.7529 Cl  0  0  0  0  0  0  0  0  0  0  0  0
    2.7047   -1.4611   -0.6774 C   0  0  0  0  0  0  0  0  0  0  0  0
    1.5064   -1.5747    0.0875 C   0  0  0  0  0  0  0  0  0  0  0  0
    0.8805   -0.5547    0.6348 N   0  0  0  0  0  0  0  0  0  0  0  0
   -0.2194   -1.1409    1.2180 C   0  0  0  0  0  0  0  0  0  0  0  0
   -1.2357   -0.3697    1.9800 C   0  0  0  0  0  0  0  0  0  0  0  0
   -1.8788    0.5830    0.9948 C   0  0  0  0  0  0  0  0  0  0  0  0
   -1.3684    1.8885    0.8639 C   0  0  0  0  0  0  0  0  0  0  0  0
   -1.9290    2.7843   -0.0440 C   0  0  0  0  0  0  0  0  0  0  0  0
   -3.0054    2.3876   -0.8307 C   0  0  0  0  0  0  0  0  0  0  0  0
   -3.5224    1.0948   -0.7143 C   0  0  0  0  0  0  0  0  0  0  0  0
   -2.9644    0.1858    0.1905 C   0  0  0  0  0  0  0  0  0  0  0  0
   -3.4080   -1.0962    0.3789 O   0  0  0  0  0  0  0  0  0  0  0  0
   -4.3642   -1.5997   -0.5448 C   0  0  0  0  0  0  0  0  0  0  0  0
   -0.2596   -2.4744    1.1034 N   0  0  0  0  0  0  0  0  0  0  0  0
    0.8756   -2.7650    0.3483 O   0  0  0  0  0  0  0  0  0  0  0  0
    2.6306    2.8323    0.0505 H   0  0  0  0  0  0  0  0  0  0  0  0
    4.1722    1.9570    0.0579 H   0  0  0  0  0  0  0  0  0  0  0  0
    2.8043    1.3385    0.9886 H   0  0  0  0  0  0  0  0  0  0  0  0
    1.5386    0.9627   -1.2027 H   0  0  0  0  0  0  0  0  0  0  0  0
    2.9369    1.5622   -2.0766 H   0  0  0  0  0  0  0  0  0  0  0  0
    5.4856   -2.1739   -2.2530 H   0  0  0  0  0  0  0  0  0  0  0  0
   -0.7525    0.1860    2.7922 H   0  0  0  0  0  0  0  0  0  0  0  0
   -1.9830   -1.0195    2.4485 H   0  0  0  0  0  0  0  0  0  0  0  0
   -0.5213    2.2077    1.4680 H   0  0  0  0  0  0  0  0  0  0  0  0
   -1.5269    3.7897   -0.1367 H   0  0  0  0  0  0  0  0  0  0  0  0
   -3.4473    3.0857   -1.5373 H   0  0  0  0  0  0  0  0  0  0  0  0
   -4.3671    0.8302   -1.3417 H   0  0  0  0  0  0  0  0  0  0  0  0
   -5.3219   -1.0799   -0.4393 H   0  0  0  0  0  0  0  0  0  0  0  0
   -3.9929   -1.5427   -1.5735 H   0  0  0  0  0  0  0  0  0  0  0  0
   -4.5316   -2.6553   -0.3098 H   0  0  0  0  0  0  0  0  0  0  0  0
  1  2  1  0
  2  3  1  0
  3  4  1  0
  4  5  2  0
  5  6  1  0
  6  7  1  0
  6  8  2  0
  8  9  1  0
  9 10  2  0
 10 11  1  0
 11 12  1  0
 12 13  1  0
 13 14  2  0
 14 15  1  0
 15 16  2  0
 16 17  1  0
 17 18  2  0
 18 19  1  0
 19 20  1  0
 11 21  2  0
 21 22  1  0
  8  3  1  0
 22  9  1  0
 18 13  1  0
  1 23  1  0
  1 24  1  0
  1 25  1  0
  2 26  1  0
  2 27  1  0
  5 28  1  0
 12 29  1  0
 12 30  1  0
 14 31  1  0
 15 32  1  0
 16 33  1  0
 17 34  1  0
 20 35  1  0
 20 36  1  0
 20 37  1  0
M  END
$$$$
OCNT-2309158
     RDKit          3D

 41 44  0  0  0  0  0  0  0  0999 V2000
   -6.4344    0.5832   -0.4380 C   0  0  0  0  0  0  0  0  0  0  0  0
   -5.0132    0.3138   -0.4241 N   0  0  0  0  0  0  0  0  0  0  0  0
   -4.1634    0.5624   -1.4670 C   0  0  0  0  0  0  0  0  0  0  0  0
   -2.9044    0.1568   -1.0900 C   0  0  0  0  0  0  0  0  0  0  0  0
   -2.9796   -0.3396    0.2463 C   0  0  0  0  0  0  0  0  0  0  0  0
   -2.0533   -0.8841    1.1690 C   0  0  0  0  0  0  0  0  0  0  0  0
   -0.6049   -0.9849    0.8651 C   0  0  0  0  0  0  0  0  0  0  0  0
   -0.0142   -2.0109    1.1803 O   0  0  0  0  0  0  0  0  0  0  0  0
   -0.0557    0.1507    0.2988 N   0  0  0  0  0  0  0  0  0  0  0  0
    1.2782    0.3462   -0.1141 C   0  0  0  0  0  0  0  0  0  0  0  0
    1.6114    1.6119   -0.6157 C   0  0  0  0  0  0  0  0  0  0  0  0
    2.9075    1.8880   -1.0609 C   0  0  0  0  0  0  0  0  0  0  0  0
    3.8938    0.9024   -0.9929 C   0  0  0  0  0  0  0  0  0  0  0  0
    5.2692    1.1318   -1.5524 C   0  0  0  0  0  0  0  0  0  0  0  0
    6.3062    0.2921   -0.8253 C   0  0  0  0  0  0  0  0  0  0  0  0
    5.8703   -1.1477   -0.6796 C   0  0  0  0  0  0  0  0  0  0  0  0
    6.6731   -2.0783   -0.6794 O   0  0  0  0  0  0  0  0  0  0  0  0
    4.5391   -1.3591   -0.4386 N   0  0  0  0  0  0  0  0  0  0  0  0
    3.5624   -0.3586   -0.4897 C   0  0  0  0  0  0  0  0  0  0  0  0
    2.2627   -0.6424   -0.0629 C   0  0  0  0  0  0  0  0  0  0  0  0
   -2.5036   -1.3566    2.4127 C   0  0  0  0  0  0  0  0  0  0  0  0
   -3.8461   -1.2584    2.7634 C   0  0  0  0  0  0  0  0  0  0  0  0
   -4.7756   -0.6963    1.8850 C   0  0  0  0  0  0  0  0  0  0  0  0
   -4.3246   -0.2503    0.6310 C   0  0  0  0  0  0  0  0  0  0  0  0
   -6.6642    1.2686    0.3818 H   0  0  0  0  0  0  0  0  0  0  0  0
   -6.7113    1.0415   -1.3908 H   0  0  0  0  0  0  0  0  0  0  0  0
   -6.9666   -0.3633   -0.3137 H   0  0  0  0  0  0  0  0  0  0  0  0
   -4.5185    0.9888   -2.3966 H   0  0  0  0  0  0  0  0  0  0  0  0
   -2.0250    0.2004   -1.7202 H   0  0  0  0  0  0  0  0  0  0  0  0
   -0.6713    0.9499    0.2080 H   0  0  0  0  0  0  0  0  0  0  0  0
    0.8640    2.3992   -0.6766 H   0  0  0  0  0  0  0  0  0  0  0  0
    3.1358    2.8701   -1.4681 H   0  0  0  0  0  0  0  0  0  0  0  0
    5.5445    2.1899   -1.4739 H   0  0  0  0  0  0  0  0  0  0  0  0
    5.2537    0.8690   -2.6174 H   0  0  0  0  0  0  0  0  0  0  0  0
    6.4824    0.6846    0.1836 H   0  0  0  0  0  0  0  0  0  0  0  0
    7.2549    0.3241   -1.3718 H   0  0  0  0  0  0  0  0  0  0  0  0
    4.2748   -2.3085   -0.2053 H   0  0  0  0  0  0  0  0  0  0  0  0
    2.0391   -1.6359    0.3098 H   0  0  0  0  0  0  0  0  0  0  0  0
   -1.7947   -1.7985    3.1107 H   0  0  0  0  0  0  0  0  0  0  0  0
   -4.1764   -1.6254    3.7329 H   0  0  0  0  0  0  0  0  0  0  0  0
   -5.8218   -0.6265    2.1680 H   0  0  0  0  0  0  0  0  0  0  0  0
  1  2  1  0
  2  3  1  0
  3  4  2  0
  4  5  1  0
  5  6  2  0
  6  7  1  0
  7  8  2  0
  7  9  1  0
  9 10  1  0
 10 11  1  0
 11 12  2  0
 12 13  1  0
 13 14  1  0
 14 15  1  0
 15 16  1  0
 16 17  2  0
 16 18  1  0
 18 19  1  0
 19 20  1  0
  6 21  1  0
 21 22  2  0
 22 23  1  0
 23 24  2  0
 24  2  1  0
 24  5  1  0
 20 10  2  0
 19 13  2  0
  1 25  1  0
  1 26  1  0
  1 27  1  0
  3 28  1  0
  4 29  1  0
  9 30  1  0
 11 31  1  0
 12 32  1  0
 14 33  1  0
 14 34  1  0
 15 35  1  0
 15 36  1  0
 18 37  1  0
 20 38  1  0
 21 39  1  0
 22 40  1  0
 23 41  1  0
M  END
$$$$
OCNT-2309179
     RDKit          3D

 43 45  0  0  0  0  0  0  0  0999 V2000
    7.7335    0.0794   -0.6234 C   0  0  0  0  0  0  0  0  0  0  0  0
    6.3159    0.1831   -0.3201 N   0  0  0  0  0  0  0  0  0  0  0  0
    5.9039    1.3934    0.3808 C   0  0  0  0  0  0  0  0  0  0  0  0
    5.5406   -0.9705   -0.4277 C   0  0  0  0  0  0  0  0  0  0  0  0
    6.0052   -2.0814   -0.6735 O   0  0  0  0  0  0  0  0  0  0  0  0
    4.0801   -0.8752   -0.2648 C   0  0  0  0  0  0  0  0  0  0  0  0
    3.4070   -1.7418    0.5874 C   0  0  0  0  0  0  0  0  0  0  0  0
    2.0200   -1.6396    0.6921 C   0  0  0  0  0  0  0  0  0  0  0  0
    1.3346   -0.6940   -0.0731 C   0  0  0  0  0  0  0  0  0  0  0  0
   -0.0560   -0.5987    0.0897 N   0  0  0  0  0  0  0  0  0  0  0  0
   -0.6973    0.3593   -0.8002 C   0  0  0  0  0  0  0  0  0  0  0  0
   -2.1878    0.3345   -0.5452 C   0  0  0  0  0  0  0  0  0  0  0  0
   -3.0736   -0.2055   -1.4831 C   0  0  0  0  0  0  0  0  0  0  0  0
   -4.4527   -0.2327   -1.2335 C   0  0  0  0  0  0  0  0  0  0  0  0
   -4.9770    0.2782   -0.0334 C   0  0  0  0  0  0  0  0  0  0  0  0
   -6.3825    0.2456    0.2084 N   0  0  0  0  0  0  0  0  0  0  0  0
   -7.0734    0.7015    1.3116 C   0  0  0  0  0  0  0  0  0  0  0  0
   -8.4034    0.4489    1.0743 C   0  0  0  0  0  0  0  0  0  0  0  0
   -8.5718   -0.1496   -0.1374 N   0  0  0  0  0  0  0  0  0  0  0  0
   -7.3581   -0.2593   -0.6313 C   0  0  0  0  0  0  0  0  0  0  0  0
   -4.0815    0.8108    0.9017 C   0  0  0  0  0  0  0  0  0  0  0  0
   -4.4871    1.3140    2.0747 F   0  0  0  0  0  0  0  0  0  0  0  0
   -2.7083    0.8382    0.6521 C   0  0  0  0  0  0  0  0  0  0  0  0
    1.9838    0.1417   -0.9116 N   0  0  0  0  0  0  0  0  0  0  0  0
    3.3322    0.0236   -1.0061 C   0  0  0  0  0  0  0  0  0  0  0  0
    8.2819   -0.0811    0.3095 H   0  0  0  0  0  0  0  0  0  0  0  0
    7.9363   -0.7526   -1.3036 H   0  0  0  0  0  0  0  0  0  0  0  0
    8.0688    1.0083   -1.0940 H   0  0  0  0  0  0  0  0  0  0  0  0
    4.8834    1.3371    0.7615 H   0  0  0  0  0  0  0  0  0  0  0  0
    5.9939    2.2403   -0.3051 H   0  0  0  0  0  0  0  0  0  0  0  0
    6.5709    1.5472    1.2351 H   0  0  0  0  0  0  0  0  0  0  0  0
    3.9515   -2.4841    1.1645 H   0  0  0  0  0  0  0  0  0  0  0  0
    1.4802   -2.2911    1.3721 H   0  0  0  0  0  0  0  0  0  0  0  0
   -0.4683   -1.5229    0.0027 H   0  0  0  0  0  0  0  0  0  0  0  0
   -0.3322    1.3787   -0.6195 H   0  0  0  0  0  0  0  0  0  0  0  0
   -0.5005    0.1119   -1.8514 H   0  0  0  0  0  0  0  0  0  0  0  0
   -2.6983   -0.6112   -2.4217 H   0  0  0  0  0  0  0  0  0  0  0  0
   -5.0808   -0.6631   -2.0078 H   0  0  0  0  0  0  0  0  0  0  0  0
   -6.6001    1.1612    2.1644 H   0  0  0  0  0  0  0  0  0  0  0  0
   -9.2447    0.6703    1.7185 H   0  0  0  0  0  0  0  0  0  0  0  0
   -7.1452   -0.6990   -1.5945 H   0  0  0  0  0  0  0  0  0  0  0  0
   -2.0441    1.2513    1.4082 H   0  0  0  0  0  0  0  0  0  0  0  0
    3.8009    0.6950   -1.7199 H   0  0  0  0  0  0  0  0  0  0  0  0
  1  2  1  0
  2  3  1  0
  2  4  1  0
  4  5  2  0
  4  6  1  0
  6  7  2  0
  7  8  1  0
  8  9  2  0
  9 10  1  0
 10 11  1  0
 11 12  1  0
 12 13  1  0
 13 14  2  0
 14 15  1  0
 15 16  1  0
 16 17  1  0
 17 18  2  0
 18 19  1  0
 19 20  2  0
 15 21  2  0
 21 22  1  0
 21 23  1  0
  9 24  1  0
 24 25  2  0
 25  6  1  0
 23 12  2  0
 20 16  1  0
  1 26  1  0
  1 27  1  0
  1 28  1  0
  3 29  1  0
  3 30  1  0
  3 31  1  0
  7 32  1  0
  8 33  1  0
 10 34  1  0
 11 35  1  0
 11 36  1  0
 13 37  1  0
 14 38  1  0
 17 39  1  0
 18 40  1  0
 20 41  1  0
 23 42  1  0
 25 43  1  0
M  END
$$$$
OCNT-2309204
     RDKit          3D

 44 47  0  0  0  0  0  0  0  0999 V2000
    4.2172    2.1205   -2.7940 C   0  0  0  0  0  0  0  0  0  0  0  0
    3.1478    1.2385   -2.4757 O   0  0  0  0  0  0  0  0  0  0  0  0
    3.2931    0.4643   -1.3592 C   0  0  0  0  0  0  0  0  0  0  0  0
    4.3886    0.4636   -0.4981 C   0  0  0  0  0  0  0  0  0  0  0  0
    4.4119   -0.4002    0.6002 C   0  0  0  0  0  0  0  0  0  0  0  0
    3.3434   -1.2629    0.8438 C   0  0  0  0  0  0  0  0  0  0  0  0
    3.4764   -2.0883    1.9286 O   0  0  0  0  0  0  0  0  0  0  0  0
    2.6111   -3.2254    1.9100 C   0  0  0  0  0  0  0  0  0  0  0  0
    1.1715   -2.8075    1.6941 C   0  0  0  0  0  0  0  0  0  0  0  0
    1.0487   -2.1669    0.3106 C   0  0  1  0  0  0  0  0  0  0  0  0
   -0.2487   -1.5090    0.1800 N   0  0  0  0  0  0  0  0  0  0  0  0
   -0.6804   -0.3417    0.7424 C   0  0  0  0  0  0  0  0  0  0  0  0
   -1.9756   -0.2178    0.2918 C   0  0  0  0  0  0  0  0  0  0  0  0
   -2.8845    0.8705    0.5887 C   0  0  0  0  0  0  0  0  0  0  0  0
   -2.9852    1.3590    1.9024 C   0  0  0  0  0  0  0  0  0  0  0  0
   -3.8619    2.4033    2.2104 C   0  0  0  0  0  0  0  0  0  0  0  0
   -4.6437    2.9775    1.2101 C   0  0  0  0  0  0  0  0  0  0  0  0
   -4.5512    2.5086   -0.0995 C   0  0  0  0  0  0  0  0  0  0  0  0
   -3.6896    1.4491   -0.4049 C   0  0  0  0  0  0  0  0  0  0  0  0
   -3.5711    1.0617   -1.7164 O   0  0  0  0  0  0  0  0  0  0  0  0
   -4.6807    0.2513   -2.1032 C   0  0  0  0  0  0  0  0  0  0  0  0
   -2.2917   -1.3079   -0.4757 N   0  0  0  0  0  0  0  0  0  0  0  0
   -1.2298   -2.1013   -0.5266 N   0  0  0  0  0  0  0  0  0  0  0  0
    2.2129   -1.2430    0.0212 C   0  0  0  0  0  0  0  0  0  0  0  0
    2.2158   -0.3902   -1.0981 C   0  0  0  0  0  0  0  0  0  0  0  0
    5.1430    1.5671   -2.9867 H   0  0  0  0  0  0  0  0  0  0  0  0
    3.9504    2.6515   -3.7126 H   0  0  0  0  0  0  0  0  0  0  0  0
    4.3590    2.8680   -2.0070 H   0  0  0  0  0  0  0  0  0  0  0  0
    5.2434    1.1130   -0.6554 H   0  0  0  0  0  0  0  0  0  0  0  0
    5.2758   -0.4113    1.2610 H   0  0  0  0  0  0  0  0  0  0  0  0
    2.7092   -3.7223    2.8809 H   0  0  0  0  0  0  0  0  0  0  0  0
    2.9530   -3.9350    1.1460 H   0  0  0  0  0  0  0  0  0  0  0  0
    0.8884   -2.0907    2.4762 H   0  0  0  0  0  0  0  0  0  0  0  0
    0.4978   -3.6675    1.7799 H   0  0  0  0  0  0  0  0  0  0  0  0
    1.0788   -2.9609   -0.4492 H   0  0  0  0  0  0  0  0  0  0  0  0
   -0.0496    0.2815    1.3590 H   0  0  0  0  0  0  0  0  0  0  0  0
   -2.3874    0.9238    2.7003 H   0  0  0  0  0  0  0  0  0  0  0  0
   -3.9299    2.7707    3.2320 H   0  0  0  0  0  0  0  0  0  0  0  0
   -5.3160    3.7980    1.4464 H   0  0  0  0  0  0  0  0  0  0  0  0
   -5.1365    2.9784   -0.8847 H   0  0  0  0  0  0  0  0  0  0  0  0
   -4.8877   -0.5383   -1.3723 H   0  0  0  0  0  0  0  0  0  0  0  0
   -4.4305   -0.2236   -3.0557 H   0  0  0  0  0  0  0  0  0  0  0  0
   -5.5724    0.8680   -2.2582 H   0  0  0  0  0  0  0  0  0  0  0  0
    1.3670   -0.3761   -1.7829 H   0  0  0  0  0  0  0  0  0  0  0  0
  1  2  1  0
  2  3  1  0
  3  4  1  0
  4  5  2  0
  5  6  1  0
  6  7  1  0
  7  8  1  0
  8  9  1  0
  9 10  1  0
 10 11  1  0
 11 12  1  0
 12 13  2  0
 13 14  1  0
 14 15  2  0
 15 16  1  0
 16 17  2  0
 17 18  1  0
 18 19  2  0
 19 20  1  0
 20 21  1  0
 13 22  1  0
 22 23  2  0
 10 24  1  0
 24 25  1  0
 25  3  2  0
 24  6  2  0
 23 11  1  0
 19 14  1  0
  1 26  1  0
  1 27  1  0
  1 28  1  0
  4 29  1  0
  5 30  1  0
  8 31  1  0
  8 32  1  0
  9 33  1  0
  9 34  1  0
 10 35  1  6
 12 36  1  0
 15 37  1  0
 16 38  1  0
 17 39  1  0
 18 40  1  0
 21 41  1  0
 21 42  1  0
 21 43  1  0
 25 44  1  0
M  END
$$$$
OCNT-2309232
     RDKit          3D

 41 44  0  0  0  0  0  0  0  0999 V2000
   -3.1699   -2.7715   -2.0952 C   0  0  0  0  0  0  0  0  0  0  0  0
   -2.8904   -1.7074   -1.1610 N   0  0  0  0  0  0  0  0  0  0  0  0
   -2.2439   -1.8181    0.0350 C   0  0  0  0  0  0  0  0  0  0  0  0
   -2.2253   -0.5577    0.5825 C   0  0  0  0  0  0  0  0  0  0  0  0
   -1.6949   -0.1234    1.8001 N   0  0  0  0  0  0  0  0  0  0  0  0
   -0.5069   -0.9302    2.6551 S   0  0  0  0  0  0  0  0  0  0  0  0
   -0.9266   -2.2853    2.9349 O   0  0  0  0  0  0  0  0  0  0  0  0
   -0.0458   -0.0336    3.6919 O   0  0  0  0  0  0  0  0  0  0  0  0
    0.8611   -1.0977    1.6421 C   0  0  0  0  0  0  0  0  0  0  0  0
    1.3983   -0.1777    0.7687 C   0  0  0  0  0  0  0  0  0  0  0  0
    2.4845   -0.7971    0.2156 N   0  0  0  0  0  0  0  0  0  0  0  0
    3.3209   -0.1881   -0.8359 C   0  0  0  0  0  0  0  0  0  0  0  0
    3.9119    1.1897   -0.4382 C   0  0  0  0  0  0  0  0  0  0  0  0
    5.2041    0.7531   -1.1597 C   0  0  0  0  0  0  0  0  0  0  0  0
    4.7844   -0.7015   -0.8605 C   0  0  0  0  0  0  0  0  0  0  0  0
    2.6421   -2.0708    0.6274 N   0  0  0  0  0  0  0  0  0  0  0  0
    1.6655   -2.2382    1.5259 C   0  0  0  0  0  0  0  0  0  0  0  0
   -2.8880    0.2515   -0.3806 C   0  0  0  0  0  0  0  0  0  0  0  0
   -3.1217    1.7907   -0.2522 C   0  0  0  0  0  0  0  0  0  0  0  0
   -3.7611    2.5964   -1.1732 C   0  0  0  0  0  0  0  0  0  0  0  0
   -3.7404    3.9108   -0.6481 C   0  0  0  0  0  0  0  0  0  0  0  0
   -3.0886    3.8290    0.5594 C   0  0  0  0  0  0  0  0  0  0  0  0
   -2.7059    2.5502    0.8090 O   0  0  0  0  0  0  0  0  0  0  0  0
   -3.2839   -0.4533   -1.4490 N   0  0  0  0  0  0  0  0  0  0  0  0
   -2.7800   -3.7134   -1.7016 H   0  0  0  0  0  0  0  0  0  0  0  0
   -2.6829   -2.5331   -3.0440 H   0  0  0  0  0  0  0  0  0  0  0  0
   -4.2529   -2.8403   -2.2243 H   0  0  0  0  0  0  0  0  0  0  0  0
   -1.8784   -2.7701    0.3948 H   0  0  0  0  0  0  0  0  0  0  0  0
   -1.7488    0.8747    2.0169 H   0  0  0  0  0  0  0  0  0  0  0  0
    1.1146    0.8319    0.5088 H   0  0  0  0  0  0  0  0  0  0  0  0
    2.8325   -0.1980   -1.8182 H   0  0  0  0  0  0  0  0  0  0  0  0
    3.4098    2.0623   -0.8645 H   0  0  0  0  0  0  0  0  0  0  0  0
    4.0495    1.3491    0.6383 H   0  0  0  0  0  0  0  0  0  0  0  0
    5.2195    0.9988   -2.2278 H   0  0  0  0  0  0  0  0  0  0  0  0
    6.1401    1.0831   -0.7027 H   0  0  0  0  0  0  0  0  0  0  0  0
    5.0189   -1.4271   -1.6440 H   0  0  0  0  0  0  0  0  0  0  0  0
    5.1750   -1.0716    0.0952 H   0  0  0  0  0  0  0  0  0  0  0  0
    1.5762   -3.1868    2.0420 H   0  0  0  0  0  0  0  0  0  0  0  0
   -4.1902    2.2622   -2.1082 H   0  0  0  0  0  0  0  0  0  0  0  0
   -4.1515    4.8058   -1.0937 H   0  0  0  0  0  0  0  0  0  0  0  0
   -2.8309    4.5526    1.3208 H   0  0  0  0  0  0  0  0  0  0  0  0
  1  2  1  0
  2  3  1  0
  3  4  2  0
  4  5  1  0
  5  6  1  0
  6  7  2  0
  6  8  2  0
  6  9  1  0
  9 10  2  0
 10 11  1  0
 11 12  1  0
 12 13  1  0
 13 14  1  0
 14 15  1  0
 11 16  1  0
 16 17  2  0
  4 18  1  0
 18 19  1  0
 19 20  2  0
 20 21  1  0
 21 22  2  0
 22 23  1  0
 18 24  2  0
 24  2  1  0
 17  9  1  0
 23 19  1  0
 15 12  1  0
  1 25  1  0
  1 26  1  0
  1 27  1  0
  3 28  1  0
  5 29  1  0
 10 30  1  0
 12 31  1  0
 13 32  1  0
 13 33  1  0
 14 34  1  0
 14 35  1  0
 15 36  1  0
 15 37  1  0
 17 38  1  0
 20 39  1  0
 21 40  1  0
 22 41  1  0
M  END
$$$$
OCNT-2309238
     RDKit          3D

 45 46  0  0  0  0  0  0  0  0999 V2000
   -4.1468   -3.0576   -0.8720 C   0  0  0  0  0  0  0  0  0  0  0  0
   -3.7735   -1.8045   -1.1660 C   0  0  0  0  0  0  0  0  0  0  0  0
   -3.6480   -0.6948   -0.1536 C   0  0  0  0  0  0  0  0  0  0  0  0
   -4.6085    0.4577   -0.5112 C   0  0  0  0  0  0  0  0  0  0  0  0
   -4.3743    1.5614    0.3775 O   0  0  0  0  0  0  0  0  0  0  0  0
   -5.2817    2.6283    0.1309 C   0  0  0  0  0  0  0  0  0  0  0  0
   -2.2690   -0.2218   -0.1704 N   0  0  0  0  0  0  0  0  0  0  0  0
   -1.2821   -0.9238    0.4784 C   0  0  0  0  0  0  0  0  0  0  0  0
   -1.4754   -1.9984    1.0386 O   0  0  0  0  0  0  0  0  0  0  0  0
   -0.0382   -0.3036    0.4507 N   0  0  0  0  0  0  0  0  0  0  0  0
    1.0539   -0.9316    1.1858 C   0  0  0  0  0  0  0  0  0  0  0  0
    2.0943    0.0806    1.6554 C   0  0  0  0  0  0  0  0  0  0  0  0
    2.6092    0.9827    0.5226 C   0  0  0  0  0  0  0  0  0  0  0  0
    4.0846    0.8528    0.2574 C   0  0  0  0  0  0  0  0  0  0  0  0
    5.0500    1.8453    0.2800 C   0  0  0  0  0  0  0  0  0  0  0  0
    6.2878    1.3523   -0.0224 N   0  0  0  0  0  0  0  0  0  0  0  0
    6.1022    0.0711   -0.2287 C   0  0  0  0  0  0  0  0  0  0  0  0
    4.7892   -0.2844   -0.0738 N   0  0  0  0  0  0  0  0  0  0  0  0
    4.3046   -1.6328   -0.2324 C   0  0  0  0  0  0  0  0  0  0  0  0
    1.7799    0.8784   -0.7624 C   0  0  0  0  0  0  0  0  0  0  0  0
    0.2918    0.8093   -0.4402 C   0  0  0  0  0  0  0  0  0  0  0  0
   -4.3716   -3.3571    0.1476 H   0  0  0  0  0  0  0  0  0  0  0  0
   -4.2002   -3.8194   -1.6429 H   0  0  0  0  0  0  0  0  0  0  0  0
   -3.5253   -1.5614   -2.1966 H   0  0  0  0  0  0  0  0  0  0  0  0
   -3.8686   -1.0412    0.8639 H   0  0  0  0  0  0  0  0  0  0  0  0
   -4.4381    0.7995   -1.5401 H   0  0  0  0  0  0  0  0  0  0  0  0
   -5.6487    0.1230   -0.4163 H   0  0  0  0  0  0  0  0  0  0  0  0
   -6.3121    2.3010    0.2992 H   0  0  0  0  0  0  0  0  0  0  0  0
   -5.0550    3.4403    0.8269 H   0  0  0  0  0  0  0  0  0  0  0  0
   -5.1657    3.0009   -0.8913 H   0  0  0  0  0  0  0  0  0  0  0  0
   -2.2087    0.7663    0.0338 H   0  0  0  0  0  0  0  0  0  0  0  0
    0.6584   -1.4725    2.0530 H   0  0  0  0  0  0  0  0  0  0  0  0
    1.5027   -1.6782    0.5220 H   0  0  0  0  0  0  0  0  0  0  0  0
    2.9079   -0.4319    2.1809 H   0  0  0  0  0  0  0  0  0  0  0  0
    1.6158    0.7229    2.4081 H   0  0  0  0  0  0  0  0  0  0  0  0
    2.4688    2.0125    0.8880 H   0  0  0  0  0  0  0  0  0  0  0  0
    4.9088    2.8963    0.4994 H   0  0  0  0  0  0  0  0  0  0  0  0
    6.8772   -0.6383   -0.4894 H   0  0  0  0  0  0  0  0  0  0  0  0
    5.1118   -2.2700   -0.6046 H   0  0  0  0  0  0  0  0  0  0  0  0
    3.4884   -1.6395   -0.9552 H   0  0  0  0  0  0  0  0  0  0  0  0
    3.9752   -2.0032    0.7401 H   0  0  0  0  0  0  0  0  0  0  0  0
    1.9790    1.7426   -1.4083 H   0  0  0  0  0  0  0  0  0  0  0  0
    2.0596   -0.0072   -1.3435 H   0  0  0  0  0  0  0  0  0  0  0  0
   -0.2779    0.7186   -1.3715 H   0  0  0  0  0  0  0  0  0  0  0  0
   -0.0318    1.7296    0.0602 H   0  0  0  0  0  0  0  0  0  0  0  0
  1  2  2  0
  2  3  1  0
  3  4  1  0
  4  5  1  0
  5  6  1  0
  3  7  1  0
  7  8  1  0
  8  9  2  0
  8 10  1  0
 10 11  1  0
 11 12  1  0
 12 13  1  0
 13 14  1  0
 14 15  2  0
 15 16  1  0
 16 17  2  0
 17 18  1  0
 18 19  1  0
 13 20  1  0
 20 21  1  0
 21 10  1  0
 18 14  1  0
  1 22  1  0
  1 23  1  0
  2 24  1  0
  3 25  1  0
  4 26  1  0
  4 27  1  0
  6 28  1  0
  6 29  1  0
  6 30  1  0
  7 31  1  0
 11 32  1  0
 11 33  1  0
 12 34  1  0
 12 35  1  0
 13 36  1  0
 15 37  1  0
 17 38  1  0
 19 39  1  0
 19 40  1  0
 19 41  1  0
 20 42  1  0
 20 43  1  0
 21 44  1  0
 21 45  1  0
M  END
$$$$
OCNT-2309242
     RDKit          3D

 53 55  0  0  0  0  0  0  0  0999 V2000
    7.0829   -1.9309   -1.8731 C   0  0  0  0  0  0  0  0  0  0  0  0
    6.7445   -0.5351   -1.4128 C   0  0  0  0  0  0  0  0  0  0  0  0
    7.4956    0.4044   -1.6748 O   0  0  0  0  0  0  0  0  0  0  0  0
    5.5636   -0.3735   -0.7001 N   0  0  0  0  0  0  0  0  0  0  0  0
    5.2430    0.9517   -0.1736 C   0  0  0  0  0  0  0  0  0  0  0  0
    4.4447    0.8636    1.1208 C   0  0  0  0  0  0  0  0  0  0  0  0
    3.1420    0.0715    0.9434 C   0  0  0  0  0  0  0  0  0  0  0  0
    1.9984    0.9697    0.8159 N   0  0  0  0  0  0  0  0  0  0  0  0
    0.7265    0.5501    1.1018 C   0  0  0  0  0  0  0  0  0  0  0  0
    0.4517   -0.5473    1.5672 O   0  0  0  0  0  0  0  0  0  0  0  0
   -0.2061    1.5188    0.8341 N   0  0  0  0  0  0  0  0  0  0  0  0
   -1.6163    1.2175    1.0056 C   0  0  0  0  0  0  0  0  0  0  0  0
   -2.4952    2.4541    0.8757 C   0  0  0  0  0  0  0  0  0  0  0  0
   -3.8668    1.8452    0.6209 C   0  0  0  0  0  0  0  0  0  0  0  0
   -3.5827    0.7192   -0.2852 N   0  0  0  0  0  0  0  0  0  0  0  0
   -4.5792   -0.2615   -0.3025 C   0  0  0  0  0  0  0  0  0  0  0  0
   -4.7423   -1.1701    0.7585 C   0  0  0  0  0  0  0  0  0  0  0  0
   -5.7506   -2.1351    0.7405 C   0  0  0  0  0  0  0  0  0  0  0  0
   -6.6203   -2.2081   -0.3401 C   0  0  0  0  0  0  0  0  0  0  0  0
   -6.4791   -1.3150   -1.4005 C   0  0  0  0  0  0  0  0  0  0  0  0
   -5.4640   -0.3365   -1.3946 C   0  0  0  0  0  0  0  0  0  0  0  0
   -5.3338    0.6105   -2.5627 C   0  0  0  0  0  0  0  0  0  0  0  0
   -4.1320    0.5348   -3.2045 F   0  0  0  0  0  0  0  0  0  0  0  0
   -6.2655    0.3769   -3.5393 F   0  0  0  0  0  0  0  0  0  0  0  0
   -5.5084    1.9219   -2.2253 F   0  0  0  0  0  0  0  0  0  0  0  0
   -2.1945    0.2582   -0.0571 C   0  0  0  0  0  0  0  0  0  0  0  0
    3.1918   -0.9004   -0.2441 C   0  0  0  0  0  0  0  0  0  0  0  0
    4.5958   -1.4455   -0.4629 C   0  0  0  0  0  0  0  0  0  0  0  0
    8.1268   -1.9589   -2.2005 H   0  0  0  0  0  0  0  0  0  0  0  0
    6.4455   -2.2090   -2.7162 H   0  0  0  0  0  0  0  0  0  0  0  0
    6.9714   -2.6473   -1.0552 H   0  0  0  0  0  0  0  0  0  0  0  0
    6.1632    1.5201   -0.0001 H   0  0  0  0  0  0  0  0  0  0  0  0
    4.6719    1.4818   -0.9451 H   0  0  0  0  0  0  0  0  0  0  0  0
    4.2504    1.8680    1.5149 H   0  0  0  0  0  0  0  0  0  0  0  0
    5.0638    0.3490    1.8680 H   0  0  0  0  0  0  0  0  0  0  0  0
    2.9837   -0.5111    1.8607 H   0  0  0  0  0  0  0  0  0  0  0  0
    2.1019    1.8018    0.2561 H   0  0  0  0  0  0  0  0  0  0  0  0
    0.0358    2.1843    0.1159 H   0  0  0  0  0  0  0  0  0  0  0  0
   -1.7556    0.7718    1.9998 H   0  0  0  0  0  0  0  0  0  0  0  0
   -2.1866    3.0684    0.0203 H   0  0  0  0  0  0  0  0  0  0  0  0
   -2.4747    3.0843    1.7697 H   0  0  0  0  0  0  0  0  0  0  0  0
   -4.3050    1.5101    1.5697 H   0  0  0  0  0  0  0  0  0  0  0  0
   -4.5445    2.5687    0.1565 H   0  0  0  0  0  0  0  0  0  0  0  0
   -4.0801   -1.1292    1.6204 H   0  0  0  0  0  0  0  0  0  0  0  0
   -5.8540   -2.8271    1.5723 H   0  0  0  0  0  0  0  0  0  0  0  0
   -7.4067   -2.9583   -0.3589 H   0  0  0  0  0  0  0  0  0  0  0  0
   -7.1673   -1.3841   -2.2420 H   0  0  0  0  0  0  0  0  0  0  0  0
   -2.1109   -0.7840    0.2715 H   0  0  0  0  0  0  0  0  0  0  0  0
   -1.6482    0.3474   -1.0039 H   0  0  0  0  0  0  0  0  0  0  0  0
    2.8618   -0.3913   -1.1600 H   0  0  0  0  0  0  0  0  0  0  0  0
    2.4889   -1.7261   -0.0816 H   0  0  0  0  0  0  0  0  0  0  0  0
    4.5901   -2.1362   -1.3113 H   0  0  0  0  0  0  0  0  0  0  0  0
    4.9351   -2.0022    0.4184 H   0  0  0  0  0  0  0  0  0  0  0  0
  1  2  1  0
  2  3  2  0
  2  4  1  0
  4  5  1  0
  5  6  1  0
  6  7  1  0
  7  8  1  0
  8  9  1  0
  9 10  2  0
  9 11  1  0
 11 12  1  0
 12 13  1  0
 13 14  1  0
 14 15  1  0
 15 16  1  0
 16 17  2  0
 17 18  1  0
 18 19  2  0
 19 20  1  0
 20 21  2  0
 21 22  1  0
 22 23  1  0
 22 24  1  0
 22 25  1  0
 15 26  1  0
  7 27  1  0
 27 28  1  0
 28  4  1  0
 26 12  1  0
 21 16  1  0
  1 29  1  0
  1 30  1  0
  1 31  1  0
  5 32  1  0
  5 33  1  0
  6 34  1  0
  6 35  1  0
  7 36  1  0
  8 37  1  0
 11 38  1  0
 12 39  1  0
 13 40  1  0
 13 41  1  0
 14 42  1  0
 14 43  1  0
 17 44  1  0
 18 45  1  0
 19 46  1  0
 20 47  1  0
 26 48  1  0
 26 49  1  0
 27 50  1  0
 27 51  1  0
 28 52  1  0
 28 53  1  0
M  END
$$$$
OCNT-2309243
     RDKit          3D

 43 45  0  0  0  0  0  0  0  0999 V2000
    4.0331    2.7526    1.2676 C   0  0  0  0  0  0  0  0  0  0  0  0
    3.8388    1.7880    0.2133 N   0  0  0  0  0  0  0  0  0  0  0  0
    2.6488    1.0971    0.0912 C   0  0  0  0  0  0  0  0  0  0  0  0
    1.6756    1.3331    0.7986 O   0  0  0  0  0  0  0  0  0  0  0  0
    2.6525    0.0563   -1.0281 C   0  0  0  0  0  0  0  0  0  0  0  0
    3.7557   -0.9911   -0.8011 C   0  0  0  0  0  0  0  0  0  0  0  0
    3.3740   -2.3423   -1.3861 C   0  0  0  0  0  0  0  0  0  0  0  0
    2.1038   -2.8692   -0.7305 C   0  0  0  0  0  0  0  0  0  0  0  0
    1.0823   -1.8461   -0.5284 N   0  0  0  0  0  0  0  0  0  0  0  0
   -0.1360   -2.3007   -0.0133 C   0  0  0  0  0  0  0  0  0  0  0  0
   -0.3444   -3.4758    0.2854 O   0  0  0  0  0  0  0  0  0  0  0  0
   -1.2477   -1.3492    0.1807 C   0  0  0  0  0  0  0  0  0  0  0  0
   -2.4499   -1.5657   -0.4932 C   0  0  0  0  0  0  0  0  0  0  0  0
   -3.5263   -0.6933   -0.2988 C   0  0  0  0  0  0  0  0  0  0  0  0
   -3.4107    0.3941    0.5841 C   0  0  0  0  0  0  0  0  0  0  0  0
   -4.5058    1.2870    0.7787 N   0  0  0  0  0  0  0  0  0  0  0  0
   -5.7468    1.2373    0.1766 C   0  0  0  0  0  0  0  0  0  0  0  0
   -6.4594    2.3029    0.6730 C   0  0  0  0  0  0  0  0  0  0  0  0
   -5.7092    3.0155    1.5610 N   0  0  0  0  0  0  0  0  0  0  0  0
   -4.5522    2.3911    1.6058 C   0  0  0  0  0  0  0  0  0  0  0  0
   -2.2031    0.5847    1.2758 C   0  0  0  0  0  0  0  0  0  0  0  0
   -1.1300   -0.2918    1.0823 C   0  0  0  0  0  0  0  0  0  0  0  0
    1.2606   -0.5710   -1.2339 C   0  0  0  0  0  0  0  0  0  0  0  0
    4.8778    3.3924    1.0012 H   0  0  0  0  0  0  0  0  0  0  0  0
    4.2529    2.2159    2.1945 H   0  0  0  0  0  0  0  0  0  0  0  0
    3.1333    3.3591    1.4019 H   0  0  0  0  0  0  0  0  0  0  0  0
    4.6551    1.4614   -0.2857 H   0  0  0  0  0  0  0  0  0  0  0  0
    2.8810    0.6169   -1.9460 H   0  0  0  0  0  0  0  0  0  0  0  0
    4.6904   -0.6469   -1.2606 H   0  0  0  0  0  0  0  0  0  0  0  0
    3.9638   -1.1088    0.2702 H   0  0  0  0  0  0  0  0  0  0  0  0
    3.2184   -2.2388   -2.4674 H   0  0  0  0  0  0  0  0  0  0  0  0
    4.1876   -3.0636   -1.2518 H   0  0  0  0  0  0  0  0  0  0  0  0
    1.6816   -3.6760   -1.3420 H   0  0  0  0  0  0  0  0  0  0  0  0
    2.3356   -3.2964    0.2532 H   0  0  0  0  0  0  0  0  0  0  0  0
   -2.5515   -2.4164   -1.1637 H   0  0  0  0  0  0  0  0  0  0  0  0
   -4.4398   -0.9006   -0.8478 H   0  0  0  0  0  0  0  0  0  0  0  0
   -6.0315    0.4799   -0.5368 H   0  0  0  0  0  0  0  0  0  0  0  0
   -7.4754    2.5905    0.4337 H   0  0  0  0  0  0  0  0  0  0  0  0
   -3.7226    2.7059    2.2224 H   0  0  0  0  0  0  0  0  0  0  0  0
   -2.0513    1.3990    1.9781 H   0  0  0  0  0  0  0  0  0  0  0  0
   -0.2055   -0.1439    1.6360 H   0  0  0  0  0  0  0  0  0  0  0  0
    1.1342   -0.8106   -2.2988 H   0  0  0  0  0  0  0  0  0  0  0  0
    0.4622    0.1378   -1.0054 H   0  0  0  0  0  0  0  0  0  0  0  0
  1  2  1  0
  2  3  1  0
  3  4  2  0
  3  5  1  0
  5  6  1  0
  6  7  1  0
  7  8  1  0
  8  9  1  0
  9 10  1  0
 10 11  2  0
 10 12  1  0
 12 13  1  0
 13 14  2  0
 14 15  1  0
 15 16  1  0
 16 17  1  0
 17 18  2  0
 18 19  1  0
 19 20  2  0
 15 21  2  0
 21 22  1  0
  9 23  1  0
 23  5  1  0
 22 12  2  0
 20 16  1  0
  1 24  1  0
  1 25  1  0
  1 26  1  0
  2 27  1  0
  5 28  1  0
  6 29  1  0
  6 30  1  0
  7 31  1  0
  7 32  1  0
  8 33  1  0
  8 34  1  0
 13 35  1  0
 14 36  1  0
 17 37  1  0
 18 38  1  0
 20 39  1  0
 21 40  1  0
 22 41  1  0
 23 42  1  0
 23 43  1  0
M  END
$$$$
OCNT-2309246
     RDKit          3D

 42 46  0  0  0  0  0  0  0  0999 V2000
    1.5585    0.4041    2.0033 O   0  0  0  0  0  0  0  0  0  0  0  0
    1.3698   -0.1603    0.9271 C   0  0  0  0  0  0  0  0  0  0  0  0
    2.4976   -0.5732    0.1211 C   0  0  0  0  0  0  0  0  0  0  0  0
    2.6850   -1.7306   -0.6147 C   0  0  0  0  0  0  0  0  0  0  0  0
    3.9016   -1.7502   -1.2394 N   0  0  0  0  0  0  0  0  0  0  0  0
    4.4986   -0.6423   -0.8586 C   0  0  0  0  0  0  0  0  0  0  0  0
    5.7882   -0.1255   -1.1719 C   0  0  0  0  0  0  0  0  0  0  0  0
    6.1844    1.0510   -0.6502 C   0  0  0  0  0  0  0  0  0  0  0  0
    5.3217    1.8162    0.2341 C   0  0  0  0  0  0  0  0  0  0  0  0
    4.1030    1.3354    0.5331 C   0  0  0  0  0  0  0  0  0  0  0  0
    3.6921    0.1130   -0.0069 N   0  0  0  0  0  0  0  0  0  0  0  0
    0.0871   -0.4152    0.4152 N   0  0  0  0  0  0  0  0  0  0  0  0
   -0.1657   -0.5036   -1.0275 C   0  0  0  0  0  0  0  0  0  0  0  0
   -1.4195    0.2573   -1.4319 C   0  0  0  0  0  0  0  0  0  0  0  0
   -2.5850   -0.2560   -0.7220 N   0  0  0  0  0  0  0  0  0  0  0  0
   -3.9207   -0.0202   -1.2950 C   0  0  0  0  0  0  0  0  0  0  0  0
   -4.2103    1.0235   -2.3435 C   0  0  0  0  0  0  0  0  0  0  0  0
   -4.7141    1.2136   -0.9473 C   0  0  0  0  0  0  0  0  0  0  0  0
   -2.3872   -0.4998    0.6656 C   0  0  0  0  0  0  0  0  0  0  0  0
   -3.4974   -0.7291    1.5040 C   0  0  0  0  0  0  0  0  0  0  0  0
   -3.3531   -0.9476    2.8740 C   0  0  0  0  0  0  0  0  0  0  0  0
   -2.0876   -0.9581    3.4380 C   0  0  0  0  0  0  0  0  0  0  0  0
   -0.9656   -0.7625    2.6314 C   0  0  0  0  0  0  0  0  0  0  0  0
   -1.0858   -0.5349    1.2479 C   0  0  0  0  0  0  0  0  0  0  0  0
    1.9956   -2.5590   -0.7243 H   0  0  0  0  0  0  0  0  0  0  0  0
    6.4296   -0.7010   -1.8294 H   0  0  0  0  0  0  0  0  0  0  0  0
    7.1661    1.4557   -0.8777 H   0  0  0  0  0  0  0  0  0  0  0  0
    5.6801    2.7577    0.6367 H   0  0  0  0  0  0  0  0  0  0  0  0
    3.4160    1.8578    1.1876 H   0  0  0  0  0  0  0  0  0  0  0  0
    0.6753   -0.0880   -1.5914 H   0  0  0  0  0  0  0  0  0  0  0  0
   -0.2590   -1.5666   -1.2819 H   0  0  0  0  0  0  0  0  0  0  0  0
   -1.5558    0.1429   -2.5136 H   0  0  0  0  0  0  0  0  0  0  0  0
   -1.3008    1.3280   -1.2216 H   0  0  0  0  0  0  0  0  0  0  0  0
   -4.4759   -0.9514   -1.3927 H   0  0  0  0  0  0  0  0  0  0  0  0
   -3.4266    1.6903   -2.6787 H   0  0  0  0  0  0  0  0  0  0  0  0
   -4.9316    0.7739   -3.1134 H   0  0  0  0  0  0  0  0  0  0  0  0
   -5.7753    1.0951   -0.7650 H   0  0  0  0  0  0  0  0  0  0  0  0
   -4.2382    1.9689   -0.3327 H   0  0  0  0  0  0  0  0  0  0  0  0
   -4.5044   -0.7367    1.0978 H   0  0  0  0  0  0  0  0  0  0  0  0
   -4.2301   -1.1120    3.4940 H   0  0  0  0  0  0  0  0  0  0  0  0
   -1.9641   -1.1340    4.5034 H   0  0  0  0  0  0  0  0  0  0  0  0
    0.0037   -0.8264    3.1169 H   0  0  0  0  0  0  0  0  0  0  0  0
  1  2  2  0
  2  3  1  0
  3  4  2  0
  4  5  1  0
  5  6  2  0
  6  7  1  0
  7  8  2  0
  8  9  1  0
  9 10  2  0
 10 11  1  0
  2 12  1  0
 12 13  1  0
 13 14  1  0
 14 15  1  0
 15 16  1  0
 16 17  1  0
 17 18  1  0
 15 19  1  0
 19 20  2  0
 20 21  1  0
 21 22  2  0
 22 23  1  0
 23 24  2  0
 11  3  1  0
 24 12  1  0
 11  6  1  0
 18 16  1  0
 24 19  1  0
  4 25  1  0
  7 26  1  0
  8 27  1  0
  9 28  1  0
 10 29  1  0
 13 30  1  0
 13 31  1  0
 14 32  1  0
 14 33  1  0
 16 34  1  0
 17 35  1  0
 17 36  1  0
 18 37  1  0
 18 38  1  0
 20 39  1  0
 21 40  1  0
 22 41  1  0
 23 42  1  0
M  END
$$$$
OCNT-2309265
     RDKit          3D

 48 51  0  0  0  0  0  0  0  0999 V2000
    4.9064   -1.2907    0.7294 C   0  0  0  0  0  0  0  0  0  0  0  0
    5.1666    0.1842    0.6597 C   0  0  0  0  0  0  0  0  0  0  0  0
    6.4668    0.6627    0.8222 C   0  0  0  0  0  0  0  0  0  0  0  0
    6.8152    1.9678    0.7875 N   0  0  0  0  0  0  0  0  0  0  0  0
    5.8191    2.8505    0.5833 C   0  0  0  0  0  0  0  0  0  0  0  0
    4.4927    2.4877    0.4159 C   0  0  0  0  0  0  0  0  0  0  0  0
    4.1463    1.1303    0.4603 C   0  0  0  0  0  0  0  0  0  0  0  0
    2.6973    0.7389    0.2638 C   0  0  0  0  0  0  0  0  0  0  0  0
    2.3550    0.5533   -1.2270 C   0  0  0  0  0  0  0  0  0  0  0  0
    1.0019    0.0770   -1.5348 N   0  0  0  0  0  0  0  0  0  0  0  0
    0.7154   -1.2904   -1.0578 C   0  0  0  0  0  0  0  0  0  0  0  0
   -0.4510   -1.4018   -0.0482 C   0  0  0  0  0  0  0  0  0  0  0  0
   -1.6723   -0.7999   -0.6050 N   0  0  0  0  0  0  0  0  0  0  0  0
   -2.8133   -0.9026    0.1876 C   0  0  0  0  0  0  0  0  0  0  0  0
   -2.7039   -1.3768    1.4605 N   0  0  0  0  0  0  0  0  0  0  0  0
   -3.8053   -1.4761    2.2313 C   0  0  0  0  0  0  0  0  0  0  0  0
   -5.0709   -1.1683    1.9108 N   0  0  0  0  0  0  0  0  0  0  0  0
   -5.1562   -0.7363    0.6414 C   0  0  0  0  0  0  0  0  0  0  0  0
   -4.1116   -0.5855   -0.2552 C   0  0  0  0  0  0  0  0  0  0  0  0
   -4.7407   -0.1474   -1.4417 C   0  0  0  0  0  0  0  0  0  0  0  0
   -6.0626    0.0112   -1.3103 N   0  0  0  0  0  0  0  0  0  0  0  0
   -6.2891   -0.3631   -0.0302 N   0  0  0  0  0  0  0  0  0  0  0  0
   -7.6349   -0.3437    0.4851 C   0  0  0  0  0  0  0  0  0  0  0  0
   -1.4857    0.4485   -1.3675 C   0  0  0  0  0  0  0  0  0  0  0  0
   -0.0624    1.0303   -1.1852 C   0  0  0  0  0  0  0  0  0  0  0  0
    5.8405   -1.8622    0.7611 H   0  0  0  0  0  0  0  0  0  0  0  0
    4.3377   -1.5319    1.6325 H   0  0  0  0  0  0  0  0  0  0  0  0
    4.3527   -1.6283   -0.1517 H   0  0  0  0  0  0  0  0  0  0  0  0
    7.2996   -0.0159    0.9909 H   0  0  0  0  0  0  0  0  0  0  0  0
    6.1218    3.8932    0.5565 H   0  0  0  0  0  0  0  0  0  0  0  0
    3.7435    3.2562    0.2545 H   0  0  0  0  0  0  0  0  0  0  0  0
    2.0658    1.5183    0.7070 H   0  0  0  0  0  0  0  0  0  0  0  0
    2.4798   -0.1689    0.8365 H   0  0  0  0  0  0  0  0  0  0  0  0
    3.0716   -0.1409   -1.6849 H   0  0  0  0  0  0  0  0  0  0  0  0
    2.5154    1.5036   -1.7533 H   0  0  0  0  0  0  0  0  0  0  0  0
    1.6050   -1.7703   -0.6326 H   0  0  0  0  0  0  0  0  0  0  0  0
    0.4542   -1.8832   -1.9441 H   0  0  0  0  0  0  0  0  0  0  0  0
   -0.6192   -2.4648    0.1655 H   0  0  0  0  0  0  0  0  0  0  0  0
   -0.1654   -0.9064    0.8893 H   0  0  0  0  0  0  0  0  0  0  0  0
   -3.6454   -1.8515    3.2376 H   0  0  0  0  0  0  0  0  0  0  0  0
   -4.2856    0.0634   -2.4002 H   0  0  0  0  0  0  0  0  0  0  0  0
   -8.2601   -0.9683   -0.1586 H   0  0  0  0  0  0  0  0  0  0  0  0
   -7.9900    0.6900    0.4762 H   0  0  0  0  0  0  0  0  0  0  0  0
   -7.6518   -0.7337    1.5053 H   0  0  0  0  0  0  0  0  0  0  0  0
   -2.1984    1.2257   -1.0653 H   0  0  0  0  0  0  0  0  0  0  0  0
   -1.6592    0.2350   -2.4291 H   0  0  0  0  0  0  0  0  0  0  0  0
    0.0324    1.9233   -1.8142 H   0  0  0  0  0  0  0  0  0  0  0  0
    0.0321    1.3577   -0.1429 H   0  0  0  0  0  0  0  0  0  0  0  0
  1  2  1  0
  2  3  2  0
  3  4  1  0
  4  5  2  0
  5  6  1  0
  6  7  2  0
  7  8  1  0
  8  9  1  0
  9 10  1  0
 10 11  1  0
 11 12  1  0
 12 13  1  0
 13 14  1  0
 14 15  1  0
 15 16  2  0
 16 17  1  0
 17 18  2  0
 18 19  1  0
 19 20  1  0
 20 21  2  0
 21 22  1  0
 22 23  1  0
 13 24  1  0
 24 25  1  0
  7  2  1  0
 25 10  1  0
 19 14  2  0
 22 18  1  0
  1 26  1  0
  1 27  1  0
  1 28  1  0
  3 29  1  0
  5 30  1  0
  6 31  1  0
  8 32  1  0
  8 33  1  0
  9 34  1  0
  9 35  1  0
 11 36  1  0
 11 37  1  0
 12 38  1  0
 12 39  1  0
 16 40  1  0
 20 41  1  0
 23 42  1  0
 23 43  1  0
 23 44  1  0
 24 45  1  0
 24 46  1  0
 25 47  1  0
 25 48  1  0
M  END
$$$$
OCNT-2309277
     RDKit          3D

 33 35  0  0  0  0  0  0  0  0999 V2000
   -0.5554   -0.9057   -2.3288 O   0  0  0  0  0  0  0  0  0  0  0  0
   -0.0704   -1.0146   -1.2025 C   0  0  0  0  0  0  0  0  0  0  0  0
   -0.8108   -1.5651   -0.1775 N   0  0  0  0  0  0  0  0  0  0  0  0
   -2.2085   -1.8959   -0.3267 C   0  0  0  0  0  0  0  0  0  0  0  0
   -3.0760   -0.7685    0.1691 C   0  0  0  0  0  0  0  0  0  0  0  0
   -3.5724   -0.7685    1.4814 C   0  0  0  0  0  0  0  0  0  0  0  0
   -4.3537    0.2935    1.9420 C   0  0  0  0  0  0  0  0  0  0  0  0
   -4.6384    1.3669    1.0996 C   0  0  0  0  0  0  0  0  0  0  0  0
   -4.1390    1.3745   -0.1967 C   0  0  0  0  0  0  0  0  0  0  0  0
   -4.4321    2.4469   -0.9862 O   0  0  0  0  0  0  0  0  0  0  0  0
   -3.3616    0.3208   -0.6686 C   0  0  0  0  0  0  0  0  0  0  0  0
    1.2820   -0.5828   -0.8593 C   0  0  0  0  0  0  0  0  0  0  0  0
    1.9778   -0.5635    0.3368 C   0  0  0  0  0  0  0  0  0  0  0  0
    1.3778   -1.0834    1.8682 Cl  0  0  0  0  0  0  0  0  0  0  0  0
    3.3201   -0.0444    0.2150 C   0  0  0  0  0  0  0  0  0  0  0  0
    4.3469    0.1418    1.1798 C   0  0  0  0  0  0  0  0  0  0  0  0
    5.5877    0.6724    0.8139 C   0  0  0  0  0  0  0  0  0  0  0  0
    5.8337    1.0264   -0.5035 C   0  0  0  0  0  0  0  0  0  0  0  0
    4.8476    0.8576   -1.4766 C   0  0  0  0  0  0  0  0  0  0  0  0
    3.5988    0.3223   -1.1018 C   0  0  0  0  0  0  0  0  0  0  0  0
    2.2579    0.0357   -2.1301 S   0  0  0  0  0  0  0  0  0  0  0  0
   -0.4437   -1.5264    0.7633 H   0  0  0  0  0  0  0  0  0  0  0  0
   -2.4463   -2.1304   -1.3702 H   0  0  0  0  0  0  0  0  0  0  0  0
   -2.3923   -2.8042    0.2578 H   0  0  0  0  0  0  0  0  0  0  0  0
   -3.3551   -1.5955    2.1538 H   0  0  0  0  0  0  0  0  0  0  0  0
   -4.7394    0.2867    2.9581 H   0  0  0  0  0  0  0  0  0  0  0  0
   -5.2441    2.1964    1.4529 H   0  0  0  0  0  0  0  0  0  0  0  0
   -4.0023    2.3186   -1.8484 H   0  0  0  0  0  0  0  0  0  0  0  0
   -2.9664    0.3339   -1.6818 H   0  0  0  0  0  0  0  0  0  0  0  0
    4.1747   -0.1287    2.2195 H   0  0  0  0  0  0  0  0  0  0  0  0
    6.3604    0.8074    1.5671 H   0  0  0  0  0  0  0  0  0  0  0  0
    6.8002    1.4392   -0.7835 H   0  0  0  0  0  0  0  0  0  0  0  0
    5.0424    1.1366   -2.5088 H   0  0  0  0  0  0  0  0  0  0  0  0
  1  2  2  0
  2  3  1  0
  3  4  1  0
  4  5  1  0
  5  6  2  0
  6  7  1  0
  7  8  2  0
  8  9  1  0
  9 10  1  0
  9 11  2  0
  2 12  1  0
 12 13  2  0
 13 14  1  0
 13 15  1  0
 15 16  2  0
 16 17  1  0
 17 18  2  0
 18 19  1  0
 19 20  2  0
 20 21  1  0
 11  5  1  0
 21 12  1  0
 20 15  1  0
  3 22  1  0
  4 23  1  0
  4 24  1  0
  6 25  1  0
  7 26  1  0
  8 27  1  0
 10 28  1  0
 11 29  1  0
 16 30  1  0
 17 31  1  0
 18 32  1  0
 19 33  1  0
M  END
$$$$
OCNT-2309286
     RDKit          3D

 46 48  0  0  0  0  0  0  0  0999 V2000
   -2.8142    3.4030    0.1967 C   0  0  0  0  0  0  0  0  0  0  0  0
   -2.5656    2.0143    0.3888 O   0  0  0  0  0  0  0  0  0  0  0  0
   -3.6570    1.1774    0.3266 C   0  0  0  0  0  0  0  0  0  0  0  0
   -4.9875    1.6015    0.3833 C   0  0  0  0  0  0  0  0  0  0  0  0
   -6.0251    0.6667    0.3161 C   0  0  0  0  0  0  0  0  0  0  0  0
   -5.7471   -0.6998    0.2063 C   0  0  0  0  0  0  0  0  0  0  0  0
   -6.8632   -1.6982    0.0926 C   0  0  0  0  0  0  0  0  0  0  0  0
   -4.4113   -1.1240    0.1443 C   0  0  0  0  0  0  0  0  0  0  0  0
   -3.3652   -0.1984    0.2120 C   0  0  0  0  0  0  0  0  0  0  0  0
   -2.0048   -0.5602    0.1542 N   0  0  0  0  0  0  0  0  0  0  0  0
   -1.4357   -1.8157    0.0587 C   0  0  0  0  0  0  0  0  0  0  0  0
   -2.0252   -2.8912    0.0155 O   0  0  0  0  0  0  0  0  0  0  0  0
    0.0971   -1.7373   -0.0347 C   0  0  0  0  0  0  0  0  0  0  0  0
    0.6005   -0.5958    0.7622 N   0  0  0  0  0  0  0  0  0  0  0  0
    1.9783   -0.3374    0.7647 C   0  0  0  0  0  0  0  0  0  0  0  0
    2.5283    0.3336    1.8624 C   0  0  0  0  0  0  0  0  0  0  0  0
    3.8803    0.6762    1.8978 C   0  0  0  0  0  0  0  0  0  0  0  0
    4.7106    0.3866    0.8134 C   0  0  0  0  0  0  0  0  0  0  0  0
    4.1831   -0.2262   -0.3252 C   0  0  0  0  0  0  0  0  0  0  0  0
    4.9658   -0.5142   -1.4828 N   0  0  0  0  0  0  0  0  0  0  0  0
    4.4151   -1.1908   -2.5266 N   0  0  0  0  0  0  0  0  0  0  0  0
    5.3677   -1.3477   -3.4257 N   0  0  0  0  0  0  0  0  0  0  0  0
    6.5282   -0.7707   -3.0115 N   0  0  0  0  0  0  0  0  0  0  0  0
    6.2879   -0.2436   -1.8266 C   0  0  0  0  0  0  0  0  0  0  0  0
    7.2875    0.5149   -1.0500 C   0  0  0  0  0  0  0  0  0  0  0  0
    2.8128   -0.5738   -0.3354 C   0  0  0  0  0  0  0  0  0  0  0  0
   -3.3355    3.5853   -0.7500 H   0  0  0  0  0  0  0  0  0  0  0  0
   -3.3663    3.8258    1.0428 H   0  0  0  0  0  0  0  0  0  0  0  0
   -1.8464    3.9110    0.1463 H   0  0  0  0  0  0  0  0  0  0  0  0
   -5.2517    2.6490    0.4834 H   0  0  0  0  0  0  0  0  0  0  0  0
   -7.0564    1.0134    0.3509 H   0  0  0  0  0  0  0  0  0  0  0  0
   -7.7544   -1.3497    0.6245 H   0  0  0  0  0  0  0  0  0  0  0  0
   -6.5772   -2.6587    0.5353 H   0  0  0  0  0  0  0  0  0  0  0  0
   -7.1186   -1.8544   -0.9600 H   0  0  0  0  0  0  0  0  0  0  0  0
   -4.2101   -2.1862    0.0393 H   0  0  0  0  0  0  0  0  0  0  0  0
   -1.3453    0.2184    0.2118 H   0  0  0  0  0  0  0  0  0  0  0  0
    0.3374   -1.6341   -1.0947 H   0  0  0  0  0  0  0  0  0  0  0  0
    0.5137   -2.6693    0.3598 H   0  0  0  0  0  0  0  0  0  0  0  0
    0.2497   -0.6607    1.7199 H   0  0  0  0  0  0  0  0  0  0  0  0
    1.9031    0.5954    2.7118 H   0  0  0  0  0  0  0  0  0  0  0  0
    4.2835    1.1806    2.7729 H   0  0  0  0  0  0  0  0  0  0  0  0
    5.7497    0.6657    0.9157 H   0  0  0  0  0  0  0  0  0  0  0  0
    8.1913    0.6727   -1.6507 H   0  0  0  0  0  0  0  0  0  0  0  0
    6.9159    1.5038   -0.7718 H   0  0  0  0  0  0  0  0  0  0  0  0
    7.5898   -0.0385   -0.1567 H   0  0  0  0  0  0  0  0  0  0  0  0
    2.3866   -1.0188   -1.2321 H   0  0  0  0  0  0  0  0  0  0  0  0
  1  2  1  0
  2  3  1  0
  3  4  1  0
  4  5  2  0
  5  6  1  0
  6  7  1  0
  6  8  2  0
  8  9  1  0
  9 10  1  0
 10 11  1  0
 11 12  2  0
 11 13  1  0
 13 14  1  0
 14 15  1  0
 15 16  1  0
 16 17  2  0
 17 18  1  0
 18 19  2  0
 19 20  1  0
 20 21  1  0
 21 22  2  0
 22 23  1  0
 23 24  2  0
 24 25  1  0
 19 26  1  0
  9  3  2  0
 26 15  2  0
 24 20  1  0
  1 27  1  0
  1 28  1  0
  1 29  1  0
  4 30  1  0
  5 31  1  0
  7 32  1  0
  7 33  1  0
  7 34  1  0
  8 35  1  0
 10 36  1  0
 13 37  1  0
 13 38  1  0
 14 39  1  0
 16 40  1  0
 17 41  1  0
 18 42  1  0
 25 43  1  0
 25 44  1  0
 25 45  1  0
 26 46  1  0
M  END
$$$$
OCNT-2309292
     RDKit          3D

 51 54  0  0  0  0  0  0  0  0999 V2000
   -4.5754    2.4795   -0.6074 C   0  0  0  0  0  0  0  0  0  0  0  0
   -3.4653    1.5510   -0.0418 C   0  0  0  0  0  0  0  0  0  0  0  0
   -3.2870    1.9552    1.4388 C   0  0  0  0  0  0  0  0  0  0  0  0
   -2.1391    1.8519   -0.8129 C   0  0  0  0  0  0  0  0  0  0  0  0
   -2.1508    2.6372   -1.7704 O   0  0  0  0  0  0  0  0  0  0  0  0
   -0.9432    1.2469   -0.4451 N   0  0  0  0  0  0  0  0  0  0  0  0
    0.2656    1.6155   -1.1957 C   0  0  0  0  0  0  0  0  0  0  0  0
    1.5716    1.3360   -0.4333 C   0  0  0  0  0  0  0  0  0  0  0  0
    1.6632   -0.0692    0.0069 N   0  0  0  0  0  0  0  0  0  0  0  0
    2.8644   -0.5721    0.4231 C   0  0  0  0  0  0  0  0  0  0  0  0
    4.1113    0.0051    0.5490 C   0  0  0  0  0  0  0  0  0  0  0  0
    4.9426   -1.0103    1.0479 C   0  0  0  0  0  0  0  0  0  0  0  0
    6.4409   -0.8023    1.3885 C   0  0  0  0  0  0  0  0  0  0  0  0
    7.4629   -0.9134    0.2849 C   0  0  0  0  0  0  0  0  0  0  0  0
    7.3940   -1.9689    1.3495 C   0  0  0  0  0  0  0  0  0  0  0  0
    4.2981   -2.1624    1.2213 N   0  0  0  0  0  0  0  0  0  0  0  0
    3.0515   -1.8790    0.8061 N   0  0  0  0  0  0  0  0  0  0  0  0
    0.3900   -0.7769    0.2224 C   0  0  0  0  0  0  0  0  0  0  0  0
   -0.7544    0.1984    0.5649 C   0  0  0  0  0  0  0  0  0  0  0  0
   -3.9599    0.1102   -0.2734 C   0  0  0  0  0  0  0  0  0  0  0  0
   -3.8562   -0.4716   -1.5543 C   0  0  0  0  0  0  0  0  0  0  0  0
   -4.3036   -1.7732   -1.7942 C   0  0  0  0  0  0  0  0  0  0  0  0
   -4.8734   -2.5019   -0.7612 C   0  0  0  0  0  0  0  0  0  0  0  0
   -5.3056   -3.7502   -0.9898 F   0  0  0  0  0  0  0  0  0  0  0  0
   -5.0184   -1.9482    0.5037 C   0  0  0  0  0  0  0  0  0  0  0  0
   -4.5699   -0.6467    0.7474 C   0  0  0  0  0  0  0  0  0  0  0  0
   -5.5354    2.3103   -0.1040 H   0  0  0  0  0  0  0  0  0  0  0  0
   -4.7390    2.3192   -1.6811 H   0  0  0  0  0  0  0  0  0  0  0  0
   -4.3122    3.5364   -0.4749 H   0  0  0  0  0  0  0  0  0  0  0  0
   -2.7734    2.9204    1.5231 H   0  0  0  0  0  0  0  0  0  0  0  0
   -2.7080    1.2269    2.0127 H   0  0  0  0  0  0  0  0  0  0  0  0
   -4.2534    2.0576    1.9483 H   0  0  0  0  0  0  0  0  0  0  0  0
    0.2250    2.6763   -1.4675 H   0  0  0  0  0  0  0  0  0  0  0  0
    0.2457    1.0347   -2.1263 H   0  0  0  0  0  0  0  0  0  0  0  0
    2.4109    1.5881   -1.0922 H   0  0  0  0  0  0  0  0  0  0  0  0
    1.6253    1.9868    0.4480 H   0  0  0  0  0  0  0  0  0  0  0  0
    4.3843    1.0246    0.3311 H   0  0  0  0  0  0  0  0  0  0  0  0
    6.6164   -0.0565    2.1589 H   0  0  0  0  0  0  0  0  0  0  0  0
    7.1247   -1.1802   -0.7107 H   0  0  0  0  0  0  0  0  0  0  0  0
    8.2979   -0.2254    0.3009 H   0  0  0  0  0  0  0  0  0  0  0  0
    7.0038   -2.9432    1.0763 H   0  0  0  0  0  0  0  0  0  0  0  0
    8.1816   -1.9958    2.0919 H   0  0  0  0  0  0  0  0  0  0  0  0
    2.3695   -2.6244    0.8072 H   0  0  0  0  0  0  0  0  0  0  0  0
    0.4656   -1.4998    1.0434 H   0  0  0  0  0  0  0  0  0  0  0  0
    0.1417   -1.3332   -0.6899 H   0  0  0  0  0  0  0  0  0  0  0  0
   -0.5187    0.7121    1.5043 H   0  0  0  0  0  0  0  0  0  0  0  0
   -1.6674   -0.3736    0.7155 H   0  0  0  0  0  0  0  0  0  0  0  0
   -3.4319    0.0894   -2.3854 H   0  0  0  0  0  0  0  0  0  0  0  0
   -4.2117   -2.2190   -2.7805 H   0  0  0  0  0  0  0  0  0  0  0  0
   -5.4909   -2.5290    1.2900 H   0  0  0  0  0  0  0  0  0  0  0  0
   -4.7044   -0.2432    1.7460 H   0  0  0  0  0  0  0  0  0  0  0  0
  1  2  1  0
  2  3  1  0
  2  4  1  0
  4  5  2  0
  4  6  1  0
  6  7  1  0
  7  8  1  0
  8  9  1  0
  9 10  1  0
 10 11  2  0
 11 12  1  0
 12 13  1  0
 13 14  1  0
 14 15  1  0
 12 16  2  0
 16 17  1  0
  9 18  1  0
 18 19  1  0
  2 20  1  0
 20 21  1  0
 21 22  2  0
 22 23  1  0
 23 24  1  0
 23 25  2  0
 25 26  1  0
 19  6  1  0
 26 20  2  0
 17 10  1  0
 15 13  1  0
  1 27  1  0
  1 28  1  0
  1 29  1  0
  3 30  1  0
  3 31  1  0
  3 32  1  0
  7 33  1  0
  7 34  1  0
  8 35  1  0
  8 36  1  0
 11 37  1  0
 13 38  1  0
 14 39  1  0
 14 40  1  0
 15 41  1  0
 15 42  1  0
 17 43  1  0
 18 44  1  0
 18 45  1  0
 19 46  1  0
 19 47  1  0
 21 48  1  0
 22 49  1  0
 25 50  1  0
 26 51  1  0
M  END
$$$$
OCNT-2309302
     RDKit          3D

 41 45  0  0  0  0  0  0  0  0999 V2000
    1.0729    2.0056   -1.9211 O   0  0  0  0  0  0  0  0  0  0  0  0
    1.1904    0.9984   -1.2298 C   0  0  0  0  0  0  0  0  0  0  0  0
    0.1219    0.2276   -0.8444 N   0  0  0  0  0  0  0  0  0  0  0  0
   -1.2413    0.5809   -1.1642 C   0  0  0  0  0  0  0  0  0  0  0  0
   -1.7983    1.4302   -0.0673 C   0  0  0  0  0  0  0  0  0  0  0  0
   -2.2652    0.8703    1.2620 C   0  0  0  0  0  0  0  0  0  0  0  0
   -2.5849   -0.5964    1.5145 C   0  0  0  0  0  0  0  0  0  0  0  0
   -3.8093   -0.8508    0.6686 C   0  0  0  0  0  0  0  0  0  0  0  0
   -4.5087   -2.0416    0.5458 C   0  0  0  0  0  0  0  0  0  0  0  0
   -5.6104   -2.0754   -0.3096 C   0  0  0  0  0  0  0  0  0  0  0  0
   -5.9936   -0.9314   -1.0250 C   0  0  0  0  0  0  0  0  0  0  0  0
   -5.2807    0.2636   -0.8932 C   0  0  0  0  0  0  0  0  0  0  0  0
   -4.1857    0.3047   -0.0422 C   0  0  0  0  0  0  0  0  0  0  0  0
   -3.2719    1.4485    0.2663 C   0  0  0  0  0  0  0  0  0  0  0  0
    2.4800    0.5493   -0.7518 C   0  0  0  0  0  0  0  0  0  0  0  0
    2.8738   -0.5418    0.0051 C   0  0  0  0  0  0  0  0  0  0  0  0
    4.2856   -0.4831    0.1783 C   0  0  0  0  0  0  0  0  0  0  0  0
    5.2325   -1.2874    0.8365 C   0  0  0  0  0  0  0  0  0  0  0  0
    4.8480   -2.3927    1.4914 F   0  0  0  0  0  0  0  0  0  0  0  0
    6.5841   -0.9418    0.8151 C   0  0  0  0  0  0  0  0  0  0  0  0
    7.0033    0.2032    0.1403 C   0  0  0  0  0  0  0  0  0  0  0  0
    6.0853    1.0250   -0.5254 C   0  0  0  0  0  0  0  0  0  0  0  0
    4.7343    0.6556   -0.4882 C   0  0  0  0  0  0  0  0  0  0  0  0
    3.6292    1.2559   -1.0408 N   0  0  0  0  0  0  0  0  0  0  0  0
    0.2676   -0.5242   -0.1899 H   0  0  0  0  0  0  0  0  0  0  0  0
   -1.2723    1.1307   -2.1109 H   0  0  0  0  0  0  0  0  0  0  0  0
   -1.7853   -0.3568   -1.3042 H   0  0  0  0  0  0  0  0  0  0  0  0
   -1.2932    2.3928   -0.0443 H   0  0  0  0  0  0  0  0  0  0  0  0
   -2.0440    1.4256    2.1636 H   0  0  0  0  0  0  0  0  0  0  0  0
   -2.8181   -0.7572    2.5717 H   0  0  0  0  0  0  0  0  0  0  0  0
   -1.7527   -1.2383    1.2118 H   0  0  0  0  0  0  0  0  0  0  0  0
   -4.2100   -2.9274    1.0968 H   0  0  0  0  0  0  0  0  0  0  0  0
   -6.1774   -2.9962   -0.4248 H   0  0  0  0  0  0  0  0  0  0  0  0
   -6.8542   -0.9749   -1.6883 H   0  0  0  0  0  0  0  0  0  0  0  0
   -5.5805    1.1465   -1.4489 H   0  0  0  0  0  0  0  0  0  0  0  0
   -3.7162    2.4087    0.5088 H   0  0  0  0  0  0  0  0  0  0  0  0
    2.2332   -1.3172    0.4030 H   0  0  0  0  0  0  0  0  0  0  0  0
    7.3018   -1.5740    1.3286 H   0  0  0  0  0  0  0  0  0  0  0  0
    8.0597    0.4636    0.1293 H   0  0  0  0  0  0  0  0  0  0  0  0
    6.4157    1.9161   -1.0508 H   0  0  0  0  0  0  0  0  0  0  0  0
    3.6346    2.1057   -1.5908 H   0  0  0  0  0  0  0  0  0  0  0  0
  1  2  2  0
  2  3  1  0
  3  4  1  0
  4  5  1  0
  5  6  1  0
  6  7  1  0
  7  8  1  0
  8  9  2  0
  9 10  1  0
 10 11  2  0
 11 12  1  0
 12 13  2  0
 13 14  1  0
  2 15  1  0
 15 16  2  0
 16 17  1  0
 17 18  2  0
 18 19  1  0
 18 20  1  0
 20 21  2  0
 21 22  1  0
 22 23  2  0
 23 24  1  0
 14  5  1  0
 24 15  1  0
 14  6  1  0
 23 17  1  0
 13  8  1  0
  3 25  1  0
  4 26  1  0
  4 27  1  0
  5 28  1  0
  6 29  1  0
  7 30  1  0
  7 31  1  0
  9 32  1  0
 10 33  1  0
 11 34  1  0
 12 35  1  0
 14 36  1  0
 16 37  1  0
 20 38  1  0
 21 39  1  0
 22 40  1  0
 24 41  1  0
M  END
$$$$
OCNT-2309323
     RDKit          3D

 47 50  0  0  0  0  0  0  0  0999 V2000
   -6.1087    1.1922   -1.2934 C   0  0  0  0  0  0  0  0  0  0  0  0
   -5.0520    1.7414   -0.3474 C   0  0  0  0  0  0  0  0  0  0  0  0
   -4.4166    0.6492    0.4787 C   0  0  0  0  0  0  0  0  0  0  0  0
   -4.9705    0.2913    1.7175 C   0  0  0  0  0  0  0  0  0  0  0  0
   -4.4254   -0.7373    2.4938 C   0  0  0  0  0  0  0  0  0  0  0  0
   -3.3069   -1.3836    1.9759 C   0  0  0  0  0  0  0  0  0  0  0  0
   -2.6552   -2.4213    2.5668 O   0  0  0  0  0  0  0  0  0  0  0  0
   -1.6459   -2.7788    1.7334 C   0  0  0  0  0  0  0  0  0  0  0  0
   -1.5983   -1.9516    0.6290 C   0  0  0  0  0  0  0  0  0  0  0  0
   -0.6266   -2.0847   -0.4381 C   0  0  0  0  0  0  0  0  0  0  0  0
   -0.4529   -3.1695   -0.9881 O   0  0  0  0  0  0  0  0  0  0  0  0
    0.1117   -0.9501   -0.7876 N   0  0  0  0  0  0  0  0  0  0  0  0
    0.3125    0.1780    0.1381 C   0  0  0  0  0  0  0  0  0  0  0  0
    1.4401    1.1307   -0.2908 C   0  0  0  0  0  0  0  0  0  0  0  0
    2.6747    0.4140   -0.6411 N   0  0  0  0  0  0  0  0  0  0  0  0
    3.9012    1.0042   -0.3557 C   0  0  0  0  0  0  0  0  0  0  0  0
    3.9677    2.1392    0.1191 O   0  0  0  0  0  0  0  0  0  0  0  0
    5.1504    0.2164   -0.6989 C   0  0  0  0  0  0  0  0  0  0  0  0
    6.2767    0.5684    0.1347 N   0  0  0  0  0  0  0  0  0  0  0  0
    6.9353    1.7520    0.2404 C   0  0  0  0  0  0  0  0  0  0  0  0
    7.9823    1.5766    1.0136 N   0  0  0  0  0  0  0  0  0  0  0  0
    7.9616    0.2520    1.3807 N   0  0  0  0  0  0  0  0  0  0  0  0
    6.9286   -0.3761    0.8352 N   0  0  0  0  0  0  0  0  0  0  0  0
    2.5121   -0.8531   -1.3735 C   0  0  0  0  0  0  0  0  0  0  0  0
    1.0792   -1.0609   -1.8808 C   0  0  0  0  0  0  0  0  0  0  0  0
   -2.7081   -1.0614    0.7637 C   0  0  0  0  0  0  0  0  0  0  0  0
   -3.2863   -0.0347   -0.0104 C   0  0  0  0  0  0  0  0  0  0  0  0
   -6.5517    2.0044   -1.8784 H   0  0  0  0  0  0  0  0  0  0  0  0
   -5.6782    0.4666   -1.9920 H   0  0  0  0  0  0  0  0  0  0  0  0
   -6.9130    0.6921   -0.7434 H   0  0  0  0  0  0  0  0  0  0  0  0
   -5.5007    2.4918    0.3149 H   0  0  0  0  0  0  0  0  0  0  0  0
   -4.2781    2.2670   -0.9201 H   0  0  0  0  0  0  0  0  0  0  0  0
   -5.8521    0.8118    2.0889 H   0  0  0  0  0  0  0  0  0  0  0  0
   -4.8545   -1.0290    3.4447 H   0  0  0  0  0  0  0  0  0  0  0  0
   -1.0479   -3.6196    2.0579 H   0  0  0  0  0  0  0  0  0  0  0  0
    0.5510   -0.2425    1.1226 H   0  0  0  0  0  0  0  0  0  0  0  0
   -0.6192    0.7410    0.2256 H   0  0  0  0  0  0  0  0  0  0  0  0
    1.1396    1.6914   -1.1843 H   0  0  0  0  0  0  0  0  0  0  0  0
    1.6269    1.8602    0.5042 H   0  0  0  0  0  0  0  0  0  0  0  0
    5.4309    0.4216   -1.7368 H   0  0  0  0  0  0  0  0  0  0  0  0
    4.9827   -0.8573   -0.5765 H   0  0  0  0  0  0  0  0  0  0  0  0
    6.6276    2.6699   -0.2382 H   0  0  0  0  0  0  0  0  0  0  0  0
    3.2147   -0.8725   -2.2130 H   0  0  0  0  0  0  0  0  0  0  0  0
    2.7830   -1.6575   -0.6799 H   0  0  0  0  0  0  0  0  0  0  0  0
    1.0000   -2.0220   -2.3976 H   0  0  0  0  0  0  0  0  0  0  0  0
    0.8226   -0.2819   -2.6090 H   0  0  0  0  0  0  0  0  0  0  0  0
   -2.8643    0.2218   -0.9786 H   0  0  0  0  0  0  0  0  0  0  0  0
  1  2  1  0
  2  3  1  0
  3  4  2  0
  4  5  1  0
  5  6  2  0
  6  7  1  0
  7  8  1  0
  8  9  2  0
  9 10  1  0
 10 11  2  0
 10 12  1  0
 12 13  1  0
 13 14  1  0
 14 15  1  0
 15 16  1  0
 16 17  2  0
 16 18  1  0
 18 19  1  0
 19 20  1  0
 20 21  2  0
 21 22  1  0
 22 23  2  0
 15 24  1  0
 24 25  1  0
  9 26  1  0
 26 27  2  0
 27  3  1  0
 26  6  1  0
 25 12  1  0
 23 19  1  0
  1 28  1  0
  1 29  1  0
  1 30  1  0
  2 31  1  0
  2 32  1  0
  4 33  1  0
  5 34  1  0
  8 35  1  0
 13 36  1  0
 13 37  1  0
 14 38  1  0
 14 39  1  0
 18 40  1  0
 18 41  1  0
 20 42  1  0
 24 43  1  0
 24 44  1  0
 25 45  1  0
 25 46  1  0
 27 47  1  0
M  END
$$$$
OCNT-2309324
     RDKit          3D

 46 49  0  0  0  0  0  0  0  0999 V2000
   -2.7877   -0.6367    3.2446 C   0  0  0  0  0  0  0  0  0  0  0  0
   -2.5286    0.0011    2.0016 O   0  0  0  0  0  0  0  0  0  0  0  0
   -3.5367   -0.0033    1.0746 C   0  0  0  0  0  0  0  0  0  0  0  0
   -4.6958   -0.7780    1.1635 C   0  0  0  0  0  0  0  0  0  0  0  0
   -5.6833   -0.6945    0.1729 C   0  0  0  0  0  0  0  0  0  0  0  0
   -5.5213    0.1643   -0.9124 C   0  0  0  0  0  0  0  0  0  0  0  0
   -4.3653    0.9323   -1.0171 C   0  0  0  0  0  0  0  0  0  0  0  0
   -3.3683    0.8288   -0.0436 C   0  0  0  0  0  0  0  0  0  0  0  0
   -2.2704    1.6352   -0.2041 O   0  0  0  0  0  0  0  0  0  0  0  0
   -1.0687    0.8827   -0.4856 C   0  0  0  0  0  0  0  0  0  0  0  0
   -0.6988    1.1383   -1.9588 C   0  0  0  0  0  0  0  0  0  0  0  0
    0.3442    2.2457   -2.0868 C   0  0  0  0  0  0  0  0  0  0  0  0
    1.6417    1.8479   -1.3774 C   0  0  0  0  0  0  0  0  0  0  0  0
    1.3870    1.2318   -0.0690 N   0  0  0  0  0  0  0  0  0  0  0  0
    1.9935   -0.0060    0.1507 C   0  0  0  0  0  0  0  0  0  0  0  0
    1.2477   -1.0593    0.5822 N   0  0  0  0  0  0  0  0  0  0  0  0
    1.8409   -2.2482    0.8057 C   0  0  0  0  0  0  0  0  0  0  0  0
    3.1363   -2.5668    0.6650 N   0  0  0  0  0  0  0  0  0  0  0  0
    3.8530   -1.5053    0.2587 C   0  0  0  0  0  0  0  0  0  0  0  0
    3.3727   -0.2357   -0.0102 C   0  0  0  0  0  0  0  0  0  0  0  0
    4.5256    0.4999   -0.3630 C   0  0  0  0  0  0  0  0  0  0  0  0
    5.6432   -0.2342   -0.3528 N   0  0  0  0  0  0  0  0  0  0  0  0
    5.2031   -1.4530    0.0377 N   0  0  0  0  0  0  0  0  0  0  0  0
    6.1514   -2.5261    0.2084 C   0  0  0  0  0  0  0  0  0  0  0  0
    0.0285    1.3843    0.4754 C   0  0  0  0  0  0  0  0  0  0  0  0
   -3.6934   -0.2409    3.7148 H   0  0  0  0  0  0  0  0  0  0  0  0
   -1.9449   -0.4269    3.9109 H   0  0  0  0  0  0  0  0  0  0  0  0
   -2.8499   -1.7227    3.1186 H   0  0  0  0  0  0  0  0  0  0  0  0
   -4.8641   -1.4592    1.9911 H   0  0  0  0  0  0  0  0  0  0  0  0
   -6.5834   -1.2980    0.2542 H   0  0  0  0  0  0  0  0  0  0  0  0
   -6.2929    0.2360   -1.6735 H   0  0  0  0  0  0  0  0  0  0  0  0
   -4.2343    1.6085   -1.8569 H   0  0  0  0  0  0  0  0  0  0  0  0
   -1.2194   -0.1974   -0.3554 H   0  0  0  0  0  0  0  0  0  0  0  0
   -0.2825    0.2184   -2.3880 H   0  0  0  0  0  0  0  0  0  0  0  0
   -1.5844    1.3974   -2.5495 H   0  0  0  0  0  0  0  0  0  0  0  0
    0.5541    2.4478   -3.1423 H   0  0  0  0  0  0  0  0  0  0  0  0
   -0.0487    3.1764   -1.6611 H   0  0  0  0  0  0  0  0  0  0  0  0
    2.1904    1.1702   -2.0446 H   0  0  0  0  0  0  0  0  0  0  0  0
    2.2665    2.7382   -1.2395 H   0  0  0  0  0  0  0  0  0  0  0  0
    1.1866   -3.0467    1.1412 H   0  0  0  0  0  0  0  0  0  0  0  0
    4.5940    1.5473   -0.6250 H   0  0  0  0  0  0  0  0  0  0  0  0
    5.6264   -3.4653    0.3943 H   0  0  0  0  0  0  0  0  0  0  0  0
    6.7448   -2.6122   -0.7050 H   0  0  0  0  0  0  0  0  0  0  0  0
    6.7925   -2.2819    1.0598 H   0  0  0  0  0  0  0  0  0  0  0  0
   -0.0727    0.9130    1.4617 H   0  0  0  0  0  0  0  0  0  0  0  0
   -0.1287    2.4528    0.6815 H   0  0  0  0  0  0  0  0  0  0  0  0
  1  2  1  0
  2  3  1  0
  3  4  2  0
  4  5  1  0
  5  6  2  0
  6  7  1  0
  7  8  2  0
  8  9  1  0
  9 10  1  0
 10 11  1  0
 11 12  1  0
 12 13  1  0
 13 14  1  0
 14 15  1  0
 15 16  1  0
 16 17  2  0
 17 18  1  0
 18 19  2  0
 19 20  1  0
 20 21  1  0
 21 22  2  0
 22 23  1  0
 23 24  1  0
 14 25  1  0
  8  3  1  0
 25 10  1  0
 20 15  2  0
 23 19  1  0
  1 26  1  0
  1 27  1  0
  1 28  1  0
  4 29  1  0
  5 30  1  0
  6 31  1  0
  7 32  1  0
 10 33  1  0
 11 34  1  0
 11 35  1  0
 12 36  1  0
 12 37  1  0
 13 38  1  0
 13 39  1  0
 17 40  1  0
 21 41  1  0
 24 42  1  0
 24 43  1  0
 24 44  1  0
 25 45  1  0
 25 46  1  0
M  END
$$$$
OCNT-2309355
     RDKit          3D

 50 53  0  0  0  0  0  0  0  0999 V2000
    6.9284    0.5180   -2.7604 C   0  0  0  0  0  0  0  0  0  0  0  0
    5.8044    0.0579   -1.8784 C   0  0  0  0  0  0  0  0  0  0  0  0
    5.3213   -1.2560   -1.9778 C   0  0  0  0  0  0  0  0  0  0  0  0
    4.2545   -1.7112   -1.1918 C   0  0  0  0  0  0  0  0  0  0  0  0
    3.6887   -0.7893   -0.3111 C   0  0  0  0  0  0  0  0  0  0  0  0
    2.6584   -0.8802    0.5849 N   0  0  0  0  0  0  0  0  0  0  0  0
    2.4940    0.3449    1.1920 C   0  0  0  0  0  0  0  0  0  0  0  0
    1.4418    0.5608    2.2378 C   0  0  0  0  0  0  0  0  0  0  0  0
    1.5050    1.9637    2.8565 C   0  0  0  0  0  0  0  0  0  0  0  0
    0.0541    2.2511    3.2094 C   0  0  0  0  0  0  0  0  0  0  0  0
   -0.6955    1.6482    2.0318 C   0  0  0  0  0  0  0  0  0  0  0  0
    0.0923    0.4766    1.6642 N   0  0  0  0  0  0  0  0  0  0  0  0
   -0.4340   -0.7372    1.2518 C   0  0  0  0  0  0  0  0  0  0  0  0
    0.1824   -1.7980    1.3459 O   0  0  0  0  0  0  0  0  0  0  0  0
   -1.7795   -0.7643    0.6488 C   0  0  0  0  0  0  0  0  0  0  0  0
   -2.1782    0.1394   -0.3332 C   0  0  0  0  0  0  0  0  0  0  0  0
   -3.4596    0.0343   -0.8731 C   0  0  0  0  0  0  0  0  0  0  0  0
   -4.3077   -0.9804   -0.4248 C   0  0  0  0  0  0  0  0  0  0  0  0
   -5.7118   -1.1482   -0.9718 C   0  0  0  0  0  0  0  0  0  0  0  0
   -5.7001   -1.4756   -2.4659 C   0  0  0  0  0  0  0  0  0  0  0  0
   -6.5826    0.0752   -0.6811 C   0  0  0  0  0  0  0  0  0  0  0  0
   -3.9192   -1.8780    0.5160 N   0  0  0  0  0  0  0  0  0  0  0  0
   -2.6655   -1.7619    1.0196 C   0  0  0  0  0  0  0  0  0  0  0  0
    3.3815    1.2096    0.7346 N   0  0  0  0  0  0  0  0  0  0  0  0
    4.1253    0.5235   -0.1953 C   0  0  0  0  0  0  0  0  0  0  0  0
    5.1951    0.9622   -0.9899 C   0  0  0  0  0  0  0  0  0  0  0  0
    7.5068    1.3111   -2.2750 H   0  0  0  0  0  0  0  0  0  0  0  0
    6.5298    0.8988   -3.7058 H   0  0  0  0  0  0  0  0  0  0  0  0
    7.6198   -0.3043   -2.9722 H   0  0  0  0  0  0  0  0  0  0  0  0
    5.7818   -1.9488   -2.6805 H   0  0  0  0  0  0  0  0  0  0  0  0
    3.8895   -2.7293   -1.2701 H   0  0  0  0  0  0  0  0  0  0  0  0
    2.0628   -1.6844    0.7523 H   0  0  0  0  0  0  0  0  0  0  0  0
    1.5262   -0.2020    3.0224 H   0  0  0  0  0  0  0  0  0  0  0  0
    1.8512    2.7174    2.1381 H   0  0  0  0  0  0  0  0  0  0  0  0
    2.1673    2.0040    3.7268 H   0  0  0  0  0  0  0  0  0  0  0  0
   -0.2138    1.7298    4.1363 H   0  0  0  0  0  0  0  0  0  0  0  0
   -0.1523    3.3167    3.3400 H   0  0  0  0  0  0  0  0  0  0  0  0
   -0.6926    2.3340    1.1779 H   0  0  0  0  0  0  0  0  0  0  0  0
   -1.7248    1.3895    2.2941 H   0  0  0  0  0  0  0  0  0  0  0  0
   -1.4985    0.9058   -0.6949 H   0  0  0  0  0  0  0  0  0  0  0  0
   -3.7807    0.7324   -1.6399 H   0  0  0  0  0  0  0  0  0  0  0  0
   -6.1707   -2.0025   -0.4559 H   0  0  0  0  0  0  0  0  0  0  0  0
   -5.0875   -2.3613   -2.6678 H   0  0  0  0  0  0  0  0  0  0  0  0
   -6.7150   -1.6811   -2.8230 H   0  0  0  0  0  0  0  0  0  0  0  0
   -5.2984   -0.6493   -3.0626 H   0  0  0  0  0  0  0  0  0  0  0  0
   -7.6147   -0.1018   -1.0025 H   0  0  0  0  0  0  0  0  0  0  0  0
   -6.2208    0.9684   -1.2020 H   0  0  0  0  0  0  0  0  0  0  0  0
   -6.5989    0.2982    0.3916 H   0  0  0  0  0  0  0  0  0  0  0  0
   -2.3934   -2.5153    1.7542 H   0  0  0  0  0  0  0  0  0  0  0  0
    5.5333    1.9891   -0.9050 H   0  0  0  0  0  0  0  0  0  0  0  0
  1  2  1  0
  2  3  2  0
  3  4  1  0
  4  5  2  0
  5  6  1  0
  6  7  1  0
  7  8  1  0
  8  9  1  0
  9 10  1  0
 10 11  1  0
 11 12  1  0
 12 13  1  0
 13 14  2  0
 13 15  1  0
 15 16  2  0
 16 17  1  0
 17 18  2  0
 18 19  1  0
 19 20  1  0
 19 21  1  0
 18 22  1  0
 22 23  2  0
  7 24  2  0
 24 25  1  0
 25 26  2  0
 26  2  1  0
 25  5  1  0
 12  8  1  0
 23 15  1  0
  1 27  1  0
  1 28  1  0
  1 29  1  0
  3 30  1  0
  4 31  1  0
  6 32  1  0
  8 33  1  0
  9 34  1  0
  9 35  1  0
 10 36  1  0
 10 37  1  0
 11 38  1  0
 11 39  1  0
 16 40  1  0
 17 41  1  0
 19 42  1  0
 20 43  1  0
 20 44  1  0
 20 45  1  0
 21 46  1  0
 21 47  1  0
 21 48  1  0
 23 49  1  0
 26 50  1  0
M  END
$$$$
OCNT-2309376
     RDKit          3D

 39 42  0  0  0  0  0  0  0  0999 V2000
    1.0517    2.5532    0.4179 O   0  0  0  0  0  0  0  0  0  0  0  0
    0.5873    1.4866    0.0339 C   0  0  0  0  0  0  0  0  0  0  0  0
   -0.7389    1.1017    0.0636 N   0  0  0  0  0  0  0  0  0  0  0  0
   -1.7969    1.9033    0.4656 C   0  0  0  0  0  0  0  0  0  0  0  0
   -1.7625    3.2254    0.8325 C   0  0  0  0  0  0  0  0  0  0  0  0
   -3.0483    3.5818    1.0964 N   0  0  0  0  0  0  0  0  0  0  0  0
   -3.9326    2.5889    0.9179 N   0  0  0  0  0  0  0  0  0  0  0  0
   -3.1784    1.5358    0.5612 C   0  0  0  0  0  0  0  0  0  0  0  0
   -3.7832    0.2304    0.3089 C   0  0  0  0  0  0  0  0  0  0  0  0
   -4.8975    0.1226   -0.5329 C   0  0  0  0  0  0  0  0  0  0  0  0
   -5.4683   -1.1251   -0.7926 C   0  0  0  0  0  0  0  0  0  0  0  0
   -4.9344   -2.2720   -0.2064 C   0  0  0  0  0  0  0  0  0  0  0  0
   -3.8351   -2.1733    0.6458 C   0  0  0  0  0  0  0  0  0  0  0  0
   -3.2623   -0.9262    0.9058 C   0  0  0  0  0  0  0  0  0  0  0  0
    1.5187    0.4562   -0.5008 C   0  0  0  0  0  0  0  0  0  0  0  0
    1.1721   -0.3434   -1.5956 C   0  0  0  0  0  0  0  0  0  0  0  0
    2.0740   -1.2949   -2.0699 C   0  0  0  0  0  0  0  0  0  0  0  0
    3.3243   -1.4443   -1.4610 C   0  0  0  0  0  0  0  0  0  0  0  0
    3.6949   -0.6370   -0.3742 C   0  0  0  0  0  0  0  0  0  0  0  0
    4.9940   -0.7628    0.2869 C   0  0  0  0  0  0  0  0  0  0  0  0
    5.3280   -0.2893    1.4735 N   0  0  0  0  0  0  0  0  0  0  0  0
    6.6311   -0.6649    1.6218 C   0  0  0  0  0  0  0  0  0  0  0  0
    7.1441   -1.3462    0.5969 N   0  0  0  0  0  0  0  0  0  0  0  0
    6.0950   -1.3865   -0.2402 N   0  0  0  0  0  0  0  0  0  0  0  0
    2.7777    0.3147    0.0967 C   0  0  0  0  0  0  0  0  0  0  0  0
   -0.9826    0.1554   -0.1979 H   0  0  0  0  0  0  0  0  0  0  0  0
   -0.9544    3.9378    0.9192 H   0  0  0  0  0  0  0  0  0  0  0  0
   -3.3956    4.4875    1.3937 H   0  0  0  0  0  0  0  0  0  0  0  0
   -5.3254    1.0149   -0.9858 H   0  0  0  0  0  0  0  0  0  0  0  0
   -6.3342   -1.1986   -1.4455 H   0  0  0  0  0  0  0  0  0  0  0  0
   -5.3853   -3.2415   -0.4028 H   0  0  0  0  0  0  0  0  0  0  0  0
   -3.4337   -3.0657    1.1193 H   0  0  0  0  0  0  0  0  0  0  0  0
   -2.4258   -0.8617    1.5982 H   0  0  0  0  0  0  0  0  0  0  0  0
    0.2191   -0.2185   -2.1038 H   0  0  0  0  0  0  0  0  0  0  0  0
    1.8063   -1.9193   -2.9199 H   0  0  0  0  0  0  0  0  0  0  0  0
    3.9916   -2.2085   -1.8510 H   0  0  0  0  0  0  0  0  0  0  0  0
    7.2199   -0.4350    2.5007 H   0  0  0  0  0  0  0  0  0  0  0  0
    6.2009   -1.8355   -1.1409 H   0  0  0  0  0  0  0  0  0  0  0  0
    3.0448    0.9540    0.9392 H   0  0  0  0  0  0  0  0  0  0  0  0
  1  2  2  0
  2  3  1  0
  3  4  1  0
  4  5  2  0
  5  6  1  0
  6  7  1  0
  7  8  2  0
  8  9  1  0
  9 10  2  0
 10 11  1  0
 11 12  2  0
 12 13  1  0
 13 14  2  0
  2 15  1  0
 15 16  1  0
 16 17  2  0
 17 18  1  0
 18 19  2  0
 19 20  1  0
 20 21  2  0
 21 22  1  0
 22 23  2  0
 23 24  1  0
 19 25  1  0
  8  4  1  0
 14  9  1  0
 25 15  2  0
 24 20  1  0
  3 26  1  0
  5 27  1  0
  6 28  1  0
 10 29  1  0
 11 30  1  0
 12 31  1  0
 13 32  1  0
 14 33  1  0
 16 34  1  0
 17 35  1  0
 18 36  1  0
 22 37  1  0
 24 38  1  0
 25 39  1  0
M  END
$$$$
OCNT-2309378
     RDKit          3D

 41 42  0  0  0  0  0  0  0  0999 V2000
   -2.8298   -2.1899    1.4437 C   0  0  0  0  0  0  0  0  0  0  0  0
   -1.4737   -1.6824    1.0427 C   0  0  0  0  0  0  0  0  0  0  0  0
   -0.4054   -2.5880    0.9779 C   0  0  0  0  0  0  0  0  0  0  0  0
    0.8892   -2.1602    0.6563 C   0  0  0  0  0  0  0  0  0  0  0  0
    1.1500   -0.8158    0.3974 C   0  0  0  0  0  0  0  0  0  0  0  0
    2.4273   -0.3000    0.0858 N   0  0  0  0  0  0  0  0  0  0  0  0
    3.6224   -0.9959    0.0422 C   0  0  0  0  0  0  0  0  0  0  0  0
    3.7923   -2.1788    0.3101 O   0  0  0  0  0  0  0  0  0  0  0  0
    4.8113   -0.1980   -0.3455 C   0  0  0  0  0  0  0  0  0  0  0  0
    6.0565   -0.5692    0.1576 C   0  0  0  0  0  0  0  0  0  0  0  0
    7.2140    0.0838   -0.1248 N   0  0  0  0  0  0  0  0  0  0  0  0
    7.1196    1.1415   -0.9636 C   0  0  0  0  0  0  0  0  0  0  0  0
    5.9264    1.5645   -1.5243 C   0  0  0  0  0  0  0  0  0  0  0  0
    5.8993    2.6108   -2.3586 F   0  0  0  0  0  0  0  0  0  0  0  0
    4.7516    0.8900   -1.2192 C   0  0  0  0  0  0  0  0  0  0  0  0
    0.0872    0.0916    0.4345 C   0  0  0  0  0  0  0  0  0  0  0  0
   -1.2179   -0.3365    0.7302 C   0  0  0  0  0  0  0  0  0  0  0  0
   -2.2713    0.7104    0.7021 C   0  0  0  0  0  0  0  0  0  0  0  0
   -2.0766    1.7878    1.2507 O   0  0  0  0  0  0  0  0  0  0  0  0
   -3.3973    0.4005   -0.0297 N   0  0  0  0  0  0  0  0  0  0  0  0
   -4.4434    1.3825   -0.2737 C   0  0  0  0  0  0  0  0  0  0  0  0
   -4.0673    2.2895   -1.4430 C   0  0  0  0  0  0  0  0  0  0  0  0
   -5.7685    0.6760   -0.5396 C   0  0  0  0  0  0  0  0  0  0  0  0
   -3.3488   -1.4687    2.0831 H   0  0  0  0  0  0  0  0  0  0  0  0
   -2.7455   -3.1154    2.0241 H   0  0  0  0  0  0  0  0  0  0  0  0
   -3.4359   -2.3995    0.5574 H   0  0  0  0  0  0  0  0  0  0  0  0
   -0.5636   -3.6433    1.1957 H   0  0  0  0  0  0  0  0  0  0  0  0
    1.6746   -2.9098    0.6300 H   0  0  0  0  0  0  0  0  0  0  0  0
    2.4636    0.7029   -0.0445 H   0  0  0  0  0  0  0  0  0  0  0  0
    6.1643   -1.4219    0.8254 H   0  0  0  0  0  0  0  0  0  0  0  0
    8.0504    1.6531   -1.1865 H   0  0  0  0  0  0  0  0  0  0  0  0
    3.8291    1.2078   -1.6908 H   0  0  0  0  0  0  0  0  0  0  0  0
    0.2530    1.1475    0.2299 H   0  0  0  0  0  0  0  0  0  0  0  0
   -3.3583   -0.4108   -0.6337 H   0  0  0  0  0  0  0  0  0  0  0  0
   -4.5479    1.9995    0.6268 H   0  0  0  0  0  0  0  0  0  0  0  0
   -4.8475    3.0359   -1.6248 H   0  0  0  0  0  0  0  0  0  0  0  0
   -3.9256    1.7112   -2.3628 H   0  0  0  0  0  0  0  0  0  0  0  0
   -3.1316    2.8223   -1.2427 H   0  0  0  0  0  0  0  0  0  0  0  0
   -5.7087    0.0380   -1.4284 H   0  0  0  0  0  0  0  0  0  0  0  0
   -6.5750    1.4006   -0.6923 H   0  0  0  0  0  0  0  0  0  0  0  0
   -6.0424    0.0365    0.3067 H   0  0  0  0  0  0  0  0  0  0  0  0
  1  2  1  0
  2  3  1  0
  3  4  2  0
  4  5  1  0
  5  6  1  0
  6  7  1  0
  7  8  2  0
  7  9  1  0
  9 10  2  0
 10 11  1  0
 11 12  2  0
 12 13  1  0
 13 14  1  0
 13 15  2  0
  5 16  2  0
 16 17  1  0
 17 18  1  0
 18 19  2  0
 18 20  1  0
 20 21  1  0
 21 22  1  0
 21 23  1  0
 17  2  2  0
 15  9  1  0
  1 24  1  0
  1 25  1  0
  1 26  1  0
  3 27  1  0
  4 28  1  0
  6 29  1  0
 10 30  1  0
 12 31  1  0
 15 32  1  0
 16 33  1  0
 20 34  1  0
 21 35  1  0
 22 36  1  0
 22 37  1  0
 22 38  1  0
 23 39  1  0
 23 40  1  0
 23 41  1  0
M  END
$$$$
OCNT-2309390
     RDKit          3D

 35 37  0  0  0  0  0  0  0  0999 V2000
   -0.8975   -2.3204   -2.3003 F   0  0  0  0  0  0  0  0  0  0  0  0
   -0.1516   -1.5491   -1.4663 C   0  0  0  0  0  0  0  0  0  0  0  0
   -0.2437   -0.2833   -1.9235 F   0  0  0  0  0  0  0  0  0  0  0  0
    1.1247   -1.9592   -1.6076 F   0  0  0  0  0  0  0  0  0  0  0  0
   -0.6602   -1.7055   -0.0513 C   0  0  0  0  0  0  0  0  0  0  0  0
   -0.1253   -0.7382    0.8853 N   0  0  0  0  0  0  0  0  0  0  0  0
   -0.7765    0.3998    1.3318 C   0  0  0  0  0  0  0  0  0  0  0  0
   -2.0796    0.8659    0.8859 C   0  0  0  0  0  0  0  0  0  0  0  0
   -3.2139    0.6342    1.6717 C   0  0  0  0  0  0  0  0  0  0  0  0
   -4.4682    1.0710    1.2415 C   0  0  0  0  0  0  0  0  0  0  0  0
   -4.5935    1.7450    0.0274 C   0  0  0  0  0  0  0  0  0  0  0  0
   -3.4653    1.9875   -0.7551 C   0  0  0  0  0  0  0  0  0  0  0  0
   -2.2104    1.5519   -0.3259 C   0  0  0  0  0  0  0  0  0  0  0  0
    0.0790    0.9376    2.2740 C   0  0  0  0  0  0  0  0  0  0  0  0
    1.2047    0.1747    2.4199 N   0  0  0  0  0  0  0  0  0  0  0  0
    1.0610   -0.8132    1.5702 C   0  0  0  0  0  0  0  0  0  0  0  0
    2.2229   -2.0777    1.3584 S   0  0  0  0  0  0  0  0  0  0  0  0
    3.7079   -1.0614    1.0556 C   0  0  0  0  0  0  0  0  0  0  0  0
    3.7427   -0.5588   -0.3578 C   0  0  0  0  0  0  0  0  0  0  0  0
    3.0387    0.4605   -0.8125 N   0  0  0  0  0  0  0  0  0  0  0  0
    3.2930    0.6464   -2.1558 C   0  0  0  0  0  0  0  0  0  0  0  0
    4.1963   -0.2283   -2.7164 C   0  0  0  0  0  0  0  0  0  0  0  0
    4.7523   -1.3272   -1.5262 S   0  0  0  0  0  0  0  0  0  0  0  0
   -0.4407   -2.7090    0.3286 H   0  0  0  0  0  0  0  0  0  0  0  0
   -1.7516   -1.6170   -0.0437 H   0  0  0  0  0  0  0  0  0  0  0  0
   -3.1274    0.1132    2.6227 H   0  0  0  0  0  0  0  0  0  0  0  0
   -5.3466    0.8891    1.8555 H   0  0  0  0  0  0  0  0  0  0  0  0
   -5.5697    2.0880   -0.3060 H   0  0  0  0  0  0  0  0  0  0  0  0
   -3.5605    2.5211   -1.6974 H   0  0  0  0  0  0  0  0  0  0  0  0
   -1.3357    1.7590   -0.9394 H   0  0  0  0  0  0  0  0  0  0  0  0
   -0.0674    1.8381    2.8571 H   0  0  0  0  0  0  0  0  0  0  0  0
    3.7502   -0.2191    1.7542 H   0  0  0  0  0  0  0  0  0  0  0  0
    4.5827   -1.6858    1.2679 H   0  0  0  0  0  0  0  0  0  0  0  0
    2.7849    1.4436   -2.6845 H   0  0  0  0  0  0  0  0  0  0  0  0
    4.5443   -0.2736   -3.7379 H   0  0  0  0  0  0  0  0  0  0  0  0
  1  2  1  0
  2  3  1  0
  2  4  1  0
  2  5  1  0
  5  6  1  0
  6  7  1  0
  7  8  1  0
  8  9  2  0
  9 10  1  0
 10 11  2  0
 11 12  1  0
 12 13  2  0
  7 14  2  0
 14 15  1  0
 15 16  2  0
 16 17  1  0
 17 18  1  0
 18 19  1  0
 19 20  2  0
 20 21  1  0
 21 22  2  0
 22 23  1  0
 16  6  1  0
 23 19  1  0
 13  8  1  0
  5 24  1  0
  5 25  1  0
  9 26  1  0
 10 27  1  0
 11 28  1  0
 12 29  1  0
 13 30  1  0
 14 31  1  0
 18 32  1  0
 18 33  1  0
 21 34  1  0
 22 35  1  0
M  END
$$$$
OCNT-2309396
     RDKit          3D

 60 63  0  0  0  0  0  0  0  0999 V2000
   -0.3380   -3.3406    0.1138 C   0  0  0  0  0  0  0  0  0  0  0  0
   -1.4848   -2.3978    0.1450 C   0  0  0  0  0  0  0  0  0  0  0  0
   -2.7295   -2.8759    0.0155 N   0  0  0  0  0  0  0  0  0  0  0  0
   -3.5251   -1.7821    0.0966 N   0  0  0  0  0  0  0  0  0  0  0  0
   -4.9909   -1.9192    0.0072 C   0  0  0  0  0  0  0  0  0  0  0  0
   -5.5051   -1.2231   -1.2674 C   0  0  0  0  0  0  0  0  0  0  0  0
   -5.4240   -3.4047   -0.0635 C   0  0  0  0  0  0  0  0  0  0  0  0
   -5.6654   -1.3064    1.2512 C   0  0  0  0  0  0  0  0  0  0  0  0
   -2.8067   -0.6162    0.2388 C   0  0  0  0  0  0  0  0  0  0  0  0
   -3.3024    0.6355    0.3153 N   0  0  0  0  0  0  0  0  0  0  0  0
   -2.3797    1.6094    0.4782 C   0  0  0  0  0  0  0  0  0  0  0  0
   -2.9343    3.0182    0.6076 C   0  0  0  0  0  0  0  0  0  0  0  0
   -2.6538    3.6073    1.9906 C   0  0  0  0  0  0  0  0  0  0  0  0
   -2.4206    3.9390   -0.5006 C   0  0  0  0  0  0  0  0  0  0  0  0
   -1.0090    1.3677    0.5419 C   0  0  0  0  0  0  0  0  0  0  0  0
   -0.5389    0.0529    0.4365 C   0  0  0  0  0  0  0  0  0  0  0  0
    0.9085   -0.2229    0.5098 C   0  0  0  0  0  0  0  0  0  0  0  0
    1.3032   -1.0627    1.3059 O   0  0  0  0  0  0  0  0  0  0  0  0
    1.6676    0.5226   -0.3729 N   0  0  0  0  0  0  0  0  0  0  0  0
    3.0723    0.5106   -0.5113 C   0  0  0  0  0  0  0  0  0  0  0  0
    3.6213    1.2991   -1.5330 C   0  0  0  0  0  0  0  0  0  0  0  0
    5.0027    1.3383   -1.7449 C   0  0  0  0  0  0  0  0  0  0  0  0
    5.8565    0.6062   -0.9175 C   0  0  0  0  0  0  0  0  0  0  0  0
    7.3355    0.5430   -1.1741 C   0  0  0  0  0  0  0  0  0  0  0  0
    8.1075    0.3374    0.1182 C   0  0  0  0  0  0  0  0  0  0  0  0
    7.5245   -0.7774    0.9565 C   0  0  0  0  0  0  0  0  0  0  0  0
    8.2191   -1.4769    1.6895 O   0  0  0  0  0  0  0  0  0  0  0  0
    6.1603   -0.8994    0.9467 N   0  0  0  0  0  0  0  0  0  0  0  0
    5.3110   -0.1645    0.1124 C   0  0  0  0  0  0  0  0  0  0  0  0
    3.9290   -0.2251    0.3097 C   0  0  0  0  0  0  0  0  0  0  0  0
   -1.4702   -0.9858    0.2898 C   0  0  0  0  0  0  0  0  0  0  0  0
    0.0747   -3.4731    1.1185 H   0  0  0  0  0  0  0  0  0  0  0  0
   -0.6416   -4.3258   -0.2568 H   0  0  0  0  0  0  0  0  0  0  0  0
    0.4514   -2.9712   -0.5478 H   0  0  0  0  0  0  0  0  0  0  0  0
   -5.0249   -1.6365   -2.1619 H   0  0  0  0  0  0  0  0  0  0  0  0
   -5.3066   -0.1459   -1.2578 H   0  0  0  0  0  0  0  0  0  0  0  0
   -6.5878   -1.3526   -1.3782 H   0  0  0  0  0  0  0  0  0  0  0  0
   -5.1004   -3.9586    0.8258 H   0  0  0  0  0  0  0  0  0  0  0  0
   -5.0031   -3.9062   -0.9431 H   0  0  0  0  0  0  0  0  0  0  0  0
   -6.5146   -3.4960   -0.1277 H   0  0  0  0  0  0  0  0  0  0  0  0
   -5.5213   -0.2234    1.3097 H   0  0  0  0  0  0  0  0  0  0  0  0
   -6.7472   -1.4827    1.2414 H   0  0  0  0  0  0  0  0  0  0  0  0
   -5.2633   -1.7441    2.1723 H   0  0  0  0  0  0  0  0  0  0  0  0
   -4.0255    2.9580    0.4967 H   0  0  0  0  0  0  0  0  0  0  0  0
   -1.5820    3.7519    2.1636 H   0  0  0  0  0  0  0  0  0  0  0  0
   -3.1425    4.5814    2.1007 H   0  0  0  0  0  0  0  0  0  0  0  0
   -3.0331    2.9503    2.7803 H   0  0  0  0  0  0  0  0  0  0  0  0
   -1.3376    4.0927   -0.4373 H   0  0  0  0  0  0  0  0  0  0  0  0
   -2.6414    3.5225   -1.4895 H   0  0  0  0  0  0  0  0  0  0  0  0
   -2.8995    4.9222   -0.4359 H   0  0  0  0  0  0  0  0  0  0  0  0
   -0.3121    2.1849    0.7007 H   0  0  0  0  0  0  0  0  0  0  0  0
    1.1654    1.1021   -1.0343 H   0  0  0  0  0  0  0  0  0  0  0  0
    2.9817    1.8817   -2.1912 H   0  0  0  0  0  0  0  0  0  0  0  0
    5.4039    1.9362   -2.5604 H   0  0  0  0  0  0  0  0  0  0  0  0
    7.6818    1.4609   -1.6605 H   0  0  0  0  0  0  0  0  0  0  0  0
    7.5277   -0.2903   -1.8611 H   0  0  0  0  0  0  0  0  0  0  0  0
    9.1521    0.1007   -0.1111 H   0  0  0  0  0  0  0  0  0  0  0  0
    8.0908    1.2496    0.7260 H   0  0  0  0  0  0  0  0  0  0  0  0
    5.7702   -1.5578    1.6096 H   0  0  0  0  0  0  0  0  0  0  0  0
    3.5438   -0.8371    1.1182 H   0  0  0  0  0  0  0  0  0  0  0  0
  1  2  1  0
  2  3  2  0
  3  4  1  0
  4  5  1  0
  5  6  1  0
  5  7  1  0
  5  8  1  0
  4  9  1  0
  9 10  1  0
 10 11  2  0
 11 12  1  0
 12 13  1  0
 12 14  1  0
 11 15  1  0
 15 16  2  0
 16 17  1  0
 17 18  2  0
 17 19  1  0
 19 20  1  0
 20 21  1  0
 21 22  2  0
 22 23  1  0
 23 24  1  0
 24 25  1  0
 25 26  1  0
 26 27  2  0
 26 28  1  0
 28 29  1  0
 29 30  1  0
 16 31  1  0
 31  2  1  0
 31  9  2  0
 30 20  2  0
 29 23  2  0
  1 32  1  0
  1 33  1  0
  1 34  1  0
  6 35  1  0
  6 36  1  0
  6 37  1  0
  7 38  1  0
  7 39  1  0
  7 40  1  0
  8 41  1  0
  8 42  1  0
  8 43  1  0
 12 44  1  0
 13 45  1  0
 13 46  1  0
 13 47  1  0
 14 48  1  0
 14 49  1  0
 14 50  1  0
 15 51  1  0
 19 52  1  0
 21 53  1  0
 22 54  1  0
 24 55  1  0
 24 56  1  0
 25 57  1  0
 25 58  1  0
 28 59  1  0
 30 60  1  0
M  END
$$$$
OCNT-2309399
     RDKit          3D

 59 61  0  0  0  0  0  0  0  0999 V2000
   -5.4264   -1.3014   -3.2062 C   0  0  0  0  0  0  0  0  0  0  0  0
   -4.5035   -1.4395   -2.0341 C   0  0  0  0  0  0  0  0  0  0  0  0
   -4.2381   -2.7016   -1.4914 C   0  0  0  0  0  0  0  0  0  0  0  0
   -3.3722   -2.8342   -0.4056 C   0  0  0  0  0  0  0  0  0  0  0  0
   -2.7486   -1.7080    0.1347 C   0  0  0  0  0  0  0  0  0  0  0  0
   -2.9725   -0.4303   -0.4083 C   0  0  0  0  0  0  0  0  0  0  0  0
   -2.2884    0.8243    0.1328 C   0  0  0  0  0  0  0  0  0  0  0  0
   -0.8424    0.6131    0.2102 N   0  0  0  0  0  0  0  0  0  0  0  0
    0.0439    1.3393   -0.5392 C   0  0  0  0  0  0  0  0  0  0  0  0
   -0.3073    2.2319   -1.3057 O   0  0  0  0  0  0  0  0  0  0  0  0
    1.3766    1.0032   -0.3586 N   0  0  0  0  0  0  0  0  0  0  0  0
    1.9076    0.1442    0.7057 C   0  0  0  0  0  0  0  0  0  0  0  0
    3.1540    0.7531    1.3406 C   0  0  0  0  0  0  0  0  0  0  0  0
    4.2583    1.0817    0.3135 C   0  0  0  0  0  0  0  0  0  0  0  0
    5.5357    0.2372    0.4971 C   0  0  0  0  0  0  0  0  0  0  0  0
    5.4198   -1.1665    0.1476 N   0  0  0  0  0  0  0  0  0  0  0  0
    5.9624   -1.7825   -0.9469 C   0  0  0  0  0  0  0  0  0  0  0  0
    5.6229   -3.1135   -0.8447 C   0  0  0  0  0  0  0  0  0  0  0  0
    4.8881   -3.2005    0.3527 C   0  0  0  0  0  0  0  0  0  0  0  0
    4.7597   -2.0160    0.9606 N   0  0  0  0  0  0  0  0  0  0  0  0
    3.7364    1.0520   -1.1314 C   0  0  0  0  0  0  0  0  0  0  0  0
    2.3467    1.6693   -1.2231 C   0  0  0  0  0  0  0  0  0  0  0  0
   -2.8699    1.3912    1.4792 C   0  0  0  0  0  0  0  0  0  0  0  0
   -2.1531    2.7184    1.8260 C   0  0  0  0  0  0  0  0  0  0  0  0
   -4.3733    1.7074    1.3256 C   0  0  0  0  0  0  0  0  0  0  0  0
   -2.6911    0.4363    2.6742 C   0  0  0  0  0  0  0  0  0  0  0  0
   -3.8572   -0.3155   -1.4984 C   0  0  0  0  0  0  0  0  0  0  0  0
   -6.3123   -1.9314   -3.0704 H   0  0  0  0  0  0  0  0  0  0  0  0
   -4.9108   -1.5965   -4.1266 H   0  0  0  0  0  0  0  0  0  0  0  0
   -5.7737   -0.2663   -3.3217 H   0  0  0  0  0  0  0  0  0  0  0  0
   -4.7128   -3.5891   -1.9031 H   0  0  0  0  0  0  0  0  0  0  0  0
   -3.1775   -3.8181    0.0138 H   0  0  0  0  0  0  0  0  0  0  0  0
   -2.0858   -1.8429    0.9862 H   0  0  0  0  0  0  0  0  0  0  0  0
   -2.4524    1.6099   -0.6168 H   0  0  0  0  0  0  0  0  0  0  0  0
   -0.5373   -0.3160    0.4403 H   0  0  0  0  0  0  0  0  0  0  0  0
    2.1307   -0.8286    0.2559 H   0  0  0  0  0  0  0  0  0  0  0  0
    1.1640   -0.0172    1.4882 H   0  0  0  0  0  0  0  0  0  0  0  0
    2.8574    1.6898    1.8350 H   0  0  0  0  0  0  0  0  0  0  0  0
    3.5254    0.1034    2.1416 H   0  0  0  0  0  0  0  0  0  0  0  0
    4.5613    2.1201    0.5214 H   0  0  0  0  0  0  0  0  0  0  0  0
    5.8814    0.2781    1.5366 H   0  0  0  0  0  0  0  0  0  0  0  0
    6.3400    0.6565   -0.1193 H   0  0  0  0  0  0  0  0  0  0  0  0
    6.5271   -1.2349   -1.6904 H   0  0  0  0  0  0  0  0  0  0  0  0
    5.8798   -3.9064   -1.5295 H   0  0  0  0  0  0  0  0  0  0  0  0
    4.4434   -4.0773    0.8075 H   0  0  0  0  0  0  0  0  0  0  0  0
    3.6833    0.0224   -1.5041 H   0  0  0  0  0  0  0  0  0  0  0  0
    4.4295    1.5915   -1.7873 H   0  0  0  0  0  0  0  0  0  0  0  0
    2.3774    2.7268   -0.9393 H   0  0  0  0  0  0  0  0  0  0  0  0
    1.9874    1.6176   -2.2563 H   0  0  0  0  0  0  0  0  0  0  0  0
   -1.0918    2.5579    2.0561 H   0  0  0  0  0  0  0  0  0  0  0  0
   -2.2184    3.4321    0.9961 H   0  0  0  0  0  0  0  0  0  0  0  0
   -2.6053    3.1942    2.7067 H   0  0  0  0  0  0  0  0  0  0  0  0
   -4.7680    2.1882    2.2281 H   0  0  0  0  0  0  0  0  0  0  0  0
   -4.5470    2.3907    0.4865 H   0  0  0  0  0  0  0  0  0  0  0  0
   -4.9636    0.8029    1.1557 H   0  0  0  0  0  0  0  0  0  0  0  0
   -3.2975   -0.4676    2.5670 H   0  0  0  0  0  0  0  0  0  0  0  0
   -1.6461    0.1364    2.8016 H   0  0  0  0  0  0  0  0  0  0  0  0
   -3.0071    0.9161    3.6061 H   0  0  0  0  0  0  0  0  0  0  0  0
   -4.0490    0.6646   -1.9305 H   0  0  0  0  0  0  0  0  0  0  0  0
  1  2  1  0
  2  3  1  0
  3  4  2  0
  4  5  1  0
  5  6  2  0
  6  7  1  0
  7  8  1  0
  8  9  1  0
  9 10  2  0
  9 11  1  0
 11 12  1  0
 12 13  1  0
 13 14  1  0
 14 15  1  0
 15 16  1  0
 16 17  1  0
 17 18  2  0
 18 19  1  0
 19 20  2  0
 14 21  1  0
 21 22  1  0
  7 23  1  0
 23 24  1  0
 23 25  1  0
 23 26  1  0
  6 27  1  0
 27  2  2  0
 22 11  1  0
 20 16  1  0
  1 28  1  0
  1 29  1  0
  1 30  1  0
  3 31  1  0
  4 32  1  0
  5 33  1  0
  7 34  1  0
  8 35  1  0
 12 36  1  0
 12 37  1  0
 13 38  1  0
 13 39  1  0
 14 40  1  0
 15 41  1  0
 15 42  1  0
 17 43  1  0
 18 44  1  0
 19 45  1  0
 21 46  1  0
 21 47  1  0
 22 48  1  0
 22 49  1  0
 24 50  1  0
 24 51  1  0
 24 52  1  0
 25 53  1  0
 25 54  1  0
 25 55  1  0
 26 56  1  0
 26 57  1  0
 26 58  1  0
 27 59  1  0
M  END
$$$$
OCNT-2309430
     RDKit          3D

 51 53  0  0  0  0  0  0  0  0999 V2000
    5.7542   -0.1491    2.0140 C   0  0  0  0  0  0  0  0  0  0  0  0
    5.0951    0.2830    0.7388 C   0  0  0  0  0  0  0  0  0  0  0  0
    5.8356    0.9028   -0.2690 C   0  0  0  0  0  0  0  0  0  0  0  0
    5.1998    1.2694   -1.4518 C   0  0  0  0  0  0  0  0  0  0  0  0
    5.9744    1.9378   -2.5487 C   0  0  0  0  0  0  0  0  0  0  0  0
    3.8865    1.0381   -1.6760 N   0  0  0  0  0  0  0  0  0  0  0  0
    3.1694    0.4198   -0.7014 C   0  0  0  0  0  0  0  0  0  0  0  0
    1.7478    0.1665   -0.9624 C   0  0  0  0  0  0  0  0  0  0  0  0
    1.1316    0.4359   -2.1261 N   0  0  0  0  0  0  0  0  0  0  0  0
   -0.1861    0.0443   -1.9100 O   0  0  0  0  0  0  0  0  0  0  0  0
   -0.2467   -0.4389   -0.6388 C   0  0  0  0  0  0  0  0  0  0  0  0
   -1.5713   -0.9236   -0.1285 C   0  0  0  0  0  0  0  0  0  0  0  0
   -2.3601   -1.7369   -1.1771 C   0  0  0  0  0  0  0  0  0  0  0  0
   -3.7346   -2.2544   -0.7022 C   0  0  0  0  0  0  0  0  0  0  0  0
   -3.6311   -3.1650    0.5222 C   0  0  0  0  0  0  0  0  0  0  0  0
   -4.4260   -3.0041   -1.8448 C   0  0  0  0  0  0  0  0  0  0  0  0
   -2.2995    0.1986    0.4911 N   0  0  0  0  0  0  0  0  0  0  0  0
   -2.1666    0.4125    1.9283 C   0  0  0  0  0  0  0  0  0  0  0  0
   -1.6600    1.8179    2.2217 C   0  0  0  0  0  0  0  0  0  0  0  0
   -2.4760    2.8913    1.4977 C   0  0  0  0  0  0  0  0  0  0  0  0
   -3.5044    2.3197    0.5277 C   0  0  0  0  0  0  0  0  0  0  0  0
   -2.9243    1.1749   -0.2771 C   0  0  0  0  0  0  0  0  0  0  0  0
   -3.0430    1.1251   -1.4964 O   0  0  0  0  0  0  0  0  0  0  0  0
    0.9087   -0.3909   -0.0098 N   0  0  0  0  0  0  0  0  0  0  0  0
    3.7411    0.0280    0.5088 C   0  0  0  0  0  0  0  0  0  0  0  0
    6.2357   -1.1221    1.8762 H   0  0  0  0  0  0  0  0  0  0  0  0
    5.0248   -0.2303    2.8271 H   0  0  0  0  0  0  0  0  0  0  0  0
    6.5081    0.5822    2.3261 H   0  0  0  0  0  0  0  0  0  0  0  0
    6.8955    1.1005   -0.1357 H   0  0  0  0  0  0  0  0  0  0  0  0
    6.7574    1.2681   -2.9187 H   0  0  0  0  0  0  0  0  0  0  0  0
    5.3199    2.1952   -3.3885 H   0  0  0  0  0  0  0  0  0  0  0  0
    6.4335    2.8611   -2.1800 H   0  0  0  0  0  0  0  0  0  0  0  0
   -1.3366   -1.6285    0.6800 H   0  0  0  0  0  0  0  0  0  0  0  0
   -1.7438   -2.5941   -1.4838 H   0  0  0  0  0  0  0  0  0  0  0  0
   -2.5042   -1.1498   -2.0921 H   0  0  0  0  0  0  0  0  0  0  0  0
   -4.3690   -1.3996   -0.4393 H   0  0  0  0  0  0  0  0  0  0  0  0
   -2.9501   -4.0029    0.3384 H   0  0  0  0  0  0  0  0  0  0  0  0
   -3.2706   -2.6166    1.3980 H   0  0  0  0  0  0  0  0  0  0  0  0
   -4.6120   -3.5778    0.7821 H   0  0  0  0  0  0  0  0  0  0  0  0
   -3.8532   -3.8892   -2.1433 H   0  0  0  0  0  0  0  0  0  0  0  0
   -5.4262   -3.3336   -1.5441 H   0  0  0  0  0  0  0  0  0  0  0  0
   -4.5382   -2.3593   -2.7239 H   0  0  0  0  0  0  0  0  0  0  0  0
   -3.1555    0.2596    2.3773 H   0  0  0  0  0  0  0  0  0  0  0  0
   -1.4877   -0.3267    2.3667 H   0  0  0  0  0  0  0  0  0  0  0  0
   -0.6132    1.8968    1.8998 H   0  0  0  0  0  0  0  0  0  0  0  0
   -1.6670    2.0034    3.3022 H   0  0  0  0  0  0  0  0  0  0  0  0
   -2.9857    3.5301    2.2293 H   0  0  0  0  0  0  0  0  0  0  0  0
   -1.7850    3.5457    0.9513 H   0  0  0  0  0  0  0  0  0  0  0  0
   -3.8433    3.1052   -0.1570 H   0  0  0  0  0  0  0  0  0  0  0  0
   -4.3866    1.9506    1.0640 H   0  0  0  0  0  0  0  0  0  0  0  0
    3.1387   -0.4710    1.2631 H   0  0  0  0  0  0  0  0  0  0  0  0
  1  2  1  0
  2  3  1  0
  3  4  2  0
  4  5  1  0
  4  6  1  0
  6  7  2  0
  7  8  1  0
  8  9  2  0
  9 10  1  0
 10 11  1  0
 11 12  1  0
 12 13  1  0
 13 14  1  0
 14 15  1  0
 14 16  1  0
 12 17  1  0
 17 18  1  0
 18 19  1  0
 19 20  1  0
 20 21  1  0
 21 22  1  0
 22 23  2  0
 11 24  2  0
  7 25  1  0
 25  2  2  0
 24  8  1  0
 22 17  1  0
  1 26  1  0
  1 27  1  0
  1 28  1  0
  3 29  1  0
  5 30  1  0
  5 31  1  0
  5 32  1  0
 12 33  1  0
 13 34  1  0
 13 35  1  0
 14 36  1  0
 15 37  1  0
 15 38  1  0
 15 39  1  0
 16 40  1  0
 16 41  1  0
 16 42  1  0
 18 43  1  0
 18 44  1  0
 19 45  1  0
 19 46  1  0
 20 47  1  0
 20 48  1  0
 21 49  1  0
 21 50  1  0
 25 51  1  0
M  END
$$$$
OCNT-2309431
     RDKit          3D

 42 45  0  0  0  0  0  0  0  0999 V2000
   -1.6356   -0.7656   -3.9158 O   0  0  0  0  0  0  0  0  0  0  0  0
   -0.9708   -1.0739   -2.9271 C   0  0  0  0  0  0  0  0  0  0  0  0
    0.3784   -1.7498   -3.0781 C   0  0  0  0  0  0  0  0  0  0  0  0
    1.4691   -0.8666   -2.5765 C   0  0  0  0  0  0  0  0  0  0  0  0
    2.1288    0.1162   -3.2883 C   0  0  0  0  0  0  0  0  0  0  0  0
    3.2769    0.8914   -2.2888 S   0  0  0  0  0  0  0  0  0  0  0  0
    2.8211   -0.1222   -0.9638 C   0  0  0  0  0  0  0  0  0  0  0  0
    3.4477   -0.0080    0.3715 C   0  0  0  0  0  0  0  0  0  0  0  0
    4.4866    0.8899    0.6695 C   0  0  0  0  0  0  0  0  0  0  0  0
    5.0399    0.9551    1.9557 C   0  0  0  0  0  0  0  0  0  0  0  0
    4.5770    0.1181    2.9799 C   0  0  0  0  0  0  0  0  0  0  0  0
    5.1641    0.1955    4.3713 C   0  0  0  0  0  0  0  0  0  0  0  0
    5.3908   -1.0320    4.9190 F   0  0  0  0  0  0  0  0  0  0  0  0
    4.3525    0.8513    5.2466 F   0  0  0  0  0  0  0  0  0  0  0  0
    6.3607    0.8505    4.4142 F   0  0  0  0  0  0  0  0  0  0  0  0
    3.5379   -0.7780    2.6949 C   0  0  0  0  0  0  0  0  0  0  0  0
    2.9864   -0.8406    1.4103 C   0  0  0  0  0  0  0  0  0  0  0  0
    1.8730   -0.9967   -1.2565 N   0  0  0  0  0  0  0  0  0  0  0  0
   -1.3354   -0.8914   -1.6114 N   0  0  0  0  0  0  0  0  0  0  0  0
   -2.5121   -0.3382   -1.1766 C   0  0  0  0  0  0  0  0  0  0  0  0
   -2.7181   -0.2315    0.1503 N   0  0  0  0  0  0  0  0  0  0  0  0
   -3.9255    0.3149    0.2039 N   0  0  0  0  0  0  0  0  0  0  0  0
   -4.7342    0.6577    1.3578 C   0  0  0  0  0  0  0  0  0  0  0  0
   -5.7980    1.5666    0.7077 C   0  0  0  0  0  0  0  0  0  0  0  0
   -5.8451    1.1643   -0.7929 C   0  0  0  0  0  0  0  0  0  0  0  0
   -4.5098    0.5751   -0.9862 C   0  0  0  0  0  0  0  0  0  0  0  0
   -3.6164    0.1628   -1.9348 C   0  0  0  0  0  0  0  0  0  0  0  0
    0.3657   -2.7003   -2.5286 H   0  0  0  0  0  0  0  0  0  0  0  0
    0.5354   -1.9895   -4.1395 H   0  0  0  0  0  0  0  0  0  0  0  0
    1.9836    0.4088   -4.3210 H   0  0  0  0  0  0  0  0  0  0  0  0
    4.8878    1.5631   -0.0848 H   0  0  0  0  0  0  0  0  0  0  0  0
    5.8397    1.6726    2.1550 H   0  0  0  0  0  0  0  0  0  0  0  0
    3.1510   -1.4402    3.4716 H   0  0  0  0  0  0  0  0  0  0  0  0
    2.1808   -1.5540    1.2201 H   0  0  0  0  0  0  0  0  0  0  0  0
   -0.7028   -1.1532   -0.8626 H   0  0  0  0  0  0  0  0  0  0  0  0
   -4.1269    1.1691    2.1045 H   0  0  0  0  0  0  0  0  0  0  0  0
   -5.1638   -0.2717    1.7484 H   0  0  0  0  0  0  0  0  0  0  0  0
   -6.7773    1.4869    1.1954 H   0  0  0  0  0  0  0  0  0  0  0  0
   -5.4742    2.6127    0.7902 H   0  0  0  0  0  0  0  0  0  0  0  0
   -6.0370    2.0289   -1.4382 H   0  0  0  0  0  0  0  0  0  0  0  0
   -6.6220    0.4120   -0.9562 H   0  0  0  0  0  0  0  0  0  0  0  0
   -3.7301    0.1981   -3.0103 H   0  0  0  0  0  0  0  0  0  0  0  0
  1  2  2  0
  2  3  1  0
  3  4  1  0
  4  5  2  0
  5  6  1  0
  6  7  1  0
  7  8  1  0
  8  9  1  0
  9 10  2  0
 10 11  1  0
 11 12  1  0
 12 13  1  0
 12 14  1  0
 12 15  1  0
 11 16  2  0
 16 17  1  0
  7 18  2  0
  2 19  1  0
 19 20  1  0
 20 21  2  0
 21 22  1  0
 22 23  1  0
 23 24  1  0
 24 25  1  0
 25 26  1  0
 26 27  2  0
 18  4  1  0
 27 20  1  0
 17  8  2  0
 26 22  1  0
  3 28  1  0
  3 29  1  0
  5 30  1  0
  9 31  1  0
 10 32  1  0
 16 33  1  0
 17 34  1  0
 19 35  1  0
 23 36  1  0
 23 37  1  0
 24 38  1  0
 24 39  1  0
 25 40  1  0
 25 41  1  0
 27 42  1  0
M  END
$$$$
OCNT-2309443
     RDKit          3D

 53 55  0  0  0  0  0  0  0  0999 V2000
   -2.8389   -2.3840    1.0889 C   0  0  0  0  0  0  0  0  0  0  0  0
   -3.9977   -1.4272    0.9759 C   0  0  0  0  0  0  0  0  0  0  0  0
   -5.1087   -1.6287    1.8134 C   0  0  0  0  0  0  0  0  0  0  0  0
   -6.1989   -0.7712    1.7548 C   0  0  0  0  0  0  0  0  0  0  0  0
   -7.2480   -0.9798    2.5609 F   0  0  0  0  0  0  0  0  0  0  0  0
   -6.2138    0.2993    0.8766 C   0  0  0  0  0  0  0  0  0  0  0  0
   -5.1169    0.5199    0.0422 C   0  0  0  0  0  0  0  0  0  0  0  0
   -3.9920   -0.3328    0.0709 C   0  0  0  0  0  0  0  0  0  0  0  0
   -2.7737   -0.0637   -0.8285 C   0  0  0  0  0  0  0  0  0  0  0  0
   -3.0893    0.8097   -2.0833 C   0  0  0  0  0  0  0  0  0  0  0  0
   -3.7441    0.3997   -3.0425 O   0  0  0  0  0  0  0  0  0  0  0  0
   -2.7595    2.1496   -2.0382 N   0  0  0  0  0  0  0  0  0  0  0  0
   -1.7876    2.6891   -1.1074 C   0  0  0  0  0  0  0  0  0  0  0  0
   -1.7983    1.9442    0.2293 C   0  0  0  0  0  0  0  0  0  0  0  0
   -1.6639    0.5064   -0.0303 N   0  0  0  0  0  0  0  0  0  0  0  0
   -0.3986   -0.0558   -0.2333 C   0  0  0  0  0  0  0  0  0  0  0  0
   -0.1968   -0.9130   -1.0857 O   0  0  0  0  0  0  0  0  0  0  0  0
    0.5504    0.4293    0.6415 N   0  0  0  0  0  0  0  0  0  0  0  0
    1.9420    0.1981    0.6138 C   0  0  0  0  0  0  0  0  0  0  0  0
    2.6184   -0.3465   -0.4863 C   0  0  0  0  0  0  0  0  0  0  0  0
    4.0133   -0.5432   -0.4971 C   0  0  0  0  0  0  0  0  0  0  0  0
    4.6892   -1.1143   -1.5840 N   0  0  0  0  0  0  0  0  0  0  0  0
    6.0287   -0.6060   -1.8850 C   0  0  0  0  0  0  0  0  0  0  0  0
    3.9210   -1.5761   -2.7404 C   0  0  0  0  0  0  0  0  0  0  0  0
    4.7058   -0.1743    0.6685 C   0  0  0  0  0  0  0  0  0  0  0  0
    4.0597    0.3916    1.7811 C   0  0  0  0  0  0  0  0  0  0  0  0
    4.8421    0.7542    3.0157 C   0  0  0  0  0  0  0  0  0  0  0  0
    4.3247    1.8346    3.6680 F   0  0  0  0  0  0  0  0  0  0  0  0
    6.1431    1.0667    2.7599 F   0  0  0  0  0  0  0  0  0  0  0  0
    4.8687   -0.2537    3.9299 F   0  0  0  0  0  0  0  0  0  0  0  0
    2.6724    0.5722    1.7419 C   0  0  0  0  0  0  0  0  0  0  0  0
   -1.9705   -1.8804    1.5227 H   0  0  0  0  0  0  0  0  0  0  0  0
   -3.0843   -3.2328    1.7369 H   0  0  0  0  0  0  0  0  0  0  0  0
   -2.5792   -2.7993    0.1105 H   0  0  0  0  0  0  0  0  0  0  0  0
   -5.1379   -2.4560    2.5173 H   0  0  0  0  0  0  0  0  0  0  0  0
   -7.0776    0.9553    0.8427 H   0  0  0  0  0  0  0  0  0  0  0  0
   -5.1622    1.3691   -0.6364 H   0  0  0  0  0  0  0  0  0  0  0  0
   -2.4718   -1.0285   -1.2523 H   0  0  0  0  0  0  0  0  0  0  0  0
   -2.9420    2.6389   -2.9067 H   0  0  0  0  0  0  0  0  0  0  0  0
   -2.0104    3.7506   -0.9647 H   0  0  0  0  0  0  0  0  0  0  0  0
   -0.8065    2.6033   -1.5877 H   0  0  0  0  0  0  0  0  0  0  0  0
   -0.9934    2.3245    0.8632 H   0  0  0  0  0  0  0  0  0  0  0  0
   -2.7401    2.1117    0.7623 H   0  0  0  0  0  0  0  0  0  0  0  0
    0.1715    0.7719    1.5121 H   0  0  0  0  0  0  0  0  0  0  0  0
    2.0448   -0.6071   -1.3683 H   0  0  0  0  0  0  0  0  0  0  0  0
    6.4030   -1.0112   -2.8318 H   0  0  0  0  0  0  0  0  0  0  0  0
    6.7510   -0.9073   -1.1193 H   0  0  0  0  0  0  0  0  0  0  0  0
    6.0255    0.4863   -1.9746 H   0  0  0  0  0  0  0  0  0  0  0  0
    3.1235   -2.2654   -2.4408 H   0  0  0  0  0  0  0  0  0  0  0  0
    3.4930   -0.7323   -3.2929 H   0  0  0  0  0  0  0  0  0  0  0  0
    4.5625   -2.1376   -3.4293 H   0  0  0  0  0  0  0  0  0  0  0  0
    5.7779   -0.3474    0.7382 H   0  0  0  0  0  0  0  0  0  0  0  0
    2.1705    0.9995    2.6078 H   0  0  0  0  0  0  0  0  0  0  0  0
  1  2  1  0
  2  3  1  0
  3  4  2  0
  4  5  1  0
  4  6  1  0
  6  7  2  0
  7  8  1  0
  8  9  1  0
  9 10  1  0
 10 11  2  0
 10 12  1  0
 12 13  1  0
 13 14  1  0
 14 15  1  0
 15 16  1  0
 16 17  2  0
 16 18  1  0
 18 19  1  0
 19 20  2  0
 20 21  1  0
 21 22  1  0
 22 23  1  0
 22 24  1  0
 21 25  2  0
 25 26  1  0
 26 27  1  0
 27 28  1  0
 27 29  1  0
 27 30  1  0
 26 31  2  0
  8  2  2  0
 15  9  1  0
 31 19  1  0
  1 32  1  0
  1 33  1  0
  1 34  1  0
  3 35  1  0
  6 36  1  0
  7 37  1  0
  9 38  1  0
 12 39  1  0
 13 40  1  0
 13 41  1  0
 14 42  1  0
 14 43  1  0
 18 44  1  0
 20 45  1  0
 23 46  1  0
 23 47  1  0
 23 48  1  0
 24 49  1  0
 24 50  1  0
 24 51  1  0
 25 52  1  0
 31 53  1  0
M  END
$$$$
OCNT-2309444
     RDKit          3D

 51 54  0  0  0  0  0  0  0  0999 V2000
    7.6835    0.5524    1.3717 N   0  0  0  0  0  0  0  0  0  0  0  0
    6.9001    0.7632    0.2584 C   0  0  0  0  0  0  0  0  0  0  0  0
    7.4668    1.3565   -0.7958 N   0  0  0  0  0  0  0  0  0  0  0  0
    6.6691    1.5792   -1.8559 C   0  0  0  0  0  0  0  0  0  0  0  0
    5.3350    1.2478   -1.8861 C   0  0  0  0  0  0  0  0  0  0  0  0
    4.8327    0.6604   -0.7399 C   0  0  0  0  0  0  0  0  0  0  0  0
    3.3842    0.2255   -0.6791 C   0  0  0  0  0  0  0  0  0  0  0  0
    3.2112   -1.1954   -1.2457 C   0  0  0  0  0  0  0  0  0  0  0  0
    2.0624   -1.9649   -0.5929 C   0  0  0  0  0  0  0  0  0  0  0  0
    0.9142   -1.0505   -0.1689 C   0  0  0  0  0  0  0  0  0  0  0  0
    1.3618    0.0099    0.7370 N   0  0  0  0  0  0  0  0  0  0  0  0
    0.5444    0.6068    1.7028 C   0  0  0  0  0  0  0  0  0  0  0  0
    1.0240    1.2509    2.6356 O   0  0  0  0  0  0  0  0  0  0  0  0
   -0.9075    0.4661    1.5796 C   0  0  0  0  0  0  0  0  0  0  0  0
   -1.8124    0.7459    2.5803 C   0  0  0  0  0  0  0  0  0  0  0  0
   -3.0691    0.5481    2.0980 O   0  0  0  0  0  0  0  0  0  0  0  0
   -2.8738    0.1762    0.7971 C   0  0  0  0  0  0  0  0  0  0  0  0
   -4.0890   -0.1026   -0.0259 C   0  0  0  0  0  0  0  0  0  0  0  0
   -5.0315    1.1165   -0.0881 C   0  0  0  0  0  0  0  0  0  0  0  0
   -6.5072    0.7371   -0.2482 C   0  0  0  0  0  0  0  0  0  0  0  0
   -6.6744   -0.5202   -1.0910 C   0  0  0  0  0  0  0  0  0  0  0  0
   -5.9787   -1.7308   -0.4615 C   0  0  0  0  0  0  0  0  0  0  0  0
   -4.8170   -1.3592    0.4648 C   0  0  0  0  0  0  0  0  0  0  0  0
   -1.6076    0.1043    0.4355 N   0  0  0  0  0  0  0  0  0  0  0  0
    2.7897    0.3398    0.7323 C   0  0  0  0  0  0  0  0  0  0  0  0
    5.6125    0.4106    0.3358 N   0  0  0  0  0  0  0  0  0  0  0  0
    7.0963    0.5374    2.1944 H   0  0  0  0  0  0  0  0  0  0  0  0
    8.4525    1.2087    1.3672 H   0  0  0  0  0  0  0  0  0  0  0  0
    7.1509    2.0475   -2.7107 H   0  0  0  0  0  0  0  0  0  0  0  0
    4.7262    1.4371   -2.7617 H   0  0  0  0  0  0  0  0  0  0  0  0
    2.8037    0.9104   -1.3161 H   0  0  0  0  0  0  0  0  0  0  0  0
    4.1288   -1.7915   -1.1448 H   0  0  0  0  0  0  0  0  0  0  0  0
    3.0288   -1.1188   -2.3266 H   0  0  0  0  0  0  0  0  0  0  0  0
    1.6987   -2.7386   -1.2762 H   0  0  0  0  0  0  0  0  0  0  0  0
    2.4497   -2.4875    0.2961 H   0  0  0  0  0  0  0  0  0  0  0  0
    0.4737   -0.5686   -1.0506 H   0  0  0  0  0  0  0  0  0  0  0  0
    0.1470   -1.6573    0.3237 H   0  0  0  0  0  0  0  0  0  0  0  0
   -1.7305    1.0802    3.6032 H   0  0  0  0  0  0  0  0  0  0  0  0
   -3.7398   -0.3062   -1.0508 H   0  0  0  0  0  0  0  0  0  0  0  0
   -4.7251    1.7450   -0.9375 H   0  0  0  0  0  0  0  0  0  0  0  0
   -4.9378    1.7564    0.7992 H   0  0  0  0  0  0  0  0  0  0  0  0
   -6.9508    0.5678    0.7445 H   0  0  0  0  0  0  0  0  0  0  0  0
   -7.0559    1.5757   -0.6970 H   0  0  0  0  0  0  0  0  0  0  0  0
   -6.2564   -0.3378   -2.0884 H   0  0  0  0  0  0  0  0  0  0  0  0
   -7.7380   -0.7423   -1.2367 H   0  0  0  0  0  0  0  0  0  0  0  0
   -5.6166   -2.3813   -1.2686 H   0  0  0  0  0  0  0  0  0  0  0  0
   -6.7053   -2.3252    0.1071 H   0  0  0  0  0  0  0  0  0  0  0  0
   -5.2060   -1.1894    1.4825 H   0  0  0  0  0  0  0  0  0  0  0  0
   -4.1270   -2.2121    0.5399 H   0  0  0  0  0  0  0  0  0  0  0  0
    3.2835   -0.3382    1.4422 H   0  0  0  0  0  0  0  0  0  0  0  0
    2.9263    1.3601    1.1158 H   0  0  0  0  0  0  0  0  0  0  0  0
  1  2  1  0
  2  3  2  0
  3  4  1  0
  4  5  2  0
  5  6  1  0
  6  7  1  0
  7  8  1  0
  8  9  1  0
  9 10  1  0
 10 11  1  0
 11 12  1  0
 12 13  2  0
 12 14  1  0
 14 15  2  0
 15 16  1  0
 16 17  1  0
 17 18  1  0
 18 19  1  0
 19 20  1  0
 20 21  1  0
 21 22  1  0
 22 23  1  0
 17 24  2  0
 11 25  1  0
  6 26  2  0
 26  2  1  0
 25  7  1  0
 24 14  1  0
 23 18  1  0
  1 27  1  0
  1 28  1  0
  4 29  1  0
  5 30  1  0
  7 31  1  0
  8 32  1  0
  8 33  1  0
  9 34  1  0
  9 35  1  0
 10 36  1  0
 10 37  1  0
 15 38  1  0
 18 39  1  0
 19 40  1  0
 19 41  1  0
 20 42  1  0
 20 43  1  0
 21 44  1  0
 21 45  1  0
 22 46  1  0
 22 47  1  0
 23 48  1  0
 23 49  1  0
 25 50  1  0
 25 51  1  0
M  END
$$$$
OCNT-2309448
     RDKit          3D

 47 50  0  0  0  0  0  0  0  0999 V2000
   -4.7051   -1.3617   -0.5101 O   0  0  0  0  0  0  0  0  0  0  0  0
   -4.3400   -0.0223   -0.1185 C   0  0  0  0  0  0  0  0  0  0  0  0
   -2.8426    0.0414   -0.0937 C   0  0  0  0  0  0  0  0  0  0  0  0
   -1.9758   -0.9426   -0.2035 N   0  0  0  0  0  0  0  0  0  0  0  0
   -0.7658   -0.2870   -0.0810 C   0  0  0  0  0  0  0  0  0  0  0  0
    0.5103   -0.9919   -0.1485 C   0  0  0  0  0  0  0  0  0  0  0  0
    0.5422   -2.3759   -0.3655 C   0  0  0  0  0  0  0  0  0  0  0  0
    1.7597   -3.0557   -0.4293 C   0  0  0  0  0  0  0  0  0  0  0  0
    2.9618   -2.3614   -0.2759 C   0  0  0  0  0  0  0  0  0  0  0  0
    2.9497   -0.9838   -0.0591 C   0  0  0  0  0  0  0  0  0  0  0  0
    4.0476   -0.1851    0.1040 O   0  0  0  0  0  0  0  0  0  0  0  0
    5.3240   -0.8237    0.1101 C   0  0  0  0  0  0  0  0  0  0  0  0
    6.3820    0.2256    0.3036 C   0  0  0  0  0  0  0  0  0  0  0  0
    6.5294    1.2872   -0.5978 C   0  0  0  0  0  0  0  0  0  0  0  0
    7.5323    2.2305   -0.3959 C   0  0  0  0  0  0  0  0  0  0  0  0
    8.3631    2.0783    0.7055 C   0  0  0  0  0  0  0  0  0  0  0  0
    8.2562    1.0666    1.5966 N   0  0  0  0  0  0  0  0  0  0  0  0
    7.2679    0.1690    1.3782 C   0  0  0  0  0  0  0  0  0  0  0  0
    1.7258   -0.3074    0.0016 C   0  0  0  0  0  0  0  0  0  0  0  0
   -0.8855    1.0385    0.1087 N   0  0  0  0  0  0  0  0  0  0  0  0
   -2.2597    1.2569    0.1043 O   0  0  0  0  0  0  0  0  0  0  0  0
   -4.9302    0.9431   -1.1579 C   0  0  0  0  0  0  0  0  0  0  0  0
   -6.4598    0.9454   -1.1429 C   0  0  0  0  0  0  0  0  0  0  0  0
   -7.0066    1.2253    0.2537 C   0  0  0  0  0  0  0  0  0  0  0  0
   -6.4484    0.2476    1.2838 C   0  0  0  0  0  0  0  0  0  0  0  0
   -4.9190    0.2358    1.2816 C   0  0  0  0  0  0  0  0  0  0  0  0
   -3.9303   -1.9312   -0.3336 H   0  0  0  0  0  0  0  0  0  0  0  0
   -0.3830   -2.9363   -0.4875 H   0  0  0  0  0  0  0  0  0  0  0  0
    1.7702   -4.1299   -0.5994 H   0  0  0  0  0  0  0  0  0  0  0  0
    3.8853   -2.9277   -0.3344 H   0  0  0  0  0  0  0  0  0  0  0  0
    5.3700   -1.5594    0.9241 H   0  0  0  0  0  0  0  0  0  0  0  0
    5.5111   -1.3280   -0.8464 H   0  0  0  0  0  0  0  0  0  0  0  0
    5.8599    1.3834   -1.4521 H   0  0  0  0  0  0  0  0  0  0  0  0
    7.6610    3.0647   -1.0791 H   0  0  0  0  0  0  0  0  0  0  0  0
    9.1600    2.7879    0.9070 H   0  0  0  0  0  0  0  0  0  0  0  0
    7.2114   -0.6235    2.1226 H   0  0  0  0  0  0  0  0  0  0  0  0
    1.7328    0.7683    0.1717 H   0  0  0  0  0  0  0  0  0  0  0  0
   -4.5958    0.6649   -2.1656 H   0  0  0  0  0  0  0  0  0  0  0  0
   -4.5755    1.9662   -0.9747 H   0  0  0  0  0  0  0  0  0  0  0  0
   -6.8314    1.7035   -1.8423 H   0  0  0  0  0  0  0  0  0  0  0  0
   -6.8358   -0.0227   -1.4966 H   0  0  0  0  0  0  0  0  0  0  0  0
   -6.7500    2.2516    0.5466 H   0  0  0  0  0  0  0  0  0  0  0  0
   -8.1002    1.1611    0.2400 H   0  0  0  0  0  0  0  0  0  0  0  0
   -6.8265   -0.7613    1.0745 H   0  0  0  0  0  0  0  0  0  0  0  0
   -6.8102    0.5190    2.2825 H   0  0  0  0  0  0  0  0  0  0  0  0
   -4.5797   -0.5398    1.9811 H   0  0  0  0  0  0  0  0  0  0  0  0
   -4.5567    1.1967    1.6710 H   0  0  0  0  0  0  0  0  0  0  0  0
  1  2  1  0
  2  3  1  0
  3  4  2  0
  4  5  1  0
  5  6  1  0
  6  7  2  0
  7  8  1  0
  8  9  2  0
  9 10  1  0
 10 11  1  0
 11 12  1  0
 12 13  1  0
 13 14  1  0
 14 15  2  0
 15 16  1  0
 16 17  2  0
 17 18  1  0
 10 19  2  0
  5 20  2  0
 20 21  1  0
  2 22  1  0
 22 23  1  0
 23 24  1  0
 24 25  1  0
 25 26  1  0
 26  2  1  0
 21  3  1  0
 19  6  1  0
 18 13  2  0
  1 27  1  0
  7 28  1  0
  8 29  1  0
  9 30  1  0
 12 31  1  0
 12 32  1  0
 14 33  1  0
 15 34  1  0
 16 35  1  0
 18 36  1  0
 19 37  1  0
 22 38  1  0
 22 39  1  0
 23 40  1  0
 23 41  1  0
 24 42  1  0
 24 43  1  0
 25 44  1  0
 25 45  1  0
 26 46  1  0
 26 47  1  0
M  END
$$$$
OCNT-2309449
     RDKit          3D

 43 45  0  0  0  0  0  0  0  0999 V2000
    0.0210   -3.1475    0.3854 C   0  0  0  0  0  0  0  0  0  0  0  0
   -0.5057   -1.9316    1.1402 C   0  0  0  0  0  0  0  0  0  0  0  0
   -1.9868   -1.6856    0.8210 C   0  0  0  0  0  0  0  0  0  0  0  0
   -2.1397   -0.1773    1.0394 C   0  0  0  0  0  0  0  0  0  0  0  0
   -3.3764    0.4372    0.4296 C   0  0  0  0  0  0  0  0  0  0  0  0
   -3.6580    0.3356   -0.9419 C   0  0  0  0  0  0  0  0  0  0  0  0
   -4.8078    0.9189   -1.4812 C   0  0  0  0  0  0  0  0  0  0  0  0
   -5.6865    1.6104   -0.6521 C   0  0  0  0  0  0  0  0  0  0  0  0
   -7.2412    2.4001   -1.3807 Br  0  0  0  0  0  0  0  0  0  0  0  0
   -5.4261    1.7234    0.7104 C   0  0  0  0  0  0  0  0  0  0  0  0
   -4.2760    1.1392    1.2475 C   0  0  0  0  0  0  0  0  0  0  0  0
   -0.8184    0.3669    0.4862 C   0  0  0  0  0  0  0  0  0  0  0  0
    0.1575   -0.6795    0.7731 N   0  0  0  0  0  0  0  0  0  0  0  0
    1.4941   -0.4744    1.0338 C   0  0  0  0  0  0  0  0  0  0  0  0
    2.2012   -1.3004    1.6017 O   0  0  0  0  0  0  0  0  0  0  0  0
    1.9708    0.7386    0.6104 N   0  0  0  0  0  0  0  0  0  0  0  0
    3.3753    1.0625    0.7258 C   0  0  0  0  0  0  0  0  0  0  0  0
    4.1187    0.7408   -0.5380 C   0  0  0  0  0  0  0  0  0  0  0  0
    4.3573    1.7102   -1.5169 C   0  0  0  0  0  0  0  0  0  0  0  0
    5.0379    1.3632   -2.6805 C   0  0  0  0  0  0  0  0  0  0  0  0
    5.4539    0.0511   -2.8309 C   0  0  0  0  0  0  0  0  0  0  0  0
    5.2342   -0.9145   -1.9145 N   0  0  0  0  0  0  0  0  0  0  0  0
    4.5699   -0.5511   -0.7925 C   0  0  0  0  0  0  0  0  0  0  0  0
    1.0624   -3.3616    0.6430 H   0  0  0  0  0  0  0  0  0  0  0  0
   -0.5701   -4.0371    0.6268 H   0  0  0  0  0  0  0  0  0  0  0  0
   -0.0215   -2.9908   -0.6982 H   0  0  0  0  0  0  0  0  0  0  0  0
   -0.3707   -2.0749    2.2196 H   0  0  0  0  0  0  0  0  0  0  0  0
   -2.2097   -1.9637   -0.2163 H   0  0  0  0  0  0  0  0  0  0  0  0
   -2.6496   -2.2711    1.4670 H   0  0  0  0  0  0  0  0  0  0  0  0
   -2.1463   -0.0038    2.1255 H   0  0  0  0  0  0  0  0  0  0  0  0
   -2.9867   -0.2010   -1.6094 H   0  0  0  0  0  0  0  0  0  0  0  0
   -5.0072    0.8261   -2.5456 H   0  0  0  0  0  0  0  0  0  0  0  0
   -6.1090    2.2609    1.3630 H   0  0  0  0  0  0  0  0  0  0  0  0
   -4.0905    1.2373    2.3156 H   0  0  0  0  0  0  0  0  0  0  0  0
   -0.8331    0.5069   -0.6002 H   0  0  0  0  0  0  0  0  0  0  0  0
   -0.5422    1.3153    0.9586 H   0  0  0  0  0  0  0  0  0  0  0  0
    1.4888    1.1330   -0.1815 H   0  0  0  0  0  0  0  0  0  0  0  0
    3.4376    2.1366    0.9341 H   0  0  0  0  0  0  0  0  0  0  0  0
    3.8270    0.5451    1.5798 H   0  0  0  0  0  0  0  0  0  0  0  0
    4.0210    2.7343   -1.3778 H   0  0  0  0  0  0  0  0  0  0  0  0
    5.2404    2.0976   -3.4518 H   0  0  0  0  0  0  0  0  0  0  0  0
    5.9900   -0.2688   -3.7197 H   0  0  0  0  0  0  0  0  0  0  0  0
    4.4006   -1.3568   -0.0804 H   0  0  0  0  0  0  0  0  0  0  0  0
  1  2  1  0
  2  3  1  0
  3  4  1  0
  4  5  1  0
  5  6  1  0
  6  7  2  0
  7  8  1  0
  8  9  1  0
  8 10  2  0
 10 11  1  0
  4 12  1  0
 12 13  1  0
 13 14  1  0
 14 15  2  0
 14 16  1  0
 16 17  1  0
 17 18  1  0
 18 19  1  0
 19 20  2  0
 20 21  1  0
 21 22  2  0
 22 23  1  0
 13  2  1  0
 23 18  2  0
 11  5  2  0
  1 24  1  0
  1 25  1  0
  1 26  1  0
  2 27  1  0
  3 28  1  0
  3 29  1  0
  4 30  1  0
  6 31  1  0
  7 32  1  0
 10 33  1  0
 11 34  1  0
 12 35  1  0
 12 36  1  0
 16 37  1  0
 17 38  1  0
 17 39  1  0
 19 40  1  0
 20 41  1  0
 21 42  1  0
 23 43  1  0
M  END
$$$$
OCNT-2309458
     RDKit          3D

 42 45  0  0  0  0  0  0  0  0999 V2000
   -0.8933    2.2991    0.6022 O   0  0  0  0  0  0  0  0  0  0  0  0
   -1.1846    1.1254    0.3611 C   0  0  0  0  0  0  0  0  0  0  0  0
   -2.5892    0.7581    0.1034 C   0  0  0  0  0  0  0  0  0  0  0  0
   -3.6668    1.6090    0.2910 C   0  0  0  0  0  0  0  0  0  0  0  0
   -4.7803    0.9121   -0.0885 N   0  0  0  0  0  0  0  0  0  0  0  0
   -6.1160    1.3061   -0.0922 C   0  0  0  0  0  0  0  0  0  0  0  0
   -7.0520    0.4397   -0.5161 C   0  0  0  0  0  0  0  0  0  0  0  0
   -6.6372   -0.8836   -0.9594 C   0  0  0  0  0  0  0  0  0  0  0  0
   -5.3416   -1.2553   -0.9528 C   0  0  0  0  0  0  0  0  0  0  0  0
   -4.3468   -0.3410   -0.5031 C   0  0  0  0  0  0  0  0  0  0  0  0
   -3.0399   -0.4542   -0.4015 N   0  0  0  0  0  0  0  0  0  0  0  0
   -0.1961    0.1345    0.3190 N   0  0  0  0  0  0  0  0  0  0  0  0
   -0.4697   -1.3023    0.2871 C   0  0  0  0  0  0  0  0  0  0  0  0
    0.7154   -2.1281    0.7777 C   0  0  0  0  0  0  0  0  0  0  0  0
    1.9911   -1.8409   -0.0125 C   0  0  0  0  0  0  0  0  0  0  0  0
    2.1164   -0.3681   -0.4493 C   0  0  0  0  0  0  0  0  0  0  0  0
    3.5473    0.0917   -0.4429 C   0  0  0  0  0  0  0  0  0  0  0  0
    4.2159    0.2237   -1.5960 N   0  0  0  0  0  0  0  0  0  0  0  0
    5.4367    0.6407   -1.2285 N   0  0  0  0  0  0  0  0  0  0  0  0
    5.5833    0.7681    0.1196 C   0  0  0  0  0  0  0  0  0  0  0  0
    6.8590    1.2057    0.7015 C   0  0  0  0  0  0  0  0  0  0  0  0
    6.7213    2.3414    1.4265 F   0  0  0  0  0  0  0  0  0  0  0  0
    7.3864    0.2667    1.5234 F   0  0  0  0  0  0  0  0  0  0  0  0
    7.7863    1.4575   -0.2579 F   0  0  0  0  0  0  0  0  0  0  0  0
    4.3683    0.4161    0.6650 C   0  0  0  0  0  0  0  0  0  0  0  0
    1.2067    0.5497    0.3814 C   0  0  0  0  0  0  0  0  0  0  0  0
   -3.7137    2.6276    0.6492 H   0  0  0  0  0  0  0  0  0  0  0  0
   -6.3436    2.3072    0.2510 H   0  0  0  0  0  0  0  0  0  0  0  0
   -8.1055    0.6971   -0.5396 H   0  0  0  0  0  0  0  0  0  0  0  0
   -7.4078   -1.5686   -1.3004 H   0  0  0  0  0  0  0  0  0  0  0  0
   -5.0299   -2.2389   -1.2843 H   0  0  0  0  0  0  0  0  0  0  0  0
   -0.7122   -1.5716   -0.7470 H   0  0  0  0  0  0  0  0  0  0  0  0
   -1.3313   -1.5229    0.9245 H   0  0  0  0  0  0  0  0  0  0  0  0
    0.4794   -3.1969    0.7250 H   0  0  0  0  0  0  0  0  0  0  0  0
    0.8962   -1.8988    1.8359 H   0  0  0  0  0  0  0  0  0  0  0  0
    2.8504   -2.1616    0.5900 H   0  0  0  0  0  0  0  0  0  0  0  0
    2.0098   -2.4716   -0.9113 H   0  0  0  0  0  0  0  0  0  0  0  0
    1.7504   -0.3129   -1.4861 H   0  0  0  0  0  0  0  0  0  0  0  0
    6.1257    0.8174   -1.9552 H   0  0  0  0  0  0  0  0  0  0  0  0
    4.1104    0.3956    1.7156 H   0  0  0  0  0  0  0  0  0  0  0  0
    1.3063    1.5850    0.0337 H   0  0  0  0  0  0  0  0  0  0  0  0
    1.4948    0.5423    1.4405 H   0  0  0  0  0  0  0  0  0  0  0  0
  1  2  2  0
  2  3  1  0
  3  4  2  0
  4  5  1  0
  5  6  1  0
  6  7  2  0
  7  8  1  0
  8  9  2  0
  9 10  1  0
 10 11  2  0
  2 12  1  0
 12 13  1  0
 13 14  1  0
 14 15  1  0
 15 16  1  0
 16 17  1  0
 17 18  2  0
 18 19  1  0
 19 20  1  0
 20 21  1  0
 21 22  1  0
 21 23  1  0
 21 24  1  0
 20 25  2  0
 16 26  1  0
 11  3  1  0
 26 12  1  0
 10  5  1  0
 25 17  1  0
  4 27  1  0
  6 28  1  0
  7 29  1  0
  8 30  1  0
  9 31  1  0
 13 32  1  0
 13 33  1  0
 14 34  1  0
 14 35  1  0
 15 36  1  0
 15 37  1  0
 16 38  1  0
 19 39  1  0
 25 40  1  0
 26 41  1  0
 26 42  1  0
M  END
$$$$
OCNT-2309468
     RDKit          3D

 52 53  0  0  0  0  0  0  0  0999 V2000
    5.1679    1.3222    1.7818 C   0  0  0  0  0  0  0  0  0  0  0  0
    4.0121    0.3593    1.5330 C   0  0  0  0  0  0  0  0  0  0  0  0
    3.3960    0.3627    0.1102 C   0  0  0  0  0  0  0  0  0  0  0  0
    4.4136    0.3536   -1.0447 C   0  0  0  0  0  0  0  0  0  0  0  0
    5.2785   -0.8991   -1.0653 C   0  0  0  0  0  0  0  0  0  0  0  0
    2.4072    1.4308   -0.0955 N   0  0  0  0  0  0  0  0  0  0  0  0
    2.6730    2.6744    0.3646 N   0  0  0  0  0  0  0  0  0  0  0  0
    1.5880    3.3785    0.0572 C   0  0  0  0  0  0  0  0  0  0  0  0
    0.6296    2.6070   -0.6123 C   0  0  0  0  0  0  0  0  0  0  0  0
    1.1797    1.3389   -0.7274 C   0  0  0  0  0  0  0  0  0  0  0  0
    0.6503    0.1566   -1.3738 C   0  0  0  0  0  0  0  0  0  0  0  0
    1.3349   -0.8090   -1.6976 O   0  0  0  0  0  0  0  0  0  0  0  0
   -0.7059    0.1846   -1.5889 N   0  0  0  0  0  0  0  0  0  0  0  0
   -1.4658   -0.9535   -2.0739 C   0  0  0  0  0  0  0  0  0  0  0  0
   -2.1665   -1.7724   -0.9474 C   0  0  0  0  0  0  0  0  0  0  0  0
   -1.1001   -2.3957   -0.0222 C   0  0  0  0  0  0  0  0  0  0  0  0
   -2.9500   -2.9078   -1.6415 C   0  0  0  0  0  0  0  0  0  0  0  0
   -3.1442   -0.9135   -0.1274 C   0  0  0  0  0  0  0  0  0  0  0  0
   -3.8681   -1.4616    0.9341 C   0  0  0  0  0  0  0  0  0  0  0  0
   -4.7517   -0.6582    1.6532 C   0  0  0  0  0  0  0  0  0  0  0  0
   -4.9032    0.6830    1.3110 C   0  0  0  0  0  0  0  0  0  0  0  0
   -5.8664    1.5627    2.0406 C   0  0  0  0  0  0  0  0  0  0  0  0
   -4.1549    1.1509    0.2418 C   0  0  0  0  0  0  0  0  0  0  0  0
   -3.2854    0.3948   -0.4699 N   0  0  0  0  0  0  0  0  0  0  0  0
    5.4983    1.2386    2.8234 H   0  0  0  0  0  0  0  0  0  0  0  0
    6.0294    1.0914    1.1493 H   0  0  0  0  0  0  0  0  0  0  0  0
    4.8872    2.3637    1.6114 H   0  0  0  0  0  0  0  0  0  0  0  0
    4.3787   -0.6534    1.7455 H   0  0  0  0  0  0  0  0  0  0  0  0
    3.2247    0.5539    2.2725 H   0  0  0  0  0  0  0  0  0  0  0  0
    2.8193   -0.5683    0.0697 H   0  0  0  0  0  0  0  0  0  0  0  0
    5.0531    1.2444   -1.0048 H   0  0  0  0  0  0  0  0  0  0  0  0
    3.8822    0.4124   -2.0044 H   0  0  0  0  0  0  0  0  0  0  0  0
    5.9452   -0.8798   -1.9340 H   0  0  0  0  0  0  0  0  0  0  0  0
    5.9009   -0.9783   -0.1686 H   0  0  0  0  0  0  0  0  0  0  0  0
    4.6585   -1.8000   -1.1358 H   0  0  0  0  0  0  0  0  0  0  0  0
    1.5467    4.4257    0.3276 H   0  0  0  0  0  0  0  0  0  0  0  0
   -0.3251    2.9414   -0.9923 H   0  0  0  0  0  0  0  0  0  0  0  0
   -1.2691    0.8991   -1.1402 H   0  0  0  0  0  0  0  0  0  0  0  0
   -0.8025   -1.6012   -2.6591 H   0  0  0  0  0  0  0  0  0  0  0  0
   -2.2118   -0.5470   -2.7675 H   0  0  0  0  0  0  0  0  0  0  0  0
   -0.5847   -1.6328    0.5724 H   0  0  0  0  0  0  0  0  0  0  0  0
   -1.5385   -3.1100    0.6834 H   0  0  0  0  0  0  0  0  0  0  0  0
   -0.3461   -2.9413   -0.6012 H   0  0  0  0  0  0  0  0  0  0  0  0
   -3.4262   -3.5812   -0.9207 H   0  0  0  0  0  0  0  0  0  0  0  0
   -2.2881   -3.5193   -2.2661 H   0  0  0  0  0  0  0  0  0  0  0  0
   -3.7407   -2.5066   -2.2857 H   0  0  0  0  0  0  0  0  0  0  0  0
   -3.7629   -2.5063    1.2074 H   0  0  0  0  0  0  0  0  0  0  0  0
   -5.3215   -1.0874    2.4736 H   0  0  0  0  0  0  0  0  0  0  0  0
   -5.6900    2.6210    1.8164 H   0  0  0  0  0  0  0  0  0  0  0  0
   -6.8930    1.3158    1.7512 H   0  0  0  0  0  0  0  0  0  0  0  0
   -5.7587    1.4340    3.1231 H   0  0  0  0  0  0  0  0  0  0  0  0
   -4.2342    2.1823   -0.0915 H   0  0  0  0  0  0  0  0  0  0  0  0
  1  2  1  0
  2  3  1  0
  3  4  1  0
  4  5  1  0
  3  6  1  0
  6  7  1  0
  7  8  2  0
  8  9  1  0
  9 10  2  0
 10 11  1  0
 11 12  2  0
 11 13  1  0
 13 14  1  0
 14 15  1  0
 15 16  1  0
 15 17  1  0
 15 18  1  0
 18 19  2  0
 19 20  1  0
 20 21  2  0
 21 22  1  0
 21 23  1  0
 23 24  2  0
 10  6  1  0
 24 18  1  0
  1 25  1  0
  1 26  1  0
  1 27  1  0
  2 28  1  0
  2 29  1  0
  3 30  1  0
  4 31  1  0
  4 32  1  0
  5 33  1  0
  5 34  1  0
  5 35  1  0
  8 36  1  0
  9 37  1  0
 13 38  1  0
 14 39  1  0
 14 40  1  0
 16 41  1  0
 16 42  1  0
 16 43  1  0
 17 44  1  0
 17 45  1  0
 17 46  1  0
 19 47  1  0
 20 48  1  0
 22 49  1  0
 22 50  1  0
 22 51  1  0
 23 52  1  0
M  END
$$$$
OCNT-2309471
     RDKit          3D

 53 56  0  0  0  0  0  0  0  0999 V2000
    0.5045   -0.0595   -2.4283 O   0  0  0  0  0  0  0  0  0  0  0  0
    0.7351    0.9383   -1.7519 C   0  0  0  0  0  0  0  0  0  0  0  0
    2.1361    1.5313   -1.6963 C   0  0  0  0  0  0  0  0  0  0  0  0
    2.9480    0.9115   -0.6154 C   0  0  0  0  0  0  0  0  0  0  0  0
    3.8155   -0.1575   -0.7098 C   0  0  0  0  0  0  0  0  0  0  0  0
    4.3269   -0.3574    0.5427 N   0  0  0  0  0  0  0  0  0  0  0  0
    5.2528   -1.4053    0.9502 C   0  0  0  0  0  0  0  0  0  0  0  0
    6.6785   -1.0632    0.5934 C   0  0  0  0  0  0  0  0  0  0  0  0
    7.3462   -0.0222    1.2568 C   0  0  0  0  0  0  0  0  0  0  0  0
    8.6656    0.2944    0.9319 C   0  0  0  0  0  0  0  0  0  0  0  0
    9.3332   -0.4265   -0.0554 C   0  0  0  0  0  0  0  0  0  0  0  0
    8.6811   -1.4614   -0.7228 C   0  0  0  0  0  0  0  0  0  0  0  0
    7.3600   -1.7788   -0.4019 C   0  0  0  0  0  0  0  0  0  0  0  0
    3.8410    0.5115    1.4553 N   0  0  0  0  0  0  0  0  0  0  0  0
    3.0135    1.2821    0.7476 C   0  0  0  0  0  0  0  0  0  0  0  0
   -0.1643    1.6404   -0.9843 N   0  0  0  0  0  0  0  0  0  0  0  0
   -1.5058    1.3456   -0.8111 C   0  0  0  0  0  0  0  0  0  0  0  0
   -2.0896    0.3108   -1.4178 N   0  0  0  0  0  0  0  0  0  0  0  0
   -3.3977    0.1118   -1.1669 C   0  0  0  0  0  0  0  0  0  0  0  0
   -4.1549    0.9142   -0.3404 C   0  0  0  0  0  0  0  0  0  0  0  0
   -5.6125    0.6853   -0.0288 C   0  0  0  0  0  0  0  0  0  0  0  0
   -5.7554   -0.3300    1.1218 C   0  0  0  0  0  0  0  0  0  0  0  0
   -7.1751   -0.8772    1.2033 C   0  0  0  0  0  0  0  0  0  0  0  0
   -7.5669   -1.6368   -0.0635 C   0  0  0  0  0  0  0  0  0  0  0  0
   -6.8244   -1.1678   -1.3152 C   0  0  0  0  0  0  0  0  0  0  0  0
   -6.4762    0.3170   -1.2565 C   0  0  0  0  0  0  0  0  0  0  0  0
   -3.4477    1.9525    0.2335 C   0  0  0  0  0  0  0  0  0  0  0  0
   -2.1391    2.1917    0.0150 N   0  0  0  0  0  0  0  0  0  0  0  0
    2.0764    2.6170   -1.5510 H   0  0  0  0  0  0  0  0  0  0  0  0
    2.6091    1.3791   -2.6741 H   0  0  0  0  0  0  0  0  0  0  0  0
    4.1025   -0.7817   -1.5455 H   0  0  0  0  0  0  0  0  0  0  0  0
    5.1528   -1.5532    2.0317 H   0  0  0  0  0  0  0  0  0  0  0  0
    4.9262   -2.3307    0.4617 H   0  0  0  0  0  0  0  0  0  0  0  0
    6.8335    0.5537    2.0266 H   0  0  0  0  0  0  0  0  0  0  0  0
    9.1722    1.1048    1.4516 H   0  0  0  0  0  0  0  0  0  0  0  0
   10.3611   -0.1793   -0.3078 H   0  0  0  0  0  0  0  0  0  0  0  0
    9.2023   -2.0204   -1.4973 H   0  0  0  0  0  0  0  0  0  0  0  0
    6.8700   -2.5904   -0.9347 H   0  0  0  0  0  0  0  0  0  0  0  0
    2.4902    2.0800    1.2598 H   0  0  0  0  0  0  0  0  0  0  0  0
    0.1252    2.4403   -0.4460 H   0  0  0  0  0  0  0  0  0  0  0  0
   -3.8169   -0.7512   -1.6744 H   0  0  0  0  0  0  0  0  0  0  0  0
   -6.0145    1.6452    0.3287 H   0  0  0  0  0  0  0  0  0  0  0  0
   -5.0573   -1.1676    0.9994 H   0  0  0  0  0  0  0  0  0  0  0  0
   -5.4908    0.1526    2.0703 H   0  0  0  0  0  0  0  0  0  0  0  0
   -7.2812   -1.5337    2.0738 H   0  0  0  0  0  0  0  0  0  0  0  0
   -7.8722   -0.0442    1.3554 H   0  0  0  0  0  0  0  0  0  0  0  0
   -8.6479   -1.5350   -0.2133 H   0  0  0  0  0  0  0  0  0  0  0  0
   -7.3795   -2.7085    0.0732 H   0  0  0  0  0  0  0  0  0  0  0  0
   -7.4353   -1.3770   -2.2005 H   0  0  0  0  0  0  0  0  0  0  0  0
   -5.9072   -1.7567   -1.4307 H   0  0  0  0  0  0  0  0  0  0  0  0
   -7.4190    0.8774   -1.1949 H   0  0  0  0  0  0  0  0  0  0  0  0
   -6.0041    0.6330   -2.1932 H   0  0  0  0  0  0  0  0  0  0  0  0
   -3.9238    2.6518    0.9161 H   0  0  0  0  0  0  0  0  0  0  0  0
  1  2  2  0
  2  3  1  0
  3  4  1  0
  4  5  2  0
  5  6  1  0
  6  7  1  0
  7  8  1  0
  8  9  2  0
  9 10  1  0
 10 11  2  0
 11 12  1  0
 12 13  2  0
  6 14  1  0
 14 15  2  0
  2 16  1  0
 16 17  1  0
 17 18  2  0
 18 19  1  0
 19 20  2  0
 20 21  1  0
 21 22  1  0
 22 23  1  0
 23 24  1  0
 24 25  1  0
 25 26  1  0
 20 27  1  0
 27 28  2  0
 15  4  1  0
 28 17  1  0
 13  8  1  0
 26 21  1  0
  3 29  1  0
  3 30  1  0
  5 31  1  0
  7 32  1  0
  7 33  1  0
  9 34  1  0
 10 35  1  0
 11 36  1  0
 12 37  1  0
 13 38  1  0
 15 39  1  0
 16 40  1  0
 19 41  1  0
 21 42  1  0
 22 43  1  0
 22 44  1  0
 23 45  1  0
 23 46  1  0
 24 47  1  0
 24 48  1  0
 25 49  1  0
 25 50  1  0
 26 51  1  0
 26 52  1  0
 27 53  1  0
M  END
$$$$
OCNT-2309480
     RDKit          3D

 48 52  0  0  0  0  0  0  0  0999 V2000
    4.7903    1.4222    2.2725 O   0  0  0  0  0  0  0  0  0  0  0  0
    4.6571    0.4986    1.4764 C   0  0  0  0  0  0  0  0  0  0  0  0
    3.5108    0.1764    0.7666 N   0  0  0  0  0  0  0  0  0  0  0  0
    2.2588    0.8149    0.7934 C   0  0  0  0  0  0  0  0  0  0  0  0
    1.9496    1.8797    1.6386 C   0  0  0  0  0  0  0  0  0  0  0  0
    0.6783    2.4561    1.6116 C   0  0  0  0  0  0  0  0  0  0  0  0
   -0.2935    1.9713    0.7370 C   0  0  0  0  0  0  0  0  0  0  0  0
   -0.0084    0.9033   -0.1238 C   0  0  0  0  0  0  0  0  0  0  0  0
   -1.0426    0.4162   -1.0287 C   0  0  0  0  0  0  0  0  0  0  0  0
   -2.2915    0.8073   -1.1722 N   0  0  0  0  0  0  0  0  0  0  0  0
   -2.7539   -0.0373   -2.1524 C   0  0  0  0  0  0  0  0  0  0  0  0
   -4.1449    0.0106   -2.6577 C   0  0  0  0  0  0  0  0  0  0  0  0
   -4.9798   -0.9341   -1.9406 N   0  0  0  0  0  0  0  0  0  0  0  0
   -5.2931   -2.1929   -2.3750 C   0  0  0  0  0  0  0  0  0  0  0  0
   -6.1154   -2.8003   -1.5505 N   0  0  0  0  0  0  0  0  0  0  0  0
   -6.3330   -1.9040   -0.5324 C   0  0  0  0  0  0  0  0  0  0  0  0
   -7.1246   -2.0351    0.6182 C   0  0  0  0  0  0  0  0  0  0  0  0
   -7.1839   -0.9669    1.5214 C   0  0  0  0  0  0  0  0  0  0  0  0
   -6.4684    0.2082    1.2846 C   0  0  0  0  0  0  0  0  0  0  0  0
   -5.6742    0.3597    0.1416 C   0  0  0  0  0  0  0  0  0  0  0  0
   -5.6319   -0.7192   -0.7496 C   0  0  0  0  0  0  0  0  0  0  0  0
   -1.8391   -0.8866   -2.6400 N   0  0  0  0  0  0  0  0  0  0  0  0
   -0.7013   -0.5954   -1.8846 O   0  0  0  0  0  0  0  0  0  0  0  0
    1.2752    0.3321   -0.0824 C   0  0  0  0  0  0  0  0  0  0  0  0
    5.7904   -0.5090    1.1870 C   0  0  0  0  0  0  0  0  0  0  0  0
    7.1680    0.1322    1.2000 C   0  0  0  0  0  0  0  0  0  0  0  0
    7.3685    0.4817   -0.2540 C   0  0  0  0  0  0  0  0  0  0  0  0
    6.7077   -0.6852   -0.9516 C   0  0  0  0  0  0  0  0  0  0  0  0
    5.6193   -1.1061   -0.1153 O   0  0  0  0  0  0  0  0  0  0  0  0
    3.6410   -0.5870    0.1057 H   0  0  0  0  0  0  0  0  0  0  0  0
    2.6766    2.2838    2.3369 H   0  0  0  0  0  0  0  0  0  0  0  0
    0.4479    3.2845    2.2772 H   0  0  0  0  0  0  0  0  0  0  0  0
   -1.2797    2.4327    0.7323 H   0  0  0  0  0  0  0  0  0  0  0  0
   -4.5777    1.0092   -2.5340 H   0  0  0  0  0  0  0  0  0  0  0  0
   -4.1897   -0.2372   -3.7245 H   0  0  0  0  0  0  0  0  0  0  0  0
   -4.8997   -2.6150   -3.2914 H   0  0  0  0  0  0  0  0  0  0  0  0
   -7.6742   -2.9525    0.7967 H   0  0  0  0  0  0  0  0  0  0  0  0
   -7.7918   -1.0590    2.4181 H   0  0  0  0  0  0  0  0  0  0  0  0
   -6.5253    1.0209    2.0052 H   0  0  0  0  0  0  0  0  0  0  0  0
   -5.1115    1.2715   -0.0287 H   0  0  0  0  0  0  0  0  0  0  0  0
    1.5131   -0.5013   -0.7404 H   0  0  0  0  0  0  0  0  0  0  0  0
    5.7132   -1.2981    1.9432 H   0  0  0  0  0  0  0  0  0  0  0  0
    7.2665    0.9954    1.8634 H   0  0  0  0  0  0  0  0  0  0  0  0
    7.9167   -0.6111    1.4998 H   0  0  0  0  0  0  0  0  0  0  0  0
    8.4179    0.6083   -0.5332 H   0  0  0  0  0  0  0  0  0  0  0  0
    6.8352    1.4106   -0.4892 H   0  0  0  0  0  0  0  0  0  0  0  0
    6.3293   -0.4240   -1.9437 H   0  0  0  0  0  0  0  0  0  0  0  0
    7.3976   -1.5300   -1.0512 H   0  0  0  0  0  0  0  0  0  0  0  0
  1  2  2  0
  2  3  1  0
  3  4  1  0
  4  5  2  0
  5  6  1  0
  6  7  2  0
  7  8  1  0
  8  9  1  0
  9 10  2  0
 10 11  1  0
 11 12  1  0
 12 13  1  0
 13 14  1  0
 14 15  2  0
 15 16  1  0
 16 17  2  0
 17 18  1  0
 18 19  2  0
 19 20  1  0
 20 21  2  0
 11 22  2  0
 22 23  1  0
  8 24  2  0
  2 25  1  0
 25 26  1  0
 26 27  1  0
 27 28  1  0
 28 29  1  0
 24  4  1  0
 29 25  1  0
 23  9  1  0
 21 13  1  0
 21 16  1  0
  3 30  1  0
  5 31  1  0
  6 32  1  0
  7 33  1  0
 12 34  1  0
 12 35  1  0
 14 36  1  0
 17 37  1  0
 18 38  1  0
 19 39  1  0
 20 40  1  0
 24 41  1  0
 25 42  1  0
 26 43  1  0
 26 44  1  0
 27 45  1  0
 27 46  1  0
 28 47  1  0
 28 48  1  0
M  END
$$$$
OCNT-2309491
     RDKit          3D

 45 49  0  0  0  0  0  0  0  0999 V2000
   -2.8582   -2.2235   -2.5984 O   0  0  0  0  0  0  0  0  0  0  0  0
   -2.1220   -1.8943   -1.6691 C   0  0  0  0  0  0  0  0  0  0  0  0
   -1.1170   -2.8481   -1.0562 C   0  0  0  0  0  0  0  0  0  0  0  0
    0.2769   -2.4417   -1.3900 C   0  0  0  0  0  0  0  0  0  0  0  0
    0.9700   -2.7587   -2.5422 C   0  0  0  0  0  0  0  0  0  0  0  0
    2.5399   -2.0870   -2.4854 S   0  0  0  0  0  0  0  0  0  0  0  0
    2.2065   -1.4128   -0.9296 C   0  0  0  0  0  0  0  0  0  0  0  0
    3.2134   -0.6309   -0.1754 C   0  0  0  0  0  0  0  0  0  0  0  0
    2.8478   -0.0915    1.0880 C   0  0  0  0  0  0  0  0  0  0  0  0
    3.7494    0.6468    1.8669 C   0  0  0  0  0  0  0  0  0  0  0  0
    5.0180    0.8327    1.3674 C   0  0  0  0  0  0  0  0  0  0  0  0
    6.0274    1.5091    1.9789 O   0  0  0  0  0  0  0  0  0  0  0  0
    7.0947    1.3294    1.0209 C   0  0  0  0  0  0  0  0  0  0  0  0
    6.6880    0.6068   -0.1588 O   0  0  0  0  0  0  0  0  0  0  0  0
    5.3927    0.3201    0.1493 C   0  0  0  0  0  0  0  0  0  0  0  0
    4.5225   -0.4069   -0.6417 C   0  0  0  0  0  0  0  0  0  0  0  0
    0.9877   -1.6697   -0.4802 N   0  0  0  0  0  0  0  0  0  0  0  0
   -2.1405   -0.6423   -1.0931 N   0  0  0  0  0  0  0  0  0  0  0  0
   -3.1556    0.3566   -1.4271 C   0  0  0  0  0  0  0  0  0  0  0  0
   -2.6117    1.7901   -1.1850 C   0  0  0  0  0  0  0  0  0  0  0  0
   -2.3544    2.1206    0.3012 C   0  0  0  0  0  0  0  0  0  0  0  0
   -3.4445    1.5535    1.1309 C   0  0  0  0  0  0  0  0  0  0  0  0
   -4.3911    0.6350    0.7356 C   0  0  0  0  0  0  0  0  0  0  0  0
   -5.1619    0.4061    1.8885 C   0  0  0  0  0  0  0  0  0  0  0  0
   -4.7325    1.1237    2.9328 N   0  0  0  0  0  0  0  0  0  0  0  0
   -3.6883    1.8202    2.4442 N   0  0  0  0  0  0  0  0  0  0  0  0
   -4.4801    0.0972   -0.6502 C   0  0  0  0  0  0  0  0  0  0  0  0
   -1.3216   -3.8584   -1.4278 H   0  0  0  0  0  0  0  0  0  0  0  0
   -1.2659   -2.8748    0.0292 H   0  0  0  0  0  0  0  0  0  0  0  0
    0.6331   -3.3383   -3.3930 H   0  0  0  0  0  0  0  0  0  0  0  0
    1.8414   -0.2576    1.4740 H   0  0  0  0  0  0  0  0  0  0  0  0
    3.4603    1.0488    2.8326 H   0  0  0  0  0  0  0  0  0  0  0  0
    7.4657    2.3166    0.7200 H   0  0  0  0  0  0  0  0  0  0  0  0
    7.9117    0.7784    1.5021 H   0  0  0  0  0  0  0  0  0  0  0  0
    4.8786   -0.7898   -1.5922 H   0  0  0  0  0  0  0  0  0  0  0  0
   -1.5621   -0.4956   -0.2727 H   0  0  0  0  0  0  0  0  0  0  0  0
   -3.3718    0.2442   -2.4983 H   0  0  0  0  0  0  0  0  0  0  0  0
   -1.6838    1.9461   -1.7533 H   0  0  0  0  0  0  0  0  0  0  0  0
   -3.3493    2.5058   -1.5765 H   0  0  0  0  0  0  0  0  0  0  0  0
   -2.2836    3.2057    0.4330 H   0  0  0  0  0  0  0  0  0  0  0  0
   -1.3975    1.6873    0.6146 H   0  0  0  0  0  0  0  0  0  0  0  0
   -6.0155   -0.2469    2.0163 H   0  0  0  0  0  0  0  0  0  0  0  0
   -3.1955    2.4507    3.0684 H   0  0  0  0  0  0  0  0  0  0  0  0
   -4.7181   -0.9733   -0.6324 H   0  0  0  0  0  0  0  0  0  0  0  0
   -5.3032    0.6106   -1.1640 H   0  0  0  0  0  0  0  0  0  0  0  0
  1  2  2  0
  2  3  1  0
  3  4  1  0
  4  5  2  0
  5  6  1  0
  6  7  1  0
  7  8  1  0
  8  9  1  0
  9 10  2  0
 10 11  1  0
 11 12  1  0
 12 13  1  0
 13 14  1  0
 14 15  1  0
 15 16  1  0
  7 17  2  0
  2 18  1  0
 18 19  1  0
 19 20  1  0
 20 21  1  0
 21 22  1  0
 22 23  2  0
 23 24  1  0
 24 25  2  0
 25 26  1  0
 23 27  1  0
 17  4  1  0
 27 19  1  0
 16  8  2  0
 26 22  1  0
 15 11  2  0
  3 28  1  0
  3 29  1  0
  5 30  1  0
  9 31  1  0
 10 32  1  0
 13 33  1  0
 13 34  1  0
 16 35  1  0
 18 36  1  0
 19 37  1  0
 20 38  1  0
 20 39  1  0
 21 40  1  0
 21 41  1  0
 24 42  1  0
 26 43  1  0
 27 44  1  0
 27 45  1  0
M  END
$$$$
OCNT-2309495
     RDKit          3D

 45 47  0  0  0  0  0  0  0  0999 V2000
   -3.9900    0.5047   -2.8548 C   0  0  0  0  0  0  0  0  0  0  0  0
   -4.6873    1.2045   -1.8303 O   0  0  0  0  0  0  0  0  0  0  0  0
   -4.8024    0.4838   -0.6591 C   0  0  0  0  0  0  0  0  0  0  0  0
   -5.5837    1.0495    0.3335 C   0  0  0  0  0  0  0  0  0  0  0  0
   -5.7223    0.3645    1.5349 C   0  0  0  0  0  0  0  0  0  0  0  0
   -5.0783   -0.8574    1.7013 C   0  0  0  0  0  0  0  0  0  0  0  0
   -4.3140   -1.3587    0.6514 C   0  0  0  0  0  0  0  0  0  0  0  0
   -3.5639   -2.6557    0.7944 C   0  0  0  0  0  0  0  0  0  0  0  0
   -2.1060   -2.4450    1.1635 C   0  0  0  0  0  0  0  0  0  0  0  0
   -1.6072   -3.0642    2.1000 O   0  0  0  0  0  0  0  0  0  0  0  0
   -1.4502   -1.5643    0.3193 N   0  0  0  0  0  0  0  0  0  0  0  0
   -0.1004   -1.1705    0.3546 C   0  0  0  0  0  0  0  0  0  0  0  0
    0.3076   -0.2034   -0.5690 C   0  0  0  0  0  0  0  0  0  0  0  0
    1.6337    0.2484   -0.6030 C   0  0  0  0  0  0  0  0  0  0  0  0
    2.5780   -0.2589    0.2938 C   0  0  0  0  0  0  0  0  0  0  0  0
    3.9377    0.1768    0.2739 N   0  0  0  0  0  0  0  0  0  0  0  0
    5.0099   -0.5660    0.7290 C   0  0  0  0  0  0  0  0  0  0  0  0
    6.1647    0.0283    0.5456 N   0  0  0  0  0  0  0  0  0  0  0  0
    5.8603    1.2297   -0.0275 C   0  0  0  0  0  0  0  0  0  0  0  0
    6.9404    2.1916   -0.3519 C   0  0  0  0  0  0  0  0  0  0  0  0
    4.4887    1.3726   -0.1831 C   0  0  0  0  0  0  0  0  0  0  0  0
    3.7420    2.5698   -0.6467 C   0  0  0  0  0  0  0  0  0  0  0  0
    2.1714   -1.2416    1.2085 C   0  0  0  0  0  0  0  0  0  0  0  0
    0.8424   -1.6878    1.2396 C   0  0  0  0  0  0  0  0  0  0  0  0
   -4.1533   -0.6947   -0.5244 N   0  0  0  0  0  0  0  0  0  0  0  0
   -3.9930    1.1353   -3.7492 H   0  0  0  0  0  0  0  0  0  0  0  0
   -2.9453    0.3305   -2.5742 H   0  0  0  0  0  0  0  0  0  0  0  0
   -4.4924   -0.4355   -3.1083 H   0  0  0  0  0  0  0  0  0  0  0  0
   -6.0748    2.0029    0.1741 H   0  0  0  0  0  0  0  0  0  0  0  0
   -6.3260    0.7811    2.3366 H   0  0  0  0  0  0  0  0  0  0  0  0
   -5.1704   -1.4001    2.6373 H   0  0  0  0  0  0  0  0  0  0  0  0
   -4.0367   -3.2852    1.5570 H   0  0  0  0  0  0  0  0  0  0  0  0
   -3.6033   -3.2131   -0.1490 H   0  0  0  0  0  0  0  0  0  0  0  0
   -2.0425   -1.0940   -0.3642 H   0  0  0  0  0  0  0  0  0  0  0  0
   -0.3996    0.2099   -1.2844 H   0  0  0  0  0  0  0  0  0  0  0  0
    1.8965    0.9592   -1.3776 H   0  0  0  0  0  0  0  0  0  0  0  0
    4.9014   -1.5564    1.1485 H   0  0  0  0  0  0  0  0  0  0  0  0
    6.8948    3.0557    0.3181 H   0  0  0  0  0  0  0  0  0  0  0  0
    7.9253    1.7262   -0.2420 H   0  0  0  0  0  0  0  0  0  0  0  0
    6.8455    2.5446   -1.3835 H   0  0  0  0  0  0  0  0  0  0  0  0
    2.8323    2.7333   -0.0619 H   0  0  0  0  0  0  0  0  0  0  0  0
    3.4885    2.4814   -1.7073 H   0  0  0  0  0  0  0  0  0  0  0  0
    4.3510    3.4733   -0.5336 H   0  0  0  0  0  0  0  0  0  0  0  0
    2.8521   -1.6629    1.9448 H   0  0  0  0  0  0  0  0  0  0  0  0
    0.5791   -2.4419    1.9755 H   0  0  0  0  0  0  0  0  0  0  0  0
  1  2  1  0
  2  3  1  0
  3  4  1  0
  4  5  2  0
  5  6  1  0
  6  7  2  0
  7  8  1  0
  8  9  1  0
  9 10  2  0
  9 11  1  0
 11 12  1  0
 12 13  1  0
 13 14  2  0
 14 15  1  0
 15 16  1  0
 16 17  1  0
 17 18  2  0
 18 19  1  0
 19 20  1  0
 19 21  2  0
 21 22  1  0
 15 23  2  0
 23 24  1  0
  7 25  1  0
 25  3  2  0
 24 12  2  0
 21 16  1  0
  1 26  1  0
  1 27  1  0
  1 28  1  0
  4 29  1  0
  5 30  1  0
  6 31  1  0
  8 32  1  0
  8 33  1  0
 11 34  1  0
 13 35  1  0
 14 36  1  0
 17 37  1  0
 20 38  1  0
 20 39  1  0
 20 40  1  0
 22 41  1  0
 22 42  1  0
 22 43  1  0
 23 44  1  0
 24 45  1  0
M  END
$$$$
OCNT-2309500
     RDKit          3D

 41 43  0  0  0  0  0  0  0  0999 V2000
    5.3970   -1.5599   -0.6467 C   0  0  0  0  0  0  0  0  0  0  0  0
    4.5425   -0.5167   -0.0997 N   0  0  0  0  0  0  0  0  0  0  0  0
    5.1369    0.4959    0.6523 C   0  0  0  0  0  0  0  0  0  0  0  0
    6.3525    0.5922    0.8275 O   0  0  0  0  0  0  0  0  0  0  0  0
    4.1945    1.4397    1.3614 C   0  0  0  0  0  0  0  0  0  0  0  0
    3.0265    1.8156    0.4784 C   0  0  0  0  0  0  0  0  0  0  0  0
    2.3595    0.5750   -0.0425 C   0  0  0  0  0  0  0  0  0  0  0  0
    0.9767    0.5812   -0.3035 C   0  0  0  0  0  0  0  0  0  0  0  0
    0.3504   -0.5358   -0.8529 C   0  0  0  0  0  0  0  0  0  0  0  0
   -1.0266   -0.6139   -1.1321 N   0  0  0  0  0  0  0  0  0  0  0  0
   -2.0018    0.3614   -0.9364 C   0  0  0  0  0  0  0  0  0  0  0  0
   -1.8043    1.4895   -0.4937 O   0  0  0  0  0  0  0  0  0  0  0  0
   -3.3977   -0.1361   -1.3560 C   0  0  0  0  0  0  0  0  0  0  0  0
   -3.8654    0.5600   -2.4398 F   0  0  0  0  0  0  0  0  0  0  0  0
   -3.3126   -1.4379   -1.7948 F   0  0  0  0  0  0  0  0  0  0  0  0
   -4.5009   -0.0835   -0.2820 C   0  0  0  0  0  0  0  0  0  0  0  0
   -5.7119   -0.7364   -0.7843 O   0  0  0  0  0  0  0  0  0  0  0  0
   -4.0886   -0.5771    1.1399 C   0  0  0  0  0  0  0  0  0  0  0  0
   -4.9534    0.5552    1.7242 C   0  0  0  0  0  0  0  0  0  0  0  0
   -4.8037    1.2978    0.3831 C   0  0  0  0  0  0  0  0  0  0  0  0
    1.1266   -1.6578   -1.1543 C   0  0  0  0  0  0  0  0  0  0  0  0
    2.5059   -1.6639   -0.9110 C   0  0  0  0  0  0  0  0  0  0  0  0
    3.1381   -0.5504   -0.3477 C   0  0  0  0  0  0  0  0  0  0  0  0
    6.4578   -1.3397   -0.4972 H   0  0  0  0  0  0  0  0  0  0  0  0
    5.2235   -1.6515   -1.7237 H   0  0  0  0  0  0  0  0  0  0  0  0
    5.1759   -2.5063   -0.1433 H   0  0  0  0  0  0  0  0  0  0  0  0
    4.7449    2.3434    1.6456 H   0  0  0  0  0  0  0  0  0  0  0  0
    3.8561    0.9472    2.2810 H   0  0  0  0  0  0  0  0  0  0  0  0
    3.3653    2.4144   -0.3759 H   0  0  0  0  0  0  0  0  0  0  0  0
    2.3206    2.4233    1.0560 H   0  0  0  0  0  0  0  0  0  0  0  0
    0.4173    1.4826   -0.0719 H   0  0  0  0  0  0  0  0  0  0  0  0
   -1.3607   -1.4835   -1.5433 H   0  0  0  0  0  0  0  0  0  0  0  0
   -5.9082   -0.2857   -1.6275 H   0  0  0  0  0  0  0  0  0  0  0  0
   -4.4154   -1.5874    1.4033 H   0  0  0  0  0  0  0  0  0  0  0  0
   -3.0255   -0.4833    1.3854 H   0  0  0  0  0  0  0  0  0  0  0  0
   -4.5389    1.0655    2.5973 H   0  0  0  0  0  0  0  0  0  0  0  0
   -5.9831    0.2517    1.9455 H   0  0  0  0  0  0  0  0  0  0  0  0
   -3.9912    2.0284    0.3762 H   0  0  0  0  0  0  0  0  0  0  0  0
   -5.7128    1.7981    0.0355 H   0  0  0  0  0  0  0  0  0  0  0  0
    0.6755   -2.5477   -1.5869 H   0  0  0  0  0  0  0  0  0  0  0  0
    3.0586   -2.5637   -1.1635 H   0  0  0  0  0  0  0  0  0  0  0  0
  1  2  1  0
  2  3  1  0
  3  4  2  0
  3  5  1  0
  5  6  1  0
  6  7  1  0
  7  8  1  0
  8  9  2  0
  9 10  1  0
 10 11  1  0
 11 12  2  0
 11 13  1  0
 13 14  1  0
 13 15  1  0
 13 16  1  0
 16 17  1  0
 16 18  1  0
 18 19  1  0
 19 20  1  0
  9 21  1  0
 21 22  2  0
 22 23  1  0
 23  2  1  0
 23  7  2  0
 20 16  1  0
  1 24  1  0
  1 25  1  0
  1 26  1  0
  5 27  1  0
  5 28  1  0
  6 29  1  0
  6 30  1  0
  8 31  1  0
 10 32  1  0
 17 33  1  0
 18 34  1  0
 18 35  1  0
 19 36  1  0
 19 37  1  0
 20 38  1  0
 20 39  1  0
 21 40  1  0
 22 41  1  0
M  END
$$$$
OCNT-2309501
     RDKit          3D

 48 50  0  0  0  0  0  0  0  0999 V2000
   -7.5116   -1.2523   -1.0804 C   0  0  0  0  0  0  0  0  0  0  0  0
   -6.1920   -0.5029   -1.1963 C   0  0  0  0  0  0  0  0  0  0  0  0
   -5.6622    0.0096    0.1546 C   0  0  0  0  0  0  0  0  0  0  0  0
   -6.5667    1.0649    0.7942 C   0  0  0  0  0  0  0  0  0  0  0  0
   -4.2954    0.5151    0.0150 N   0  0  0  0  0  0  0  0  0  0  0  0
   -3.8736    1.5871   -0.7175 C   0  0  0  0  0  0  0  0  0  0  0  0
   -2.5123    1.6473   -0.5362 C   0  0  0  0  0  0  0  0  0  0  0  0
   -2.1969    0.5660    0.3229 C   0  0  0  0  0  0  0  0  0  0  0  0
   -0.9178    0.2796    0.7470 N   0  0  0  0  0  0  0  0  0  0  0  0
   -0.5550   -0.8020    1.5293 C   0  0  0  0  0  0  0  0  0  0  0  0
   -1.2915   -1.6714    1.9872 O   0  0  0  0  0  0  0  0  0  0  0  0
    0.9320   -0.8192    1.8631 C   0  0  0  0  0  0  0  0  0  0  0  0
    1.8095   -0.6975    0.6639 C   0  0  0  0  0  0  0  0  0  0  0  0
    2.8243    0.2101    0.4373 C   0  0  0  0  0  0  0  0  0  0  0  0
    3.3540   -0.0977   -0.7868 N   0  0  0  0  0  0  0  0  0  0  0  0
    4.4511    0.5840   -1.4628 C   0  0  0  0  0  0  0  0  0  0  0  0
    5.7809    0.2977   -0.8104 C   0  0  0  0  0  0  0  0  0  0  0  0
    6.3104   -1.0021   -0.8145 C   0  0  0  0  0  0  0  0  0  0  0  0
    7.5433   -1.2676   -0.2178 C   0  0  0  0  0  0  0  0  0  0  0  0
    8.2621   -0.2381    0.3856 C   0  0  0  0  0  0  0  0  0  0  0  0
    7.7495    1.0578    0.3928 C   0  0  0  0  0  0  0  0  0  0  0  0
    6.5159    1.3264   -0.2031 C   0  0  0  0  0  0  0  0  0  0  0  0
    2.7099   -1.1128   -1.3968 N   0  0  0  0  0  0  0  0  0  0  0  0
    1.7983   -1.4981   -0.5022 C   0  0  0  0  0  0  0  0  0  0  0  0
   -3.2948   -0.1093    0.6554 N   0  0  0  0  0  0  0  0  0  0  0  0
   -7.4325   -2.0798   -0.3683 H   0  0  0  0  0  0  0  0  0  0  0  0
   -7.7937   -1.6678   -2.0530 H   0  0  0  0  0  0  0  0  0  0  0  0
   -8.3209   -0.5918   -0.7563 H   0  0  0  0  0  0  0  0  0  0  0  0
   -6.3154    0.3301   -1.8994 H   0  0  0  0  0  0  0  0  0  0  0  0
   -5.4512   -1.1782   -1.6436 H   0  0  0  0  0  0  0  0  0  0  0  0
   -5.5985   -0.8408    0.8471 H   0  0  0  0  0  0  0  0  0  0  0  0
   -6.1185    1.4570    1.7142 H   0  0  0  0  0  0  0  0  0  0  0  0
   -6.7354    1.9119    0.1202 H   0  0  0  0  0  0  0  0  0  0  0  0
   -7.5415    0.6435    1.0579 H   0  0  0  0  0  0  0  0  0  0  0  0
   -4.5561    2.1969   -1.2919 H   0  0  0  0  0  0  0  0  0  0  0  0
   -1.8388    2.3709   -0.9709 H   0  0  0  0  0  0  0  0  0  0  0  0
   -0.1919    0.8848    0.3924 H   0  0  0  0  0  0  0  0  0  0  0  0
    1.1259   -0.0059    2.5723 H   0  0  0  0  0  0  0  0  0  0  0  0
    1.1604   -1.7612    2.3759 H   0  0  0  0  0  0  0  0  0  0  0  0
    3.2284    1.0121    1.0401 H   0  0  0  0  0  0  0  0  0  0  0  0
    4.2140    1.6540   -1.4452 H   0  0  0  0  0  0  0  0  0  0  0  0
    4.4664    0.2651   -2.5115 H   0  0  0  0  0  0  0  0  0  0  0  0
    5.7586   -1.8179   -1.2807 H   0  0  0  0  0  0  0  0  0  0  0  0
    7.9420   -2.2791   -0.2251 H   0  0  0  0  0  0  0  0  0  0  0  0
    9.2228   -0.4464    0.8492 H   0  0  0  0  0  0  0  0  0  0  0  0
    8.3136    1.8602    0.8611 H   0  0  0  0  0  0  0  0  0  0  0  0
    6.1369    2.3456   -0.1895 H   0  0  0  0  0  0  0  0  0  0  0  0
    1.1538   -2.3374   -0.7378 H   0  0  0  0  0  0  0  0  0  0  0  0
  1  2  1  0
  2  3  1  0
  3  4  1  0
  3  5  1  0
  5  6  1  0
  6  7  2  0
  7  8  1  0
  8  9  1  0
  9 10  1  0
 10 11  2  0
 10 12  1  0
 12 13  1  0
 13 14  2  0
 14 15  1  0
 15 16  1  0
 16 17  1  0
 17 18  2  0
 18 19  1  0
 19 20  2  0
 20 21  1  0
 21 22  2  0
 15 23  1  0
 23 24  2  0
  8 25  2  0
 25  5  1  0
 24 13  1  0
 22 17  1  0
  1 26  1  0
  1 27  1  0
  1 28  1  0
  2 29  1  0
  2 30  1  0
  3 31  1  0
  4 32  1  0
  4 33  1  0
  4 34  1  0
  6 35  1  0
  7 36  1  0
  9 37  1  0
 12 38  1  0
 12 39  1  0
 14 40  1  0
 16 41  1  0
 16 42  1  0
 18 43  1  0
 19 44  1  0
 20 45  1  0
 21 46  1  0
 22 47  1  0
 24 48  1  0
M  END
$$$$
OCNT-2309502
     RDKit          3D

 38 41  0  0  0  0  0  0  0  0999 V2000
   -5.1670    0.5922   -0.3580 O   0  0  0  0  0  0  0  0  0  0  0  0
   -3.9408    0.6802   -0.4443 C   0  0  0  0  0  0  0  0  0  0  0  0
   -3.3132    1.8310   -1.1973 C   0  0  0  0  0  0  0  0  0  0  0  0
   -2.0181    1.4302   -1.8686 C   0  0  0  0  0  0  0  0  0  0  0  0
   -1.1067    0.7700   -0.8765 C   0  0  0  0  0  0  0  0  0  0  0  0
   -1.6554   -0.0552    0.1119 C   0  0  0  0  0  0  0  0  0  0  0  0
   -0.8041   -0.7739    0.9635 C   0  0  0  0  0  0  0  0  0  0  0  0
    0.5871   -0.6092    0.8567 C   0  0  0  0  0  0  0  0  0  0  0  0
    1.1555    0.2257   -0.1183 C   0  0  0  0  0  0  0  0  0  0  0  0
    2.6157    0.3859   -0.2296 C   0  0  0  0  0  0  0  0  0  0  0  0
    3.2011    1.6662   -0.2606 C   0  0  0  0  0  0  0  0  0  0  0  0
    4.5886    1.8299   -0.3665 C   0  0  0  0  0  0  0  0  0  0  0  0
    5.4220    0.7161   -0.4446 C   0  0  0  0  0  0  0  0  0  0  0  0
    4.8605   -0.5515   -0.4148 C   0  0  0  0  0  0  0  0  0  0  0  0
    5.6906   -1.6345   -0.4948 O   0  0  0  0  0  0  0  0  0  0  0  0
    3.4790   -0.7166   -0.3074 C   0  0  0  0  0  0  0  0  0  0  0  0
    2.9940   -1.9700   -0.2899 F   0  0  0  0  0  0  0  0  0  0  0  0
    0.2859    0.8992   -0.9907 C   0  0  0  0  0  0  0  0  0  0  0  0
   -1.3650   -1.6949    2.0125 C   0  0  0  0  0  0  0  0  0  0  0  0
   -2.6995   -2.2561    1.5492 C   0  0  0  0  0  0  0  0  0  0  0  0
   -3.6353   -1.1169    1.1787 C   0  0  0  0  0  0  0  0  0  0  0  0
   -3.0673   -0.1775    0.2179 N   0  0  0  0  0  0  0  0  0  0  0  0
   -4.0218    2.1866   -1.9535 H   0  0  0  0  0  0  0  0  0  0  0  0
   -3.1483    2.6442   -0.4800 H   0  0  0  0  0  0  0  0  0  0  0  0
   -2.2114    0.7252   -2.6864 H   0  0  0  0  0  0  0  0  0  0  0  0
   -1.5448    2.3203   -2.2988 H   0  0  0  0  0  0  0  0  0  0  0  0
    1.2373   -1.1500    1.5435 H   0  0  0  0  0  0  0  0  0  0  0  0
    2.5755    2.5546   -0.1885 H   0  0  0  0  0  0  0  0  0  0  0  0
    5.0170    2.8294   -0.3848 H   0  0  0  0  0  0  0  0  0  0  0  0
    6.4984    0.8358   -0.5273 H   0  0  0  0  0  0  0  0  0  0  0  0
    5.1221   -2.4275   -0.4743 H   0  0  0  0  0  0  0  0  0  0  0  0
    0.6971    1.5226   -1.7835 H   0  0  0  0  0  0  0  0  0  0  0  0
   -0.6757   -2.5263    2.2006 H   0  0  0  0  0  0  0  0  0  0  0  0
   -1.4846   -1.1378    2.9492 H   0  0  0  0  0  0  0  0  0  0  0  0
   -2.5480   -2.9048    0.6765 H   0  0  0  0  0  0  0  0  0  0  0  0
   -3.1464   -2.8713    2.3378 H   0  0  0  0  0  0  0  0  0  0  0  0
   -4.5645   -1.5312    0.7698 H   0  0  0  0  0  0  0  0  0  0  0  0
   -3.9095   -0.5400    2.0712 H   0  0  0  0  0  0  0  0  0  0  0  0
  1  2  2  0
  2  3  1  0
  3  4  1  0
  4  5  1  0
  5  6  2  0
  6  7  1  0
  7  8  2  0
  8  9  1  0
  9 10  1  0
 10 11  2  0
 11 12  1  0
 12 13  2  0
 13 14  1  0
 14 15  1  0
 14 16  2  0
 16 17  1  0
  9 18  2  0
  7 19  1  0
 19 20  1  0
 20 21  1  0
 21 22  1  0
 22  2  1  0
 18  5  1  0
 22  6  1  0
 16 10  1  0
  3 23  1  0
  3 24  1  0
  4 25  1  0
  4 26  1  0
  8 27  1  0
 11 28  1  0
 12 29  1  0
 13 30  1  0
 15 31  1  0
 18 32  1  0
 19 33  1  0
 19 34  1  0
 20 35  1  0
 20 36  1  0
 21 37  1  0
 21 38  1  0
M  END
$$$$
OCNT-2309503
     RDKit          3D

 45 47  0  0  0  0  0  0  0  0999 V2000
   -2.7164   -1.4028    3.2382 C   0  0  0  0  0  0  0  0  0  0  0  0
   -2.8332   -0.7573    1.9097 C   0  0  0  0  0  0  0  0  0  0  0  0
   -3.9854   -0.2919    1.3098 C   0  0  0  0  0  0  0  0  0  0  0  0
   -3.6113    0.2157    0.1017 N   0  0  0  0  0  0  0  0  0  0  0  0
   -4.4420    0.8468   -0.9198 C   0  0  0  0  0  0  0  0  0  0  0  0
   -5.9108    0.4200   -0.8724 C   0  0  0  0  0  0  0  0  0  0  0  0
   -4.3252    2.3696   -0.8400 C   0  0  0  0  0  0  0  0  0  0  0  0
   -2.2915    0.1225   -0.1118 N   0  0  0  0  0  0  0  0  0  0  0  0
   -1.7980   -0.4567    0.9801 C   0  0  0  0  0  0  0  0  0  0  0  0
   -0.4679   -0.7490    1.1922 N   0  0  0  0  0  0  0  0  0  0  0  0
    0.5785   -0.3605    0.3825 C   0  0  0  0  0  0  0  0  0  0  0  0
    0.4914    0.3645   -0.6004 O   0  0  0  0  0  0  0  0  0  0  0  0
    1.8705   -0.8734    0.8414 C   0  0  0  0  0  0  0  0  0  0  0  0
    2.1352   -2.0224    1.5839 C   0  0  0  0  0  0  0  0  0  0  0  0
    3.5278   -2.1190    1.7933 C   0  0  0  0  0  0  0  0  0  0  0  0
    4.1003   -1.0325    1.1816 C   0  0  0  0  0  0  0  0  0  0  0  0
    3.1057   -0.2978    0.5715 N   0  0  0  0  0  0  0  0  0  0  0  0
    3.3674    0.9548   -0.1382 C   0  0  0  0  0  0  0  0  0  0  0  0
    3.9567    0.7181   -1.5044 C   0  0  0  0  0  0  0  0  0  0  0  0
    3.1507    0.3382   -2.5797 C   0  0  0  0  0  0  0  0  0  0  0  0
    3.7417    0.1237   -3.8142 C   0  0  0  0  0  0  0  0  0  0  0  0
    5.0638    0.2590   -4.0482 N   0  0  0  0  0  0  0  0  0  0  0  0
    5.8272    0.6237   -3.0003 C   0  0  0  0  0  0  0  0  0  0  0  0
    5.3294    0.8640   -1.7301 C   0  0  0  0  0  0  0  0  0  0  0  0
   -2.3489   -2.4276    3.1364 H   0  0  0  0  0  0  0  0  0  0  0  0
   -3.6822   -1.4365    3.7501 H   0  0  0  0  0  0  0  0  0  0  0  0
   -2.0214   -0.8462    3.8734 H   0  0  0  0  0  0  0  0  0  0  0  0
   -5.0111   -0.2854    1.6459 H   0  0  0  0  0  0  0  0  0  0  0  0
   -4.0353    0.5088   -1.8835 H   0  0  0  0  0  0  0  0  0  0  0  0
   -6.0147   -0.6687   -0.8664 H   0  0  0  0  0  0  0  0  0  0  0  0
   -6.4137    0.8077    0.0213 H   0  0  0  0  0  0  0  0  0  0  0  0
   -6.4497    0.8019   -1.7471 H   0  0  0  0  0  0  0  0  0  0  0  0
   -4.6583    2.7427    0.1327 H   0  0  0  0  0  0  0  0  0  0  0  0
   -4.9303    2.8525   -1.6138 H   0  0  0  0  0  0  0  0  0  0  0  0
   -3.2878    2.6940   -0.9779 H   0  0  0  0  0  0  0  0  0  0  0  0
   -0.2532   -1.2329    2.0449 H   0  0  0  0  0  0  0  0  0  0  0  0
    1.4023   -2.7421    1.9222 H   0  0  0  0  0  0  0  0  0  0  0  0
    4.0577   -2.8977    2.3275 H   0  0  0  0  0  0  0  0  0  0  0  0
    5.1386   -0.7326    1.1036 H   0  0  0  0  0  0  0  0  0  0  0  0
    2.4604    1.5579   -0.1942 H   0  0  0  0  0  0  0  0  0  0  0  0
    4.0650    1.5233    0.4891 H   0  0  0  0  0  0  0  0  0  0  0  0
    2.0789    0.2110   -2.4682 H   0  0  0  0  0  0  0  0  0  0  0  0
    3.1446   -0.1688   -4.6718 H   0  0  0  0  0  0  0  0  0  0  0  0
    6.8870    0.7244   -3.2130 H   0  0  0  0  0  0  0  0  0  0  0  0
    6.0074    1.1572   -0.9350 H   0  0  0  0  0  0  0  0  0  0  0  0
  1  2  1  0
  2  3  2  0
  3  4  1  0
  4  5  1  0
  5  6  1  0
  5  7  1  0
  4  8  1  0
  8  9  2  0
  9 10  1  0
 10 11  1  0
 11 12  2  0
 11 13  1  0
 13 14  2  0
 14 15  1  0
 15 16  2  0
 16 17  1  0
 17 18  1  0
 18 19  1  0
 19 20  2  0
 20 21  1  0
 21 22  2  0
 22 23  1  0
 23 24  2  0
  9  2  1  0
 17 13  1  0
 24 19  1  0
  1 25  1  0
  1 26  1  0
  1 27  1  0
  3 28  1  0
  5 29  1  0
  6 30  1  0
  6 31  1  0
  6 32  1  0
  7 33  1  0
  7 34  1  0
  7 35  1  0
 10 36  1  0
 14 37  1  0
 15 38  1  0
 16 39  1  0
 18 40  1  0
 18 41  1  0
 20 42  1  0
 21 43  1  0
 23 44  1  0
 24 45  1  0
M  END
$$$$
OCNT-2309511
     RDKit          3D

 49 51  0  0  0  0  0  0  0  0999 V2000
    7.3775   -0.4917    0.0288 C   0  0  0  0  0  0  0  0  0  0  0  0
    5.9331   -0.4162   -0.2460 C   0  0  0  0  0  0  0  0  0  0  0  0
    4.8020   -0.6958    0.4790 C   0  0  0  0  0  0  0  0  0  0  0  0
    3.7355   -0.3943   -0.3954 C   0  0  0  0  0  0  0  0  0  0  0  0
    2.3831   -0.4882   -0.1815 N   0  0  0  0  0  0  0  0  0  0  0  0
    1.7718   -0.9828    0.9511 C   0  0  0  0  0  0  0  0  0  0  0  0
    2.3527   -1.4307    1.9390 O   0  0  0  0  0  0  0  0  0  0  0  0
    0.2161   -0.9005    0.8887 C   0  0  0  0  0  0  0  0  0  0  0  0
   -0.1933    0.4918    1.3729 C   0  0  0  0  0  0  0  0  0  0  0  0
   -0.5770    0.6710    2.7123 C   0  0  0  0  0  0  0  0  0  0  0  0
   -0.9445    1.9319    3.1851 C   0  0  0  0  0  0  0  0  0  0  0  0
   -0.9268    3.0311    2.3298 C   0  0  0  0  0  0  0  0  0  0  0  0
   -0.5356    2.8735    1.0026 C   0  0  0  0  0  0  0  0  0  0  0  0
   -0.1651    1.6147    0.5272 C   0  0  0  0  0  0  0  0  0  0  0  0
   -0.2902   -1.2602   -0.4908 N   0  0  0  0  0  0  0  0  0  0  0  0
    0.1030   -2.6493   -0.8132 C   0  0  0  0  0  0  0  0  0  0  0  0
   -1.7710   -1.1581   -0.5516 C   0  0  0  0  0  0  0  0  0  0  0  0
   -2.2708   -1.0652   -2.0021 C   0  0  0  0  0  0  0  0  0  0  0  0
   -3.7900   -0.9000   -2.0908 C   0  0  0  0  0  0  0  0  0  0  0  0
   -4.2809    0.3574   -1.5687 N   0  0  0  0  0  0  0  0  0  0  0  0
   -4.0994    1.5913   -2.1270 C   0  0  0  0  0  0  0  0  0  0  0  0
   -4.7619    2.4585   -1.2899 C   0  0  0  0  0  0  0  0  0  0  0  0
   -5.3506    1.7805   -0.2541 N   0  0  0  0  0  0  0  0  0  0  0  0
   -5.0456    0.5175   -0.4491 C   0  0  0  0  0  0  0  0  0  0  0  0
    4.1932    0.0397   -1.5753 N   0  0  0  0  0  0  0  0  0  0  0  0
    5.5725    0.0245   -1.4795 O   0  0  0  0  0  0  0  0  0  0  0  0
    7.8649   -1.1815   -0.6670 H   0  0  0  0  0  0  0  0  0  0  0  0
    7.8410    0.4936   -0.0798 H   0  0  0  0  0  0  0  0  0  0  0  0
    7.5659   -0.8458    1.0470 H   0  0  0  0  0  0  0  0  0  0  0  0
    4.7574   -1.0605    1.4942 H   0  0  0  0  0  0  0  0  0  0  0  0
    1.7931   -0.2301   -0.9634 H   0  0  0  0  0  0  0  0  0  0  0  0
   -0.1733   -1.6502    1.5923 H   0  0  0  0  0  0  0  0  0  0  0  0
   -0.5896   -0.1716    3.4008 H   0  0  0  0  0  0  0  0  0  0  0  0
   -1.2452    2.0571    4.2222 H   0  0  0  0  0  0  0  0  0  0  0  0
   -1.2190    4.0111    2.6976 H   0  0  0  0  0  0  0  0  0  0  0  0
   -0.5235    3.7314    0.3353 H   0  0  0  0  0  0  0  0  0  0  0  0
    0.1278    1.5157   -0.5153 H   0  0  0  0  0  0  0  0  0  0  0  0
   -0.3221   -3.3706   -0.1055 H   0  0  0  0  0  0  0  0  0  0  0  0
   -0.2194   -2.9272   -1.8212 H   0  0  0  0  0  0  0  0  0  0  0  0
    1.1893   -2.7792   -0.8153 H   0  0  0  0  0  0  0  0  0  0  0  0
   -2.1190   -0.2570   -0.0402 H   0  0  0  0  0  0  0  0  0  0  0  0
   -2.2452   -2.0021   -0.0337 H   0  0  0  0  0  0  0  0  0  0  0  0
   -2.0073   -1.9734   -2.5545 H   0  0  0  0  0  0  0  0  0  0  0  0
   -1.7738   -0.2279   -2.5082 H   0  0  0  0  0  0  0  0  0  0  0  0
   -4.1077   -0.9468   -3.1393 H   0  0  0  0  0  0  0  0  0  0  0  0
   -4.2977   -1.7132   -1.5593 H   0  0  0  0  0  0  0  0  0  0  0  0
   -3.5335    1.7500   -3.0339 H   0  0  0  0  0  0  0  0  0  0  0  0
   -4.8504    3.5333   -1.3801 H   0  0  0  0  0  0  0  0  0  0  0  0
   -5.3503   -0.3056    0.1839 H   0  0  0  0  0  0  0  0  0  0  0  0
  1  2  1  0
  2  3  2  0
  3  4  1  0
  4  5  1  0
  5  6  1  0
  6  7  2  0
  6  8  1  0
  8  9  1  0
  9 10  2  0
 10 11  1  0
 11 12  2  0
 12 13  1  0
 13 14  2  0
  8 15  1  0
 15 16  1  0
 15 17  1  0
 17 18  1  0
 18 19  1  0
 19 20  1  0
 20 21  1  0
 21 22  2  0
 22 23  1  0
 23 24  2  0
  4 25  2  0
 25 26  1  0
 26  2  1  0
 14  9  1  0
 24 20  1  0
  1 27  1  0
  1 28  1  0
  1 29  1  0
  3 30  1  0
  5 31  1  0
  8 32  1  0
 10 33  1  0
 11 34  1  0
 12 35  1  0
 13 36  1  0
 14 37  1  0
 16 38  1  0
 16 39  1  0
 16 40  1  0
 17 41  1  0
 17 42  1  0
 18 43  1  0
 18 44  1  0
 19 45  1  0
 19 46  1  0
 21 47  1  0
 22 48  1  0
 24 49  1  0
M  END
$$$$
OCNT-2309518
     RDKit          3D

 48 50  0  0  0  0  0  0  0  0999 V2000
   -6.3328    2.2605   -0.1722 C   0  0  0  0  0  0  0  0  0  0  0  0
   -4.8738    1.9146   -0.2894 C   0  0  0  0  0  0  0  0  0  0  0  0
   -3.9173    2.9370   -0.3095 C   0  0  0  0  0  0  0  0  0  0  0  0
   -2.5601    2.6335   -0.4248 C   0  0  0  0  0  0  0  0  0  0  0  0
   -2.1354    1.3055   -0.5241 C   0  0  0  0  0  0  0  0  0  0  0  0
   -0.7444    1.0801   -0.6274 N   0  0  0  0  0  0  0  0  0  0  0  0
   -0.1008   -0.1058   -0.9100 C   0  0  0  0  0  0  0  0  0  0  0  0
   -0.6698   -1.1475   -1.2285 O   0  0  0  0  0  0  0  0  0  0  0  0
    1.2864   -0.0478   -0.8091 N   0  0  0  0  0  0  0  0  0  0  0  0
    2.0592    1.1069   -0.3265 C   0  0  0  0  0  0  0  0  0  0  0  0
    3.5787    0.8589   -0.2692 C   0  0  0  0  0  0  0  0  0  0  0  0
    3.8627   -0.3753    0.4757 N   0  0  0  0  0  0  0  0  0  0  0  0
    5.1991   -0.5940    0.8061 C   0  0  0  0  0  0  0  0  0  0  0  0
    5.6012   -1.6668    1.6145 C   0  0  0  0  0  0  0  0  0  0  0  0
    6.8866   -1.9221    1.9763 N   0  0  0  0  0  0  0  0  0  0  0  0
    7.7893   -1.0398    1.5088 C   0  0  0  0  0  0  0  0  0  0  0  0
    7.4225    0.0354    0.7238 C   0  0  0  0  0  0  0  0  0  0  0  0
    6.1381    0.2767    0.3659 N   0  0  0  0  0  0  0  0  0  0  0  0
    3.0374   -1.5545    0.1410 C   0  0  0  0  0  0  0  0  0  0  0  0
    2.0605   -1.2755   -1.0186 C   0  0  0  0  0  0  0  0  0  0  0  0
   -3.0901    0.2846   -0.4904 C   0  0  0  0  0  0  0  0  0  0  0  0
   -4.4562    0.5759   -0.3914 C   0  0  0  0  0  0  0  0  0  0  0  0
   -5.4628   -0.3534   -0.3709 O   0  0  0  0  0  0  0  0  0  0  0  0
   -5.1562   -1.7281   -0.6292 C   0  0  0  0  0  0  0  0  0  0  0  0
   -4.9103   -2.5198    0.6491 C   0  0  0  0  0  0  0  0  0  0  0  0
   -5.9897   -2.4447    1.4691 F   0  0  0  0  0  0  0  0  0  0  0  0
   -3.8520   -2.0386    1.3425 F   0  0  0  0  0  0  0  0  0  0  0  0
   -6.8579    1.9974   -1.0957 H   0  0  0  0  0  0  0  0  0  0  0  0
   -6.7859    1.7271    0.6695 H   0  0  0  0  0  0  0  0  0  0  0  0
   -6.4784    3.3314    0.0043 H   0  0  0  0  0  0  0  0  0  0  0  0
   -4.2236    3.9774   -0.2323 H   0  0  0  0  0  0  0  0  0  0  0  0
   -1.8456    3.4517   -0.4358 H   0  0  0  0  0  0  0  0  0  0  0  0
   -0.1739    1.9071   -0.6099 H   0  0  0  0  0  0  0  0  0  0  0  0
    1.8533    1.9629   -0.9786 H   0  0  0  0  0  0  0  0  0  0  0  0
    1.6865    1.3467    0.6770 H   0  0  0  0  0  0  0  0  0  0  0  0
    4.0409    1.7279    0.2154 H   0  0  0  0  0  0  0  0  0  0  0  0
    3.9799    0.7839   -1.2882 H   0  0  0  0  0  0  0  0  0  0  0  0
    4.8757   -2.3629    2.0216 H   0  0  0  0  0  0  0  0  0  0  0  0
    8.8219   -1.2171    1.7854 H   0  0  0  0  0  0  0  0  0  0  0  0
    8.1562    0.7440    0.3566 H   0  0  0  0  0  0  0  0  0  0  0  0
    2.4667   -1.8326    1.0352 H   0  0  0  0  0  0  0  0  0  0  0  0
    3.6543   -2.4152   -0.1450 H   0  0  0  0  0  0  0  0  0  0  0  0
    1.4116   -2.1453   -1.1609 H   0  0  0  0  0  0  0  0  0  0  0  0
    2.6201   -1.1379   -1.9517 H   0  0  0  0  0  0  0  0  0  0  0  0
   -2.7568   -0.7439   -0.5089 H   0  0  0  0  0  0  0  0  0  0  0  0
   -6.0493   -2.1405   -1.1122 H   0  0  0  0  0  0  0  0  0  0  0  0
   -4.3414   -1.8436   -1.3509 H   0  0  0  0  0  0  0  0  0  0  0  0
   -4.7243   -3.5747    0.4278 H   0  0  0  0  0  0  0  0  0  0  0  0
  1  2  1  0
  2  3  1  0
  3  4  2  0
  4  5  1  0
  5  6  1  0
  6  7  1  0
  7  8  2  0
  7  9  1  0
  9 10  1  0
 10 11  1  0
 11 12  1  0
 12 13  1  0
 13 14  2  0
 14 15  1  0
 15 16  2  0
 16 17  1  0
 17 18  2  0
 12 19  1  0
 19 20  1  0
  5 21  2  0
 21 22  1  0
 22 23  1  0
 23 24  1  0
 24 25  1  0
 25 26  1  0
 25 27  1  0
 22  2  2  0
 20  9  1  0
 18 13  1  0
  1 28  1  0
  1 29  1  0
  1 30  1  0
  3 31  1  0
  4 32  1  0
  6 33  1  0
 10 34  1  0
 10 35  1  0
 11 36  1  0
 11 37  1  0
 14 38  1  0
 16 39  1  0
 17 40  1  0
 19 41  1  0
 19 42  1  0
 20 43  1  0
 20 44  1  0
 21 45  1  0
 24 46  1  0
 24 47  1  0
 25 48  1  0
M  END
$$$$
OCNT-2309526
     RDKit          3D

 47 49  0  0  0  0  0  0  0  0999 V2000
   -2.2140    1.1151   -2.2154 C   0  0  0  0  0  0  0  0  0  0  0  0
   -1.8737    0.2949   -1.0635 N   0  0  0  0  0  0  0  0  0  0  0  0
   -2.9198   -0.6032   -0.5686 C   0  0  0  0  0  0  0  0  0  0  0  0
   -4.2374    0.0795   -0.2656 C   0  0  0  0  0  0  0  0  0  0  0  0
   -4.3105    1.1054    0.6889 C   0  0  0  0  0  0  0  0  0  0  0  0
   -5.5310    1.7171    0.9811 C   0  0  0  0  0  0  0  0  0  0  0  0
   -6.6925    1.3054    0.3303 C   0  0  0  0  0  0  0  0  0  0  0  0
   -6.6344    0.2834   -0.6150 C   0  0  0  0  0  0  0  0  0  0  0  0
   -5.4139   -0.3271   -0.9124 C   0  0  0  0  0  0  0  0  0  0  0  0
   -0.9048    0.7996   -0.2073 C   0  0  0  0  0  0  0  0  0  0  0  0
   -0.5828    1.9879   -0.2259 O   0  0  0  0  0  0  0  0  0  0  0  0
   -0.2924   -0.1143    0.6469 N   0  0  0  0  0  0  0  0  0  0  0  0
    0.6034    0.4119    1.6683 C   0  0  0  0  0  0  0  0  0  0  0  0
    2.0515    0.4195    1.1852 C   0  0  0  0  0  0  0  0  0  0  0  0
    2.4172   -0.8488    0.3916 C   0  0  0  0  0  0  0  0  0  0  0  0
    3.6805   -1.3755    0.8237 O   0  0  0  0  0  0  0  0  0  0  0  0
    4.7907   -0.7803    0.2584 C   0  0  0  0  0  0  0  0  0  0  0  0
    4.6468    0.3473   -0.4791 N   0  0  0  0  0  0  0  0  0  0  0  0
    5.7767    0.8903   -0.9847 C   0  0  0  0  0  0  0  0  0  0  0  0
    7.0452    0.3567   -0.7939 C   0  0  0  0  0  0  0  0  0  0  0  0
    7.1669   -0.7997   -0.0283 C   0  0  0  0  0  0  0  0  0  0  0  0
    6.0230   -1.3723    0.5116 C   0  0  0  0  0  0  0  0  0  0  0  0
    6.1302   -2.4741    1.2669 F   0  0  0  0  0  0  0  0  0  0  0  0
    1.3843   -1.9573    0.6127 C   0  0  0  0  0  0  0  0  0  0  0  0
   -0.0142   -1.4889    0.2188 C   0  0  0  0  0  0  0  0  0  0  0  0
   -2.8832    1.9261   -1.9143 H   0  0  0  0  0  0  0  0  0  0  0  0
   -2.6899    0.4925   -2.9793 H   0  0  0  0  0  0  0  0  0  0  0  0
   -1.3052    1.5552   -2.6381 H   0  0  0  0  0  0  0  0  0  0  0  0
   -2.6144   -1.1061    0.3525 H   0  0  0  0  0  0  0  0  0  0  0  0
   -3.0556   -1.3780   -1.3330 H   0  0  0  0  0  0  0  0  0  0  0  0
   -3.4117    1.4398    1.2045 H   0  0  0  0  0  0  0  0  0  0  0  0
   -5.5733    2.5164    1.7156 H   0  0  0  0  0  0  0  0  0  0  0  0
   -7.6419    1.7821    0.5585 H   0  0  0  0  0  0  0  0  0  0  0  0
   -7.5410   -0.0382   -1.1216 H   0  0  0  0  0  0  0  0  0  0  0  0
   -5.3897   -1.1236   -1.6525 H   0  0  0  0  0  0  0  0  0  0  0  0
    0.4982   -0.2246    2.5551 H   0  0  0  0  0  0  0  0  0  0  0  0
    0.3004    1.4204    1.9702 H   0  0  0  0  0  0  0  0  0  0  0  0
    2.7197    0.5653    2.0420 H   0  0  0  0  0  0  0  0  0  0  0  0
    2.2024    1.2882    0.5312 H   0  0  0  0  0  0  0  0  0  0  0  0
    2.4333   -0.6368   -0.6867 H   0  0  0  0  0  0  0  0  0  0  0  0
    5.6329    1.8005   -1.5633 H   0  0  0  0  0  0  0  0  0  0  0  0
    7.9157    0.8374   -1.2269 H   0  0  0  0  0  0  0  0  0  0  0  0
    8.1348   -1.2530    0.1513 H   0  0  0  0  0  0  0  0  0  0  0  0
    1.3977   -2.2652    1.6674 H   0  0  0  0  0  0  0  0  0  0  0  0
    1.6561   -2.8560    0.0463 H   0  0  0  0  0  0  0  0  0  0  0  0
   -0.1308   -1.5663   -0.8677 H   0  0  0  0  0  0  0  0  0  0  0  0
   -0.7498   -2.1487    0.6898 H   0  0  0  0  0  0  0  0  0  0  0  0
  1  2  1  0
  2  3  1  0
  3  4  1  0
  4  5  2  0
  5  6  1  0
  6  7  2  0
  7  8  1  0
  8  9  2  0
  2 10  1  0
 10 11  2  0
 10 12  1  0
 12 13  1  0
 13 14  1  0
 14 15  1  0
 15 16  1  0
 16 17  1  0
 17 18  1  0
 18 19  2  0
 19 20  1  0
 20 21  2  0
 21 22  1  0
 22 23  1  0
 15 24  1  0
 24 25  1  0
  9  4  1  0
 25 12  1  0
 22 17  2  0
  1 26  1  0
  1 27  1  0
  1 28  1  0
  3 29  1  0
  3 30  1  0
  5 31  1  0
  6 32  1  0
  7 33  1  0
  8 34  1  0
  9 35  1  0
 13 36  1  0
 13 37  1  0
 14 38  1  0
 14 39  1  0
 15 40  1  0
 19 41  1  0
 20 42  1  0
 21 43  1  0
 24 44  1  0
 24 45  1  0
 25 46  1  0
 25 47  1  0
M  END
$$$$
OCNT-2309532
     RDKit          3D

 40 43  0  0  0  0  0  0  0  0999 V2000
   -1.2147    2.2006    2.1555 O   0  0  0  0  0  0  0  0  0  0  0  0
   -0.7850    1.2802    1.4558 C   0  0  0  0  0  0  0  0  0  0  0  0
    0.6610    0.9426    1.5800 C   0  0  0  0  0  0  0  0  0  0  0  0
    1.3521    0.1578    0.7331 N   0  0  0  0  0  0  0  0  0  0  0  0
    2.6294    0.1552    1.1874 N   0  0  0  0  0  0  0  0  0  0  0  0
    3.6253   -0.6184    0.5309 C   0  0  0  0  0  0  0  0  0  0  0  0
    3.2666   -1.4158   -0.5667 C   0  0  0  0  0  0  0  0  0  0  0  0
    4.2301   -2.1941   -1.2006 C   0  0  0  0  0  0  0  0  0  0  0  0
    3.8741   -2.9658   -2.2340 F   0  0  0  0  0  0  0  0  0  0  0  0
    5.5481   -2.1978   -0.7706 C   0  0  0  0  0  0  0  0  0  0  0  0
    5.8981   -1.4021    0.3078 C   0  0  0  0  0  0  0  0  0  0  0  0
    7.1674   -1.3943    0.7361 F   0  0  0  0  0  0  0  0  0  0  0  0
    4.9563   -0.6117    0.9655 C   0  0  0  0  0  0  0  0  0  0  0  0
    2.7709    0.9491    2.2982 C   0  0  0  0  0  0  0  0  0  0  0  0
    1.5311    1.4716    2.5710 C   0  0  0  0  0  0  0  0  0  0  0  0
   -1.5965    0.5412    0.5588 N   0  0  0  0  0  0  0  0  0  0  0  0
   -1.2247   -0.8276    0.1770 C   0  0  0  0  0  0  0  0  0  0  0  0
   -2.4157   -1.7357   -0.0624 C   0  0  0  0  0  0  0  0  0  0  0  0
   -3.2681   -1.1507   -1.1653 C   0  0  0  0  0  0  0  0  0  0  0  0
   -3.6160    0.2778   -0.8579 C   0  0  0  0  0  0  0  0  0  0  0  0
   -4.7671    0.8093   -1.4685 C   0  0  0  0  0  0  0  0  0  0  0  0
   -5.1447    2.1251   -1.2473 C   0  0  0  0  0  0  0  0  0  0  0  0
   -4.3634    2.9267   -0.4276 C   0  0  0  0  0  0  0  0  0  0  0  0
   -3.2052    2.4124    0.1652 C   0  0  0  0  0  0  0  0  0  0  0  0
   -2.8058    1.0809   -0.0246 C   0  0  0  0  0  0  0  0  0  0  0  0
    2.2460   -1.4516   -0.9391 H   0  0  0  0  0  0  0  0  0  0  0  0
    6.2880   -2.8162   -1.2673 H   0  0  0  0  0  0  0  0  0  0  0  0
    5.3005   -0.0143    1.8007 H   0  0  0  0  0  0  0  0  0  0  0  0
    3.7145    1.0876    2.8020 H   0  0  0  0  0  0  0  0  0  0  0  0
    1.2712    2.1567    3.3665 H   0  0  0  0  0  0  0  0  0  0  0  0
   -0.6056   -0.7695   -0.7264 H   0  0  0  0  0  0  0  0  0  0  0  0
   -0.6380   -1.2842    0.9801 H   0  0  0  0  0  0  0  0  0  0  0  0
   -3.0009   -1.8319    0.8594 H   0  0  0  0  0  0  0  0  0  0  0  0
   -2.0777   -2.7394   -0.3408 H   0  0  0  0  0  0  0  0  0  0  0  0
   -2.7365   -1.1853   -2.1219 H   0  0  0  0  0  0  0  0  0  0  0  0
   -4.1765   -1.7537   -1.2672 H   0  0  0  0  0  0  0  0  0  0  0  0
   -5.3751    0.1912   -2.1222 H   0  0  0  0  0  0  0  0  0  0  0  0
   -6.0392    2.5253   -1.7161 H   0  0  0  0  0  0  0  0  0  0  0  0
   -4.6437    3.9614   -0.2469 H   0  0  0  0  0  0  0  0  0  0  0  0
   -2.6306    3.1073    0.7651 H   0  0  0  0  0  0  0  0  0  0  0  0
  1  2  2  0
  2  3  1  0
  3  4  2  0
  4  5  1  0
  5  6  1  0
  6  7  2  0
  7  8  1  0
  8  9  1  0
  8 10  2  0
 10 11  1  0
 11 12  1  0
 11 13  2  0
  5 14  1  0
 14 15  2  0
  2 16  1  0
 16 17  1  0
 17 18  1  0
 18 19  1  0
 19 20  1  0
 20 21  2  0
 21 22  1  0
 22 23  2  0
 23 24  1  0
 24 25  2  0
 15  3  1  0
 25 16  1  0
 13  6  1  0
 25 20  1  0
  7 26  1  0
 10 27  1  0
 13 28  1  0
 14 29  1  0
 15 30  1  0
 17 31  1  0
 17 32  1  0
 18 33  1  0
 18 34  1  0
 19 35  1  0
 19 36  1  0
 21 37  1  0
 22 38  1  0
 23 39  1  0
 24 40  1  0
M  END
$$$$
OCNT-2309536
     RDKit          3D

 44 46  0  0  0  0  0  0  0  0999 V2000
   -3.9600   -3.0008    0.6050 C   0  0  0  0  0  0  0  0  0  0  0  0
   -3.6256   -1.6332    0.4066 O   0  0  0  0  0  0  0  0  0  0  0  0
   -2.2290   -1.4535    0.1721 C   0  0  0  0  0  0  0  0  0  0  0  0
   -1.9054    0.0311   -0.1365 C   0  0  0  0  0  0  0  0  0  0  0  0
   -0.3818    0.0853   -0.4453 C   0  0  0  0  0  0  0  0  0  0  0  0
    0.0352    0.3490   -1.5704 O   0  0  0  0  0  0  0  0  0  0  0  0
    0.4391   -0.2342    0.6276 N   0  0  0  0  0  0  0  0  0  0  0  0
    1.8522   -0.2809    0.6451 C   0  0  0  0  0  0  0  0  0  0  0  0
    2.4900   -0.6263    1.8311 C   0  0  0  0  0  0  0  0  0  0  0  0
    3.8314   -0.7132    1.9928 N   0  0  0  0  0  0  0  0  0  0  0  0
    4.6228   -0.4446    0.9329 C   0  0  0  0  0  0  0  0  0  0  0  0
    4.0734   -0.0819   -0.3179 C   0  0  0  0  0  0  0  0  0  0  0  0
    2.6747   -0.0054   -0.4415 C   0  0  0  0  0  0  0  0  0  0  0  0
    4.9125    0.1960   -1.4140 C   0  0  0  0  0  0  0  0  0  0  0  0
    6.2959    0.1170   -1.2815 C   0  0  0  0  0  0  0  0  0  0  0  0
    6.8352   -0.2392   -0.0551 C   0  0  0  0  0  0  0  0  0  0  0  0
    8.1671   -0.3162    0.0741 F   0  0  0  0  0  0  0  0  0  0  0  0
    6.0116   -0.5149    1.0323 C   0  0  0  0  0  0  0  0  0  0  0  0
    6.5824   -0.8562    2.2006 F   0  0  0  0  0  0  0  0  0  0  0  0
   -2.2611    0.9323    1.0824 C   0  0  0  0  0  0  0  0  0  0  0  0
   -2.5077    2.3803    0.6664 C   0  0  0  0  0  0  0  0  0  0  0  0
   -3.7202    2.5055   -0.2541 C   0  0  0  0  0  0  0  0  0  0  0  0
   -3.9994    1.2358   -1.0553 C   0  0  0  0  0  0  0  0  0  0  0  0
   -2.7104    0.4917   -1.3956 C   0  0  0  0  0  0  0  0  0  0  0  0
   -3.7202   -3.5865   -0.2875 H   0  0  0  0  0  0  0  0  0  0  0  0
   -3.4300   -3.4023    1.4740 H   0  0  0  0  0  0  0  0  0  0  0  0
   -5.0355   -3.0687    0.7889 H   0  0  0  0  0  0  0  0  0  0  0  0
   -1.6873   -1.7949    1.0623 H   0  0  0  0  0  0  0  0  0  0  0  0
   -1.9169   -2.0869   -0.6689 H   0  0  0  0  0  0  0  0  0  0  0  0
   -0.0094   -0.4525    1.5083 H   0  0  0  0  0  0  0  0  0  0  0  0
    1.9275   -0.8559    2.7321 H   0  0  0  0  0  0  0  0  0  0  0  0
    2.2562    0.2749   -1.4031 H   0  0  0  0  0  0  0  0  0  0  0  0
    4.4876    0.4758   -2.3770 H   0  0  0  0  0  0  0  0  0  0  0  0
    6.9514    0.3293   -2.1204 H   0  0  0  0  0  0  0  0  0  0  0  0
   -3.1631    0.5615    1.5858 H   0  0  0  0  0  0  0  0  0  0  0  0
   -1.4762    0.9242    1.8447 H   0  0  0  0  0  0  0  0  0  0  0  0
   -2.6572    3.0079    1.5525 H   0  0  0  0  0  0  0  0  0  0  0  0
   -1.6172    2.7698    0.1573 H   0  0  0  0  0  0  0  0  0  0  0  0
   -3.5603    3.3501   -0.9353 H   0  0  0  0  0  0  0  0  0  0  0  0
   -4.6117    2.7531    0.3348 H   0  0  0  0  0  0  0  0  0  0  0  0
   -4.6684    0.5818   -0.4844 H   0  0  0  0  0  0  0  0  0  0  0  0
   -4.5371    1.4959   -1.9744 H   0  0  0  0  0  0  0  0  0  0  0  0
   -2.1115    1.1679   -2.0187 H   0  0  0  0  0  0  0  0  0  0  0  0
   -2.9435   -0.3685   -2.0355 H   0  0  0  0  0  0  0  0  0  0  0  0
  1  2  1  0
  2  3  1  0
  3  4  1  0
  4  5  1  0
  5  6  2  0
  5  7  1  0
  7  8  1  0
  8  9  1  0
  9 10  2  0
 10 11  1  0
 11 12  1  0
 12 13  1  0
 12 14  2  0
 14 15  1  0
 15 16  2  0
 16 17  1  0
 16 18  1  0
 18 19  1  0
  4 20  1  0
 20 21  1  0
 21 22  1  0
 22 23  1  0
 23 24  1  0
 24  4  1  0
 13  8  2  0
 18 11  2  0
  1 25  1  0
  1 26  1  0
  1 27  1  0
  3 28  1  0
  3 29  1  0
  7 30  1  0
  9 31  1  0
 13 32  1  0
 14 33  1  0
 15 34  1  0
 20 35  1  0
 20 36  1  0
 21 37  1  0
 21 38  1  0
 22 39  1  0
 22 40  1  0
 23 41  1  0
 23 42  1  0
 24 43  1  0
 24 44  1  0
M  END
$$$$
OCNT-2309544
     RDKit          3D

 43 45  0  0  0  0  0  0  0  0999 V2000
   -3.5287   -2.8362   -0.6448 C   0  0  0  0  0  0  0  0  0  0  0  0
   -2.3413   -1.9171   -0.9445 C   0  0  2  0  0  0  0  0  0  0  0  0
   -1.2025   -2.2862   -0.1165 N   0  0  0  0  0  0  0  0  0  0  0  0
   -0.3422   -3.3031   -0.4760 C   0  0  0  0  0  0  0  0  0  0  0  0
   -0.5099   -4.0211   -1.4586 O   0  0  0  0  0  0  0  0  0  0  0  0
    0.8598   -3.4460    0.4349 C   0  0  0  0  0  0  0  0  0  0  0  0
    1.8277   -2.3584    0.1564 C   0  0  0  0  0  0  0  0  0  0  0  0
    1.8985   -1.2669    0.9322 N   0  0  0  0  0  0  0  0  0  0  0  0
    2.8683   -0.5293    0.3160 N   0  0  0  0  0  0  0  0  0  0  0  0
    3.2654    0.7462    0.7945 C   0  0  0  0  0  0  0  0  0  0  0  0
    4.2257    1.4910    0.0958 C   0  0  0  0  0  0  0  0  0  0  0  0
    4.6049    2.7518    0.5619 C   0  0  0  0  0  0  0  0  0  0  0  0
    4.0343    3.2690    1.7259 C   0  0  0  0  0  0  0  0  0  0  0  0
    3.0827    2.5284    2.4273 C   0  0  0  0  0  0  0  0  0  0  0  0
    2.6940    1.2682    1.9645 C   0  0  0  0  0  0  0  0  0  0  0  0
    3.4062   -1.0879   -0.8039 N   0  0  0  0  0  0  0  0  0  0  0  0
    2.7444   -2.2415   -0.8987 C   0  0  0  0  0  0  0  0  0  0  0  0
   -2.6121   -0.4351   -0.7883 C   0  0  0  0  0  0  0  0  0  0  0  0
   -1.7417    0.4913   -1.3759 C   0  0  0  0  0  0  0  0  0  0  0  0
   -1.9627    1.8604   -1.2260 C   0  0  0  0  0  0  0  0  0  0  0  0
   -3.0605    2.2941   -0.4846 C   0  0  0  0  0  0  0  0  0  0  0  0
   -3.2950    3.7901   -0.3165 C   0  0  0  0  0  0  0  0  0  0  0  0
   -3.2407    4.4652   -1.5040 F   0  0  0  0  0  0  0  0  0  0  0  0
   -4.5011    4.1119    0.2337 F   0  0  0  0  0  0  0  0  0  0  0  0
   -2.3534    4.3799    0.4779 F   0  0  0  0  0  0  0  0  0  0  0  0
   -3.9109    1.4097    0.1087 N   0  0  0  0  0  0  0  0  0  0  0  0
   -3.6703    0.0863   -0.0539 C   0  0  0  0  0  0  0  0  0  0  0  0
   -4.4054   -2.5574   -1.2392 H   0  0  0  0  0  0  0  0  0  0  0  0
   -3.2828   -3.8779   -0.8799 H   0  0  0  0  0  0  0  0  0  0  0  0
   -3.8059   -2.8064    0.4155 H   0  0  0  0  0  0  0  0  0  0  0  0
   -2.0692   -2.0889   -1.9953 H   0  0  0  0  0  0  0  0  0  0  0  0
   -0.8640   -1.6065    0.5605 H   0  0  0  0  0  0  0  0  0  0  0  0
    0.5229   -3.4273    1.4788 H   0  0  0  0  0  0  0  0  0  0  0  0
    1.3172   -4.4283    0.2639 H   0  0  0  0  0  0  0  0  0  0  0  0
    4.6824    1.1025   -0.8129 H   0  0  0  0  0  0  0  0  0  0  0  0
    5.3437    3.3360    0.0161 H   0  0  0  0  0  0  0  0  0  0  0  0
    4.3337    4.2504    2.0872 H   0  0  0  0  0  0  0  0  0  0  0  0
    2.6416    2.9343    3.3360 H   0  0  0  0  0  0  0  0  0  0  0  0
    1.9495    0.7072    2.5263 H   0  0  0  0  0  0  0  0  0  0  0  0
    2.9494   -2.9226   -1.7151 H   0  0  0  0  0  0  0  0  0  0  0  0
   -0.8838    0.1490   -1.9515 H   0  0  0  0  0  0  0  0  0  0  0  0
   -1.2824    2.5749   -1.6843 H   0  0  0  0  0  0  0  0  0  0  0  0
   -4.3857   -0.5536    0.4566 H   0  0  0  0  0  0  0  0  0  0  0  0
  1  2  1  0
  2  3  1  0
  3  4  1  0
  4  5  2  0
  4  6  1  0
  6  7  1  0
  7  8  2  0
  8  9  1  0
  9 10  1  0
 10 11  2  0
 11 12  1  0
 12 13  2  0
 13 14  1  0
 14 15  2  0
  9 16  1  0
 16 17  2  0
  2 18  1  0
 18 19  2  0
 19 20  1  0
 20 21  2  0
 21 22  1  0
 22 23  1  0
 22 24  1  0
 22 25  1  0
 21 26  1  0
 26 27  2  0
 17  7  1  0
 27 18  1  0
 15 10  1  0
  1 28  1  0
  1 29  1  0
  1 30  1  0
  2 31  1  6
  3 32  1  0
  6 33  1  0
  6 34  1  0
 11 35  1  0
 12 36  1  0
 13 37  1  0
 14 38  1  0
 15 39  1  0
 17 40  1  0
 19 41  1  0
 20 42  1  0
 27 43  1  0
M  END
$$$$
OCNT-2309576
     RDKit          3D

 45 48  0  0  0  0  0  0  0  0999 V2000
   -0.7238   -2.0294   -2.4571 O   0  0  0  0  0  0  0  0  0  0  0  0
   -0.8413   -1.8004   -1.2469 C   0  0  0  0  0  0  0  0  0  0  0  0
   -2.2516   -1.5375   -0.6928 C   0  0  0  0  0  0  0  0  0  0  0  0
   -2.6474   -2.6526    0.2865 C   0  0  0  0  0  0  0  0  0  0  0  0
   -3.9882   -2.3851    0.9405 C   0  0  0  0  0  0  0  0  0  0  0  0
   -3.8528   -0.9581    2.0479 S   0  0  0  0  0  0  0  0  0  0  0  0
   -3.1674    0.2433    0.9203 C   0  0  0  0  0  0  0  0  0  0  0  0
   -3.3328    1.5939    1.2622 C   0  0  0  0  0  0  0  0  0  0  0  0
   -2.8633    2.6077    0.4277 C   0  0  0  0  0  0  0  0  0  0  0  0
   -2.2291    2.2810   -0.7638 C   0  0  0  0  0  0  0  0  0  0  0  0
   -2.0473    0.9417   -1.1074 C   0  0  0  0  0  0  0  0  0  0  0  0
   -2.4841   -0.0978   -0.2589 C   0  0  0  0  0  0  0  0  0  0  0  0
    0.2676   -1.8064   -0.4078 N   0  0  0  0  0  0  0  0  0  0  0  0
    0.3354   -1.2319    0.9368 C   0  0  0  0  0  0  0  0  0  0  0  0
    1.1126    0.0837    0.9142 C   0  0  0  0  0  0  0  0  0  0  0  0
    2.4960   -0.1061    0.2658 C   0  0  0  0  0  0  0  0  0  0  0  0
    3.2682    1.1941    0.1925 C   0  0  0  0  0  0  0  0  0  0  0  0
    2.8253    2.2692   -0.5586 C   0  0  0  0  0  0  0  0  0  0  0  0
    3.6157    3.3970   -0.5428 C   0  0  0  0  0  0  0  0  0  0  0  0
    4.7626    3.4918    0.1511 N   0  0  0  0  0  0  0  0  0  0  0  0
    5.1057    2.3988    0.8463 C   0  0  0  0  0  0  0  0  0  0  0  0
    4.4150    1.2485    0.9043 N   0  0  0  0  0  0  0  0  0  0  0  0
    2.3825   -0.7897   -1.1092 C   0  0  0  0  0  0  0  0  0  0  0  0
    1.5789   -2.0821   -0.9934 C   0  0  0  0  0  0  0  0  0  0  0  0
   -2.9274   -1.6625   -1.5547 H   0  0  0  0  0  0  0  0  0  0  0  0
   -2.7067   -3.5970   -0.2712 H   0  0  0  0  0  0  0  0  0  0  0  0
   -1.8861   -2.8280    1.0547 H   0  0  0  0  0  0  0  0  0  0  0  0
   -4.7685   -2.2032    0.1937 H   0  0  0  0  0  0  0  0  0  0  0  0
   -4.2949   -3.2509    1.5357 H   0  0  0  0  0  0  0  0  0  0  0  0
   -3.8461    1.8687    2.1819 H   0  0  0  0  0  0  0  0  0  0  0  0
   -3.0092    3.6490    0.7029 H   0  0  0  0  0  0  0  0  0  0  0  0
   -1.8813    3.0664   -1.4299 H   0  0  0  0  0  0  0  0  0  0  0  0
   -1.5585    0.7112   -2.0540 H   0  0  0  0  0  0  0  0  0  0  0  0
   -0.6490   -1.0620    1.3647 H   0  0  0  0  0  0  0  0  0  0  0  0
    0.8425   -1.9611    1.5799 H   0  0  0  0  0  0  0  0  0  0  0  0
    0.5358    0.8330    0.3603 H   0  0  0  0  0  0  0  0  0  0  0  0
    1.2223    0.4639    1.9371 H   0  0  0  0  0  0  0  0  0  0  0  0
    3.0653   -0.7860    0.9169 H   0  0  0  0  0  0  0  0  0  0  0  0
    1.9087    2.2406   -1.1325 H   0  0  0  0  0  0  0  0  0  0  0  0
    3.3390    4.2834   -1.1060 H   0  0  0  0  0  0  0  0  0  0  0  0
    6.0273    2.4471    1.4156 H   0  0  0  0  0  0  0  0  0  0  0  0
    1.8895   -0.1246   -1.8296 H   0  0  0  0  0  0  0  0  0  0  0  0
    3.3805   -1.0087   -1.5075 H   0  0  0  0  0  0  0  0  0  0  0  0
    1.4882   -2.5556   -1.9760 H   0  0  0  0  0  0  0  0  0  0  0  0
    2.0923   -2.7970   -0.3392 H   0  0  0  0  0  0  0  0  0  0  0  0
  1  2  2  0
  2  3  1  0
  3  4  1  0
  4  5  1  0
  5  6  1  0
  6  7  1  0
  7  8  2  0
  8  9  1  0
  9 10  2  0
 10 11  1  0
 11 12  2  0
  2 13  1  0
 13 14  1  0
 14 15  1  0
 15 16  1  0
 16 17  1  0
 17 18  1  0
 18 19  2  0
 19 20  1  0
 20 21  2  0
 21 22  1  0
 16 23  1  0
 23 24  1  0
 12  3  1  0
 24 13  1  0
 12  7  1  0
 22 17  2  0
  3 25  1  0
  4 26  1  0
  4 27  1  0
  5 28  1  0
  5 29  1  0
  8 30  1  0
  9 31  1  0
 10 32  1  0
 11 33  1  0
 14 34  1  0
 14 35  1  0
 15 36  1  0
 15 37  1  0
 16 38  1  0
 18 39  1  0
 19 40  1  0
 21 41  1  0
 23 42  1  0
 23 43  1  0
 24 44  1  0
 24 45  1  0
M  END
$$$$
OCNT-2309586
     RDKit          3D

 41 43  0  0  0  0  0  0  0  0999 V2000
    7.8088    0.3975    1.1514 C   0  0  0  0  0  0  0  0  0  0  0  0
    6.4732   -0.2873    1.3096 C   0  0  0  0  0  0  0  0  0  0  0  0
    6.2574   -1.0015    2.2819 O   0  0  0  0  0  0  0  0  0  0  0  0
    5.6053    0.0254    0.2906 N   0  0  0  0  0  0  0  0  0  0  0  0
    4.3247   -0.4316    0.1215 C   0  0  0  0  0  0  0  0  0  0  0  0
    3.5990   -0.0208   -0.8898 N   0  0  0  0  0  0  0  0  0  0  0  0
    2.3409   -0.6248   -0.8561 C   0  0  0  0  0  0  0  0  0  0  0  0
    1.3443   -0.3616   -1.9033 C   0  0  0  0  0  0  0  0  0  0  0  0
    1.6593   -0.4003   -3.0924 O   0  0  0  0  0  0  0  0  0  0  0  0
    0.0298   -0.0834   -1.5045 N   0  0  0  0  0  0  0  0  0  0  0  0
   -0.3410    0.3596   -0.1563 C   0  0  0  0  0  0  0  0  0  0  0  0
   -1.4781    1.3767   -0.1909 C   0  0  0  0  0  0  0  0  0  0  0  0
   -2.7311    0.8164   -0.8881 C   0  0  0  0  0  0  0  0  0  0  0  0
   -3.6708    0.1949    0.1159 C   0  0  0  0  0  0  0  0  0  0  0  0
   -3.2920   -0.6218    1.0774 N   0  0  0  0  0  0  0  0  0  0  0  0
   -4.3918   -1.0168    1.8126 C   0  0  0  0  0  0  0  0  0  0  0  0
   -5.6025   -0.4986    1.4039 C   0  0  0  0  0  0  0  0  0  0  0  0
   -6.9605   -0.7149    1.9638 C   0  0  0  0  0  0  0  0  0  0  0  0
   -5.3587    0.5209    0.0490 S   0  0  0  0  0  0  0  0  0  0  0  0
   -2.3848   -0.2066   -1.9849 C   0  0  0  0  0  0  0  0  0  0  0  0
   -0.9877    0.0180   -2.5453 C   0  0  0  0  0  0  0  0  0  0  0  0
    2.1734   -1.5131    0.1932 C   0  0  0  0  0  0  0  0  0  0  0  0
    3.5822   -1.5500    1.1650 S   0  0  0  0  0  0  0  0  0  0  0  0
    7.7975    1.3397    1.7055 H   0  0  0  0  0  0  0  0  0  0  0  0
    8.0344    0.5970    0.0999 H   0  0  0  0  0  0  0  0  0  0  0  0
    8.5955   -0.2513    1.5473 H   0  0  0  0  0  0  0  0  0  0  0  0
    5.8899    0.6649   -0.4380 H   0  0  0  0  0  0  0  0  0  0  0  0
    0.5240    0.8111    0.3396 H   0  0  0  0  0  0  0  0  0  0  0  0
   -0.6338   -0.5293    0.4121 H   0  0  0  0  0  0  0  0  0  0  0  0
   -1.1335    2.2574   -0.7500 H   0  0  0  0  0  0  0  0  0  0  0  0
   -1.7042    1.7254    0.8240 H   0  0  0  0  0  0  0  0  0  0  0  0
   -3.2348    1.6711   -1.3604 H   0  0  0  0  0  0  0  0  0  0  0  0
   -4.2513   -1.6936    2.6471 H   0  0  0  0  0  0  0  0  0  0  0  0
   -6.9257   -1.3925    2.8233 H   0  0  0  0  0  0  0  0  0  0  0  0
   -7.6241   -1.1587    1.2145 H   0  0  0  0  0  0  0  0  0  0  0  0
   -7.3976    0.2308    2.3007 H   0  0  0  0  0  0  0  0  0  0  0  0
   -3.1263   -0.1465   -2.7909 H   0  0  0  0  0  0  0  0  0  0  0  0
   -2.4412   -1.2314   -1.5929 H   0  0  0  0  0  0  0  0  0  0  0  0
   -0.7804   -0.7168   -3.3315 H   0  0  0  0  0  0  0  0  0  0  0  0
   -0.9050    1.0135   -2.9982 H   0  0  0  0  0  0  0  0  0  0  0  0
    1.3172   -2.1310    0.4236 H   0  0  0  0  0  0  0  0  0  0  0  0
  1  2  1  0
  2  3  2  0
  2  4  1  0
  4  5  1  0
  5  6  2  0
  6  7  1  0
  7  8  1  0
  8  9  2  0
  8 10  1  0
 10 11  1  0
 11 12  1  0
 12 13  1  0
 13 14  1  0
 14 15  2  0
 15 16  1  0
 16 17  2  0
 17 18  1  0
 17 19  1  0
 13 20  1  0
 20 21  1  0
  7 22  2  0
 22 23  1  0
 23  5  1  0
 21 10  1  0
 19 14  1  0
  1 24  1  0
  1 25  1  0
  1 26  1  0
  4 27  1  0
 11 28  1  0
 11 29  1  0
 12 30  1  0
 12 31  1  0
 13 32  1  0
 16 33  1  0
 18 34  1  0
 18 35  1  0
 18 36  1  0
 20 37  1  0
 20 38  1  0
 21 39  1  0
 21 40  1  0
 22 41  1  0
M  END
$$$$
OCNT-2309593
     RDKit          3D

 49 52  0  0  0  0  0  0  0  0999 V2000
    8.1856    0.1455   -0.0835 C   0  0  0  0  0  0  0  0  0  0  0  0
    6.8633   -0.2600   -0.4762 N   0  0  0  0  0  0  0  0  0  0  0  0
    6.4828   -1.4285   -1.0537 C   0  0  0  0  0  0  0  0  0  0  0  0
    5.1855   -1.4143   -1.2568 N   0  0  0  0  0  0  0  0  0  0  0  0
    4.8093   -0.1868   -0.7737 C   0  0  0  0  0  0  0  0  0  0  0  0
    3.3981    0.2744   -0.7950 C   0  0  0  0  0  0  0  0  0  0  0  0
    2.6107   -0.2661    0.4049 C   0  0  0  0  0  0  0  0  0  0  0  0
    1.2229    0.2108    0.4920 N   0  0  0  0  0  0  0  0  0  0  0  0
    0.3583   -0.3849   -0.5248 C   0  0  0  0  0  0  0  0  0  0  0  0
   -1.0369    0.0939   -0.2986 C   0  0  0  0  0  0  0  0  0  0  0  0
   -1.4896    1.4009   -0.3163 C   0  0  0  0  0  0  0  0  0  0  0  0
   -2.8332    1.3801   -0.0261 N   0  0  0  0  0  0  0  0  0  0  0  0
   -3.7227    2.4867    0.0907 C   0  0  0  0  0  0  0  0  0  0  0  0
   -3.2745    3.8045   -0.0773 C   0  0  0  0  0  0  0  0  0  0  0  0
   -4.1721    4.8701    0.0432 C   0  0  0  0  0  0  0  0  0  0  0  0
   -5.5148    4.6299    0.3302 C   0  0  0  0  0  0  0  0  0  0  0  0
   -5.9671    3.3233    0.4988 C   0  0  0  0  0  0  0  0  0  0  0  0
   -5.0767    2.2541    0.3804 C   0  0  0  0  0  0  0  0  0  0  0  0
   -3.2776    0.1143    0.1459 N   0  0  0  0  0  0  0  0  0  0  0  0
   -2.2078   -0.6735   -0.0283 C   0  0  0  0  0  0  0  0  0  0  0  0
   -2.3456   -2.1239    0.0725 C   0  0  0  0  0  0  0  0  0  0  0  0
   -1.9201   -2.9598   -0.9682 C   0  0  0  0  0  0  0  0  0  0  0  0
   -2.0568   -4.3459   -0.8598 C   0  0  0  0  0  0  0  0  0  0  0  0
   -2.6257   -4.9040    0.2845 C   0  0  0  0  0  0  0  0  0  0  0  0
   -3.0645   -4.0788    1.3190 C   0  0  0  0  0  0  0  0  0  0  0  0
   -2.9286   -2.6932    1.2120 C   0  0  0  0  0  0  0  0  0  0  0  0
    5.8120    0.5567   -0.2879 N   0  0  0  0  0  0  0  0  0  0  0  0
    8.4610    1.0323   -0.6598 H   0  0  0  0  0  0  0  0  0  0  0  0
    8.8903   -0.6647   -0.2863 H   0  0  0  0  0  0  0  0  0  0  0  0
    8.1764    0.3712    0.9858 H   0  0  0  0  0  0  0  0  0  0  0  0
    7.1641   -2.2312   -1.2979 H   0  0  0  0  0  0  0  0  0  0  0  0
    3.3671    1.3711   -0.7976 H   0  0  0  0  0  0  0  0  0  0  0  0
    2.9404   -0.0568   -1.7341 H   0  0  0  0  0  0  0  0  0  0  0  0
    3.1150    0.0479    1.3275 H   0  0  0  0  0  0  0  0  0  0  0  0
    2.6312   -1.3635    0.4180 H   0  0  0  0  0  0  0  0  0  0  0  0
    1.1995    1.2252    0.4128 H   0  0  0  0  0  0  0  0  0  0  0  0
    0.4106   -1.4756   -0.4584 H   0  0  0  0  0  0  0  0  0  0  0  0
    0.6692   -0.0926   -1.5338 H   0  0  0  0  0  0  0  0  0  0  0  0
   -0.9545    2.3202   -0.4921 H   0  0  0  0  0  0  0  0  0  0  0  0
   -2.2389    4.0396   -0.2991 H   0  0  0  0  0  0  0  0  0  0  0  0
   -3.8221    5.8913   -0.0869 H   0  0  0  0  0  0  0  0  0  0  0  0
   -6.2090    5.4610    0.4232 H   0  0  0  0  0  0  0  0  0  0  0  0
   -7.0135    3.1326    0.7228 H   0  0  0  0  0  0  0  0  0  0  0  0
   -5.4531    1.2414    0.5160 H   0  0  0  0  0  0  0  0  0  0  0  0
   -1.4934   -2.5385   -1.8746 H   0  0  0  0  0  0  0  0  0  0  0  0
   -1.7256   -4.9893   -1.6707 H   0  0  0  0  0  0  0  0  0  0  0  0
   -2.7341   -5.9823    0.3674 H   0  0  0  0  0  0  0  0  0  0  0  0
   -3.5159   -4.5110    2.2080 H   0  0  0  0  0  0  0  0  0  0  0  0
   -3.2788   -2.0538    2.0197 H   0  0  0  0  0  0  0  0  0  0  0  0
  1  2  1  0
  2  3  1  0
  3  4  2  0
  4  5  1  0
  5  6  1  0
  6  7  1  0
  7  8  1  0
  8  9  1  0
  9 10  1  0
 10 11  2  0
 11 12  1  0
 12 13  1  0
 13 14  2  0
 14 15  1  0
 15 16  2  0
 16 17  1  0
 17 18  2  0
 12 19  1  0
 19 20  2  0
 20 21  1  0
 21 22  2  0
 22 23  1  0
 23 24  2  0
 24 25  1  0
 25 26  2  0
  5 27  2  0
 27  2  1  0
 20 10  1  0
 26 21  1  0
 18 13  1  0
  1 28  1  0
  1 29  1  0
  1 30  1  0
  3 31  1  0
  6 32  1  0
  6 33  1  0
  7 34  1  0
  7 35  1  0
  8 36  1  0
  9 37  1  0
  9 38  1  0
 11 39  1  0
 14 40  1  0
 15 41  1  0
 16 42  1  0
 17 43  1  0
 18 44  1  0
 22 45  1  0
 23 46  1  0
 24 47  1  0
 25 48  1  0
 26 49  1  0
M  END
$$$$
OCNT-2309596
     RDKit          3D

 40 42  0  0  0  0  0  0  0  0999 V2000
    0.5125   -2.8742    1.4909 O   0  0  0  0  0  0  0  0  0  0  0  0
   -0.3418   -1.9934    1.4776 C   0  0  0  0  0  0  0  0  0  0  0  0
   -1.6250   -2.3017    1.8206 N   0  0  0  0  0  0  0  0  0  0  0  0
   -2.6167   -1.2877    2.0494 C   0  0  0  0  0  0  0  0  0  0  0  0
   -2.5459   -0.2421    0.9512 C   0  0  0  0  0  0  0  0  0  0  0  0
   -3.5755    0.8757    1.1604 C   0  0  0  0  0  0  0  0  0  0  0  0
   -3.9091    1.4134   -0.2331 C   0  0  0  0  0  0  0  0  0  0  0  0
   -3.2979    0.4408   -1.2363 C   0  0  0  0  0  0  0  0  0  0  0  0
   -2.9231   -0.7965   -0.4305 C   0  0  0  0  0  0  0  0  0  0  0  0
   -1.1071    0.2807    0.9375 C   0  0  0  0  0  0  0  0  0  0  0  0
   -0.8547    1.4628    0.6949 O   0  0  0  0  0  0  0  0  0  0  0  0
   -0.1079   -0.6731    1.1324 N   0  0  0  0  0  0  0  0  0  0  0  0
    1.2759   -0.2624    0.9091 C   0  0  0  0  0  0  0  0  0  0  0  0
    1.6546   -0.3495   -0.5732 C   0  0  0  0  0  0  0  0  0  0  0  0
    3.0225    0.2249   -0.8369 C   0  0  0  0  0  0  0  0  0  0  0  0
    3.1721    1.5679   -1.2130 C   0  0  0  0  0  0  0  0  0  0  0  0
    4.4457    2.0939   -1.4375 C   0  0  0  0  0  0  0  0  0  0  0  0
    5.5650    1.2818   -1.2813 C   0  0  0  0  0  0  0  0  0  0  0  0
    6.7838    1.7935   -1.4971 F   0  0  0  0  0  0  0  0  0  0  0  0
    5.4393   -0.0465   -0.9019 C   0  0  0  0  0  0  0  0  0  0  0  0
    4.1689   -0.5630   -0.6803 C   0  0  0  0  0  0  0  0  0  0  0  0
    4.0488   -1.8433   -0.3032 F   0  0  0  0  0  0  0  0  0  0  0  0
   -1.7466   -3.2387    2.1882 H   0  0  0  0  0  0  0  0  0  0  0  0
   -3.5936   -1.7812    2.0856 H   0  0  0  0  0  0  0  0  0  0  0  0
   -2.4184   -0.8479    3.0343 H   0  0  0  0  0  0  0  0  0  0  0  0
   -4.4928    0.4768    1.6120 H   0  0  0  0  0  0  0  0  0  0  0  0
   -3.2150    1.6744    1.8177 H   0  0  0  0  0  0  0  0  0  0  0  0
   -4.9948    1.4812   -0.3633 H   0  0  0  0  0  0  0  0  0  0  0  0
   -3.5017    2.4199   -0.3777 H   0  0  0  0  0  0  0  0  0  0  0  0
   -2.4010    0.8847   -1.6843 H   0  0  0  0  0  0  0  0  0  0  0  0
   -3.9876    0.2040   -2.0523 H   0  0  0  0  0  0  0  0  0  0  0  0
   -2.1148   -1.3495   -0.9203 H   0  0  0  0  0  0  0  0  0  0  0  0
   -3.7927   -1.4615   -0.3575 H   0  0  0  0  0  0  0  0  0  0  0  0
    1.4030    0.7651    1.2722 H   0  0  0  0  0  0  0  0  0  0  0  0
    1.9492   -0.8885    1.5074 H   0  0  0  0  0  0  0  0  0  0  0  0
    0.9164    0.1812   -1.1884 H   0  0  0  0  0  0  0  0  0  0  0  0
    1.6175   -1.3923   -0.9134 H   0  0  0  0  0  0  0  0  0  0  0  0
    2.3000    2.2091   -1.3302 H   0  0  0  0  0  0  0  0  0  0  0  0
    4.5724    3.1317   -1.7309 H   0  0  0  0  0  0  0  0  0  0  0  0
    6.3162   -0.6703   -0.7782 H   0  0  0  0  0  0  0  0  0  0  0  0
  1  2  2  0
  2  3  1  0
  3  4  1  0
  4  5  1  0
  5  6  1  0
  6  7  1  0
  7  8  1  0
  8  9  1  0
  5 10  1  0
 10 11  2  0
 10 12  1  0
 12 13  1  0
 13 14  1  0
 14 15  1  0
 15 16  1  0
 16 17  2  0
 17 18  1  0
 18 19  1  0
 18 20  2  0
 20 21  1  0
 21 22  1  0
 12  2  1  0
 21 15  2  0
  9  5  1  0
  3 23  1  0
  4 24  1  0
  4 25  1  0
  6 26  1  0
  6 27  1  0
  7 28  1  0
  7 29  1  0
  8 30  1  0
  8 31  1  0
  9 32  1  0
  9 33  1  0
 13 34  1  0
 13 35  1  0
 14 36  1  0
 14 37  1  0
 16 38  1  0
 17 39  1  0
 20 40  1  0
M  END
$$$$
OCNT-2309597
     RDKit          3D

 33 34  0  0  0  0  0  0  0  0999 V2000
    5.5836    1.4911    1.5332 C   0  0  0  0  0  0  0  0  0  0  0  0
    4.3751    0.9896    0.8420 C   0  0  0  0  0  0  0  0  0  0  0  0
    3.9003    1.6280   -0.2345 N   0  0  0  0  0  0  0  0  0  0  0  0
    2.7839    0.9153   -0.6314 O   0  0  0  0  0  0  0  0  0  0  0  0
    2.5935   -0.1448    0.2052 C   0  0  0  0  0  0  0  0  0  0  0  0
    1.4794   -1.0327   -0.0172 C   0  0  0  0  0  0  0  0  0  0  0  0
    1.2435   -2.0036    0.6974 O   0  0  0  0  0  0  0  0  0  0  0  0
    0.6882   -0.7019   -1.0992 N   0  0  0  0  0  0  0  0  0  0  0  0
   -0.5656   -1.3783   -1.3808 C   0  0  2  0  0  0  0  0  0  0  0  0
   -0.7460   -1.5309   -2.8926 C   0  0  0  0  0  0  0  0  0  0  0  0
   -1.7045   -0.6606   -0.6884 C   0  0  0  0  0  0  0  0  0  0  0  0
   -2.0725   -1.0207    0.6131 C   0  0  0  0  0  0  0  0  0  0  0  0
   -3.1044   -0.3474    1.2643 C   0  0  0  0  0  0  0  0  0  0  0  0
   -3.7564    0.6954    0.6074 C   0  0  0  0  0  0  0  0  0  0  0  0
   -4.8950    1.4142    1.3200 C   0  0  0  0  0  0  0  0  0  0  0  0
   -4.5736    1.7594    2.6030 F   0  0  0  0  0  0  0  0  0  0  0  0
   -5.2958    2.5706    0.7196 F   0  0  0  0  0  0  0  0  0  0  0  0
   -6.0151    0.6401    1.4245 F   0  0  0  0  0  0  0  0  0  0  0  0
   -3.4099    1.0675   -0.6576 N   0  0  0  0  0  0  0  0  0  0  0  0
   -2.4019    0.3958   -1.2629 C   0  0  0  0  0  0  0  0  0  0  0  0
    3.5848   -0.1363    1.1592 C   0  0  0  0  0  0  0  0  0  0  0  0
    6.4406    1.5004    0.8521 H   0  0  0  0  0  0  0  0  0  0  0  0
    5.4219    2.5095    1.9010 H   0  0  0  0  0  0  0  0  0  0  0  0
    5.8393    0.8590    2.3896 H   0  0  0  0  0  0  0  0  0  0  0  0
    0.8704    0.1883   -1.5475 H   0  0  0  0  0  0  0  0  0  0  0  0
   -0.5108   -2.3962   -0.9729 H   0  0  0  0  0  0  0  0  0  0  0  0
    0.0545   -2.1527   -3.3095 H   0  0  0  0  0  0  0  0  0  0  0  0
   -1.7031   -2.0070   -3.1312 H   0  0  0  0  0  0  0  0  0  0  0  0
   -0.7023   -0.5680   -3.4133 H   0  0  0  0  0  0  0  0  0  0  0  0
   -1.5507   -1.8260    1.1292 H   0  0  0  0  0  0  0  0  0  0  0  0
   -3.3894   -0.6331    2.2737 H   0  0  0  0  0  0  0  0  0  0  0  0
   -2.1708    0.7618   -2.2595 H   0  0  0  0  0  0  0  0  0  0  0  0
    3.7090   -0.8458    1.9642 H   0  0  0  0  0  0  0  0  0  0  0  0
  1  2  1  0
  2  3  2  0
  3  4  1  0
  4  5  1  0
  5  6  1  0
  6  7  2  0
  6  8  1  0
  8  9  1  0
  9 10  1  0
  9 11  1  0
 11 12  2  0
 12 13  1  0
 13 14  2  0
 14 15  1  0
 15 16  1  0
 15 17  1  0
 15 18  1  0
 14 19  1  0
 19 20  2  0
  5 21  2  0
 21  2  1  0
 20 11  1  0
  1 22  1  0
  1 23  1  0
  1 24  1  0
  8 25  1  0
  9 26  1  1
 10 27  1  0
 10 28  1  0
 10 29  1  0
 12 30  1  0
 13 31  1  0
 20 32  1  0
 21 33  1  0
M  END
$$$$
OCNT-2309598
     RDKit          3D

 40 42  0  0  0  0  0  0  0  0999 V2000
    1.7284    0.0081   -2.2098 O   0  0  0  0  0  0  0  0  0  0  0  0
    1.4684   -0.4876   -1.1217 C   0  0  0  0  0  0  0  0  0  0  0  0
    0.4958   -1.4302   -0.9121 N   0  0  0  0  0  0  0  0  0  0  0  0
   -0.3950   -1.7920   -1.9939 C   0  0  0  0  0  0  0  0  0  0  0  0
   -1.5707   -0.8698   -1.9626 C   0  0  0  0  0  0  0  0  0  0  0  0
   -1.8469    0.1435   -2.8573 C   0  0  0  0  0  0  0  0  0  0  0  0
   -3.2845    0.9486   -2.4059 S   0  0  0  0  0  0  0  0  0  0  0  0
   -3.4431   -0.0835   -1.0315 C   0  0  0  0  0  0  0  0  0  0  0  0
   -4.5714    0.0369   -0.0842 C   0  0  0  0  0  0  0  0  0  0  0  0
   -4.7791   -0.9893    0.8550 C   0  0  0  0  0  0  0  0  0  0  0  0
   -5.8279   -0.9298    1.7772 C   0  0  0  0  0  0  0  0  0  0  0  0
   -6.6897    0.1624    1.7793 C   0  0  0  0  0  0  0  0  0  0  0  0
   -6.5017    1.1931    0.8625 C   0  0  0  0  0  0  0  0  0  0  0  0
   -5.4514    1.1319   -0.0605 C   0  0  0  0  0  0  0  0  0  0  0  0
   -2.4845   -0.9871   -0.9210 N   0  0  0  0  0  0  0  0  0  0  0  0
    2.1255   -0.1771    0.0430 N   0  0  0  0  0  0  0  0  0  0  0  0
    3.2476    0.7727    0.0607 C   0  0  0  0  0  0  0  0  0  0  0  0
    3.8507    1.0202    1.4601 C   0  0  0  0  0  0  0  0  0  0  0  0
    5.2510    1.0097    0.7915 C   0  0  0  0  0  0  0  0  0  0  0  0
    6.4101    0.3620    1.5878 C   0  0  0  0  0  0  0  0  0  0  0  0
    6.4164   -0.7096    2.1809 O   0  0  0  0  0  0  0  0  0  0  0  0
    7.5347    1.1162    1.6059 O   0  0  0  0  0  0  0  0  0  0  0  0
    4.6095    0.1648   -0.3396 C   0  0  0  0  0  0  0  0  0  0  0  0
    0.0431   -1.3827   -0.0102 H   0  0  0  0  0  0  0  0  0  0  0  0
   -0.7253   -2.8204   -1.8164 H   0  0  0  0  0  0  0  0  0  0  0  0
    0.1263   -1.7532   -2.9558 H   0  0  0  0  0  0  0  0  0  0  0  0
   -1.2759    0.4437   -3.7250 H   0  0  0  0  0  0  0  0  0  0  0  0
   -4.1162   -1.8534    0.8700 H   0  0  0  0  0  0  0  0  0  0  0  0
   -5.9682   -1.7373    2.4911 H   0  0  0  0  0  0  0  0  0  0  0  0
   -7.5059    0.2115    2.4955 H   0  0  0  0  0  0  0  0  0  0  0  0
   -7.1714    2.0496    0.8642 H   0  0  0  0  0  0  0  0  0  0  0  0
   -5.3369    1.9630   -0.7517 H   0  0  0  0  0  0  0  0  0  0  0  0
    2.0439   -0.8756    0.7694 H   0  0  0  0  0  0  0  0  0  0  0  0
    3.0110    1.7055   -0.4673 H   0  0  0  0  0  0  0  0  0  0  0  0
    3.5658    1.9661    1.9298 H   0  0  0  0  0  0  0  0  0  0  0  0
    3.6905    0.2093    2.1810 H   0  0  0  0  0  0  0  0  0  0  0  0
    5.5247    2.0127    0.4307 H   0  0  0  0  0  0  0  0  0  0  0  0
    8.1649    0.5824    2.1342 H   0  0  0  0  0  0  0  0  0  0  0  0
    4.6892   -0.9191   -0.1919 H   0  0  0  0  0  0  0  0  0  0  0  0
    4.9480    0.4059   -1.3514 H   0  0  0  0  0  0  0  0  0  0  0  0
  1  2  2  0
  2  3  1  0
  3  4  1  0
  4  5  1  0
  5  6  2  0
  6  7  1  0
  7  8  1  0
  8  9  1  0
  9 10  2  0
 10 11  1  0
 11 12  2  0
 12 13  1  0
 13 14  2  0
  8 15  2  0
  2 16  1  0
 16 17  1  0
 17 18  1  0
 18 19  1  0
 19 20  1  0
 20 21  2  0
 20 22  1  0
 19 23  1  0
 15  5  1  0
 23 17  1  0
 14  9  1  0
  3 24  1  0
  4 25  1  0
  4 26  1  0
  6 27  1  0
 10 28  1  0
 11 29  1  0
 12 30  1  0
 13 31  1  0
 14 32  1  0
 16 33  1  0
 17 34  1  0
 18 35  1  0
 18 36  1  0
 19 37  1  0
 22 38  1  0
 23 39  1  0
 23 40  1  0
M  END
$$$$
OCNT-2309599
     RDKit          3D

 49 53  0  0  0  0  0  0  0  0999 V2000
   -4.0958   -3.9643   -0.1640 C   0  0  0  0  0  0  0  0  0  0  0  0
   -2.6947   -3.4858   -0.0608 C   0  0  0  0  0  0  0  0  0  0  0  0
   -1.7015   -4.3600    0.1493 N   0  0  0  0  0  0  0  0  0  0  0  0
   -0.5972   -3.5932    0.1851 N   0  0  0  0  0  0  0  0  0  0  0  0
   -0.8472   -2.2546    0.0182 C   0  0  0  0  0  0  0  0  0  0  0  0
    0.1276   -1.2708    0.0522 N   0  0  0  0  0  0  0  0  0  0  0  0
    1.4730   -1.5660    0.2421 C   0  0  0  0  0  0  0  0  0  0  0  0
    1.8859   -2.7194    0.3723 O   0  0  0  0  0  0  0  0  0  0  0  0
    2.3649   -0.3839    0.2680 C   0  0  0  0  0  0  0  0  0  0  0  0
    3.6999   -0.5268    0.2980 N   0  0  0  0  0  0  0  0  0  0  0  0
    4.2306    0.7176    0.3099 N   0  0  0  0  0  0  0  0  0  0  0  0
    5.6369    0.9175    0.3289 C   0  0  0  0  0  0  0  0  0  0  0  0
    6.5150   -0.1728    0.3891 C   0  0  0  0  0  0  0  0  0  0  0  0
    6.0830   -1.4405    0.4425 F   0  0  0  0  0  0  0  0  0  0  0  0
    7.9011    0.0104    0.4048 C   0  0  0  0  0  0  0  0  0  0  0  0
    8.4407    1.2914    0.3601 C   0  0  0  0  0  0  0  0  0  0  0  0
    7.5849    2.3860    0.3010 C   0  0  0  0  0  0  0  0  0  0  0  0
    6.1994    2.1978    0.2849 C   0  0  0  0  0  0  0  0  0  0  0  0
    5.4493    3.3056    0.2132 F   0  0  0  0  0  0  0  0  0  0  0  0
    3.2255    1.6620    0.2973 C   0  0  0  0  0  0  0  0  0  0  0  0
    2.0270    0.9908    0.2699 C   0  0  0  0  0  0  0  0  0  0  0  0
   -2.2120   -2.1520   -0.1608 C   0  0  0  0  0  0  0  0  0  0  0  0
   -2.9239   -0.9096   -0.3719 C   0  0  0  0  0  0  0  0  0  0  0  0
   -2.6982   -0.1551   -1.5317 C   0  0  0  0  0  0  0  0  0  0  0  0
   -3.3850    1.0439   -1.7352 C   0  0  0  0  0  0  0  0  0  0  0  0
   -4.3018    1.4871   -0.7844 C   0  0  0  0  0  0  0  0  0  0  0  0
   -4.9547    2.6616   -1.0587 O   0  0  0  0  0  0  0  0  0  0  0  0
   -6.1012    2.8286   -0.2156 C   0  0  0  0  0  0  0  0  0  0  0  0
   -5.7512    2.5160    1.2299 C   0  0  0  0  0  0  0  0  0  0  0  0
   -5.3769    1.1410    1.3748 O   0  0  0  0  0  0  0  0  0  0  0  0
   -4.5140    0.7476    0.3836 C   0  0  0  0  0  0  0  0  0  0  0  0
   -3.8397   -0.4564    0.5836 C   0  0  0  0  0  0  0  0  0  0  0  0
   -4.1366   -5.0385   -0.3717 H   0  0  0  0  0  0  0  0  0  0  0  0
   -4.6288   -3.7794    0.7741 H   0  0  0  0  0  0  0  0  0  0  0  0
   -4.6252   -3.4483   -0.9709 H   0  0  0  0  0  0  0  0  0  0  0  0
    0.3120   -4.0253    0.3362 H   0  0  0  0  0  0  0  0  0  0  0  0
   -0.1779   -0.3153   -0.0676 H   0  0  0  0  0  0  0  0  0  0  0  0
    8.5479   -0.8617    0.4515 H   0  0  0  0  0  0  0  0  0  0  0  0
    9.5181    1.4339    0.3700 H   0  0  0  0  0  0  0  0  0  0  0  0
    7.9854    3.3958    0.2623 H   0  0  0  0  0  0  0  0  0  0  0  0
    3.4217    2.7218    0.3149 H   0  0  0  0  0  0  0  0  0  0  0  0
    1.0505    1.4517    0.2618 H   0  0  0  0  0  0  0  0  0  0  0  0
   -2.0012   -0.5057   -2.2907 H   0  0  0  0  0  0  0  0  0  0  0  0
   -3.2196    1.6209   -2.6409 H   0  0  0  0  0  0  0  0  0  0  0  0
   -6.4329    3.8675   -0.3089 H   0  0  0  0  0  0  0  0  0  0  0  0
   -6.9039    2.1785   -0.5850 H   0  0  0  0  0  0  0  0  0  0  0  0
   -4.9231    3.1410    1.5863 H   0  0  0  0  0  0  0  0  0  0  0  0
   -6.6163    2.6943    1.8769 H   0  0  0  0  0  0  0  0  0  0  0  0
   -4.0197   -1.0248    1.4926 H   0  0  0  0  0  0  0  0  0  0  0  0
  1  2  1  0
  2  3  2  0
  3  4  1  0
  4  5  1  0
  5  6  1  0
  6  7  1  0
  7  8  2  0
  7  9  1  0
  9 10  2  0
 10 11  1  0
 11 12  1  0
 12 13  2  0
 13 14  1  0
 13 15  1  0
 15 16  2  0
 16 17  1  0
 17 18  2  0
 18 19  1  0
 11 20  1  0
 20 21  2  0
  5 22  2  0
 22 23  1  0
 23 24  1  0
 24 25  2  0
 25 26  1  0
 26 27  1  0
 27 28  1  0
 28 29  1  0
 29 30  1  0
 30 31  1  0
 31 32  1  0
 22  2  1  0
 32 23  2  0
 21  9  1  0
 31 26  2  0
 18 12  1  0
  1 33  1  0
  1 34  1  0
  1 35  1  0
  4 36  1  0
  6 37  1  0
 15 38  1  0
 16 39  1  0
 17 40  1  0
 20 41  1  0
 21 42  1  0
 24 43  1  0
 25 44  1  0
 28 45  1  0
 28 46  1  0
 29 47  1  0
 29 48  1  0
 32 49  1  0
M  END
$$$$
OCNT-2309600
     RDKit          3D

 44 46  0  0  0  0  0  0  0  0999 V2000
    3.8968   -1.8377   -1.4981 C   0  0  0  0  0  0  0  0  0  0  0  0
    3.1492   -0.7960   -0.8098 N   0  0  0  0  0  0  0  0  0  0  0  0
    1.8118   -0.6084   -1.1573 C   0  0  0  0  0  0  0  0  0  0  0  0
    1.2550   -1.2523   -2.0469 O   0  0  0  0  0  0  0  0  0  0  0  0
    1.0448    0.4408   -0.4140 C   0  0  0  0  0  0  0  0  0  0  0  0
   -0.4101    0.6058   -0.7609 C   0  0  0  0  0  0  0  0  0  0  0  0
   -1.2696    0.1899    0.3544 N   0  0  0  0  0  0  0  0  0  0  0  0
   -2.6755   -0.1523   -0.0077 C   0  0  0  0  0  0  0  0  0  0  0  0
   -3.3298    1.0137   -0.7934 C   0  0  0  0  0  0  0  0  0  0  0  0
   -4.8432    0.9466   -1.0026 C   0  0  0  0  0  0  0  0  0  0  0  0
   -5.5137    1.4034    0.1642 O   0  0  0  0  0  0  0  0  0  0  0  0
   -3.3840   -0.5269    1.2957 C   0  0  0  0  0  0  0  0  0  0  0  0
   -2.9042   -1.9411    1.5400 C   0  0  0  0  0  0  0  0  0  0  0  0
   -2.8552   -2.5603    0.2498 O   0  0  0  0  0  0  0  0  0  0  0  0
   -2.7473   -1.5171   -0.7405 C   0  0  0  0  0  0  0  0  0  0  0  0
    1.6626    1.2153    0.4917 C   0  0  0  0  0  0  0  0  0  0  0  0
    3.0693    1.0189    0.8170 C   0  0  0  0  0  0  0  0  0  0  0  0
    3.6826    1.8318    1.7804 C   0  0  0  0  0  0  0  0  0  0  0  0
    5.0222    1.6416    2.1121 C   0  0  0  0  0  0  0  0  0  0  0  0
    5.7534    0.6393    1.4814 C   0  0  0  0  0  0  0  0  0  0  0  0
    5.1467   -0.1722    0.5188 C   0  0  0  0  0  0  0  0  0  0  0  0
    3.7985    0.0078    0.1744 C   0  0  0  0  0  0  0  0  0  0  0  0
    4.2499   -2.5753   -0.7710 H   0  0  0  0  0  0  0  0  0  0  0  0
    4.7418   -1.3913   -2.0293 H   0  0  0  0  0  0  0  0  0  0  0  0
    3.2851   -2.3654   -2.2336 H   0  0  0  0  0  0  0  0  0  0  0  0
   -0.5993    1.6622   -0.9897 H   0  0  0  0  0  0  0  0  0  0  0  0
   -0.6532    0.0619   -1.6774 H   0  0  0  0  0  0  0  0  0  0  0  0
   -1.2765    0.9317    1.0530 H   0  0  0  0  0  0  0  0  0  0  0  0
   -2.8699    1.0626   -1.7887 H   0  0  0  0  0  0  0  0  0  0  0  0
   -3.1010    1.9583   -0.2814 H   0  0  0  0  0  0  0  0  0  0  0  0
   -5.1268    1.6163   -1.8215 H   0  0  0  0  0  0  0  0  0  0  0  0
   -5.1925   -0.0592   -1.2488 H   0  0  0  0  0  0  0  0  0  0  0  0
   -6.4680    1.3142    0.0002 H   0  0  0  0  0  0  0  0  0  0  0  0
   -4.4684   -0.5686    1.1619 H   0  0  0  0  0  0  0  0  0  0  0  0
   -3.1791    0.1426    2.1356 H   0  0  0  0  0  0  0  0  0  0  0  0
   -1.8999   -1.9680    1.9759 H   0  0  0  0  0  0  0  0  0  0  0  0
   -3.5781   -2.5050    2.1907 H   0  0  0  0  0  0  0  0  0  0  0  0
   -1.8787   -1.7296   -1.3707 H   0  0  0  0  0  0  0  0  0  0  0  0
   -3.6316   -1.5973   -1.3795 H   0  0  0  0  0  0  0  0  0  0  0  0
    1.1190    1.9889    1.0223 H   0  0  0  0  0  0  0  0  0  0  0  0
    3.1210    2.6146    2.2839 H   0  0  0  0  0  0  0  0  0  0  0  0
    5.4932    2.2714    2.8638 H   0  0  0  0  0  0  0  0  0  0  0  0
    6.7980    0.4856    1.7390 H   0  0  0  0  0  0  0  0  0  0  0  0
    5.7550   -0.9412    0.0536 H   0  0  0  0  0  0  0  0  0  0  0  0
  1  2  1  0
  2  3  1  0
  3  4  2  0
  3  5  1  0
  5  6  1  0
  6  7  1  0
  7  8  1  0
  8  9  1  0
  9 10  1  0
 10 11  1  0
  8 12  1  0
 12 13  1  0
 13 14  1  0
 14 15  1  0
  5 16  2  0
 16 17  1  0
 17 18  2  0
 18 19  1  0
 19 20  2  0
 20 21  1  0
 21 22  2  0
 22  2  1  0
 15  8  1  0
 22 17  1  0
  1 23  1  0
  1 24  1  0
  1 25  1  0
  6 26  1  0
  6 27  1  0
  7 28  1  0
  9 29  1  0
  9 30  1  0
 10 31  1  0
 10 32  1  0
 11 33  1  0
 12 34  1  0
 12 35  1  0
 13 36  1  0
 13 37  1  0
 15 38  1  0
 15 39  1  0
 16 40  1  0
 18 41  1  0
 19 42  1  0
 20 43  1  0
 21 44  1  0
M  END
$$$$
OCNT-2309602
     RDKit          3D

 37 39  0  0  0  0  0  0  0  0999 V2000
    1.4119    2.1808   -3.7568 O   0  0  0  0  0  0  0  0  0  0  0  0
    0.4735    1.4514   -2.9226 S   0  0  0  0  0  0  0  0  0  0  0  0
   -0.6300    0.7410   -3.5316 O   0  0  0  0  0  0  0  0  0  0  0  0
   -0.0910    2.5736   -1.8267 N   0  0  0  0  0  0  0  0  0  0  0  0
   -0.9566    2.3101   -0.7868 C   0  0  0  0  0  0  0  0  0  0  0  0
   -1.3381    1.0928   -0.4314 N   0  0  0  0  0  0  0  0  0  0  0  0
   -2.1715    1.2583    0.6322 N   0  0  0  0  0  0  0  0  0  0  0  0
   -2.7635    0.1171    1.2637 C   0  0  0  0  0  0  0  0  0  0  0  0
   -2.4383   -1.1185    0.7721 N   0  0  0  0  0  0  0  0  0  0  0  0
   -2.9922   -2.2017    1.3578 C   0  0  0  0  0  0  0  0  0  0  0  0
   -3.8648   -2.1293    2.4283 C   0  0  0  0  0  0  0  0  0  0  0  0
   -4.1881   -0.8718    2.9250 C   0  0  0  0  0  0  0  0  0  0  0  0
   -3.6342    0.2641    2.3390 C   0  0  0  0  0  0  0  0  0  0  0  0
   -3.9775    1.4537    2.8487 F   0  0  0  0  0  0  0  0  0  0  0  0
   -2.2944    2.5991    0.9415 C   0  0  0  0  0  0  0  0  0  0  0  0
   -1.5156    3.2932    0.0453 C   0  0  0  0  0  0  0  0  0  0  0  0
    1.4348    0.3232   -1.9419 C   0  0  0  0  0  0  0  0  0  0  0  0
    2.7680    0.6235   -1.6493 C   0  0  0  0  0  0  0  0  0  0  0  0
    3.5395   -0.2788   -0.9074 C   0  0  0  0  0  0  0  0  0  0  0  0
    2.9845   -1.4829   -0.4655 C   0  0  0  0  0  0  0  0  0  0  0  0
    3.6160   -2.4477    0.2661 O   0  0  0  0  0  0  0  0  0  0  0  0
    4.9588   -2.2134    0.6508 C   0  0  0  0  0  0  0  0  0  0  0  0
    5.0616   -1.1066    1.4180 F   0  0  0  0  0  0  0  0  0  0  0  0
    5.3918   -3.2677    1.3776 F   0  0  0  0  0  0  0  0  0  0  0  0
    5.7618   -2.0902   -0.4275 F   0  0  0  0  0  0  0  0  0  0  0  0
    1.6533   -1.7787   -0.7817 C   0  0  0  0  0  0  0  0  0  0  0  0
    0.8791   -0.8864   -1.5257 C   0  0  0  0  0  0  0  0  0  0  0  0
    0.2337    3.5183   -2.0013 H   0  0  0  0  0  0  0  0  0  0  0  0
   -2.7060   -3.1578    0.9276 H   0  0  0  0  0  0  0  0  0  0  0  0
   -4.2836   -3.0300    2.8639 H   0  0  0  0  0  0  0  0  0  0  0  0
   -4.8696   -0.7659    3.7634 H   0  0  0  0  0  0  0  0  0  0  0  0
   -2.9057    2.9557    1.7554 H   0  0  0  0  0  0  0  0  0  0  0  0
   -1.3814    4.3642    0.0029 H   0  0  0  0  0  0  0  0  0  0  0  0
    3.2156    1.5519   -1.9972 H   0  0  0  0  0  0  0  0  0  0  0  0
    4.5702   -0.0049   -0.7004 H   0  0  0  0  0  0  0  0  0  0  0  0
    1.2061   -2.7111   -0.4436 H   0  0  0  0  0  0  0  0  0  0  0  0
   -0.1581   -1.1287   -1.7524 H   0  0  0  0  0  0  0  0  0  0  0  0
  1  2  2  0
  2  3  2  0
  2  4  1  0
  4  5  1  0
  5  6  2  0
  6  7  1  0
  7  8  1  0
  8  9  1  0
  9 10  2  0
 10 11  1  0
 11 12  2  0
 12 13  1  0
 13 14  1  0
  7 15  1  0
 15 16  2  0
  2 17  1  0
 17 18  1  0
 18 19  2  0
 19 20  1  0
 20 21  1  0
 21 22  1  0
 22 23  1  0
 22 24  1  0
 22 25  1  0
 20 26  2  0
 26 27  1  0
 16  5  1  0
 27 17  2  0
 13  8  2  0
  4 28  1  0
 10 29  1  0
 11 30  1  0
 12 31  1  0
 15 32  1  0
 16 33  1  0
 18 34  1  0
 19 35  1  0
 26 36  1  0
 27 37  1  0
M  END
$$$$
OCNT-2309612
     RDKit          3D

 41 43  0  0  0  0  0  0  0  0999 V2000
    7.6060    0.4731   -0.0043 C   0  0  0  0  0  0  0  0  0  0  0  0
    6.9434   -0.8173   -0.4618 C   0  0  0  0  0  0  0  0  0  0  0  0
    5.4449   -0.7630   -0.3084 C   0  0  0  0  0  0  0  0  0  0  0  0
    4.6396   -0.2763   -1.3437 C   0  0  0  0  0  0  0  0  0  0  0  0
    3.2489   -0.2097   -1.1956 C   0  0  0  0  0  0  0  0  0  0  0  0
    2.6336   -0.6248   -0.0060 C   0  0  0  0  0  0  0  0  0  0  0  0
    1.1840   -0.5732    0.1930 C   0  0  0  0  0  0  0  0  0  0  0  0
    0.5195   -0.9266    1.2826 N   0  0  0  0  0  0  0  0  0  0  0  0
   -0.8267   -0.7265    1.0665 N   0  0  0  0  0  0  0  0  0  0  0  0
   -0.9536   -0.2586   -0.1475 C   0  0  0  0  0  0  0  0  0  0  0  0
   -2.3876    0.1720   -0.9925 S   0  0  0  0  0  0  0  0  0  0  0  0
   -3.6036    0.0556    0.3512 C   0  0  0  0  0  0  0  0  0  0  0  0
   -5.0473    0.2558   -0.1471 C   0  0  0  0  0  0  0  0  0  0  0  0
   -5.5166   -0.8919   -1.0503 C   0  0  0  0  0  0  0  0  0  0  0  0
   -6.0388    0.4569    1.0442 C   0  0  0  0  0  0  0  0  0  0  0  0
   -5.9953    2.2109    0.8380 S   0  0  0  0  0  0  0  0  0  0  0  0
   -4.9483    2.8201    1.6290 O   0  0  0  0  0  0  0  0  0  0  0  0
   -7.3271    2.7661    0.7312 O   0  0  0  0  0  0  0  0  0  0  0  0
   -5.3948    1.6648   -0.7300 C   0  0  0  0  0  0  0  0  0  0  0  0
    0.2657   -0.1460   -0.7343 N   0  0  0  0  0  0  0  0  0  0  0  0
    3.4492   -1.1043    1.0292 C   0  0  0  0  0  0  0  0  0  0  0  0
    4.8380   -1.1715    0.8830 C   0  0  0  0  0  0  0  0  0  0  0  0
    7.3956    0.6752    1.0515 H   0  0  0  0  0  0  0  0  0  0  0  0
    7.2517    1.3300   -0.5872 H   0  0  0  0  0  0  0  0  0  0  0  0
    8.6915    0.4051   -0.1268 H   0  0  0  0  0  0  0  0  0  0  0  0
    7.1998   -1.0144   -1.5099 H   0  0  0  0  0  0  0  0  0  0  0  0
    7.3427   -1.6627    0.1118 H   0  0  0  0  0  0  0  0  0  0  0  0
    5.0921    0.0572   -2.2755 H   0  0  0  0  0  0  0  0  0  0  0  0
    2.6715    0.1758   -2.0300 H   0  0  0  0  0  0  0  0  0  0  0  0
   -3.5197   -0.9276    0.8292 H   0  0  0  0  0  0  0  0  0  0  0  0
   -3.3400    0.8048    1.1047 H   0  0  0  0  0  0  0  0  0  0  0  0
   -6.5753   -0.7856   -1.3135 H   0  0  0  0  0  0  0  0  0  0  0  0
   -5.3967   -1.8587   -0.5493 H   0  0  0  0  0  0  0  0  0  0  0  0
   -4.9552   -0.9215   -1.9893 H   0  0  0  0  0  0  0  0  0  0  0  0
   -5.6842    0.1258    2.0250 H   0  0  0  0  0  0  0  0  0  0  0  0
   -7.0490    0.0618    0.8907 H   0  0  0  0  0  0  0  0  0  0  0  0
   -4.5581    2.2638   -1.0985 H   0  0  0  0  0  0  0  0  0  0  0  0
   -6.1856    1.6722   -1.4883 H   0  0  0  0  0  0  0  0  0  0  0  0
    0.4436    0.1879   -1.6667 H   0  0  0  0  0  0  0  0  0  0  0  0
    3.0028   -1.4306    1.9681 H   0  0  0  0  0  0  0  0  0  0  0  0
    5.4395   -1.5444    1.7092 H   0  0  0  0  0  0  0  0  0  0  0  0
  1  2  1  0
  2  3  1  0
  3  4  1  0
  4  5  2  0
  5  6  1  0
  6  7  1  0
  7  8  2  0
  8  9  1  0
  9 10  2  0
 10 11  1  0
 11 12  1  0
 12 13  1  0
 13 14  1  0
 13 15  1  0
 15 16  1  0
 16 17  2  0
 16 18  2  0
 16 19  1  0
 10 20  1  0
  6 21  2  0
 21 22  1  0
 22  3  2  0
 20  7  1  0
 19 13  1  0
  1 23  1  0
  1 24  1  0
  1 25  1  0
  2 26  1  0
  2 27  1  0
  4 28  1  0
  5 29  1  0
 12 30  1  0
 12 31  1  0
 14 32  1  0
 14 33  1  0
 14 34  1  0
 15 35  1  0
 15 36  1  0
 19 37  1  0
 19 38  1  0
 20 39  1  0
 21 40  1  0
 22 41  1  0
M  END
$$$$
OCNT-2309619
     RDKit          3D

 40 42  0  0  0  0  0  0  0  0999 V2000
   -3.7808    0.4604   -1.7761 C   0  0  0  0  0  0  0  0  0  0  0  0
   -2.9902    0.2490   -0.4641 C   0  0  0  0  0  0  0  0  0  0  0  0
   -1.5617    0.1752   -0.8367 N   0  0  0  0  0  0  0  0  0  0  0  0
   -0.5429   -0.0976    0.0544 C   0  0  0  0  0  0  0  0  0  0  0  0
   -0.7380   -0.3545    1.2337 O   0  0  0  0  0  0  0  0  0  0  0  0
    0.6741   -0.0476   -0.5716 N   0  0  0  0  0  0  0  0  0  0  0  0
    1.9428   -0.2177   -0.0168 C   0  0  0  0  0  0  0  0  0  0  0  0
    2.1876   -0.3394    1.3404 C   0  0  0  0  0  0  0  0  0  0  0  0
    3.5031   -0.4967    1.7685 C   0  0  0  0  0  0  0  0  0  0  0  0
    4.5406   -0.5252    0.8325 C   0  0  0  0  0  0  0  0  0  0  0  0
    5.8836   -0.6830    1.2181 C   0  0  0  0  0  0  0  0  0  0  0  0
    6.8923   -0.7058    0.2576 C   0  0  0  0  0  0  0  0  0  0  0  0
    6.5633   -0.5714   -1.0863 C   0  0  0  0  0  0  0  0  0  0  0  0
    5.2259   -0.4147   -1.4637 C   0  0  0  0  0  0  0  0  0  0  0  0
    4.2000   -0.3886   -0.5277 C   0  0  0  0  0  0  0  0  0  0  0  0
    2.9286   -0.2354   -0.9413 N   0  0  0  0  0  0  0  0  0  0  0  0
   -3.2476    1.4417    0.4872 C   0  0  0  0  0  0  0  0  0  0  0  0
   -4.6649    1.4414    1.0598 C   0  0  0  0  0  0  0  0  0  0  0  0
   -5.0351    0.0701    1.6089 C   0  0  0  0  0  0  0  0  0  0  0  0
   -4.8726   -0.9341    0.6072 O   0  0  0  0  0  0  0  0  0  0  0  0
   -3.5013   -1.0551    0.2042 C   0  0  0  0  0  0  0  0  0  0  0  0
   -3.5747   -0.3481   -2.4879 H   0  0  0  0  0  0  0  0  0  0  0  0
   -3.4905    1.3990   -2.2629 H   0  0  0  0  0  0  0  0  0  0  0  0
   -4.8631    0.4890   -1.6168 H   0  0  0  0  0  0  0  0  0  0  0  0
   -1.2828    0.7742   -1.6004 H   0  0  0  0  0  0  0  0  0  0  0  0
    0.6976   -0.0230   -1.5783 H   0  0  0  0  0  0  0  0  0  0  0  0
    1.3942   -0.3139    2.0773 H   0  0  0  0  0  0  0  0  0  0  0  0
    3.7068   -0.5958    2.8315 H   0  0  0  0  0  0  0  0  0  0  0  0
    6.1477   -0.7889    2.2678 H   0  0  0  0  0  0  0  0  0  0  0  0
    7.9299   -0.8283    0.5574 H   0  0  0  0  0  0  0  0  0  0  0  0
    7.3418   -0.5881   -1.8447 H   0  0  0  0  0  0  0  0  0  0  0  0
    4.9778   -0.3109   -2.5172 H   0  0  0  0  0  0  0  0  0  0  0  0
   -3.0534    2.3926   -0.0247 H   0  0  0  0  0  0  0  0  0  0  0  0
   -2.5481    1.4090    1.3312 H   0  0  0  0  0  0  0  0  0  0  0  0
   -4.7520    2.1984    1.8467 H   0  0  0  0  0  0  0  0  0  0  0  0
   -5.3715    1.7180    0.2689 H   0  0  0  0  0  0  0  0  0  0  0  0
   -6.0851    0.0655    1.9181 H   0  0  0  0  0  0  0  0  0  0  0  0
   -4.4310   -0.1851    2.4876 H   0  0  0  0  0  0  0  0  0  0  0  0
   -3.4370   -1.8921   -0.5007 H   0  0  0  0  0  0  0  0  0  0  0  0
   -2.9132   -1.3424    1.0813 H   0  0  0  0  0  0  0  0  0  0  0  0
  1  2  1  0
  2  3  1  0
  3  4  1  0
  4  5  2  0
  4  6  1  0
  6  7  1  0
  7  8  1  0
  8  9  2  0
  9 10  1  0
 10 11  2  0
 11 12  1  0
 12 13  2  0
 13 14  1  0
 14 15  2  0
 15 16  1  0
  2 17  1  0
 17 18  1  0
 18 19  1  0
 19 20  1  0
 20 21  1  0
 21  2  1  0
 16  7  2  0
 15 10  1  0
  1 22  1  0
  1 23  1  0
  1 24  1  0
  3 25  1  0
  6 26  1  0
  8 27  1  0
  9 28  1  0
 11 29  1  0
 12 30  1  0
 13 31  1  0
 14 32  1  0
 17 33  1  0
 17 34  1  0
 18 35  1  0
 18 36  1  0
 19 37  1  0
 19 38  1  0
 21 39  1  0
 21 40  1  0
M  END
$$$$
OCNT-2309623
     RDKit          3D

 49 52  0  0  0  0  0  0  0  0999 V2000
   -4.3985    2.2063    2.0700 N   0  0  0  0  0  0  0  0  0  0  0  0
   -3.6057    1.1229    2.3500 C   0  0  0  0  0  0  0  0  0  0  0  0
   -3.3340    0.8596    3.5173 O   0  0  0  0  0  0  0  0  0  0  0  0
   -3.0703    0.3479    1.1287 C   0  0  0  0  0  0  0  0  0  0  0  0
   -4.2195   -0.1629    0.2413 C   0  0  0  0  0  0  0  0  0  0  0  0
   -5.3691   -0.7215    0.8350 C   0  0  0  0  0  0  0  0  0  0  0  0
   -6.4237   -1.2026    0.0561 C   0  0  0  0  0  0  0  0  0  0  0  0
   -6.3433   -1.1539   -1.3316 C   0  0  0  0  0  0  0  0  0  0  0  0
   -5.2028   -0.6378   -1.9395 C   0  0  0  0  0  0  0  0  0  0  0  0
   -4.1469   -0.1551   -1.1613 C   0  0  0  0  0  0  0  0  0  0  0  0
   -2.1989   -0.8651    1.5406 C   0  0  0  0  0  0  0  0  0  0  0  0
   -0.7641   -0.4548    1.2327 C   0  0  0  0  0  0  0  0  0  0  0  0
   -0.9203    0.4339    0.0754 N   0  0  0  0  0  0  0  0  0  0  0  0
    0.2981    1.2094   -0.2141 C   0  0  0  0  0  0  0  0  0  0  0  0
    1.4271    0.3704   -0.7125 C   0  0  0  0  0  0  0  0  0  0  0  0
    2.3968   -0.2186   -0.0453 N   0  0  0  0  0  0  0  0  0  0  0  0
    3.1226   -0.8054   -1.0557 C   0  0  0  0  0  0  0  0  0  0  0  0
    4.3315   -1.6262   -0.7979 C   0  0  0  0  0  0  0  0  0  0  0  0
    5.4920   -0.6621   -0.7304 C   0  0  0  0  0  0  0  0  0  0  0  0
    5.8490   -0.0542    0.4859 C   0  0  0  0  0  0  0  0  0  0  0  0
    6.9214    0.8397    0.5497 C   0  0  0  0  0  0  0  0  0  0  0  0
    7.6476    1.1378   -0.6014 C   0  0  0  0  0  0  0  0  0  0  0  0
    7.2940    0.5430   -1.8065 C   0  0  0  0  0  0  0  0  0  0  0  0
    7.9909    0.8328   -2.9133 F   0  0  0  0  0  0  0  0  0  0  0  0
    6.2284   -0.3485   -1.8829 C   0  0  0  0  0  0  0  0  0  0  0  0
    2.6281   -0.6160   -2.2881 N   0  0  0  0  0  0  0  0  0  0  0  0
    1.4997    0.1746   -2.0618 O   0  0  0  0  0  0  0  0  0  0  0  0
   -2.0464    1.3014    0.4548 C   0  0  0  0  0  0  0  0  0  0  0  0
   -4.8358    2.6393    2.8746 H   0  0  0  0  0  0  0  0  0  0  0  0
   -4.9288    2.2267    1.2064 H   0  0  0  0  0  0  0  0  0  0  0  0
   -5.4530   -0.7989    1.9185 H   0  0  0  0  0  0  0  0  0  0  0  0
   -7.3027   -1.6267    0.5350 H   0  0  0  0  0  0  0  0  0  0  0  0
   -7.1596   -1.5352   -1.9394 H   0  0  0  0  0  0  0  0  0  0  0  0
   -5.1253   -0.6237   -3.0240 H   0  0  0  0  0  0  0  0  0  0  0  0
   -3.2583    0.2007   -1.6781 H   0  0  0  0  0  0  0  0  0  0  0  0
   -2.3048   -1.1515    2.5919 H   0  0  0  0  0  0  0  0  0  0  0  0
   -2.4421   -1.7556    0.9450 H   0  0  0  0  0  0  0  0  0  0  0  0
   -0.3312    0.0687    2.0949 H   0  0  0  0  0  0  0  0  0  0  0  0
   -0.1473   -1.3305    1.0072 H   0  0  0  0  0  0  0  0  0  0  0  0
    0.0688    1.9564   -0.9849 H   0  0  0  0  0  0  0  0  0  0  0  0
    0.6321    1.7651    0.6716 H   0  0  0  0  0  0  0  0  0  0  0  0
    4.2341   -2.1772    0.1443 H   0  0  0  0  0  0  0  0  0  0  0  0
    4.4902   -2.3689   -1.5882 H   0  0  0  0  0  0  0  0  0  0  0  0
    5.2837   -0.2698    1.3915 H   0  0  0  0  0  0  0  0  0  0  0  0
    7.1860    1.3045    1.4960 H   0  0  0  0  0  0  0  0  0  0  0  0
    8.4819    1.8306   -0.5687 H   0  0  0  0  0  0  0  0  0  0  0  0
    5.9779   -0.7862   -2.8454 H   0  0  0  0  0  0  0  0  0  0  0  0
   -1.6984    2.0654    1.1654 H   0  0  0  0  0  0  0  0  0  0  0  0
   -2.4514    1.8384   -0.4091 H   0  0  0  0  0  0  0  0  0  0  0  0
  1  2  1  0
  2  3  2  0
  2  4  1  0
  4  5  1  0
  5  6  2  0
  6  7  1  0
  7  8  2  0
  8  9  1  0
  9 10  2  0
  4 11  1  0
 11 12  1  0
 12 13  1  0
 13 14  1  0
 14 15  1  0
 15 16  2  0
 16 17  1  0
 17 18  1  0
 18 19  1  0
 19 20  2  0
 20 21  1  0
 21 22  2  0
 22 23  1  0
 23 24  1  0
 23 25  2  0
 17 26  2  0
 26 27  1  0
 13 28  1  0
 28  4  1  0
 10  5  1  0
 27 15  1  0
 25 19  1  0
  1 29  1  0
  1 30  1  0
  6 31  1  0
  7 32  1  0
  8 33  1  0
  9 34  1  0
 10 35  1  0
 11 36  1  0
 11 37  1  0
 12 38  1  0
 12 39  1  0
 14 40  1  0
 14 41  1  0
 18 42  1  0
 18 43  1  0
 20 44  1  0
 21 45  1  0
 22 46  1  0
 25 47  1  0
 28 48  1  0
 28 49  1  0
M  END
$$$$
OCNT-2309630
     RDKit          3D

 45 47  0  0  0  0  0  0  0  0999 V2000
   -3.8906    0.4209    3.7342 N   0  0  0  0  0  0  0  0  0  0  0  0
   -4.9269   -0.3735    3.3405 C   0  0  0  0  0  0  0  0  0  0  0  0
   -5.5458   -1.0268    4.1739 O   0  0  0  0  0  0  0  0  0  0  0  0
   -5.2885   -0.4184    1.8925 C   0  0  0  0  0  0  0  0  0  0  0  0
   -6.4723   -1.0993    1.5583 C   0  0  0  0  0  0  0  0  0  0  0  0
   -6.8991   -1.1914    0.2310 C   0  0  0  0  0  0  0  0  0  0  0  0
   -6.1506   -0.6004   -0.7826 C   0  0  0  0  0  0  0  0  0  0  0  0
   -4.9713    0.0744   -0.4709 C   0  0  0  0  0  0  0  0  0  0  0  0
   -4.5272    0.1493    0.8591 C   0  0  0  0  0  0  0  0  0  0  0  0
   -3.3701    0.8456    1.1355 O   0  0  0  0  0  0  0  0  0  0  0  0
   -2.2133    0.3875    0.5435 C   0  0  0  0  0  0  0  0  0  0  0  0
   -1.8656   -0.9621    0.4913 C   0  0  0  0  0  0  0  0  0  0  0  0
   -0.6544   -1.3438   -0.0941 C   0  0  0  0  0  0  0  0  0  0  0  0
    0.2207   -0.3845   -0.6209 C   0  0  0  0  0  0  0  0  0  0  0  0
    1.4224   -0.8509   -1.1878 N   0  0  0  0  0  0  0  0  0  0  0  0
    2.3719   -0.1215   -1.8680 C   0  0  0  0  0  0  0  0  0  0  0  0
    2.3097    1.0610   -2.1771 O   0  0  0  0  0  0  0  0  0  0  0  0
    3.4480   -0.9180   -2.2018 N   0  0  0  0  0  0  0  0  0  0  0  0
    4.6105   -0.3247   -2.8350 C   0  0  0  0  0  0  0  0  0  0  0  0
    5.5690    0.2328   -1.8066 C   0  0  0  0  0  0  0  0  0  0  0  0
    5.5828    1.5971   -1.5170 C   0  0  0  0  0  0  0  0  0  0  0  0
    6.4523    2.0725   -0.5362 C   0  0  0  0  0  0  0  0  0  0  0  0
    7.2749    1.1754    0.1318 C   0  0  0  0  0  0  0  0  0  0  0  0
    8.3593    1.7178    1.3458 Cl  0  0  0  0  0  0  0  0  0  0  0  0
    7.1923   -0.1669   -0.2023 C   0  0  0  0  0  0  0  0  0  0  0  0
    6.3551   -0.6614   -1.1485 N   0  0  0  0  0  0  0  0  0  0  0  0
   -0.1272    0.9655   -0.5378 C   0  0  0  0  0  0  0  0  0  0  0  0
   -1.3376    1.3510    0.0480 C   0  0  0  0  0  0  0  0  0  0  0  0
   -3.6583    0.4464    4.7175 H   0  0  0  0  0  0  0  0  0  0  0  0
   -3.3499    0.9808    3.0884 H   0  0  0  0  0  0  0  0  0  0  0  0
   -7.0758   -1.5599    2.3395 H   0  0  0  0  0  0  0  0  0  0  0  0
   -7.8200   -1.7189   -0.0063 H   0  0  0  0  0  0  0  0  0  0  0  0
   -6.4865   -0.6612   -1.8149 H   0  0  0  0  0  0  0  0  0  0  0  0
   -4.3986    0.5438   -1.2676 H   0  0  0  0  0  0  0  0  0  0  0  0
   -2.5179   -1.7248    0.9076 H   0  0  0  0  0  0  0  0  0  0  0  0
   -0.4064   -2.4016   -0.1277 H   0  0  0  0  0  0  0  0  0  0  0  0
    1.5562   -1.8508   -1.2082 H   0  0  0  0  0  0  0  0  0  0  0  0
    3.6767   -1.6393   -1.5329 H   0  0  0  0  0  0  0  0  0  0  0  0
    5.1121   -1.1217   -3.3946 H   0  0  0  0  0  0  0  0  0  0  0  0
    4.3059    0.4447   -3.5531 H   0  0  0  0  0  0  0  0  0  0  0  0
    4.9141    2.2798   -2.0350 H   0  0  0  0  0  0  0  0  0  0  0  0
    6.4741    3.1319   -0.2979 H   0  0  0  0  0  0  0  0  0  0  0  0
    7.8113   -0.9086    0.2942 H   0  0  0  0  0  0  0  0  0  0  0  0
    0.5269    1.7462   -0.9138 H   0  0  0  0  0  0  0  0  0  0  0  0
   -1.5924    2.4059    0.1084 H   0  0  0  0  0  0  0  0  0  0  0  0
  1  2  1  0
  2  3  2  0
  2  4  1  0
  4  5  2  0
  5  6  1  0
  6  7  2  0
  7  8  1  0
  8  9  2  0
  9 10  1  0
 10 11  1  0
 11 12  1  0
 12 13  2  0
 13 14  1  0
 14 15  1  0
 15 16  1  0
 16 17  2  0
 16 18  1  0
 18 19  1  0
 19 20  1  0
 20 21  2  0
 21 22  1  0
 22 23  2  0
 23 24  1  0
 23 25  1  0
 25 26  2  0
 14 27  2  0
 27 28  1  0
  9  4  1  0
 28 11  2  0
 26 20  1  0
  1 29  1  0
  1 30  1  0
  5 31  1  0
  6 32  1  0
  7 33  1  0
  8 34  1  0
 12 35  1  0
 13 36  1  0
 15 37  1  0
 18 38  1  0
 19 39  1  0
 19 40  1  0
 21 41  1  0
 22 42  1  0
 25 43  1  0
 27 44  1  0
 28 45  1  0
M  END
$$$$
