OCNT-2314120
     RDKit          3D

 35 38  0  0  0  0  0  0  0  0999 V2000
   -2.2399   -0.9832    1.7877 C   0  0  0  0  0  0  0  0  0  0  0  0
   -3.0482   -0.3272    0.6973 C   0  0  0  0  0  0  0  0  0  0  0  0
   -4.4463   -0.3928    0.8179 C   0  0  0  0  0  0  0  0  0  0  0  0
   -5.2604    0.1430   -0.1662 C   0  0  0  0  0  0  0  0  0  0  0  0
   -4.6821    0.7415   -1.2809 C   0  0  0  0  0  0  0  0  0  0  0  0
   -3.3077    0.8386   -1.4380 C   0  0  0  0  0  0  0  0  0  0  0  0
   -2.8842    1.4285   -2.5574 N   0  0  0  0  0  0  0  0  0  0  0  0
   -1.5662    1.5277   -2.7243 C   0  0  0  0  0  0  0  0  0  0  0  0
   -0.6381    1.1138   -1.8662 N   0  0  0  0  0  0  0  0  0  0  0  0
   -1.0702    0.5343   -0.7284 C   0  0  0  0  0  0  0  0  0  0  0  0
   -0.0939    0.1805    0.2391 N   0  0  0  0  0  0  0  0  0  0  0  0
    1.3010    0.0090    0.0642 C   0  0  0  0  0  0  0  0  0  0  0  0
    1.8573   -0.4374   -1.1394 C   0  0  0  0  0  0  0  0  0  0  0  0
    3.2310   -0.6763   -1.2840 C   0  0  0  0  0  0  0  0  0  0  0  0
    4.0414   -0.4813   -0.1632 C   0  0  0  0  0  0  0  0  0  0  0  0
    5.4002   -0.6364   -0.0080 N   0  0  0  0  0  0  0  0  0  0  0  0
    5.7648   -0.3471    1.2805 C   0  0  0  0  0  0  0  0  0  0  0  0
    4.6266    0.0021    1.9712 C   0  0  0  0  0  0  0  0  0  0  0  0
    3.5307   -0.0750    1.0675 C   0  0  0  0  0  0  0  0  0  0  0  0
    2.1443    0.1564    1.1822 C   0  0  0  0  0  0  0  0  0  0  0  0
   -2.4511    0.3291   -0.4425 C   0  0  0  0  0  0  0  0  0  0  0  0
   -1.5143   -1.6848    1.3656 H   0  0  0  0  0  0  0  0  0  0  0  0
   -2.8770   -1.5695    2.4599 H   0  0  0  0  0  0  0  0  0  0  0  0
   -1.7373   -0.2290    2.4000 H   0  0  0  0  0  0  0  0  0  0  0  0
   -4.9082   -0.8759    1.6770 H   0  0  0  0  0  0  0  0  0  0  0  0
   -6.3420    0.0865   -0.0774 H   0  0  0  0  0  0  0  0  0  0  0  0
   -5.3291    1.1472   -2.0567 H   0  0  0  0  0  0  0  0  0  0  0  0
   -1.2183    1.9945   -3.6387 H   0  0  0  0  0  0  0  0  0  0  0  0
   -0.2901    0.7051    1.0848 H   0  0  0  0  0  0  0  0  0  0  0  0
    1.2165   -0.6131   -2.0004 H   0  0  0  0  0  0  0  0  0  0  0  0
    3.6371   -1.0088   -2.2332 H   0  0  0  0  0  0  0  0  0  0  0  0
    6.0306   -0.9257   -0.7429 H   0  0  0  0  0  0  0  0  0  0  0  0
    6.7980   -0.4151    1.5930 H   0  0  0  0  0  0  0  0  0  0  0  0
    4.5843    0.2851    3.0146 H   0  0  0  0  0  0  0  0  0  0  0  0
    1.7408    0.4558    2.1440 H   0  0  0  0  0  0  0  0  0  0  0  0
  1  2  1  0
  2  3  2  0
  3  4  1  0
  4  5  2  0
  5  6  1  0
  6  7  2  0
  7  8  1  0
  8  9  2  0
  9 10  1  0
 10 11  1  0
 11 12  1  0
 12 13  2  0
 13 14  1  0
 14 15  2  0
 15 16  1  0
 16 17  1  0
 17 18  2  0
 18 19  1  0
 19 20  2  0
 10 21  2  0
 21  2  1  0
 21  6  1  0
 20 12  1  0
 19 15  1  0
  1 22  1  0
  1 23  1  0
  1 24  1  0
  3 25  1  0
  4 26  1  0
  5 27  1  0
  8 28  1  0
 11 29  1  0
 13 30  1  0
 14 31  1  0
 16 32  1  0
 17 33  1  0
 18 34  1  0
 20 35  1  0
M  END
$$$$
OCNT-2314135
     RDKit          3D

 41 43  0  0  0  0  0  0  0  0999 V2000
   -4.8474    2.7940    1.2805 C   0  0  0  0  0  0  0  0  0  0  0  0
   -4.8135    1.7230    0.2492 C   0  0  0  0  0  0  0  0  0  0  0  0
   -5.8970    1.4909   -0.5039 N   0  0  0  0  0  0  0  0  0  0  0  0
   -5.5288    0.4825   -1.3037 N   0  0  0  0  0  0  0  0  0  0  0  0
   -6.4661   -0.0281   -2.2737 C   0  0  0  0  0  0  0  0  0  0  0  0
   -4.2486    0.0589   -1.0943 C   0  0  0  0  0  0  0  0  0  0  0  0
   -3.7296    0.8536   -0.0838 C   0  0  0  0  0  0  0  0  0  0  0  0
   -2.3972    0.8307    0.5252 C   0  0  0  0  0  0  0  0  0  0  0  0
   -2.1186    1.5967    1.4406 O   0  0  0  0  0  0  0  0  0  0  0  0
   -1.5349   -0.1013   -0.0260 N   0  0  0  0  0  0  0  0  0  0  0  0
   -0.2016   -0.3744    0.3464 C   0  0  0  0  0  0  0  0  0  0  0  0
    0.4747   -1.3598   -0.3842 C   0  0  0  0  0  0  0  0  0  0  0  0
    1.7989   -1.6939   -0.0829 C   0  0  0  0  0  0  0  0  0  0  0  0
    2.4749   -1.0482    0.9585 C   0  0  0  0  0  0  0  0  0  0  0  0
    3.9088   -1.3992    1.2830 C   0  0  0  0  0  0  0  0  0  0  0  0
    4.9030   -0.9426    0.2416 C   0  0  0  0  0  0  0  0  0  0  0  0
    5.6566   -1.8695   -0.4837 C   0  0  0  0  0  0  0  0  0  0  0  0
    6.5622   -1.3994   -1.4230 C   0  0  0  0  0  0  0  0  0  0  0  0
    6.7656   -0.0900   -1.6861 N   0  0  0  0  0  0  0  0  0  0  0  0
    6.0292    0.7891   -0.9752 C   0  0  0  0  0  0  0  0  0  0  0  0
    5.1024    0.4186   -0.0140 C   0  0  0  0  0  0  0  0  0  0  0  0
    1.7971   -0.0652    1.6892 C   0  0  0  0  0  0  0  0  0  0  0  0
    0.4714    0.2685    1.3850 C   0  0  0  0  0  0  0  0  0  0  0  0
   -4.1544    3.5993    1.0171 H   0  0  0  0  0  0  0  0  0  0  0  0
   -4.5661    2.3939    2.2594 H   0  0  0  0  0  0  0  0  0  0  0  0
   -5.8472    3.2291    1.3749 H   0  0  0  0  0  0  0  0  0  0  0  0
   -7.3708   -0.3431   -1.7475 H   0  0  0  0  0  0  0  0  0  0  0  0
   -6.6922    0.7704   -2.9851 H   0  0  0  0  0  0  0  0  0  0  0  0
   -6.0223   -0.8785   -2.7961 H   0  0  0  0  0  0  0  0  0  0  0  0
   -3.8349   -0.7497   -1.6790 H   0  0  0  0  0  0  0  0  0  0  0  0
   -1.8915   -0.6491   -0.7929 H   0  0  0  0  0  0  0  0  0  0  0  0
   -0.0145   -1.8811   -1.2025 H   0  0  0  0  0  0  0  0  0  0  0  0
    2.3020   -2.4573   -0.6725 H   0  0  0  0  0  0  0  0  0  0  0  0
    3.9730   -2.4865    1.4208 H   0  0  0  0  0  0  0  0  0  0  0  0
    4.1988   -0.9688    2.2494 H   0  0  0  0  0  0  0  0  0  0  0  0
    5.5476   -2.9371   -0.3275 H   0  0  0  0  0  0  0  0  0  0  0  0
    7.1670   -2.0879   -2.0084 H   0  0  0  0  0  0  0  0  0  0  0  0
    6.2096    1.8365   -1.2031 H   0  0  0  0  0  0  0  0  0  0  0  0
    4.5439    1.1789    0.5201 H   0  0  0  0  0  0  0  0  0  0  0  0
    2.2928    0.4574    2.5048 H   0  0  0  0  0  0  0  0  0  0  0  0
   -0.0025    1.0386    1.9850 H   0  0  0  0  0  0  0  0  0  0  0  0
  1  2  1  0
  2  3  2  0
  3  4  1  0
  4  5  1  0
  4  6  1  0
  6  7  2  0
  7  8  1  0
  8  9  2  0
  8 10  1  0
 10 11  1  0
 11 12  1  0
 12 13  2  0
 13 14  1  0
 14 15  1  0
 15 16  1  0
 16 17  2  0
 17 18  1  0
 18 19  2  0
 19 20  1  0
 20 21  2  0
 14 22  2  0
 22 23  1  0
  7  2  1  0
 23 11  2  0
 21 16  1  0
  1 24  1  0
  1 25  1  0
  1 26  1  0
  5 27  1  0
  5 28  1  0
  5 29  1  0
  6 30  1  0
 10 31  1  0
 12 32  1  0
 13 33  1  0
 15 34  1  0
 15 35  1  0
 17 36  1  0
 18 37  1  0
 20 38  1  0
 21 39  1  0
 22 40  1  0
 23 41  1  0
M  END
$$$$
OCNT-2314136
     RDKit          3D

 33 36  0  0  0  0  0  0  0  0999 V2000
   -6.0232   -0.8882   -0.1068 F   0  0  0  0  0  0  0  0  0  0  0  0
   -5.4796    0.1446   -0.7931 C   0  0  0  0  0  0  0  0  0  0  0  0
   -6.4946    0.7778   -1.4193 F   0  0  0  0  0  0  0  0  0  0  0  0
   -4.2625   -0.2246   -1.6716 C   0  0  0  0  0  0  0  0  0  0  0  0
   -3.3780    0.1156   -0.4506 C   0  0  0  0  0  0  0  0  0  0  0  0
   -2.0511    0.8379   -0.7807 C   0  0  0  0  0  0  0  0  0  0  0  0
   -1.9304    1.8455   -1.6139 N   0  0  0  0  0  0  0  0  0  0  0  0
   -0.6071    2.2278   -1.6132 N   0  0  0  0  0  0  0  0  0  0  0  0
    0.0564    1.4223   -0.8139 C   0  0  0  0  0  0  0  0  0  0  0  0
    1.3580    1.4720   -0.4701 N   0  0  0  0  0  0  0  0  0  0  0  0
    2.2057    0.4390   -0.0225 C   0  0  0  0  0  0  0  0  0  0  0  0
    1.9458   -0.9315   -0.2525 C   0  0  0  0  0  0  0  0  0  0  0  0
    2.7858   -1.9309    0.2572 C   0  0  0  0  0  0  0  0  0  0  0  0
    3.8758   -1.5358    0.9981 C   0  0  0  0  0  0  0  0  0  0  0  0
    4.7920   -2.3598    1.5711 O   0  0  0  0  0  0  0  0  0  0  0  0
    5.6744   -1.3982    2.1876 C   0  0  0  0  0  0  0  0  0  0  0  0
    5.2627   -0.0296    1.9814 O   0  0  0  0  0  0  0  0  0  0  0  0
    4.1436   -0.2094    1.2298 C   0  0  0  0  0  0  0  0  0  0  0  0
    3.3331    0.7938    0.7381 C   0  0  0  0  0  0  0  0  0  0  0  0
   -0.8291    0.5468   -0.2484 N   0  0  0  0  0  0  0  0  0  0  0  0
   -4.5207    1.0399    0.0243 C   0  0  0  0  0  0  0  0  0  0  0  0
   -4.1438    0.4280   -2.5455 H   0  0  0  0  0  0  0  0  0  0  0  0
   -4.2231   -1.2674   -2.0000 H   0  0  0  0  0  0  0  0  0  0  0  0
   -3.2287   -0.7431    0.2175 H   0  0  0  0  0  0  0  0  0  0  0  0
    1.8657    2.2874   -0.8055 H   0  0  0  0  0  0  0  0  0  0  0  0
    1.1108   -1.2395   -0.8769 H   0  0  0  0  0  0  0  0  0  0  0  0
    2.5928   -2.9809    0.0654 H   0  0  0  0  0  0  0  0  0  0  0  0
    5.7097   -1.5943    3.2661 H   0  0  0  0  0  0  0  0  0  0  0  0
    6.6808   -1.5296    1.7724 H   0  0  0  0  0  0  0  0  0  0  0  0
    3.5652    1.8316    0.9547 H   0  0  0  0  0  0  0  0  0  0  0  0
   -0.6113   -0.1418    0.4533 H   0  0  0  0  0  0  0  0  0  0  0  0
   -4.4783    2.0742   -0.3354 H   0  0  0  0  0  0  0  0  0  0  0  0
   -4.6970    1.0480    1.1030 H   0  0  0  0  0  0  0  0  0  0  0  0
  1  2  1  0
  2  3  1  0
  2  4  1  0
  4  5  1  0
  5  6  1  0
  6  7  2  0
  7  8  1  0
  8  9  2  0
  9 10  1  0
 10 11  1  0
 11 12  1  0
 12 13  2  0
 13 14  1  0
 14 15  1  0
 15 16  1  0
 16 17  1  0
 17 18  1  0
 18 19  1  0
  9 20  1  0
  5 21  1  0
 21  2  1  0
 20  6  1  0
 19 11  2  0
 18 14  2  0
  4 22  1  0
  4 23  1  0
  5 24  1  0
 10 25  1  0
 12 26  1  0
 13 27  1  0
 16 28  1  0
 16 29  1  0
 19 30  1  0
 20 31  1  0
 21 32  1  0
 21 33  1  0
M  END
$$$$
OCNT-2314140
     RDKit          3D

  0  0  0  0  0  0  0  0  0  0999 V3000
M  V30 BEGIN CTAB
M  V30 COUNTS 42 45 0 0 0
M  V30 BEGIN ATOM
M  V30 1 O -0.593513 -1.176279 1.198725 0
M  V30 2 C -0.525562 -0.306893 0.340388 0
M  V30 3 N 0.632196 0.227582 -0.179503 0
M  V30 4 C 1.900896 -0.109447 0.248554 0
M  V30 5 C 3.053847 0.357459 -0.330885 0
M  V30 6 N 4.114538 -0.191338 0.370332 0
M  V30 7 C 5.508814 0.032375 0.096429 0
M  V30 8 N 6.428526 -0.578170 0.877198 0
M  V30 9 C 7.720811 -0.344443 0.589074 0
M  V30 10 C 8.132990 0.468283 -0.438886 0
M  V30 11 C 7.129543 1.046740 -1.178638 0
M  V30 12 N 5.818573 0.851754 -0.939642 0
M  V30 13 N 3.676626 -0.991567 1.384499 0
M  V30 14 C 2.344814 -0.936366 1.298591 0
M  V30 15 N -1.639271 0.265049 -0.246241 0
M  V30 16 C -2.994939 -0.107065 0.181098 0 CFG=2
M  V30 17 C -3.283975 -1.605630 -0.030947 0
M  V30 18 C -4.737573 -1.666744 -0.480716 0
M  V30 19 C -4.870325 -0.451248 -1.384147 0
M  V30 20 C -4.046123 0.630964 -0.688328 0 CFG=1
M  V30 21 C -4.854238 1.474805 0.296196 0
M  V30 22 N -3.957688 1.690386 1.433939 0
M  V30 23 C -3.308717 0.377969 1.614304 0
M  V30 24 H 0.560300 0.798698 -1.007302 0
M  V30 25 H 3.237748 1.018897 -1.164839 0
M  V30 26 H 8.436532 -0.848322 1.232460 0
M  V30 27 H 9.178795 0.640626 -0.650990 0
M  V30 28 H 7.357212 1.705201 -2.012234 0
M  V30 29 H 1.755344 -1.502775 2.009168 0
M  V30 30 H -1.513092 1.234394 -0.495735 0
M  V30 31 H -3.112370 -2.206152 0.868188 0
M  V30 32 H -2.648029 -2.015052 -0.826574 0
M  V30 33 H -5.410344 -1.582839 0.380327 0
M  V30 34 H -4.968796 -2.598741 -1.004465 0
M  V30 35 H -5.913182 -0.163362 -1.547241 0
M  V30 36 H -4.427561 -0.675500 -2.362441 0
M  V30 37 H -3.583297 1.289795 -1.433914 0
M  V30 38 H -5.762177 0.962375 0.635468 0
M  V30 39 H -5.161902 2.427148 -0.147431 0
M  V30 40 H -3.243943 2.372055 1.178655 0
M  V30 41 H -2.422962 0.478268 2.248682 0
M  V30 42 H -4.008524 -0.292889 2.126969 0
M  V30 END ATOM
M  V30 BEGIN BOND
M  V30 1 2 1 2
M  V30 2 1 2 3
M  V30 3 1 3 4
M  V30 4 2 4 5
M  V30 5 1 5 6
M  V30 6 1 6 7
M  V30 7 2 7 8
M  V30 8 1 8 9
M  V30 9 2 9 10
M  V30 10 1 10 11
M  V30 11 2 11 12
M  V30 12 1 6 13
M  V30 13 2 13 14
M  V30 14 1 2 15
M  V30 15 1 16 15 CFG=3
M  V30 16 1 16 17
M  V30 17 1 17 18
M  V30 18 1 18 19
M  V30 19 1 19 20
M  V30 20 1 20 21
M  V30 21 1 21 22
M  V30 22 1 22 23
M  V30 23 1 14 4
M  V30 24 1 20 16
M  V30 25 1 12 7
M  V30 26 1 23 16
M  V30 27 1 3 24
M  V30 28 1 5 25
M  V30 29 1 9 26
M  V30 30 1 10 27
M  V30 31 1 11 28
M  V30 32 1 14 29
M  V30 33 1 15 30
M  V30 34 1 17 31
M  V30 35 1 17 32
M  V30 36 1 18 33
M  V30 37 1 18 34
M  V30 38 1 19 35
M  V30 39 1 19 36
M  V30 40 1 20 37 CFG=3
M  V30 41 1 21 38
M  V30 42 1 21 39
M  V30 43 1 22 40
M  V30 44 1 23 41
M  V30 45 1 23 42
M  V30 END BOND
M  V30 BEGIN COLLECTION
M  V30 MDLV30/STERAC1 ATOMS=(2 16 20)
M  V30 END COLLECTION
M  V30 END CTAB
M  END
>  <_CXSMILES_Data>  (804) 
|&1:15,19|

$$$$
OCNT-2314146
     RDKit          3D

 54 58  0  0  0  0  0  0  0  0999 V2000
    2.8161    2.0306    1.1588 N   0  0  0  0  0  0  0  0  0  0  0  0
    3.8755    1.1831    0.8364 C   0  0  0  0  0  0  0  0  0  0  0  0
    4.8922    1.7636    0.1734 N   0  0  0  0  0  0  0  0  0  0  0  0
    5.9165    0.9858   -0.2393 C   0  0  0  0  0  0  0  0  0  0  0  0
    7.0579    1.6327   -0.9837 C   0  0  0  0  0  0  0  0  0  0  0  0
    8.4706    1.5180   -0.4533 C   0  0  0  0  0  0  0  0  0  0  0  0
    7.7626    2.8395   -0.4034 C   0  0  0  0  0  0  0  0  0  0  0  0
    5.9609   -0.3464   -0.0293 N   0  0  0  0  0  0  0  0  0  0  0  0
    4.9246   -0.8952    0.6359 C   0  0  0  0  0  0  0  0  0  0  0  0
    3.8391   -0.1768    1.0792 C   0  0  0  0  0  0  0  0  0  0  0  0
    2.7514   -0.8171    1.8351 C   0  0  0  0  0  0  0  0  0  0  0  0
    2.2860   -0.2593    2.8230 O   0  0  0  0  0  0  0  0  0  0  0  0
    2.3220   -2.0412    1.3619 N   0  0  0  0  0  0  0  0  0  0  0  0
    1.1575   -2.6893    1.9262 C   0  0  0  0  0  0  0  0  0  0  0  0
   -0.0720   -2.3782    1.1100 C   0  0  0  0  0  0  0  0  0  0  0  0
   -0.4434   -3.2123    0.0278 C   0  0  0  0  0  0  0  0  0  0  0  0
   -1.5660   -2.9286   -0.7611 C   0  0  0  0  0  0  0  0  0  0  0  0
   -2.3061   -1.7998   -0.4607 C   0  0  0  0  0  0  0  0  0  0  0  0
   -3.5392   -1.2673   -1.1115 C   0  0  0  0  0  0  0  0  0  0  0  0
   -3.7780   -0.0307   -0.3781 N   0  0  0  0  0  0  0  0  0  0  0  0
   -5.0112    0.7398   -0.4782 C   0  0  0  0  0  0  0  0  0  0  0  0
   -5.3144    1.1684   -1.9110 C   0  0  0  0  0  0  0  0  0  0  0  0
   -6.5579    2.0453   -1.9223 C   0  0  0  0  0  0  0  0  0  0  0  0
   -7.7298    1.3349   -1.2861 C   0  0  0  0  0  0  0  0  0  0  0  0
   -8.8788    1.4649   -1.6970 O   0  0  0  0  0  0  0  0  0  0  0  0
   -7.4503    0.5382   -0.2049 N   0  0  0  0  0  0  0  0  0  0  0  0
   -6.2253   -0.0205    0.0829 C   0  0  0  0  0  0  0  0  0  0  0  0
   -6.1575   -1.0613    0.7336 O   0  0  0  0  0  0  0  0  0  0  0  0
   -2.8997    0.1238    0.6856 C   0  0  0  0  0  0  0  0  0  0  0  0
   -2.9074    0.9902    1.5384 O   0  0  0  0  0  0  0  0  0  0  0  0
   -1.9342   -0.9780    0.6016 C   0  0  0  0  0  0  0  0  0  0  0  0
   -0.8318   -1.2334    1.3950 C   0  0  0  0  0  0  0  0  0  0  0  0
    3.0920    2.9944    1.0012 H   0  0  0  0  0  0  0  0  0  0  0  0
    2.4579    1.8535    2.0979 H   0  0  0  0  0  0  0  0  0  0  0  0
    6.9501    1.6172   -2.0646 H   0  0  0  0  0  0  0  0  0  0  0  0
    9.2700    1.3912   -1.1738 H   0  0  0  0  0  0  0  0  0  0  0  0
    8.6297    0.9902    0.4814 H   0  0  0  0  0  0  0  0  0  0  0  0
    7.4402    3.2098    0.5642 H   0  0  0  0  0  0  0  0  0  0  0  0
    8.0766    3.6167   -1.0904 H   0  0  0  0  0  0  0  0  0  0  0  0
    5.0168   -1.9620    0.8167 H   0  0  0  0  0  0  0  0  0  0  0  0
    2.5883   -2.3252    0.4283 H   0  0  0  0  0  0  0  0  0  0  0  0
    1.0128   -2.3892    2.9703 H   0  0  0  0  0  0  0  0  0  0  0  0
    1.3504   -3.7678    1.9228 H   0  0  0  0  0  0  0  0  0  0  0  0
    0.1474   -4.0982   -0.2004 H   0  0  0  0  0  0  0  0  0  0  0  0
   -1.8435   -3.5830   -1.5818 H   0  0  0  0  0  0  0  0  0  0  0  0
   -3.3756   -1.0337   -2.1671 H   0  0  0  0  0  0  0  0  0  0  0  0
   -4.3797   -1.9539   -0.9815 H   0  0  0  0  0  0  0  0  0  0  0  0
   -4.8965    1.6331    0.1501 H   0  0  0  0  0  0  0  0  0  0  0  0
   -4.4666    1.7189   -2.3347 H   0  0  0  0  0  0  0  0  0  0  0  0
   -5.4818    0.2897   -2.5471 H   0  0  0  0  0  0  0  0  0  0  0  0
   -6.3873    2.9809   -1.3782 H   0  0  0  0  0  0  0  0  0  0  0  0
   -6.8189    2.2947   -2.9565 H   0  0  0  0  0  0  0  0  0  0  0  0
   -8.2430    0.0204    0.1513 H   0  0  0  0  0  0  0  0  0  0  0  0
   -0.5689   -0.5600    2.2069 H   0  0  0  0  0  0  0  0  0  0  0  0
  1  2  1  0
  2  3  2  0
  3  4  1  0
  4  5  1  0
  5  6  1  0
  6  7  1  0
  4  8  2  0
  8  9  1  0
  9 10  2  0
 10 11  1  0
 11 12  2  0
 11 13  1  0
 13 14  1  0
 14 15  1  0
 15 16  1  0
 16 17  2  0
 17 18  1  0
 18 19  1  0
 19 20  1  0
 20 21  1  0
 21 22  1  0
 22 23  1  0
 23 24  1  0
 24 25  2  0
 24 26  1  0
 26 27  1  0
 27 28  2  0
 20 29  1  0
 29 30  2  0
 29 31  1  0
 31 32  1  0
 10  2  1  0
 32 15  2  0
  7  5  1  0
 31 18  2  0
 27 21  1  0
  1 33  1  0
  1 34  1  0
  5 35  1  0
  6 36  1  0
  6 37  1  0
  7 38  1  0
  7 39  1  0
  9 40  1  0
 13 41  1  0
 14 42  1  0
 14 43  1  0
 16 44  1  0
 17 45  1  0
 19 46  1  0
 19 47  1  0
 21 48  1  0
 22 49  1  0
 22 50  1  0
 23 51  1  0
 23 52  1  0
 26 53  1  0
 32 54  1  0
M  END
$$$$
OCNT-2314148
     RDKit          3D

 47 49  0  0  0  0  0  0  0  0999 V2000
    6.2725   -1.7798    1.8166 C   0  0  0  0  0  0  0  0  0  0  0  0
    6.5874   -1.2180    0.5487 O   0  0  0  0  0  0  0  0  0  0  0  0
    5.5508   -0.6632   -0.1509 C   0  0  0  0  0  0  0  0  0  0  0  0
    5.9292    0.0276   -1.3042 C   0  0  0  0  0  0  0  0  0  0  0  0
    4.9728    0.6518   -2.1047 C   0  0  0  0  0  0  0  0  0  0  0  0
    3.6242    0.5802   -1.7607 C   0  0  0  0  0  0  0  0  0  0  0  0
    3.2229   -0.1248   -0.6183 C   0  0  0  0  0  0  0  0  0  0  0  0
    1.7597   -0.2071   -0.2458 C   0  0  0  0  0  0  0  0  0  0  0  0
    1.3172    0.8162    0.7946 C   0  0  0  0  0  0  0  0  0  0  0  0
    2.1074    1.3996    1.5370 O   0  0  0  0  0  0  0  0  0  0  0  0
   -0.0429    1.0376    0.8846 N   0  0  0  0  0  0  0  0  0  0  0  0
   -0.5923    1.9868    1.8319 C   0  0  0  0  0  0  0  0  0  0  0  0
   -2.0405    2.1471    1.3953 C   0  0  0  0  0  0  0  0  0  0  0  0
   -2.4024    0.7422    0.8807 C   0  0  0  0  0  0  0  0  0  0  0  0
   -3.6499    0.5917    0.0291 C   0  0  0  0  0  0  0  0  0  0  0  0
   -4.4671    1.6918   -0.2841 C   0  0  0  0  0  0  0  0  0  0  0  0
   -5.6139    1.5394   -1.0645 C   0  0  0  0  0  0  0  0  0  0  0  0
   -5.9692    0.2834   -1.5405 C   0  0  0  0  0  0  0  0  0  0  0  0
   -5.1842   -0.8258   -1.2293 C   0  0  0  0  0  0  0  0  0  0  0  0
   -4.0350   -0.6856   -0.4418 C   0  0  0  0  0  0  0  0  0  0  0  0
   -3.2222   -1.7289   -0.0765 O   0  0  0  0  0  0  0  0  0  0  0  0
   -3.6637   -3.0448   -0.3870 C   0  0  0  0  0  0  0  0  0  0  0  0
   -1.1018    0.3434    0.1595 C   0  0  0  0  0  0  0  0  0  0  0  0
    4.1978   -0.7404    0.1872 C   0  0  0  0  0  0  0  0  0  0  0  0
    5.8119   -1.0388    2.4795 H   0  0  0  0  0  0  0  0  0  0  0  0
    5.6353   -2.6637    1.7091 H   0  0  0  0  0  0  0  0  0  0  0  0
    7.2099   -2.1016    2.2790 H   0  0  0  0  0  0  0  0  0  0  0  0
    6.9808    0.0894   -1.5737 H   0  0  0  0  0  0  0  0  0  0  0  0
    5.2815    1.1992   -2.9908 H   0  0  0  0  0  0  0  0  0  0  0  0
    2.8900    1.0805   -2.3879 H   0  0  0  0  0  0  0  0  0  0  0  0
    1.5415   -1.2085    0.1458 H   0  0  0  0  0  0  0  0  0  0  0  0
    1.1640   -0.0848   -1.1576 H   0  0  0  0  0  0  0  0  0  0  0  0
   -0.0347    2.9280    1.8148 H   0  0  0  0  0  0  0  0  0  0  0  0
   -0.5205    1.5470    2.8324 H   0  0  0  0  0  0  0  0  0  0  0  0
   -2.0843    2.8885    0.5882 H   0  0  0  0  0  0  0  0  0  0  0  0
   -2.6880    2.4861    2.2093 H   0  0  0  0  0  0  0  0  0  0  0  0
   -2.5292    0.1026    1.7670 H   0  0  0  0  0  0  0  0  0  0  0  0
   -4.2327    2.6904    0.0738 H   0  0  0  0  0  0  0  0  0  0  0  0
   -6.2305    2.4042   -1.2973 H   0  0  0  0  0  0  0  0  0  0  0  0
   -6.8613    0.1649   -2.1501 H   0  0  0  0  0  0  0  0  0  0  0  0
   -5.4998   -1.7884   -1.6166 H   0  0  0  0  0  0  0  0  0  0  0  0
   -2.9448   -3.7477    0.0447 H   0  0  0  0  0  0  0  0  0  0  0  0
   -4.6416   -3.2525    0.0606 H   0  0  0  0  0  0  0  0  0  0  0  0
   -3.6784   -3.2079   -1.4697 H   0  0  0  0  0  0  0  0  0  0  0  0
   -1.0828    0.6939   -0.8789 H   0  0  0  0  0  0  0  0  0  0  0  0
   -0.9152   -0.7338    0.1743 H   0  0  0  0  0  0  0  0  0  0  0  0
    3.8719   -1.2673    1.0789 H   0  0  0  0  0  0  0  0  0  0  0  0
  1  2  1  0
  2  3  1  0
  3  4  1  0
  4  5  2  0
  5  6  1  0
  6  7  2  0
  7  8  1  0
  8  9  1  0
  9 10  2  0
  9 11  1  0
 11 12  1  0
 12 13  1  0
 13 14  1  0
 14 15  1  0
 15 16  2  0
 16 17  1  0
 17 18  2  0
 18 19  1  0
 19 20  2  0
 20 21  1  0
 21 22  1  0
 14 23  1  0
  7 24  1  0
 24  3  2  0
 23 11  1  0
 20 15  1  0
  1 25  1  0
  1 26  1  0
  1 27  1  0
  4 28  1  0
  5 29  1  0
  6 30  1  0
  8 31  1  0
  8 32  1  0
 12 33  1  0
 12 34  1  0
 13 35  1  0
 13 36  1  0
 14 37  1  0
 16 38  1  0
 17 39  1  0
 18 40  1  0
 19 41  1  0
 22 42  1  0
 22 43  1  0
 22 44  1  0
 23 45  1  0
 23 46  1  0
 24 47  1  0
M  END
$$$$
OCNT-2314151
     RDKit          3D

 46 48  0  0  0  0  0  0  0  0999 V2000
    7.5619    0.7549   -0.4118 C   0  0  0  0  0  0  0  0  0  0  0  0
    7.5379   -0.5586    0.3561 C   0  0  0  0  0  0  0  0  0  0  0  0
    6.5448   -1.4848   -0.1776 N   0  0  0  0  0  0  0  0  0  0  0  0
    5.2080   -1.1610    0.0232 C   0  0  0  0  0  0  0  0  0  0  0  0
    4.6729   -0.9350    1.2838 C   0  0  0  0  0  0  0  0  0  0  0  0
    3.3162   -0.6303    1.4069 C   0  0  0  0  0  0  0  0  0  0  0  0
    2.5144   -0.5627    0.2698 C   0  0  0  0  0  0  0  0  0  0  0  0
    1.1522   -0.2523    0.4455 N   0  0  0  0  0  0  0  0  0  0  0  0
    0.1808   -0.1351   -0.5453 C   0  0  0  0  0  0  0  0  0  0  0  0
    0.3766   -0.2794   -1.7495 O   0  0  0  0  0  0  0  0  0  0  0  0
   -1.1974    0.2195    0.0497 C   0  0  0  0  0  0  0  0  0  0  0  0
   -1.5213   -0.6833    1.0240 F   0  0  0  0  0  0  0  0  0  0  0  0
   -1.1254    1.4277    0.6861 F   0  0  0  0  0  0  0  0  0  0  0  0
   -2.2784    0.2527   -1.0271 C   0  0  0  0  0  0  0  0  0  0  0  0
   -3.6421    0.6075   -0.5046 C   0  0  0  0  0  0  0  0  0  0  0  0
   -4.2236    1.8666   -0.4927 C   0  0  0  0  0  0  0  0  0  0  0  0
   -3.7076    3.1810   -0.9560 C   0  0  0  0  0  0  0  0  0  0  0  0
   -5.4745    1.7427    0.0588 N   0  0  0  0  0  0  0  0  0  0  0  0
   -5.7239    0.4373    0.4071 C   0  0  0  0  0  0  0  0  0  0  0  0
   -6.8584   -0.1377    0.9927 C   0  0  0  0  0  0  0  0  0  0  0  0
   -6.8341   -1.5132    1.2389 C   0  0  0  0  0  0  0  0  0  0  0  0
   -5.7185   -2.2795    0.9122 C   0  0  0  0  0  0  0  0  0  0  0  0
   -4.5932   -1.6873    0.3270 C   0  0  0  0  0  0  0  0  0  0  0  0
   -4.5922   -0.3009    0.0670 C   0  0  0  0  0  0  0  0  0  0  0  0
    3.1338   -0.8156   -0.9480 C   0  0  0  0  0  0  0  0  0  0  0  0
    4.4528   -1.1142   -1.0874 N   0  0  0  0  0  0  0  0  0  0  0  0
    7.7279    0.5830   -1.4806 H   0  0  0  0  0  0  0  0  0  0  0  0
    8.3682    1.3951   -0.0402 H   0  0  0  0  0  0  0  0  0  0  0  0
    6.6200    1.3018   -0.3016 H   0  0  0  0  0  0  0  0  0  0  0  0
    7.3909   -0.3750    1.4261 H   0  0  0  0  0  0  0  0  0  0  0  0
    8.5201   -1.0351    0.2595 H   0  0  0  0  0  0  0  0  0  0  0  0
    6.6300   -1.5973   -1.1881 H   0  0  0  0  0  0  0  0  0  0  0  0
    5.2921   -1.0154    2.1699 H   0  0  0  0  0  0  0  0  0  0  0  0
    2.9066   -0.4585    2.3979 H   0  0  0  0  0  0  0  0  0  0  0  0
    0.8339   -0.1037    1.3992 H   0  0  0  0  0  0  0  0  0  0  0  0
   -2.3369   -0.7258   -1.5205 H   0  0  0  0  0  0  0  0  0  0  0  0
   -2.0006    0.9759   -1.8044 H   0  0  0  0  0  0  0  0  0  0  0  0
   -4.3563    4.0040   -0.6389 H   0  0  0  0  0  0  0  0  0  0  0  0
   -3.6443    3.1985   -2.0485 H   0  0  0  0  0  0  0  0  0  0  0  0
   -2.7083    3.3655   -0.5490 H   0  0  0  0  0  0  0  0  0  0  0  0
   -6.1287    2.5006    0.1942 H   0  0  0  0  0  0  0  0  0  0  0  0
   -7.7287    0.4573    1.2488 H   0  0  0  0  0  0  0  0  0  0  0  0
   -7.6993   -1.9906    1.6931 H   0  0  0  0  0  0  0  0  0  0  0  0
   -5.7184   -3.3478    1.1135 H   0  0  0  0  0  0  0  0  0  0  0  0
   -3.7287   -2.2964    0.0814 H   0  0  0  0  0  0  0  0  0  0  0  0
    2.5992   -0.7951   -1.8913 H   0  0  0  0  0  0  0  0  0  0  0  0
  1  2  1  0
  2  3  1  0
  3  4  1  0
  4  5  2  0
  5  6  1  0
  6  7  2  0
  7  8  1  0
  8  9  1  0
  9 10  2  0
  9 11  1  0
 11 12  1  0
 11 13  1  0
 11 14  1  0
 14 15  1  0
 15 16  2  0
 16 17  1  0
 16 18  1  0
 18 19  1  0
 19 20  2  0
 20 21  1  0
 21 22  2  0
 22 23  1  0
 23 24  2  0
  7 25  1  0
 25 26  2  0
 26  4  1  0
 24 15  1  0
 24 19  1  0
  1 27  1  0
  1 28  1  0
  1 29  1  0
  2 30  1  0
  2 31  1  0
  3 32  1  0
  5 33  1  0
  6 34  1  0
  8 35  1  0
 14 36  1  0
 14 37  1  0
 17 38  1  0
 17 39  1  0
 17 40  1  0
 18 41  1  0
 20 42  1  0
 21 43  1  0
 22 44  1  0
 23 45  1  0
 25 46  1  0
M  END
$$$$
OCNT-2314160
     RDKit          3D

 47 48  0  0  0  0  0  0  0  0999 V2000
    2.2008    2.6529   -1.8401 C   0  0  0  0  0  0  0  0  0  0  0  0
    2.2574    1.3908   -1.1837 O   0  0  0  0  0  0  0  0  0  0  0  0
    1.9685    1.3622    0.1579 C   0  0  0  0  0  0  0  0  0  0  0  0
    1.5794    2.4772    0.9080 C   0  0  0  0  0  0  0  0  0  0  0  0
    1.2877    2.3497    2.2679 C   0  0  0  0  0  0  0  0  0  0  0  0
    1.3836    1.1095    2.8898 C   0  0  0  0  0  0  0  0  0  0  0  0
    1.7735   -0.0073    2.1536 C   0  0  0  0  0  0  0  0  0  0  0  0
    2.0670    0.1023    0.7836 C   0  0  0  0  0  0  0  0  0  0  0  0
    2.4859   -1.1417    0.0166 C   0  0  0  0  0  0  0  0  0  0  0  0
    1.3457   -1.8985   -0.7377 C   0  0  0  0  0  0  0  0  0  0  0  0
    1.9959   -3.0312   -1.5512 C   0  0  0  0  0  0  0  0  0  0  0  0
    0.3549   -2.5001    0.2638 C   0  0  0  0  0  0  0  0  0  0  0  0
    0.7141   -0.9609   -1.6866 N   0  0  0  0  0  0  0  0  0  0  0  0
   -0.7682   -1.0999   -2.4225 S   0  0  0  0  0  0  0  0  0  0  0  0
   -0.9890   -2.4885   -2.7568 O   0  0  0  0  0  0  0  0  0  0  0  0
   -0.8156   -0.0616   -3.4290 O   0  0  0  0  0  0  0  0  0  0  0  0
   -1.9053   -0.6341   -1.1698 C   0  0  0  0  0  0  0  0  0  0  0  0
   -2.9401   -1.4782   -0.8271 C   0  0  0  0  0  0  0  0  0  0  0  0
   -3.8352   -1.1904    0.1488 N   0  0  0  0  0  0  0  0  0  0  0  0
   -3.6970   -0.0181    0.7985 C   0  0  0  0  0  0  0  0  0  0  0  0
   -4.6474    0.2269    1.7859 N   0  0  0  0  0  0  0  0  0  0  0  0
   -2.6947    0.9097    0.4998 C   0  0  0  0  0  0  0  0  0  0  0  0
   -2.5779    2.2123    1.2320 C   0  0  0  0  0  0  0  0  0  0  0  0
   -1.7800    0.5832   -0.5073 C   0  0  0  0  0  0  0  0  0  0  0  0
    1.1844    3.0596   -1.8215 H   0  0  0  0  0  0  0  0  0  0  0  0
    2.4763    2.4955   -2.8873 H   0  0  0  0  0  0  0  0  0  0  0  0
    2.9202    3.3560   -1.4079 H   0  0  0  0  0  0  0  0  0  0  0  0
    1.4916    3.4639    0.4655 H   0  0  0  0  0  0  0  0  0  0  0  0
    0.9881    3.2227    2.8424 H   0  0  0  0  0  0  0  0  0  0  0  0
    1.1596    1.0117    3.9490 H   0  0  0  0  0  0  0  0  0  0  0  0
    1.8476   -0.9692    2.6568 H   0  0  0  0  0  0  0  0  0  0  0  0
    3.2749   -0.8551   -0.6930 H   0  0  0  0  0  0  0  0  0  0  0  0
    2.9825   -1.8320    0.7132 H   0  0  0  0  0  0  0  0  0  0  0  0
    1.2499   -3.6321   -2.0811 H   0  0  0  0  0  0  0  0  0  0  0  0
    2.5617   -3.7092   -0.9022 H   0  0  0  0  0  0  0  0  0  0  0  0
    2.6858   -2.6332   -2.3046 H   0  0  0  0  0  0  0  0  0  0  0  0
   -0.3863   -3.1380   -0.2279 H   0  0  0  0  0  0  0  0  0  0  0  0
   -0.1874   -1.7307    0.8206 H   0  0  0  0  0  0  0  0  0  0  0  0
    0.8751   -3.1289    0.9959 H   0  0  0  0  0  0  0  0  0  0  0  0
    1.2714   -0.1590   -1.9939 H   0  0  0  0  0  0  0  0  0  0  0  0
   -3.0930   -2.4346   -1.3200 H   0  0  0  0  0  0  0  0  0  0  0  0
   -5.2360   -0.6017    1.8328 H   0  0  0  0  0  0  0  0  0  0  0  0
   -4.2124    0.4275    2.6779 H   0  0  0  0  0  0  0  0  0  0  0  0
   -1.8245    2.8624    0.7746 H   0  0  0  0  0  0  0  0  0  0  0  0
   -3.5295    2.7533    1.2094 H   0  0  0  0  0  0  0  0  0  0  0  0
   -2.2842    2.0365    2.2717 H   0  0  0  0  0  0  0  0  0  0  0  0
   -0.9796    1.2680   -0.7734 H   0  0  0  0  0  0  0  0  0  0  0  0
  1  2  1  0
  2  3  1  0
  3  4  2  0
  4  5  1  0
  5  6  2  0
  6  7  1  0
  7  8  2  0
  8  9  1  0
  9 10  1  0
 10 11  1  0
 10 12  1  0
 10 13  1  0
 13 14  1  0
 14 15  2  0
 14 16  2  0
 14 17  1  0
 17 18  1  0
 18 19  2  0
 19 20  1  0
 20 21  1  0
 20 22  2  0
 22 23  1  0
 22 24  1  0
  8  3  1  0
 24 17  2  0
  1 25  1  0
  1 26  1  0
  1 27  1  0
  4 28  1  0
  5 29  1  0
  6 30  1  0
  7 31  1  0
  9 32  1  0
  9 33  1  0
 11 34  1  0
 11 35  1  0
 11 36  1  0
 12 37  1  0
 12 38  1  0
 12 39  1  0
 13 40  1  0
 18 41  1  0
 21 42  1  0
 21 43  1  0
 23 44  1  0
 23 45  1  0
 23 46  1  0
 24 47  1  0
M  END
$$$$
OCNT-2314178
     RDKit          3D

 46 49  0  0  0  0  0  0  0  0999 V2000
    3.8084   -0.5500   -2.4641 C   0  0  0  0  0  0  0  0  0  0  0  0
    3.1666   -0.1537   -1.2597 O   0  0  0  0  0  0  0  0  0  0  0  0
    3.8560   -0.3016   -0.0866 C   0  0  0  0  0  0  0  0  0  0  0  0
    5.2106   -0.6544   -0.0195 C   0  0  0  0  0  0  0  0  0  0  0  0
    5.8556   -0.7797    1.2119 C   0  0  0  0  0  0  0  0  0  0  0  0
    5.1546   -0.5508    2.3884 C   0  0  0  0  0  0  0  0  0  0  0  0
    3.8079   -0.1953    2.3333 C   0  0  0  0  0  0  0  0  0  0  0  0
    3.1355   -0.0635    1.1016 C   0  0  0  0  0  0  0  0  0  0  0  0
    1.6705    0.3221    1.1391 C   0  0  0  0  0  0  0  0  0  0  0  0
    1.3040    1.6327    0.4429 C   0  0  0  0  0  0  0  0  0  0  0  0
   -0.2205    1.5542    0.3107 C   0  0  0  0  0  0  0  0  0  0  0  0
   -0.5641    0.1257    0.4348 N   0  0  0  0  0  0  0  0  0  0  0  0
   -1.5475   -0.3285   -0.4486 C   0  0  0  0  0  0  0  0  0  0  0  0
   -1.2054   -1.2336   -1.3853 N   0  0  0  0  0  0  0  0  0  0  0  0
   -2.1473   -1.6146   -2.2596 C   0  0  0  0  0  0  0  0  0  0  0  0
   -3.4116   -1.1847   -2.3015 N   0  0  0  0  0  0  0  0  0  0  0  0
   -3.7464   -0.3142   -1.3354 C   0  0  0  0  0  0  0  0  0  0  0  0
   -2.8579    0.1326   -0.3614 C   0  0  0  0  0  0  0  0  0  0  0  0
   -3.3801    1.0739    0.6859 C   0  0  0  0  0  0  0  0  0  0  0  0
   -4.7731    0.6613    1.1758 C   0  0  0  0  0  0  0  0  0  0  0  0
   -5.7393    0.1993    0.0769 C   0  0  0  0  0  0  0  0  0  0  0  0
   -5.1498    0.2298   -1.3300 C   0  0  0  0  0  0  0  0  0  0  0  0
    0.6823   -0.6599    0.4933 C   0  0  0  0  0  0  0  0  0  0  0  0
    4.6572    0.1036   -2.6894 H   0  0  0  0  0  0  0  0  0  0  0  0
    4.1147   -1.6006   -2.4251 H   0  0  0  0  0  0  0  0  0  0  0  0
    3.0841   -0.4453   -3.2777 H   0  0  0  0  0  0  0  0  0  0  0  0
    5.7983   -0.8344   -0.9135 H   0  0  0  0  0  0  0  0  0  0  0  0
    6.9065   -1.0544    1.2493 H   0  0  0  0  0  0  0  0  0  0  0  0
    5.6533   -0.6474    3.3492 H   0  0  0  0  0  0  0  0  0  0  0  0
    3.2801   -0.0209    3.2692 H   0  0  0  0  0  0  0  0  0  0  0  0
    1.3696    0.4304    2.1927 H   0  0  0  0  0  0  0  0  0  0  0  0
    1.6206    2.5121    1.0135 H   0  0  0  0  0  0  0  0  0  0  0  0
    1.7487    1.7188   -0.5537 H   0  0  0  0  0  0  0  0  0  0  0  0
   -0.6877    2.1132    1.1285 H   0  0  0  0  0  0  0  0  0  0  0  0
   -0.5390    1.9989   -0.6400 H   0  0  0  0  0  0  0  0  0  0  0  0
   -1.8498   -2.3379   -3.0103 H   0  0  0  0  0  0  0  0  0  0  0  0
   -2.7231    1.1090    1.5608 H   0  0  0  0  0  0  0  0  0  0  0  0
   -3.4160    2.0848    0.2618 H   0  0  0  0  0  0  0  0  0  0  0  0
   -4.6617   -0.1616    1.8951 H   0  0  0  0  0  0  0  0  0  0  0  0
   -5.2189    1.4892    1.7402 H   0  0  0  0  0  0  0  0  0  0  0  0
   -6.6535    0.8042    0.1039 H   0  0  0  0  0  0  0  0  0  0  0  0
   -6.0533   -0.8275    0.3080 H   0  0  0  0  0  0  0  0  0  0  0  0
   -5.1243    1.2601   -1.7056 H   0  0  0  0  0  0  0  0  0  0  0  0
   -5.7875   -0.3458   -2.0107 H   0  0  0  0  0  0  0  0  0  0  0  0
    0.5512   -1.5556    1.1107 H   0  0  0  0  0  0  0  0  0  0  0  0
    1.0214   -0.9710   -0.4996 H   0  0  0  0  0  0  0  0  0  0  0  0
  1  2  1  0
  2  3  1  0
  3  4  2  0
  4  5  1  0
  5  6  2  0
  6  7  1  0
  7  8  2  0
  8  9  1  0
  9 10  1  0
 10 11  1  0
 11 12  1  0
 12 13  1  0
 13 14  1  0
 14 15  2  0
 15 16  1  0
 16 17  2  0
 17 18  1  0
 18 19  1  0
 19 20  1  0
 20 21  1  0
 21 22  1  0
 12 23  1  0
  8  3  1  0
 23  9  1  0
 18 13  2  0
 22 17  1  0
  1 24  1  0
  1 25  1  0
  1 26  1  0
  4 27  1  0
  5 28  1  0
  6 29  1  0
  7 30  1  0
  9 31  1  0
 10 32  1  0
 10 33  1  0
 11 34  1  0
 11 35  1  0
 15 36  1  0
 19 37  1  0
 19 38  1  0
 20 39  1  0
 20 40  1  0
 21 41  1  0
 21 42  1  0
 22 43  1  0
 22 44  1  0
 23 45  1  0
 23 46  1  0
M  END
$$$$
OCNT-2314197
     RDKit          3D

 37 40  0  0  0  0  0  0  0  0999 V2000
    4.8966    2.3764   -1.3655 C   0  0  0  0  0  0  0  0  0  0  0  0
    3.5488    2.1149   -1.5698 C   0  0  0  0  0  0  0  0  0  0  0  0
    2.9666    0.9879   -0.9781 C   0  0  0  0  0  0  0  0  0  0  0  0
    3.7409    0.1448   -0.1894 C   0  0  0  0  0  0  0  0  0  0  0  0
    3.2674   -0.9893    0.4521 N   0  0  0  0  0  0  0  0  0  0  0  0
    2.0512   -1.5616    0.7787 C   0  0  0  0  0  0  0  0  0  0  0  0
    0.8282   -0.9047    0.7165 C   0  0  0  0  0  0  0  0  0  0  0  0
   -0.3594   -1.5667    1.0799 C   0  0  0  0  0  0  0  0  0  0  0  0
   -1.6559   -0.8730    1.0284 C   0  0  0  0  0  0  0  0  0  0  0  0
   -2.1036   -0.2710   -0.1615 C   0  0  0  0  0  0  0  0  0  0  0  0
   -3.3319    0.4108   -0.2112 C   0  0  0  0  0  0  0  0  0  0  0  0
   -3.7380    1.0182   -1.4229 N   0  0  0  0  0  0  0  0  0  0  0  0
   -4.8713    1.7388   -1.7031 C   0  0  0  0  0  0  0  0  0  0  0  0
   -4.8373    2.1363   -2.9556 N   0  0  0  0  0  0  0  0  0  0  0  0
   -3.6674    1.6443   -3.4702 N   0  0  0  0  0  0  0  0  0  0  0  0
   -2.9890    0.9724   -2.5507 N   0  0  0  0  0  0  0  0  0  0  0  0
   -4.1299    0.4860    0.9387 C   0  0  0  0  0  0  0  0  0  0  0  0
   -3.6967   -0.1108    2.1238 C   0  0  0  0  0  0  0  0  0  0  0  0
   -2.4731   -0.7821    2.1678 C   0  0  0  0  0  0  0  0  0  0  0  0
   -0.2648   -2.8914    1.5055 C   0  0  0  0  0  0  0  0  0  0  0  0
    0.9852   -3.4760    1.5542 C   0  0  0  0  0  0  0  0  0  0  0  0
    2.1263   -2.8406    1.2099 N   0  0  0  0  0  0  0  0  0  0  0  0
    5.0628    0.3858   -0.0119 N   0  0  0  0  0  0  0  0  0  0  0  0
    5.6076    1.4847   -0.5875 C   0  0  0  0  0  0  0  0  0  0  0  0
    5.3840    3.2444   -1.8076 H   0  0  0  0  0  0  0  0  0  0  0  0
    2.9516    2.7677   -2.1999 H   0  0  0  0  0  0  0  0  0  0  0  0
    1.9275    0.7702   -1.1960 H   0  0  0  0  0  0  0  0  0  0  0  0
    4.0369   -1.5616    0.7807 H   0  0  0  0  0  0  0  0  0  0  0  0
    0.7803    0.1464    0.4536 H   0  0  0  0  0  0  0  0  0  0  0  0
   -1.4794   -0.3459   -1.0543 H   0  0  0  0  0  0  0  0  0  0  0  0
   -5.6576    1.9430   -0.9941 H   0  0  0  0  0  0  0  0  0  0  0  0
   -5.0853    1.0022    0.9545 H   0  0  0  0  0  0  0  0  0  0  0  0
   -4.3091   -0.0487    3.0229 H   0  0  0  0  0  0  0  0  0  0  0  0
   -2.1486   -1.2206    3.1109 H   0  0  0  0  0  0  0  0  0  0  0  0
   -1.1425   -3.4611    1.7954 H   0  0  0  0  0  0  0  0  0  0  0  0
    1.1104   -4.5037    1.8820 H   0  0  0  0  0  0  0  0  0  0  0  0
    6.6686    1.6335   -0.3966 H   0  0  0  0  0  0  0  0  0  0  0  0
  1  2  2  0
  2  3  1  0
  3  4  2  0
  4  5  1  0
  5  6  1  0
  6  7  2  0
  7  8  1  0
  8  9  1  0
  9 10  2  0
 10 11  1  0
 11 12  1  0
 12 13  1  0
 13 14  2  0
 14 15  1  0
 15 16  2  0
 11 17  2  0
 17 18  1  0
 18 19  2  0
  8 20  2  0
 20 21  1  0
 21 22  2  0
  4 23  1  0
 23 24  2  0
 24  1  1  0
 22  6  1  0
 19  9  1  0
 16 12  1  0
  1 25  1  0
  2 26  1  0
  3 27  1  0
  5 28  1  0
  7 29  1  0
 10 30  1  0
 13 31  1  0
 17 32  1  0
 18 33  1  0
 19 34  1  0
 20 35  1  0
 21 36  1  0
 24 37  1  0
M  END
$$$$
OCNT-2314202
     RDKit          3D

 53 56  0  0  0  0  0  0  0  0999 V2000
   -8.9373    0.6751    1.1507 C   0  0  0  0  0  0  0  0  0  0  0  0
   -7.9123    0.2188    0.2762 O   0  0  0  0  0  0  0  0  0  0  0  0
   -6.6219    0.3548    0.7122 C   0  0  0  0  0  0  0  0  0  0  0  0
   -6.2222    0.9068    1.9280 C   0  0  0  0  0  0  0  0  0  0  0  0
   -4.8657    0.9814    2.2452 C   0  0  0  0  0  0  0  0  0  0  0  0
   -3.9081    0.5055    1.3477 C   0  0  0  0  0  0  0  0  0  0  0  0
   -4.2862   -0.0521    0.1182 C   0  0  0  0  0  0  0  0  0  0  0  0
   -3.2464   -0.5401   -0.7969 C   0  0  0  0  0  0  0  0  0  0  0  0
   -1.9451   -0.5342   -0.5627 N   0  0  0  0  0  0  0  0  0  0  0  0
   -1.3345   -1.0847   -1.6834 C   0  0  0  0  0  0  0  0  0  0  0  0
    0.1191   -1.2417   -1.7894 C   0  0  0  0  0  0  0  0  0  0  0  0
    0.6870   -1.6693   -2.7888 O   0  0  0  0  0  0  0  0  0  0  0  0
    0.7690   -0.8353   -0.6446 N   0  0  0  0  0  0  0  0  0  0  0  0
    2.2156   -0.7220   -0.5538 C   0  0  0  0  0  0  0  0  0  0  0  0
    2.7093    0.5614   -1.2171 C   0  0  0  0  0  0  0  0  0  0  0  0
    4.2350    0.6343   -1.1744 C   0  0  0  0  0  0  0  0  0  0  0  0
    4.7591    0.1872    0.1147 N   0  0  0  0  0  0  0  0  0  0  0  0
    6.0680    0.5746    0.3801 C   0  0  0  0  0  0  0  0  0  0  0  0
    6.4952    0.6192    1.6544 N   0  0  0  0  0  0  0  0  0  0  0  0
    7.7754    0.9715    1.8787 C   0  0  0  0  0  0  0  0  0  0  0  0
    8.6607    1.2862    0.8822 C   0  0  0  0  0  0  0  0  0  0  0  0
    8.1476    1.2177   -0.3856 C   0  0  0  0  0  0  0  0  0  0  0  0
    6.8750    0.8712   -0.6554 N   0  0  0  0  0  0  0  0  0  0  0  0
    3.8453    0.1124    1.2418 C   0  0  0  0  0  0  0  0  0  0  0  0
    2.6771   -0.8182    0.9066 C   0  0  0  0  0  0  0  0  0  0  0  0
   -2.2927   -1.4231   -2.6193 C   0  0  0  0  0  0  0  0  0  0  0  0
   -2.1874   -2.0275   -3.9663 C   0  0  0  0  0  0  0  0  0  0  0  0
   -3.4878   -1.0752   -2.0429 N   0  0  0  0  0  0  0  0  0  0  0  0
   -5.6545   -0.1199   -0.1835 C   0  0  0  0  0  0  0  0  0  0  0  0
   -8.9293    0.1179    2.0936 H   0  0  0  0  0  0  0  0  0  0  0  0
   -9.8993    0.4898    0.6630 H   0  0  0  0  0  0  0  0  0  0  0  0
   -8.8548    1.7529    1.3264 H   0  0  0  0  0  0  0  0  0  0  0  0
   -6.9371    1.2866    2.6500 H   0  0  0  0  0  0  0  0  0  0  0  0
   -4.5507    1.4104    3.1932 H   0  0  0  0  0  0  0  0  0  0  0  0
   -2.8541    0.5713    1.6128 H   0  0  0  0  0  0  0  0  0  0  0  0
    0.1673   -0.3874    0.0422 H   0  0  0  0  0  0  0  0  0  0  0  0
    2.6381   -1.5721   -1.1066 H   0  0  0  0  0  0  0  0  0  0  0  0
    2.2794    1.4316   -0.7031 H   0  0  0  0  0  0  0  0  0  0  0  0
    2.3710    0.6264   -2.2581 H   0  0  0  0  0  0  0  0  0  0  0  0
    4.6452   -0.0036   -1.9675 H   0  0  0  0  0  0  0  0  0  0  0  0
    4.5256    1.6703   -1.3933 H   0  0  0  0  0  0  0  0  0  0  0  0
    8.0725    0.9895    2.9228 H   0  0  0  0  0  0  0  0  0  0  0  0
    9.6850    1.5645    1.0807 H   0  0  0  0  0  0  0  0  0  0  0  0
    8.7582    1.4432   -1.2543 H   0  0  0  0  0  0  0  0  0  0  0  0
    4.3196   -0.2821    2.1488 H   0  0  0  0  0  0  0  0  0  0  0  0
    3.4707    1.1154    1.4840 H   0  0  0  0  0  0  0  0  0  0  0  0
    2.9734   -1.8573    1.1030 H   0  0  0  0  0  0  0  0  0  0  0  0
    1.8567   -0.6083    1.6044 H   0  0  0  0  0  0  0  0  0  0  0  0
   -1.6038   -1.3822   -4.6306 H   0  0  0  0  0  0  0  0  0  0  0  0
   -3.1733   -2.1736   -4.4193 H   0  0  0  0  0  0  0  0  0  0  0  0
   -1.6948   -3.0034   -3.9108 H   0  0  0  0  0  0  0  0  0  0  0  0
   -4.3974   -1.1895   -2.4643 H   0  0  0  0  0  0  0  0  0  0  0  0
   -6.0047   -0.5448   -1.1191 H   0  0  0  0  0  0  0  0  0  0  0  0
  1  2  1  0
  2  3  1  0
  3  4  1  0
  4  5  2  0
  5  6  1  0
  6  7  2  0
  7  8  1  0
  8  9  2  0
  9 10  1  0
 10 11  1  0
 11 12  2  0
 11 13  1  0
 13 14  1  0
 14 15  1  0
 15 16  1  0
 16 17  1  0
 17 18  1  0
 18 19  2  0
 19 20  1  0
 20 21  2  0
 21 22  1  0
 22 23  2  0
 17 24  1  0
 24 25  1  0
 10 26  2  0
 26 27  1  0
 26 28  1  0
  7 29  1  0
 29  3  2  0
 28  8  1  0
 25 14  1  0
 23 18  1  0
  1 30  1  0
  1 31  1  0
  1 32  1  0
  4 33  1  0
  5 34  1  0
  6 35  1  0
 13 36  1  0
 14 37  1  0
 15 38  1  0
 15 39  1  0
 16 40  1  0
 16 41  1  0
 20 42  1  0
 21 43  1  0
 22 44  1  0
 24 45  1  0
 24 46  1  0
 25 47  1  0
 25 48  1  0
 27 49  1  0
 27 50  1  0
 27 51  1  0
 28 52  1  0
 29 53  1  0
M  END
$$$$
OCNT-2314207
     RDKit          3D

 39 42  0  0  0  0  0  0  0  0999 V2000
   -2.5362   -2.1305    1.6505 O   0  0  0  0  0  0  0  0  0  0  0  0
   -1.7719   -1.3566    1.0791 C   0  0  0  0  0  0  0  0  0  0  0  0
   -2.3138   -0.0660    0.6246 C   0  0  0  0  0  0  0  0  0  0  0  0
   -2.7271    0.8257    1.6196 C   0  0  0  0  0  0  0  0  0  0  0  0
   -3.2557    2.0415    1.2373 C   0  0  0  0  0  0  0  0  0  0  0  0
   -3.6474    2.9170    2.1710 F   0  0  0  0  0  0  0  0  0  0  0  0
   -3.3849    2.3668   -0.1047 C   0  0  0  0  0  0  0  0  0  0  0  0
   -2.9948    1.4761   -1.0937 C   0  0  0  0  0  0  0  0  0  0  0  0
   -3.1560    1.8461   -2.3783 N   0  0  0  0  0  0  0  0  0  0  0  0
   -2.7786    0.9563   -3.3198 C   0  0  0  0  0  0  0  0  0  0  0  0
   -2.2513   -0.2722   -2.9942 C   0  0  0  0  0  0  0  0  0  0  0  0
   -2.0771   -0.6583   -1.7132 N   0  0  0  0  0  0  0  0  0  0  0  0
   -2.4465    0.2152   -0.7408 C   0  0  0  0  0  0  0  0  0  0  0  0
   -0.4218   -1.5939    0.9219 N   0  0  0  0  0  0  0  0  0  0  0  0
    0.1716   -2.8417    1.3607 C   0  0  0  0  0  0  0  0  0  0  0  0
    1.5775   -2.8159    0.7797 C   0  0  0  0  0  0  0  0  0  0  0  0
    1.9161   -1.3209    0.7715 C   0  0  0  0  0  0  0  0  0  0  0  0
    3.0671   -0.9799   -0.1720 C   0  0  0  0  0  0  0  0  0  0  0  0
    3.4045    0.4792   -0.1206 C   0  0  0  0  0  0  0  0  0  0  0  0
    2.6928    1.4170   -0.7109 N   0  0  0  0  0  0  0  0  0  0  0  0
    3.2591    2.6525   -0.4674 C   0  0  0  0  0  0  0  0  0  0  0  0
    4.3948    2.6428    0.3119 C   0  0  0  0  0  0  0  0  0  0  0  0
    4.7748    1.0332    0.7586 S   0  0  0  0  0  0  0  0  0  0  0  0
    0.5795   -0.6879    0.3727 C   0  0  0  0  0  0  0  0  0  0  0  0
   -2.6396    0.5720    2.6716 H   0  0  0  0  0  0  0  0  0  0  0  0
   -3.8048    3.3296   -0.3809 H   0  0  0  0  0  0  0  0  0  0  0  0
   -2.9157    1.2634   -4.3502 H   0  0  0  0  0  0  0  0  0  0  0  0
   -1.9517   -0.9853   -3.7532 H   0  0  0  0  0  0  0  0  0  0  0  0
   -0.4166   -3.6980    1.0173 H   0  0  0  0  0  0  0  0  0  0  0  0
    0.1909   -2.8393    2.4562 H   0  0  0  0  0  0  0  0  0  0  0  0
    1.5659   -3.2132   -0.2429 H   0  0  0  0  0  0  0  0  0  0  0  0
    2.2828   -3.4094    1.3686 H   0  0  0  0  0  0  0  0  0  0  0  0
    2.1634   -1.0138    1.7976 H   0  0  0  0  0  0  0  0  0  0  0  0
    3.9444   -1.5866    0.0847 H   0  0  0  0  0  0  0  0  0  0  0  0
    2.8044   -1.2418   -1.2048 H   0  0  0  0  0  0  0  0  0  0  0  0
    2.7978    3.5386   -0.8864 H   0  0  0  0  0  0  0  0  0  0  0  0
    5.0006    3.4788    0.6301 H   0  0  0  0  0  0  0  0  0  0  0  0
    0.4514    0.3194    0.7799 H   0  0  0  0  0  0  0  0  0  0  0  0
    0.4520   -0.6598   -0.7141 H   0  0  0  0  0  0  0  0  0  0  0  0
  1  2  2  0
  2  3  1  0
  3  4  1  0
  4  5  2  0
  5  6  1  0
  5  7  1  0
  7  8  2  0
  8  9  1  0
  9 10  2  0
 10 11  1  0
 11 12  2  0
 12 13  1  0
  2 14  1  0
 14 15  1  0
 15 16  1  0
 16 17  1  0
 17 18  1  0
 18 19  1  0
 19 20  2  0
 20 21  1  0
 21 22  2  0
 22 23  1  0
 17 24  1  0
 13  3  2  0
 24 14  1  0
 13  8  1  0
 23 19  1  0
  4 25  1  0
  7 26  1  0
 10 27  1  0
 11 28  1  0
 15 29  1  0
 15 30  1  0
 16 31  1  0
 16 32  1  0
 17 33  1  0
 18 34  1  0
 18 35  1  0
 21 36  1  0
 22 37  1  0
 24 38  1  0
 24 39  1  0
M  END
$$$$
OCNT-2314208
     RDKit          3D

 47 50  0  0  0  0  0  0  0  0999 V2000
    3.8571    2.8710    0.0972 C   0  0  0  0  0  0  0  0  0  0  0  0
    4.3760    1.4638    0.1380 C   0  0  0  0  0  0  0  0  0  0  0  0
    5.7492    1.2148    0.1343 C   0  0  0  0  0  0  0  0  0  0  0  0
    6.2139   -0.0951    0.1607 C   0  0  0  0  0  0  0  0  0  0  0  0
    5.3059   -1.1576    0.1663 C   0  0  0  0  0  0  0  0  0  0  0  0
    3.9188   -0.9465    0.1166 C   0  0  0  0  0  0  0  0  0  0  0  0
    3.0881   -2.0579    0.1768 N   0  0  0  0  0  0  0  0  0  0  0  0
    1.6464   -2.1009   -0.0877 C   0  0  0  0  0  0  0  0  0  0  0  0
    0.8025   -1.4669    1.0211 C   0  0  0  0  0  0  0  0  0  0  0  0
   -0.2511   -0.4834    0.5098 C   0  0  0  0  0  0  0  0  0  0  0  0
   -0.9680   -0.9520   -0.6762 N   0  0  0  0  0  0  0  0  0  0  0  0
   -2.3130   -0.6632   -0.9659 C   0  0  0  0  0  0  0  0  0  0  0  0
   -2.8952   -1.2744   -1.8662 O   0  0  0  0  0  0  0  0  0  0  0  0
   -3.0284    0.3811   -0.1970 C   0  0  0  0  0  0  0  0  0  0  0  0
   -2.4155    1.4215    0.4065 N   0  0  0  0  0  0  0  0  0  0  0  0
   -3.4169    2.1391    0.9364 N   0  0  0  0  0  0  0  0  0  0  0  0
   -4.6631    1.6302    0.7036 C   0  0  0  0  0  0  0  0  0  0  0  0
   -5.9331    2.0807    1.0781 C   0  0  0  0  0  0  0  0  0  0  0  0
   -7.0275    1.3169    0.6587 C   0  0  0  0  0  0  0  0  0  0  0  0
   -6.8450    0.1615   -0.1004 C   0  0  0  0  0  0  0  0  0  0  0  0
   -8.2204   -0.7493   -0.5972 Cl  0  0  0  0  0  0  0  0  0  0  0  0
   -5.5667   -0.2729   -0.4649 C   0  0  0  0  0  0  0  0  0  0  0  0
   -4.4503    0.4809   -0.0491 C   0  0  0  0  0  0  0  0  0  0  0  0
   -0.2349   -1.7399   -1.6606 C   0  0  0  0  0  0  0  0  0  0  0  0
    1.2749   -1.6453   -1.4937 C   0  0  0  0  0  0  0  0  0  0  0  0
    3.4792    0.3797    0.1302 C   0  0  0  0  0  0  0  0  0  0  0  0
    4.5697    3.5657    0.5541 H   0  0  0  0  0  0  0  0  0  0  0  0
    3.6832    3.1753   -0.9394 H   0  0  0  0  0  0  0  0  0  0  0  0
    2.9185    2.9561    0.6551 H   0  0  0  0  0  0  0  0  0  0  0  0
    6.4611    2.0363    0.1244 H   0  0  0  0  0  0  0  0  0  0  0  0
    7.2816   -0.2947    0.1825 H   0  0  0  0  0  0  0  0  0  0  0  0
    5.6995   -2.1705    0.2083 H   0  0  0  0  0  0  0  0  0  0  0  0
    3.5620   -2.8966   -0.1519 H   0  0  0  0  0  0  0  0  0  0  0  0
    1.4025   -3.1732   -0.0513 H   0  0  0  0  0  0  0  0  0  0  0  0
    1.4180   -0.9800    1.7864 H   0  0  0  0  0  0  0  0  0  0  0  0
    0.2770   -2.2769    1.5463 H   0  0  0  0  0  0  0  0  0  0  0  0
   -0.9535   -0.3036    1.3285 H   0  0  0  0  0  0  0  0  0  0  0  0
    0.2109    0.4730    0.2450 H   0  0  0  0  0  0  0  0  0  0  0  0
   -3.1835    2.9826    1.4481 H   0  0  0  0  0  0  0  0  0  0  0  0
   -6.0731    2.9829    1.6650 H   0  0  0  0  0  0  0  0  0  0  0  0
   -8.0320    1.6352    0.9293 H   0  0  0  0  0  0  0  0  0  0  0  0
   -5.4337   -1.1724   -1.0601 H   0  0  0  0  0  0  0  0  0  0  0  0
   -0.5680   -2.7801   -1.5584 H   0  0  0  0  0  0  0  0  0  0  0  0
   -0.5158   -1.4075   -2.6670 H   0  0  0  0  0  0  0  0  0  0  0  0
    1.5984   -0.6170   -1.6864 H   0  0  0  0  0  0  0  0  0  0  0  0
    1.7736   -2.2748   -2.2404 H   0  0  0  0  0  0  0  0  0  0  0  0
    2.4208    0.6046    0.1321 H   0  0  0  0  0  0  0  0  0  0  0  0
  1  2  1  0
  2  3  2  0
  3  4  1  0
  4  5  2  0
  5  6  1  0
  6  7  1  0
  7  8  1  0
  8  9  1  0
  9 10  1  0
 10 11  1  0
 11 12  1  0
 12 13  2  0
 12 14  1  0
 14 15  2  0
 15 16  1  0
 16 17  1  0
 17 18  2  0
 18 19  1  0
 19 20  2  0
 20 21  1  0
 20 22  1  0
 22 23  2  0
 11 24  1  0
 24 25  1  0
  6 26  2  0
 26  2  1  0
 25  8  1  0
 23 14  1  0
 23 17  1  0
  1 27  1  0
  1 28  1  0
  1 29  1  0
  3 30  1  0
  4 31  1  0
  5 32  1  0
  7 33  1  0
  8 34  1  0
  9 35  1  0
  9 36  1  0
 10 37  1  0
 10 38  1  0
 16 39  1  0
 18 40  1  0
 19 41  1  0
 22 42  1  0
 24 43  1  0
 24 44  1  0
 25 45  1  0
 25 46  1  0
 26 47  1  0
M  END
$$$$
OCNT-2314210
     RDKit          3D

 34 36  0  0  0  0  0  0  0  0999 V2000
   -3.0896   -2.8106    0.4044 C   0  0  0  0  0  0  0  0  0  0  0  0
   -2.5945   -1.4236    0.1266 C   0  0  0  0  0  0  0  0  0  0  0  0
   -1.2516   -1.2507    0.1135 N   0  0  0  0  0  0  0  0  0  0  0  0
   -0.7283   -0.0290   -0.1575 C   0  0  0  0  0  0  0  0  0  0  0  0
    0.6558    0.1598   -0.1734 N   0  0  0  0  0  0  0  0  0  0  0  0
    1.4196   -0.8380    0.5614 C   0  0  0  0  0  0  0  0  0  0  0  0
    2.8918   -0.5462    0.4085 C   0  0  0  0  0  0  0  0  0  0  0  0
    3.4890   -0.5182   -0.8620 C   0  0  0  0  0  0  0  0  0  0  0  0
    4.8525   -0.2607   -0.9886 C   0  0  0  0  0  0  0  0  0  0  0  0
    5.3916   -0.2366   -2.2161 F   0  0  0  0  0  0  0  0  0  0  0  0
    5.6397   -0.0332    0.1393 C   0  0  0  0  0  0  0  0  0  0  0  0
    7.3240    0.2854   -0.0145 Cl  0  0  0  0  0  0  0  0  0  0  0  0
    5.0622   -0.0637    1.4062 C   0  0  0  0  0  0  0  0  0  0  0  0
    3.6985   -0.3210    1.5287 C   0  0  0  0  0  0  0  0  0  0  0  0
    3.1606   -0.3476    2.7558 F   0  0  0  0  0  0  0  0  0  0  0  0
   -1.6274    1.0079   -0.4322 C   0  0  0  0  0  0  0  0  0  0  0  0
   -1.5813    2.3759   -0.7726 C   0  0  0  0  0  0  0  0  0  0  0  0
   -2.7952    2.9179   -0.9237 N   0  0  0  0  0  0  0  0  0  0  0  0
   -3.6282    1.8757   -0.6926 N   0  0  0  0  0  0  0  0  0  0  0  0
   -5.0529    2.0748   -0.7787 C   0  0  0  0  0  0  0  0  0  0  0  0
   -2.9768    0.7096   -0.3936 C   0  0  0  0  0  0  0  0  0  0  0  0
   -3.5268   -0.4846   -0.1212 N   0  0  0  0  0  0  0  0  0  0  0  0
   -4.0722   -2.7806    0.8850 H   0  0  0  0  0  0  0  0  0  0  0  0
   -3.1721   -3.3662   -0.5342 H   0  0  0  0  0  0  0  0  0  0  0  0
   -2.3999   -3.3399    1.0690 H   0  0  0  0  0  0  0  0  0  0  0  0
    0.9066    1.1169    0.0476 H   0  0  0  0  0  0  0  0  0  0  0  0
    1.1319   -0.8268    1.6197 H   0  0  0  0  0  0  0  0  0  0  0  0
    1.2395   -1.8491    0.1740 H   0  0  0  0  0  0  0  0  0  0  0  0
    2.8954   -0.6927   -1.7567 H   0  0  0  0  0  0  0  0  0  0  0  0
    5.6556    0.1083    2.2986 H   0  0  0  0  0  0  0  0  0  0  0  0
   -0.7107    3.0019   -0.9174 H   0  0  0  0  0  0  0  0  0  0  0  0
   -5.3378    2.8387   -0.0509 H   0  0  0  0  0  0  0  0  0  0  0  0
   -5.2930    2.4047   -1.7927 H   0  0  0  0  0  0  0  0  0  0  0  0
   -5.5761    1.1415   -0.5594 H   0  0  0  0  0  0  0  0  0  0  0  0
  1  2  1  0
  2  3  2  0
  3  4  1  0
  4  5  1  0
  5  6  1  0
  6  7  1  0
  7  8  2  0
  8  9  1  0
  9 10  1  0
  9 11  2  0
 11 12  1  0
 11 13  1  0
 13 14  2  0
 14 15  1  0
  4 16  2  0
 16 17  1  0
 17 18  2  0
 18 19  1  0
 19 20  1  0
 19 21  1  0
 21 22  2  0
 22  2  1  0
 14  7  1  0
 21 16  1  0
  1 23  1  0
  1 24  1  0
  1 25  1  0
  5 26  1  0
  6 27  1  0
  6 28  1  0
  8 29  1  0
 13 30  1  0
 17 31  1  0
 20 32  1  0
 20 33  1  0
 20 34  1  0
M  END
$$$$
OCNT-2314217
     RDKit          3D

 33 35  0  0  0  0  0  0  0  0999 V2000
    6.5142    0.0060   -0.4295 C   0  0  0  0  0  0  0  0  0  0  0  0
    5.1091   -0.2455   -0.4189 O   0  0  0  0  0  0  0  0  0  0  0  0
    4.3931    0.6746    0.2684 C   0  0  0  0  0  0  0  0  0  0  0  0
    4.8134    1.6847    0.8071 O   0  0  0  0  0  0  0  0  0  0  0  0
    2.9614    0.3405    0.1821 C   0  0  0  0  0  0  0  0  0  0  0  0
    2.1219    1.3109   -0.3828 C   0  0  0  0  0  0  0  0  0  0  0  0
    0.7501    1.0724   -0.4976 C   0  0  0  0  0  0  0  0  0  0  0  0
    0.1999   -0.1274   -0.0304 C   0  0  0  0  0  0  0  0  0  0  0  0
   -1.2317   -0.4138   -0.1441 C   0  0  0  0  0  0  0  0  0  0  0  0
   -1.7205   -1.5367   -0.6390 N   0  0  0  0  0  0  0  0  0  0  0  0
   -3.0777   -1.4091   -0.5924 C   0  0  0  0  0  0  0  0  0  0  0  0
   -3.9598   -2.3339   -1.0295 N   0  0  0  0  0  0  0  0  0  0  0  0
   -5.2541   -1.9844   -0.8801 C   0  0  0  0  0  0  0  0  0  0  0  0
   -5.7136   -0.7930   -0.3301 C   0  0  0  0  0  0  0  0  0  0  0  0
   -4.7959    0.1535    0.1216 C   0  0  0  0  0  0  0  0  0  0  0  0
   -3.4529   -0.1958   -0.0290 C   0  0  0  0  0  0  0  0  0  0  0  0
   -2.2595    0.4104    0.2798 N   0  0  0  0  0  0  0  0  0  0  0  0
   -2.1219    1.6625    0.9852 C   0  0  0  0  0  0  0  0  0  0  0  0
    1.0476   -1.0945    0.5310 C   0  0  0  0  0  0  0  0  0  0  0  0
    2.4228   -0.8614    0.6511 C   0  0  0  0  0  0  0  0  0  0  0  0
    3.4611   -2.1939    1.5178 Br  0  0  0  0  0  0  0  0  0  0  0  0
    7.0001   -0.8066   -0.9766 H   0  0  0  0  0  0  0  0  0  0  0  0
    6.9099    0.0217    0.5910 H   0  0  0  0  0  0  0  0  0  0  0  0
    6.7295    0.9481   -0.9434 H   0  0  0  0  0  0  0  0  0  0  0  0
    2.5391    2.2488   -0.7455 H   0  0  0  0  0  0  0  0  0  0  0  0
    0.1239    1.8224   -0.9753 H   0  0  0  0  0  0  0  0  0  0  0  0
   -5.9626   -2.7299   -1.2343 H   0  0  0  0  0  0  0  0  0  0  0  0
   -6.7803   -0.6065   -0.2539 H   0  0  0  0  0  0  0  0  0  0  0  0
   -5.1135    1.0928    0.5574 H   0  0  0  0  0  0  0  0  0  0  0  0
   -3.0141    1.8435    1.5896 H   0  0  0  0  0  0  0  0  0  0  0  0
   -1.2567    1.6143    1.6508 H   0  0  0  0  0  0  0  0  0  0  0  0
   -2.0020    2.4598    0.2479 H   0  0  0  0  0  0  0  0  0  0  0  0
    0.6193   -2.0345    0.8790 H   0  0  0  0  0  0  0  0  0  0  0  0
  1  2  1  0
  2  3  1  0
  3  4  2  0
  3  5  1  0
  5  6  1  0
  6  7  2  0
  7  8  1  0
  8  9  1  0
  9 10  2  0
 10 11  1  0
 11 12  1  0
 12 13  2  0
 13 14  1  0
 14 15  2  0
 15 16  1  0
 16 17  1  0
 17 18  1  0
  8 19  2  0
 19 20  1  0
 20 21  1  0
 20  5  2  0
 17  9  1  0
 16 11  2  0
  1 22  1  0
  1 23  1  0
  1 24  1  0
  6 25  1  0
  7 26  1  0
 13 27  1  0
 14 28  1  0
 15 29  1  0
 18 30  1  0
 18 31  1  0
 18 32  1  0
 19 33  1  0
M  END
$$$$
OCNT-2314226
     RDKit          3D

 48 50  0  0  0  0  0  0  0  0999 V2000
   -5.5498    1.3923   -0.1714 C   0  0  0  0  0  0  0  0  0  0  0  0
   -4.0085    1.3954   -0.0545 C   0  0  0  0  0  0  0  0  0  0  0  0
   -3.6450    2.2805    1.1572 C   0  0  0  0  0  0  0  0  0  0  0  0
   -3.4556    2.0439   -1.3423 C   0  0  0  0  0  0  0  0  0  0  0  0
   -3.3958   -0.0050    0.1253 C   0  0  0  0  0  0  0  0  0  0  0  0
   -4.1719   -1.1675    0.1815 C   0  0  0  0  0  0  0  0  0  0  0  0
   -3.5751   -2.4190    0.3467 C   0  0  0  0  0  0  0  0  0  0  0  0
   -2.1905   -2.5469    0.4642 C   0  0  0  0  0  0  0  0  0  0  0  0
   -1.7666   -3.8351    0.6075 O   0  0  0  0  0  0  0  0  0  0  0  0
   -1.3721   -1.4154    0.4131 C   0  0  0  0  0  0  0  0  0  0  0  0
    0.0434   -1.3707    0.4871 N   0  0  0  0  0  0  0  0  0  0  0  0
    0.9368   -2.3826    0.7554 C   0  0  0  0  0  0  0  0  0  0  0  0
    0.6589   -3.5323    1.0716 O   0  0  0  0  0  0  0  0  0  0  0  0
    2.3664   -1.9861    0.6772 C   0  0  0  0  0  0  0  0  0  0  0  0
    3.2431   -2.4335    1.6687 C   0  0  0  0  0  0  0  0  0  0  0  0
    4.5844   -2.0576    1.6273 C   0  0  0  0  0  0  0  0  0  0  0  0
    5.0539   -1.2520    0.5878 C   0  0  0  0  0  0  0  0  0  0  0  0
    4.1928   -0.8264   -0.4358 C   0  0  0  0  0  0  0  0  0  0  0  0
    4.7177    0.0327   -1.5606 C   0  0  0  0  0  0  0  0  0  0  0  0
    4.5051    1.4415   -1.2907 N   0  0  0  0  0  0  0  0  0  0  0  0
    3.4635    2.2156   -1.7000 C   0  0  0  0  0  0  0  0  0  0  0  0
    3.6279    3.4414   -1.2597 N   0  0  0  0  0  0  0  0  0  0  0  0
    4.8185    3.3699   -0.5919 C   0  0  0  0  0  0  0  0  0  0  0  0
    5.4007    2.1674   -0.5923 N   0  0  0  0  0  0  0  0  0  0  0  0
    2.8395   -1.1968   -0.3813 C   0  0  0  0  0  0  0  0  0  0  0  0
   -1.9962   -0.1609    0.2418 C   0  0  0  0  0  0  0  0  0  0  0  0
   -6.0219    0.9777    0.7269 H   0  0  0  0  0  0  0  0  0  0  0  0
   -5.9385    2.4099   -0.2985 H   0  0  0  0  0  0  0  0  0  0  0  0
   -5.8878    0.8084   -1.0356 H   0  0  0  0  0  0  0  0  0  0  0  0
   -4.1005    3.2742    1.0717 H   0  0  0  0  0  0  0  0  0  0  0  0
   -2.5641    2.4313    1.2518 H   0  0  0  0  0  0  0  0  0  0  0  0
   -3.9977    1.8315    2.0934 H   0  0  0  0  0  0  0  0  0  0  0  0
   -3.9056    3.0289   -1.5132 H   0  0  0  0  0  0  0  0  0  0  0  0
   -3.6697    1.4225   -2.2200 H   0  0  0  0  0  0  0  0  0  0  0  0
   -2.3709    2.1911   -1.3005 H   0  0  0  0  0  0  0  0  0  0  0  0
   -5.2546   -1.1394    0.0993 H   0  0  0  0  0  0  0  0  0  0  0  0
   -4.1975   -3.3106    0.3849 H   0  0  0  0  0  0  0  0  0  0  0  0
   -0.8118   -3.8319    0.8280 H   0  0  0  0  0  0  0  0  0  0  0  0
    0.4428   -0.4434    0.4088 H   0  0  0  0  0  0  0  0  0  0  0  0
    2.8811   -3.0646    2.4780 H   0  0  0  0  0  0  0  0  0  0  0  0
    5.2658   -2.3900    2.4074 H   0  0  0  0  0  0  0  0  0  0  0  0
    6.1031   -0.9574    0.5816 H   0  0  0  0  0  0  0  0  0  0  0  0
    5.7915   -0.1240   -1.7172 H   0  0  0  0  0  0  0  0  0  0  0  0
    4.2141   -0.2139   -2.5028 H   0  0  0  0  0  0  0  0  0  0  0  0
    2.6379    1.8507   -2.2947 H   0  0  0  0  0  0  0  0  0  0  0  0
    5.2732    4.2178   -0.0951 H   0  0  0  0  0  0  0  0  0  0  0  0
    2.1601   -0.8929   -1.1747 H   0  0  0  0  0  0  0  0  0  0  0  0
   -1.3746    0.7315    0.2008 H   0  0  0  0  0  0  0  0  0  0  0  0
  1  2  1  0
  2  3  1  0
  2  4  1  0
  2  5  1  0
  5  6  1  0
  6  7  2  0
  7  8  1  0
  8  9  1  0
  8 10  2  0
 10 11  1  0
 11 12  1  0
 12 13  2  0
 12 14  1  0
 14 15  1  0
 15 16  2  0
 16 17  1  0
 17 18  2  0
 18 19  1  0
 19 20  1  0
 20 21  1  0
 21 22  2  0
 22 23  1  0
 23 24  2  0
 18 25  1  0
 10 26  1  0
 26  5  2  0
 25 14  2  0
 24 20  1  0
  1 27  1  0
  1 28  1  0
  1 29  1  0
  3 30  1  0
  3 31  1  0
  3 32  1  0
  4 33  1  0
  4 34  1  0
  4 35  1  0
  6 36  1  0
  7 37  1  0
  9 38  1  0
 11 39  1  0
 15 40  1  0
 16 41  1  0
 17 42  1  0
 19 43  1  0
 19 44  1  0
 21 45  1  0
 23 46  1  0
 25 47  1  0
 26 48  1  0
M  END
$$$$
OCNT-2314234
     RDKit          3D

 51 54  0  0  0  0  0  0  0  0999 V2000
   -3.5453   -2.5808    0.8317 C   0  0  0  0  0  0  0  0  0  0  0  0
   -4.0222   -1.2307    0.3355 C   0  0  0  0  0  0  0  0  0  0  0  0
   -5.3141   -1.0499    0.3318 N   0  0  0  0  0  0  0  0  0  0  0  0
   -5.6927    0.1950   -0.0797 C   0  0  0  0  0  0  0  0  0  0  0  0
   -6.9645    0.5575   -0.2872 C   0  0  0  0  0  0  0  0  0  0  0  0
   -6.8825    1.9693   -0.7137 C   0  0  0  0  0  0  0  0  0  0  0  0
   -7.8351    2.7173   -0.8421 O   0  0  0  0  0  0  0  0  0  0  0  0
   -5.5434    2.2874   -0.8822 N   0  0  0  0  0  0  0  0  0  0  0  0
   -4.8246    1.2341   -0.3596 N   0  0  0  0  0  0  0  0  0  0  0  0
   -3.4624    1.0069   -0.4546 C   0  0  0  0  0  0  0  0  0  0  0  0
   -2.6056    2.1611   -0.9047 C   0  0  0  0  0  0  0  0  0  0  0  0
   -2.9745   -0.2179   -0.1301 C   0  0  0  0  0  0  0  0  0  0  0  0
   -1.5393   -0.6539   -0.2484 C   0  0  0  0  0  0  0  0  0  0  0  0
   -0.7670   -0.4620    1.0567 C   0  0  0  0  0  0  0  0  0  0  0  0
   -1.3126   -0.0324    2.0747 O   0  0  0  0  0  0  0  0  0  0  0  0
    0.5874   -0.7887    1.0472 N   0  0  0  0  0  0  0  0  0  0  0  0
    1.2914   -1.4492   -0.0470 C   0  0  0  0  0  0  0  0  0  0  0  0
    2.6496   -0.8024   -0.3235 C   0  0  0  0  0  0  0  0  0  0  0  0
    3.3799   -0.3097    0.9444 C   0  0  0  0  0  0  0  0  0  0  0  0
    4.8988   -0.5243    0.8666 C   0  0  0  0  0  0  0  0  0  0  0  0
    5.5338    0.2722   -0.1683 N   0  0  0  0  0  0  0  0  0  0  0  0
    6.0018    1.5491   -0.0444 C   0  0  0  0  0  0  0  0  0  0  0  0
    6.5234    1.8828   -1.2721 C   0  0  0  0  0  0  0  0  0  0  0  0
    6.3247    0.7388   -2.0662 C   0  0  0  0  0  0  0  0  0  0  0  0
    5.7206   -0.2463   -1.3967 N   0  0  0  0  0  0  0  0  0  0  0  0
    2.7988   -0.9784    2.1949 C   0  0  0  0  0  0  0  0  0  0  0  0
    1.3062   -0.6732    2.3142 C   0  0  0  0  0  0  0  0  0  0  0  0
   -4.3593   -3.1043    1.3429 H   0  0  0  0  0  0  0  0  0  0  0  0
   -2.7226   -2.4665    1.5407 H   0  0  0  0  0  0  0  0  0  0  0  0
   -3.2243   -3.1890   -0.0182 H   0  0  0  0  0  0  0  0  0  0  0  0
   -7.8665   -0.0047   -0.1534 H   0  0  0  0  0  0  0  0  0  0  0  0
   -5.2587    3.2376   -0.6879 H   0  0  0  0  0  0  0  0  0  0  0  0
   -2.8504    3.0630   -0.3325 H   0  0  0  0  0  0  0  0  0  0  0  0
   -2.7755    2.3675   -1.9666 H   0  0  0  0  0  0  0  0  0  0  0  0
   -1.5361    1.9887   -0.7605 H   0  0  0  0  0  0  0  0  0  0  0  0
   -1.0359   -0.0870   -1.0387 H   0  0  0  0  0  0  0  0  0  0  0  0
   -1.4873   -1.7064   -0.5447 H   0  0  0  0  0  0  0  0  0  0  0  0
    0.7061   -1.4593   -0.9687 H   0  0  0  0  0  0  0  0  0  0  0  0
    1.4239   -2.4973    0.2486 H   0  0  0  0  0  0  0  0  0  0  0  0
    3.2572   -1.5243   -0.8819 H   0  0  0  0  0  0  0  0  0  0  0  0
    2.5072    0.0585   -0.9901 H   0  0  0  0  0  0  0  0  0  0  0  0
    3.1936    0.7706    1.0336 H   0  0  0  0  0  0  0  0  0  0  0  0
    5.3750   -0.2417    1.8132 H   0  0  0  0  0  0  0  0  0  0  0  0
    5.1464   -1.5761    0.6800 H   0  0  0  0  0  0  0  0  0  0  0  0
    5.9263    2.0998    0.8826 H   0  0  0  0  0  0  0  0  0  0  0  0
    6.9848    2.8182   -1.5547 H   0  0  0  0  0  0  0  0  0  0  0  0
    6.5951    0.5819   -3.1025 H   0  0  0  0  0  0  0  0  0  0  0  0
    3.3124   -0.6321    3.0996 H   0  0  0  0  0  0  0  0  0  0  0  0
    2.9535   -2.0639    2.1403 H   0  0  0  0  0  0  0  0  0  0  0  0
    0.8423   -1.3530    3.0387 H   0  0  0  0  0  0  0  0  0  0  0  0
    1.1625    0.3481    2.6881 H   0  0  0  0  0  0  0  0  0  0  0  0
  1  2  1  0
  2  3  2  0
  3  4  1  0
  4  5  2  0
  5  6  1  0
  6  7  2  0
  6  8  1  0
  8  9  1  0
  9 10  1  0
 10 11  1  0
 10 12  2  0
 12 13  1  0
 13 14  1  0
 14 15  2  0
 14 16  1  0
 16 17  1  0
 17 18  1  0
 18 19  1  0
 19 20  1  0
 20 21  1  0
 21 22  1  0
 22 23  2  0
 23 24  1  0
 24 25  2  0
 19 26  1  0
 26 27  1  0
 12  2  1  0
 27 16  1  0
  9  4  1  0
 25 21  1  0
  1 28  1  0
  1 29  1  0
  1 30  1  0
  5 31  1  0
  8 32  1  0
 11 33  1  0
 11 34  1  0
 11 35  1  0
 13 36  1  0
 13 37  1  0
 17 38  1  0
 17 39  1  0
 18 40  1  0
 18 41  1  0
 19 42  1  0
 20 43  1  0
 20 44  1  0
 22 45  1  0
 23 46  1  0
 24 47  1  0
 26 48  1  0
 26 49  1  0
 27 50  1  0
 27 51  1  0
M  END
$$$$
OCNT-2314237
     RDKit          3D

 42 45  0  0  0  0  0  0  0  0999 V2000
    6.2437    0.4626   -1.5397 C   0  0  0  0  0  0  0  0  0  0  0  0
    6.5084    1.2084   -0.3955 C   0  0  0  0  0  0  0  0  0  0  0  0
    5.6760    1.1222    0.7250 C   0  0  0  0  0  0  0  0  0  0  0  0
    4.5655    0.2636    0.6642 C   0  0  0  0  0  0  0  0  0  0  0  0
    3.3740   -0.0570    1.8632 S   0  0  0  0  0  0  0  0  0  0  0  0
    2.5782   -1.1422    0.7896 C   0  0  0  0  0  0  0  0  0  0  0  0
    1.3275   -1.8680    1.2332 C   0  0  0  0  0  0  0  0  0  0  0  0
    0.0477   -1.3294    0.7392 N   0  0  0  0  0  0  0  0  0  0  0  0
   -0.2166    0.0484    1.1294 C   0  0  0  0  0  0  0  0  0  0  0  0
   -1.7000    0.3869    0.9255 C   0  0  0  0  0  0  0  0  0  0  0  0
   -2.3258   -0.3001   -0.3072 C   0  0  0  0  0  0  0  0  0  0  0  0
   -3.4179    0.5603   -0.9637 C   0  0  0  0  0  0  0  0  0  0  0  0
   -4.6126    0.7574   -0.0948 C   0  0  0  0  0  0  0  0  0  0  0  0
   -4.9798    1.8624    0.6438 C   0  0  0  0  0  0  0  0  0  0  0  0
   -6.1534    1.5143    1.2523 N   0  0  0  0  0  0  0  0  0  0  0  0
   -6.4550    0.2404    0.8664 C   0  0  0  0  0  0  0  0  0  0  0  0
   -5.5465   -0.2422    0.0514 N   0  0  0  0  0  0  0  0  0  0  0  0
   -1.2286   -0.6534   -1.3165 C   0  0  0  0  0  0  0  0  0  0  0  0
   -0.1639   -1.5690   -0.6930 C   0  0  0  0  0  0  0  0  0  0  0  0
    3.1548   -1.2947   -0.3855 N   0  0  0  0  0  0  0  0  0  0  0  0
    4.2803   -0.4936   -0.4727 C   0  0  0  0  0  0  0  0  0  0  0  0
    5.1355   -0.3895   -1.5885 C   0  0  0  0  0  0  0  0  0  0  0  0
    6.9004    0.5394   -2.4031 H   0  0  0  0  0  0  0  0  0  0  0  0
    7.3742    1.8670   -0.3700 H   0  0  0  0  0  0  0  0  0  0  0  0
    5.8842    1.7037    1.6178 H   0  0  0  0  0  0  0  0  0  0  0  0
    1.4147   -2.9180    0.9237 H   0  0  0  0  0  0  0  0  0  0  0  0
    1.2866   -1.9034    2.3298 H   0  0  0  0  0  0  0  0  0  0  0  0
    0.4036    0.7469    0.5530 H   0  0  0  0  0  0  0  0  0  0  0  0
    0.0202    0.2098    2.1882 H   0  0  0  0  0  0  0  0  0  0  0  0
   -1.7905    1.4778    0.8542 H   0  0  0  0  0  0  0  0  0  0  0  0
   -2.2687    0.0863    1.8152 H   0  0  0  0  0  0  0  0  0  0  0  0
   -2.7833   -1.2424    0.0280 H   0  0  0  0  0  0  0  0  0  0  0  0
   -3.7520    0.0792   -1.8921 H   0  0  0  0  0  0  0  0  0  0  0  0
   -3.0060    1.5350   -1.2545 H   0  0  0  0  0  0  0  0  0  0  0  0
   -4.5203    2.8300    0.7848 H   0  0  0  0  0  0  0  0  0  0  0  0
   -6.7034    2.0900    1.8743 H   0  0  0  0  0  0  0  0  0  0  0  0
   -7.3408   -0.2784    1.2074 H   0  0  0  0  0  0  0  0  0  0  0  0
   -0.7516    0.2691   -1.6737 H   0  0  0  0  0  0  0  0  0  0  0  0
   -1.6578   -1.1482   -2.1959 H   0  0  0  0  0  0  0  0  0  0  0  0
    0.7525   -1.4450   -1.2796 H   0  0  0  0  0  0  0  0  0  0  0  0
   -0.4784   -2.6124   -0.8170 H   0  0  0  0  0  0  0  0  0  0  0  0
    4.9246   -0.9742   -2.4783 H   0  0  0  0  0  0  0  0  0  0  0  0
  1  2  2  0
  2  3  1  0
  3  4  2  0
  4  5  1  0
  5  6  1  0
  6  7  1  0
  7  8  1  0
  8  9  1  0
  9 10  1  0
 10 11  1  0
 11 12  1  0
 12 13  1  0
 13 14  2  0
 14 15  1  0
 15 16  1  0
 16 17  2  0
 11 18  1  0
 18 19  1  0
  6 20  2  0
 20 21  1  0
 21 22  2  0
 22  1  1  0
 21  4  1  0
 19  8  1  0
 17 13  1  0
  1 23  1  0
  2 24  1  0
  3 25  1  0
  7 26  1  0
  7 27  1  0
  9 28  1  0
  9 29  1  0
 10 30  1  0
 10 31  1  0
 11 32  1  0
 12 33  1  0
 12 34  1  0
 14 35  1  0
 15 36  1  0
 16 37  1  0
 18 38  1  0
 18 39  1  0
 19 40  1  0
 19 41  1  0
 22 42  1  0
M  END
$$$$
OCNT-2314247
     RDKit          3D

 43 46  0  0  0  0  0  0  0  0999 V2000
    4.4960   -0.2104   -2.5230 O   0  0  0  0  0  0  0  0  0  0  0  0
    3.3515    0.0128   -2.1569 C   0  0  0  0  0  0  0  0  0  0  0  0
    2.5374    1.2383   -2.5207 C   0  0  0  0  0  0  0  0  0  0  0  0
    1.2823    1.0055   -1.8269 N   0  0  0  0  0  0  0  0  0  0  0  0
    0.2560    1.9303   -1.9160 C   0  0  0  0  0  0  0  0  0  0  0  0
    0.3850    2.9436   -2.6079 O   0  0  0  0  0  0  0  0  0  0  0  0
   -1.0400    1.7271   -1.1757 C   0  0  0  0  0  0  0  0  0  0  0  0
   -2.0519    2.6667   -1.3346 C   0  0  0  0  0  0  0  0  0  0  0  0
   -3.2478    2.4835   -0.6479 C   0  0  0  0  0  0  0  0  0  0  0  0
   -3.4058    1.3751    0.1872 C   0  0  0  0  0  0  0  0  0  0  0  0
   -4.7142    1.1516    0.8980 C   0  0  0  0  0  0  0  0  0  0  0  0
   -4.6208    0.1254    2.0262 C   0  0  0  0  0  0  0  0  0  0  0  0
   -3.8567   -1.1094    1.5640 C   0  0  0  0  0  0  0  0  0  0  0  0
   -2.4261   -0.7344    1.1859 C   0  0  0  0  0  0  0  0  0  0  0  0
   -2.3456    0.4693    0.2818 C   0  0  0  0  0  0  0  0  0  0  0  0
   -1.1713    0.6374   -0.3770 N   0  0  0  0  0  0  0  0  0  0  0  0
    1.3074   -0.2136   -1.0647 C   0  0  0  0  0  0  0  0  0  0  0  0
    2.5780   -0.7986   -1.3506 N   0  0  0  0  0  0  0  0  0  0  0  0
    3.0252   -2.0310   -0.7435 C   0  0  0  0  0  0  0  0  0  0  0  0
    3.3963   -1.8080    0.6911 C   0  0  0  0  0  0  0  0  0  0  0  0
    4.5232   -2.5902    1.3177 C   0  0  0  0  0  0  0  0  0  0  0  0
    4.6893   -1.1199    1.0501 C   0  0  0  0  0  0  0  0  0  0  0  0
    3.0088    2.1477   -2.1401 H   0  0  0  0  0  0  0  0  0  0  0  0
    2.3636    1.2895   -3.5982 H   0  0  0  0  0  0  0  0  0  0  0  0
   -1.9171    3.5274   -1.9828 H   0  0  0  0  0  0  0  0  0  0  0  0
   -4.0513    3.2065   -0.7684 H   0  0  0  0  0  0  0  0  0  0  0  0
   -5.4477    0.8074    0.1580 H   0  0  0  0  0  0  0  0  0  0  0  0
   -5.0813    2.0984    1.3116 H   0  0  0  0  0  0  0  0  0  0  0  0
   -4.1112    0.5685    2.8914 H   0  0  0  0  0  0  0  0  0  0  0  0
   -5.6282   -0.1531    2.3554 H   0  0  0  0  0  0  0  0  0  0  0  0
   -3.8421   -1.8644    2.3579 H   0  0  0  0  0  0  0  0  0  0  0  0
   -4.3673   -1.5570    0.7020 H   0  0  0  0  0  0  0  0  0  0  0  0
   -1.8557   -0.5087    2.0954 H   0  0  0  0  0  0  0  0  0  0  0  0
   -1.9429   -1.5907    0.7011 H   0  0  0  0  0  0  0  0  0  0  0  0
    0.5157   -0.8927   -1.3930 H   0  0  0  0  0  0  0  0  0  0  0  0
    1.2364    0.0115    0.0031 H   0  0  0  0  0  0  0  0  0  0  0  0
    2.2172   -2.7666   -0.8179 H   0  0  0  0  0  0  0  0  0  0  0  0
    3.8807   -2.4139   -1.3114 H   0  0  0  0  0  0  0  0  0  0  0  0
    2.5303   -1.6103    1.3125 H   0  0  0  0  0  0  0  0  0  0  0  0
    4.4118   -2.9072    2.3484 H   0  0  0  0  0  0  0  0  0  0  0  0
    5.0904   -3.2794    0.7019 H   0  0  0  0  0  0  0  0  0  0  0  0
    4.6858   -0.4422    1.8959 H   0  0  0  0  0  0  0  0  0  0  0  0
    5.3571   -0.8217    0.2481 H   0  0  0  0  0  0  0  0  0  0  0  0
  1  2  2  0
  2  3  1  0
  3  4  1  0
  4  5  1  0
  5  6  2  0
  5  7  1  0
  7  8  1  0
  8  9  2  0
  9 10  1  0
 10 11  1  0
 11 12  1  0
 12 13  1  0
 13 14  1  0
 14 15  1  0
 15 16  1  0
  4 17  1  0
 17 18  1  0
 18 19  1  0
 19 20  1  0
 20 21  1  0
 21 22  1  0
 18  2  1  0
 22 20  1  0
 16  7  2  0
 15 10  2  0
  3 23  1  0
  3 24  1  0
  8 25  1  0
  9 26  1  0
 11 27  1  0
 11 28  1  0
 12 29  1  0
 12 30  1  0
 13 31  1  0
 13 32  1  0
 14 33  1  0
 14 34  1  0
 17 35  1  0
 17 36  1  0
 19 37  1  0
 19 38  1  0
 20 39  1  0
 21 40  1  0
 21 41  1  0
 22 42  1  0
 22 43  1  0
M  END
$$$$
OCNT-2314248
     RDKit          3D

 36 38  0  0  0  0  0  0  0  0999 V2000
   -0.5941   -0.1273    1.6332 O   0  0  0  0  0  0  0  0  0  0  0  0
    0.1084   -0.5045    0.7017 C   0  0  0  0  0  0  0  0  0  0  0  0
   -0.3753   -0.9732   -0.5027 N   0  0  0  0  0  0  0  0  0  0  0  0
   -1.6914   -0.9813   -1.0272 C   0  0  0  0  0  0  0  0  0  0  0  0
   -1.8493   -1.7655   -2.1904 C   0  0  0  0  0  0  0  0  0  0  0  0
   -3.0743   -1.8539   -2.8544 C   0  0  0  0  0  0  0  0  0  0  0  0
   -4.1672   -1.1469   -2.3756 C   0  0  0  0  0  0  0  0  0  0  0  0
   -4.0288   -0.3566   -1.2351 C   0  0  0  0  0  0  0  0  0  0  0  0
   -2.8112   -0.2703   -0.5366 C   0  0  0  0  0  0  0  0  0  0  0  0
   -2.7915    0.6346    0.5453 N   0  0  0  0  0  0  0  0  0  0  0  0
   -2.3712    2.0026    0.1312 C   0  0  0  0  0  0  0  0  0  0  0  0
   -2.8956    3.1094    1.0583 C   0  0  0  0  0  0  0  0  0  0  0  0
   -2.6178    2.8679    2.3631 F   0  0  0  0  0  0  0  0  0  0  0  0
   -4.2348    3.2732    0.9406 F   0  0  0  0  0  0  0  0  0  0  0  0
   -2.3148    4.2965    0.7475 F   0  0  0  0  0  0  0  0  0  0  0  0
    1.5912   -0.5001    0.7865 C   0  0  0  0  0  0  0  0  0  0  0  0
    2.2278   -0.4262    1.9696 N   0  0  0  0  0  0  0  0  0  0  0  0
    3.5466   -0.4154    1.6758 N   0  0  0  0  0  0  0  0  0  0  0  0
    4.6216   -0.3503    2.5589 C   0  0  0  0  0  0  0  0  0  0  0  0
    5.8775   -0.3429    2.0925 C   0  0  0  0  0  0  0  0  0  0  0  0
    6.0060   -0.4169    0.6067 C   0  0  0  0  0  0  0  0  0  0  0  0
    5.0240   -0.4794   -0.2424 N   0  0  0  0  0  0  0  0  0  0  0  0
    3.7691   -0.4797    0.2992 C   0  0  0  0  0  0  0  0  0  0  0  0
    2.5249   -0.5291   -0.2813 C   0  0  0  0  0  0  0  0  0  0  0  0
    0.3077   -1.4183   -1.1042 H   0  0  0  0  0  0  0  0  0  0  0  0
   -1.0180   -2.3395   -2.5913 H   0  0  0  0  0  0  0  0  0  0  0  0
   -3.1762   -2.4850   -3.7342 H   0  0  0  0  0  0  0  0  0  0  0  0
   -5.1297   -1.2103   -2.8777 H   0  0  0  0  0  0  0  0  0  0  0  0
   -4.8889    0.1959   -0.8622 H   0  0  0  0  0  0  0  0  0  0  0  0
   -2.1197    0.2958    1.2593 H   0  0  0  0  0  0  0  0  0  0  0  0
   -2.6960    2.2281   -0.8953 H   0  0  0  0  0  0  0  0  0  0  0  0
   -1.2695    2.0436    0.1371 H   0  0  0  0  0  0  0  0  0  0  0  0
    4.3692   -0.3047    3.6118 H   0  0  0  0  0  0  0  0  0  0  0  0
    6.7622   -0.2949    2.7093 H   0  0  0  0  0  0  0  0  0  0  0  0
    7.0402   -0.4190    0.2251 H   0  0  0  0  0  0  0  0  0  0  0  0
    2.3389   -0.5563   -1.3428 H   0  0  0  0  0  0  0  0  0  0  0  0
  1  2  2  0
  2  3  1  0
  3  4  1  0
  4  5  2  0
  5  6  1  0
  6  7  2  0
  7  8  1  0
  8  9  2  0
  9 10  1  0
 10 11  1  0
 11 12  1  0
 12 13  1  0
 12 14  1  0
 12 15  1  0
  2 16  1  0
 16 17  2  0
 17 18  1  0
 18 19  1  0
 19 20  2  0
 20 21  1  0
 21 22  2  0
 22 23  1  0
 23 24  2  0
  9  4  1  0
 24 16  1  0
 23 18  1  0
  3 25  1  0
  5 26  1  0
  6 27  1  0
  7 28  1  0
  8 29  1  0
 10 30  1  0
 11 31  1  0
 11 32  1  0
 19 33  1  0
 20 34  1  0
 21 35  1  0
 24 36  1  0
M  END
$$$$
OCNT-2314254
     RDKit          3D

 42 45  0  0  0  0  0  0  0  0999 V2000
   -1.7287   -2.0554    2.2644 O   0  0  0  0  0  0  0  0  0  0  0  0
   -1.6162   -1.1299    1.4656 C   0  0  0  0  0  0  0  0  0  0  0  0
   -0.4220   -0.4966    1.2343 N   0  0  0  0  0  0  0  0  0  0  0  0
    0.8197   -0.9796    1.8039 C   0  0  0  0  0  0  0  0  0  0  0  0
    1.9718    0.0068    1.5463 C   0  0  0  0  0  0  0  0  0  0  0  0
    2.0544    0.4620    0.1381 N   0  0  0  0  0  0  0  0  0  0  0  0
    2.3825   -0.6262   -0.8177 C   0  0  0  0  0  0  0  0  0  0  0  0
    3.7750   -1.2728   -0.6362 C   0  0  0  0  0  0  0  0  0  0  0  0
    4.7788   -0.2092   -0.3288 C   0  0  0  0  0  0  0  0  0  0  0  0
    4.4432    1.0925   -0.0092 C   0  0  0  0  0  0  0  0  0  0  0  0
    5.6119    1.8657    0.2704 C   0  0  0  0  0  0  0  0  0  0  0  0
    6.7679    1.1224    0.1557 C   0  0  0  0  0  0  0  0  0  0  0  0
    6.4500   -0.5008   -0.2879 S   0  0  0  0  0  0  0  0  0  0  0  0
    3.0209    1.5800   -0.0027 C   0  0  0  0  0  0  0  0  0  0  0  0
   -2.7336   -0.6440    0.6883 C   0  0  0  0  0  0  0  0  0  0  0  0
   -2.8606    0.3904   -0.2241 C   0  0  0  0  0  0  0  0  0  0  0  0
   -4.2048    0.4162   -0.6916 C   0  0  0  0  0  0  0  0  0  0  0  0
   -4.9088    1.2225   -1.6064 C   0  0  0  0  0  0  0  0  0  0  0  0
   -6.2654    0.9678   -1.8398 C   0  0  0  0  0  0  0  0  0  0  0  0
   -6.9181   -0.0697   -1.1770 C   0  0  0  0  0  0  0  0  0  0  0  0
   -6.2390   -0.8820   -0.2637 C   0  0  0  0  0  0  0  0  0  0  0  0
   -4.8834   -0.6128   -0.0436 C   0  0  0  0  0  0  0  0  0  0  0  0
   -3.9776   -1.2306    0.7837 N   0  0  0  0  0  0  0  0  0  0  0  0
   -0.3300    0.1118    0.4311 H   0  0  0  0  0  0  0  0  0  0  0  0
    0.6796   -1.1256    2.8808 H   0  0  0  0  0  0  0  0  0  0  0  0
    1.0317   -1.9606    1.3648 H   0  0  0  0  0  0  0  0  0  0  0  0
    2.9105   -0.4318    1.9029 H   0  0  0  0  0  0  0  0  0  0  0  0
    1.7770    0.8862    2.1747 H   0  0  0  0  0  0  0  0  0  0  0  0
    1.6127   -1.4058   -0.7974 H   0  0  0  0  0  0  0  0  0  0  0  0
    2.3227   -0.2040   -1.8308 H   0  0  0  0  0  0  0  0  0  0  0  0
    4.0467   -1.8172   -1.5475 H   0  0  0  0  0  0  0  0  0  0  0  0
    3.7439   -1.9927    0.1902 H   0  0  0  0  0  0  0  0  0  0  0  0
    5.6082    2.9152    0.5392 H   0  0  0  0  0  0  0  0  0  0  0  0
    7.7861    1.4522    0.3098 H   0  0  0  0  0  0  0  0  0  0  0  0
    2.8690    2.3278    0.7848 H   0  0  0  0  0  0  0  0  0  0  0  0
    2.8246    2.0914   -0.9537 H   0  0  0  0  0  0  0  0  0  0  0  0
   -2.0781    1.0707   -0.5319 H   0  0  0  0  0  0  0  0  0  0  0  0
   -4.4081    2.0335   -2.1265 H   0  0  0  0  0  0  0  0  0  0  0  0
   -6.8138    1.5873   -2.5451 H   0  0  0  0  0  0  0  0  0  0  0  0
   -7.9728   -0.2513   -1.3714 H   0  0  0  0  0  0  0  0  0  0  0  0
   -6.7498   -1.6884    0.2523 H   0  0  0  0  0  0  0  0  0  0  0  0
   -4.1778   -2.0152    1.3901 H   0  0  0  0  0  0  0  0  0  0  0  0
  1  2  2  0
  2  3  1  0
  3  4  1  0
  4  5  1  0
  5  6  1  0
  6  7  1  0
  7  8  1  0
  8  9  1  0
  9 10  2  0
 10 11  1  0
 11 12  2  0
 12 13  1  0
 10 14  1  0
  2 15  1  0
 15 16  2  0
 16 17  1  0
 17 18  2  0
 18 19  1  0
 19 20  2  0
 20 21  1  0
 21 22  2  0
 22 23  1  0
 14  6  1  0
 23 15  1  0
 13  9  1  0
 22 17  1  0
  3 24  1  0
  4 25  1  0
  4 26  1  0
  5 27  1  0
  5 28  1  0
  7 29  1  0
  7 30  1  0
  8 31  1  0
  8 32  1  0
 11 33  1  0
 12 34  1  0
 14 35  1  0
 14 36  1  0
 16 37  1  0
 18 38  1  0
 19 39  1  0
 20 40  1  0
 21 41  1  0
 23 42  1  0
M  END
$$$$
OCNT-2314257
     RDKit          3D

 37 39  0  0  0  0  0  0  0  0999 V2000
    6.4985    1.4020    1.5878 C   0  0  0  0  0  0  0  0  0  0  0  0
    5.4711    0.5733    0.9190 C   0  0  0  0  0  0  0  0  0  0  0  0
    5.4647    0.4511   -0.4133 N   0  0  0  0  0  0  0  0  0  0  0  0
    4.4006   -0.3816   -0.7108 O   0  0  0  0  0  0  0  0  0  0  0  0
    3.7767   -0.7483    0.4408 C   0  0  0  0  0  0  0  0  0  0  0  0
    2.6066   -1.6383    0.3059 C   0  0  0  0  0  0  0  0  0  0  0  0
    1.4431   -0.8420   -0.0093 N   0  0  0  0  0  0  0  0  0  0  0  0
    0.2456   -1.4697   -0.2211 C   0  0  0  0  0  0  0  0  0  0  0  0
    0.0978   -2.6830   -0.2303 O   0  0  0  0  0  0  0  0  0  0  0  0
   -0.7614   -0.5619   -0.4114 N   0  0  0  0  0  0  0  0  0  0  0  0
   -2.0910   -1.0252   -0.7503 C   0  0  0  0  0  0  0  0  0  0  0  0
   -2.8519   -1.5881    0.4655 C   0  0  0  0  0  0  0  0  0  0  0  0
   -3.5621   -0.3968    1.1266 C   0  0  0  0  0  0  0  0  0  0  0  0
   -3.8105    0.4957   -0.0516 C   0  0  0  0  0  0  0  0  0  0  0  0
   -4.6692    1.5766   -0.1693 C   0  0  0  0  0  0  0  0  0  0  0  0
   -5.7803    2.1210    1.2576 Br  0  0  0  0  0  0  0  0  0  0  0  0
   -4.7047    2.2824   -1.3753 C   0  0  0  0  0  0  0  0  0  0  0  0
   -3.8764    1.9082   -2.4451 C   0  0  0  0  0  0  0  0  0  0  0  0
   -2.9994    0.8298   -2.3198 C   0  0  0  0  0  0  0  0  0  0  0  0
   -2.9754    0.1336   -1.1197 C   0  0  0  0  0  0  0  0  0  0  0  0
    4.4219   -0.1684    1.5066 C   0  0  0  0  0  0  0  0  0  0  0  0
    6.7498    2.2813    0.9845 H   0  0  0  0  0  0  0  0  0  0  0  0
    6.1436    1.7537    2.5615 H   0  0  0  0  0  0  0  0  0  0  0  0
    7.4123    0.8203    1.7473 H   0  0  0  0  0  0  0  0  0  0  0  0
    2.4142   -2.1759    1.2408 H   0  0  0  0  0  0  0  0  0  0  0  0
    2.7570   -2.3806   -0.4855 H   0  0  0  0  0  0  0  0  0  0  0  0
    1.3742    0.0675    0.4227 H   0  0  0  0  0  0  0  0  0  0  0  0
   -0.4646    0.2972   -0.8516 H   0  0  0  0  0  0  0  0  0  0  0  0
   -2.0327   -1.7667   -1.5548 H   0  0  0  0  0  0  0  0  0  0  0  0
   -3.6157   -2.2940    0.1082 H   0  0  0  0  0  0  0  0  0  0  0  0
   -2.2202   -2.1306    1.1758 H   0  0  0  0  0  0  0  0  0  0  0  0
   -4.4840   -0.7210    1.6170 H   0  0  0  0  0  0  0  0  0  0  0  0
   -2.9074    0.1030    1.8479 H   0  0  0  0  0  0  0  0  0  0  0  0
   -5.3735    3.1313   -1.4962 H   0  0  0  0  0  0  0  0  0  0  0  0
   -3.9175    2.4664   -3.3775 H   0  0  0  0  0  0  0  0  0  0  0  0
   -2.3548    0.5446   -3.1456 H   0  0  0  0  0  0  0  0  0  0  0  0
    4.1751   -0.2669    2.5527 H   0  0  0  0  0  0  0  0  0  0  0  0
  1  2  1  0
  2  3  2  0
  3  4  1  0
  4  5  1  0
  5  6  1  0
  6  7  1  0
  7  8  1  0
  8  9  2  0
  8 10  1  0
 10 11  1  0
 11 12  1  0
 12 13  1  0
 13 14  1  0
 14 15  2  0
 15 16  1  0
 15 17  1  0
 17 18  2  0
 18 19  1  0
 19 20  2  0
  5 21  2  0
 21  2  1  0
 20 11  1  0
 20 14  1  0
  1 22  1  0
  1 23  1  0
  1 24  1  0
  6 25  1  0
  6 26  1  0
  7 27  1  0
 10 28  1  0
 11 29  1  0
 12 30  1  0
 12 31  1  0
 13 32  1  0
 13 33  1  0
 17 34  1  0
 18 35  1  0
 19 36  1  0
 21 37  1  0
M  END
$$$$
OCNT-2314259
     RDKit          3D

 42 44  0  0  0  0  0  0  0  0999 V2000
   -5.1020    1.2927    1.8777 C   0  0  0  0  0  0  0  0  0  0  0  0
   -3.8976    0.5856    1.4738 N   0  0  0  0  0  0  0  0  0  0  0  0
   -3.7453    0.4820    0.0141 C   0  0  0  0  0  0  0  0  0  0  0  0
   -3.4313    1.8291   -0.6950 C   0  0  0  0  0  0  0  0  0  0  0  0
   -3.4532    1.7009   -2.1185 O   0  0  0  0  0  0  0  0  0  0  0  0
   -2.6696   -0.5587   -0.2987 C   0  0  0  0  0  0  0  0  0  0  0  0
   -3.0258   -1.7680   -0.9126 C   0  0  0  0  0  0  0  0  0  0  0  0
   -2.0569   -2.7242   -1.2135 C   0  0  0  0  0  0  0  0  0  0  0  0
   -0.7180   -2.4873   -0.8999 C   0  0  0  0  0  0  0  0  0  0  0  0
   -0.3240   -1.2941   -0.2769 C   0  0  0  0  0  0  0  0  0  0  0  0
    1.0863   -1.0460    0.0617 C   0  0  0  0  0  0  0  0  0  0  0  0
    1.8011   -1.9397    0.8738 C   0  0  0  0  0  0  0  0  0  0  0  0
    3.1378   -1.7018    1.2065 C   0  0  0  0  0  0  0  0  0  0  0  0
    3.7928   -0.5593    0.7342 C   0  0  0  0  0  0  0  0  0  0  0  0
    5.2465   -0.3239    1.0723 C   0  0  0  0  0  0  0  0  0  0  0  0
    5.6867    1.0113    0.7958 O   0  0  0  0  0  0  0  0  0  0  0  0
    5.3075    1.4194   -0.5194 C   0  0  0  0  0  0  0  0  0  0  0  0
    3.7919    1.5782   -0.5908 C   0  0  0  0  0  0  0  0  0  0  0  0
    3.0994    0.3339   -0.0978 C   0  0  0  0  0  0  0  0  0  0  0  0
    1.7541    0.0940   -0.4149 C   0  0  0  0  0  0  0  0  0  0  0  0
   -1.3153   -0.3417    0.0194 C   0  0  0  0  0  0  0  0  0  0  0  0
   -5.0697    2.3514    1.6055 H   0  0  0  0  0  0  0  0  0  0  0  0
   -5.9980    0.8365    1.4447 H   0  0  0  0  0  0  0  0  0  0  0  0
   -5.2032    1.2374    2.9662 H   0  0  0  0  0  0  0  0  0  0  0  0
   -3.0778    1.0314    1.8802 H   0  0  0  0  0  0  0  0  0  0  0  0
   -4.6860    0.1046   -0.4099 H   0  0  0  0  0  0  0  0  0  0  0  0
   -2.4582    2.2372   -0.4024 H   0  0  0  0  0  0  0  0  0  0  0  0
   -4.1872    2.5798   -0.4466 H   0  0  0  0  0  0  0  0  0  0  0  0
   -2.8017    1.0159   -2.3557 H   0  0  0  0  0  0  0  0  0  0  0  0
   -4.0656   -1.9758   -1.1571 H   0  0  0  0  0  0  0  0  0  0  0  0
   -2.3451   -3.6575   -1.6905 H   0  0  0  0  0  0  0  0  0  0  0  0
    0.0233   -3.2438   -1.1496 H   0  0  0  0  0  0  0  0  0  0  0  0
    1.3110   -2.8280    1.2683 H   0  0  0  0  0  0  0  0  0  0  0  0
    3.6612   -2.4129    1.8419 H   0  0  0  0  0  0  0  0  0  0  0  0
    5.4128   -0.4990    2.1404 H   0  0  0  0  0  0  0  0  0  0  0  0
    5.8744   -1.0228    0.5072 H   0  0  0  0  0  0  0  0  0  0  0  0
    5.6783    0.6935   -1.2539 H   0  0  0  0  0  0  0  0  0  0  0  0
    5.7916    2.3788   -0.7284 H   0  0  0  0  0  0  0  0  0  0  0  0
    3.4793    2.4098    0.0523 H   0  0  0  0  0  0  0  0  0  0  0  0
    3.4955    1.8038   -1.6210 H   0  0  0  0  0  0  0  0  0  0  0  0
    1.2234    0.8007   -1.0506 H   0  0  0  0  0  0  0  0  0  0  0  0
   -1.0233    0.5766    0.5257 H   0  0  0  0  0  0  0  0  0  0  0  0
  1  2  1  0
  2  3  1  0
  3  4  1  0
  4  5  1  0
  3  6  1  0
  6  7  2  0
  7  8  1  0
  8  9  2  0
  9 10  1  0
 10 11  1  0
 11 12  1  0
 12 13  2  0
 13 14  1  0
 14 15  1  0
 15 16  1  0
 16 17  1  0
 17 18  1  0
 18 19  1  0
 19 20  1  0
 10 21  2  0
 21  6  1  0
 20 11  2  0
 19 14  2  0
  1 22  1  0
  1 23  1  0
  1 24  1  0
  2 25  1  0
  3 26  1  0
  4 27  1  0
  4 28  1  0
  5 29  1  0
  7 30  1  0
  8 31  1  0
  9 32  1  0
 12 33  1  0
 13 34  1  0
 15 35  1  0
 15 36  1  0
 17 37  1  0
 17 38  1  0
 18 39  1  0
 18 40  1  0
 20 41  1  0
 21 42  1  0
M  END
$$$$
OCNT-2314263
     RDKit          3D

 33 35  0  0  0  0  0  0  0  0999 V2000
    6.9415   -2.2112   -0.1511 Cl  0  0  0  0  0  0  0  0  0  0  0  0
    5.4921   -1.3006    0.0210 C   0  0  0  0  0  0  0  0  0  0  0  0
    4.8833   -0.7530   -1.1037 C   0  0  0  0  0  0  0  0  0  0  0  0
    3.7079   -0.0137   -0.9615 C   0  0  0  0  0  0  0  0  0  0  0  0
    3.1306    0.1931    0.3068 C   0  0  0  0  0  0  0  0  0  0  0  0
    1.8505    0.9949    0.3905 C   0  0  0  0  0  0  0  0  0  0  0  0
    0.7412    0.1748   -0.0784 N   0  0  0  0  0  0  0  0  0  0  0  0
   -0.5632    0.6799   -0.0270 C   0  0  0  0  0  0  0  0  0  0  0  0
   -0.8683    2.0433   -0.0269 C   0  0  0  0  0  0  0  0  0  0  0  0
   -2.1940    2.4847   -0.0464 C   0  0  0  0  0  0  0  0  0  0  0  0
   -3.2425    1.5658   -0.0985 C   0  0  0  0  0  0  0  0  0  0  0  0
   -2.9750    0.1934   -0.1472 C   0  0  0  0  0  0  0  0  0  0  0  0
   -4.0349   -0.8136   -0.2242 C   0  0  0  0  0  0  0  0  0  0  0  0
   -3.8961   -2.1223   -0.0993 N   0  0  0  0  0  0  0  0  0  0  0  0
   -5.1295   -2.7145   -0.2416 N   0  0  0  0  0  0  0  0  0  0  0  0
   -6.0000   -1.7604   -0.4577 C   0  0  0  0  0  0  0  0  0  0  0  0
   -5.3642   -0.5582   -0.4562 N   0  0  0  0  0  0  0  0  0  0  0  0
   -1.6328   -0.2257   -0.1214 C   0  0  0  0  0  0  0  0  0  0  0  0
    3.7554   -0.3813    1.4256 C   0  0  0  0  0  0  0  0  0  0  0  0
    3.1106   -0.2216    3.0204 Cl  0  0  0  0  0  0  0  0  0  0  0  0
    4.9338   -1.1212    1.2835 C   0  0  0  0  0  0  0  0  0  0  0  0
    5.3116   -0.9012   -2.0918 H   0  0  0  0  0  0  0  0  0  0  0  0
    3.2276    0.3977   -1.8490 H   0  0  0  0  0  0  0  0  0  0  0  0
    1.6647    1.3599    1.4056 H   0  0  0  0  0  0  0  0  0  0  0  0
    1.9703    1.8821   -0.2444 H   0  0  0  0  0  0  0  0  0  0  0  0
    0.7803   -0.7737    0.2920 H   0  0  0  0  0  0  0  0  0  0  0  0
   -0.0844    2.7941   -0.0114 H   0  0  0  0  0  0  0  0  0  0  0  0
   -2.4056    3.5511   -0.0268 H   0  0  0  0  0  0  0  0  0  0  0  0
   -4.2575    1.9497   -0.1018 H   0  0  0  0  0  0  0  0  0  0  0  0
   -7.0614   -1.8817   -0.6174 H   0  0  0  0  0  0  0  0  0  0  0  0
   -5.7858    0.3432   -0.6121 H   0  0  0  0  0  0  0  0  0  0  0  0
   -1.4184   -1.2931   -0.1774 H   0  0  0  0  0  0  0  0  0  0  0  0
    5.4122   -1.5607    2.1550 H   0  0  0  0  0  0  0  0  0  0  0  0
  1  2  1  0
  2  3  1  0
  3  4  2  0
  4  5  1  0
  5  6  1  0
  6  7  1  0
  7  8  1  0
  8  9  2  0
  9 10  1  0
 10 11  2  0
 11 12  1  0
 12 13  1  0
 13 14  2  0
 14 15  1  0
 15 16  2  0
 16 17  1  0
 12 18  2  0
  5 19  2  0
 19 20  1  0
 19 21  1  0
 21  2  2  0
 18  8  1  0
 17 13  1  0
  3 22  1  0
  4 23  1  0
  6 24  1  0
  6 25  1  0
  7 26  1  0
  9 27  1  0
 10 28  1  0
 11 29  1  0
 16 30  1  0
 17 31  1  0
 18 32  1  0
 21 33  1  0
M  END
$$$$
OCNT-2314266
     RDKit          3D

 41 44  0  0  0  0  0  0  0  0999 V2000
    5.8391   -1.5112    0.9503 C   0  0  0  0  0  0  0  0  0  0  0  0
    5.3175   -0.2293    0.3782 C   0  0  0  0  0  0  0  0  0  0  0  0
    6.0965    0.8499    0.1605 C   0  0  0  0  0  0  0  0  0  0  0  0
    5.5127    2.0552   -0.4007 C   0  0  0  0  0  0  0  0  0  0  0  0
    4.2058    2.1265   -0.7109 C   0  0  0  0  0  0  0  0  0  0  0  0
    3.3727    0.9967   -0.4836 C   0  0  0  0  0  0  0  0  0  0  0  0
    2.0418    0.7273   -0.6831 C   0  0  0  0  0  0  0  0  0  0  0  0
    1.8547   -0.6099   -0.2400 C   0  0  0  0  0  0  0  0  0  0  0  0
    0.6043   -1.4111   -0.2347 C   0  0  0  0  0  0  0  0  0  0  0  0
    0.6301   -2.6372   -0.2278 O   0  0  0  0  0  0  0  0  0  0  0  0
   -0.5476   -0.6306   -0.2230 N   0  0  0  0  0  0  0  0  0  0  0  0
   -1.9002   -1.0569   -0.2567 C   0  0  0  0  0  0  0  0  0  0  0  0
   -2.2482   -2.4084   -0.3743 C   0  0  0  0  0  0  0  0  0  0  0  0
   -3.5836   -2.8150   -0.3773 C   0  0  0  0  0  0  0  0  0  0  0  0
   -4.5988   -1.8766   -0.2556 C   0  0  0  0  0  0  0  0  0  0  0  0
   -4.2864   -0.5183   -0.1374 C   0  0  0  0  0  0  0  0  0  0  0  0
   -2.9358   -0.0903   -0.1697 C   0  0  0  0  0  0  0  0  0  0  0  0
   -2.6349    1.3924   -0.0446 C   0  0  0  0  0  0  0  0  0  0  0  0
   -3.7649    2.2838   -0.3340 N   0  0  0  0  0  0  0  0  0  0  0  0
   -4.9343    1.8560    0.4371 C   0  0  0  0  0  0  0  0  0  0  0  0
   -5.4151    0.4795   -0.0238 C   0  0  0  0  0  0  0  0  0  0  0  0
    3.0131   -1.1291    0.2008 N   0  0  0  0  0  0  0  0  0  0  0  0
    3.9479   -0.1569    0.0541 N   0  0  0  0  0  0  0  0  0  0  0  0
    5.6856   -2.3379    0.2487 H   0  0  0  0  0  0  0  0  0  0  0  0
    6.9122   -1.4536    1.1623 H   0  0  0  0  0  0  0  0  0  0  0  0
    5.3298   -1.7502    1.8899 H   0  0  0  0  0  0  0  0  0  0  0  0
    7.1572    0.8515    0.3897 H   0  0  0  0  0  0  0  0  0  0  0  0
    6.1694    2.9045   -0.5659 H   0  0  0  0  0  0  0  0  0  0  0  0
    3.7834    3.0335   -1.1320 H   0  0  0  0  0  0  0  0  0  0  0  0
    1.3137    1.4002   -1.1122 H   0  0  0  0  0  0  0  0  0  0  0  0
   -0.3932    0.3563   -0.0953 H   0  0  0  0  0  0  0  0  0  0  0  0
   -1.5000   -3.1896   -0.4639 H   0  0  0  0  0  0  0  0  0  0  0  0
   -3.8239   -3.8714   -0.4682 H   0  0  0  0  0  0  0  0  0  0  0  0
   -5.6346   -2.2084   -0.2526 H   0  0  0  0  0  0  0  0  0  0  0  0
   -2.2624    1.5942    0.9671 H   0  0  0  0  0  0  0  0  0  0  0  0
   -1.8437    1.6684   -0.7503 H   0  0  0  0  0  0  0  0  0  0  0  0
   -3.9841    2.2042   -1.3277 H   0  0  0  0  0  0  0  0  0  0  0  0
   -5.7407    2.5858    0.3048 H   0  0  0  0  0  0  0  0  0  0  0  0
   -4.6946    1.8459    1.5081 H   0  0  0  0  0  0  0  0  0  0  0  0
   -6.1679    0.1124    0.6838 H   0  0  0  0  0  0  0  0  0  0  0  0
   -5.8926    0.5677   -1.0080 H   0  0  0  0  0  0  0  0  0  0  0  0
  1  2  1  0
  2  3  2  0
  3  4  1  0
  4  5  2  0
  5  6  1  0
  6  7  2  0
  7  8  1  0
  8  9  1  0
  9 10  2  0
  9 11  1  0
 11 12  1  0
 12 13  1  0
 13 14  2  0
 14 15  1  0
 15 16  2  0
 16 17  1  0
 17 18  1  0
 18 19  1  0
 19 20  1  0
 20 21  1  0
  8 22  2  0
 22 23  1  0
 23  2  1  0
 23  6  1  0
 17 12  2  0
 21 16  1  0
  1 24  1  0
  1 25  1  0
  1 26  1  0
  3 27  1  0
  4 28  1  0
  5 29  1  0
  7 30  1  0
 11 31  1  0
 13 32  1  0
 14 33  1  0
 15 34  1  0
 18 35  1  0
 18 36  1  0
 19 37  1  0
 20 38  1  0
 20 39  1  0
 21 40  1  0
 21 41  1  0
M  END
$$$$
OCNT-2314267
     RDKit          3D

 43 46  0  0  0  0  0  0  0  0999 V2000
    5.2199    0.5465   -2.4866 C   0  0  0  0  0  0  0  0  0  0  0  0
    4.9331    0.5543   -1.0135 C   0  0  0  0  0  0  0  0  0  0  0  0
    3.6296    0.2760   -0.5640 C   0  0  0  0  0  0  0  0  0  0  0  0
    3.3083    0.2739    0.8046 C   0  0  0  0  0  0  0  0  0  0  0  0
    1.9454   -0.0193    1.2376 C   0  0  0  0  0  0  0  0  0  0  0  0
    1.5364    0.0204    2.5176 N   0  0  0  0  0  0  0  0  0  0  0  0
    0.1850   -0.3045    2.4464 O   0  0  0  0  0  0  0  0  0  0  0  0
   -0.0922   -0.5275    1.1307 C   0  0  0  0  0  0  0  0  0  0  0  0
   -1.4885   -0.9328    0.8098 C   0  0  0  0  0  0  0  0  0  0  0  0
   -1.5765   -2.4369    0.5270 C   0  0  0  0  0  0  0  0  0  0  0  0
   -2.7733   -2.5364   -0.4012 C   0  0  0  0  0  0  0  0  0  0  0  0
   -2.5985   -1.3291   -1.3112 C   0  0  0  0  0  0  0  0  0  0  0  0
   -1.9610   -0.3159   -0.4540 N   0  0  0  0  0  0  0  0  0  0  0  0
   -2.5604    1.2475   -0.4330 S   0  0  0  0  0  0  0  0  0  0  0  0
   -2.6470    1.6959   -1.8074 O   0  0  0  0  0  0  0  0  0  0  0  0
   -1.8603    2.0099    0.5754 O   0  0  0  0  0  0  0  0  0  0  0  0
   -4.2705    1.1941    0.0908 C   0  0  0  0  0  0  0  0  0  0  0  0
   -5.4477    1.3514   -0.6193 C   0  0  0  0  0  0  0  0  0  0  0  0
   -6.6033    1.2229    0.2033 C   0  0  0  0  0  0  0  0  0  0  0  0
   -6.2718    0.9747    1.5163 C   0  0  0  0  0  0  0  0  0  0  0  0
   -4.5788    0.8994    1.7471 S   0  0  0  0  0  0  0  0  0  0  0  0
    0.9568   -0.3895    0.3499 N   0  0  0  0  0  0  0  0  0  0  0  0
    4.3179    0.5587    1.7328 C   0  0  0  0  0  0  0  0  0  0  0  0
    5.6160    0.8367    1.3010 C   0  0  0  0  0  0  0  0  0  0  0  0
    5.9160    0.8353   -0.0590 C   0  0  0  0  0  0  0  0  0  0  0  0
    7.2099    1.1227   -0.3880 O   0  0  0  0  0  0  0  0  0  0  0  0
    4.3345    0.2728   -3.0703 H   0  0  0  0  0  0  0  0  0  0  0  0
    6.0033   -0.1829   -2.7165 H   0  0  0  0  0  0  0  0  0  0  0  0
    5.5392    1.5408   -2.8147 H   0  0  0  0  0  0  0  0  0  0  0  0
    2.8470    0.0611   -1.2915 H   0  0  0  0  0  0  0  0  0  0  0  0
   -2.1629   -0.6873    1.6344 H   0  0  0  0  0  0  0  0  0  0  0  0
   -1.7058   -3.0238    1.4419 H   0  0  0  0  0  0  0  0  0  0  0  0
   -0.6788   -2.8082    0.0156 H   0  0  0  0  0  0  0  0  0  0  0  0
   -3.7027   -2.4454    0.1738 H   0  0  0  0  0  0  0  0  0  0  0  0
   -2.8039   -3.4779   -0.9565 H   0  0  0  0  0  0  0  0  0  0  0  0
   -3.5581   -1.0086   -1.7246 H   0  0  0  0  0  0  0  0  0  0  0  0
   -1.9223   -1.5584   -2.1419 H   0  0  0  0  0  0  0  0  0  0  0  0
   -5.4650    1.5576   -1.6838 H   0  0  0  0  0  0  0  0  0  0  0  0
   -7.6243    1.3160   -0.1480 H   0  0  0  0  0  0  0  0  0  0  0  0
   -6.9422    0.8409    2.3550 H   0  0  0  0  0  0  0  0  0  0  0  0
    4.1052    0.5690    2.7997 H   0  0  0  0  0  0  0  0  0  0  0  0
    6.3938    1.0584    2.0270 H   0  0  0  0  0  0  0  0  0  0  0  0
    7.2983    1.1475   -1.3530 H   0  0  0  0  0  0  0  0  0  0  0  0
  1  2  1  0
  2  3  1  0
  3  4  2  0
  4  5  1  0
  5  6  2  0
  6  7  1  0
  7  8  1  0
  8  9  1  0
  9 10  1  0
 10 11  1  0
 11 12  1  0
 12 13  1  0
 13 14  1  0
 14 15  2  0
 14 16  2  0
 14 17  1  0
 17 18  2  0
 18 19  1  0
 19 20  2  0
 20 21  1  0
  8 22  2  0
  4 23  1  0
 23 24  2  0
 24 25  1  0
 25 26  1  0
 25  2  2  0
 22  5  1  0
 13  9  1  0
 21 17  1  0
  1 27  1  0
  1 28  1  0
  1 29  1  0
  3 30  1  0
  9 31  1  0
 10 32  1  0
 10 33  1  0
 11 34  1  0
 11 35  1  0
 12 36  1  0
 12 37  1  0
 18 38  1  0
 19 39  1  0
 20 40  1  0
 23 41  1  0
 24 42  1  0
 26 43  1  0
M  END
$$$$
OCNT-2314273
     RDKit          3D

 46 50  0  0  0  0  0  0  0  0999 V2000
    0.7049    0.9817    1.6399 O   0  0  0  0  0  0  0  0  0  0  0  0
    1.1120    0.1753    0.8013 C   0  0  0  0  0  0  0  0  0  0  0  0
    2.5997   -0.0239    0.5871 C   0  0  0  0  0  0  0  0  0  0  0  0
    3.0201    0.5849   -0.7577 C   0  0  0  0  0  0  0  0  0  0  0  0
    4.4546    0.3869   -0.9711 N   0  0  0  0  0  0  0  0  0  0  0  0
    5.2932    0.5733    0.0785 C   0  0  0  0  0  0  0  0  0  0  0  0
    6.6554    0.6972    0.1792 C   0  0  0  0  0  0  0  0  0  0  0  0
    6.8959    0.8580    1.5616 C   0  0  0  0  0  0  0  0  0  0  0  0
    5.7732    0.8420    2.2889 N   0  0  0  0  0  0  0  0  0  0  0  0
    4.8168    0.6651    1.3619 N   0  0  0  0  0  0  0  0  0  0  0  0
    3.4074    0.6466    1.7057 C   0  0  0  0  0  0  0  0  0  0  0  0
    0.2252   -0.5376   -0.0036 N   0  0  0  0  0  0  0  0  0  0  0  0
    0.5645   -1.8271   -0.6592 C   0  0  0  0  0  0  0  0  0  0  0  0
   -0.1541   -2.0276   -2.0116 C   0  0  0  0  0  0  0  0  0  0  0  0
   -1.5578   -1.5925   -1.8647 C   0  0  0  0  0  0  0  0  0  0  0  0
   -2.0480   -0.8030   -0.8498 C   0  0  0  0  0  0  0  0  0  0  0  0
   -1.2100   -0.2873    0.2657 C   0  0  0  0  0  0  0  0  0  0  0  0
   -3.4274   -0.6285   -1.1597 C   0  0  0  0  0  0  0  0  0  0  0  0
   -4.4469    0.1289   -0.4319 C   0  0  0  0  0  0  0  0  0  0  0  0
   -4.4974    0.1259    0.9690 C   0  0  0  0  0  0  0  0  0  0  0  0
   -5.4764    0.8618    1.6457 C   0  0  0  0  0  0  0  0  0  0  0  0
   -6.4137    1.5988    0.9249 C   0  0  0  0  0  0  0  0  0  0  0  0
   -7.6170    2.5013    1.7595 Cl  0  0  0  0  0  0  0  0  0  0  0  0
   -6.3852    1.6035   -0.4670 C   0  0  0  0  0  0  0  0  0  0  0  0
   -5.4064    0.8681   -1.1417 C   0  0  0  0  0  0  0  0  0  0  0  0
   -3.7350   -1.2654   -2.3061 N   0  0  0  0  0  0  0  0  0  0  0  0
   -2.5916   -1.8437   -2.7040 N   0  0  0  0  0  0  0  0  0  0  0  0
    2.8349   -1.0942    0.6202 H   0  0  0  0  0  0  0  0  0  0  0  0
    2.4801    0.1230   -1.5904 H   0  0  0  0  0  0  0  0  0  0  0  0
    2.7889    1.6575   -0.7916 H   0  0  0  0  0  0  0  0  0  0  0  0
    4.7912    0.6024   -1.9088 H   0  0  0  0  0  0  0  0  0  0  0  0
    7.3790    0.6707   -0.6210 H   0  0  0  0  0  0  0  0  0  0  0  0
    7.8444    0.9869    2.0667 H   0  0  0  0  0  0  0  0  0  0  0  0
    3.1165    1.6914    1.8660 H   0  0  0  0  0  0  0  0  0  0  0  0
    3.2950    0.1019    2.6498 H   0  0  0  0  0  0  0  0  0  0  0  0
    0.2723   -2.6158    0.0463 H   0  0  0  0  0  0  0  0  0  0  0  0
    1.6383   -1.9318   -0.8200 H   0  0  0  0  0  0  0  0  0  0  0  0
   -0.0847   -3.0746   -2.3234 H   0  0  0  0  0  0  0  0  0  0  0  0
    0.3324   -1.4111   -2.7767 H   0  0  0  0  0  0  0  0  0  0  0  0
   -1.4577   -0.8023    1.2006 H   0  0  0  0  0  0  0  0  0  0  0  0
   -1.3740    0.7874    0.4011 H   0  0  0  0  0  0  0  0  0  0  0  0
   -3.7958   -0.4630    1.5526 H   0  0  0  0  0  0  0  0  0  0  0  0
   -5.5051    0.8491    2.7322 H   0  0  0  0  0  0  0  0  0  0  0  0
   -7.1182    2.1707   -1.0338 H   0  0  0  0  0  0  0  0  0  0  0  0
   -5.3931    0.8720   -2.2304 H   0  0  0  0  0  0  0  0  0  0  0  0
   -2.6002   -2.3828   -3.5641 H   0  0  0  0  0  0  0  0  0  0  0  0
  1  2  2  0
  2  3  1  0
  3  4  1  0
  4  5  1  0
  5  6  1  0
  6  7  2  0
  7  8  1  0
  8  9  2  0
  9 10  1  0
 10 11  1  0
  2 12  1  0
 12 13  1  0
 13 14  1  0
 14 15  1  0
 15 16  2  0
 16 17  1  0
 16 18  1  0
 18 19  1  0
 19 20  1  0
 20 21  2  0
 21 22  1  0
 22 23  1  0
 22 24  2  0
 24 25  1  0
 18 26  2  0
 26 27  1  0
 11  3  1  0
 17 12  1  0
 25 19  2  0
 10  6  1  0
 27 15  1  0
  3 28  1  0
  4 29  1  0
  4 30  1  0
  5 31  1  0
  7 32  1  0
  8 33  1  0
 11 34  1  0
 11 35  1  0
 13 36  1  0
 13 37  1  0
 14 38  1  0
 14 39  1  0
 17 40  1  0
 17 41  1  0
 20 42  1  0
 21 43  1  0
 24 44  1  0
 25 45  1  0
 27 46  1  0
M  END
$$$$
OCNT-2314301
     RDKit          3D

 43 46  0  0  0  0  0  0  0  0999 V2000
   -6.8709    1.6346   -0.5207 C   0  0  0  0  0  0  0  0  0  0  0  0
   -6.2344    0.3727   -0.8024 N   0  0  0  0  0  0  0  0  0  0  0  0
   -6.8793   -0.5424   -1.5698 N   0  0  0  0  0  0  0  0  0  0  0  0
   -6.0234   -1.5720   -1.6230 C   0  0  0  0  0  0  0  0  0  0  0  0
   -4.8523   -1.3124   -0.9057 C   0  0  0  0  0  0  0  0  0  0  0  0
   -5.0046   -0.0527   -0.3822 C   0  0  0  0  0  0  0  0  0  0  0  0
   -4.1252    0.6320    0.3906 N   0  0  0  0  0  0  0  0  0  0  0  0
   -3.0082   -0.0135    0.6221 C   0  0  0  0  0  0  0  0  0  0  0  0
   -2.0519    0.5732    1.4063 N   0  0  0  0  0  0  0  0  0  0  0  0
   -0.6597    0.5970    1.1803 C   0  0  0  0  0  0  0  0  0  0  0  0
   -0.0654    0.2385   -0.0365 C   0  0  0  0  0  0  0  0  0  0  0  0
    1.3286    0.2595   -0.2012 C   0  0  0  0  0  0  0  0  0  0  0  0
    2.1564    0.6419    0.8523 C   0  0  0  0  0  0  0  0  0  0  0  0
    3.5209    0.6970    0.8234 O   0  0  0  0  0  0  0  0  0  0  0  0
    4.1971    0.4761   -0.4160 C   0  0  0  0  0  0  0  0  0  0  0  0
    4.4645   -1.0097   -0.6430 C   0  0  0  0  0  0  0  0  0  0  0  0
    5.6284   -1.3372    0.2894 C   0  0  0  0  0  0  0  0  0  0  0  0
    6.3761   -0.0236    0.5100 C   0  0  0  0  0  0  0  0  0  0  0  0
    5.6132    1.0352   -0.2826 C   0  0  0  0  0  0  0  0  0  0  0  0
    1.5618    0.9965    2.0651 C   0  0  0  0  0  0  0  0  0  0  0  0
    2.3238    1.3656    3.1063 F   0  0  0  0  0  0  0  0  0  0  0  0
    0.1778    0.9791    2.2327 C   0  0  0  0  0  0  0  0  0  0  0  0
   -2.7681   -1.2958    0.1450 N   0  0  0  0  0  0  0  0  0  0  0  0
   -3.6460   -2.0285   -0.6306 C   0  0  0  0  0  0  0  0  0  0  0  0
   -3.4017   -3.1605   -1.0292 O   0  0  0  0  0  0  0  0  0  0  0  0
   -6.2232    2.2489    0.1085 H   0  0  0  0  0  0  0  0  0  0  0  0
   -7.8119    1.4364   -0.0014 H   0  0  0  0  0  0  0  0  0  0  0  0
   -7.0578    2.1444   -1.4692 H   0  0  0  0  0  0  0  0  0  0  0  0
   -6.2947   -2.4589   -2.1812 H   0  0  0  0  0  0  0  0  0  0  0  0
   -2.3771    1.4533    1.7987 H   0  0  0  0  0  0  0  0  0  0  0  0
   -0.6728   -0.0352   -0.8967 H   0  0  0  0  0  0  0  0  0  0  0  0
    1.7281   -0.0318   -1.1672 H   0  0  0  0  0  0  0  0  0  0  0  0
    3.6841    0.9670   -1.2500 H   0  0  0  0  0  0  0  0  0  0  0  0
    3.6037   -1.6488   -0.4269 H   0  0  0  0  0  0  0  0  0  0  0  0
    4.7694   -1.1794   -1.6825 H   0  0  0  0  0  0  0  0  0  0  0  0
    5.2546   -1.7164    1.2477 H   0  0  0  0  0  0  0  0  0  0  0  0
    6.2762   -2.1091   -0.1380 H   0  0  0  0  0  0  0  0  0  0  0  0
    6.3824    0.2264    1.5772 H   0  0  0  0  0  0  0  0  0  0  0  0
    7.4189   -0.0885    0.1831 H   0  0  0  0  0  0  0  0  0  0  0  0
    5.6420    2.0047    0.2245 H   0  0  0  0  0  0  0  0  0  0  0  0
    6.0678    1.1463   -1.2743 H   0  0  0  0  0  0  0  0  0  0  0  0
   -0.2288    1.2549    3.2013 H   0  0  0  0  0  0  0  0  0  0  0  0
   -1.9179   -1.7645    0.4139 H   0  0  0  0  0  0  0  0  0  0  0  0
  1  2  1  0
  2  3  1  0
  3  4  2  0
  4  5  1  0
  5  6  2  0
  6  7  1  0
  7  8  2  0
  8  9  1  0
  9 10  1  0
 10 11  1  0
 11 12  2  0
 12 13  1  0
 13 14  1  0
 14 15  1  0
 15 16  1  0
 16 17  1  0
 17 18  1  0
 18 19  1  0
 13 20  2  0
 20 21  1  0
 20 22  1  0
  8 23  1  0
 23 24  1  0
 24 25  2  0
  6  2  1  0
 22 10  2  0
 24  5  1  0
 19 15  1  0
  1 26  1  0
  1 27  1  0
  1 28  1  0
  4 29  1  0
  9 30  1  0
 11 31  1  0
 12 32  1  0
 15 33  1  0
 16 34  1  0
 16 35  1  0
 17 36  1  0
 17 37  1  0
 18 38  1  0
 18 39  1  0
 19 40  1  0
 19 41  1  0
 22 42  1  0
 23 43  1  0
M  END
$$$$
OCNT-2314305
     RDKit          3D

 39 42  0  0  0  0  0  0  0  0999 V2000
    4.5607    0.7909    2.0432 C   0  0  0  0  0  0  0  0  0  0  0  0
    3.7261    1.3217    1.0810 C   0  0  0  0  0  0  0  0  0  0  0  0
    3.6280    0.3754    0.0193 C   0  0  0  0  0  0  0  0  0  0  0  0
    2.9615    0.2940   -1.2180 C   0  0  0  0  0  0  0  0  0  0  0  0
    2.1484    1.3318   -1.6901 N   0  0  0  0  0  0  0  0  0  0  0  0
    0.9967    0.8766   -2.4719 C   0  0  0  0  0  0  0  0  0  0  0  0
   -0.1376    0.2823   -1.6790 C   0  0  0  0  0  0  0  0  0  0  0  0
   -0.7089    0.9760   -0.6803 N   0  0  0  0  0  0  0  0  0  0  0  0
   -1.6444    0.1371   -0.1868 N   0  0  0  0  0  0  0  0  0  0  0  0
   -2.4626    0.5909    0.9293 C   0  0  0  0  0  0  0  0  0  0  0  0
   -3.7692    1.2364    0.4681 C   0  0  0  0  0  0  0  0  0  0  0  0
   -4.7397    0.0704    0.3509 C   0  0  0  0  0  0  0  0  0  0  0  0
   -4.3431   -0.8914    1.4662 C   0  0  0  0  0  0  0  0  0  0  0  0
   -2.9216   -0.5118    1.8902 C   0  0  0  0  0  0  0  0  0  0  0  0
   -1.6900   -1.0558   -0.8506 C   0  0  0  0  0  0  0  0  0  0  0  0
   -0.7182   -0.9972   -1.8200 C   0  0  0  0  0  0  0  0  0  0  0  0
    3.1538   -0.8227   -1.9651 N   0  0  0  0  0  0  0  0  0  0  0  0
    3.9564   -1.7950   -1.4877 C   0  0  0  0  0  0  0  0  0  0  0  0
    4.6262   -1.8263   -0.3235 N   0  0  0  0  0  0  0  0  0  0  0  0
    4.4181   -0.7049    0.3801 C   0  0  0  0  0  0  0  0  0  0  0  0
    4.9729   -0.4408    1.6023 N   0  0  0  0  0  0  0  0  0  0  0  0
    4.8963    1.1812    2.9948 H   0  0  0  0  0  0  0  0  0  0  0  0
    3.2389    2.2866    1.1313 H   0  0  0  0  0  0  0  0  0  0  0  0
    1.8217    1.8941   -0.9078 H   0  0  0  0  0  0  0  0  0  0  0  0
    0.5959    1.7594   -2.9875 H   0  0  0  0  0  0  0  0  0  0  0  0
    1.3001    0.1958   -3.2775 H   0  0  0  0  0  0  0  0  0  0  0  0
   -1.8465    1.3171    1.4746 H   0  0  0  0  0  0  0  0  0  0  0  0
   -3.6788    1.7890   -0.4724 H   0  0  0  0  0  0  0  0  0  0  0  0
   -4.1283    1.9318    1.2369 H   0  0  0  0  0  0  0  0  0  0  0  0
   -5.7819    0.3926    0.4377 H   0  0  0  0  0  0  0  0  0  0  0  0
   -4.6284   -0.4194   -0.6232 H   0  0  0  0  0  0  0  0  0  0  0  0
   -4.3957   -1.9297    1.1223 H   0  0  0  0  0  0  0  0  0  0  0  0
   -5.0254   -0.7973    2.3186 H   0  0  0  0  0  0  0  0  0  0  0  0
   -2.2548   -1.3798    1.9147 H   0  0  0  0  0  0  0  0  0  0  0  0
   -2.9585   -0.1105    2.9109 H   0  0  0  0  0  0  0  0  0  0  0  0
   -2.3844   -1.8397   -0.5861 H   0  0  0  0  0  0  0  0  0  0  0  0
   -0.4531   -1.7704   -2.5271 H   0  0  0  0  0  0  0  0  0  0  0  0
    4.0753   -2.6642   -2.1274 H   0  0  0  0  0  0  0  0  0  0  0  0
    5.5939   -1.0744    2.0842 H   0  0  0  0  0  0  0  0  0  0  0  0
  1  2  2  0
  2  3  1  0
  3  4  2  0
  4  5  1  0
  5  6  1  0
  6  7  1  0
  7  8  2  0
  8  9  1  0
  9 10  1  0
 10 11  1  0
 11 12  1  0
 12 13  1  0
 13 14  1  0
  9 15  1  0
 15 16  2  0
  4 17  1  0
 17 18  2  0
 18 19  1  0
 19 20  2  0
 20 21  1  0
 21  1  1  0
 20  3  1  0
 16  7  1  0
 14 10  1  0
  1 22  1  0
  2 23  1  0
  5 24  1  0
  6 25  1  0
  6 26  1  0
 10 27  1  0
 11 28  1  0
 11 29  1  0
 12 30  1  0
 12 31  1  0
 13 32  1  0
 13 33  1  0
 14 34  1  0
 14 35  1  0
 15 36  1  0
 16 37  1  0
 18 38  1  0
 21 39  1  0
M  END
$$$$
OCNT-2314306
     RDKit          3D

 39 41  0  0  0  0  0  0  0  0999 V2000
   -3.4993    1.9904   -0.0631 C   0  0  0  0  0  0  0  0  0  0  0  0
   -2.0049    1.8686   -0.3833 C   0  0  0  0  0  0  0  0  0  0  0  0
   -1.7696    2.1570   -1.8693 C   0  0  0  0  0  0  0  0  0  0  0  0
   -1.4307    0.5095    0.0928 C   0  0  0  0  0  0  0  0  0  0  0  0
    0.1030    0.4595   -0.0167 C   0  0  0  0  0  0  0  0  0  0  0  0
    0.6538   -0.8015    0.5083 N   0  0  0  0  0  0  0  0  0  0  0  0
    1.8318   -0.8231    1.2769 C   0  0  0  0  0  0  0  0  0  0  0  0
    2.0697   -1.6941    2.1127 O   0  0  0  0  0  0  0  0  0  0  0  0
    2.7873    0.2591    1.0441 C   0  0  0  0  0  0  0  0  0  0  0  0
    3.2474    0.7830   -0.1505 C   0  0  0  0  0  0  0  0  0  0  0  0
    4.2010    1.8262    0.0465 C   0  0  0  0  0  0  0  0  0  0  0  0
    4.4544    2.0538    1.3833 C   0  0  0  0  0  0  0  0  0  0  0  0
    5.3635    3.0323    1.8903 C   0  0  0  0  0  0  0  0  0  0  0  0
    6.1008    3.8389    2.2811 N   0  0  0  0  0  0  0  0  0  0  0  0
    3.5479    1.0081    2.3851 S   0  0  0  0  0  0  0  0  0  0  0  0
   -0.1289   -1.9806    0.2263 C   0  0  0  0  0  0  0  0  0  0  0  0
    0.3681   -3.2733    0.4578 C   0  0  0  0  0  0  0  0  0  0  0  0
   -0.3751   -4.4089    0.1215 C   0  0  0  0  0  0  0  0  0  0  0  0
   -1.6225   -4.2756   -0.4729 C   0  0  0  0  0  0  0  0  0  0  0  0
   -2.1349   -3.0044   -0.7190 C   0  0  0  0  0  0  0  0  0  0  0  0
   -1.4227   -1.8512   -0.3466 C   0  0  0  0  0  0  0  0  0  0  0  0
   -2.0002   -0.5979   -0.6780 N   0  0  0  0  0  0  0  0  0  0  0  0
   -4.1016    1.2947   -0.6559 H   0  0  0  0  0  0  0  0  0  0  0  0
   -3.6891    1.7913    0.9968 H   0  0  0  0  0  0  0  0  0  0  0  0
   -3.8564    3.0035   -0.2785 H   0  0  0  0  0  0  0  0  0  0  0  0
   -1.4956    2.6576    0.1869 H   0  0  0  0  0  0  0  0  0  0  0  0
   -2.1867    3.1331   -2.1409 H   0  0  0  0  0  0  0  0  0  0  0  0
   -0.7025    2.1860   -2.1077 H   0  0  0  0  0  0  0  0  0  0  0  0
   -2.2438    1.4050   -2.5082 H   0  0  0  0  0  0  0  0  0  0  0  0
   -1.7070    0.3788    1.1495 H   0  0  0  0  0  0  0  0  0  0  0  0
    0.4311    0.5331   -1.0601 H   0  0  0  0  0  0  0  0  0  0  0  0
    0.5184    1.3077    0.5372 H   0  0  0  0  0  0  0  0  0  0  0  0
    2.9270    0.4254   -1.1229 H   0  0  0  0  0  0  0  0  0  0  0  0
    4.6838    2.3709   -0.7578 H   0  0  0  0  0  0  0  0  0  0  0  0
    1.3549   -3.4407    0.8783 H   0  0  0  0  0  0  0  0  0  0  0  0
    0.0364   -5.3974    0.3106 H   0  0  0  0  0  0  0  0  0  0  0  0
   -2.1915   -5.1575   -0.7540 H   0  0  0  0  0  0  0  0  0  0  0  0
   -3.1027   -2.9147   -1.2058 H   0  0  0  0  0  0  0  0  0  0  0  0
   -3.0146   -0.6528   -0.6203 H   0  0  0  0  0  0  0  0  0  0  0  0
  1  2  1  0
  2  3  1  0
  2  4  1  0
  4  5  1  0
  5  6  1  0
  6  7  1  0
  7  8  2  0
  7  9  1  0
  9 10  2  0
 10 11  1  0
 11 12  2  0
 12 13  1  0
 13 14  3  0
 12 15  1  0
  6 16  1  0
 16 17  2  0
 17 18  1  0
 18 19  2  0
 19 20  1  0
 20 21  2  0
 21 22  1  0
 22  4  1  0
 15  9  1  0
 21 16  1  0
  1 23  1  0
  1 24  1  0
  1 25  1  0
  2 26  1  0
  3 27  1  0
  3 28  1  0
  3 29  1  0
  4 30  1  0
  5 31  1  0
  5 32  1  0
 10 33  1  0
 11 34  1  0
 17 35  1  0
 18 36  1  0
 19 37  1  0
 20 38  1  0
 22 39  1  0
M  END
$$$$
OCNT-2314307
     RDKit          3D

 39 41  0  0  0  0  0  0  0  0999 V2000
    0.3800    1.3972    2.1854 N   0  0  0  0  0  0  0  0  0  0  0  0
   -0.5426    0.6573    2.8661 C   0  0  0  0  0  0  0  0  0  0  0  0
   -0.2752    0.1969    3.9715 O   0  0  0  0  0  0  0  0  0  0  0  0
   -1.9208    0.5370    2.2481 C   0  0  0  0  0  0  0  0  0  0  0  0
   -1.9662    0.1082    0.7767 C   0  0  0  0  0  0  0  0  0  0  0  0
   -3.4361    0.0733    0.2931 C   0  0  0  0  0  0  0  0  0  0  0  0
   -3.5953   -0.8015   -0.9470 C   0  0  0  0  0  0  0  0  0  0  0  0
   -3.1439   -2.2424   -0.6822 C   0  0  0  0  0  0  0  0  0  0  0  0
   -2.2312   -2.3617    0.5374 C   0  0  0  0  0  0  0  0  0  0  0  0
   -1.3345   -1.2123    0.5890 N   0  0  0  0  0  0  0  0  0  0  0  0
   -0.0515   -1.2740    0.1165 C   0  0  0  0  0  0  0  0  0  0  0  0
    0.6632   -0.2184   -0.2293 N   0  0  0  0  0  0  0  0  0  0  0  0
    1.9412   -0.6130   -0.6369 C   0  0  0  0  0  0  0  0  0  0  0  0
    2.8994    0.3977   -1.0837 C   0  0  0  0  0  0  0  0  0  0  0  0
    4.2783    0.1464   -1.0695 C   0  0  0  0  0  0  0  0  0  0  0  0
    5.1697    1.1244   -1.5043 C   0  0  0  0  0  0  0  0  0  0  0  0
    6.4859    0.8711   -1.4782 F   0  0  0  0  0  0  0  0  0  0  0  0
    4.7207    2.3545   -1.9597 C   0  0  0  0  0  0  0  0  0  0  0  0
    3.3567    2.6028   -1.9716 C   0  0  0  0  0  0  0  0  0  0  0  0
    2.9048    3.7866   -2.4110 F   0  0  0  0  0  0  0  0  0  0  0  0
    2.4456    1.6434   -1.5380 C   0  0  0  0  0  0  0  0  0  0  0  0
    2.2558   -1.9086   -0.5841 N   0  0  0  0  0  0  0  0  0  0  0  0
    0.9046   -2.7143   -0.0465 S   0  0  0  0  0  0  0  0  0  0  0  0
    1.3074    1.3525    2.5911 H   0  0  0  0  0  0  0  0  0  0  0  0
    0.3712    1.3272    1.1722 H   0  0  0  0  0  0  0  0  0  0  0  0
   -2.4139    1.5086    2.3693 H   0  0  0  0  0  0  0  0  0  0  0  0
   -2.4820   -0.1854    2.8571 H   0  0  0  0  0  0  0  0  0  0  0  0
   -1.4636    0.8647    0.1597 H   0  0  0  0  0  0  0  0  0  0  0  0
   -4.0952   -0.3110    1.0819 H   0  0  0  0  0  0  0  0  0  0  0  0
   -3.7744    1.0940    0.0814 H   0  0  0  0  0  0  0  0  0  0  0  0
   -2.9953   -0.3806   -1.7654 H   0  0  0  0  0  0  0  0  0  0  0  0
   -4.6365   -0.7934   -1.2888 H   0  0  0  0  0  0  0  0  0  0  0  0
   -2.6335   -2.6204   -1.5747 H   0  0  0  0  0  0  0  0  0  0  0  0
   -4.0172   -2.8868   -0.5301 H   0  0  0  0  0  0  0  0  0  0  0  0
   -2.8391   -2.3757    1.4493 H   0  0  0  0  0  0  0  0  0  0  0  0
   -1.7169   -3.3264    0.5244 H   0  0  0  0  0  0  0  0  0  0  0  0
    4.6753   -0.8041   -0.7180 H   0  0  0  0  0  0  0  0  0  0  0  0
    5.4205    3.1072   -2.3040 H   0  0  0  0  0  0  0  0  0  0  0  0
    1.3846    1.8792   -1.5731 H   0  0  0  0  0  0  0  0  0  0  0  0
  1  2  1  0
  2  3  2  0
  2  4  1  0
  4  5  1  0
  5  6  1  0
  6  7  1  0
  7  8  1  0
  8  9  1  0
  9 10  1  0
 10 11  1  0
 11 12  2  0
 12 13  1  0
 13 14  1  0
 14 15  2  0
 15 16  1  0
 16 17  1  0
 16 18  2  0
 18 19  1  0
 19 20  1  0
 19 21  2  0
 13 22  2  0
 22 23  1  0
 10  5  1  0
 23 11  1  0
 21 14  1  0
  1 24  1  0
  1 25  1  0
  4 26  1  0
  4 27  1  0
  5 28  1  0
  6 29  1  0
  6 30  1  0
  7 31  1  0
  7 32  1  0
  8 33  1  0
  8 34  1  0
  9 35  1  0
  9 36  1  0
 15 37  1  0
 18 38  1  0
 21 39  1  0
M  END
$$$$
OCNT-2314310
     RDKit          3D

 57 61  0  0  0  0  0  0  0  0999 V2000
    9.1732   -2.1080    0.2752 C   0  0  0  0  0  0  0  0  0  0  0  0
    7.8578   -2.1689   -0.4141 C   0  0  0  0  0  0  0  0  0  0  0  0
    6.8299   -1.4043   -0.1178 N   0  0  0  0  0  0  0  0  0  0  0  0
    5.7576   -1.7033   -0.9466 C   0  0  0  0  0  0  0  0  0  0  0  0
    4.4862   -0.9979   -0.8136 C   0  0  0  0  0  0  0  0  0  0  0  0
    3.5952   -0.8608   -1.8988 C   0  0  0  0  0  0  0  0  0  0  0  0
    2.3780   -0.1794   -1.7569 C   0  0  0  0  0  0  0  0  0  0  0  0
    2.0585    0.3617   -0.5264 C   0  0  0  0  0  0  0  0  0  0  0  0
    2.9309    0.2325    0.5509 C   0  0  0  0  0  0  0  0  0  0  0  0
    4.1452   -0.4311    0.4240 C   0  0  0  0  0  0  0  0  0  0  0  0
    2.4042    0.9250    1.7622 C   0  0  0  0  0  0  0  0  0  0  0  0
    1.0007    1.3426    1.3029 C   0  0  0  0  0  0  0  0  0  0  0  0
    0.9132    1.0838   -0.1425 N   0  0  0  0  0  0  0  0  0  0  0  0
   -0.0908    1.5088   -0.9941 C   0  0  0  0  0  0  0  0  0  0  0  0
   -0.1120    1.3709   -2.2166 O   0  0  0  0  0  0  0  0  0  0  0  0
   -1.2220    2.2514   -0.3951 C   0  0  0  0  0  0  0  0  0  0  0  0
   -1.4240    3.5800   -0.7776 C   0  0  0  0  0  0  0  0  0  0  0  0
   -2.4882    4.3002   -0.2399 C   0  0  0  0  0  0  0  0  0  0  0  0
   -3.3603    3.6869    0.6617 C   0  0  0  0  0  0  0  0  0  0  0  0
   -3.1889    2.3402    1.0234 C   0  0  0  0  0  0  0  0  0  0  0  0
   -4.1504    1.6952    2.0000 C   0  0  0  0  0  0  0  0  0  0  0  0
   -4.3303    0.2882    1.8174 O   0  0  0  0  0  0  0  0  0  0  0  0
   -4.9164   -0.1640    0.6638 C   0  0  0  0  0  0  0  0  0  0  0  0
   -5.7585    0.6114   -0.1424 C   0  0  0  0  0  0  0  0  0  0  0  0
   -6.3306    0.0718   -1.2988 C   0  0  0  0  0  0  0  0  0  0  0  0
   -6.0707   -1.2468   -1.6631 C   0  0  0  0  0  0  0  0  0  0  0  0
   -5.2456   -2.0363   -0.8647 C   0  0  0  0  0  0  0  0  0  0  0  0
   -4.6741   -1.5021    0.3024 C   0  0  0  0  0  0  0  0  0  0  0  0
   -3.7777   -2.3666    1.1187 C   0  0  0  0  0  0  0  0  0  0  0  0
   -4.2075   -3.6530    1.3171 N   0  0  0  0  0  0  0  0  0  0  0  0
   -2.7118   -1.9802    1.5894 O   0  0  0  0  0  0  0  0  0  0  0  0
   -2.1011    1.6282    0.4944 C   0  0  0  0  0  0  0  0  0  0  0  0
    5.9956   -2.7204   -1.8523 C   0  0  0  0  0  0  0  0  0  0  0  0
    7.5980   -3.3065   -1.6732 S   0  0  0  0  0  0  0  0  0  0  0  0
    9.2641   -1.1730    0.8382 H   0  0  0  0  0  0  0  0  0  0  0  0
   10.0009   -2.1508   -0.4401 H   0  0  0  0  0  0  0  0  0  0  0  0
    9.2755   -2.9405    0.9793 H   0  0  0  0  0  0  0  0  0  0  0  0
    3.8403   -1.2690   -2.8778 H   0  0  0  0  0  0  0  0  0  0  0  0
    1.7080   -0.0999   -2.6042 H   0  0  0  0  0  0  0  0  0  0  0  0
    4.8248   -0.5031    1.2713 H   0  0  0  0  0  0  0  0  0  0  0  0
    3.0157    1.8022    2.0007 H   0  0  0  0  0  0  0  0  0  0  0  0
    2.3575    0.2616    2.6279 H   0  0  0  0  0  0  0  0  0  0  0  0
    0.7962    2.3954    1.5164 H   0  0  0  0  0  0  0  0  0  0  0  0
    0.2430    0.7350    1.8041 H   0  0  0  0  0  0  0  0  0  0  0  0
   -0.7537    4.0478   -1.4940 H   0  0  0  0  0  0  0  0  0  0  0  0
   -2.6431    5.3367   -0.5295 H   0  0  0  0  0  0  0  0  0  0  0  0
   -4.1865    4.2657    1.0699 H   0  0  0  0  0  0  0  0  0  0  0  0
   -5.1231    2.1997    2.0147 H   0  0  0  0  0  0  0  0  0  0  0  0
   -3.7263    1.8239    3.0029 H   0  0  0  0  0  0  0  0  0  0  0  0
   -5.9887    1.6437    0.0987 H   0  0  0  0  0  0  0  0  0  0  0  0
   -6.9708    0.6916   -1.9229 H   0  0  0  0  0  0  0  0  0  0  0  0
   -6.4992   -1.6576   -2.5763 H   0  0  0  0  0  0  0  0  0  0  0  0
   -5.0260   -3.0572   -1.1752 H   0  0  0  0  0  0  0  0  0  0  0  0
   -3.6351   -4.2396    1.9136 H   0  0  0  0  0  0  0  0  0  0  0  0
   -5.1149   -3.9866    1.0376 H   0  0  0  0  0  0  0  0  0  0  0  0
   -1.9527    0.5810    0.7556 H   0  0  0  0  0  0  0  0  0  0  0  0
    5.3305   -3.1559   -2.5848 H   0  0  0  0  0  0  0  0  0  0  0  0
  1  2  1  0
  2  3  2  0
  3  4  1  0
  4  5  1  0
  5  6  1  0
  6  7  2  0
  7  8  1  0
  8  9  2  0
  9 10  1  0
  9 11  1  0
 11 12  1  0
 12 13  1  0
 13 14  1  0
 14 15  2  0
 14 16  1  0
 16 17  1  0
 17 18  2  0
 18 19  1  0
 19 20  2  0
 20 21  1  0
 21 22  1  0
 22 23  1  0
 23 24  2  0
 24 25  1  0
 25 26  2  0
 26 27  1  0
 27 28  2  0
 28 29  1  0
 29 30  1  0
 29 31  2  0
 20 32  1  0
  4 33  2  0
 33 34  1  0
 34  2  1  0
 10  5  2  0
 32 16  2  0
 13  8  1  0
 28 23  1  0
  1 35  1  0
  1 36  1  0
  1 37  1  0
  6 38  1  0
  7 39  1  0
 10 40  1  0
 11 41  1  0
 11 42  1  0
 12 43  1  0
 12 44  1  0
 17 45  1  0
 18 46  1  0
 19 47  1  0
 21 48  1  0
 21 49  1  0
 24 50  1  0
 25 51  1  0
 26 52  1  0
 27 53  1  0
 30 54  1  0
 30 55  1  0
 32 56  1  0
 33 57  1  0
M  END
$$$$
OCNT-2314321
     RDKit          3D

 39 41  0  0  0  0  0  0  0  0999 V2000
   -4.6164   -1.4671    0.9332 C   0  0  0  0  0  0  0  0  0  0  0  0
   -3.6518   -0.8052   -0.0573 C   0  0  2  0  0  0  0  0  0  0  0  0
   -2.3847   -0.5457    0.6284 N   0  0  0  0  0  0  0  0  0  0  0  0
   -1.1656   -0.6782   -0.0090 C   0  0  0  0  0  0  0  0  0  0  0  0
   -1.0800   -1.0671   -1.1654 O   0  0  0  0  0  0  0  0  0  0  0  0
   -0.1377   -0.3339    0.8294 N   0  0  0  0  0  0  0  0  0  0  0  0
    1.1975   -0.2814    0.5217 C   0  0  0  0  0  0  0  0  0  0  0  0
    2.0926   -0.1020    1.4628 N   0  0  0  0  0  0  0  0  0  0  0  0
    3.3607   -0.0651    0.9042 C   0  0  0  0  0  0  0  0  0  0  0  0
    4.5674    0.1000    1.6192 C   0  0  0  0  0  0  0  0  0  0  0  0
    5.7390    0.1130    0.8865 C   0  0  0  0  0  0  0  0  0  0  0  0
    5.7533   -0.0261   -0.4785 C   0  0  0  0  0  0  0  0  0  0  0  0
    4.6011   -0.1890   -1.2233 C   0  0  0  0  0  0  0  0  0  0  0  0
    3.3988   -0.2050   -0.4922 C   0  0  0  0  0  0  0  0  0  0  0  0
    1.7862   -0.3819   -1.0692 S   0  0  0  0  0  0  0  0  0  0  0  0
    7.0144    0.0168   -0.9901 O   0  0  0  0  0  0  0  0  0  0  0  0
    7.7924    0.1968    0.2109 C   0  0  0  0  0  0  0  0  0  0  0  0
    6.9883    0.2608    1.4065 O   0  0  0  0  0  0  0  0  0  0  0  0
   -4.2640    0.4601   -0.7501 C   0  0  0  0  0  0  0  0  0  0  0  0
   -4.6166    1.5692    0.2479 C   0  0  0  0  0  0  0  0  0  0  0  0
   -3.3465    1.0342   -1.8369 C   0  0  0  0  0  0  0  0  0  0  0  0
   -5.4943    0.0898   -1.3950 O   0  0  0  0  0  0  0  0  0  0  0  0
   -4.1895   -2.4043    1.3089 H   0  0  0  0  0  0  0  0  0  0  0  0
   -4.8040   -0.8314    1.8045 H   0  0  0  0  0  0  0  0  0  0  0  0
   -5.5755   -1.7055    0.4636 H   0  0  0  0  0  0  0  0  0  0  0  0
   -3.4654   -1.5504   -0.8423 H   0  0  0  0  0  0  0  0  0  0  0  0
   -2.4173    0.0582    1.4366 H   0  0  0  0  0  0  0  0  0  0  0  0
   -0.3202   -0.2763    1.8176 H   0  0  0  0  0  0  0  0  0  0  0  0
    4.5672    0.2106    2.6964 H   0  0  0  0  0  0  0  0  0  0  0  0
    4.6216   -0.2978   -2.3008 H   0  0  0  0  0  0  0  0  0  0  0  0
    8.4937   -0.6404    0.3038 H   0  0  0  0  0  0  0  0  0  0  0  0
    8.3646    1.1275    0.1224 H   0  0  0  0  0  0  0  0  0  0  0  0
   -5.0564    2.4292   -0.2713 H   0  0  0  0  0  0  0  0  0  0  0  0
   -3.7385    1.9194    0.7991 H   0  0  0  0  0  0  0  0  0  0  0  0
   -5.3741    1.2378    0.9655 H   0  0  0  0  0  0  0  0  0  0  0  0
   -3.0836    0.2658   -2.5724 H   0  0  0  0  0  0  0  0  0  0  0  0
   -2.4257    1.4535   -1.4207 H   0  0  0  0  0  0  0  0  0  0  0  0
   -3.8571    1.8276   -2.3955 H   0  0  0  0  0  0  0  0  0  0  0  0
   -5.2738   -0.5165   -2.1249 H   0  0  0  0  0  0  0  0  0  0  0  0
  1  2  1  0
  2  3  1  0
  3  4  1  0
  4  5  2  0
  4  6  1  0
  6  7  1  0
  7  8  2  0
  8  9  1  0
  9 10  2  0
 10 11  1  0
 11 12  2  0
 12 13  1  0
 13 14  2  0
 14 15  1  0
 12 16  1  0
 16 17  1  0
 17 18  1  0
  2 19  1  0
 19 20  1  0
 19 21  1  0
 19 22  1  0
 15  7  1  0
 14  9  1  0
 18 11  1  0
  1 23  1  0
  1 24  1  0
  1 25  1  0
  2 26  1  6
  3 27  1  0
  6 28  1  0
 10 29  1  0
 13 30  1  0
 17 31  1  0
 17 32  1  0
 20 33  1  0
 20 34  1  0
 20 35  1  0
 21 36  1  0
 21 37  1  0
 21 38  1  0
 22 39  1  0
M  END
$$$$
OCNT-2314322
     RDKit          3D

 44 46  0  0  0  0  0  0  0  0999 V2000
    6.1797    1.7717   -2.2446 C   0  0  0  0  0  0  0  0  0  0  0  0
    5.0751    0.8212   -2.6824 C   0  0  0  0  0  0  0  0  0  0  0  0
    4.8041   -0.2233   -1.6426 C   0  0  0  0  0  0  0  0  0  0  0  0
    4.3656    0.0370   -0.4275 N   0  0  0  0  0  0  0  0  0  0  0  0
    4.2010   -1.1399    0.2870 C   0  0  0  0  0  0  0  0  0  0  0  0
    3.7123   -1.0509    1.6873 C   0  0  0  0  0  0  0  0  0  0  0  0
    1.9305   -0.9579    1.7846 S   0  0  0  0  0  0  0  0  0  0  0  0
    1.5950   -0.6669    3.1666 O   0  0  0  0  0  0  0  0  0  0  0  0
    1.3666   -2.1317    1.1334 O   0  0  0  0  0  0  0  0  0  0  0  0
    1.5055    0.4421    0.7933 C   0  0  0  0  0  0  0  0  0  0  0  0
    0.0355    0.7378    0.8736 C   0  0  0  0  0  0  0  0  0  0  0  0
   -0.3324    1.8825    1.1355 O   0  0  0  0  0  0  0  0  0  0  0  0
   -0.7863   -0.3201    0.5212 N   0  0  0  0  0  0  0  0  0  0  0  0
   -2.1941   -0.3158    0.4015 C   0  0  0  0  0  0  0  0  0  0  0  0
   -2.8067   -1.5499    0.0982 C   0  0  0  0  0  0  0  0  0  0  0  0
   -4.1937   -1.6563   -0.0604 C   0  0  0  0  0  0  0  0  0  0  0  0
   -4.9614   -0.5200    0.1045 C   0  0  0  0  0  0  0  0  0  0  0  0
   -6.4416   -0.3713   -0.0441 C   0  0  0  0  0  0  0  0  0  0  0  0
   -6.6801    0.9769    0.6507 C   0  0  0  0  0  0  0  0  0  0  0  0
   -5.3911    1.7933    0.4843 C   0  0  0  0  0  0  0  0  0  0  0  0
   -4.3651    0.7062    0.4052 C   0  0  0  0  0  0  0  0  0  0  0  0
   -2.9877    0.8257    0.5472 C   0  0  0  0  0  0  0  0  0  0  0  0
    4.5221   -2.2858   -0.4121 C   0  0  0  0  0  0  0  0  0  0  0  0
    5.0398   -1.8884   -1.9953 S   0  0  0  0  0  0  0  0  0  0  0  0
    7.1176    1.2337   -2.0693 H   0  0  0  0  0  0  0  0  0  0  0  0
    6.3575    2.5242   -3.0183 H   0  0  0  0  0  0  0  0  0  0  0  0
    5.9155    2.2926   -1.3178 H   0  0  0  0  0  0  0  0  0  0  0  0
    4.1552    1.3890   -2.8575 H   0  0  0  0  0  0  0  0  0  0  0  0
    5.3544    0.3651   -3.6401 H   0  0  0  0  0  0  0  0  0  0  0  0
    4.1095   -0.1596    2.1834 H   0  0  0  0  0  0  0  0  0  0  0  0
    4.0175   -1.9290    2.2667 H   0  0  0  0  0  0  0  0  0  0  0  0
    2.0746    1.3015    1.1606 H   0  0  0  0  0  0  0  0  0  0  0  0
    1.7617    0.2457   -0.2499 H   0  0  0  0  0  0  0  0  0  0  0  0
   -0.3486   -1.2341    0.4094 H   0  0  0  0  0  0  0  0  0  0  0  0
   -2.2038   -2.4481   -0.0212 H   0  0  0  0  0  0  0  0  0  0  0  0
   -4.6467   -2.6097   -0.3082 H   0  0  0  0  0  0  0  0  0  0  0  0
   -6.7186   -0.3250   -1.1042 H   0  0  0  0  0  0  0  0  0  0  0  0
   -6.9940   -1.1745    0.4522 H   0  0  0  0  0  0  0  0  0  0  0  0
   -7.5590    1.4978    0.2577 H   0  0  0  0  0  0  0  0  0  0  0  0
   -6.8606    0.7998    1.7197 H   0  0  0  0  0  0  0  0  0  0  0  0
   -5.4041    2.3679   -0.4481 H   0  0  0  0  0  0  0  0  0  0  0  0
   -5.2271    2.4601    1.3348 H   0  0  0  0  0  0  0  0  0  0  0  0
   -2.5682    1.8005    0.7658 H   0  0  0  0  0  0  0  0  0  0  0  0
    4.4749   -3.3143   -0.0808 H   0  0  0  0  0  0  0  0  0  0  0  0
  1  2  1  0
  2  3  1  0
  3  4  2  0
  4  5  1  0
  5  6  1  0
  6  7  1  0
  7  8  2  0
  7  9  2  0
  7 10  1  0
 10 11  1  0
 11 12  2  0
 11 13  1  0
 13 14  1  0
 14 15  1  0
 15 16  2  0
 16 17  1  0
 17 18  1  0
 18 19  1  0
 19 20  1  0
 20 21  1  0
 21 22  1  0
  5 23  2  0
 23 24  1  0
 24  3  1  0
 22 14  2  0
 21 17  2  0
  1 25  1  0
  1 26  1  0
  1 27  1  0
  2 28  1  0
  2 29  1  0
  6 30  1  0
  6 31  1  0
 10 32  1  0
 10 33  1  0
 13 34  1  0
 15 35  1  0
 16 36  1  0
 18 37  1  0
 18 38  1  0
 19 39  1  0
 19 40  1  0
 20 41  1  0
 20 42  1  0
 22 43  1  0
 23 44  1  0
M  END
$$$$
OCNT-2314323
     RDKit          3D

 43 44  0  0  0  0  0  0  0  0999 V2000
    3.2948    1.0935   -1.8664 C   0  0  0  0  0  0  0  0  0  0  0  0
    2.8521    1.3928   -0.4262 C   0  0  0  0  0  0  0  0  0  0  0  0
    3.0036    2.9120   -0.1740 C   0  0  0  0  0  0  0  0  0  0  0  0
    3.7743    0.7060    0.6079 C   0  0  0  0  0  0  0  0  0  0  0  0
    3.7530   -1.0754    0.6624 S   0  0  0  0  0  0  0  0  0  0  0  0
    4.8938   -1.6109   -0.5930 C   0  0  0  0  0  0  0  0  0  0  0  0
    2.4207   -1.5319    0.3094 O   0  0  0  0  0  0  0  0  0  0  0  0
    4.3329   -1.4590    1.9370 O   0  0  0  0  0  0  0  0  0  0  0  0
    1.4514    0.9732   -0.2320 N   0  0  0  0  0  0  0  0  0  0  0  0
    0.3818    1.4921   -0.9343 C   0  0  0  0  0  0  0  0  0  0  0  0
    0.4104    2.5003   -1.6262 O   0  0  0  0  0  0  0  0  0  0  0  0
   -0.8597    0.7038   -0.7722 C   0  0  0  0  0  0  0  0  0  0  0  0
   -1.4853    0.7534    0.4167 C   0  0  0  0  0  0  0  0  0  0  0  0
   -2.7352    0.0205    0.6194 C   0  0  0  0  0  0  0  0  0  0  0  0
   -3.4038    0.0443    1.8447 C   0  0  0  0  0  0  0  0  0  0  0  0
   -4.6000   -0.6628    2.0022 C   0  0  0  0  0  0  0  0  0  0  0  0
   -5.1470   -1.3957    0.9355 C   0  0  0  0  0  0  0  0  0  0  0  0
   -6.4268   -2.1757    1.1152 C   0  0  0  0  0  0  0  0  0  0  0  0
   -7.2543   -1.6379    2.0536 F   0  0  0  0  0  0  0  0  0  0  0  0
   -6.1981   -3.4588    1.5064 F   0  0  0  0  0  0  0  0  0  0  0  0
   -7.1634   -2.2573   -0.0276 F   0  0  0  0  0  0  0  0  0  0  0  0
   -4.4660   -1.4234   -0.2923 C   0  0  0  0  0  0  0  0  0  0  0  0
   -3.2731   -0.7167   -0.4436 C   0  0  0  0  0  0  0  0  0  0  0  0
   -2.5966   -0.7468   -1.6689 N   0  0  0  0  0  0  0  0  0  0  0  0
   -1.4104   -0.0932   -1.8997 C   0  0  0  0  0  0  0  0  0  0  0  0
   -0.8351   -0.1981   -2.9781 O   0  0  0  0  0  0  0  0  0  0  0  0
    4.3759    1.2203   -1.9876 H   0  0  0  0  0  0  0  0  0  0  0  0
    3.0236    0.0766   -2.1651 H   0  0  0  0  0  0  0  0  0  0  0  0
    2.8061    1.7626   -2.5840 H   0  0  0  0  0  0  0  0  0  0  0  0
    4.0576    3.2130   -0.2029 H   0  0  0  0  0  0  0  0  0  0  0  0
    2.6001    3.1894    0.8068 H   0  0  0  0  0  0  0  0  0  0  0  0
    2.4839    3.5167   -0.9230 H   0  0  0  0  0  0  0  0  0  0  0  0
    3.4709    1.0138    1.6177 H   0  0  0  0  0  0  0  0  0  0  0  0
    4.8209    1.0073    0.4840 H   0  0  0  0  0  0  0  0  0  0  0  0
    5.8444   -1.0946   -0.4488 H   0  0  0  0  0  0  0  0  0  0  0  0
    5.0391   -2.6873   -0.4736 H   0  0  0  0  0  0  0  0  0  0  0  0
    4.4869   -1.4119   -1.5818 H   0  0  0  0  0  0  0  0  0  0  0  0
    1.3168    0.0111    0.0894 H   0  0  0  0  0  0  0  0  0  0  0  0
   -1.0949    1.3462    1.2376 H   0  0  0  0  0  0  0  0  0  0  0  0
   -3.0051    0.6077    2.6854 H   0  0  0  0  0  0  0  0  0  0  0  0
   -5.1084   -0.6382    2.9659 H   0  0  0  0  0  0  0  0  0  0  0  0
   -4.8741   -1.9964   -1.1228 H   0  0  0  0  0  0  0  0  0  0  0  0
   -2.9575   -1.2844   -2.4459 H   0  0  0  0  0  0  0  0  0  0  0  0
  1  2  1  0
  2  3  1  0
  2  4  1  0
  4  5  1  0
  5  6  1  0
  5  7  2  0
  5  8  2  0
  2  9  1  0
  9 10  1  0
 10 11  2  0
 10 12  1  0
 12 13  2  0
 13 14  1  0
 14 15  1  0
 15 16  2  0
 16 17  1  0
 17 18  1  0
 18 19  1  0
 18 20  1  0
 18 21  1  0
 17 22  2  0
 22 23  1  0
 23 24  1  0
 24 25  1  0
 25 26  2  0
 25 12  1  0
 23 14  2  0
  1 27  1  0
  1 28  1  0
  1 29  1  0
  3 30  1  0
  3 31  1  0
  3 32  1  0
  4 33  1  0
  4 34  1  0
  6 35  1  0
  6 36  1  0
  6 37  1  0
  9 38  1  0
 13 39  1  0
 15 40  1  0
 16 41  1  0
 22 42  1  0
 24 43  1  0
M  END
$$$$
OCNT-2314329
     RDKit          3D

 46 48  0  0  0  0  0  0  0  0999 V2000
   -4.8023   -0.5947   -0.9846 C   0  0  0  0  0  0  0  0  0  0  0  0
   -3.7033   -1.5772   -0.5727 C   0  0  0  0  0  0  0  0  0  0  0  0
   -3.9116   -2.9159   -1.2809 C   0  0  0  0  0  0  0  0  0  0  0  0
   -2.3203   -0.9678   -0.8679 C   0  0  0  0  0  0  0  0  0  0  0  0
   -1.1587   -1.8306   -0.3552 C   0  0  0  0  0  0  0  0  0  0  0  0
    0.1430   -1.1535   -0.4226 N   0  0  0  0  0  0  0  0  0  0  0  0
    0.6220   -0.5299    0.8130 C   0  0  0  0  0  0  0  0  0  0  0  0
   -0.0259    0.8044    1.1038 C   0  0  0  0  0  0  0  0  0  0  0  0
    0.3813    1.9666    0.4356 C   0  0  0  0  0  0  0  0  0  0  0  0
   -0.2390    3.1917    0.6957 C   0  0  0  0  0  0  0  0  0  0  0  0
   -1.2760    3.2735    1.6278 C   0  0  0  0  0  0  0  0  0  0  0  0
   -2.0017    4.8187    1.8930 Cl  0  0  0  0  0  0  0  0  0  0  0  0
   -1.6889    2.1233    2.3056 C   0  0  0  0  0  0  0  0  0  0  0  0
   -2.9644    2.1404    3.4709 Cl  0  0  0  0  0  0  0  0  0  0  0  0
   -1.0640    0.8976    2.0454 C   0  0  0  0  0  0  0  0  0  0  0  0
    0.7305   -1.0485   -1.6944 C   0  0  0  0  0  0  0  0  0  0  0  0
    0.1647   -1.5267   -2.6812 O   0  0  0  0  0  0  0  0  0  0  0  0
    2.0190   -0.3532   -1.8886 C   0  0  0  0  0  0  0  0  0  0  0  0
    2.4045    0.1189   -3.1356 C   0  0  0  0  0  0  0  0  0  0  0  0
    3.9378    0.8706   -3.0599 S   0  0  0  0  0  0  0  0  0  0  0  0
    4.0284    0.4843   -1.3955 C   0  0  0  0  0  0  0  0  0  0  0  0
    5.1587    0.8127   -0.5885 C   0  0  0  0  0  0  0  0  0  0  0  0
    6.2110    1.5312   -0.9208 N   0  0  0  0  0  0  0  0  0  0  0  0
    7.0528    1.5777    0.1713 N   0  0  0  0  0  0  0  0  0  0  0  0
    6.4934    0.8856    1.1361 C   0  0  0  0  0  0  0  0  0  0  0  0
    5.2993    0.3965    0.7075 N   0  0  0  0  0  0  0  0  0  0  0  0
    2.9816   -0.1468   -0.8979 N   0  0  0  0  0  0  0  0  0  0  0  0
   -4.6928    0.3555   -0.4507 H   0  0  0  0  0  0  0  0  0  0  0  0
   -5.7931   -0.9964   -0.7483 H   0  0  0  0  0  0  0  0  0  0  0  0
   -4.7682   -0.3861   -2.0593 H   0  0  0  0  0  0  0  0  0  0  0  0
   -3.7917   -1.7423    0.5090 H   0  0  0  0  0  0  0  0  0  0  0  0
   -4.9226   -3.2978   -1.1010 H   0  0  0  0  0  0  0  0  0  0  0  0
   -3.7755   -2.8174   -2.3629 H   0  0  0  0  0  0  0  0  0  0  0  0
   -3.2103   -3.6722   -0.9149 H   0  0  0  0  0  0  0  0  0  0  0  0
   -2.2141   -0.8014   -1.9472 H   0  0  0  0  0  0  0  0  0  0  0  0
   -2.2732    0.0263   -0.4098 H   0  0  0  0  0  0  0  0  0  0  0  0
   -1.0896   -2.7461   -0.9544 H   0  0  0  0  0  0  0  0  0  0  0  0
   -1.3406   -2.1473    0.6781 H   0  0  0  0  0  0  0  0  0  0  0  0
    1.7020   -0.4102    0.8308 H   0  0  0  0  0  0  0  0  0  0  0  0
    0.4234   -1.2283    1.6361 H   0  0  0  0  0  0  0  0  0  0  0  0
    1.1857    1.9330   -0.2957 H   0  0  0  0  0  0  0  0  0  0  0  0
    0.0904    4.0805    0.1621 H   0  0  0  0  0  0  0  0  0  0  0  0
   -1.3976    0.0072    2.5738 H   0  0  0  0  0  0  0  0  0  0  0  0
    1.8557    0.0562   -4.0658 H   0  0  0  0  0  0  0  0  0  0  0  0
    6.8981    0.7137    2.1241 H   0  0  0  0  0  0  0  0  0  0  0  0
    4.6422   -0.1756    1.2161 H   0  0  0  0  0  0  0  0  0  0  0  0
  1  2  1  0
  2  3  1  0
  2  4  1  0
  4  5  1  0
  5  6  1  0
  6  7  1  0
  7  8  1  0
  8  9  1  0
  9 10  2  0
 10 11  1  0
 11 12  1  0
 11 13  2  0
 13 14  1  0
 13 15  1  0
  6 16  1  0
 16 17  2  0
 16 18  1  0
 18 19  2  0
 19 20  1  0
 20 21  1  0
 21 22  1  0
 22 23  2  0
 23 24  1  0
 24 25  2  0
 25 26  1  0
 21 27  2  0
 15  8  2  0
 27 18  1  0
 26 22  1  0
  1 28  1  0
  1 29  1  0
  1 30  1  0
  2 31  1  0
  3 32  1  0
  3 33  1  0
  3 34  1  0
  4 35  1  0
  4 36  1  0
  5 37  1  0
  5 38  1  0
  7 39  1  0
  7 40  1  0
  9 41  1  0
 10 42  1  0
 15 43  1  0
 19 44  1  0
 25 45  1  0
 26 46  1  0
M  END
$$$$
OCNT-2314335
     RDKit          3D

 57 59  0  0  0  0  0  0  0  0999 V2000
    7.7153   -0.1230    1.1847 C   0  0  0  0  0  0  0  0  0  0  0  0
    6.4704    0.4435    0.5652 C   0  0  0  0  0  0  0  0  0  0  0  0
    6.4278    1.7874    0.1778 C   0  0  0  0  0  0  0  0  0  0  0  0
    5.2558    2.3407   -0.3447 C   0  0  0  0  0  0  0  0  0  0  0  0
    5.2194    3.7735   -0.7881 C   0  0  0  0  0  0  0  0  0  0  0  0
    4.1267    1.5248   -0.5007 C   0  0  0  0  0  0  0  0  0  0  0  0
    4.1464    0.1688   -0.1232 C   0  0  0  0  0  0  0  0  0  0  0  0
    2.9552   -0.6079   -0.2968 N   0  0  0  0  0  0  0  0  0  0  0  0
    1.7951    0.0428   -0.5783 N   0  0  0  0  0  0  0  0  0  0  0  0
    0.8247   -0.8795   -0.5884 C   0  0  0  0  0  0  0  0  0  0  0  0
   -0.5870   -0.5091   -0.8267 C   0  0  0  0  0  0  0  0  0  0  0  0
   -0.9239    0.5697   -1.3067 O   0  0  0  0  0  0  0  0  0  0  0  0
   -1.5080   -1.4711   -0.4417 N   0  0  0  0  0  0  0  0  0  0  0  0
   -2.9764   -1.2964   -0.5245 C   0  0  0  0  0  0  0  0  0  0  0  0
   -3.6147   -2.6020    0.0003 C   0  0  0  0  0  0  0  0  0  0  0  0
   -3.3965   -1.1336   -1.9953 C   0  0  0  0  0  0  0  0  0  0  0  0
   -3.4327   -0.0955    0.3800 C   0  0  0  0  0  0  0  0  0  0  0  0
   -4.8924    0.0777    0.5212 N   0  0  0  0  0  0  0  0  0  0  0  0
   -5.2342    0.5761    1.8722 C   0  0  0  0  0  0  0  0  0  0  0  0
   -6.6511    1.1661    1.9133 C   0  0  0  0  0  0  0  0  0  0  0  0
   -6.7960    2.3276    1.0855 O   0  0  0  0  0  0  0  0  0  0  0  0
   -5.8526    2.3674    0.0073 C   0  0  0  0  0  0  0  0  0  0  0  0
   -5.4696    0.9706   -0.5119 C   0  0  0  0  0  0  0  0  0  0  0  0
    1.3762   -2.1623   -0.3739 C   0  0  0  0  0  0  0  0  0  0  0  0
    2.7387   -1.9823   -0.2332 C   0  0  0  0  0  0  0  0  0  0  0  0
    3.7715   -3.0401   -0.1090 C   0  0  0  0  0  0  0  0  0  0  0  0
    5.3209   -0.3535    0.4302 C   0  0  0  0  0  0  0  0  0  0  0  0
    7.6798   -0.0028    2.2718 H   0  0  0  0  0  0  0  0  0  0  0  0
    7.8188   -1.1872    0.9481 H   0  0  0  0  0  0  0  0  0  0  0  0
    8.6083    0.3821    0.8016 H   0  0  0  0  0  0  0  0  0  0  0  0
    7.3124    2.4111    0.2925 H   0  0  0  0  0  0  0  0  0  0  0  0
    5.4843    3.8439   -1.8475 H   0  0  0  0  0  0  0  0  0  0  0  0
    4.2222    4.2018   -0.6420 H   0  0  0  0  0  0  0  0  0  0  0  0
    5.9212    4.3813   -0.2073 H   0  0  0  0  0  0  0  0  0  0  0  0
    3.2247    1.9617   -0.9304 H   0  0  0  0  0  0  0  0  0  0  0  0
   -1.1681   -2.2406    0.1165 H   0  0  0  0  0  0  0  0  0  0  0  0
   -4.7070   -2.5845   -0.0788 H   0  0  0  0  0  0  0  0  0  0  0  0
   -3.3544   -2.7726    1.0515 H   0  0  0  0  0  0  0  0  0  0  0  0
   -3.2561   -3.4699   -0.5662 H   0  0  0  0  0  0  0  0  0  0  0  0
   -4.4837   -1.1864   -2.1147 H   0  0  0  0  0  0  0  0  0  0  0  0
   -3.0602   -0.1803   -2.4144 H   0  0  0  0  0  0  0  0  0  0  0  0
   -2.9633   -1.9281   -2.6148 H   0  0  0  0  0  0  0  0  0  0  0  0
   -3.0017   -0.2922    1.3733 H   0  0  0  0  0  0  0  0  0  0  0  0
   -2.9732    0.8465    0.0568 H   0  0  0  0  0  0  0  0  0  0  0  0
   -5.1634   -0.2522    2.5860 H   0  0  0  0  0  0  0  0  0  0  0  0
   -4.5247    1.3542    2.1841 H   0  0  0  0  0  0  0  0  0  0  0  0
   -6.9072    1.4598    2.9364 H   0  0  0  0  0  0  0  0  0  0  0  0
   -7.3919    0.4241    1.5929 H   0  0  0  0  0  0  0  0  0  0  0  0
   -6.3035    2.9553   -0.7988 H   0  0  0  0  0  0  0  0  0  0  0  0
   -4.9639    2.9123    0.3469 H   0  0  0  0  0  0  0  0  0  0  0  0
   -6.3813    0.4795   -0.8743 H   0  0  0  0  0  0  0  0  0  0  0  0
   -4.8111    1.0843   -1.3784 H   0  0  0  0  0  0  0  0  0  0  0  0
    0.8629   -3.1137   -0.3783 H   0  0  0  0  0  0  0  0  0  0  0  0
    4.6246   -2.8515   -0.7673 H   0  0  0  0  0  0  0  0  0  0  0  0
    4.1102   -3.1366    0.9267 H   0  0  0  0  0  0  0  0  0  0  0  0
    3.3586   -4.0123   -0.4021 H   0  0  0  0  0  0  0  0  0  0  0  0
    5.3778   -1.3673    0.8026 H   0  0  0  0  0  0  0  0  0  0  0  0
  1  2  1  0
  2  3  1  0
  3  4  2  0
  4  5  1  0
  4  6  1  0
  6  7  2  0
  7  8  1  0
  8  9  1  0
  9 10  2  0
 10 11  1  0
 11 12  2  0
 11 13  1  0
 13 14  1  0
 14 15  1  0
 14 16  1  0
 14 17  1  0
 17 18  1  0
 18 19  1  0
 19 20  1  0
 20 21  1  0
 21 22  1  0
 22 23  1  0
 10 24  1  0
 24 25  2  0
 25 26  1  0
  7 27  1  0
 27  2  2  0
 25  8  1  0
 23 18  1  0
  1 28  1  0
  1 29  1  0
  1 30  1  0
  3 31  1  0
  5 32  1  0
  5 33  1  0
  5 34  1  0
  6 35  1  0
 13 36  1  0
 15 37  1  0
 15 38  1  0
 15 39  1  0
 16 40  1  0
 16 41  1  0
 16 42  1  0
 17 43  1  0
 17 44  1  0
 19 45  1  0
 19 46  1  0
 20 47  1  0
 20 48  1  0
 22 49  1  0
 22 50  1  0
 23 51  1  0
 23 52  1  0
 24 53  1  0
 26 54  1  0
 26 55  1  0
 26 56  1  0
 27 57  1  0
M  END
$$$$
OCNT-2314356
     RDKit          3D

 41 44  0  0  0  0  0  0  0  0999 V2000
    0.0066   -1.8060   -2.3559 O   0  0  0  0  0  0  0  0  0  0  0  0
    0.0109   -0.8564   -1.5795 C   0  0  0  0  0  0  0  0  0  0  0  0
   -1.1047   -0.1030   -1.2928 N   0  0  0  0  0  0  0  0  0  0  0  0
   -2.3600   -0.3294   -1.9595 C   0  0  0  0  0  0  0  0  0  0  0  0
   -3.3978    0.5174   -1.3085 C   0  0  0  0  0  0  0  0  0  0  0  0
   -3.7664    1.7979   -1.6782 C   0  0  0  0  0  0  0  0  0  0  0  0
   -4.7495    2.2282   -0.8293 N   0  0  0  0  0  0  0  0  0  0  0  0
   -5.0353    1.2554    0.1000 C   0  0  0  0  0  0  0  0  0  0  0  0
   -5.9601    1.2594    1.1528 C   0  0  0  0  0  0  0  0  0  0  0  0
   -6.0316    0.1155    1.9516 C   0  0  0  0  0  0  0  0  0  0  0  0
   -5.2089   -0.9743    1.6981 C   0  0  0  0  0  0  0  0  0  0  0  0
   -5.2993   -2.0569    2.4831 F   0  0  0  0  0  0  0  0  0  0  0  0
   -4.2909   -0.9719    0.6485 C   0  0  0  0  0  0  0  0  0  0  0  0
   -4.2011    0.1690   -0.1740 C   0  0  0  0  0  0  0  0  0  0  0  0
    1.2597   -0.4384   -0.8803 C   0  0  0  0  0  0  0  0  0  0  0  0
    2.4400   -1.1408   -1.0527 C   0  0  0  0  0  0  0  0  0  0  0  0
    3.5786   -0.7040   -0.3736 C   0  0  0  0  0  0  0  0  0  0  0  0
    3.4664    0.4351    0.4245 C   0  0  0  0  0  0  0  0  0  0  0  0
    4.6299    0.9622    1.2183 C   0  0  0  0  0  0  0  0  0  0  0  0
    5.9778    0.4559    0.7091 C   0  0  0  0  0  0  0  0  0  0  0  0
    5.9311   -1.0531    0.4954 C   0  0  0  0  0  0  0  0  0  0  0  0
    4.8911   -1.4149   -0.5650 C   0  0  0  0  0  0  0  0  0  0  0  0
    2.2902    1.0921    0.5703 N   0  0  0  0  0  0  0  0  0  0  0  0
    1.1755    0.6561   -0.0878 N   0  0  0  0  0  0  0  0  0  0  0  0
   -0.9950    0.7095   -0.6929 H   0  0  0  0  0  0  0  0  0  0  0  0
   -2.6123   -1.3939   -1.9053 H   0  0  0  0  0  0  0  0  0  0  0  0
   -2.2391   -0.0671   -3.0164 H   0  0  0  0  0  0  0  0  0  0  0  0
   -3.4092    2.4367   -2.4755 H   0  0  0  0  0  0  0  0  0  0  0  0
   -5.2019    3.1312   -0.8715 H   0  0  0  0  0  0  0  0  0  0  0  0
   -6.5984    2.1152    1.3470 H   0  0  0  0  0  0  0  0  0  0  0  0
   -6.7317    0.0697    2.7805 H   0  0  0  0  0  0  0  0  0  0  0  0
   -3.6613   -1.8393    0.4818 H   0  0  0  0  0  0  0  0  0  0  0  0
    2.4697   -2.0092   -1.7037 H   0  0  0  0  0  0  0  0  0  0  0  0
    4.6235    2.0581    1.2000 H   0  0  0  0  0  0  0  0  0  0  0  0
    4.4944    0.6508    2.2614 H   0  0  0  0  0  0  0  0  0  0  0  0
    6.7633    0.7117    1.4289 H   0  0  0  0  0  0  0  0  0  0  0  0
    6.2318    0.9528   -0.2358 H   0  0  0  0  0  0  0  0  0  0  0  0
    6.9153   -1.4228    0.1870 H   0  0  0  0  0  0  0  0  0  0  0  0
    5.6842   -1.5488    1.4429 H   0  0  0  0  0  0  0  0  0  0  0  0
    4.7344   -2.5001   -0.5506 H   0  0  0  0  0  0  0  0  0  0  0  0
    5.2798   -1.1496   -1.5562 H   0  0  0  0  0  0  0  0  0  0  0  0
  1  2  2  0
  2  3  1  0
  3  4  1  0
  4  5  1  0
  5  6  2  0
  6  7  1  0
  7  8  1  0
  8  9  2  0
  9 10  1  0
 10 11  2  0
 11 12  1  0
 11 13  1  0
 13 14  2  0
  2 15  1  0
 15 16  2  0
 16 17  1  0
 17 18  2  0
 18 19  1  0
 19 20  1  0
 20 21  1  0
 21 22  1  0
 18 23  1  0
 23 24  2  0
 14  5  1  0
 24 15  1  0
 14  8  1  0
 22 17  1  0
  3 25  1  0
  4 26  1  0
  4 27  1  0
  6 28  1  0
  7 29  1  0
  9 30  1  0
 10 31  1  0
 13 32  1  0
 16 33  1  0
 19 34  1  0
 19 35  1  0
 20 36  1  0
 20 37  1  0
 21 38  1  0
 21 39  1  0
 22 40  1  0
 22 41  1  0
M  END
$$$$
OCNT-2314360
     RDKit          3D

 52 55  0  0  0  0  0  0  0  0999 V2000
    7.1014   -0.1274    0.5307 C   0  0  0  0  0  0  0  0  0  0  0  0
    6.2363    0.7222   -0.3249 C   0  0  0  0  0  0  0  0  0  0  0  0
    6.7697    1.6981   -1.0710 N   0  0  0  0  0  0  0  0  0  0  0  0
    5.7122    2.2414   -1.6977 N   0  0  0  0  0  0  0  0  0  0  0  0
    4.5112    1.6683   -1.3738 C   0  0  0  0  0  0  0  0  0  0  0  0
    3.2066    1.9467   -1.7955 C   0  0  0  0  0  0  0  0  0  0  0  0
    2.1850    1.1539   -1.2613 C   0  0  0  0  0  0  0  0  0  0  0  0
    2.4712    0.1294   -0.3496 C   0  0  0  0  0  0  0  0  0  0  0  0
    1.3827   -0.7127    0.2017 C   0  0  0  0  0  0  0  0  0  0  0  0
    1.5233   -1.9251    0.2969 O   0  0  0  0  0  0  0  0  0  0  0  0
    0.2539   -0.0340    0.5932 N   0  0  0  0  0  0  0  0  0  0  0  0
   -0.8849   -0.6838    1.2212 C   0  0  0  0  0  0  0  0  0  0  0  0
   -1.9200   -1.2604    0.2279 C   0  0  0  0  0  0  0  0  0  0  0  0
   -2.4050   -0.1886   -0.8042 C   0  0  0  0  0  0  0  0  0  0  0  0
   -3.0517    1.0664   -0.2559 C   0  0  0  0  0  0  0  0  0  0  0  0
   -4.4261    1.0916    0.0309 C   0  0  0  0  0  0  0  0  0  0  0  0
   -5.0291    2.2507    0.5240 C   0  0  0  0  0  0  0  0  0  0  0  0
   -4.2605    3.3889    0.7261 C   0  0  0  0  0  0  0  0  0  0  0  0
   -4.8378    4.4999    1.1974 F   0  0  0  0  0  0  0  0  0  0  0  0
   -2.9029    3.3944    0.4336 C   0  0  0  0  0  0  0  0  0  0  0  0
   -2.3011    2.2374   -0.0644 C   0  0  0  0  0  0  0  0  0  0  0  0
   -3.0854   -1.8962    1.0198 C   0  0  0  0  0  0  0  0  0  0  0  0
   -3.7624   -2.8580    0.0453 C   0  0  0  0  0  0  0  0  0  0  0  0
   -2.6928   -3.2453   -0.9773 C   0  0  0  0  0  0  0  0  0  0  0  0
   -1.4185   -2.5103   -0.5459 C   0  0  0  0  0  0  0  0  0  0  0  0
   -0.6928   -3.4069    0.2923 O   0  0  0  0  0  0  0  0  0  0  0  0
    3.7897   -0.1456    0.0440 C   0  0  0  0  0  0  0  0  0  0  0  0
    4.8239    0.6537   -0.4749 C   0  0  0  0  0  0  0  0  0  0  0  0
    6.8150   -0.0241    1.5828 H   0  0  0  0  0  0  0  0  0  0  0  0
    7.0048   -1.1807    0.2494 H   0  0  0  0  0  0  0  0  0  0  0  0
    8.1553    0.1521    0.4389 H   0  0  0  0  0  0  0  0  0  0  0  0
    5.8791    3.0079   -2.3381 H   0  0  0  0  0  0  0  0  0  0  0  0
    2.9916    2.7355   -2.5116 H   0  0  0  0  0  0  0  0  0  0  0  0
    1.1630    1.3259   -1.5898 H   0  0  0  0  0  0  0  0  0  0  0  0
    0.3130    0.9717    0.6723 H   0  0  0  0  0  0  0  0  0  0  0  0
   -0.5058   -1.4594    1.8993 H   0  0  0  0  0  0  0  0  0  0  0  0
   -1.3578    0.0727    1.8594 H   0  0  0  0  0  0  0  0  0  0  0  0
   -1.5555    0.1110   -1.4333 H   0  0  0  0  0  0  0  0  0  0  0  0
   -3.1160   -0.6287   -1.5153 H   0  0  0  0  0  0  0  0  0  0  0  0
   -5.0418    0.2101   -0.1367 H   0  0  0  0  0  0  0  0  0  0  0  0
   -6.0916    2.2720    0.7461 H   0  0  0  0  0  0  0  0  0  0  0  0
   -2.3252    4.3008    0.5874 H   0  0  0  0  0  0  0  0  0  0  0  0
   -1.2456    2.2658   -0.3178 H   0  0  0  0  0  0  0  0  0  0  0  0
   -3.7861   -1.1735    1.4412 H   0  0  0  0  0  0  0  0  0  0  0  0
   -2.6969   -2.4765    1.8674 H   0  0  0  0  0  0  0  0  0  0  0  0
   -4.1579   -3.7348    0.5672 H   0  0  0  0  0  0  0  0  0  0  0  0
   -4.6041   -2.3729   -0.4604 H   0  0  0  0  0  0  0  0  0  0  0  0
   -2.5581   -4.3324   -1.0069 H   0  0  0  0  0  0  0  0  0  0  0  0
   -3.0083   -2.9209   -1.9747 H   0  0  0  0  0  0  0  0  0  0  0  0
   -0.7941   -2.2646   -1.4103 H   0  0  0  0  0  0  0  0  0  0  0  0
    0.2230   -3.0512    0.3599 H   0  0  0  0  0  0  0  0  0  0  0  0
    4.0039   -0.9547    0.7397 H   0  0  0  0  0  0  0  0  0  0  0  0
  1  2  1  0
  2  3  2  0
  3  4  1  0
  4  5  1  0
  5  6  2  0
  6  7  1  0
  7  8  2  0
  8  9  1  0
  9 10  2  0
  9 11  1  0
 11 12  1  0
 12 13  1  0
 13 14  1  0
 14 15  1  0
 15 16  1  0
 16 17  2  0
 17 18  1  0
 18 19  1  0
 18 20  2  0
 20 21  1  0
 13 22  1  0
 22 23  1  0
 23 24  1  0
 24 25  1  0
 25 26  1  0
  8 27  1  0
 27 28  2  0
 28  2  1  0
 28  5  1  0
 25 13  1  0
 21 15  2  0
  1 29  1  0
  1 30  1  0
  1 31  1  0
  4 32  1  0
  6 33  1  0
  7 34  1  0
 11 35  1  0
 12 36  1  0
 12 37  1  0
 14 38  1  0
 14 39  1  0
 16 40  1  0
 17 41  1  0
 20 42  1  0
 21 43  1  0
 22 44  1  0
 22 45  1  0
 23 46  1  0
 23 47  1  0
 24 48  1  0
 24 49  1  0
 25 50  1  0
 26 51  1  0
 27 52  1  0
M  END
$$$$
OCNT-2314369
     RDKit          3D

  0  0  0  0  0  0  0  0  0  0999 V3000
M  V30 BEGIN CTAB
M  V30 COUNTS 43 47 0 0 0
M  V30 BEGIN ATOM
M  V30 1 C 6.310947 1.488108 -0.882145 0
M  V30 2 N 5.953484 0.155245 -0.458399 0
M  V30 3 N 6.918537 -0.770801 -0.290759 0
M  V30 4 C 6.244821 -1.856462 0.095854 0
M  V30 5 C 4.852627 -1.635791 0.176430 0
M  V30 6 C 3.726642 -2.402657 0.516864 0
M  V30 7 C 2.459966 -1.800961 0.472985 0
M  V30 8 C 2.297533 -0.458179 0.098408 0
M  V30 9 C 0.961091 0.131312 0.064594 0
M  V30 10 N 0.708887 1.405735 -0.277786 0
M  V30 11 O -0.672376 1.516027 -0.165948 0
M  V30 12 C -1.133301 0.291949 0.226096 0
M  V30 13 C -2.608834 0.160758 0.437117 0 CFG=2
M  V30 14 C -3.015995 -1.324361 0.562547 0
M  V30 15 N -4.282114 -1.452809 -0.168032 0
M  V30 16 C -4.111436 -0.602991 -1.336759 0
M  V30 17 C -3.414923 0.649752 -0.797719 0 CFG=1
M  V30 18 C -4.401918 1.762763 -0.420258 0
M  V30 19 C -5.181736 1.465721 0.856387 0
M  V30 20 O -4.392096 0.999606 1.947778 0
M  V30 21 C -2.990647 0.956295 1.702451 0
M  V30 22 N -0.171315 -0.587418 0.389249 0
M  V30 23 C 3.425304 0.311841 -0.242652 0
M  V30 24 C 4.685804 -0.305018 -0.193605 0
M  V30 25 H 5.971941 2.194990 -0.120849 0
M  V30 26 H 7.395865 1.558085 -0.996157 0
M  V30 27 H 5.823190 1.687578 -1.839460 0
M  V30 28 H 6.792580 -2.766162 0.303748 0
M  V30 29 H 3.829052 -3.443464 0.809915 0
M  V30 30 H 1.591270 -2.402086 0.738920 0
M  V30 31 H -2.282410 -1.997356 0.100859 0
M  V30 32 H -3.140909 -1.642756 1.602860 0
M  V30 33 H -4.447693 -2.422490 -0.435295 0
M  V30 34 H -5.069207 -0.386354 -1.819114 0
M  V30 35 H -3.469088 -1.104826 -2.071107 0
M  V30 36 H -2.766226 1.039879 -1.592762 0
M  V30 37 H -3.828112 2.686831 -0.270018 0
M  V30 38 H -5.095949 1.964565 -1.244272 0
M  V30 39 H -5.955457 0.714218 0.666893 0
M  V30 40 H -5.703382 2.370310 1.187323 0
M  V30 41 H -2.620526 1.989321 1.659262 0
M  V30 42 H -2.521933 0.508627 2.587644 0
M  V30 43 H 3.328043 1.353423 -0.535611 0
M  V30 END ATOM
M  V30 BEGIN BOND
M  V30 1 1 1 2
M  V30 2 1 2 3
M  V30 3 2 3 4
M  V30 4 1 4 5
M  V30 5 2 5 6
M  V30 6 1 6 7
M  V30 7 2 7 8
M  V30 8 1 8 9
M  V30 9 2 9 10
M  V30 10 1 10 11
M  V30 11 1 11 12
M  V30 12 1 13 12 CFG=3
M  V30 13 1 13 14
M  V30 14 1 14 15
M  V30 15 1 15 16
M  V30 16 1 16 17
M  V30 17 1 17 18
M  V30 18 1 18 19
M  V30 19 1 19 20
M  V30 20 1 20 21
M  V30 21 2 12 22
M  V30 22 1 8 23
M  V30 23 2 23 24
M  V30 24 1 24 2
M  V30 25 1 24 5
M  V30 26 1 22 9
M  V30 27 1 17 13
M  V30 28 1 21 13
M  V30 29 1 1 25
M  V30 30 1 1 26
M  V30 31 1 1 27
M  V30 32 1 4 28
M  V30 33 1 6 29
M  V30 34 1 7 30
M  V30 35 1 14 31
M  V30 36 1 14 32
M  V30 37 1 15 33
M  V30 38 1 16 34
M  V30 39 1 16 35
M  V30 40 1 17 36 CFG=3
M  V30 41 1 18 37
M  V30 42 1 18 38
M  V30 43 1 19 39
M  V30 44 1 19 40
M  V30 45 1 21 41
M  V30 46 1 21 42
M  V30 47 1 23 43
M  V30 END BOND
M  V30 BEGIN COLLECTION
M  V30 MDLV30/STERAC1 ATOMS=(2 13 17)
M  V30 END COLLECTION
M  V30 END CTAB
M  END
>  <_CXSMILES_Data>  (840) 
|&1:12,16|

$$$$
OCNT-2314373
     RDKit          3D

 32 34  0  0  0  0  0  0  0  0999 V2000
    3.9847    1.9454    0.4290 C   0  0  0  0  0  0  0  0  0  0  0  0
    4.1026    0.5767   -0.0089 N   0  0  0  0  0  0  0  0  0  0  0  0
    5.2729   -0.0659   -0.3084 C   0  0  0  0  0  0  0  0  0  0  0  0
    4.8978   -1.3360   -0.6744 C   0  0  0  0  0  0  0  0  0  0  0  0
    3.5369   -1.4803   -0.6051 N   0  0  0  0  0  0  0  0  0  0  0  0
    3.0730   -0.3117   -0.2003 C   0  0  0  0  0  0  0  0  0  0  0  0
    1.5639   -0.0186    0.0183 C   0  0  0  0  0  0  0  0  0  0  0  0
    0.5509   -0.9231   -0.1802 C   0  0  0  0  0  0  0  0  0  0  0  0
   -0.6016   -0.2382    0.1305 N   0  0  0  0  0  0  0  0  0  0  0  0
   -1.9474   -0.7038    0.0857 C   0  0  0  0  0  0  0  0  0  0  0  0
   -2.2104   -2.0188   -0.3407 C   0  0  0  0  0  0  0  0  0  0  0  0
   -3.5196   -2.5087   -0.3805 C   0  0  0  0  0  0  0  0  0  0  0  0
   -4.5817   -1.7013    0.0121 C   0  0  0  0  0  0  0  0  0  0  0  0
   -4.3391   -0.3976    0.4365 C   0  0  0  0  0  0  0  0  0  0  0  0
   -3.0336    0.1130    0.4524 C   0  0  0  0  0  0  0  0  0  0  0  0
   -2.8670    1.3869    0.9240 O   0  0  0  0  0  0  0  0  0  0  0  0
   -3.1686    2.3562   -0.0759 C   0  0  0  0  0  0  0  0  0  0  0  0
   -2.7242    3.5653    0.3309 F   0  0  0  0  0  0  0  0  0  0  0  0
   -4.5068    2.4451   -0.2540 F   0  0  0  0  0  0  0  0  0  0  0  0
   -2.5888    2.0607   -1.2601 F   0  0  0  0  0  0  0  0  0  0  0  0
   -0.2728    1.0273    0.5019 N   0  0  0  0  0  0  0  0  0  0  0  0
    1.0438    1.1666    0.4336 N   0  0  0  0  0  0  0  0  0  0  0  0
    4.9793    2.3958    0.4859 H   0  0  0  0  0  0  0  0  0  0  0  0
    3.5227    1.9578    1.4192 H   0  0  0  0  0  0  0  0  0  0  0  0
    3.3780    2.4940   -0.2957 H   0  0  0  0  0  0  0  0  0  0  0  0
    6.2398    0.4126   -0.2400 H   0  0  0  0  0  0  0  0  0  0  0  0
    5.5356   -2.1538   -0.9841 H   0  0  0  0  0  0  0  0  0  0  0  0
    0.5797   -1.9507   -0.5034 H   0  0  0  0  0  0  0  0  0  0  0  0
   -1.4199   -2.6972   -0.6496 H   0  0  0  0  0  0  0  0  0  0  0  0
   -3.7075   -3.5281   -0.7111 H   0  0  0  0  0  0  0  0  0  0  0  0
   -5.5977   -2.0884   -0.0054 H   0  0  0  0  0  0  0  0  0  0  0  0
   -5.1748    0.2189    0.7616 H   0  0  0  0  0  0  0  0  0  0  0  0
  1  2  1  0
  2  3  1  0
  3  4  2  0
  4  5  1  0
  5  6  2  0
  6  7  1  0
  7  8  2  0
  8  9  1  0
  9 10  1  0
 10 11  2  0
 11 12  1  0
 12 13  2  0
 13 14  1  0
 14 15  2  0
 15 16  1  0
 16 17  1  0
 17 18  1  0
 17 19  1  0
 17 20  1  0
  9 21  1  0
 21 22  2  0
  6  2  1  0
 22  7  1  0
 15 10  1  0
  1 23  1  0
  1 24  1  0
  1 25  1  0
  3 26  1  0
  4 27  1  0
  8 28  1  0
 11 29  1  0
 12 30  1  0
 13 31  1  0
 14 32  1  0
M  END
$$$$
OCNT-2314381
     RDKit          3D

 46 49  0  0  0  0  0  0  0  0999 V2000
    4.3391   -3.1197    0.8191 C   0  0  0  0  0  0  0  0  0  0  0  0
    3.6882   -2.0295    0.1348 N   0  0  0  0  0  0  0  0  0  0  0  0
    2.3569   -1.9044   -0.1356 C   0  0  0  0  0  0  0  0  0  0  0  0
    2.2065   -0.7039   -0.8034 C   0  0  0  0  0  0  0  0  0  0  0  0
    0.9575   -0.0736   -1.3362 C   0  0  0  0  0  0  0  0  0  0  0  0
    0.2166    0.8249   -0.4428 N   0  0  0  0  0  0  0  0  0  0  0  0
   -0.3603    0.2794    0.7984 C   0  0  0  0  0  0  0  0  0  0  0  0
   -1.2798   -0.9356    0.5854 C   0  0  0  0  0  0  0  0  0  0  0  0
   -1.6976   -1.5609    1.9385 C   0  0  0  0  0  0  0  0  0  0  0  0
   -3.0150   -2.3033    1.6831 C   0  0  0  0  0  0  0  0  0  0  0  0
   -3.6150   -1.4513    0.6098 C   0  0  0  0  0  0  0  0  0  0  0  0
   -4.9380   -1.4160    0.2006 C   0  0  0  0  0  0  0  0  0  0  0  0
   -5.2851   -0.5594   -0.8449 C   0  0  0  0  0  0  0  0  0  0  0  0
   -4.3119    0.2350   -1.4687 C   0  0  0  0  0  0  0  0  0  0  0  0
   -2.9776    0.1823   -1.0577 C   0  0  0  0  0  0  0  0  0  0  0  0
   -2.6375   -0.6620   -0.0126 C   0  0  0  0  0  0  0  0  0  0  0  0
    0.7941    2.0901   -0.3048 C   0  0  0  0  0  0  0  0  0  0  0  0
    0.5791    2.7963    0.8188 N   0  0  0  0  0  0  0  0  0  0  0  0
    1.1154    4.0253    0.9265 C   0  0  0  0  0  0  0  0  0  0  0  0
    1.8679    4.6024   -0.0566 C   0  0  0  0  0  0  0  0  0  0  0  0
    2.0363    3.8247   -1.1744 C   0  0  0  0  0  0  0  0  0  0  0  0
    2.8017    4.3079   -2.2887 C   0  0  0  0  0  0  0  0  0  0  0  0
    3.4291    4.7336   -3.1693 N   0  0  0  0  0  0  0  0  0  0  0  0
    1.5174    2.5867   -1.3179 N   0  0  0  0  0  0  0  0  0  0  0  0
    3.5226   -0.1941   -0.8838 C   0  0  0  0  0  0  0  0  0  0  0  0
    4.4229   -0.9972   -0.3122 N   0  0  0  0  0  0  0  0  0  0  0  0
    3.5932   -3.8632    1.1107 H   0  0  0  0  0  0  0  0  0  0  0  0
    4.8360   -2.7216    1.7073 H   0  0  0  0  0  0  0  0  0  0  0  0
    5.0672   -3.5683    0.1388 H   0  0  0  0  0  0  0  0  0  0  0  0
    1.6424   -2.6599    0.1586 H   0  0  0  0  0  0  0  0  0  0  0  0
    0.2843   -0.8798   -1.6539 H   0  0  0  0  0  0  0  0  0  0  0  0
    1.1888    0.4243   -2.2885 H   0  0  0  0  0  0  0  0  0  0  0  0
   -0.9600    1.0461    1.3081 H   0  0  0  0  0  0  0  0  0  0  0  0
    0.4538    0.0004    1.4805 H   0  0  0  0  0  0  0  0  0  0  0  0
   -0.7936   -1.7143   -0.0118 H   0  0  0  0  0  0  0  0  0  0  0  0
   -0.9248   -2.2233    2.3427 H   0  0  0  0  0  0  0  0  0  0  0  0
   -1.8705   -0.7723    2.6847 H   0  0  0  0  0  0  0  0  0  0  0  0
   -3.6329   -2.3409    2.5846 H   0  0  0  0  0  0  0  0  0  0  0  0
   -2.8355   -3.3155    1.3065 H   0  0  0  0  0  0  0  0  0  0  0  0
   -5.6898   -2.0356    0.6785 H   0  0  0  0  0  0  0  0  0  0  0  0
   -6.3173   -0.5085   -1.1822 H   0  0  0  0  0  0  0  0  0  0  0  0
   -4.5976    0.8953   -2.2839 H   0  0  0  0  0  0  0  0  0  0  0  0
   -2.2320    0.7952   -1.5545 H   0  0  0  0  0  0  0  0  0  0  0  0
    0.9076    4.5411    1.8594 H   0  0  0  0  0  0  0  0  0  0  0  0
    2.2902    5.5923    0.0455 H   0  0  0  0  0  0  0  0  0  0  0  0
    3.8569    0.7310   -1.3366 H   0  0  0  0  0  0  0  0  0  0  0  0
  1  2  1  0
  2  3  1  0
  3  4  2  0
  4  5  1  0
  5  6  1  0
  6  7  1  0
  7  8  1  0
  8  9  1  0
  9 10  1  0
 10 11  1  0
 11 12  2  0
 12 13  1  0
 13 14  2  0
 14 15  1  0
 15 16  2  0
  6 17  1  0
 17 18  2  0
 18 19  1  0
 19 20  2  0
 20 21  1  0
 21 22  1  0
 22 23  3  0
 21 24  2  0
  4 25  1  0
 25 26  2  0
 26  2  1  0
 16  8  1  0
 24 17  1  0
 16 11  1  0
  1 27  1  0
  1 28  1  0
  1 29  1  0
  3 30  1  0
  5 31  1  0
  5 32  1  0
  7 33  1  0
  7 34  1  0
  8 35  1  0
  9 36  1  0
  9 37  1  0
 10 38  1  0
 10 39  1  0
 12 40  1  0
 13 41  1  0
 14 42  1  0
 15 43  1  0
 19 44  1  0
 20 45  1  0
 25 46  1  0
M  END
$$$$
OCNT-2314399
     RDKit          3D

 35 37  0  0  0  0  0  0  0  0999 V2000
    5.4408    1.8579    1.0803 O   0  0  0  0  0  0  0  0  0  0  0  0
    4.7631    0.9531    0.6007 C   0  0  0  0  0  0  0  0  0  0  0  0
    3.9388    1.1395   -0.6492 C   0  0  0  0  0  0  0  0  0  0  0  0
    3.5607   -0.1993   -1.2624 C   0  0  0  0  0  0  0  0  0  0  0  0
    2.8422   -1.0759   -0.2366 C   0  0  0  0  0  0  0  0  0  0  0  0
    1.5197   -0.5803    0.1233 N   0  0  0  0  0  0  0  0  0  0  0  0
    0.4540   -0.6590   -0.7440 C   0  0  0  0  0  0  0  0  0  0  0  0
    0.5820   -0.9993   -1.9161 O   0  0  0  0  0  0  0  0  0  0  0  0
   -0.8935   -0.3165   -0.2162 C   0  0  0  0  0  0  0  0  0  0  0  0
   -1.9812   -0.3240   -1.0928 C   0  0  0  0  0  0  0  0  0  0  0  0
   -3.2662   -0.0064   -0.6282 C   0  0  0  0  0  0  0  0  0  0  0  0
   -4.3788   -0.0044   -1.4849 C   0  0  0  0  0  0  0  0  0  0  0  0
   -5.6329    0.3163   -0.9833 C   0  0  0  0  0  0  0  0  0  0  0  0
   -6.6922    0.3178   -1.8018 F   0  0  0  0  0  0  0  0  0  0  0  0
   -5.8005    0.6350    0.3553 C   0  0  0  0  0  0  0  0  0  0  0  0
   -4.6908    0.6317    1.2051 C   0  0  0  0  0  0  0  0  0  0  0  0
   -3.4194    0.3161    0.7402 C   0  0  0  0  0  0  0  0  0  0  0  0
   -2.3825    0.3255    1.5946 N   0  0  0  0  0  0  0  0  0  0  0  0
   -1.1674    0.0133    1.1006 C   0  0  0  0  0  0  0  0  0  0  0  0
   -0.2101    0.0496    2.0647 O   0  0  0  0  0  0  0  0  0  0  0  0
    3.6715   -1.1911    1.0473 C   0  0  0  0  0  0  0  0  0  0  0  0
    3.3898   -1.9817    1.9475 O   0  0  0  0  0  0  0  0  0  0  0  0
    4.6634   -0.2597    1.2323 N   0  0  0  0  0  0  0  0  0  0  0  0
    4.5309    1.7149   -1.3690 H   0  0  0  0  0  0  0  0  0  0  0  0
    3.0486    1.7230   -0.3910 H   0  0  0  0  0  0  0  0  0  0  0  0
    2.9461   -0.0339   -2.1532 H   0  0  0  0  0  0  0  0  0  0  0  0
    4.4733   -0.7120   -1.5942 H   0  0  0  0  0  0  0  0  0  0  0  0
    2.7252   -2.0847   -0.6505 H   0  0  0  0  0  0  0  0  0  0  0  0
    1.3005   -0.4793    1.1153 H   0  0  0  0  0  0  0  0  0  0  0  0
   -1.8258   -0.5782   -2.1403 H   0  0  0  0  0  0  0  0  0  0  0  0
   -4.2819   -0.2497   -2.5388 H   0  0  0  0  0  0  0  0  0  0  0  0
   -6.7875    0.8834    0.7327 H   0  0  0  0  0  0  0  0  0  0  0  0
   -4.8230    0.8814    2.2555 H   0  0  0  0  0  0  0  0  0  0  0  0
   -0.7601    0.2913    2.8355 H   0  0  0  0  0  0  0  0  0  0  0  0
    5.1434   -0.3142    2.1205 H   0  0  0  0  0  0  0  0  0  0  0  0
  1  2  2  0
  2  3  1  0
  3  4  1  0
  4  5  1  0
  5  6  1  0
  6  7  1  0
  7  8  2  0
  7  9  1  0
  9 10  2  0
 10 11  1  0
 11 12  2  0
 12 13  1  0
 13 14  1  0
 13 15  2  0
 15 16  1  0
 16 17  2  0
 17 18  1  0
 18 19  2  0
 19 20  1  0
  5 21  1  0
 21 22  2  0
 21 23  1  0
 23  2  1  0
 19  9  1  0
 17 11  1  0
  3 24  1  0
  3 25  1  0
  4 26  1  0
  4 27  1  0
  5 28  1  0
  6 29  1  0
 10 30  1  0
 12 31  1  0
 15 32  1  0
 16 33  1  0
 20 34  1  0
 23 35  1  0
M  END
$$$$
OCNT-2314402
     RDKit          3D

 41 43  0  0  0  0  0  0  0  0999 V2000
   -5.7073    2.1691   -1.5380 C   0  0  0  0  0  0  0  0  0  0  0  0
   -4.5695    1.4394   -1.0934 O   0  0  0  0  0  0  0  0  0  0  0  0
   -4.6387    0.8852    0.1663 C   0  0  0  0  0  0  0  0  0  0  0  0
   -5.7448    0.9708    1.0178 C   0  0  0  0  0  0  0  0  0  0  0  0
   -5.7075    0.3683    2.2767 C   0  0  0  0  0  0  0  0  0  0  0  0
   -4.5700   -0.3210    2.6880 C   0  0  0  0  0  0  0  0  0  0  0  0
   -3.4605   -0.4122    1.8448 C   0  0  0  0  0  0  0  0  0  0  0  0
   -3.4829    0.1885    0.5848 C   0  0  0  0  0  0  0  0  0  0  0  0
   -2.4060    0.1385   -0.3296 N   0  0  0  0  0  0  0  0  0  0  0  0
   -1.1411   -0.4065   -0.1507 C   0  0  0  0  0  0  0  0  0  0  0  0
   -0.7504   -0.9131    0.8928 O   0  0  0  0  0  0  0  0  0  0  0  0
   -0.4075   -0.2896   -1.3204 N   0  0  0  0  0  0  0  0  0  0  0  0
    0.9005   -0.6902   -1.4926 C   0  0  0  0  0  0  0  0  0  0  0  0
    1.6858   -1.2173   -0.5548 N   0  0  0  0  0  0  0  0  0  0  0  0
    2.8642   -1.4251   -1.1645 N   0  0  0  0  0  0  0  0  0  0  0  0
    3.9707   -2.0076   -0.4186 C   0  0  0  0  0  0  0  0  0  0  0  0
    4.9110   -0.9508    0.0852 C   0  0  0  0  0  0  0  0  0  0  0  0
    4.5394   -0.0679    1.1049 C   0  0  0  0  0  0  0  0  0  0  0  0
    5.4369    0.9010    1.5415 C   0  0  0  0  0  0  0  0  0  0  0  0
    6.6835    0.9560    0.9420 C   0  0  0  0  0  0  0  0  0  0  0  0
    7.0799    0.1231   -0.0447 N   0  0  0  0  0  0  0  0  0  0  0  0
    6.1866   -0.8073   -0.4497 C   0  0  0  0  0  0  0  0  0  0  0  0
    2.8567   -1.0710   -2.4823 C   0  0  0  0  0  0  0  0  0  0  0  0
    1.5945   -0.5821   -2.7248 C   0  0  0  0  0  0  0  0  0  0  0  0
   -5.4887    2.5482   -2.5409 H   0  0  0  0  0  0  0  0  0  0  0  0
   -6.5869    1.5213   -1.6124 H   0  0  0  0  0  0  0  0  0  0  0  0
   -5.9009    3.0317   -0.8919 H   0  0  0  0  0  0  0  0  0  0  0  0
   -6.6504    1.4960    0.7352 H   0  0  0  0  0  0  0  0  0  0  0  0
   -6.5679    0.4354    2.9380 H   0  0  0  0  0  0  0  0  0  0  0  0
   -4.5405   -0.7922    3.6675 H   0  0  0  0  0  0  0  0  0  0  0  0
   -2.5945   -0.9624    2.1992 H   0  0  0  0  0  0  0  0  0  0  0  0
   -2.5941    0.6363   -1.1884 H   0  0  0  0  0  0  0  0  0  0  0  0
   -0.8657    0.0755   -2.1359 H   0  0  0  0  0  0  0  0  0  0  0  0
    4.4762   -2.7134   -1.0881 H   0  0  0  0  0  0  0  0  0  0  0  0
    3.5579   -2.5872    0.4154 H   0  0  0  0  0  0  0  0  0  0  0  0
    3.5475   -0.1273    1.5521 H   0  0  0  0  0  0  0  0  0  0  0  0
    5.1669    1.5976    2.3273 H   0  0  0  0  0  0  0  0  0  0  0  0
    7.4183    1.6950    1.2479 H   0  0  0  0  0  0  0  0  0  0  0  0
    6.5460   -1.4543   -1.2457 H   0  0  0  0  0  0  0  0  0  0  0  0
    3.7266   -1.1819   -3.1139 H   0  0  0  0  0  0  0  0  0  0  0  0
    1.2265   -0.1966   -3.6642 H   0  0  0  0  0  0  0  0  0  0  0  0
  1  2  1  0
  2  3  1  0
  3  4  2  0
  4  5  1  0
  5  6  2  0
  6  7  1  0
  7  8  2  0
  8  9  1  0
  9 10  1  0
 10 11  2  0
 10 12  1  0
 12 13  1  0
 13 14  2  0
 14 15  1  0
 15 16  1  0
 16 17  1  0
 17 18  1  0
 18 19  2  0
 19 20  1  0
 20 21  2  0
 21 22  1  0
 15 23  1  0
 23 24  2  0
  8  3  1  0
 24 13  1  0
 22 17  2  0
  1 25  1  0
  1 26  1  0
  1 27  1  0
  4 28  1  0
  5 29  1  0
  6 30  1  0
  7 31  1  0
  9 32  1  0
 12 33  1  0
 16 34  1  0
 16 35  1  0
 18 36  1  0
 19 37  1  0
 20 38  1  0
 22 39  1  0
 23 40  1  0
 24 41  1  0
M  END
$$$$
OCNT-2314405
     RDKit          3D

 48 51  0  0  0  0  0  0  0  0999 V2000
    4.2639    4.6135    0.3381 C   0  0  0  0  0  0  0  0  0  0  0  0
    3.7741    3.2928    0.0259 N   0  0  0  0  0  0  0  0  0  0  0  0
    2.6928    2.9903   -0.7408 C   0  0  0  0  0  0  0  0  0  0  0  0
    2.6231    1.6216   -0.7693 C   0  0  0  0  0  0  0  0  0  0  0  0
    1.6994    0.8136   -1.4064 N   0  0  0  0  0  0  0  0  0  0  0  0
    0.6099    1.2306   -2.1427 C   0  0  0  0  0  0  0  0  0  0  0  0
    0.3061    2.3940   -2.3974 O   0  0  0  0  0  0  0  0  0  0  0  0
   -0.2315    0.0644   -2.6366 C   0  0  0  0  0  0  0  0  0  0  0  0
   -1.3276   -0.3067   -1.6701 C   0  0  0  0  0  0  0  0  0  0  0  0
   -1.0795   -1.1773   -0.6046 C   0  0  0  0  0  0  0  0  0  0  0  0
   -2.0976   -1.4977    0.3007 C   0  0  0  0  0  0  0  0  0  0  0  0
   -3.3991   -0.9693    0.1880 C   0  0  0  0  0  0  0  0  0  0  0  0
   -4.5334   -1.3541    1.2290 C   0  0  0  0  0  0  0  0  0  0  0  0
   -5.8350   -2.0230    0.7013 C   0  0  0  0  0  0  0  0  0  0  0  0
   -6.5813   -1.2998    1.8410 C   0  0  0  0  0  0  0  0  0  0  0  0
   -5.4584   -0.2441    1.8077 C   0  0  0  0  0  0  0  0  0  0  0  0
   -3.6177   -0.0932   -0.8934 C   0  0  0  0  0  0  0  0  0  0  0  0
   -2.6064    0.2405   -1.8025 C   0  0  0  0  0  0  0  0  0  0  0  0
    3.7261    1.1675    0.0235 C   0  0  0  0  0  0  0  0  0  0  0  0
    4.0872   -0.2317    0.3093 C   0  0  0  0  0  0  0  0  0  0  0  0
    5.1621   -0.5417    1.1385 C   0  0  0  0  0  0  0  0  0  0  0  0
    5.4654   -1.8809    1.3763 C   0  0  0  0  0  0  0  0  0  0  0  0
    4.6909   -2.8698    0.7847 C   0  0  0  0  0  0  0  0  0  0  0  0
    3.6378   -2.4810   -0.0246 C   0  0  0  0  0  0  0  0  0  0  0  0
    3.3127   -1.1921   -0.2776 N   0  0  0  0  0  0  0  0  0  0  0  0
    4.4260    2.2162    0.5005 N   0  0  0  0  0  0  0  0  0  0  0  0
    3.5646    5.3636   -0.0432 H   0  0  0  0  0  0  0  0  0  0  0  0
    5.2411    4.7361   -0.1394 H   0  0  0  0  0  0  0  0  0  0  0  0
    4.3545    4.7033    1.4228 H   0  0  0  0  0  0  0  0  0  0  0  0
    2.0765    3.7549   -1.1929 H   0  0  0  0  0  0  0  0  0  0  0  0
    1.8611   -0.1819   -1.2569 H   0  0  0  0  0  0  0  0  0  0  0  0
    0.4080   -0.8081   -2.8238 H   0  0  0  0  0  0  0  0  0  0  0  0
   -0.6498    0.3305   -3.6156 H   0  0  0  0  0  0  0  0  0  0  0  0
   -0.0926   -1.6129   -0.4589 H   0  0  0  0  0  0  0  0  0  0  0  0
   -1.8709   -2.1756    1.1218 H   0  0  0  0  0  0  0  0  0  0  0  0
   -4.1071   -1.9513    2.0524 H   0  0  0  0  0  0  0  0  0  0  0  0
   -6.1438   -1.7027   -0.2999 H   0  0  0  0  0  0  0  0  0  0  0  0
   -5.8565   -3.1153    0.7445 H   0  0  0  0  0  0  0  0  0  0  0  0
   -7.5847   -0.9412    1.6017 H   0  0  0  0  0  0  0  0  0  0  0  0
   -6.6189   -1.8709    2.7750 H   0  0  0  0  0  0  0  0  0  0  0  0
   -5.1646    0.1570    2.7816 H   0  0  0  0  0  0  0  0  0  0  0  0
   -5.6661    0.5914    1.1308 H   0  0  0  0  0  0  0  0  0  0  0  0
   -4.6040    0.3495   -1.0324 H   0  0  0  0  0  0  0  0  0  0  0  0
   -2.8276    0.9369   -2.6099 H   0  0  0  0  0  0  0  0  0  0  0  0
    5.7571    0.2437    1.5926 H   0  0  0  0  0  0  0  0  0  0  0  0
    6.3002   -2.1461    2.0189 H   0  0  0  0  0  0  0  0  0  0  0  0
    4.9052   -3.9209    0.9516 H   0  0  0  0  0  0  0  0  0  0  0  0
    3.0081   -3.2227   -0.5069 H   0  0  0  0  0  0  0  0  0  0  0  0
  1  2  1  0
  2  3  1  0
  3  4  2  0
  4  5  1  0
  5  6  1  0
  6  7  2  0
  6  8  1  0
  8  9  1  0
  9 10  1  0
 10 11  2  0
 11 12  1  0
 12 13  1  0
 13 14  1  0
 14 15  1  0
 15 16  1  0
 12 17  2  0
 17 18  1  0
  4 19  1  0
 19 20  1  0
 20 21  2  0
 21 22  1  0
 22 23  2  0
 23 24  1  0
 24 25  2  0
 19 26  2  0
 26  2  1  0
 18  9  2  0
 25 20  1  0
 16 13  1  0
  1 27  1  0
  1 28  1  0
  1 29  1  0
  3 30  1  0
  5 31  1  0
  8 32  1  0
  8 33  1  0
 10 34  1  0
 11 35  1  0
 13 36  1  0
 14 37  1  0
 14 38  1  0
 15 39  1  0
 15 40  1  0
 16 41  1  0
 16 42  1  0
 17 43  1  0
 18 44  1  0
 21 45  1  0
 22 46  1  0
 23 47  1  0
 24 48  1  0
M  END
$$$$
OCNT-2314407
     RDKit          3D

 46 49  0  0  0  0  0  0  0  0999 V2000
   -7.0903    0.0907   -2.4462 C   0  0  0  0  0  0  0  0  0  0  0  0
   -5.9016    0.1100   -1.5408 C   0  0  0  0  0  0  0  0  0  0  0  0
   -4.8186    0.9310   -1.7941 C   0  0  0  0  0  0  0  0  0  0  0  0
   -3.7368    0.9062   -0.9149 C   0  0  0  0  0  0  0  0  0  0  0  0
   -3.7490    0.0609    0.1913 C   0  0  0  0  0  0  0  0  0  0  0  0
   -2.6573    0.0404    1.0900 N   0  0  0  0  0  0  0  0  0  0  0  0
   -2.8893   -0.8148    2.2567 C   0  0  0  0  0  0  0  0  0  0  0  0
   -1.8652   -0.4814    3.3435 C   0  0  0  0  0  0  0  0  0  0  0  0
   -0.4966   -0.0770    2.7963 C   0  0  0  0  0  0  0  0  0  0  0  0
   -0.2438   -0.6388    1.3944 C   0  0  0  0  0  0  0  0  0  0  0  0
    1.1055   -0.2696    0.9550 N   0  0  0  0  0  0  0  0  0  0  0  0
    1.6165   -0.7451   -0.2395 C   0  0  0  0  0  0  0  0  0  0  0  0
    0.9340   -1.3892   -1.0265 O   0  0  0  0  0  0  0  0  0  0  0  0
    3.0051   -0.4143   -0.4541 C   0  0  0  0  0  0  0  0  0  0  0  0
    3.9658   -1.0911   -1.1849 C   0  0  0  0  0  0  0  0  0  0  0  0
    3.7851   -2.5680   -2.0185 Cl  0  0  0  0  0  0  0  0  0  0  0  0
    5.1886   -0.3611   -1.1146 C   0  0  0  0  0  0  0  0  0  0  0  0
    6.4881   -0.5503   -1.6306 C   0  0  0  0  0  0  0  0  0  0  0  0
    7.4814    0.3981   -1.3615 C   0  0  0  0  0  0  0  0  0  0  0  0
    7.1973    1.5240   -0.5927 C   0  0  0  0  0  0  0  0  0  0  0  0
    5.9181    1.7361   -0.0703 C   0  0  0  0  0  0  0  0  0  0  0  0
    4.9386    0.7749   -0.3465 C   0  0  0  0  0  0  0  0  0  0  0  0
    3.6165    0.7253    0.0247 N   0  0  0  0  0  0  0  0  0  0  0  0
   -1.3556   -0.1638    0.4148 C   0  0  0  0  0  0  0  0  0  0  0  0
   -4.8411   -0.7065    0.4025 N   0  0  0  0  0  0  0  0  0  0  0  0
   -5.9177   -0.6925   -0.4619 N   0  0  0  0  0  0  0  0  0  0  0  0
   -7.5546    1.0811   -2.4827 H   0  0  0  0  0  0  0  0  0  0  0  0
   -7.8399   -0.6241   -2.0917 H   0  0  0  0  0  0  0  0  0  0  0  0
   -6.7918   -0.2032   -3.4573 H   0  0  0  0  0  0  0  0  0  0  0  0
   -4.8060    1.5886   -2.6564 H   0  0  0  0  0  0  0  0  0  0  0  0
   -2.8968    1.5668   -1.0969 H   0  0  0  0  0  0  0  0  0  0  0  0
   -3.8865   -0.6631    2.6895 H   0  0  0  0  0  0  0  0  0  0  0  0
   -2.8060   -1.8730    1.9749 H   0  0  0  0  0  0  0  0  0  0  0  0
   -1.7621   -1.3491    4.0064 H   0  0  0  0  0  0  0  0  0  0  0  0
   -2.2429    0.3360    3.9705 H   0  0  0  0  0  0  0  0  0  0  0  0
    0.2851   -0.4016    3.4942 H   0  0  0  0  0  0  0  0  0  0  0  0
   -0.4318    1.0192    2.7628 H   0  0  0  0  0  0  0  0  0  0  0  0
   -0.2674   -1.7357    1.4457 H   0  0  0  0  0  0  0  0  0  0  0  0
    1.7846   -0.1070    1.6859 H   0  0  0  0  0  0  0  0  0  0  0  0
    6.7188   -1.4238   -2.2346 H   0  0  0  0  0  0  0  0  0  0  0  0
    8.4829    0.2531   -1.7599 H   0  0  0  0  0  0  0  0  0  0  0  0
    7.9827    2.2511   -0.3972 H   0  0  0  0  0  0  0  0  0  0  0  0
    5.7024    2.6172    0.5254 H   0  0  0  0  0  0  0  0  0  0  0  0
    3.1455    1.4494    0.5490 H   0  0  0  0  0  0  0  0  0  0  0  0
   -1.0416    0.7853   -0.0375 H   0  0  0  0  0  0  0  0  0  0  0  0
   -1.4522   -0.9013   -0.3925 H   0  0  0  0  0  0  0  0  0  0  0  0
  1  2  1  0
  2  3  2  0
  3  4  1  0
  4  5  2  0
  5  6  1  0
  6  7  1  0
  7  8  1  0
  8  9  1  0
  9 10  1  0
 10 11  1  0
 11 12  1  0
 12 13  2  0
 12 14  1  0
 14 15  2  0
 15 16  1  0
 15 17  1  0
 17 18  2  0
 18 19  1  0
 19 20  2  0
 20 21  1  0
 21 22  2  0
 22 23  1  0
 10 24  1  0
  5 25  1  0
 25 26  2  0
 26  2  1  0
 24  6  1  0
 23 14  1  0
 22 17  1  0
  1 27  1  0
  1 28  1  0
  1 29  1  0
  3 30  1  0
  4 31  1  0
  7 32  1  0
  7 33  1  0
  8 34  1  0
  8 35  1  0
  9 36  1  0
  9 37  1  0
 10 38  1  0
 11 39  1  0
 18 40  1  0
 19 41  1  0
 20 42  1  0
 21 43  1  0
 23 44  1  0
 24 45  1  0
 24 46  1  0
M  END
$$$$
OCNT-2314408
     RDKit          3D

 39 42  0  0  0  0  0  0  0  0999 V2000
    1.5536   -0.9165    1.5871 O   0  0  0  0  0  0  0  0  0  0  0  0
    1.5550   -0.3505    0.4984 C   0  0  0  0  0  0  0  0  0  0  0  0
    2.2954   -0.7659   -0.5914 N   0  0  0  0  0  0  0  0  0  0  0  0
    3.1403   -1.8579   -0.5899 C   0  0  0  0  0  0  0  0  0  0  0  0
    3.8258   -2.2972   -1.6974 C   0  0  0  0  0  0  0  0  0  0  0  0
    4.5397   -3.3891   -1.2930 N   0  0  0  0  0  0  0  0  0  0  0  0
    4.3715   -3.6890    0.0041 N   0  0  0  0  0  0  0  0  0  0  0  0
    3.5169   -2.7543    0.4341 C   0  0  0  0  0  0  0  0  0  0  0  0
    0.7443    0.8295    0.2308 C   0  0  0  0  0  0  0  0  0  0  0  0
    1.0205    1.8946   -0.6138 C   0  0  0  0  0  0  0  0  0  0  0  0
   -0.0408    2.8307   -0.5358 C   0  0  0  0  0  0  0  0  0  0  0  0
   -0.2837    4.0732   -1.1541 C   0  0  0  0  0  0  0  0  0  0  0  0
   -1.4548    4.7748   -0.8546 C   0  0  0  0  0  0  0  0  0  0  0  0
   -2.3755    4.2554    0.0485 C   0  0  0  0  0  0  0  0  0  0  0  0
   -2.1532    3.0253    0.6754 C   0  0  0  0  0  0  0  0  0  0  0  0
   -0.9731    2.3238    0.3694 C   0  0  0  0  0  0  0  0  0  0  0  0
   -0.4859    1.1032    0.8149 N   0  0  0  0  0  0  0  0  0  0  0  0
   -1.1974    0.2171    1.7378 C   0  0  0  0  0  0  0  0  0  0  0  0
   -1.8220   -0.9555    1.0220 C   0  0  0  0  0  0  0  0  0  0  0  0
   -2.8541   -0.7748    0.0945 C   0  0  0  0  0  0  0  0  0  0  0  0
   -3.3884   -1.8882   -0.5355 C   0  0  0  0  0  0  0  0  0  0  0  0
   -2.9745   -3.1518   -0.3070 N   0  0  0  0  0  0  0  0  0  0  0  0
   -1.9802   -3.3090    0.5921 C   0  0  0  0  0  0  0  0  0  0  0  0
   -1.3846   -2.2596    1.2745 C   0  0  0  0  0  0  0  0  0  0  0  0
    2.1680   -0.2877   -1.4716 H   0  0  0  0  0  0  0  0  0  0  0  0
    3.8722   -1.9486   -2.7183 H   0  0  0  0  0  0  0  0  0  0  0  0
    5.1588   -3.9748   -1.8439 H   0  0  0  0  0  0  0  0  0  0  0  0
    3.2093   -2.7686    1.4720 H   0  0  0  0  0  0  0  0  0  0  0  0
    1.9151    2.0126   -1.2116 H   0  0  0  0  0  0  0  0  0  0  0  0
    0.4327    4.4871   -1.8578 H   0  0  0  0  0  0  0  0  0  0  0  0
   -1.6437    5.7341   -1.3299 H   0  0  0  0  0  0  0  0  0  0  0  0
   -3.2811    4.8145    0.2736 H   0  0  0  0  0  0  0  0  0  0  0  0
   -2.8841    2.6405    1.3791 H   0  0  0  0  0  0  0  0  0  0  0  0
   -1.9771    0.7882    2.2518 H   0  0  0  0  0  0  0  0  0  0  0  0
   -0.4956   -0.0918    2.5183 H   0  0  0  0  0  0  0  0  0  0  0  0
   -3.2367    0.2118   -0.1457 H   0  0  0  0  0  0  0  0  0  0  0  0
   -4.1876   -1.7881   -1.2644 H   0  0  0  0  0  0  0  0  0  0  0  0
   -1.6604   -4.3341    0.7565 H   0  0  0  0  0  0  0  0  0  0  0  0
   -0.5847   -2.4631    1.9809 H   0  0  0  0  0  0  0  0  0  0  0  0
  1  2  2  0
  2  3  1  0
  3  4  1  0
  4  5  2  0
  5  6  1  0
  6  7  1  0
  7  8  2  0
  2  9  1  0
  9 10  2  0
 10 11  1  0
 11 12  2  0
 12 13  1  0
 13 14  2  0
 14 15  1  0
 15 16  2  0
 16 17  1  0
 17 18  1  0
 18 19  1  0
 19 20  2  0
 20 21  1  0
 21 22  2  0
 22 23  1  0
 23 24  2  0
  8  4  1  0
 17  9  1  0
 24 19  1  0
 16 11  1  0
  3 25  1  0
  5 26  1  0
  6 27  1  0
  8 28  1  0
 10 29  1  0
 12 30  1  0
 13 31  1  0
 14 32  1  0
 15 33  1  0
 18 34  1  0
 18 35  1  0
 20 36  1  0
 21 37  1  0
 23 38  1  0
 24 39  1  0
M  END
$$$$
OCNT-2314410
     RDKit          3D

 31 33  0  0  0  0  0  0  0  0999 V2000
    1.9012   -2.0360    0.1907 O   0  0  0  0  0  0  0  0  0  0  0  0
    1.6303   -0.8615   -0.0356 C   0  0  0  0  0  0  0  0  0  0  0  0
    2.4621    0.0112   -0.7145 N   0  0  0  0  0  0  0  0  0  0  0  0
    3.7305   -0.3166   -1.1566 C   0  0  0  0  0  0  0  0  0  0  0  0
    4.5273    0.5303   -1.8906 C   0  0  0  0  0  0  0  0  0  0  0  0
    5.6881   -0.1508   -2.1261 N   0  0  0  0  0  0  0  0  0  0  0  0
    5.7051   -1.3802   -1.5909 N   0  0  0  0  0  0  0  0  0  0  0  0
    4.5092   -1.4847   -1.0010 C   0  0  0  0  0  0  0  0  0  0  0  0
    0.3618   -0.2803    0.3719 C   0  0  0  0  0  0  0  0  0  0  0  0
   -0.8039   -0.9574    0.6956 C   0  0  0  0  0  0  0  0  0  0  0  0
   -1.8054   -0.0093    1.0394 C   0  0  0  0  0  0  0  0  0  0  0  0
   -3.1608   -0.0874    1.4239 C   0  0  0  0  0  0  0  0  0  0  0  0
   -3.8076   -1.2954    1.5578 O   0  0  0  0  0  0  0  0  0  0  0  0
   -4.2714   -1.7264    0.2853 C   0  0  0  0  0  0  0  0  0  0  0  0
   -4.6970   -3.0083    0.4236 F   0  0  0  0  0  0  0  0  0  0  0  0
   -5.3621   -0.9933   -0.0550 F   0  0  0  0  0  0  0  0  0  0  0  0
   -3.8587    1.0775    1.7573 C   0  0  0  0  0  0  0  0  0  0  0  0
   -3.2346    2.3198    1.6686 C   0  0  0  0  0  0  0  0  0  0  0  0
   -1.8996    2.4302    1.2639 C   0  0  0  0  0  0  0  0  0  0  0  0
   -1.2114    1.2486    0.9596 C   0  0  0  0  0  0  0  0  0  0  0  0
    0.0953    1.0568    0.5723 N   0  0  0  0  0  0  0  0  0  0  0  0
    2.1144    0.9129   -0.9988 H   0  0  0  0  0  0  0  0  0  0  0  0
    4.3870    1.5330   -2.2656 H   0  0  0  0  0  0  0  0  0  0  0  0
    6.5070    0.1588   -2.6396 H   0  0  0  0  0  0  0  0  0  0  0  0
    4.2615   -2.4041   -0.4850 H   0  0  0  0  0  0  0  0  0  0  0  0
   -0.9143   -2.0356    0.6790 H   0  0  0  0  0  0  0  0  0  0  0  0
   -3.5196   -1.6867   -0.5108 H   0  0  0  0  0  0  0  0  0  0  0  0
   -4.8941    1.0122    2.0831 H   0  0  0  0  0  0  0  0  0  0  0  0
   -3.7928    3.2179    1.9253 H   0  0  0  0  0  0  0  0  0  0  0  0
   -1.4189    3.4018    1.2057 H   0  0  0  0  0  0  0  0  0  0  0  0
    0.7716    1.8031    0.5019 H   0  0  0  0  0  0  0  0  0  0  0  0
  1  2  2  0
  2  3  1  0
  3  4  1  0
  4  5  2  0
  5  6  1  0
  6  7  1  0
  7  8  2  0
  2  9  1  0
  9 10  2  0
 10 11  1  0
 11 12  2  0
 12 13  1  0
 13 14  1  0
 14 15  1  0
 14 16  1  0
 12 17  1  0
 17 18  2  0
 18 19  1  0
 19 20  2  0
 20 21  1  0
  8  4  1  0
 21  9  1  0
 20 11  1  0
  3 22  1  0
  5 23  1  0
  6 24  1  0
  8 25  1  0
 10 26  1  0
 14 27  1  0
 17 28  1  0
 18 29  1  0
 19 30  1  0
 21 31  1  0
M  END
$$$$
OCNT-2314433
     RDKit          3D

 39 41  0  0  0  0  0  0  0  0999 V2000
   -5.2474    1.7137    0.9677 C   0  0  0  0  0  0  0  0  0  0  0  0
   -4.2425    0.6678    0.5686 C   0  0  0  0  0  0  0  0  0  0  0  0
   -4.6843   -0.5844    0.1357 C   0  0  0  0  0  0  0  0  0  0  0  0
   -3.7472   -1.5369   -0.2390 C   0  0  0  0  0  0  0  0  0  0  0  0
   -4.1928   -2.8866   -0.7168 C   0  0  0  0  0  0  0  0  0  0  0  0
   -2.4151   -1.3037   -0.1984 N   0  0  0  0  0  0  0  0  0  0  0  0
   -1.9645   -0.1008    0.2287 C   0  0  0  0  0  0  0  0  0  0  0  0
   -0.5793    0.1329    0.2211 N   0  0  0  0  0  0  0  0  0  0  0  0
    0.2407   -1.0136   -0.1531 C   0  0  0  0  0  0  0  0  0  0  0  0
    1.7011   -0.6298   -0.0441 C   0  0  0  0  0  0  0  0  0  0  0  0
    2.5290   -1.2317    0.9295 C   0  0  0  0  0  0  0  0  0  0  0  0
    3.8772   -0.8802    1.0478 C   0  0  0  0  0  0  0  0  0  0  0  0
    4.3834    0.0700    0.1800 C   0  0  0  0  0  0  0  0  0  0  0  0
    5.7554    0.6498    0.1004 C   0  0  0  0  0  0  0  0  0  0  0  0
    5.7967    1.3944   -1.1851 N   0  0  0  0  0  0  0  0  0  0  0  0
    4.3796    1.6794   -1.5334 C   0  0  0  0  0  0  0  0  0  0  0  0
    3.5771    0.6728   -0.7805 C   0  0  0  0  0  0  0  0  0  0  0  0
    2.2389    0.3421   -0.9052 C   0  0  0  0  0  0  0  0  0  0  0  0
   -2.8564    0.9145    0.6088 C   0  0  0  0  0  0  0  0  0  0  0  0
   -2.3595    2.1900    1.0357 C   0  0  0  0  0  0  0  0  0  0  0  0
   -1.9842    3.2231    1.4110 N   0  0  0  0  0  0  0  0  0  0  0  0
   -6.2723    1.3361    0.8859 H   0  0  0  0  0  0  0  0  0  0  0  0
   -5.1658    2.5892    0.3155 H   0  0  0  0  0  0  0  0  0  0  0  0
   -5.0916    2.0154    2.0085 H   0  0  0  0  0  0  0  0  0  0  0  0
   -5.7446   -0.8160    0.0848 H   0  0  0  0  0  0  0  0  0  0  0  0
   -3.3321   -3.5152   -0.9668 H   0  0  0  0  0  0  0  0  0  0  0  0
   -4.7690   -3.3928    0.0639 H   0  0  0  0  0  0  0  0  0  0  0  0
   -4.8124   -2.7847   -1.6132 H   0  0  0  0  0  0  0  0  0  0  0  0
   -0.2676    0.5332    1.1024 H   0  0  0  0  0  0  0  0  0  0  0  0
    0.0378   -1.8691    0.5039 H   0  0  0  0  0  0  0  0  0  0  0  0
    0.0404   -1.3244   -1.1865 H   0  0  0  0  0  0  0  0  0  0  0  0
    2.1197   -1.9787    1.6068 H   0  0  0  0  0  0  0  0  0  0  0  0
    4.5047   -1.3406    1.8039 H   0  0  0  0  0  0  0  0  0  0  0  0
    6.5258   -0.1274    0.1111 H   0  0  0  0  0  0  0  0  0  0  0  0
    5.9239    1.3421    0.9319 H   0  0  0  0  0  0  0  0  0  0  0  0
    6.1351    0.7354   -1.8867 H   0  0  0  0  0  0  0  0  0  0  0  0
    4.1181    2.6925   -1.2105 H   0  0  0  0  0  0  0  0  0  0  0  0
    4.2318    1.5911   -2.6141 H   0  0  0  0  0  0  0  0  0  0  0  0
    1.6118    0.8309   -1.6459 H   0  0  0  0  0  0  0  0  0  0  0  0
  1  2  1  0
  2  3  1  0
  3  4  2  0
  4  5  1  0
  4  6  1  0
  6  7  2  0
  7  8  1  0
  8  9  1  0
  9 10  1  0
 10 11  1  0
 11 12  2  0
 12 13  1  0
 13 14  1  0
 14 15  1  0
 15 16  1  0
 16 17  1  0
 17 18  1  0
  7 19  1  0
 19 20  1  0
 20 21  3  0
 19  2  2  0
 18 10  2  0
 17 13  2  0
  1 22  1  0
  1 23  1  0
  1 24  1  0
  3 25  1  0
  5 26  1  0
  5 27  1  0
  5 28  1  0
  8 29  1  0
  9 30  1  0
  9 31  1  0
 11 32  1  0
 12 33  1  0
 14 34  1  0
 14 35  1  0
 15 36  1  0
 16 37  1  0
 16 38  1  0
 18 39  1  0
M  END
$$$$
OCNT-2314436
     RDKit          3D

 63 66  0  0  0  0  0  0  0  0999 V2000
    8.5768    2.1722   -0.5662 C   0  0  0  0  0  0  0  0  0  0  0  0
    8.3738    0.7088   -0.6517 C   0  0  0  0  0  0  0  0  0  0  0  0
    7.3614   -0.1385   -0.2252 C   0  0  0  0  0  0  0  0  0  0  0  0
    6.1600    0.2971    0.4750 C   0  0  0  0  0  0  0  0  0  0  0  0
    5.9963    1.4524    0.8551 O   0  0  0  0  0  0  0  0  0  0  0  0
    5.2069   -0.6843    0.6624 N   0  0  0  0  0  0  0  0  0  0  0  0
    3.9035   -0.3749    1.2337 C   0  0  0  0  0  0  0  0  0  0  0  0
    3.2586   -1.6332    1.8133 C   0  0  0  0  0  0  0  0  0  0  0  0
    1.8787   -1.3235    2.3816 C   0  0  0  0  0  0  0  0  0  0  0  0
    1.0221   -0.6505    1.4029 N   0  0  0  0  0  0  0  0  0  0  0  0
   -0.3312   -0.9881    1.3892 C   0  0  0  0  0  0  0  0  0  0  0  0
   -0.7717   -1.8977    2.0962 O   0  0  0  0  0  0  0  0  0  0  0  0
   -1.2772   -0.1890    0.4957 C   0  0  0  0  0  0  0  0  0  0  0  0
   -1.6659    1.1333    1.1669 C   0  0  0  0  0  0  0  0  0  0  0  0
   -2.6549    1.8996    0.2951 C   0  0  0  0  0  0  0  0  0  0  0  0
   -3.8835    1.0597   -0.0419 C   0  0  0  0  0  0  0  0  0  0  0  0
   -3.5217   -0.2489   -0.5877 N   0  0  0  0  0  0  0  0  0  0  0  0
   -4.3633   -0.9860   -1.4240 C   0  0  0  0  0  0  0  0  0  0  0  0
   -4.1886   -2.1904   -1.6313 O   0  0  0  0  0  0  0  0  0  0  0  0
   -5.5161   -0.2715   -2.1188 C   0  0  0  0  0  0  0  0  0  0  0  0
   -6.7439   -0.0844   -1.2549 C   0  0  0  0  0  0  0  0  0  0  0  0
   -7.2452   -1.1381   -0.4732 C   0  0  0  0  0  0  0  0  0  0  0  0
   -8.3909   -0.9601    0.3036 C   0  0  0  0  0  0  0  0  0  0  0  0
   -9.0452    0.2647    0.2896 C   0  0  0  0  0  0  0  0  0  0  0  0
  -10.1450    0.4353    1.0345 F   0  0  0  0  0  0  0  0  0  0  0  0
   -8.5792    1.3146   -0.4914 C   0  0  0  0  0  0  0  0  0  0  0  0
   -7.4332    1.1394   -1.2685 C   0  0  0  0  0  0  0  0  0  0  0  0
   -2.5412   -1.0081    0.2013 C   0  0  0  0  0  0  0  0  0  0  0  0
    1.6034    0.5385    0.7752 C   0  0  0  0  0  0  0  0  0  0  0  0
    2.9795    0.2515    0.1858 C   0  0  0  0  0  0  0  0  0  0  0  0
    7.7872   -1.4463   -0.6144 C   0  0  0  0  0  0  0  0  0  0  0  0
    9.0002   -1.2993   -1.2433 C   0  0  0  0  0  0  0  0  0  0  0  0
    9.3614    0.0050   -1.2718 O   0  0  0  0  0  0  0  0  0  0  0  0
    8.6637    2.4857    0.4779 H   0  0  0  0  0  0  0  0  0  0  0  0
    7.7360    2.7039   -1.0208 H   0  0  0  0  0  0  0  0  0  0  0  0
    9.4887    2.4778   -1.0875 H   0  0  0  0  0  0  0  0  0  0  0  0
    5.3124   -1.5538    0.1602 H   0  0  0  0  0  0  0  0  0  0  0  0
    4.0603    0.3490    2.0443 H   0  0  0  0  0  0  0  0  0  0  0  0
    3.8956   -2.0595    2.5975 H   0  0  0  0  0  0  0  0  0  0  0  0
    3.1677   -2.3984    1.0310 H   0  0  0  0  0  0  0  0  0  0  0  0
    1.9617   -0.6584    3.2498 H   0  0  0  0  0  0  0  0  0  0  0  0
    1.4230   -2.2553    2.7319 H   0  0  0  0  0  0  0  0  0  0  0  0
   -0.7925    0.0001   -0.4687 H   0  0  0  0  0  0  0  0  0  0  0  0
   -2.1147    0.9373    2.1498 H   0  0  0  0  0  0  0  0  0  0  0  0
   -0.7882    1.7605    1.3525 H   0  0  0  0  0  0  0  0  0  0  0  0
   -2.1541    2.1976   -0.6349 H   0  0  0  0  0  0  0  0  0  0  0  0
   -2.9643    2.8200    0.8028 H   0  0  0  0  0  0  0  0  0  0  0  0
   -4.5005    1.6230   -0.7437 H   0  0  0  0  0  0  0  0  0  0  0  0
   -4.4858    0.8826    0.8574 H   0  0  0  0  0  0  0  0  0  0  0  0
   -5.1553    0.6792   -2.5266 H   0  0  0  0  0  0  0  0  0  0  0  0
   -5.8041   -0.8704   -2.9924 H   0  0  0  0  0  0  0  0  0  0  0  0
   -6.7484   -2.1078   -0.4656 H   0  0  0  0  0  0  0  0  0  0  0  0
   -8.7773   -1.7707    0.9129 H   0  0  0  0  0  0  0  0  0  0  0  0
   -9.1142    2.2587   -0.4944 H   0  0  0  0  0  0  0  0  0  0  0  0
   -7.0837    1.9641   -1.8858 H   0  0  0  0  0  0  0  0  0  0  0  0
   -3.0493   -1.3149    1.1250 H   0  0  0  0  0  0  0  0  0  0  0  0
   -2.2596   -1.9278   -0.3250 H   0  0  0  0  0  0  0  0  0  0  0  0
    1.6753    1.3100    1.5512 H   0  0  0  0  0  0  0  0  0  0  0  0
    0.9634    0.9339   -0.0141 H   0  0  0  0  0  0  0  0  0  0  0  0
    2.8766   -0.4298   -0.6694 H   0  0  0  0  0  0  0  0  0  0  0  0
    3.4107    1.1808   -0.2046 H   0  0  0  0  0  0  0  0  0  0  0  0
    7.2859   -2.3887   -0.4505 H   0  0  0  0  0  0  0  0  0  0  0  0
    9.6992   -1.9879   -1.6979 H   0  0  0  0  0  0  0  0  0  0  0  0
  1  2  1  0
  2  3  2  0
  3  4  1  0
  4  5  2  0
  4  6  1  0
  6  7  1  0
  7  8  1  0
  8  9  1  0
  9 10  1  0
 10 11  1  0
 11 12  2  0
 11 13  1  0
 13 14  1  0
 14 15  1  0
 15 16  1  0
 16 17  1  0
 17 18  1  0
 18 19  2  0
 18 20  1  0
 20 21  1  0
 21 22  1  0
 22 23  2  0
 23 24  1  0
 24 25  1  0
 24 26  2  0
 26 27  1  0
 17 28  1  0
 10 29  1  0
 29 30  1  0
  3 31  1  0
 31 32  2  0
 32 33  1  0
 33  2  1  0
 30  7  1  0
 28 13  1  0
 27 21  2  0
  1 34  1  0
  1 35  1  0
  1 36  1  0
  6 37  1  0
  7 38  1  0
  8 39  1  0
  8 40  1  0
  9 41  1  0
  9 42  1  0
 13 43  1  0
 14 44  1  0
 14 45  1  0
 15 46  1  0
 15 47  1  0
 16 48  1  0
 16 49  1  0
 20 50  1  0
 20 51  1  0
 22 52  1  0
 23 53  1  0
 26 54  1  0
 27 55  1  0
 28 56  1  0
 28 57  1  0
 29 58  1  0
 29 59  1  0
 30 60  1  0
 30 61  1  0
 31 62  1  0
 32 63  1  0
M  END
$$$$
OCNT-2314446
     RDKit          3D

 58 61  0  0  0  0  0  0  0  0999 V2000
    7.4578    2.9958   -2.2200 C   0  0  0  0  0  0  0  0  0  0  0  0
    6.6848    1.9866   -1.4204 C   0  0  0  0  0  0  0  0  0  0  0  0
    5.5858    2.3913   -0.6562 C   0  0  0  0  0  0  0  0  0  0  0  0
    4.8335    1.4648    0.0774 C   0  0  0  0  0  0  0  0  0  0  0  0
    5.1807    0.1002    0.0374 C   0  0  0  0  0  0  0  0  0  0  0  0
    4.6462   -1.0832    0.6418 C   0  0  0  0  0  0  0  0  0  0  0  0
    3.4652   -1.1682    1.5578 C   0  0  0  0  0  0  0  0  0  0  0  0
    2.1509   -1.2384    0.7825 C   0  0  0  0  0  0  0  0  0  0  0  0
    0.9524   -1.3042    1.7123 C   0  0  0  0  0  0  0  0  0  0  0  0
    1.0851   -1.4061    2.9316 O   0  0  0  0  0  0  0  0  0  0  0  0
   -0.2997   -1.2468    1.1139 N   0  0  0  0  0  0  0  0  0  0  0  0
   -1.4944   -1.2653    1.9614 C   0  0  0  0  0  0  0  0  0  0  0  0
   -2.6204   -0.3863    1.4002 C   0  0  0  0  0  0  0  0  0  0  0  0
   -2.9475   -0.6857   -0.0003 N   0  0  0  0  0  0  0  0  0  0  0  0
   -4.1167   -0.2854   -0.6452 C   0  0  0  0  0  0  0  0  0  0  0  0
   -4.3498   -0.6479   -1.8012 O   0  0  0  0  0  0  0  0  0  0  0  0
   -5.1096    0.5869    0.1699 C   0  0  0  0  0  0  0  0  0  0  0  0
   -6.1235   -0.3070    0.8766 C   0  0  0  0  0  0  0  0  0  0  0  0
   -7.3147   -0.3925   -0.0771 C   0  0  0  0  0  0  0  0  0  0  0  0
   -7.0495    0.6321   -1.1732 C   0  0  0  0  0  0  0  0  0  0  0  0
   -5.9899    1.4699   -0.6210 N   0  0  0  0  0  0  0  0  0  0  0  0
   -5.3199    2.2899   -1.6146 C   0  0  0  0  0  0  0  0  0  0  0  0
   -1.9657   -1.4783   -0.7467 C   0  0  0  0  0  0  0  0  0  0  0  0
   -0.5216   -1.1606   -0.3356 C   0  0  0  0  0  0  0  0  0  0  0  0
    5.4273   -2.1387    0.2135 C   0  0  0  0  0  0  0  0  0  0  0  0
    6.3994   -1.6464   -0.6144 N   0  0  0  0  0  0  0  0  0  0  0  0
    6.2710   -0.2834   -0.7420 C   0  0  0  0  0  0  0  0  0  0  0  0
    7.0342    0.6289   -1.4826 C   0  0  0  0  0  0  0  0  0  0  0  0
    7.4596    3.9710   -1.7212 H   0  0  0  0  0  0  0  0  0  0  0  0
    8.5027    2.6877   -2.3318 H   0  0  0  0  0  0  0  0  0  0  0  0
    7.0127    3.1062   -3.2138 H   0  0  0  0  0  0  0  0  0  0  0  0
    5.3032    3.4411   -0.6193 H   0  0  0  0  0  0  0  0  0  0  0  0
    3.9901    1.8014    0.6726 H   0  0  0  0  0  0  0  0  0  0  0  0
    3.4612   -0.3007    2.2299 H   0  0  0  0  0  0  0  0  0  0  0  0
    3.5671   -2.0516    2.2015 H   0  0  0  0  0  0  0  0  0  0  0  0
    2.1493   -2.1329    0.1487 H   0  0  0  0  0  0  0  0  0  0  0  0
    2.0528   -0.3556    0.1403 H   0  0  0  0  0  0  0  0  0  0  0  0
   -1.8254   -2.3099    2.0127 H   0  0  0  0  0  0  0  0  0  0  0  0
   -1.2530   -0.9468    2.9809 H   0  0  0  0  0  0  0  0  0  0  0  0
   -3.5153   -0.4996    2.0188 H   0  0  0  0  0  0  0  0  0  0  0  0
   -2.3161    0.6666    1.4314 H   0  0  0  0  0  0  0  0  0  0  0  0
   -4.5591    1.2040    0.8855 H   0  0  0  0  0  0  0  0  0  0  0  0
   -5.7385   -1.3043    1.1133 H   0  0  0  0  0  0  0  0  0  0  0  0
   -6.4464    0.1588    1.8161 H   0  0  0  0  0  0  0  0  0  0  0  0
   -8.2438   -0.1712    0.4603 H   0  0  0  0  0  0  0  0  0  0  0  0
   -7.4044   -1.3983   -0.5025 H   0  0  0  0  0  0  0  0  0  0  0  0
   -7.9489    1.2168   -1.3929 H   0  0  0  0  0  0  0  0  0  0  0  0
   -6.7471    0.1236   -2.0959 H   0  0  0  0  0  0  0  0  0  0  0  0
   -4.5250    2.8829   -1.1494 H   0  0  0  0  0  0  0  0  0  0  0  0
   -4.8836    1.7143   -2.4365 H   0  0  0  0  0  0  0  0  0  0  0  0
   -6.0299    3.0016   -2.0505 H   0  0  0  0  0  0  0  0  0  0  0  0
   -2.1910   -2.5315   -0.5386 H   0  0  0  0  0  0  0  0  0  0  0  0
   -2.0806   -1.3242   -1.8247 H   0  0  0  0  0  0  0  0  0  0  0  0
   -0.2711   -0.1343   -0.6298 H   0  0  0  0  0  0  0  0  0  0  0  0
    0.1655   -1.8364   -0.8537 H   0  0  0  0  0  0  0  0  0  0  0  0
    5.3748   -3.1969    0.4320 H   0  0  0  0  0  0  0  0  0  0  0  0
    7.1143   -2.1982   -1.0673 H   0  0  0  0  0  0  0  0  0  0  0  0
    7.8745    0.2945   -2.0834 H   0  0  0  0  0  0  0  0  0  0  0  0
  1  2  1  0
  2  3  2  0
  3  4  1  0
  4  5  2  0
  5  6  1  0
  6  7  1  0
  7  8  1  0
  8  9  1  0
  9 10  2  0
  9 11  1  0
 11 12  1  0
 12 13  1  0
 13 14  1  0
 14 15  1  0
 15 16  2  0
 15 17  1  0
 17 18  1  0
 18 19  1  0
 19 20  1  0
 20 21  1  0
 21 22  1  0
 14 23  1  0
 23 24  1  0
  6 25  2  0
 25 26  1  0
 26 27  1  0
 27 28  2  0
 28  2  1  0
 27  5  1  0
 24 11  1  0
 21 17  1  0
  1 29  1  0
  1 30  1  0
  1 31  1  0
  3 32  1  0
  4 33  1  0
  7 34  1  0
  7 35  1  0
  8 36  1  0
  8 37  1  0
 12 38  1  0
 12 39  1  0
 13 40  1  0
 13 41  1  0
 17 42  1  0
 18 43  1  0
 18 44  1  0
 19 45  1  0
 19 46  1  0
 20 47  1  0
 20 48  1  0
 22 49  1  0
 22 50  1  0
 22 51  1  0
 23 52  1  0
 23 53  1  0
 24 54  1  0
 24 55  1  0
 25 56  1  0
 26 57  1  0
 28 58  1  0
M  END
$$$$
OCNT-2314454
     RDKit          3D

 39 41  0  0  0  0  0  0  0  0999 V2000
   -1.8609    3.2947    1.7683 C   0  0  0  0  0  0  0  0  0  0  0  0
   -2.9360    2.6457    1.1017 O   0  0  0  0  0  0  0  0  0  0  0  0
   -2.8043    1.3040    0.8735 C   0  0  0  0  0  0  0  0  0  0  0  0
   -3.8905    0.7125    0.2278 C   0  0  0  0  0  0  0  0  0  0  0  0
   -3.8870   -0.6517   -0.0643 C   0  0  0  0  0  0  0  0  0  0  0  0
   -2.7804   -1.4334    0.2705 C   0  0  0  0  0  0  0  0  0  0  0  0
   -2.7952   -2.7816    0.0357 O   0  0  0  0  0  0  0  0  0  0  0  0
   -2.7426   -3.0712   -1.3590 C   0  0  0  0  0  0  0  0  0  0  0  0
   -3.9919   -2.9347   -1.8779 F   0  0  0  0  0  0  0  0  0  0  0  0
   -2.4280   -4.3866   -1.4823 F   0  0  0  0  0  0  0  0  0  0  0  0
   -1.6849   -0.8657    0.9359 C   0  0  0  0  0  0  0  0  0  0  0  0
   -0.4820   -1.6870    1.3323 C   0  0  0  0  0  0  0  0  0  0  0  0
    0.7192   -1.2027    0.6896 N   0  0  0  0  0  0  0  0  0  0  0  0
    1.0506   -1.5760   -0.5973 C   0  0  0  0  0  0  0  0  0  0  0  0
    0.3897   -2.4188   -1.2036 O   0  0  0  0  0  0  0  0  0  0  0  0
    2.2259   -0.9041   -1.1985 C   0  0  0  0  0  0  0  0  0  0  0  0
    2.7057   -1.3191   -2.3955 N   0  0  0  0  0  0  0  0  0  0  0  0
    3.7556   -0.5188   -2.6512 N   0  0  0  0  0  0  0  0  0  0  0  0
    3.9744    0.4024   -1.6782 C   0  0  0  0  0  0  0  0  0  0  0  0
    3.0057    0.1859   -0.7290 C   0  0  0  0  0  0  0  0  0  0  0  0
    2.9992    1.0470    0.4199 C   0  0  0  0  0  0  0  0  0  0  0  0
    2.1858    0.9696    1.3348 O   0  0  0  0  0  0  0  0  0  0  0  0
    4.0114    1.9886    0.3978 N   0  0  0  0  0  0  0  0  0  0  0  0
    4.9294    2.0925   -0.6304 C   0  0  0  0  0  0  0  0  0  0  0  0
    4.9570    1.3334   -1.6825 N   0  0  0  0  0  0  0  0  0  0  0  0
   -1.7102    0.5135    1.2305 C   0  0  0  0  0  0  0  0  0  0  0  0
   -1.7169    2.8877    2.7747 H   0  0  0  0  0  0  0  0  0  0  0  0
   -0.9384    3.2352    1.1812 H   0  0  0  0  0  0  0  0  0  0  0  0
   -2.1214    4.3525    1.8716 H   0  0  0  0  0  0  0  0  0  0  0  0
   -4.7535    1.3173   -0.0405 H   0  0  0  0  0  0  0  0  0  0  0  0
   -4.7586   -1.0966   -0.5379 H   0  0  0  0  0  0  0  0  0  0  0  0
   -2.0288   -2.4630   -1.9235 H   0  0  0  0  0  0  0  0  0  0  0  0
   -0.3322   -1.6095    2.4150 H   0  0  0  0  0  0  0  0  0  0  0  0
   -0.6073   -2.7489    1.0983 H   0  0  0  0  0  0  0  0  0  0  0  0
    1.1972   -0.4256    1.1330 H   0  0  0  0  0  0  0  0  0  0  0  0
    4.2798   -0.6510   -3.5088 H   0  0  0  0  0  0  0  0  0  0  0  0
    4.0547    2.6193    1.1844 H   0  0  0  0  0  0  0  0  0  0  0  0
    5.6650    2.8998   -0.4848 H   0  0  0  0  0  0  0  0  0  0  0  0
   -0.8553    0.9446    1.7429 H   0  0  0  0  0  0  0  0  0  0  0  0
  1  2  1  0
  2  3  1  0
  3  4  1  0
  4  5  2  0
  5  6  1  0
  6  7  1  0
  7  8  1  0
  8  9  1  0
  8 10  1  0
  6 11  2  0
 11 12  1  0
 12 13  1  0
 13 14  1  0
 14 15  2  0
 14 16  1  0
 16 17  2  0
 17 18  1  0
 18 19  1  0
 19 20  2  0
 20 21  1  0
 21 22  2  0
 21 23  1  0
 23 24  1  0
 24 25  2  0
 11 26  1  0
 26  3  2  0
 20 16  1  0
 25 19  1  0
  1 27  1  0
  1 28  1  0
  1 29  1  0
  4 30  1  0
  5 31  1  0
  8 32  1  0
 12 33  1  0
 12 34  1  0
 13 35  1  0
 18 36  1  0
 23 37  1  0
 24 38  1  0
 26 39  1  0
M  END
$$$$
OCNT-2314457
     RDKit          3D

 40 43  0  0  0  0  0  0  0  0999 V2000
    4.6705    1.9181   -1.6472 C   0  0  0  0  0  0  0  0  0  0  0  0
    4.6674    0.6480   -2.2166 C   0  0  0  0  0  0  0  0  0  0  0  0
    3.9219   -0.3772   -1.6342 C   0  0  0  0  0  0  0  0  0  0  0  0
    3.1580   -0.1391   -0.4801 C   0  0  0  0  0  0  0  0  0  0  0  0
    2.3473   -1.2362    0.1650 C   0  0  0  0  0  0  0  0  0  0  0  0
    1.4519   -1.8943   -0.7774 N   0  0  0  0  0  0  0  0  0  0  0  0
    1.5908   -3.1972   -1.1811 C   0  0  0  0  0  0  0  0  0  0  0  0
    0.6728   -3.5358   -2.0552 N   0  0  0  0  0  0  0  0  0  0  0  0
   -0.1082   -2.4240   -2.2076 C   0  0  0  0  0  0  0  0  0  0  0  0
    0.3322   -1.3882   -1.4048 C   0  0  0  0  0  0  0  0  0  0  0  0
   -0.2189   -0.0148   -1.2318 C   0  0  0  0  0  0  0  0  0  0  0  0
   -0.8852    0.1309    0.0537 N   0  0  0  0  0  0  0  0  0  0  0  0
   -2.0665   -0.4220    0.4622 C   0  0  0  0  0  0  0  0  0  0  0  0
   -2.2236    0.0381    1.7539 C   0  0  0  0  0  0  0  0  0  0  0  0
   -3.2995   -0.2160    2.7408 C   0  0  0  0  0  0  0  0  0  0  0  0
   -4.3839    0.7326    2.5805 N   0  0  0  0  0  0  0  0  0  0  0  0
   -4.3417    2.0847    2.7410 C   0  0  0  0  0  0  0  0  0  0  0  0
   -5.5519    2.5797    2.6035 N   0  0  0  0  0  0  0  0  0  0  0  0
   -6.3155    1.4710    2.3629 C   0  0  0  0  0  0  0  0  0  0  0  0
   -5.6500    0.3126    2.3455 N   0  0  0  0  0  0  0  0  0  0  0  0
   -1.1553    0.8391    2.0746 N   0  0  0  0  0  0  0  0  0  0  0  0
   -0.3473    0.8967    1.0249 N   0  0  0  0  0  0  0  0  0  0  0  0
    3.1823    1.1418    0.0902 C   0  0  0  0  0  0  0  0  0  0  0  0
    3.9312    2.1642   -0.4918 C   0  0  0  0  0  0  0  0  0  0  0  0
    5.2511    2.7156   -2.1021 H   0  0  0  0  0  0  0  0  0  0  0  0
    5.2441    0.4547   -3.1179 H   0  0  0  0  0  0  0  0  0  0  0  0
    3.9380   -1.3614   -2.0973 H   0  0  0  0  0  0  0  0  0  0  0  0
    1.7290   -0.8677    0.9880 H   0  0  0  0  0  0  0  0  0  0  0  0
    3.0273   -1.9896    0.5813 H   0  0  0  0  0  0  0  0  0  0  0  0
    2.3790   -3.8448   -0.8172 H   0  0  0  0  0  0  0  0  0  0  0  0
   -0.9544   -2.4288   -2.8852 H   0  0  0  0  0  0  0  0  0  0  0  0
   -0.9728    0.2001   -1.9998 H   0  0  0  0  0  0  0  0  0  0  0  0
    0.5565    0.7541   -1.3134 H   0  0  0  0  0  0  0  0  0  0  0  0
   -2.6615   -1.0687   -0.1692 H   0  0  0  0  0  0  0  0  0  0  0  0
   -2.9307   -0.1090    3.7652 H   0  0  0  0  0  0  0  0  0  0  0  0
   -3.7043   -1.2271    2.6279 H   0  0  0  0  0  0  0  0  0  0  0  0
   -3.4333    2.6363    2.9484 H   0  0  0  0  0  0  0  0  0  0  0  0
   -7.3881    1.5088    2.1989 H   0  0  0  0  0  0  0  0  0  0  0  0
    2.6070    1.3598    0.9894 H   0  0  0  0  0  0  0  0  0  0  0  0
    3.9342    3.1549   -0.0457 H   0  0  0  0  0  0  0  0  0  0  0  0
  1  2  2  0
  2  3  1  0
  3  4  2  0
  4  5  1  0
  5  6  1  0
  6  7  1  0
  7  8  2  0
  8  9  1  0
  9 10  2  0
 10 11  1  0
 11 12  1  0
 12 13  1  0
 13 14  2  0
 14 15  1  0
 15 16  1  0
 16 17  1  0
 17 18  2  0
 18 19  1  0
 19 20  2  0
 14 21  1  0
 21 22  2  0
  4 23  1  0
 23 24  2  0
 24  1  1  0
 10  6  1  0
 22 12  1  0
 20 16  1  0
  1 25  1  0
  2 26  1  0
  3 27  1  0
  5 28  1  0
  5 29  1  0
  7 30  1  0
  9 31  1  0
 11 32  1  0
 11 33  1  0
 13 34  1  0
 15 35  1  0
 15 36  1  0
 17 37  1  0
 19 38  1  0
 23 39  1  0
 24 40  1  0
M  END
$$$$
OCNT-2314460
     RDKit          3D

 35 37  0  0  0  0  0  0  0  0999 V2000
    1.8031    2.3109   -1.0660 O   0  0  0  0  0  0  0  0  0  0  0  0
    2.0467    1.1139   -1.1871 C   0  0  0  0  0  0  0  0  0  0  0  0
    3.4693    0.6484   -1.5101 C   0  0  0  0  0  0  0  0  0  0  0  0
    4.1663    0.2158   -0.3137 N   0  0  0  0  0  0  0  0  0  0  0  0
    4.6114    1.1280    0.6938 C   0  0  0  0  0  0  0  0  0  0  0  0
    5.1868    0.1811    1.7198 C   0  0  0  0  0  0  0  0  0  0  0  0
    4.4823   -1.0513    1.5077 O   0  0  0  0  0  0  0  0  0  0  0  0
    3.9331   -1.0106    0.2581 C   0  0  0  0  0  0  0  0  0  0  0  0
    3.2767   -1.9083   -0.2456 O   0  0  0  0  0  0  0  0  0  0  0  0
    1.1798    0.0580   -1.0053 N   0  0  0  0  0  0  0  0  0  0  0  0
   -0.1585    0.1247   -0.7221 C   0  0  0  0  0  0  0  0  0  0  0  0
   -0.8521   -0.9597   -0.4872 N   0  0  0  0  0  0  0  0  0  0  0  0
   -2.1847   -0.6431   -0.2404 C   0  0  0  0  0  0  0  0  0  0  0  0
   -2.4776    0.7120   -0.2922 C   0  0  0  0  0  0  0  0  0  0  0  0
   -1.0310    1.5744   -0.6793 S   0  0  0  0  0  0  0  0  0  0  0  0
   -3.6948    1.4775   -0.1116 C   0  0  0  0  0  0  0  0  0  0  0  0
   -3.7809    2.6931   -0.3022 O   0  0  0  0  0  0  0  0  0  0  0  0
   -4.8551    0.8600    0.2820 N   0  0  0  0  0  0  0  0  0  0  0  0
   -5.0470   -0.4636    0.8236 C   0  0  0  0  0  0  0  0  0  0  0  0
   -4.5595   -1.5583   -0.1075 C   0  0  0  0  0  0  0  0  0  0  0  0
   -3.0709   -1.8047    0.0629 C   0  0  0  0  0  0  0  0  0  0  0  0
    3.4240   -0.1799   -2.2263 H   0  0  0  0  0  0  0  0  0  0  0  0
    4.0288    1.4678   -1.9726 H   0  0  0  0  0  0  0  0  0  0  0  0
    5.3412    1.8407    0.3020 H   0  0  0  0  0  0  0  0  0  0  0  0
    3.7442    1.6612    1.0979 H   0  0  0  0  0  0  0  0  0  0  0  0
    6.2544   -0.0042    1.5600 H   0  0  0  0  0  0  0  0  0  0  0  0
    5.0331    0.5330    2.7437 H   0  0  0  0  0  0  0  0  0  0  0  0
    1.5506   -0.8897   -0.9800 H   0  0  0  0  0  0  0  0  0  0  0  0
   -5.5940    1.5383    0.4278 H   0  0  0  0  0  0  0  0  0  0  0  0
   -4.5644   -0.5102    1.8058 H   0  0  0  0  0  0  0  0  0  0  0  0
   -6.1263   -0.5732    0.9760 H   0  0  0  0  0  0  0  0  0  0  0  0
   -4.7974   -1.3192   -1.1513 H   0  0  0  0  0  0  0  0  0  0  0  0
   -5.0846   -2.4894    0.1380 H   0  0  0  0  0  0  0  0  0  0  0  0
   -2.7858   -2.6400   -0.5897 H   0  0  0  0  0  0  0  0  0  0  0  0
   -2.8669   -2.1335    1.0899 H   0  0  0  0  0  0  0  0  0  0  0  0
  1  2  2  0
  2  3  1  0
  3  4  1  0
  4  5  1  0
  5  6  1  0
  6  7  1  0
  7  8  1  0
  8  9  2  0
  2 10  1  0
 10 11  1  0
 11 12  2  0
 12 13  1  0
 13 14  2  0
 14 15  1  0
 14 16  1  0
 16 17  2  0
 16 18  1  0
 18 19  1  0
 19 20  1  0
 20 21  1  0
  8  4  1  0
 15 11  1  0
 21 13  1  0
  3 22  1  0
  3 23  1  0
  5 24  1  0
  5 25  1  0
  6 26  1  0
  6 27  1  0
 10 28  1  0
 18 29  1  0
 19 30  1  0
 19 31  1  0
 20 32  1  0
 20 33  1  0
 21 34  1  0
 21 35  1  0
M  END
$$$$
OCNT-2314461
     RDKit          3D

 51 55  0  0  0  0  0  0  0  0999 V2000
   -7.4665   -1.0731    0.1211 C   0  0  0  0  0  0  0  0  0  0  0  0
   -6.2651   -0.4437   -0.4177 N   0  0  0  0  0  0  0  0  0  0  0  0
   -5.1118   -1.3481   -0.4298 C   0  0  0  0  0  0  0  0  0  0  0  0
   -4.4518   -1.6793    0.9095 C   0  0  0  0  0  0  0  0  0  0  0  0
   -4.0830   -0.4787    1.7764 C   0  0  0  0  0  0  0  0  0  0  0  0
   -3.6163    0.6743    1.0051 N   0  0  0  0  0  0  0  0  0  0  0  0
   -2.2637    0.7129    0.6774 C   0  0  0  0  0  0  0  0  0  0  0  0
   -1.6951    1.8215    0.0464 C   0  0  0  0  0  0  0  0  0  0  0  0
   -0.3315    1.8417   -0.2664 C   0  0  0  0  0  0  0  0  0  0  0  0
    0.4686    0.7513    0.0597 C   0  0  0  0  0  0  0  0  0  0  0  0
    1.8887    0.7080   -0.2366 C   0  0  0  0  0  0  0  0  0  0  0  0
    2.5581    1.6984   -0.8491 N   0  0  0  0  0  0  0  0  0  0  0  0
    3.8653    1.2244   -0.9169 O   0  0  0  0  0  0  0  0  0  0  0  0
    3.8630   -0.0111   -0.3401 C   0  0  0  0  0  0  0  0  0  0  0  0
    5.1411   -0.7604   -0.2718 C   0  0  0  0  0  0  0  0  0  0  0  0
    6.0885   -0.5922   -1.4980 C   0  0  0  0  0  0  0  0  0  0  0  0
    7.4299   -0.2014   -0.8356 C   0  0  0  0  0  0  0  0  0  0  0  0
    7.2777    1.1885   -0.2662 C   0  0  0  0  0  0  0  0  0  0  0  0
    6.4606    1.0968    0.7938 C   0  0  0  0  0  0  0  0  0  0  0  0
    6.0496   -0.3556    0.9181 C   0  0  0  0  0  0  0  0  0  0  0  0
    7.3714   -0.9975    0.4731 C   0  0  0  0  0  0  0  0  0  0  0  0
    2.6766   -0.3748    0.0922 N   0  0  0  0  0  0  0  0  0  0  0  0
   -0.1607   -0.3057    0.6955 C   0  0  0  0  0  0  0  0  0  0  0  0
   -1.4831   -0.3403    1.0068 N   0  0  0  0  0  0  0  0  0  0  0  0
   -4.5752    1.4156    0.1630 C   0  0  0  0  0  0  0  0  0  0  0  0
   -6.0263    0.8732    0.2044 C   0  0  0  0  0  0  0  0  0  0  0  0
   -8.3310   -0.4092    0.0081 H   0  0  0  0  0  0  0  0  0  0  0  0
   -7.7042   -1.9906   -0.4284 H   0  0  0  0  0  0  0  0  0  0  0  0
   -7.3635   -1.3240    1.1824 H   0  0  0  0  0  0  0  0  0  0  0  0
   -5.4051   -2.2919   -0.9093 H   0  0  0  0  0  0  0  0  0  0  0  0
   -4.3548   -0.9396   -1.1117 H   0  0  0  0  0  0  0  0  0  0  0  0
   -3.5428   -2.2562    0.6967 H   0  0  0  0  0  0  0  0  0  0  0  0
   -5.0989   -2.3472    1.4912 H   0  0  0  0  0  0  0  0  0  0  0  0
   -3.3503   -0.7824    2.5363 H   0  0  0  0  0  0  0  0  0  0  0  0
   -4.9517   -0.1820    2.3758 H   0  0  0  0  0  0  0  0  0  0  0  0
   -2.2928    2.6932   -0.1956 H   0  0  0  0  0  0  0  0  0  0  0  0
    0.0879    2.7166   -0.7572 H   0  0  0  0  0  0  0  0  0  0  0  0
    4.8955   -1.8278   -0.1797 H   0  0  0  0  0  0  0  0  0  0  0  0
    6.1902   -1.5528   -2.0173 H   0  0  0  0  0  0  0  0  0  0  0  0
    5.7523    0.1520   -2.2279 H   0  0  0  0  0  0  0  0  0  0  0  0
    8.3254   -0.3569   -1.4379 H   0  0  0  0  0  0  0  0  0  0  0  0
    7.7128    2.0907   -0.6700 H   0  0  0  0  0  0  0  0  0  0  0  0
    6.1047    1.9110    1.4081 H   0  0  0  0  0  0  0  0  0  0  0  0
    5.7046   -0.6507    1.9102 H   0  0  0  0  0  0  0  0  0  0  0  0
    7.2999   -2.0802    0.3183 H   0  0  0  0  0  0  0  0  0  0  0  0
    8.2094   -0.7890    1.1506 H   0  0  0  0  0  0  0  0  0  0  0  0
    0.3890   -1.1961    0.9915 H   0  0  0  0  0  0  0  0  0  0  0  0
   -4.5966    2.4571    0.5074 H   0  0  0  0  0  0  0  0  0  0  0  0
   -4.2495    1.4287   -0.8857 H   0  0  0  0  0  0  0  0  0  0  0  0
   -6.3792    0.8881    1.2432 H   0  0  0  0  0  0  0  0  0  0  0  0
   -6.6597    1.5940   -0.3285 H   0  0  0  0  0  0  0  0  0  0  0  0
  1  2  1  0
  2  3  1  0
  3  4  1  0
  4  5  1  0
  5  6  1  0
  6  7  1  0
  7  8  2  0
  8  9  1  0
  9 10  2  0
 10 11  1  0
 11 12  2  0
 12 13  1  0
 13 14  1  0
 14 15  1  0
 15 16  1  0
 16 17  1  0
 17 18  1  0
 18 19  2  0
 19 20  1  0
 20 21  1  0
 14 22  2  0
 10 23  1  0
 23 24  2  0
  6 25  1  0
 25 26  1  0
 26  2  1  0
 24  7  1  0
 22 11  1  0
 20 15  1  0
 21 17  1  0
  1 27  1  0
  1 28  1  0
  1 29  1  0
  3 30  1  0
  3 31  1  0
  4 32  1  0
  4 33  1  0
  5 34  1  0
  5 35  1  0
  8 36  1  0
  9 37  1  0
 15 38  1  0
 16 39  1  0
 16 40  1  0
 17 41  1  0
 18 42  1  0
 19 43  1  0
 20 44  1  0
 21 45  1  0
 21 46  1  0
 23 47  1  0
 25 48  1  0
 25 49  1  0
 26 50  1  0
 26 51  1  0
M  END
$$$$
OCNT-2314462
     RDKit          3D

 34 36  0  0  0  0  0  0  0  0999 V2000
    3.4215    2.5055   -0.3624 C   0  0  0  0  0  0  0  0  0  0  0  0
    2.6848    1.1988   -0.3244 C   0  0  0  0  0  0  0  0  0  0  0  0
    2.1248    0.7331    0.8714 C   0  0  0  0  0  0  0  0  0  0  0  0
    1.4655   -0.5022    0.8980 C   0  0  0  0  0  0  0  0  0  0  0  0
    0.7298   -1.0716    2.4138 S   0  0  0  0  0  0  0  0  0  0  0  0
    1.3638   -0.3515    3.4990 O   0  0  0  0  0  0  0  0  0  0  0  0
    0.7038   -2.5174    2.3865 O   0  0  0  0  0  0  0  0  0  0  0  0
   -0.8432   -0.4708    2.3212 N   0  0  0  0  0  0  0  0  0  0  0  0
   -1.6468   -0.8008    1.1984 C   0  0  0  0  0  0  0  0  0  0  0  0
   -2.1379   -2.0996    1.0366 C   0  0  0  0  0  0  0  0  0  0  0  0
   -2.8810   -2.4495   -0.0884 C   0  0  0  0  0  0  0  0  0  0  0  0
   -3.1425   -1.5084   -1.0898 C   0  0  0  0  0  0  0  0  0  0  0  0
   -2.6433   -0.1981   -0.9563 C   0  0  0  0  0  0  0  0  0  0  0  0
   -1.9056    0.1314    0.1836 C   0  0  0  0  0  0  0  0  0  0  0  0
   -1.5252    1.4487    0.0436 N   0  0  0  0  0  0  0  0  0  0  0  0
   -2.0065    1.9629   -1.1303 C   0  0  0  0  0  0  0  0  0  0  0  0
   -2.7054    0.9662   -1.7703 C   0  0  0  0  0  0  0  0  0  0  0  0
    1.3961   -1.3047   -0.2431 C   0  0  0  0  0  0  0  0  0  0  0  0
    1.9597   -0.8408   -1.4267 C   0  0  0  0  0  0  0  0  0  0  0  0
    1.8518   -1.8978   -2.9901 Br  0  0  0  0  0  0  0  0  0  0  0  0
    2.6025    0.3986   -1.4729 C   0  0  0  0  0  0  0  0  0  0  0  0
    4.4792    2.3454   -0.1322 H   0  0  0  0  0  0  0  0  0  0  0  0
    3.0033    3.2104    0.3638 H   0  0  0  0  0  0  0  0  0  0  0  0
    3.3397    2.9709   -1.3503 H   0  0  0  0  0  0  0  0  0  0  0  0
    2.2070    1.3300    1.7783 H   0  0  0  0  0  0  0  0  0  0  0  0
   -0.9537    0.4433    2.7512 H   0  0  0  0  0  0  0  0  0  0  0  0
   -1.9424   -2.8522    1.7982 H   0  0  0  0  0  0  0  0  0  0  0  0
   -3.2573   -3.4646   -0.1920 H   0  0  0  0  0  0  0  0  0  0  0  0
   -3.7183   -1.7908   -1.9669 H   0  0  0  0  0  0  0  0  0  0  0  0
   -0.9586    1.9570    0.7070 H   0  0  0  0  0  0  0  0  0  0  0  0
   -1.8069    2.9883   -1.4117 H   0  0  0  0  0  0  0  0  0  0  0  0
   -3.2021    1.0582   -2.7276 H   0  0  0  0  0  0  0  0  0  0  0  0
    0.8964   -2.2701   -0.2104 H   0  0  0  0  0  0  0  0  0  0  0  0
    3.0471    0.7421   -2.4050 H   0  0  0  0  0  0  0  0  0  0  0  0
  1  2  1  0
  2  3  2  0
  3  4  1  0
  4  5  1  0
  5  6  2  0
  5  7  2  0
  5  8  1  0
  8  9  1  0
  9 10  1  0
 10 11  2  0
 11 12  1  0
 12 13  2  0
 13 14  1  0
 14 15  1  0
 15 16  1  0
 16 17  2  0
  4 18  2  0
 18 19  1  0
 19 20  1  0
 19 21  2  0
 21  2  1  0
 14  9  2  0
 17 13  1  0
  1 22  1  0
  1 23  1  0
  1 24  1  0
  3 25  1  0
  8 26  1  0
 10 27  1  0
 11 28  1  0
 12 29  1  0
 15 30  1  0
 16 31  1  0
 17 32  1  0
 18 33  1  0
 21 34  1  0
M  END
$$$$
OCNT-2314465
     RDKit          3D

 49 52  0  0  0  0  0  0  0  0999 V2000
   -7.1235   -0.0719   -0.7706 C   0  0  0  0  0  0  0  0  0  0  0  0
   -6.9656    0.3841    0.6555 C   0  0  0  0  0  0  0  0  0  0  0  0
   -7.9760    0.5510    1.3505 O   0  0  0  0  0  0  0  0  0  0  0  0
   -5.7047    0.6323    1.1601 N   0  0  0  0  0  0  0  0  0  0  0  0
   -5.5745    1.1439    2.5332 C   0  0  0  0  0  0  0  0  0  0  0  0
   -4.1027    1.4845    2.7655 C   0  0  0  0  0  0  0  0  0  0  0  0
   -3.4626    0.9160    1.5398 C   0  0  0  0  0  0  0  0  0  0  0  0
   -2.0990    0.8524    1.2764 C   0  0  0  0  0  0  0  0  0  0  0  0
   -1.6730    0.2706    0.0763 C   0  0  0  0  0  0  0  0  0  0  0  0
   -0.2046    0.1688   -0.1830 C   0  0  0  0  0  0  0  0  0  0  0  0
    0.5552    0.1353    0.7796 O   0  0  0  0  0  0  0  0  0  0  0  0
    0.1663    0.1654   -1.5204 N   0  0  0  0  0  0  0  0  0  0  0  0
    1.4595   -0.0547   -2.0351 C   0  0  0  0  0  0  0  0  0  0  0  0
    1.6494    0.1595   -3.4005 C   0  0  0  0  0  0  0  0  0  0  0  0
    2.8947   -0.0720   -3.9900 C   0  0  0  0  0  0  0  0  0  0  0  0
    3.9631   -0.5086   -3.2116 C   0  0  0  0  0  0  0  0  0  0  0  0
    3.7987   -0.7147   -1.8361 C   0  0  0  0  0  0  0  0  0  0  0  0
    4.9350   -1.1894   -1.0484 C   0  0  0  0  0  0  0  0  0  0  0  0
    5.7819   -2.1278   -1.4280 N   0  0  0  0  0  0  0  0  0  0  0  0
    6.7220   -2.2977   -0.4455 N   0  0  0  0  0  0  0  0  0  0  0  0
    6.4732   -1.4307    0.5099 C   0  0  0  0  0  0  0  0  0  0  0  0
    7.2551   -1.2570    1.7564 C   0  0  0  0  0  0  0  0  0  0  0  0
    5.3684   -0.6897    0.1640 N   0  0  0  0  0  0  0  0  0  0  0  0
    4.8667    0.4748    0.8488 C   0  0  0  0  0  0  0  0  0  0  0  0
    2.5334   -0.5081   -1.2648 C   0  0  0  0  0  0  0  0  0  0  0  0
   -2.6255   -0.2454   -0.8250 C   0  0  0  0  0  0  0  0  0  0  0  0
   -4.0005   -0.1534   -0.5529 C   0  0  0  0  0  0  0  0  0  0  0  0
   -4.4153    0.4345    0.6328 C   0  0  0  0  0  0  0  0  0  0  0  0
   -6.7686   -1.0998   -0.8811 H   0  0  0  0  0  0  0  0  0  0  0  0
   -6.6100    0.6135   -1.4465 H   0  0  0  0  0  0  0  0  0  0  0  0
   -8.1864   -0.0567   -1.0348 H   0  0  0  0  0  0  0  0  0  0  0  0
   -5.9121    0.3595    3.2221 H   0  0  0  0  0  0  0  0  0  0  0  0
   -6.2223    2.0167    2.6753 H   0  0  0  0  0  0  0  0  0  0  0  0
   -3.7276    1.0094    3.6744 H   0  0  0  0  0  0  0  0  0  0  0  0
   -3.9504    2.5654    2.8212 H   0  0  0  0  0  0  0  0  0  0  0  0
   -1.3796    1.2440    1.9917 H   0  0  0  0  0  0  0  0  0  0  0  0
   -0.5379    0.4267   -2.1966 H   0  0  0  0  0  0  0  0  0  0  0  0
    0.8322    0.4987   -4.0295 H   0  0  0  0  0  0  0  0  0  0  0  0
    3.0334    0.0766   -5.0574 H   0  0  0  0  0  0  0  0  0  0  0  0
    4.9297   -0.7022   -3.6839 H   0  0  0  0  0  0  0  0  0  0  0  0
    7.7206   -0.2648    1.7922 H   0  0  0  0  0  0  0  0  0  0  0  0
    6.6139   -1.3761    2.6379 H   0  0  0  0  0  0  0  0  0  0  0  0
    8.0524   -2.0051    1.8147 H   0  0  0  0  0  0  0  0  0  0  0  0
    4.9834    1.3459    0.1794 H   0  0  0  0  0  0  0  0  0  0  0  0
    3.8091    0.3331    1.1135 H   0  0  0  0  0  0  0  0  0  0  0  0
    5.4382    0.6414    1.7670 H   0  0  0  0  0  0  0  0  0  0  0  0
    2.3895   -0.7531   -0.2214 H   0  0  0  0  0  0  0  0  0  0  0  0
   -2.3159   -0.7502   -1.7376 H   0  0  0  0  0  0  0  0  0  0  0  0
   -4.6870   -0.5749   -1.2794 H   0  0  0  0  0  0  0  0  0  0  0  0
  1  2  1  0
  2  3  2  0
  2  4  1  0
  4  5  1  0
  5  6  1  0
  6  7  1  0
  7  8  1  0
  8  9  2  0
  9 10  1  0
 10 11  2  0
 10 12  1  0
 12 13  1  0
 13 14  2  0
 14 15  1  0
 15 16  2  0
 16 17  1  0
 17 18  1  0
 18 19  2  0
 19 20  1  0
 20 21  2  0
 21 22  1  0
 21 23  1  0
 23 24  1  0
 17 25  2  0
  9 26  1  0
 26 27  2  0
 27 28  1  0
 28  4  1  0
 28  7  2  0
 25 13  1  0
 23 18  1  0
  1 29  1  0
  1 30  1  0
  1 31  1  0
  5 32  1  0
  5 33  1  0
  6 34  1  0
  6 35  1  0
  8 36  1  0
 12 37  1  0
 14 38  1  0
 15 39  1  0
 16 40  1  0
 22 41  1  0
 22 42  1  0
 22 43  1  0
 24 44  1  0
 24 45  1  0
 24 46  1  0
 25 47  1  0
 26 48  1  0
 27 49  1  0
M  END
$$$$
OCNT-2314468
     RDKit          3D

  0  0  0  0  0  0  0  0  0  0999 V3000
M  V30 BEGIN CTAB
M  V30 COUNTS 42 46 0 0 0
M  V30 BEGIN ATOM
M  V30 1 F 4.996225 -1.271581 3.936472 0
M  V30 2 C 4.258155 -0.972358 2.858656 0
M  V30 3 C 2.877123 -0.920697 2.977984 0
M  V30 4 C 2.084379 -0.611161 1.865979 0
M  V30 5 C 2.696961 -0.346736 0.619042 0
M  V30 6 C 4.094288 -0.416727 0.545271 0
M  V30 7 C 4.900643 -0.725228 1.647710 0
M  V30 8 N 4.444342 -0.138986 -0.754430 0
M  V30 9 C 3.332204 0.102965 -1.506313 0
M  V30 10 N 3.361714 0.391463 -2.814662 0
M  V30 11 C 2.124712 0.574527 -3.298181 0
M  V30 12 N 0.957079 0.513312 -2.631957 0
M  V30 13 C 0.966960 0.229220 -1.304423 0
M  V30 14 N -0.231932 0.166013 -0.605998 0
M  V30 15 C -1.409369 0.791068 -1.192323 0 CFG=1
M  V30 16 C -2.179028 -0.185412 -2.082181 0
M  V30 17 C -3.601830 0.366427 -2.148204 0
M  V30 18 C -3.730668 1.384100 -1.011992 0
M  V30 19 C -2.466446 1.228871 -0.157549 0 CFG=1
M  V30 20 N -2.597397 0.329046 0.979083 0
M  V30 21 C -3.459997 -0.715102 1.162578 0
M  V30 22 C -3.183264 -1.234696 2.404938 0
M  V30 23 C -2.132555 -0.443885 2.896250 0
M  V30 24 N -1.760066 0.502166 2.031216 0
M  V30 25 C 2.215814 -0.003375 -0.691117 0
M  V30 26 H 2.415022 -1.123599 3.939196 0
M  V30 27 H 1.004269 -0.584527 1.976693 0
M  V30 28 H 5.981194 -0.775735 1.578451 0
M  V30 29 H 5.383073 -0.119307 -1.122536 0
M  V30 30 H 2.054602 0.802909 -4.357130 0
M  V30 31 H -0.123434 0.317689 0.396171 0
M  V30 32 H -1.137584 1.684034 -1.773668 0
M  V30 33 H -1.736404 -0.273742 -3.079675 0
M  V30 34 H -2.190060 -1.192717 -1.647285 0
M  V30 35 H -4.333539 -0.441950 -2.046344 0
M  V30 36 H -3.788394 0.852275 -3.112424 0
M  V30 37 H -3.748571 2.391365 -1.447706 0
M  V30 38 H -4.663619 1.263628 -0.452394 0
M  V30 39 H -2.197753 2.202915 0.272315 0
M  V30 40 H -4.185551 -1.007016 0.417548 0
M  V30 41 H -3.671476 -2.069664 2.886429 0
M  V30 42 H -1.619820 -0.519788 3.846513 0
M  V30 END ATOM
M  V30 BEGIN BOND
M  V30 1 1 1 2
M  V30 2 2 2 3
M  V30 3 1 3 4
M  V30 4 2 4 5
M  V30 5 1 5 6
M  V30 6 2 6 7
M  V30 7 1 6 8
M  V30 8 1 8 9
M  V30 9 2 9 10
M  V30 10 1 10 11
M  V30 11 2 11 12
M  V30 12 1 12 13
M  V30 13 1 13 14
M  V30 14 1 14 15
M  V30 15 1 15 16
M  V30 16 1 16 17
M  V30 17 1 17 18
M  V30 18 1 18 19
M  V30 19 1 19 20
M  V30 20 1 20 21
M  V30 21 2 21 22
M  V30 22 1 22 23
M  V30 23 2 23 24
M  V30 24 2 13 25
M  V30 25 1 7 2
M  V30 26 1 25 9
M  V30 27 1 25 5
M  V30 28 1 19 15
M  V30 29 1 24 20
M  V30 30 1 3 26
M  V30 31 1 4 27
M  V30 32 1 7 28
M  V30 33 1 8 29
M  V30 34 1 11 30
M  V30 35 1 14 31
M  V30 36 1 15 32 CFG=3
M  V30 37 1 16 33
M  V30 38 1 16 34
M  V30 39 1 17 35
M  V30 40 1 17 36
M  V30 41 1 18 37
M  V30 42 1 18 38
M  V30 43 1 19 39 CFG=1
M  V30 44 1 21 40
M  V30 45 1 22 41
M  V30 46 1 23 42
M  V30 END BOND
M  V30 BEGIN COLLECTION
M  V30 MDLV30/STERAC1 ATOMS=(2 15 19)
M  V30 END COLLECTION
M  V30 END CTAB
M  END
>  <_CXSMILES_Data>  (858) 
|&1:14,18|

$$$$
OCNT-2314481
     RDKit          3D

 43 46  0  0  0  0  0  0  0  0999 V2000
   -6.1199   -1.4476   -0.6700 N   0  0  0  0  0  0  0  0  0  0  0  0
   -4.8069   -1.0054   -0.4350 C   0  0  0  0  0  0  0  0  0  0  0  0
   -3.8526   -1.6311   -1.1339 N   0  0  0  0  0  0  0  0  0  0  0  0
   -2.5833   -1.2474   -0.9225 C   0  0  0  0  0  0  0  0  0  0  0  0
   -1.5109   -1.9547   -1.7262 C   0  0  0  0  0  0  0  0  0  0  0  0
   -0.1763   -1.6585   -1.2767 O   0  0  0  0  0  0  0  0  0  0  0  0
    0.2101   -2.3419   -0.1740 C   0  0  0  0  0  0  0  0  0  0  0  0
   -0.4111   -3.2377    0.3739 O   0  0  0  0  0  0  0  0  0  0  0  0
    1.5248   -1.8577    0.2977 C   0  0  0  0  0  0  0  0  0  0  0  0
    2.1037   -2.4834    1.3926 C   0  0  0  0  0  0  0  0  0  0  0  0
    3.3014   -2.1287    1.9166 N   0  0  0  0  0  0  0  0  0  0  0  0
    3.9432   -1.0959    1.3173 C   0  0  0  0  0  0  0  0  0  0  0  0
    3.4619   -0.3891    0.2128 C   0  0  0  0  0  0  0  0  0  0  0  0
    4.2157    0.7226   -0.3855 C   0  0  0  0  0  0  0  0  0  0  0  0
    3.6047    1.9651   -0.6274 C   0  0  0  0  0  0  0  0  0  0  0  0
    4.3200    3.0229   -1.1954 C   0  0  0  0  0  0  0  0  0  0  0  0
    5.6602    2.8564   -1.5333 C   0  0  0  0  0  0  0  0  0  0  0  0
    6.2853    1.6339   -1.3040 C   0  0  0  0  0  0  0  0  0  0  0  0
    5.5692    0.5769   -0.7351 C   0  0  0  0  0  0  0  0  0  0  0  0
    2.2185   -0.7958   -0.2944 C   0  0  0  0  0  0  0  0  0  0  0  0
   -2.2159   -0.2550   -0.0873 N   0  0  0  0  0  0  0  0  0  0  0  0
   -3.1793    0.3556    0.6079 C   0  0  0  0  0  0  0  0  0  0  0  0
   -2.8251    1.3660    1.4939 C   0  0  0  0  0  0  0  0  0  0  0  0
   -3.7770    2.0490    2.2561 C   0  0  0  0  0  0  0  0  0  0  0  0
   -5.1205    1.7208    2.1362 C   0  0  0  0  0  0  0  0  0  0  0  0
   -5.5012    0.7119    1.2542 C   0  0  0  0  0  0  0  0  0  0  0  0
   -4.5323    0.0204    0.4818 C   0  0  0  0  0  0  0  0  0  0  0  0
   -6.6902   -0.6700   -0.9868 H   0  0  0  0  0  0  0  0  0  0  0  0
   -6.5132   -1.8067    0.1947 H   0  0  0  0  0  0  0  0  0  0  0  0
   -1.6854   -3.0374   -1.7373 H   0  0  0  0  0  0  0  0  0  0  0  0
   -1.5791   -1.6058   -2.7623 H   0  0  0  0  0  0  0  0  0  0  0  0
    1.6122   -3.3114    1.8986 H   0  0  0  0  0  0  0  0  0  0  0  0
    4.8932   -0.8347    1.7789 H   0  0  0  0  0  0  0  0  0  0  0  0
    2.5610    2.1250   -0.3625 H   0  0  0  0  0  0  0  0  0  0  0  0
    3.8294    3.9768   -1.3712 H   0  0  0  0  0  0  0  0  0  0  0  0
    6.2169    3.6786   -1.9757 H   0  0  0  0  0  0  0  0  0  0  0  0
    7.3306    1.4994   -1.5705 H   0  0  0  0  0  0  0  0  0  0  0  0
    6.0792   -0.3722   -0.5796 H   0  0  0  0  0  0  0  0  0  0  0  0
    1.7987   -0.2841   -1.1576 H   0  0  0  0  0  0  0  0  0  0  0  0
   -1.7743    1.6283    1.5973 H   0  0  0  0  0  0  0  0  0  0  0  0
   -3.4622    2.8323    2.9411 H   0  0  0  0  0  0  0  0  0  0  0  0
   -5.8673    2.2458    2.7265 H   0  0  0  0  0  0  0  0  0  0  0  0
   -6.5562    0.4643    1.1712 H   0  0  0  0  0  0  0  0  0  0  0  0
  1  2  1  0
  2  3  1  0
  3  4  2  0
  4  5  1  0
  5  6  1  0
  6  7  1  0
  7  8  2  0
  7  9  1  0
  9 10  1  0
 10 11  2  0
 11 12  1  0
 12 13  2  0
 13 14  1  0
 14 15  2  0
 15 16  1  0
 16 17  2  0
 17 18  1  0
 18 19  2  0
 13 20  1  0
  4 21  1  0
 21 22  2  0
 22 23  1  0
 23 24  2  0
 24 25  1  0
 25 26  2  0
 26 27  1  0
 27  2  2  0
 20  9  2  0
 27 22  1  0
 19 14  1  0
  1 28  1  0
  1 29  1  0
  5 30  1  0
  5 31  1  0
 10 32  1  0
 12 33  1  0
 15 34  1  0
 16 35  1  0
 17 36  1  0
 18 37  1  0
 19 38  1  0
 20 39  1  0
 23 40  1  0
 24 41  1  0
 25 42  1  0
 26 43  1  0
M  END
$$$$
OCNT-2314482
     RDKit          3D

 40 44  0  0  0  0  0  0  0  0999 V2000
    0.7702   -2.0667    1.8123 O   0  0  0  0  0  0  0  0  0  0  0  0
    0.5129   -1.1210    1.0792 C   0  0  0  0  0  0  0  0  0  0  0  0
    1.4150   -0.2577    0.4936 N   0  0  0  0  0  0  0  0  0  0  0  0
    2.7807   -0.3585    0.6909 C   0  0  0  0  0  0  0  0  0  0  0  0
    3.5839   -1.1962    1.4367 C   0  0  0  0  0  0  0  0  0  0  0  0
    4.9160   -0.8758    1.2906 N   0  0  0  0  0  0  0  0  0  0  0  0
    4.9335    0.1469    0.4630 C   0  0  0  0  0  0  0  0  0  0  0  0
    6.0052    0.9032   -0.0614 C   0  0  0  0  0  0  0  0  0  0  0  0
    5.7444    1.9139   -0.8998 C   0  0  0  0  0  0  0  0  0  0  0  0
    4.3205    2.1769   -1.2263 C   0  0  0  0  0  0  0  0  0  0  0  0
    3.2937    1.5228   -0.7803 N   0  0  0  0  0  0  0  0  0  0  0  0
    3.6555    0.5047    0.0682 N   0  0  0  0  0  0  0  0  0  0  0  0
   -0.9014   -0.8264    0.7477 C   0  0  0  0  0  0  0  0  0  0  0  0
   -1.3819    0.4512    1.0423 C   0  0  0  0  0  0  0  0  0  0  0  0
   -2.6990    0.7607    0.7442 C   0  0  0  0  0  0  0  0  0  0  0  0
   -3.2626    2.1256    1.0579 C   0  0  0  0  0  0  0  0  0  0  0  0
   -2.7182    3.3529    0.3622 C   0  0  0  0  0  0  0  0  0  0  0  0
   -4.0905    2.8541    0.0238 C   0  0  0  0  0  0  0  0  0  0  0  0
   -3.5156   -0.1623    0.1813 N   0  0  0  0  0  0  0  0  0  0  0  0
   -3.0623   -1.3969   -0.0916 C   0  0  0  0  0  0  0  0  0  0  0  0
   -3.9430   -2.3061   -0.6662 C   0  0  0  0  0  0  0  0  0  0  0  0
   -3.5528   -3.6067   -0.9903 C   0  0  0  0  0  0  0  0  0  0  0  0
   -2.2530   -4.0035   -0.7332 C   0  0  0  0  0  0  0  0  0  0  0  0
   -1.8659   -5.2468   -1.0435 F   0  0  0  0  0  0  0  0  0  0  0  0
   -1.3463   -3.1224   -0.1597 C   0  0  0  0  0  0  0  0  0  0  0  0
   -1.7405   -1.8024    0.1730 C   0  0  0  0  0  0  0  0  0  0  0  0
    1.1065    0.4697   -0.1458 H   0  0  0  0  0  0  0  0  0  0  0  0
    3.2767   -2.0164    2.0740 H   0  0  0  0  0  0  0  0  0  0  0  0
    7.0169    0.6443    0.2289 H   0  0  0  0  0  0  0  0  0  0  0  0
    6.5100    2.5364   -1.3419 H   0  0  0  0  0  0  0  0  0  0  0  0
    4.1513    3.0186   -1.9190 H   0  0  0  0  0  0  0  0  0  0  0  0
   -0.7465    1.1934    1.5163 H   0  0  0  0  0  0  0  0  0  0  0  0
   -3.5842    2.2566    2.0888 H   0  0  0  0  0  0  0  0  0  0  0  0
   -2.6397    4.2677    0.9384 H   0  0  0  0  0  0  0  0  0  0  0  0
   -1.9461    3.2357   -0.3897 H   0  0  0  0  0  0  0  0  0  0  0  0
   -4.2418    2.3817   -0.9408 H   0  0  0  0  0  0  0  0  0  0  0  0
   -4.9452    3.4214    0.3736 H   0  0  0  0  0  0  0  0  0  0  0  0
   -4.9648   -1.9908   -0.8676 H   0  0  0  0  0  0  0  0  0  0  0  0
   -4.2548   -4.3026   -1.4379 H   0  0  0  0  0  0  0  0  0  0  0  0
   -0.3369   -3.4791    0.0301 H   0  0  0  0  0  0  0  0  0  0  0  0
  1  2  2  0
  2  3  1  0
  3  4  1  0
  4  5  2  0
  5  6  1  0
  6  7  2  0
  7  8  1  0
  8  9  2  0
  9 10  1  0
 10 11  2  0
 11 12  1  0
  2 13  1  0
 13 14  2  0
 14 15  1  0
 15 16  1  0
 16 17  1  0
 17 18  1  0
 15 19  2  0
 19 20  1  0
 20 21  2  0
 21 22  1  0
 22 23  2  0
 23 24  1  0
 23 25  1  0
 25 26  2  0
 12  4  1  0
 26 13  1  0
 12  7  1  0
 18 16  1  0
 26 20  1  0
  3 27  1  0
  5 28  1  0
  8 29  1  0
  9 30  1  0
 10 31  1  0
 14 32  1  0
 16 33  1  0
 17 34  1  0
 17 35  1  0
 18 36  1  0
 18 37  1  0
 21 38  1  0
 22 39  1  0
 25 40  1  0
M  END
$$$$
OCNT-2314488
     RDKit          3D

 38 41  0  0  0  0  0  0  0  0999 V2000
   -4.9039   -1.4858   -2.4742 C   0  0  0  0  0  0  0  0  0  0  0  0
   -4.3816   -0.9459   -1.3605 C   0  0  0  0  0  0  0  0  0  0  0  0
   -3.0703   -1.3848   -0.7568 C   0  0  0  0  0  0  0  0  0  0  0  0
   -2.1521   -0.2867   -0.6231 O   0  0  0  0  0  0  0  0  0  0  0  0
   -2.6619    0.8443   -0.1187 C   0  0  0  0  0  0  0  0  0  0  0  0
   -2.0591    1.9686    0.4151 C   0  0  0  0  0  0  0  0  0  0  0  0
   -0.6510    2.2493    0.6114 C   0  0  0  0  0  0  0  0  0  0  0  0
   -0.2595    3.3097    1.0900 O   0  0  0  0  0  0  0  0  0  0  0  0
    0.2060    1.2544    0.2230 N   0  0  0  0  0  0  0  0  0  0  0  0
    1.6342    1.4472    0.2198 C   0  0  0  0  0  0  0  0  0  0  0  0
    2.3215    0.1584   -0.1077 C   0  0  0  0  0  0  0  0  0  0  0  0
    1.7278   -0.7713   -0.8785 N   0  0  0  0  0  0  0  0  0  0  0  0
    2.6387   -1.7557   -0.9545 N   0  0  0  0  0  0  0  0  0  0  0  0
    3.7969   -1.5064   -0.2693 C   0  0  0  0  0  0  0  0  0  0  0  0
    4.9606   -2.2655   -0.1088 C   0  0  0  0  0  0  0  0  0  0  0  0
    5.9809   -1.7069    0.6688 C   0  0  0  0  0  0  0  0  0  0  0  0
    5.8299   -0.4485    1.2509 C   0  0  0  0  0  0  0  0  0  0  0  0
    7.1114    0.2031    2.2005 Cl  0  0  0  0  0  0  0  0  0  0  0  0
    4.6587    0.2974    1.0797 C   0  0  0  0  0  0  0  0  0  0  0  0
    3.6220   -0.2504    0.3011 C   0  0  0  0  0  0  0  0  0  0  0  0
   -3.1474    2.8147    0.7462 C   0  0  0  0  0  0  0  0  0  0  0  0
   -4.3379    2.2859    0.4426 N   0  0  0  0  0  0  0  0  0  0  0  0
   -4.0086    1.1027   -0.1045 N   0  0  0  0  0  0  0  0  0  0  0  0
   -5.0251    0.1970   -0.6158 C   0  0  0  0  0  0  0  0  0  0  0  0
   -4.4052   -2.2934   -3.0029 H   0  0  0  0  0  0  0  0  0  0  0  0
   -5.8413   -1.1300   -2.8933 H   0  0  0  0  0  0  0  0  0  0  0  0
   -2.5789   -2.1424   -1.3768 H   0  0  0  0  0  0  0  0  0  0  0  0
   -3.2348   -1.8290    0.2328 H   0  0  0  0  0  0  0  0  0  0  0  0
   -0.1501    0.4518   -0.2899 H   0  0  0  0  0  0  0  0  0  0  0  0
    1.9404    1.8222    1.2022 H   0  0  0  0  0  0  0  0  0  0  0  0
    1.8774    2.2065   -0.5313 H   0  0  0  0  0  0  0  0  0  0  0  0
    2.4095   -2.5804   -1.4974 H   0  0  0  0  0  0  0  0  0  0  0  0
    5.0755   -3.2441   -0.5637 H   0  0  0  0  0  0  0  0  0  0  0  0
    6.9018   -2.2668    0.8172 H   0  0  0  0  0  0  0  0  0  0  0  0
    4.5533    1.2756    1.5390 H   0  0  0  0  0  0  0  0  0  0  0  0
   -3.1059    3.7983    1.1985 H   0  0  0  0  0  0  0  0  0  0  0  0
   -5.5790   -0.1750    0.2527 H   0  0  0  0  0  0  0  0  0  0  0  0
   -5.6926    0.7820   -1.2573 H   0  0  0  0  0  0  0  0  0  0  0  0
  1  2  2  0
  2  3  1  0
  3  4  1  0
  4  5  1  0
  5  6  2  0
  6  7  1  0
  7  8  2  0
  7  9  1  0
  9 10  1  0
 10 11  1  0
 11 12  2  0
 12 13  1  0
 13 14  1  0
 14 15  2  0
 15 16  1  0
 16 17  2  0
 17 18  1  0
 17 19  1  0
 19 20  2  0
  6 21  1  0
 21 22  2  0
 22 23  1  0
 23 24  1  0
 24  2  1  0
 23  5  1  0
 20 11  1  0
 20 14  1  0
  1 25  1  0
  1 26  1  0
  3 27  1  0
  3 28  1  0
  9 29  1  0
 10 30  1  0
 10 31  1  0
 13 32  1  0
 15 33  1  0
 16 34  1  0
 19 35  1  0
 21 36  1  0
 24 37  1  0
 24 38  1  0
M  END
$$$$
OCNT-2314499
     RDKit          3D

 41 43  0  0  0  0  0  0  0  0999 V2000
   -3.1735   -0.2855   -2.8928 C   0  0  0  0  0  0  0  0  0  0  0  0
   -3.6283   -0.9038   -1.5775 C   0  0  0  0  0  0  0  0  0  0  0  0
   -2.5994   -1.8904   -0.9983 C   0  0  0  0  0  0  0  0  0  0  0  0
   -3.1578   -2.6342    0.2206 C   0  0  0  0  0  0  0  0  0  0  0  0
   -2.8868   -1.6851    1.3770 C   0  0  0  0  0  0  0  0  0  0  0  0
   -1.6765   -0.9834    0.9959 N   0  0  0  0  0  0  0  0  0  0  0  0
   -1.0136   -0.1776    1.9135 C   0  0  0  0  0  0  0  0  0  0  0  0
   -1.4880   -0.0025    3.0381 O   0  0  0  0  0  0  0  0  0  0  0  0
    0.2569    0.4688    1.5378 C   0  0  0  0  0  0  0  0  0  0  0  0
    0.9845    0.1836    0.4410 N   0  0  0  0  0  0  0  0  0  0  0  0
    2.0532    1.0094    0.5560 N   0  0  0  0  0  0  0  0  0  0  0  0
    3.0866    1.0378   -0.4167 C   0  0  0  0  0  0  0  0  0  0  0  0
    3.0244    0.1918   -1.5351 C   0  0  0  0  0  0  0  0  0  0  0  0
    4.0417    0.2220   -2.4914 C   0  0  0  0  0  0  0  0  0  0  0  0
    5.1205    1.0928   -2.3349 C   0  0  0  0  0  0  0  0  0  0  0  0
    5.1807    1.9325   -1.2230 C   0  0  0  0  0  0  0  0  0  0  0  0
    6.5155    3.0031   -1.0382 Cl  0  0  0  0  0  0  0  0  0  0  0  0
    4.1719    1.9126   -0.2612 C   0  0  0  0  0  0  0  0  0  0  0  0
    2.0757    1.8079    1.6487 N   0  0  0  0  0  0  0  0  0  0  0  0
    0.9463    1.4656    2.2796 C   0  0  0  0  0  0  0  0  0  0  0  0
    0.5701    2.1029    3.5629 C   0  0  0  0  0  0  0  0  0  0  0  0
   -1.3619   -1.1960   -0.4119 C   0  0  0  0  0  0  0  0  0  0  0  0
   -3.9596    0.3630   -3.2930 H   0  0  0  0  0  0  0  0  0  0  0  0
   -2.2739    0.3229   -2.7650 H   0  0  0  0  0  0  0  0  0  0  0  0
   -2.9627   -1.0591   -3.6378 H   0  0  0  0  0  0  0  0  0  0  0  0
   -4.5715   -1.4331   -1.7591 H   0  0  0  0  0  0  0  0  0  0  0  0
   -3.8467   -0.1021   -0.8623 H   0  0  0  0  0  0  0  0  0  0  0  0
   -2.3116   -2.6001   -1.7824 H   0  0  0  0  0  0  0  0  0  0  0  0
   -2.5893   -3.5617    0.3672 H   0  0  0  0  0  0  0  0  0  0  0  0
   -4.2156   -2.8999    0.1349 H   0  0  0  0  0  0  0  0  0  0  0  0
   -3.6884   -0.9469    1.4922 H   0  0  0  0  0  0  0  0  0  0  0  0
   -2.7513   -2.2095    2.3281 H   0  0  0  0  0  0  0  0  0  0  0  0
    2.1918   -0.4955   -1.6737 H   0  0  0  0  0  0  0  0  0  0  0  0
    3.9936   -0.4336   -3.3576 H   0  0  0  0  0  0  0  0  0  0  0  0
    5.9102    1.1125   -3.0817 H   0  0  0  0  0  0  0  0  0  0  0  0
    4.2370    2.5757    0.5990 H   0  0  0  0  0  0  0  0  0  0  0  0
   -0.4375    2.5256    3.5034 H   0  0  0  0  0  0  0  0  0  0  0  0
    1.2568    2.9155    3.8226 H   0  0  0  0  0  0  0  0  0  0  0  0
    0.5950    1.3700    4.3751 H   0  0  0  0  0  0  0  0  0  0  0  0
   -1.1234   -0.2512   -0.9048 H   0  0  0  0  0  0  0  0  0  0  0  0
   -0.4950   -1.8647   -0.4594 H   0  0  0  0  0  0  0  0  0  0  0  0
  1  2  1  0
  2  3  1  0
  3  4  1  0
  4  5  1  0
  5  6  1  0
  6  7  1  0
  7  8  2  0
  7  9  1  0
  9 10  2  0
 10 11  1  0
 11 12  1  0
 12 13  2  0
 13 14  1  0
 14 15  2  0
 15 16  1  0
 16 17  1  0
 16 18  2  0
 11 19  1  0
 19 20  2  0
 20 21  1  0
  6 22  1  0
 22  3  1  0
 20  9  1  0
 18 12  1  0
  1 23  1  0
  1 24  1  0
  1 25  1  0
  2 26  1  0
  2 27  1  0
  3 28  1  0
  4 29  1  0
  4 30  1  0
  5 31  1  0
  5 32  1  0
 13 33  1  0
 14 34  1  0
 15 35  1  0
 18 36  1  0
 21 37  1  0
 21 38  1  0
 21 39  1  0
 22 40  1  0
 22 41  1  0
M  END
$$$$
OCNT-2314500
     RDKit          3D

 41 43  0  0  0  0  0  0  0  0999 V2000
   -5.1225    1.8211    1.7993 C   0  0  0  0  0  0  0  0  0  0  0  0
   -4.0493    1.3144    0.8823 C   0  0  0  0  0  0  0  0  0  0  0  0
   -3.6397    2.0721   -0.2175 C   0  0  0  0  0  0  0  0  0  0  0  0
   -2.6139    1.6149   -1.0471 C   0  0  0  0  0  0  0  0  0  0  0  0
   -1.9661    0.3960   -0.7882 C   0  0  0  0  0  0  0  0  0  0  0  0
   -0.8752   -0.0654   -1.7327 C   0  0  0  0  0  0  0  0  0  0  0  0
   -0.1219   -1.2473   -1.2770 N   0  0  0  0  0  0  0  0  0  0  0  0
    1.1307   -0.9676   -0.7337 C   0  0  0  0  0  0  0  0  0  0  0  0
    1.2679   -0.9977    0.6146 N   0  0  0  0  0  0  0  0  0  0  0  0
    2.4645   -0.7047    1.1747 C   0  0  0  0  0  0  0  0  0  0  0  0
    3.5658   -0.3591    0.4305 C   0  0  0  0  0  0  0  0  0  0  0  0
    5.0858    0.0071    1.2266 S   0  0  0  0  0  0  0  0  0  0  0  0
    5.0833    1.6893    1.2395 N   0  0  0  0  0  0  0  0  0  0  0  0
    4.9877   -0.3917    2.6110 O   0  0  0  0  0  0  0  0  0  0  0  0
    6.1582   -0.4293    0.3660 O   0  0  0  0  0  0  0  0  0  0  0  0
    3.4600   -0.3669   -0.9550 C   0  0  0  0  0  0  0  0  0  0  0  0
    2.2273   -0.6870   -1.5569 C   0  0  0  0  0  0  0  0  0  0  0  0
    2.1234   -0.7740   -3.0535 C   0  0  0  0  0  0  0  0  0  0  0  0
    1.6512   -1.9651   -3.5122 F   0  0  0  0  0  0  0  0  0  0  0  0
    1.3283    0.1923   -3.5955 F   0  0  0  0  0  0  0  0  0  0  0  0
    3.3331   -0.6117   -3.6707 F   0  0  0  0  0  0  0  0  0  0  0  0
   -0.9302   -2.2435   -0.5577 C   0  0  0  0  0  0  0  0  0  0  0  0
   -1.6902   -1.6683    0.6391 C   0  0  0  0  0  0  0  0  0  0  0  0
   -2.3791   -0.3701    0.3123 C   0  0  0  0  0  0  0  0  0  0  0  0
   -3.4029    0.1021    1.1492 C   0  0  0  0  0  0  0  0  0  0  0  0
   -5.8404    2.4435    1.2548 H   0  0  0  0  0  0  0  0  0  0  0  0
   -4.6777    2.4152    2.6034 H   0  0  0  0  0  0  0  0  0  0  0  0
   -5.6831    0.9903    2.2406 H   0  0  0  0  0  0  0  0  0  0  0  0
   -4.1168    3.0247   -0.4364 H   0  0  0  0  0  0  0  0  0  0  0  0
   -2.3191    2.2207   -1.9016 H   0  0  0  0  0  0  0  0  0  0  0  0
   -0.2081    0.7847   -1.9231 H   0  0  0  0  0  0  0  0  0  0  0  0
   -1.3492   -0.3252   -2.6876 H   0  0  0  0  0  0  0  0  0  0  0  0
    2.4853   -0.7580    2.2601 H   0  0  0  0  0  0  0  0  0  0  0  0
    5.0810    2.0189    2.2072 H   0  0  0  0  0  0  0  0  0  0  0  0
    4.3389    2.1153    0.6893 H   0  0  0  0  0  0  0  0  0  0  0  0
    4.3342   -0.1507   -1.5694 H   0  0  0  0  0  0  0  0  0  0  0  0
   -1.6575   -2.6509   -1.2731 H   0  0  0  0  0  0  0  0  0  0  0  0
   -0.3162   -3.0978   -0.2443 H   0  0  0  0  0  0  0  0  0  0  0  0
   -1.0186   -1.4980    1.4871 H   0  0  0  0  0  0  0  0  0  0  0  0
   -2.4321   -2.4084    0.9634 H   0  0  0  0  0  0  0  0  0  0  0  0
   -3.6970   -0.4841    2.0182 H   0  0  0  0  0  0  0  0  0  0  0  0
  1  2  1  0
  2  3  1  0
  3  4  2  0
  4  5  1  0
  5  6  1  0
  6  7  1  0
  7  8  1  0
  8  9  1  0
  9 10  2  0
 10 11  1  0
 11 12  1  0
 12 13  1  0
 12 14  2  0
 12 15  2  0
 11 16  2  0
 16 17  1  0
 17 18  1  0
 18 19  1  0
 18 20  1  0
 18 21  1  0
  7 22  1  0
 22 23  1  0
 23 24  1  0
 24 25  1  0
 25  2  2  0
 24  5  2  0
 17  8  2  0
  1 26  1  0
  1 27  1  0
  1 28  1  0
  3 29  1  0
  4 30  1  0
  6 31  1  0
  6 32  1  0
 10 33  1  0
 13 34  1  0
 13 35  1  0
 16 36  1  0
 22 37  1  0
 22 38  1  0
 23 39  1  0
 23 40  1  0
 25 41  1  0
M  END
$$$$
OCNT-2314528
     RDKit          3D

 43 46  0  0  0  0  0  0  0  0999 V2000
    5.7990    1.1135    0.9476 C   0  0  0  0  0  0  0  0  0  0  0  0
    5.6337   -0.2654    0.9513 C   0  0  0  0  0  0  0  0  0  0  0  0
    4.5228   -0.8415    0.3215 C   0  0  0  0  0  0  0  0  0  0  0  0
    3.5475   -0.0681   -0.3292 C   0  0  0  0  0  0  0  0  0  0  0  0
    2.4566   -0.6409   -0.9410 N   0  0  0  0  0  0  0  0  0  0  0  0
    2.3145   -2.0750   -1.1756 C   0  0  0  0  0  0  0  0  0  0  0  0
    1.1614   -2.1711   -2.1726 C   0  0  0  0  0  0  0  0  0  0  0  0
    0.2981   -0.9471   -1.8604 C   0  0  0  0  0  0  0  0  0  0  0  0
   -0.6473   -1.2067   -0.6761 C   0  0  0  0  0  0  0  0  0  0  0  0
   -1.6309   -0.1238   -0.5771 N   0  0  0  0  0  0  0  0  0  0  0  0
   -2.6701   -0.3555    0.3604 C   0  0  0  0  0  0  0  0  0  0  0  0
   -2.6837   -1.5119    1.0451 N   0  0  0  0  0  0  0  0  0  0  0  0
   -3.6751   -1.6758    1.9270 C   0  0  0  0  0  0  0  0  0  0  0  0
   -4.6535   -0.8046    2.1942 N   0  0  0  0  0  0  0  0  0  0  0  0
   -4.6441    0.3342    1.4958 C   0  0  0  0  0  0  0  0  0  0  0  0
   -5.6492    1.2658    1.7286 C   0  0  0  0  0  0  0  0  0  0  0  0
   -5.7145    2.4750    1.0309 C   0  0  0  0  0  0  0  0  0  0  0  0
   -4.7571    2.7677    0.0699 C   0  0  0  0  0  0  0  0  0  0  0  0
   -3.7383    1.8510   -0.1798 C   0  0  0  0  0  0  0  0  0  0  0  0
   -3.6647    0.6280    0.5362 C   0  0  0  0  0  0  0  0  0  0  0  0
    1.3586    0.1137   -1.5425 C   0  0  0  0  0  0  0  0  0  0  0  0
    3.7453    1.3222   -0.3105 C   0  0  0  0  0  0  0  0  0  0  0  0
    4.8527    1.9094    0.3155 C   0  0  0  0  0  0  0  0  0  0  0  0
    6.6587    1.5644    1.4346 H   0  0  0  0  0  0  0  0  0  0  0  0
    6.3637   -0.9007    1.4452 H   0  0  0  0  0  0  0  0  0  0  0  0
    4.4311   -1.9230    0.3618 H   0  0  0  0  0  0  0  0  0  0  0  0
    3.2174   -2.5250   -1.6027 H   0  0  0  0  0  0  0  0  0  0  0  0
    2.0623   -2.5885   -0.2410 H   0  0  0  0  0  0  0  0  0  0  0  0
    1.5544   -2.0876   -3.1939 H   0  0  0  0  0  0  0  0  0  0  0  0
    0.6259   -3.1222   -2.0991 H   0  0  0  0  0  0  0  0  0  0  0  0
   -0.2919   -0.6552   -2.7374 H   0  0  0  0  0  0  0  0  0  0  0  0
   -0.0896   -1.2998    0.2641 H   0  0  0  0  0  0  0  0  0  0  0  0
   -1.1658   -2.1559   -0.8632 H   0  0  0  0  0  0  0  0  0  0  0  0
   -1.1922    0.7555   -0.3144 H   0  0  0  0  0  0  0  0  0  0  0  0
   -3.6852   -2.6071    2.4827 H   0  0  0  0  0  0  0  0  0  0  0  0
   -6.4088    1.0416    2.4747 H   0  0  0  0  0  0  0  0  0  0  0  0
   -6.5175    3.1778    1.2378 H   0  0  0  0  0  0  0  0  0  0  0  0
   -4.8046    3.6999   -0.4868 H   0  0  0  0  0  0  0  0  0  0  0  0
   -3.0039    2.0805   -0.9483 H   0  0  0  0  0  0  0  0  0  0  0  0
    0.9721    0.8897   -0.8742 H   0  0  0  0  0  0  0  0  0  0  0  0
    1.7045    0.5864   -2.4698 H   0  0  0  0  0  0  0  0  0  0  0  0
    3.0382    1.9865   -0.7982 H   0  0  0  0  0  0  0  0  0  0  0  0
    4.9697    2.9896    0.3036 H   0  0  0  0  0  0  0  0  0  0  0  0
  1  2  2  0
  2  3  1  0
  3  4  2  0
  4  5  1  0
  5  6  1  0
  6  7  1  0
  7  8  1  0
  8  9  1  0
  9 10  1  0
 10 11  1  0
 11 12  1  0
 12 13  2  0
 13 14  1  0
 14 15  2  0
 15 16  1  0
 16 17  2  0
 17 18  1  0
 18 19  2  0
 19 20  1  0
  8 21  1  0
  4 22  1  0
 22 23  2  0
 23  1  1  0
 21  5  1  0
 20 11  2  0
 20 15  1  0
  1 24  1  0
  2 25  1  0
  3 26  1  0
  6 27  1  0
  6 28  1  0
  7 29  1  0
  7 30  1  0
  8 31  1  0
  9 32  1  0
  9 33  1  0
 10 34  1  0
 13 35  1  0
 16 36  1  0
 17 37  1  0
 18 38  1  0
 19 39  1  0
 21 40  1  0
 21 41  1  0
 22 42  1  0
 23 43  1  0
M  END
$$$$
OCNT-2314532
     RDKit          3D

 49 52  0  0  0  0  0  0  0  0999 V2000
    7.5300   -0.4425   -1.1573 C   0  0  0  0  0  0  0  0  0  0  0  0
    6.1591   -0.3685   -1.5228 O   0  0  0  0  0  0  0  0  0  0  0  0
    5.3593    0.5799   -0.7813 C   0  0  2  0  0  0  0  0  0  0  0  0
    4.8562    0.1217    0.6085 C   0  0  0  0  0  0  0  0  0  0  0  0
    3.5518   -0.3517   -0.0795 C   0  0  1  0  0  0  0  0  0  0  0  0
    2.2802   -0.1261    0.7126 C   0  0  0  0  0  0  0  0  0  0  0  0
    1.1738   -0.4950   -0.1449 N   0  0  0  0  0  0  0  0  0  0  0  0
   -0.1065   -0.5081    0.3870 C   0  0  0  0  0  0  0  0  0  0  0  0
   -0.3308   -0.3135    1.5730 O   0  0  0  0  0  0  0  0  0  0  0  0
   -1.0202   -0.8114   -0.6004 N   0  0  0  0  0  0  0  0  0  0  0  0
   -2.4009   -0.7634   -0.4510 C   0  0  0  0  0  0  0  0  0  0  0  0
   -3.1550    0.1128    0.3163 C   0  0  0  0  0  0  0  0  0  0  0  0
   -2.8160    1.2987    1.1009 C   0  0  0  0  0  0  0  0  0  0  0  0
   -2.1530    2.3758    0.4994 C   0  0  0  0  0  0  0  0  0  0  0  0
   -1.8612    3.5272    1.2338 C   0  0  0  0  0  0  0  0  0  0  0  0
   -2.2306    3.6104    2.5753 C   0  0  0  0  0  0  0  0  0  0  0  0
   -2.8892    2.5428    3.1838 C   0  0  0  0  0  0  0  0  0  0  0  0
   -3.1831    1.3917    2.4491 C   0  0  0  0  0  0  0  0  0  0  0  0
   -4.4736   -0.2526    0.1517 N   0  0  0  0  0  0  0  0  0  0  0  0
   -4.5989   -1.2765   -0.7541 C   0  0  0  0  0  0  0  0  0  0  0  0
   -5.7457   -1.9152   -1.2407 C   0  0  0  0  0  0  0  0  0  0  0  0
   -5.5686   -2.9400   -2.1740 C   0  0  0  0  0  0  0  0  0  0  0  0
   -4.2953   -3.3093   -2.5991 C   0  0  0  0  0  0  0  0  0  0  0  0
   -3.1600   -2.6589   -2.1004 C   0  0  0  0  0  0  0  0  0  0  0  0
   -3.3107   -1.6159   -1.1602 C   0  0  0  0  0  0  0  0  0  0  0  0
    3.8755    0.6582   -1.2106 C   0  0  0  0  0  0  0  0  0  0  0  0
    7.6290   -0.7352   -0.1086 H   0  0  0  0  0  0  0  0  0  0  0  0
    8.0161   -1.1957   -1.7825 H   0  0  0  0  0  0  0  0  0  0  0  0
    8.0156    0.5232   -1.3238 H   0  0  0  0  0  0  0  0  0  0  0  0
    5.8449    1.5630   -0.7732 H   0  0  0  0  0  0  0  0  0  0  0  0
    5.4331   -0.6709    1.0934 H   0  0  0  0  0  0  0  0  0  0  0  0
    4.7311    0.9480    1.3185 H   0  0  0  0  0  0  0  0  0  0  0  0
    3.6395   -1.3949   -0.4191 H   0  0  0  0  0  0  0  0  0  0  0  0
    2.1558    0.9203    1.0126 H   0  0  0  0  0  0  0  0  0  0  0  0
    2.2571   -0.7511    1.6118 H   0  0  0  0  0  0  0  0  0  0  0  0
    1.1995   -0.1533   -1.0953 H   0  0  0  0  0  0  0  0  0  0  0  0
   -0.6792   -1.4762   -1.2779 H   0  0  0  0  0  0  0  0  0  0  0  0
   -1.8624    2.3211   -0.5465 H   0  0  0  0  0  0  0  0  0  0  0  0
   -1.3426    4.3556    0.7596 H   0  0  0  0  0  0  0  0  0  0  0  0
   -1.9965    4.5026    3.1497 H   0  0  0  0  0  0  0  0  0  0  0  0
   -3.1627    2.5991    4.2338 H   0  0  0  0  0  0  0  0  0  0  0  0
   -3.6731    0.5565    2.9427 H   0  0  0  0  0  0  0  0  0  0  0  0
   -5.2497    0.2217    0.5900 H   0  0  0  0  0  0  0  0  0  0  0  0
   -6.7388   -1.6304   -0.9087 H   0  0  0  0  0  0  0  0  0  0  0  0
   -6.4389   -3.4576   -2.5710 H   0  0  0  0  0  0  0  0  0  0  0  0
   -4.1797   -4.1127   -3.3226 H   0  0  0  0  0  0  0  0  0  0  0  0
   -2.1748   -2.9645   -2.4376 H   0  0  0  0  0  0  0  0  0  0  0  0
    3.6536    0.3069   -2.2223 H   0  0  0  0  0  0  0  0  0  0  0  0
    3.4362    1.6541   -1.0798 H   0  0  0  0  0  0  0  0  0  0  0  0
  1  2  1  0
  2  3  1  0
  3  4  1  0
  4  5  1  0
  5  6  1  0
  6  7  1  0
  7  8  1  0
  8  9  2  0
  8 10  1  0
 10 11  1  0
 11 12  2  0
 12 13  1  0
 13 14  2  0
 14 15  1  0
 15 16  2  0
 16 17  1  0
 17 18  2  0
 12 19  1  0
 19 20  1  0
 20 21  2  0
 21 22  1  0
 22 23  2  0
 23 24  1  0
 24 25  2  0
  5 26  1  0
 26  3  1  0
 25 11  1  0
 18 13  1  0
 25 20  1  0
  1 27  1  0
  1 28  1  0
  1 29  1  0
  3 30  1  1
  4 31  1  0
  4 32  1  0
  5 33  1  6
  6 34  1  0
  6 35  1  0
  7 36  1  0
 10 37  1  0
 14 38  1  0
 15 39  1  0
 16 40  1  0
 17 41  1  0
 18 42  1  0
 19 43  1  0
 21 44  1  0
 22 45  1  0
 23 46  1  0
 24 47  1  0
 26 48  1  0
 26 49  1  0
M  END
$$$$
OCNT-2314534
     RDKit          3D

 39 42  0  0  0  0  0  0  0  0999 V2000
   -0.4249   -1.1960   -0.0992 O   0  0  0  0  0  0  0  0  0  0  0  0
   -0.3085   -0.1030   -0.6400 C   0  0  0  0  0  0  0  0  0  0  0  0
    0.8127    0.7059   -0.5710 N   0  0  0  0  0  0  0  0  0  0  0  0
    1.9988    0.3951    0.0766 C   0  0  0  0  0  0  0  0  0  0  0  0
    2.3219   -0.7730    0.7261 C   0  0  0  0  0  0  0  0  0  0  0  0
    3.5940   -0.6539    1.2187 N   0  0  0  0  0  0  0  0  0  0  0  0
    4.1146    0.5781    0.8986 C   0  0  0  0  0  0  0  0  0  0  0  0
    5.3677    1.1299    1.1904 C   0  0  0  0  0  0  0  0  0  0  0  0
    5.6281    2.4243    0.7325 C   0  0  0  0  0  0  0  0  0  0  0  0
    4.6723    3.1360    0.0125 C   0  0  0  0  0  0  0  0  0  0  0  0
    3.4235    2.5694   -0.2709 C   0  0  0  0  0  0  0  0  0  0  0  0
    3.1334    1.2629    0.1790 C   0  0  0  0  0  0  0  0  0  0  0  0
   -1.4017    0.4638   -1.4167 C   0  0  0  0  0  0  0  0  0  0  0  0
   -1.3073    1.4159   -2.4084 C   0  0  0  0  0  0  0  0  0  0  0  0
   -2.5298    1.6873   -2.9144 O   0  0  0  0  0  0  0  0  0  0  0  0
   -3.4700    0.9129   -2.2765 N   0  0  0  0  0  0  0  0  0  0  0  0
   -2.8004    0.1652   -1.3846 C   0  0  0  0  0  0  0  0  0  0  0  0
   -3.5867   -0.7880   -0.5389 C   0  0  0  0  0  0  0  0  0  0  0  0
   -3.2756   -2.2745   -0.7740 C   0  0  0  0  0  0  0  0  0  0  0  0
   -3.1828   -2.9121    0.6123 C   0  0  0  0  0  0  0  0  0  0  0  0
   -3.8464   -1.9193    1.5537 C   0  0  0  0  0  0  0  0  0  0  0  0
   -3.4591   -0.5692    0.9708 C   0  0  0  0  0  0  0  0  0  0  0  0
    0.7782    1.6301   -0.9733 H   0  0  0  0  0  0  0  0  0  0  0  0
    1.7639   -1.6859    0.8871 H   0  0  0  0  0  0  0  0  0  0  0  0
    4.0830   -1.3672    1.7418 H   0  0  0  0  0  0  0  0  0  0  0  0
    6.1150    0.5782    1.7517 H   0  0  0  0  0  0  0  0  0  0  0  0
    6.5925    2.8814    0.9432 H   0  0  0  0  0  0  0  0  0  0  0  0
    4.8969    4.1424   -0.3328 H   0  0  0  0  0  0  0  0  0  0  0  0
    2.6915    3.1408   -0.8322 H   0  0  0  0  0  0  0  0  0  0  0  0
   -0.4960    1.9624   -2.8654 H   0  0  0  0  0  0  0  0  0  0  0  0
   -4.6519   -0.6525   -0.7837 H   0  0  0  0  0  0  0  0  0  0  0  0
   -2.3604   -2.4511   -1.3484 H   0  0  0  0  0  0  0  0  0  0  0  0
   -4.0935   -2.7341   -1.3427 H   0  0  0  0  0  0  0  0  0  0  0  0
   -2.1313   -3.0448    0.8916 H   0  0  0  0  0  0  0  0  0  0  0  0
   -3.6602   -3.8960    0.6463 H   0  0  0  0  0  0  0  0  0  0  0  0
   -4.9353   -2.0447    1.5297 H   0  0  0  0  0  0  0  0  0  0  0  0
   -3.5107   -2.0384    2.5878 H   0  0  0  0  0  0  0  0  0  0  0  0
   -2.4391   -0.3098    1.2721 H   0  0  0  0  0  0  0  0  0  0  0  0
   -4.1165    0.2317    1.3253 H   0  0  0  0  0  0  0  0  0  0  0  0
  1  2  2  0
  2  3  1  0
  3  4  1  0
  4  5  2  0
  5  6  1  0
  6  7  1  0
  7  8  2  0
  8  9  1  0
  9 10  2  0
 10 11  1  0
 11 12  2  0
  2 13  1  0
 13 14  2  0
 14 15  1  0
 15 16  1  0
 16 17  2  0
 17 18  1  0
 18 19  1  0
 19 20  1  0
 20 21  1  0
 21 22  1  0
 12  4  1  0
 17 13  1  0
 22 18  1  0
 12  7  1  0
  3 23  1  0
  5 24  1  0
  6 25  1  0
  8 26  1  0
  9 27  1  0
 10 28  1  0
 11 29  1  0
 14 30  1  0
 18 31  1  0
 19 32  1  0
 19 33  1  0
 20 34  1  0
 20 35  1  0
 21 36  1  0
 21 37  1  0
 22 38  1  0
 22 39  1  0
M  END
$$$$
OCNT-2314536
     RDKit          3D

 40 42  0  0  0  0  0  0  0  0999 V2000
    7.9967   -0.4145   -0.7197 C   0  0  0  0  0  0  0  0  0  0  0  0
    6.5342   -0.1378   -0.5368 C   0  0  0  0  0  0  0  0  0  0  0  0
    6.0986    1.1054   -0.0698 C   0  0  0  0  0  0  0  0  0  0  0  0
    4.7348    1.3549    0.1318 C   0  0  0  0  0  0  0  0  0  0  0  0
    3.7720    0.3643   -0.1180 C   0  0  0  0  0  0  0  0  0  0  0  0
    2.3197    0.5641    0.0732 C   0  0  0  0  0  0  0  0  0  0  0  0
    1.4110   -0.3501   -0.2088 N   0  0  0  0  0  0  0  0  0  0  0  0
    0.1193    0.0988    0.0652 C   0  0  0  0  0  0  0  0  0  0  0  0
   -1.0426   -0.7734   -0.1723 C   0  0  0  0  0  0  0  0  0  0  0  0
   -0.9417   -1.9875   -0.3275 O   0  0  0  0  0  0  0  0  0  0  0  0
   -2.2667   -0.1328   -0.2319 N   0  0  0  0  0  0  0  0  0  0  0  0
   -3.4531   -0.8762   -0.5850 C   0  0  0  0  0  0  0  0  0  0  0  0
   -4.6887   -0.0491   -0.3696 C   0  0  0  0  0  0  0  0  0  0  0  0
   -5.3043    0.5598   -1.4633 C   0  0  0  0  0  0  0  0  0  0  0  0
   -6.3983    1.3484   -1.3856 N   0  0  0  0  0  0  0  0  0  0  0  0
   -6.9167    1.5404   -0.1569 C   0  0  0  0  0  0  0  0  0  0  0  0
   -6.3865    0.9866    0.9971 C   0  0  0  0  0  0  0  0  0  0  0  0
   -5.2485    0.1775    0.9009 C   0  0  0  0  0  0  0  0  0  0  0  0
   -4.6622   -0.4266    2.1463 C   0  0  0  0  0  0  0  0  0  0  0  0
    0.0827    1.3829    0.5787 C   0  0  0  0  0  0  0  0  0  0  0  0
    1.6623    2.0297    0.6973 S   0  0  0  0  0  0  0  0  0  0  0  0
    4.2269   -0.8850   -0.5737 C   0  0  0  0  0  0  0  0  0  0  0  0
    5.5880   -1.1368   -0.7757 C   0  0  0  0  0  0  0  0  0  0  0  0
    8.1590   -1.1465   -1.5178 H   0  0  0  0  0  0  0  0  0  0  0  0
    8.5344    0.4970   -1.0014 H   0  0  0  0  0  0  0  0  0  0  0  0
    8.4230   -0.8039    0.2099 H   0  0  0  0  0  0  0  0  0  0  0  0
    6.8182    1.8938    0.1410 H   0  0  0  0  0  0  0  0  0  0  0  0
    4.4520    2.3415    0.4890 H   0  0  0  0  0  0  0  0  0  0  0  0
   -2.2867    0.8686   -0.3579 H   0  0  0  0  0  0  0  0  0  0  0  0
   -3.3588   -1.1751   -1.6361 H   0  0  0  0  0  0  0  0  0  0  0  0
   -3.4973   -1.8039   -0.0032 H   0  0  0  0  0  0  0  0  0  0  0  0
   -4.9192    0.4302   -2.4723 H   0  0  0  0  0  0  0  0  0  0  0  0
   -7.7995    2.1723   -0.1194 H   0  0  0  0  0  0  0  0  0  0  0  0
   -6.8593    1.1868    1.9534 H   0  0  0  0  0  0  0  0  0  0  0  0
   -3.6365   -0.0761    2.2960 H   0  0  0  0  0  0  0  0  0  0  0  0
   -4.6711   -1.5190    2.0809 H   0  0  0  0  0  0  0  0  0  0  0  0
   -5.2372   -0.1469    3.0357 H   0  0  0  0  0  0  0  0  0  0  0  0
   -0.7681    1.9641    0.9020 H   0  0  0  0  0  0  0  0  0  0  0  0
    3.5121   -1.6833   -0.7738 H   0  0  0  0  0  0  0  0  0  0  0  0
    5.8982   -2.1203   -1.1217 H   0  0  0  0  0  0  0  0  0  0  0  0
  1  2  1  0
  2  3  1  0
  3  4  2  0
  4  5  1  0
  5  6  1  0
  6  7  2  0
  7  8  1  0
  8  9  1  0
  9 10  2  0
  9 11  1  0
 11 12  1  0
 12 13  1  0
 13 14  2  0
 14 15  1  0
 15 16  2  0
 16 17  1  0
 17 18  2  0
 18 19  1  0
  8 20  2  0
 20 21  1  0
  5 22  2  0
 22 23  1  0
 23  2  2  0
 21  6  1  0
 18 13  1  0
  1 24  1  0
  1 25  1  0
  1 26  1  0
  3 27  1  0
  4 28  1  0
 11 29  1  0
 12 30  1  0
 12 31  1  0
 14 32  1  0
 16 33  1  0
 17 34  1  0
 19 35  1  0
 19 36  1  0
 19 37  1  0
 20 38  1  0
 22 39  1  0
 23 40  1  0
M  END
$$$$
OCNT-2314551
     RDKit          3D

 53 56  0  0  0  0  0  0  0  0999 V2000
   -9.1915    0.2096    1.5547 C   0  0  0  0  0  0  0  0  0  0  0  0
   -8.2210   -0.4945    0.6064 C   0  0  0  0  0  0  0  0  0  0  0  0
   -8.9509   -1.0822   -0.6005 C   0  0  0  0  0  0  0  0  0  0  0  0
   -7.1411    0.3927    0.1912 N   0  0  0  0  0  0  0  0  0  0  0  0
   -7.4156    1.5455   -0.4701 N   0  0  0  0  0  0  0  0  0  0  0  0
   -6.2081    2.0780   -0.6821 C   0  0  0  0  0  0  0  0  0  0  0  0
   -5.1603    1.2882   -0.1650 C   0  0  0  0  0  0  0  0  0  0  0  0
   -3.7600    1.3495   -0.0972 C   0  0  0  0  0  0  0  0  0  0  0  0
   -3.1031    0.2877    0.5387 C   0  0  0  0  0  0  0  0  0  0  0  0
   -1.6331    0.2206    0.6840 C   0  0  0  0  0  0  0  0  0  0  0  0
   -1.0418   -0.7548    1.1180 O   0  0  0  0  0  0  0  0  0  0  0  0
   -1.0637    1.3893    0.2999 O   0  0  0  0  0  0  0  0  0  0  0  0
    0.3629    1.3631    0.2891 C   0  0  0  0  0  0  0  0  0  0  0  0
    0.9273    0.6130   -0.9203 C   0  0  0  0  0  0  0  0  0  0  0  0
    0.2543    0.3360   -1.9099 O   0  0  0  0  0  0  0  0  0  0  0  0
    2.2633    0.2884   -0.8022 N   0  0  0  0  0  0  0  0  0  0  0  0
    2.9928   -0.2980   -1.9144 C   0  0  0  0  0  0  0  0  0  0  0  0
    4.2793   -0.9781   -1.4485 C   0  0  0  0  0  0  0  0  0  0  0  0
    5.1290    0.0217   -0.8752 O   0  0  0  0  0  0  0  0  0  0  0  0
    6.3570   -0.3846   -0.4276 C   0  0  0  0  0  0  0  0  0  0  0  0
    6.8347   -1.7088   -0.4280 C   0  0  0  0  0  0  0  0  0  0  0  0
    8.1151   -2.0061    0.0571 C   0  0  0  0  0  0  0  0  0  0  0  0
    8.8826   -0.9651    0.5308 C   0  0  0  0  0  0  0  0  0  0  0  0
   10.1411   -1.0678    1.0342 O   0  0  0  0  0  0  0  0  0  0  0  0
   10.4170    0.3110    1.3578 C   0  0  0  0  0  0  0  0  0  0  0  0
    9.3265    1.2026    1.0449 O   0  0  0  0  0  0  0  0  0  0  0  0
    8.4187    0.3274    0.5357 C   0  0  0  0  0  0  0  0  0  0  0  0
    7.1635    0.6483    0.0649 C   0  0  0  0  0  0  0  0  0  0  0  0
   -3.8625   -0.7612    1.0545 C   0  0  0  0  0  0  0  0  0  0  0  0
   -5.2173   -0.8581    1.0166 N   0  0  0  0  0  0  0  0  0  0  0  0
   -5.7989    0.1909    0.3973 C   0  0  0  0  0  0  0  0  0  0  0  0
   -8.6607    0.6261    2.4178 H   0  0  0  0  0  0  0  0  0  0  0  0
   -9.9449   -0.4922    1.9278 H   0  0  0  0  0  0  0  0  0  0  0  0
   -9.7164    1.0330    1.0580 H   0  0  0  0  0  0  0  0  0  0  0  0
   -7.7589   -1.3218    1.1577 H   0  0  0  0  0  0  0  0  0  0  0  0
   -9.4578   -0.3054   -1.1835 H   0  0  0  0  0  0  0  0  0  0  0  0
   -8.2501   -1.5942   -1.2693 H   0  0  0  0  0  0  0  0  0  0  0  0
   -9.7050   -1.8091   -0.2808 H   0  0  0  0  0  0  0  0  0  0  0  0
   -6.1405    3.0229   -1.2057 H   0  0  0  0  0  0  0  0  0  0  0  0
   -3.2197    2.1847   -0.5298 H   0  0  0  0  0  0  0  0  0  0  0  0
    0.7062    2.4009    0.2221 H   0  0  0  0  0  0  0  0  0  0  0  0
    0.7554    0.9449    1.2236 H   0  0  0  0  0  0  0  0  0  0  0  0
    2.8175    0.7502   -0.0899 H   0  0  0  0  0  0  0  0  0  0  0  0
    3.2209    0.5213   -2.6049 H   0  0  0  0  0  0  0  0  0  0  0  0
    2.3480   -1.0173   -2.4297 H   0  0  0  0  0  0  0  0  0  0  0  0
    4.7710   -1.4372   -2.3138 H   0  0  0  0  0  0  0  0  0  0  0  0
    4.0394   -1.7409   -0.6982 H   0  0  0  0  0  0  0  0  0  0  0  0
    6.2322   -2.5326   -0.7981 H   0  0  0  0  0  0  0  0  0  0  0  0
    8.4925   -3.0226    0.0609 H   0  0  0  0  0  0  0  0  0  0  0  0
   10.6321    0.3826    2.4302 H   0  0  0  0  0  0  0  0  0  0  0  0
   11.3037    0.6319    0.7993 H   0  0  0  0  0  0  0  0  0  0  0  0
    6.8153    1.6746    0.0741 H   0  0  0  0  0  0  0  0  0  0  0  0
   -3.3765   -1.6040    1.5453 H   0  0  0  0  0  0  0  0  0  0  0  0
  1  2  1  0
  2  3  1  0
  2  4  1  0
  4  5  1  0
  5  6  2  0
  6  7  1  0
  7  8  1  0
  8  9  2  0
  9 10  1  0
 10 11  2  0
 10 12  1  0
 12 13  1  0
 13 14  1  0
 14 15  2  0
 14 16  1  0
 16 17  1  0
 17 18  1  0
 18 19  1  0
 19 20  1  0
 20 21  1  0
 21 22  2  0
 22 23  1  0
 23 24  1  0
 24 25  1  0
 25 26  1  0
 26 27  1  0
 27 28  1  0
  9 29  1  0
 29 30  2  0
 30 31  1  0
 31  4  1  0
 31  7  2  0
 28 20  2  0
 27 23  2  0
  1 32  1  0
  1 33  1  0
  1 34  1  0
  2 35  1  0
  3 36  1  0
  3 37  1  0
  3 38  1  0
  6 39  1  0
  8 40  1  0
 13 41  1  0
 13 42  1  0
 16 43  1  0
 17 44  1  0
 17 45  1  0
 18 46  1  0
 18 47  1  0
 21 48  1  0
 22 49  1  0
 25 50  1  0
 25 51  1  0
 28 52  1  0
 29 53  1  0
M  END
$$$$
OCNT-2314567
     RDKit          3D

 39 41  0  0  0  0  0  0  0  0999 V2000
    6.6271   -1.4835    0.6037 C   0  0  0  0  0  0  0  0  0  0  0  0
    6.3988   -0.7775   -0.6106 O   0  0  0  0  0  0  0  0  0  0  0  0
    5.9201    0.5496   -0.3935 C   0  0  0  0  0  0  0  0  0  0  0  0
    4.4329    0.5711   -0.1719 C   0  0  0  0  0  0  0  0  0  0  0  0
    3.8564    1.3551    0.8321 C   0  0  0  0  0  0  0  0  0  0  0  0
    2.4727    1.3681    0.9901 C   0  0  0  0  0  0  0  0  0  0  0  0
    1.7066    0.5967    0.1263 C   0  0  0  0  0  0  0  0  0  0  0  0
    0.2109    0.5770    0.2569 C   0  0  0  0  0  0  0  0  0  0  0  0
   -0.3371    1.2464    1.1242 O   0  0  0  0  0  0  0  0  0  0  0  0
   -0.3931   -0.2426   -0.6778 N   0  0  0  0  0  0  0  0  0  0  0  0
   -1.7616   -0.5077   -0.8570 C   0  0  0  0  0  0  0  0  0  0  0  0
   -2.1119   -1.3687   -1.9017 C   0  0  0  0  0  0  0  0  0  0  0  0
   -3.4497   -1.6769   -2.1470 C   0  0  0  0  0  0  0  0  0  0  0  0
   -4.4511   -1.1287   -1.3450 C   0  0  0  0  0  0  0  0  0  0  0  0
   -4.1246   -0.2698   -0.2871 C   0  0  0  0  0  0  0  0  0  0  0  0
   -5.1632    0.3130    0.5636 C   0  0  0  0  0  0  0  0  0  0  0  0
   -5.2068    1.4977    1.2759 C   0  0  0  0  0  0  0  0  0  0  0  0
   -6.4604    1.5085    1.9121 C   0  0  0  0  0  0  0  0  0  0  0  0
   -7.1725    0.4136    1.6441 N   0  0  0  0  0  0  0  0  0  0  0  0
   -6.3616   -0.2978    0.8422 N   0  0  0  0  0  0  0  0  0  0  0  0
   -2.7717    0.0350   -0.0574 C   0  0  0  0  0  0  0  0  0  0  0  0
    2.2292   -0.1724   -0.8715 N   0  0  0  0  0  0  0  0  0  0  0  0
    3.5769   -0.1605   -0.9924 C   0  0  0  0  0  0  0  0  0  0  0  0
    7.3942   -0.9801    1.1999 H   0  0  0  0  0  0  0  0  0  0  0  0
    6.9848   -2.4860    0.3538 H   0  0  0  0  0  0  0  0  0  0  0  0
    5.7028   -1.5792    1.1811 H   0  0  0  0  0  0  0  0  0  0  0  0
    6.4650    1.0195    0.4342 H   0  0  0  0  0  0  0  0  0  0  0  0
    6.1398    1.1304   -1.2963 H   0  0  0  0  0  0  0  0  0  0  0  0
    4.4749    1.9565    1.4942 H   0  0  0  0  0  0  0  0  0  0  0  0
    2.0042    1.9661    1.7655 H   0  0  0  0  0  0  0  0  0  0  0  0
    0.2653   -0.6955   -1.3093 H   0  0  0  0  0  0  0  0  0  0  0  0
   -1.3483   -1.8052   -2.5406 H   0  0  0  0  0  0  0  0  0  0  0  0
   -3.7120   -2.3387   -2.9684 H   0  0  0  0  0  0  0  0  0  0  0  0
   -5.4858   -1.3677   -1.5757 H   0  0  0  0  0  0  0  0  0  0  0  0
   -4.4389    2.2573    1.3223 H   0  0  0  0  0  0  0  0  0  0  0  0
   -6.8822    2.2674    2.5584 H   0  0  0  0  0  0  0  0  0  0  0  0
   -6.6817   -1.2054    0.5255 H   0  0  0  0  0  0  0  0  0  0  0  0
   -2.5203    0.6955    0.7664 H   0  0  0  0  0  0  0  0  0  0  0  0
    3.9720   -0.7807   -1.7950 H   0  0  0  0  0  0  0  0  0  0  0  0
  1  2  1  0
  2  3  1  0
  3  4  1  0
  4  5  2  0
  5  6  1  0
  6  7  2  0
  7  8  1  0
  8  9  2  0
  8 10  1  0
 10 11  1  0
 11 12  2  0
 12 13  1  0
 13 14  2  0
 14 15  1  0
 15 16  1  0
 16 17  2  0
 17 18  1  0
 18 19  2  0
 19 20  1  0
 15 21  2  0
  7 22  1  0
 22 23  2  0
 23  4  1  0
 21 11  1  0
 20 16  1  0
  1 24  1  0
  1 25  1  0
  1 26  1  0
  3 27  1  0
  3 28  1  0
  5 29  1  0
  6 30  1  0
 10 31  1  0
 12 32  1  0
 13 33  1  0
 14 34  1  0
 17 35  1  0
 18 36  1  0
 20 37  1  0
 21 38  1  0
 23 39  1  0
M  END
$$$$
OCNT-2314568
     RDKit          3D

 36 38  0  0  0  0  0  0  0  0999 V2000
   -1.8441   -1.0522    2.0802 O   0  0  0  0  0  0  0  0  0  0  0  0
   -1.8456   -1.6998    0.8011 C   0  0  0  0  0  0  0  0  0  0  0  0
   -1.9020   -0.6495   -0.3395 C   0  0  0  0  0  0  0  0  0  0  0  0
   -0.8558    0.3577   -0.1120 N   0  0  0  0  0  0  0  0  0  0  0  0
    0.3818    0.1715   -0.6337 C   0  0  0  0  0  0  0  0  0  0  0  0
    1.4773    0.3289    0.0701 N   0  0  0  0  0  0  0  0  0  0  0  0
    2.5966    0.0888   -0.7349 C   0  0  0  0  0  0  0  0  0  0  0  0
    3.9438    0.1953   -0.1621 C   0  0  0  0  0  0  0  0  0  0  0  0
    4.1158    0.5579    1.1829 C   0  0  0  0  0  0  0  0  0  0  0  0
    5.3946    0.6612    1.7376 C   0  0  0  0  0  0  0  0  0  0  0  0
    6.5174    0.4033    0.9544 C   0  0  0  0  0  0  0  0  0  0  0  0
    6.3642    0.0427   -0.3826 C   0  0  0  0  0  0  0  0  0  0  0  0
    5.0856   -0.0606   -0.9379 C   0  0  0  0  0  0  0  0  0  0  0  0
    2.3931   -0.2433   -2.0163 N   0  0  0  0  0  0  0  0  0  0  0  0
    0.7494   -0.2314   -2.2707 S   0  0  0  0  0  0  0  0  0  0  0  0
   -3.2743    0.0029   -0.4176 C   0  0  0  0  0  0  0  0  0  0  0  0
   -3.5554    1.2855    0.0816 C   0  0  0  0  0  0  0  0  0  0  0  0
   -4.8425    1.8252   -0.0118 C   0  0  0  0  0  0  0  0  0  0  0  0
   -5.8715    1.0911   -0.6010 C   0  0  0  0  0  0  0  0  0  0  0  0
   -5.6109   -0.1848   -1.0949 C   0  0  0  0  0  0  0  0  0  0  0  0
   -6.8860   -1.0910   -1.8143 Cl  0  0  0  0  0  0  0  0  0  0  0  0
   -4.3254   -0.7194   -1.0008 C   0  0  0  0  0  0  0  0  0  0  0  0
   -4.0782   -1.9540   -1.4698 F   0  0  0  0  0  0  0  0  0  0  0  0
   -1.7847   -1.7555    2.7509 H   0  0  0  0  0  0  0  0  0  0  0  0
   -2.6929   -2.3918    0.7620 H   0  0  0  0  0  0  0  0  0  0  0  0
   -0.9183   -2.2786    0.7285 H   0  0  0  0  0  0  0  0  0  0  0  0
   -1.7429   -1.1643   -1.2950 H   0  0  0  0  0  0  0  0  0  0  0  0
   -0.8081    0.5498    0.8915 H   0  0  0  0  0  0  0  0  0  0  0  0
    3.2510    0.7652    1.8103 H   0  0  0  0  0  0  0  0  0  0  0  0
    5.5112    0.9443    2.7806 H   0  0  0  0  0  0  0  0  0  0  0  0
    7.5120    0.4844    1.3854 H   0  0  0  0  0  0  0  0  0  0  0  0
    7.2387   -0.1579   -0.9964 H   0  0  0  0  0  0  0  0  0  0  0  0
    4.9890   -0.3426   -1.9846 H   0  0  0  0  0  0  0  0  0  0  0  0
   -2.7742    1.8817    0.5496 H   0  0  0  0  0  0  0  0  0  0  0  0
   -5.0396    2.8216    0.3783 H   0  0  0  0  0  0  0  0  0  0  0  0
   -6.8689    1.5176   -0.6690 H   0  0  0  0  0  0  0  0  0  0  0  0
  1  2  1  0
  2  3  1  0
  3  4  1  0
  4  5  1  0
  5  6  2  0
  6  7  1  0
  7  8  1  0
  8  9  2  0
  9 10  1  0
 10 11  2  0
 11 12  1  0
 12 13  2  0
  7 14  2  0
 14 15  1  0
  3 16  1  0
 16 17  2  0
 17 18  1  0
 18 19  2  0
 19 20  1  0
 20 21  1  0
 20 22  2  0
 22 23  1  0
 15  5  1  0
 22 16  1  0
 13  8  1  0
  1 24  1  0
  2 25  1  0
  2 26  1  0
  3 27  1  0
  4 28  1  0
  9 29  1  0
 10 30  1  0
 11 31  1  0
 12 32  1  0
 13 33  1  0
 17 34  1  0
 18 35  1  0
 19 36  1  0
M  END
$$$$
OCNT-2314574
     RDKit          3D

 41 43  0  0  0  0  0  0  0  0999 V2000
   -1.4142    2.3845    0.3521 N   0  0  0  0  0  0  0  0  0  0  0  0
   -2.3335    1.6452    1.5330 S   0  0  0  0  0  0  0  0  0  0  0  0
   -3.2799    2.6459    1.9662 O   0  0  0  0  0  0  0  0  0  0  0  0
   -1.3942    1.0416    2.4479 O   0  0  0  0  0  0  0  0  0  0  0  0
   -3.2045    0.3640    0.6381 C   0  0  0  0  0  0  0  0  0  0  0  0
   -2.3724   -0.4152   -0.3883 C   0  0  0  0  0  0  0  0  0  0  0  0
   -3.2767   -1.4583   -1.0734 C   0  0  0  0  0  0  0  0  0  0  0  0
   -2.4926   -2.3108   -2.0661 C   0  0  0  0  0  0  0  0  0  0  0  0
   -1.2791   -2.9533   -1.4065 C   0  0  0  0  0  0  0  0  0  0  0  0
   -0.4511   -1.9501   -0.7488 N   0  0  0  0  0  0  0  0  0  0  0  0
    0.9194   -2.2303   -0.6312 C   0  0  0  0  0  0  0  0  0  0  0  0
    1.4008   -3.3219   -0.9373 O   0  0  0  0  0  0  0  0  0  0  0  0
    1.8506   -1.1668   -0.1605 C   0  0  0  0  0  0  0  0  0  0  0  0
    2.9914   -1.5325    0.5304 C   0  0  0  0  0  0  0  0  0  0  0  0
    3.9078   -0.6247    0.9470 N   0  0  0  0  0  0  0  0  0  0  0  0
    3.6694    0.6596    0.6170 C   0  0  0  0  0  0  0  0  0  0  0  0
    4.5742    1.6431    0.9954 C   0  0  0  0  0  0  0  0  0  0  0  0
    4.3752    2.9824    0.6576 C   0  0  0  0  0  0  0  0  0  0  0  0
    3.2541    3.3455   -0.0773 C   0  0  0  0  0  0  0  0  0  0  0  0
    2.3353    2.3676   -0.4611 C   0  0  0  0  0  0  0  0  0  0  0  0
    2.5136    1.0324   -0.1197 C   0  0  0  0  0  0  0  0  0  0  0  0
    1.5917    0.1264   -0.4994 N   0  0  0  0  0  0  0  0  0  0  0  0
   -1.1457   -1.1041    0.2259 C   0  0  0  0  0  0  0  0  0  0  0  0
   -1.6473    3.3770    0.2902 H   0  0  0  0  0  0  0  0  0  0  0  0
   -0.4205    2.2008    0.5076 H   0  0  0  0  0  0  0  0  0  0  0  0
   -4.0432    0.8602    0.1361 H   0  0  0  0  0  0  0  0  0  0  0  0
   -3.6201   -0.3067    1.3988 H   0  0  0  0  0  0  0  0  0  0  0  0
   -2.0189    0.2771   -1.1638 H   0  0  0  0  0  0  0  0  0  0  0  0
   -4.0988   -0.9560   -1.5971 H   0  0  0  0  0  0  0  0  0  0  0  0
   -3.7312   -2.1125   -0.3182 H   0  0  0  0  0  0  0  0  0  0  0  0
   -2.1621   -1.6775   -2.8989 H   0  0  0  0  0  0  0  0  0  0  0  0
   -3.1420   -3.0861   -2.4874 H   0  0  0  0  0  0  0  0  0  0  0  0
   -1.5847   -3.6865   -0.6503 H   0  0  0  0  0  0  0  0  0  0  0  0
   -0.6948   -3.4857   -2.1653 H   0  0  0  0  0  0  0  0  0  0  0  0
    3.2073   -2.5682    0.7709 H   0  0  0  0  0  0  0  0  0  0  0  0
    5.4570    1.3564    1.5624 H   0  0  0  0  0  0  0  0  0  0  0  0
    5.1000    3.7335    0.9626 H   0  0  0  0  0  0  0  0  0  0  0  0
    3.0962    4.3843   -0.3573 H   0  0  0  0  0  0  0  0  0  0  0  0
    1.4681    2.6520   -1.0520 H   0  0  0  0  0  0  0  0  0  0  0  0
   -0.4581   -0.3748    0.6475 H   0  0  0  0  0  0  0  0  0  0  0  0
   -1.4469   -1.7575    1.0551 H   0  0  0  0  0  0  0  0  0  0  0  0
  1  2  1  0
  2  3  2  0
  2  4  2  0
  2  5  1  0
  5  6  1  0
  6  7  1  0
  7  8  1  0
  8  9  1  0
  9 10  1  0
 10 11  1  0
 11 12  2  0
 11 13  1  0
 13 14  1  0
 14 15  2  0
 15 16  1  0
 16 17  2  0
 17 18  1  0
 18 19  2  0
 19 20  1  0
 20 21  2  0
 21 22  1  0
 10 23  1  0
 23  6  1  0
 22 13  2  0
 21 16  1  0
  1 24  1  0
  1 25  1  0
  5 26  1  0
  5 27  1  0
  6 28  1  0
  7 29  1  0
  7 30  1  0
  8 31  1  0
  8 32  1  0
  9 33  1  0
  9 34  1  0
 14 35  1  0
 17 36  1  0
 18 37  1  0
 19 38  1  0
 20 39  1  0
 23 40  1  0
 23 41  1  0
M  END
$$$$
OCNT-2314582
     RDKit          3D

 43 46  0  0  0  0  0  0  0  0999 V2000
   -5.3247    1.4890    1.5339 C   0  0  0  0  0  0  0  0  0  0  0  0
   -4.6216    0.7632    0.3827 C   0  0  0  0  0  0  0  0  0  0  0  0
   -4.9488    1.4909   -0.9279 C   0  0  0  0  0  0  0  0  0  0  0  0
   -5.1370   -0.5699    0.4010 O   0  0  0  0  0  0  0  0  0  0  0  0
   -4.4810   -1.4265   -0.5223 C   0  0  0  0  0  0  0  0  0  0  0  0
   -2.9983   -1.3013   -0.3957 C   0  0  0  0  0  0  0  0  0  0  0  0
   -2.1432   -2.2979   -0.8767 C   0  0  0  0  0  0  0  0  0  0  0  0
   -0.7574   -2.1532   -0.7605 C   0  0  0  0  0  0  0  0  0  0  0  0
   -0.1952   -1.0107   -0.1684 C   0  0  0  0  0  0  0  0  0  0  0  0
    1.2641   -0.8602   -0.0451 C   0  0  0  0  0  0  0  0  0  0  0  0
    2.0433   -1.8504    0.5721 C   0  0  0  0  0  0  0  0  0  0  0  0
    3.4279   -1.7081    0.6925 C   0  0  0  0  0  0  0  0  0  0  0  0
    4.0657   -0.5646    0.2011 C   0  0  0  0  0  0  0  0  0  0  0  0
    5.5646   -0.4281    0.2981 C   0  0  0  0  0  0  0  0  0  0  0  0
    6.0330    1.0135    0.0698 C   0  0  0  0  0  0  0  0  0  0  0  0
    5.4202    1.5802   -1.1333 N   0  0  0  0  0  0  0  0  0  0  0  0
    3.9670    1.6928   -0.9555 C   0  0  0  0  0  0  0  0  0  0  0  0
    3.3115    0.4321   -0.4394 C   0  0  0  0  0  0  0  0  0  0  0  0
    1.9184    0.2793   -0.5435 C   0  0  0  0  0  0  0  0  0  0  0  0
   -1.0680   -0.0153    0.2987 C   0  0  0  0  0  0  0  0  0  0  0  0
   -2.4520   -0.1573    0.1772 C   0  0  0  0  0  0  0  0  0  0  0  0
   -3.2160    0.8685    0.6555 O   0  0  0  0  0  0  0  0  0  0  0  0
   -5.1008    0.9962    2.4877 H   0  0  0  0  0  0  0  0  0  0  0  0
   -6.4131    1.4742    1.4111 H   0  0  0  0  0  0  0  0  0  0  0  0
   -4.9866    2.5272    1.6216 H   0  0  0  0  0  0  0  0  0  0  0  0
   -4.3898    1.0720   -1.7714 H   0  0  0  0  0  0  0  0  0  0  0  0
   -4.6697    2.5488   -0.8712 H   0  0  0  0  0  0  0  0  0  0  0  0
   -6.0137    1.4111   -1.1699 H   0  0  0  0  0  0  0  0  0  0  0  0
   -4.7957   -2.4495   -0.2900 H   0  0  0  0  0  0  0  0  0  0  0  0
   -4.8063   -1.1994   -1.5432 H   0  0  0  0  0  0  0  0  0  0  0  0
   -2.5471   -3.1942   -1.3419 H   0  0  0  0  0  0  0  0  0  0  0  0
   -0.1116   -2.9394   -1.1477 H   0  0  0  0  0  0  0  0  0  0  0  0
    1.5712   -2.7433    0.9767 H   0  0  0  0  0  0  0  0  0  0  0  0
    4.0048   -2.4949    1.1727 H   0  0  0  0  0  0  0  0  0  0  0  0
    5.9067   -0.7600    1.2854 H   0  0  0  0  0  0  0  0  0  0  0  0
    6.0177   -1.0854   -0.4546 H   0  0  0  0  0  0  0  0  0  0  0  0
    7.1229    1.0208   -0.0422 H   0  0  0  0  0  0  0  0  0  0  0  0
    5.7988    1.6375    0.9420 H   0  0  0  0  0  0  0  0  0  0  0  0
    5.7996    2.5092   -1.3054 H   0  0  0  0  0  0  0  0  0  0  0  0
    3.5316    1.9546   -1.9266 H   0  0  0  0  0  0  0  0  0  0  0  0
    3.7444    2.5107   -0.2588 H   0  0  0  0  0  0  0  0  0  0  0  0
    1.3359    1.0578   -1.0339 H   0  0  0  0  0  0  0  0  0  0  0  0
   -0.6719    0.8803    0.7722 H   0  0  0  0  0  0  0  0  0  0  0  0
  1  2  1  0
  2  3  1  0
  2  4  1  0
  4  5  1  0
  5  6  1  0
  6  7  1  0
  7  8  2  0
  8  9  1  0
  9 10  1  0
 10 11  1  0
 11 12  2  0
 12 13  1  0
 13 14  1  0
 14 15  1  0
 15 16  1  0
 16 17  1  0
 17 18  1  0
 18 19  1  0
  9 20  2  0
 20 21  1  0
 21 22  1  0
 22  2  1  0
 21  6  2  0
 19 10  2  0
 18 13  2  0
  1 23  1  0
  1 24  1  0
  1 25  1  0
  3 26  1  0
  3 27  1  0
  3 28  1  0
  5 29  1  0
  5 30  1  0
  7 31  1  0
  8 32  1  0
 11 33  1  0
 12 34  1  0
 14 35  1  0
 14 36  1  0
 15 37  1  0
 15 38  1  0
 16 39  1  0
 17 40  1  0
 17 41  1  0
 19 42  1  0
 20 43  1  0
M  END
$$$$
OCNT-2314588
     RDKit          3D

 46 49  0  0  0  0  0  0  0  0999 V2000
   -5.6733    1.4221   -2.7174 F   0  0  0  0  0  0  0  0  0  0  0  0
   -4.8550    0.9947   -1.7469 C   0  0  0  0  0  0  0  0  0  0  0  0
   -5.2031   -0.1234   -1.0006 C   0  0  0  0  0  0  0  0  0  0  0  0
   -4.3508   -0.5689    0.0113 C   0  0  0  0  0  0  0  0  0  0  0  0
   -3.1465    0.1019    0.2777 C   0  0  0  0  0  0  0  0  0  0  0  0
   -2.2213   -0.3839    1.3736 C   0  0  0  0  0  0  0  0  0  0  0  0
   -1.3063   -1.5126    0.9185 C   0  0  0  0  0  0  0  0  0  0  0  0
   -0.2276   -1.1176   -0.0827 C   0  0  0  0  0  0  0  0  0  0  0  0
    1.1265   -1.1913    0.4651 N   0  0  0  0  0  0  0  0  0  0  0  0
    1.4515   -0.1590    1.4453 C   0  0  0  0  0  0  0  0  0  0  0  0
    1.5762    1.1935    0.8239 C   0  0  0  0  0  0  0  0  0  0  0  0
    0.8202    2.3070    1.1390 C   0  0  0  0  0  0  0  0  0  0  0  0
    1.2530    3.3112    0.3324 N   0  0  0  0  0  0  0  0  0  0  0  0
    2.2325    2.9417   -0.4985 N   0  0  0  0  0  0  0  0  0  0  0  0
    2.4762    1.6568   -0.1930 C   0  0  0  0  0  0  0  0  0  0  0  0
    3.5230    0.9267   -0.8979 C   0  0  0  0  0  0  0  0  0  0  0  0
    4.4338    0.1018   -0.2348 C   0  0  0  0  0  0  0  0  0  0  0  0
    5.4015   -0.5875   -0.9645 C   0  0  0  0  0  0  0  0  0  0  0  0
    5.4302   -0.4254   -2.3402 C   0  0  0  0  0  0  0  0  0  0  0  0
    4.5763    0.3696   -3.0179 N   0  0  0  0  0  0  0  0  0  0  0  0
    3.6514    1.0351   -2.2798 C   0  0  0  0  0  0  0  0  0  0  0  0
   -0.9923   -2.6051    1.9399 C   0  0  0  0  0  0  0  0  0  0  0  0
   -1.9003   -2.9129    0.7958 C   0  0  0  0  0  0  0  0  0  0  0  0
   -2.8196    1.2341   -0.4864 C   0  0  0  0  0  0  0  0  0  0  0  0
   -3.6717    1.6779   -1.4990 C   0  0  0  0  0  0  0  0  0  0  0  0
   -6.1338   -0.6407   -1.2097 H   0  0  0  0  0  0  0  0  0  0  0  0
   -4.6353   -1.4414    0.5944 H   0  0  0  0  0  0  0  0  0  0  0  0
   -1.6195    0.4519    1.7483 H   0  0  0  0  0  0  0  0  0  0  0  0
   -2.8349   -0.7016    2.2273 H   0  0  0  0  0  0  0  0  0  0  0  0
   -0.2743   -1.8146   -0.9287 H   0  0  0  0  0  0  0  0  0  0  0  0
   -0.4101   -0.1330   -0.5211 H   0  0  0  0  0  0  0  0  0  0  0  0
    1.7926   -1.1500   -0.3043 H   0  0  0  0  0  0  0  0  0  0  0  0
    0.7170   -0.1469    2.2585 H   0  0  0  0  0  0  0  0  0  0  0  0
    2.4020   -0.4210    1.9223 H   0  0  0  0  0  0  0  0  0  0  0  0
    0.0254    2.4625    1.8546 H   0  0  0  0  0  0  0  0  0  0  0  0
    0.9246    4.2708    0.2901 H   0  0  0  0  0  0  0  0  0  0  0  0
    4.4140    0.0010    0.8459 H   0  0  0  0  0  0  0  0  0  0  0  0
    6.1201   -1.2317   -0.4700 H   0  0  0  0  0  0  0  0  0  0  0  0
    6.1656   -0.9420   -2.9505 H   0  0  0  0  0  0  0  0  0  0  0  0
    2.9872    1.6761   -2.8549 H   0  0  0  0  0  0  0  0  0  0  0  0
   -0.0122   -3.0706    1.9356 H   0  0  0  0  0  0  0  0  0  0  0  0
   -1.4261   -2.5336    2.9309 H   0  0  0  0  0  0  0  0  0  0  0  0
   -2.9470   -3.0737    1.0235 H   0  0  0  0  0  0  0  0  0  0  0  0
   -1.5249   -3.5726    0.0204 H   0  0  0  0  0  0  0  0  0  0  0  0
   -1.8952    1.7758   -0.3011 H   0  0  0  0  0  0  0  0  0  0  0  0
   -3.4196    2.5487   -2.0953 H   0  0  0  0  0  0  0  0  0  0  0  0
  1  2  1  0
  2  3  1  0
  3  4  2  0
  4  5  1  0
  5  6  1  0
  6  7  1  0
  7  8  1  0
  8  9  1  0
  9 10  1  0
 10 11  1  0
 11 12  2  0
 12 13  1  0
 13 14  1  0
 14 15  2  0
 15 16  1  0
 16 17  1  0
 17 18  2  0
 18 19  1  0
 19 20  2  0
 20 21  1  0
  7 22  1  0
 22 23  1  0
  5 24  2  0
 24 25  1  0
 25  2  2  0
 23  7  1  0
 15 11  1  0
 21 16  2  0
  3 26  1  0
  4 27  1  0
  6 28  1  0
  6 29  1  0
  8 30  1  0
  8 31  1  0
  9 32  1  0
 10 33  1  0
 10 34  1  0
 12 35  1  0
 13 36  1  0
 17 37  1  0
 18 38  1  0
 19 39  1  0
 21 40  1  0
 22 41  1  0
 22 42  1  0
 23 43  1  0
 23 44  1  0
 24 45  1  0
 25 46  1  0
M  END
$$$$
OCNT-2314608
     RDKit          3D

 43 45  0  0  0  0  0  0  0  0999 V2000
    3.4442   -2.0174    1.9391 O   0  0  0  0  0  0  0  0  0  0  0  0
    2.6881   -1.2361    1.3632 C   0  0  0  0  0  0  0  0  0  0  0  0
    2.3539    0.0276    1.7966 N   0  0  0  0  0  0  0  0  0  0  0  0
    2.7731    0.6676    2.9325 C   0  0  0  0  0  0  0  0  0  0  0  0
    2.3487    1.8751    3.2309 N   0  0  0  0  0  0  0  0  0  0  0  0
    2.9305    2.2960    4.4099 C   0  0  0  0  0  0  0  0  0  0  0  0
    3.8001    1.4017    4.9921 C   0  0  0  0  0  0  0  0  0  0  0  0
    3.8762   -0.0188    4.0367 S   0  0  0  0  0  0  0  0  0  0  0  0
    2.0642   -1.5870   -0.0176 C   0  0  0  0  0  0  0  0  0  0  0  0
    2.4614   -3.0037   -0.4704 C   0  0  0  0  0  0  0  0  0  0  0  0
    1.2332   -3.5161   -1.2066 C   0  0  0  0  0  0  0  0  0  0  0  0
    0.0899   -2.9193   -0.4063 C   0  0  0  0  0  0  0  0  0  0  0  0
    0.5884   -1.6066   -0.0252 N   0  0  0  0  0  0  0  0  0  0  0  0
   -0.1562   -0.4428    0.0054 C   0  0  0  0  0  0  0  0  0  0  0  0
    0.4016    0.6488    0.1188 O   0  0  0  0  0  0  0  0  0  0  0  0
   -1.6687   -0.5946   -0.0427 C   0  0  0  0  0  0  0  0  0  0  0  0
   -2.4182    0.7220    0.1777 C   0  0  0  0  0  0  0  0  0  0  0  0
   -2.6132    1.5075   -1.0987 C   0  0  0  0  0  0  0  0  0  0  0  0
   -1.7200    2.5338   -1.4355 C   0  0  0  0  0  0  0  0  0  0  0  0
   -1.8846    3.2655   -2.6141 C   0  0  0  0  0  0  0  0  0  0  0  0
   -2.9434    2.9778   -3.4724 C   0  0  0  0  0  0  0  0  0  0  0  0
   -3.8368    1.9531   -3.1569 C   0  0  0  0  0  0  0  0  0  0  0  0
   -3.6652    1.2249   -1.9788 C   0  0  0  0  0  0  0  0  0  0  0  0
   -4.5327    0.2140   -1.6667 O   0  0  0  0  0  0  0  0  0  0  0  0
    1.7022    0.5789    1.2358 H   0  0  0  0  0  0  0  0  0  0  0  0
    2.6817    3.2748    4.8038 H   0  0  0  0  0  0  0  0  0  0  0  0
    4.3702    1.5072    5.9028 H   0  0  0  0  0  0  0  0  0  0  0  0
    2.4059   -0.8447   -0.7515 H   0  0  0  0  0  0  0  0  0  0  0  0
    3.3523   -2.9920   -1.1063 H   0  0  0  0  0  0  0  0  0  0  0  0
    2.6680   -3.6681    0.3767 H   0  0  0  0  0  0  0  0  0  0  0  0
    1.2241   -3.1230   -2.2301 H   0  0  0  0  0  0  0  0  0  0  0  0
    1.1891   -4.6077   -1.2556 H   0  0  0  0  0  0  0  0  0  0  0  0
   -0.8338   -2.8774   -0.9868 H   0  0  0  0  0  0  0  0  0  0  0  0
   -0.0879   -3.4858    0.5154 H   0  0  0  0  0  0  0  0  0  0  0  0
   -1.9558   -1.0440   -0.9995 H   0  0  0  0  0  0  0  0  0  0  0  0
   -1.9443   -1.2864    0.7641 H   0  0  0  0  0  0  0  0  0  0  0  0
   -1.9201    1.3467    0.9303 H   0  0  0  0  0  0  0  0  0  0  0  0
   -3.4074    0.4997    0.6016 H   0  0  0  0  0  0  0  0  0  0  0  0
   -0.8870    2.7692   -0.7776 H   0  0  0  0  0  0  0  0  0  0  0  0
   -1.1834    4.0583   -2.8600 H   0  0  0  0  0  0  0  0  0  0  0  0
   -3.0687    3.5509   -4.3891 H   0  0  0  0  0  0  0  0  0  0  0  0
   -4.6515    1.7352   -3.8398 H   0  0  0  0  0  0  0  0  0  0  0  0
   -5.2683    0.2353   -2.2999 H   0  0  0  0  0  0  0  0  0  0  0  0
  1  2  2  0
  2  3  1  0
  3  4  1  0
  4  5  2  0
  5  6  1  0
  6  7  2  0
  7  8  1  0
  2  9  1  0
  9 10  1  0
 10 11  1  0
 11 12  1  0
 12 13  1  0
 13 14  1  0
 14 15  2  0
 14 16  1  0
 16 17  1  0
 17 18  1  0
 18 19  2  0
 19 20  1  0
 20 21  2  0
 21 22  1  0
 22 23  2  0
 23 24  1  0
  8  4  1  0
 13  9  1  0
 23 18  1  0
  3 25  1  0
  6 26  1  0
  7 27  1  0
  9 28  1  0
 10 29  1  0
 10 30  1  0
 11 31  1  0
 11 32  1  0
 12 33  1  0
 12 34  1  0
 16 35  1  0
 16 36  1  0
 17 37  1  0
 17 38  1  0
 19 39  1  0
 20 40  1  0
 21 41  1  0
 22 42  1  0
 24 43  1  0
M  END
$$$$
OCNT-2314615
     RDKit          3D

 42 44  0  0  0  0  0  0  0  0999 V2000
   -6.2888    3.2622    1.9535 C   0  0  0  0  0  0  0  0  0  0  0  0
   -5.1762    2.3643    1.5001 C   0  0  0  0  0  0  0  0  0  0  0  0
   -4.6353    2.4988    0.2183 C   0  0  0  0  0  0  0  0  0  0  0  0
   -3.5765    1.6829   -0.1933 C   0  0  0  0  0  0  0  0  0  0  0  0
   -3.0294    0.7223    0.6691 C   0  0  0  0  0  0  0  0  0  0  0  0
   -1.9295   -0.1092    0.2104 C   0  0  0  0  0  0  0  0  0  0  0  0
   -1.3287   -1.1519    0.8831 C   0  0  0  0  0  0  0  0  0  0  0  0
   -0.3632   -1.5873    0.0245 N   0  0  0  0  0  0  0  0  0  0  0  0
    0.5959   -2.6613    0.2196 C   0  0  0  0  0  0  0  0  0  0  0  0
    0.5584   -3.6920   -0.9063 C   0  0  0  0  0  0  0  0  0  0  0  0
    2.0096   -2.1139    0.4096 C   0  0  0  0  0  0  0  0  0  0  0  0
    2.6855   -2.5005    1.3621 O   0  0  0  0  0  0  0  0  0  0  0  0
    2.4349   -1.2436   -0.5818 N   0  0  0  0  0  0  0  0  0  0  0  0
    3.6988   -0.6347   -0.7167 C   0  0  0  0  0  0  0  0  0  0  0  0
    4.7930   -0.9131    0.1045 C   0  0  0  0  0  0  0  0  0  0  0  0
    6.0176   -0.2689   -0.0993 C   0  0  0  0  0  0  0  0  0  0  0  0
    6.1598    0.6590   -1.1292 C   0  0  0  0  0  0  0  0  0  0  0  0
    5.0740    0.9444   -1.9593 C   0  0  0  0  0  0  0  0  0  0  0  0
    5.2134    1.8951   -3.0230 C   0  0  0  0  0  0  0  0  0  0  0  0
    5.3270    2.6621   -3.8864 N   0  0  0  0  0  0  0  0  0  0  0  0
    3.8485    0.2978   -1.7521 C   0  0  0  0  0  0  0  0  0  0  0  0
   -0.3610   -0.8704   -1.1164 N   0  0  0  0  0  0  0  0  0  0  0  0
   -1.3161    0.0413   -1.0106 N   0  0  0  0  0  0  0  0  0  0  0  0
   -3.5657    0.6030    1.9584 C   0  0  0  0  0  0  0  0  0  0  0  0
   -4.6250    1.4196    2.3712 C   0  0  0  0  0  0  0  0  0  0  0  0
   -5.8771    4.1767    2.3911 H   0  0  0  0  0  0  0  0  0  0  0  0
   -6.9145    2.7629    2.7008 H   0  0  0  0  0  0  0  0  0  0  0  0
   -6.9389    3.5316    1.1144 H   0  0  0  0  0  0  0  0  0  0  0  0
   -5.0327    3.2392   -0.4726 H   0  0  0  0  0  0  0  0  0  0  0  0
   -3.1809    1.8082   -1.1998 H   0  0  0  0  0  0  0  0  0  0  0  0
   -1.4911   -1.6004    1.8517 H   0  0  0  0  0  0  0  0  0  0  0  0
    0.3096   -3.1580    1.1557 H   0  0  0  0  0  0  0  0  0  0  0  0
    0.8507   -3.2596   -1.8696 H   0  0  0  0  0  0  0  0  0  0  0  0
    1.2497   -4.5154   -0.6961 H   0  0  0  0  0  0  0  0  0  0  0  0
   -0.4474   -4.1104   -1.0201 H   0  0  0  0  0  0  0  0  0  0  0  0
    1.7195   -0.9312   -1.2403 H   0  0  0  0  0  0  0  0  0  0  0  0
    4.7311   -1.6321    0.9158 H   0  0  0  0  0  0  0  0  0  0  0  0
    6.8599   -0.4960    0.5506 H   0  0  0  0  0  0  0  0  0  0  0  0
    7.1181    1.1534   -1.2775 H   0  0  0  0  0  0  0  0  0  0  0  0
    3.0084    0.5315   -2.4047 H   0  0  0  0  0  0  0  0  0  0  0  0
   -3.1692   -0.1179    2.6678 H   0  0  0  0  0  0  0  0  0  0  0  0
   -5.0160    1.3115    3.3807 H   0  0  0  0  0  0  0  0  0  0  0  0
  1  2  1  0
  2  3  1  0
  3  4  2  0
  4  5  1  0
  5  6  1  0
  6  7  2  0
  7  8  1  0
  8  9  1  0
  9 10  1  0
  9 11  1  0
 11 12  2  0
 11 13  1  0
 13 14  1  0
 14 15  2  0
 15 16  1  0
 16 17  2  0
 17 18  1  0
 18 19  1  0
 19 20  3  0
 18 21  2  0
  8 22  1  0
 22 23  2  0
  5 24  2  0
 24 25  1  0
 25  2  2  0
 23  6  1  0
 21 14  1  0
  1 26  1  0
  1 27  1  0
  1 28  1  0
  3 29  1  0
  4 30  1  0
  7 31  1  0
  9 32  1  0
 10 33  1  0
 10 34  1  0
 10 35  1  0
 13 36  1  0
 15 37  1  0
 16 38  1  0
 17 39  1  0
 21 40  1  0
 24 41  1  0
 25 42  1  0
M  END
$$$$
OCNT-2314617
     RDKit          3D

 46 49  0  0  0  0  0  0  0  0999 V2000
    6.5561    1.4017   -1.9084 C   0  0  0  0  0  0  0  0  0  0  0  0
    5.1463    1.4634   -1.7220 O   0  0  0  0  0  0  0  0  0  0  0  0
    4.6090    0.5765   -0.8244 C   0  0  0  0  0  0  0  0  0  0  0  0
    5.3104   -0.3629   -0.0723 C   0  0  0  0  0  0  0  0  0  0  0  0
    4.6220   -1.2043    0.8090 C   0  0  0  0  0  0  0  0  0  0  0  0
    3.2318   -1.1163    0.9457 C   0  0  0  0  0  0  0  0  0  0  0  0
    2.5162   -0.1839    0.1997 C   0  0  0  0  0  0  0  0  0  0  0  0
    1.1192   -0.0123    0.2613 N   0  0  0  0  0  0  0  0  0  0  0  0
    0.2114   -0.7219    1.0158 C   0  0  0  0  0  0  0  0  0  0  0  0
    0.4405   -1.6559    1.7722 O   0  0  0  0  0  0  0  0  0  0  0  0
   -1.1869   -0.2565    0.8532 C   0  0  0  0  0  0  0  0  0  0  0  0
   -1.4611    1.0780    1.1589 C   0  0  0  0  0  0  0  0  0  0  0  0
   -2.7555    1.5492    1.0129 C   0  0  0  0  0  0  0  0  0  0  0  0
   -3.0972    2.9825    1.3417 C   0  0  0  0  0  0  0  0  0  0  0  0
   -3.9581    3.7893    0.3964 C   0  0  0  0  0  0  0  0  0  0  0  0
   -2.4999    4.1098    0.5299 C   0  0  0  0  0  0  0  0  0  0  0  0
   -3.7460    0.7284    0.5885 N   0  0  0  0  0  0  0  0  0  0  0  0
   -3.4861   -0.5602    0.3025 C   0  0  0  0  0  0  0  0  0  0  0  0
   -4.5336   -1.3627   -0.1271 C   0  0  0  0  0  0  0  0  0  0  0  0
   -4.3523   -2.7096   -0.4538 C   0  0  0  0  0  0  0  0  0  0  0  0
   -3.0877   -3.2851   -0.3633 C   0  0  0  0  0  0  0  0  0  0  0  0
   -2.8810   -4.7375   -0.6733 C   0  0  0  0  0  0  0  0  0  0  0  0
   -2.0237   -2.4939    0.0825 C   0  0  0  0  0  0  0  0  0  0  0  0
   -2.2061   -1.1265    0.4170 C   0  0  0  0  0  0  0  0  0  0  0  0
    3.2178    0.6542   -0.6766 C   0  0  0  0  0  0  0  0  0  0  0  0
    2.5105    1.5822   -1.4114 O   0  0  0  0  0  0  0  0  0  0  0  0
    7.0869    1.6443   -0.9823 H   0  0  0  0  0  0  0  0  0  0  0  0
    6.8611    0.4243   -2.2959 H   0  0  0  0  0  0  0  0  0  0  0  0
    6.8265    2.1549   -2.6544 H   0  0  0  0  0  0  0  0  0  0  0  0
    6.3876   -0.4700   -0.1421 H   0  0  0  0  0  0  0  0  0  0  0  0
    5.1698   -1.9375    1.3973 H   0  0  0  0  0  0  0  0  0  0  0  0
    2.7381   -1.7875    1.6418 H   0  0  0  0  0  0  0  0  0  0  0  0
    0.7770    0.7082   -0.3697 H   0  0  0  0  0  0  0  0  0  0  0  0
   -0.6802    1.7403    1.5199 H   0  0  0  0  0  0  0  0  0  0  0  0
   -3.2563    3.1788    2.3997 H   0  0  0  0  0  0  0  0  0  0  0  0
   -4.2995    3.3156   -0.5181 H   0  0  0  0  0  0  0  0  0  0  0  0
   -4.6772    4.4732    0.8322 H   0  0  0  0  0  0  0  0  0  0  0  0
   -1.8588    3.8722   -0.3120 H   0  0  0  0  0  0  0  0  0  0  0  0
   -2.2269    5.0207    1.0507 H   0  0  0  0  0  0  0  0  0  0  0  0
   -5.5269   -0.9262   -0.2085 H   0  0  0  0  0  0  0  0  0  0  0  0
   -5.2079   -3.2982   -0.7770 H   0  0  0  0  0  0  0  0  0  0  0  0
   -1.8739   -4.9135   -1.0670 H   0  0  0  0  0  0  0  0  0  0  0  0
   -3.0187   -5.3368    0.2322 H   0  0  0  0  0  0  0  0  0  0  0  0
   -3.5909   -5.0790   -1.4347 H   0  0  0  0  0  0  0  0  0  0  0  0
   -1.0384   -2.9496    0.1773 H   0  0  0  0  0  0  0  0  0  0  0  0
    3.1923    2.0398   -1.9441 H   0  0  0  0  0  0  0  0  0  0  0  0
  1  2  1  0
  2  3  1  0
  3  4  1  0
  4  5  2  0
  5  6  1  0
  6  7  2  0
  7  8  1  0
  8  9  1  0
  9 10  2  0
  9 11  1  0
 11 12  2  0
 12 13  1  0
 13 14  1  0
 14 15  1  0
 15 16  1  0
 13 17  2  0
 17 18  1  0
 18 19  2  0
 19 20  1  0
 20 21  2  0
 21 22  1  0
 21 23  1  0
 23 24  2  0
  7 25  1  0
 25 26  1  0
 25  3  2  0
 24 11  1  0
 16 14  1  0
 24 18  1  0
  1 27  1  0
  1 28  1  0
  1 29  1  0
  4 30  1  0
  5 31  1  0
  6 32  1  0
  8 33  1  0
 12 34  1  0
 14 35  1  0
 15 36  1  0
 15 37  1  0
 16 38  1  0
 16 39  1  0
 19 40  1  0
 20 41  1  0
 22 42  1  0
 22 43  1  0
 22 44  1  0
 23 45  1  0
 26 46  1  0
M  END
$$$$
OCNT-2314624
     RDKit          3D

 40 43  0  0  0  0  0  0  0  0999 V2000
    0.6612    0.7284   -3.1756 O   0  0  0  0  0  0  0  0  0  0  0  0
    1.3646    0.3165   -2.2578 C   0  0  0  0  0  0  0  0  0  0  0  0
    1.9897   -0.8995   -2.3389 N   0  0  0  0  0  0  0  0  0  0  0  0
    2.8009   -1.4249   -1.3270 C   0  0  0  0  0  0  0  0  0  0  0  0
    3.3947   -2.6760   -1.4888 C   0  0  0  0  0  0  0  0  0  0  0  0
    4.1995   -3.1909   -0.4717 C   0  0  0  0  0  0  0  0  0  0  0  0
    4.4061   -2.4570    0.6978 C   0  0  0  0  0  0  0  0  0  0  0  0
    3.8101   -1.2033    0.8558 C   0  0  0  0  0  0  0  0  0  0  0  0
    3.0047   -0.6808   -0.1589 C   0  0  0  0  0  0  0  0  0  0  0  0
    2.3653    0.6278   -0.0320 C   0  0  0  0  0  0  0  0  0  0  0  0
    1.5800    1.1098   -1.0114 C   0  0  0  0  0  0  0  0  0  0  0  0
    0.9026    2.4448   -0.9391 C   0  0  0  0  0  0  0  0  0  0  0  0
   -0.5020    2.2674   -0.7197 O   0  0  0  0  0  0  0  0  0  0  0  0
   -0.8834    2.1619    0.5813 C   0  0  0  0  0  0  0  0  0  0  0  0
   -0.1601    2.3116    1.5563 O   0  0  0  0  0  0  0  0  0  0  0  0
   -2.3341    1.8182    0.6884 C   0  0  0  0  0  0  0  0  0  0  0  0
   -2.6561    0.3383    0.5179 C   0  0  0  0  0  0  0  0  0  0  0  0
   -2.5651   -0.2731   -0.7379 C   0  0  0  0  0  0  0  0  0  0  0  0
   -2.8540   -1.6287   -0.8772 C   0  0  0  0  0  0  0  0  0  0  0  0
   -3.2345   -2.3574    0.2388 C   0  0  0  0  0  0  0  0  0  0  0  0
   -3.3103   -1.6945    1.4491 C   0  0  0  0  0  0  0  0  0  0  0  0
   -3.0351   -0.3807    1.6081 N   0  0  0  0  0  0  0  0  0  0  0  0
   -3.3534    2.8329    0.1718 C   0  0  0  0  0  0  0  0  0  0  0  0
   -3.1897    2.6441    1.6465 C   0  0  0  0  0  0  0  0  0  0  0  0
    1.8319   -1.4222   -3.1889 H   0  0  0  0  0  0  0  0  0  0  0  0
    3.2396   -3.2561   -2.3935 H   0  0  0  0  0  0  0  0  0  0  0  0
    4.6656   -4.1663   -0.5887 H   0  0  0  0  0  0  0  0  0  0  0  0
    5.0317   -2.8625    1.4896 H   0  0  0  0  0  0  0  0  0  0  0  0
    3.9782   -0.6455    1.7738 H   0  0  0  0  0  0  0  0  0  0  0  0
    2.5259    1.1888    0.8839 H   0  0  0  0  0  0  0  0  0  0  0  0
    1.0233    2.9859   -1.8844 H   0  0  0  0  0  0  0  0  0  0  0  0
    1.3435    3.0922   -0.1706 H   0  0  0  0  0  0  0  0  0  0  0  0
   -2.2622    0.3049   -1.6075 H   0  0  0  0  0  0  0  0  0  0  0  0
   -2.7789   -2.1059   -1.8500 H   0  0  0  0  0  0  0  0  0  0  0  0
   -3.4656   -3.4139    0.1689 H   0  0  0  0  0  0  0  0  0  0  0  0
   -3.6029   -2.2163    2.3558 H   0  0  0  0  0  0  0  0  0  0  0  0
   -4.2654    2.4640   -0.2845 H   0  0  0  0  0  0  0  0  0  0  0  0
   -2.9854    3.7537   -0.2666 H   0  0  0  0  0  0  0  0  0  0  0  0
   -2.7015    3.4261    2.2174 H   0  0  0  0  0  0  0  0  0  0  0  0
   -3.9796    2.1382    2.1913 H   0  0  0  0  0  0  0  0  0  0  0  0
  1  2  2  0
  2  3  1  0
  3  4  1  0
  4  5  2  0
  5  6  1  0
  6  7  2  0
  7  8  1  0
  8  9  2  0
  9 10  1  0
 10 11  2  0
 11 12  1  0
 12 13  1  0
 13 14  1  0
 14 15  2  0
 14 16  1  0
 16 17  1  0
 17 18  2  0
 18 19  1  0
 19 20  2  0
 20 21  1  0
 21 22  2  0
 16 23  1  0
 23 24  1  0
 11  2  1  0
 24 16  1  0
  9  4  1  0
 22 17  1  0
  3 25  1  0
  5 26  1  0
  6 27  1  0
  7 28  1  0
  8 29  1  0
 10 30  1  0
 12 31  1  0
 12 32  1  0
 18 33  1  0
 19 34  1  0
 20 35  1  0
 21 36  1  0
 23 37  1  0
 23 38  1  0
 24 39  1  0
 24 40  1  0
M  END
$$$$
OCNT-2314625
     RDKit          3D

 40 43  0  0  0  0  0  0  0  0999 V2000
   -3.7959   -1.4302   -2.3544 C   0  0  0  0  0  0  0  0  0  0  0  0
   -4.2394   -1.0584   -1.0153 N   0  0  0  0  0  0  0  0  0  0  0  0
   -5.6381   -0.6218   -0.9086 C   0  0  0  0  0  0  0  0  0  0  0  0
   -5.9970   -0.3992    0.5549 C   0  0  0  0  0  0  0  0  0  0  0  0
   -5.2209    0.6617    1.1181 O   0  0  0  0  0  0  0  0  0  0  0  0
   -3.8805    0.5304    0.8282 C   0  0  0  0  0  0  0  0  0  0  0  0
   -3.0328    1.3066    1.6197 C   0  0  0  0  0  0  0  0  0  0  0  0
   -1.6516    1.2543    1.4350 C   0  0  0  0  0  0  0  0  0  0  0  0
   -1.1099    0.4222    0.4591 C   0  0  0  0  0  0  0  0  0  0  0  0
    0.2747    0.2878    0.2152 N   0  0  0  0  0  0  0  0  0  0  0  0
    1.3170    0.9299    0.8537 C   0  0  0  0  0  0  0  0  0  0  0  0
    1.2029    1.7517    1.7565 O   0  0  0  0  0  0  0  0  0  0  0  0
    2.6374    0.5621    0.3684 C   0  0  0  0  0  0  0  0  0  0  0  0
    3.0793   -0.3167   -0.6075 C   0  0  0  0  0  0  0  0  0  0  0  0
    4.5021   -0.2662   -0.6499 C   0  0  0  0  0  0  0  0  0  0  0  0
    5.4812   -0.9198   -1.4205 C   0  0  0  0  0  0  0  0  0  0  0  0
    6.8234   -0.6196   -1.1882 C   0  0  0  0  0  0  0  0  0  0  0  0
    7.7639   -1.2365   -1.9171 F   0  0  0  0  0  0  0  0  0  0  0  0
    7.2108    0.3011   -0.2223 C   0  0  0  0  0  0  0  0  0  0  0  0
    6.2542    0.9609    0.5539 C   0  0  0  0  0  0  0  0  0  0  0  0
    4.9088    0.6539    0.3143 C   0  0  0  0  0  0  0  0  0  0  0  0
    3.7694    1.1353    0.9115 N   0  0  0  0  0  0  0  0  0  0  0  0
   -1.9764   -0.3434   -0.3442 C   0  0  0  0  0  0  0  0  0  0  0  0
   -3.3755   -0.2926   -0.2031 C   0  0  0  0  0  0  0  0  0  0  0  0
   -4.5996   -1.9422   -2.8956 H   0  0  0  0  0  0  0  0  0  0  0  0
   -2.9572   -2.1326   -2.3151 H   0  0  0  0  0  0  0  0  0  0  0  0
   -3.5086   -0.5486   -2.9381 H   0  0  0  0  0  0  0  0  0  0  0  0
   -6.2975   -1.3891   -1.3298 H   0  0  0  0  0  0  0  0  0  0  0  0
   -5.7795    0.3034   -1.4824 H   0  0  0  0  0  0  0  0  0  0  0  0
   -5.8510   -1.3077    1.1531 H   0  0  0  0  0  0  0  0  0  0  0  0
   -7.0507   -0.1135    0.6388 H   0  0  0  0  0  0  0  0  0  0  0  0
   -3.4501    1.9471    2.3921 H   0  0  0  0  0  0  0  0  0  0  0  0
   -1.0327    1.8691    2.0797 H   0  0  0  0  0  0  0  0  0  0  0  0
    0.5266   -0.3598   -0.5155 H   0  0  0  0  0  0  0  0  0  0  0  0
    2.4649   -0.9433   -1.2393 H   0  0  0  0  0  0  0  0  0  0  0  0
    5.2137   -1.6438   -2.1821 H   0  0  0  0  0  0  0  0  0  0  0  0
    8.2677    0.5035   -0.0758 H   0  0  0  0  0  0  0  0  0  0  0  0
    6.5487    1.6812    1.3106 H   0  0  0  0  0  0  0  0  0  0  0  0
    3.7407    1.8218    1.6551 H   0  0  0  0  0  0  0  0  0  0  0  0
   -1.5424   -0.9992   -1.0913 H   0  0  0  0  0  0  0  0  0  0  0  0
  1  2  1  0
  2  3  1  0
  3  4  1  0
  4  5  1  0
  5  6  1  0
  6  7  1  0
  7  8  2  0
  8  9  1  0
  9 10  1  0
 10 11  1  0
 11 12  2  0
 11 13  1  0
 13 14  2  0
 14 15  1  0
 15 16  2  0
 16 17  1  0
 17 18  1  0
 17 19  2  0
 19 20  1  0
 20 21  2  0
 21 22  1  0
  9 23  2  0
 23 24  1  0
 24  2  1  0
 24  6  2  0
 22 13  1  0
 21 15  1  0
  1 25  1  0
  1 26  1  0
  1 27  1  0
  3 28  1  0
  3 29  1  0
  4 30  1  0
  4 31  1  0
  7 32  1  0
  8 33  1  0
 10 34  1  0
 14 35  1  0
 16 36  1  0
 19 37  1  0
 20 38  1  0
 22 39  1  0
 23 40  1  0
M  END
$$$$
OCNT-2314639
     RDKit          3D

 38 40  0  0  0  0  0  0  0  0999 V2000
    5.6368   -2.4447   -0.4621 C   0  0  0  0  0  0  0  0  0  0  0  0
    4.5659   -1.5146   -0.0308 C   0  0  0  0  0  0  0  0  0  0  0  0
    3.7034   -0.7254   -0.7636 C   0  0  0  0  0  0  0  0  0  0  0  0
    2.8702   -0.0198    0.1472 C   0  0  0  0  0  0  0  0  0  0  0  0
    1.8245    0.9111   -0.0020 C   0  0  0  0  0  0  0  0  0  0  0  0
    1.1874    1.4374    1.1372 C   0  0  0  0  0  0  0  0  0  0  0  0
    0.0482    2.4113    0.9732 C   0  0  0  0  0  0  0  0  0  0  0  0
   -1.1813    1.7074    0.6764 N   0  0  0  0  0  0  0  0  0  0  0  0
   -1.6729    1.6375   -0.6087 C   0  0  0  0  0  0  0  0  0  0  0  0
   -1.1877    2.2383   -1.5602 O   0  0  0  0  0  0  0  0  0  0  0  0
   -2.8454    0.7439   -0.8213 C   0  0  0  0  0  0  0  0  0  0  0  0
   -3.0329    0.1869   -2.0952 C   0  0  0  0  0  0  0  0  0  0  0  0
   -4.1186   -0.6538   -2.3515 C   0  0  0  0  0  0  0  0  0  0  0  0
   -5.0324   -0.9399   -1.3377 C   0  0  0  0  0  0  0  0  0  0  0  0
   -4.8541   -0.3719   -0.0687 C   0  0  0  0  0  0  0  0  0  0  0  0
   -5.8192   -0.6642    0.9983 N   0  0  0  0  0  0  0  0  0  0  0  0
   -5.5622   -0.2417    2.1347 O   0  0  0  0  0  0  0  0  0  0  0  0
   -6.8283   -1.3185    0.7015 O   0  0  0  0  0  0  0  0  0  0  0  0
   -3.7671    0.4740    0.1970 C   0  0  0  0  0  0  0  0  0  0  0  0
    1.5926    1.0197    2.4116 C   0  0  0  0  0  0  0  0  0  0  0  0
    2.6308    0.0966    2.5825 C   0  0  0  0  0  0  0  0  0  0  0  0
    3.2488   -0.4038    1.4317 C   0  0  0  0  0  0  0  0  0  0  0  0
    4.2786   -1.3072    1.2963 N   0  0  0  0  0  0  0  0  0  0  0  0
    6.6057   -2.1269   -0.0639 H   0  0  0  0  0  0  0  0  0  0  0  0
    5.4313   -3.4594   -0.1065 H   0  0  0  0  0  0  0  0  0  0  0  0
    5.7128   -2.4769   -1.5536 H   0  0  0  0  0  0  0  0  0  0  0  0
    3.6722   -0.6576   -1.8434 H   0  0  0  0  0  0  0  0  0  0  0  0
    1.5099    1.2186   -0.9971 H   0  0  0  0  0  0  0  0  0  0  0  0
   -0.1156    2.9670    1.9031 H   0  0  0  0  0  0  0  0  0  0  0  0
    0.2825    3.1450    0.1940 H   0  0  0  0  0  0  0  0  0  0  0  0
   -1.4685    1.0157    1.3536 H   0  0  0  0  0  0  0  0  0  0  0  0
   -2.3260    0.4083   -2.8944 H   0  0  0  0  0  0  0  0  0  0  0  0
   -4.2498   -1.0818   -3.3433 H   0  0  0  0  0  0  0  0  0  0  0  0
   -5.8738   -1.5965   -1.5520 H   0  0  0  0  0  0  0  0  0  0  0  0
   -3.6579    0.9370    1.1742 H   0  0  0  0  0  0  0  0  0  0  0  0
    1.0996    1.4162    3.2973 H   0  0  0  0  0  0  0  0  0  0  0  0
    2.9399   -0.2160    3.5745 H   0  0  0  0  0  0  0  0  0  0  0  0
    4.7523   -1.7515    2.0703 H   0  0  0  0  0  0  0  0  0  0  0  0
  1  2  1  0
  2  3  2  0
  3  4  1  0
  4  5  2  0
  5  6  1  0
  6  7  1  0
  7  8  1  0
  8  9  1  0
  9 10  2  0
  9 11  1  0
 11 12  1  0
 12 13  2  0
 13 14  1  0
 14 15  2  0
 15 16  1  0
 16 17  2  0
 16 18  1  0
 15 19  1  0
  6 20  2  0
 20 21  1  0
 21 22  2  0
 22 23  1  0
 23  2  1  0
 22  4  1  0
 19 11  2  0
  1 24  1  0
  1 25  1  0
  1 26  1  0
  3 27  1  0
  5 28  1  0
  7 29  1  0
  7 30  1  0
  8 31  1  0
 12 32  1  0
 13 33  1  0
 14 34  1  0
 19 35  1  0
 20 36  1  0
 21 37  1  0
 23 38  1  0
M  CHG  2  16   1  18  -1
M  END
$$$$
OCNT-2314641
     RDKit          3D

 47 50  0  0  0  0  0  0  0  0999 V2000
   -0.1018   -1.9238   -2.8642 O   0  0  0  0  0  0  0  0  0  0  0  0
    0.3077   -1.5242   -1.7780 C   0  0  0  0  0  0  0  0  0  0  0  0
   -0.2498   -0.4458   -1.1348 N   0  0  0  0  0  0  0  0  0  0  0  0
   -1.1962    0.4121   -1.7972 C   0  0  0  0  0  0  0  0  0  0  0  0
   -1.8342    1.2514   -0.7605 C   0  0  0  0  0  0  0  0  0  0  0  0
   -1.5657    2.5397   -0.3455 C   0  0  0  0  0  0  0  0  0  0  0  0
   -2.4151    2.9246    0.6588 N   0  0  0  0  0  0  0  0  0  0  0  0
   -3.2063    1.8940    0.8661 C   0  0  0  0  0  0  0  0  0  0  0  0
   -4.2922    1.7870    1.8810 C   0  0  0  0  0  0  0  0  0  0  0  0
   -5.2517    0.6377    1.5672 C   0  0  0  0  0  0  0  0  0  0  0  0
   -4.4780   -0.6325    1.2130 C   0  0  0  0  0  0  0  0  0  0  0  0
   -3.5956   -0.4091   -0.0157 C   0  0  0  0  0  0  0  0  0  0  0  0
   -2.8830    0.8537    0.0294 N   0  0  0  0  0  0  0  0  0  0  0  0
    1.4434   -2.2241   -1.1008 C   0  0  0  0  0  0  0  0  0  0  0  0
    1.7961   -3.4922   -1.5934 C   0  0  0  0  0  0  0  0  0  0  0  0
    2.8399   -4.2215   -1.0172 C   0  0  0  0  0  0  0  0  0  0  0  0
    3.5455   -3.6951    0.0620 C   0  0  0  0  0  0  0  0  0  0  0  0
    3.2165   -2.4349    0.5576 C   0  0  0  0  0  0  0  0  0  0  0  0
    2.1849   -1.6920   -0.0344 C   0  0  0  0  0  0  0  0  0  0  0  0
    1.8792   -0.4627    0.5018 O   0  0  0  0  0  0  0  0  0  0  0  0
    2.7758    0.5680    0.3058 C   0  0  0  0  0  0  0  0  0  0  0  0
    2.6904    1.6185    1.2230 C   0  0  0  0  0  0  0  0  0  0  0  0
    3.5260    2.7291    1.0985 C   0  0  0  0  0  0  0  0  0  0  0  0
    4.4419    2.7962    0.0498 C   0  0  0  0  0  0  0  0  0  0  0  0
    4.5181    1.7570   -0.8771 C   0  0  0  0  0  0  0  0  0  0  0  0
    3.6822    0.6446   -0.7551 C   0  0  0  0  0  0  0  0  0  0  0  0
    0.2217   -0.0718   -0.3201 H   0  0  0  0  0  0  0  0  0  0  0  0
   -1.9264   -0.1882   -2.3498 H   0  0  0  0  0  0  0  0  0  0  0  0
   -0.6472    1.0234   -2.5211 H   0  0  0  0  0  0  0  0  0  0  0  0
   -0.8006    3.2099   -0.7171 H   0  0  0  0  0  0  0  0  0  0  0  0
   -3.8338    1.6239    2.8638 H   0  0  0  0  0  0  0  0  0  0  0  0
   -4.8491    2.7290    1.9342 H   0  0  0  0  0  0  0  0  0  0  0  0
   -5.9024    0.4556    2.4294 H   0  0  0  0  0  0  0  0  0  0  0  0
   -5.9000    0.9145    0.7260 H   0  0  0  0  0  0  0  0  0  0  0  0
   -3.8532   -0.9251    2.0667 H   0  0  0  0  0  0  0  0  0  0  0  0
   -5.1711   -1.4594    1.0239 H   0  0  0  0  0  0  0  0  0  0  0  0
   -2.8624   -1.2169   -0.1022 H   0  0  0  0  0  0  0  0  0  0  0  0
   -4.2065   -0.3875   -0.9253 H   0  0  0  0  0  0  0  0  0  0  0  0
    1.2501   -3.9235   -2.4315 H   0  0  0  0  0  0  0  0  0  0  0  0
    3.0956   -5.2029   -1.4099 H   0  0  0  0  0  0  0  0  0  0  0  0
    4.3511   -4.2660    0.5173 H   0  0  0  0  0  0  0  0  0  0  0  0
    3.7650   -2.0280    1.4039 H   0  0  0  0  0  0  0  0  0  0  0  0
    1.9702    1.5756    2.0364 H   0  0  0  0  0  0  0  0  0  0  0  0
    3.4577    3.5434    1.8158 H   0  0  0  0  0  0  0  0  0  0  0  0
    5.0910    3.6623   -0.0499 H   0  0  0  0  0  0  0  0  0  0  0  0
    5.2245    1.8161   -1.7016 H   0  0  0  0  0  0  0  0  0  0  0  0
    3.7481   -0.1400   -1.5035 H   0  0  0  0  0  0  0  0  0  0  0  0
  1  2  2  0
  2  3  1  0
  3  4  1  0
  4  5  1  0
  5  6  2  0
  6  7  1  0
  7  8  2  0
  8  9  1  0
  9 10  1  0
 10 11  1  0
 11 12  1  0
 12 13  1  0
  2 14  1  0
 14 15  2  0
 15 16  1  0
 16 17  2  0
 17 18  1  0
 18 19  2  0
 19 20  1  0
 20 21  1  0
 21 22  2  0
 22 23  1  0
 23 24  2  0
 24 25  1  0
 25 26  2  0
 13  5  1  0
 19 14  1  0
 26 21  1  0
 13  8  1  0
  3 27  1  0
  4 28  1  0
  4 29  1  0
  6 30  1  0
  9 31  1  0
  9 32  1  0
 10 33  1  0
 10 34  1  0
 11 35  1  0
 11 36  1  0
 12 37  1  0
 12 38  1  0
 15 39  1  0
 16 40  1  0
 17 41  1  0
 18 42  1  0
 22 43  1  0
 23 44  1  0
 24 45  1  0
 25 46  1  0
 26 47  1  0
M  END
$$$$
OCNT-2314649
     RDKit          3D

 42 45  0  0  0  0  0  0  0  0999 V2000
   -2.3541    4.0702    0.0437 N   0  0  0  0  0  0  0  0  0  0  0  0
   -1.5938    2.9431    0.2226 C   0  0  0  0  0  0  0  0  0  0  0  0
   -0.7947    2.8987    1.1537 O   0  0  0  0  0  0  0  0  0  0  0  0
   -1.8478    1.8013   -0.7894 C   0  0  2  0  0  0  0  0  0  0  0  0
   -3.2342    1.1766   -0.6047 C   0  0  0  0  0  0  0  0  0  0  0  0
   -3.2924    0.2389    0.5700 C   0  0  0  0  0  0  0  0  0  0  0  0
   -4.5226   -0.0589    1.1731 C   0  0  0  0  0  0  0  0  0  0  0  0
   -4.5865   -0.9487    2.2446 C   0  0  0  0  0  0  0  0  0  0  0  0
   -3.4246   -1.5525    2.7167 C   0  0  0  0  0  0  0  0  0  0  0  0
   -2.1990   -1.2703    2.1132 C   0  0  0  0  0  0  0  0  0  0  0  0
   -2.1203   -0.3796    1.0301 C   0  0  0  0  0  0  0  0  0  0  0  0
   -0.7706   -0.1143    0.3994 C   0  0  0  0  0  0  0  0  0  0  0  0
   -0.7814    0.7922   -0.7506 N   0  0  0  0  0  0  0  0  0  0  0  0
    0.3264    1.0094   -1.5848 C   0  0  0  0  0  0  0  0  0  0  0  0
    0.2832    1.8532   -2.4871 O   0  0  0  0  0  0  0  0  0  0  0  0
    1.6000    0.2166   -1.4498 C   0  0  0  0  0  0  0  0  0  0  0  0
    2.4635    0.1663   -2.5385 C   0  0  0  0  0  0  0  0  0  0  0  0
    3.6553   -0.5398   -2.4133 C   0  0  0  0  0  0  0  0  0  0  0  0
    3.9620   -1.1699   -1.2033 C   0  0  0  0  0  0  0  0  0  0  0  0
    5.1547   -1.8922   -1.0300 C   0  0  0  0  0  0  0  0  0  0  0  0
    5.4298   -2.5043    0.1911 C   0  0  0  0  0  0  0  0  0  0  0  0
    4.5154   -2.3896    1.2327 C   0  0  0  0  0  0  0  0  0  0  0  0
    4.8482   -3.1416    2.7445 Cl  0  0  0  0  0  0  0  0  0  0  0  0
    3.3314   -1.6730    1.0622 C   0  0  0  0  0  0  0  0  0  0  0  0
    3.0344   -1.0585   -0.1444 C   0  0  0  0  0  0  0  0  0  0  0  0
    1.8806   -0.3823   -0.2656 N   0  0  0  0  0  0  0  0  0  0  0  0
   -2.7047    4.3047   -0.8753 H   0  0  0  0  0  0  0  0  0  0  0  0
   -2.0996    4.8471    0.6423 H   0  0  0  0  0  0  0  0  0  0  0  0
   -1.8479    2.2814   -1.7763 H   0  0  0  0  0  0  0  0  0  0  0  0
   -3.4880    0.5949   -1.5004 H   0  0  0  0  0  0  0  0  0  0  0  0
   -3.9943    1.9588   -0.4946 H   0  0  0  0  0  0  0  0  0  0  0  0
   -5.4385    0.4028    0.8119 H   0  0  0  0  0  0  0  0  0  0  0  0
   -5.5426   -1.1708    2.7115 H   0  0  0  0  0  0  0  0  0  0  0  0
   -3.4718   -2.2446    3.5532 H   0  0  0  0  0  0  0  0  0  0  0  0
   -1.2983   -1.7501    2.4906 H   0  0  0  0  0  0  0  0  0  0  0  0
   -0.1055    0.3119    1.1593 H   0  0  0  0  0  0  0  0  0  0  0  0
   -0.3780   -1.0794    0.0624 H   0  0  0  0  0  0  0  0  0  0  0  0
    2.2177    0.6701   -3.4686 H   0  0  0  0  0  0  0  0  0  0  0  0
    4.3366   -0.5896   -3.2594 H   0  0  0  0  0  0  0  0  0  0  0  0
    5.8737   -1.9794   -1.8417 H   0  0  0  0  0  0  0  0  0  0  0  0
    6.3531   -3.0622    0.3232 H   0  0  0  0  0  0  0  0  0  0  0  0
    2.6251   -1.5867    1.8838 H   0  0  0  0  0  0  0  0  0  0  0  0
  1  2  1  0
  2  3  2  0
  2  4  1  0
  4  5  1  0
  5  6  1  0
  6  7  2  0
  7  8  1  0
  8  9  2  0
  9 10  1  0
 10 11  2  0
 11 12  1  0
 12 13  1  0
 13 14  1  0
 14 15  2  0
 14 16  1  0
 16 17  1  0
 17 18  2  0
 18 19  1  0
 19 20  2  0
 20 21  1  0
 21 22  2  0
 22 23  1  0
 22 24  1  0
 24 25  2  0
 25 26  1  0
 13  4  1  0
 26 16  2  0
 11  6  1  0
 25 19  1  0
  1 27  1  0
  1 28  1  0
  4 29  1  6
  5 30  1  0
  5 31  1  0
  7 32  1  0
  8 33  1  0
  9 34  1  0
 10 35  1  0
 12 36  1  0
 12 37  1  0
 17 38  1  0
 18 39  1  0
 20 40  1  0
 21 41  1  0
 24 42  1  0
M  END
$$$$
OCNT-2314654
     RDKit          3D

 37 39  0  0  0  0  0  0  0  0999 V2000
    6.6467   -0.5684    1.9609 C   0  0  0  0  0  0  0  0  0  0  0  0
    5.7899    0.5444    1.7366 O   0  0  0  0  0  0  0  0  0  0  0  0
    4.5666    0.2815    1.1859 C   0  0  0  0  0  0  0  0  0  0  0  0
    4.0814   -0.9741    0.8228 C   0  0  0  0  0  0  0  0  0  0  0  0
    2.8017   -1.1013    0.2654 C   0  0  0  0  0  0  0  0  0  0  0  0
    1.9889    0.0236    0.0631 C   0  0  0  0  0  0  0  0  0  0  0  0
    0.6553   -0.1025   -0.5155 C   0  0  0  0  0  0  0  0  0  0  0  0
    0.1100   -1.2679   -0.9020 N   0  0  0  0  0  0  0  0  0  0  0  0
   -1.1472   -0.9088   -1.3776 O   0  0  0  0  0  0  0  0  0  0  0  0
   -1.2430    0.4429   -1.2376 C   0  0  0  0  0  0  0  0  0  0  0  0
   -2.5094    1.1074   -1.6555 C   0  0  0  0  0  0  0  0  0  0  0  0
   -3.1918    0.4003   -2.8266 C   0  0  0  0  0  0  0  0  0  0  0  0
   -3.4413    1.3336   -0.4550 C   0  0  0  0  0  0  0  0  0  0  0  0
   -4.0275    0.1370    0.1126 N   0  0  0  0  0  0  0  0  0  0  0  0
   -3.4750   -0.6604    1.0744 C   0  0  0  0  0  0  0  0  0  0  0  0
   -4.4122   -1.6408    1.3028 C   0  0  0  0  0  0  0  0  0  0  0  0
   -5.5230   -1.4418    0.5245 N   0  0  0  0  0  0  0  0  0  0  0  0
   -5.2690   -0.3570   -0.1709 C   0  0  0  0  0  0  0  0  0  0  0  0
   -0.1712    0.9865   -0.7095 N   0  0  0  0  0  0  0  0  0  0  0  0
    2.4850    1.2806    0.4308 C   0  0  0  0  0  0  0  0  0  0  0  0
    3.7623    1.4053    0.9867 C   0  0  0  0  0  0  0  0  0  0  0  0
    6.2018   -1.2720    2.6723 H   0  0  0  0  0  0  0  0  0  0  0  0
    6.9026   -1.0656    1.0195 H   0  0  0  0  0  0  0  0  0  0  0  0
    7.5749   -0.1919    2.4015 H   0  0  0  0  0  0  0  0  0  0  0  0
    4.6686   -1.8764    0.9579 H   0  0  0  0  0  0  0  0  0  0  0  0
    2.4475   -2.0937   -0.0089 H   0  0  0  0  0  0  0  0  0  0  0  0
   -2.2251    2.1052   -2.0185 H   0  0  0  0  0  0  0  0  0  0  0  0
   -4.0942    0.9404   -3.1323 H   0  0  0  0  0  0  0  0  0  0  0  0
   -2.5218    0.3525   -3.6927 H   0  0  0  0  0  0  0  0  0  0  0  0
   -3.4786   -0.6279   -2.5814 H   0  0  0  0  0  0  0  0  0  0  0  0
   -4.2720    1.9873   -0.7500 H   0  0  0  0  0  0  0  0  0  0  0  0
   -2.9117    1.8462    0.3585 H   0  0  0  0  0  0  0  0  0  0  0  0
   -2.4960   -0.4846    1.4993 H   0  0  0  0  0  0  0  0  0  0  0  0
   -4.3479   -2.4751    1.9894 H   0  0  0  0  0  0  0  0  0  0  0  0
   -5.9409    0.1006   -0.8855 H   0  0  0  0  0  0  0  0  0  0  0  0
    1.8829    2.1756    0.2879 H   0  0  0  0  0  0  0  0  0  0  0  0
    4.1328    2.3886    1.2667 H   0  0  0  0  0  0  0  0  0  0  0  0
  1  2  1  0
  2  3  1  0
  3  4  1  0
  4  5  2  0
  5  6  1  0
  6  7  1  0
  7  8  2  0
  8  9  1  0
  9 10  1  0
 10 11  1  0
 11 12  1  0
 11 13  1  0
 13 14  1  0
 14 15  1  0
 15 16  2  0
 16 17  1  0
 17 18  2  0
 10 19  2  0
  6 20  2  0
 20 21  1  0
 21  3  2  0
 19  7  1  0
 18 14  1  0
  1 22  1  0
  1 23  1  0
  1 24  1  0
  4 25  1  0
  5 26  1  0
 11 27  1  0
 12 28  1  0
 12 29  1  0
 12 30  1  0
 13 31  1  0
 13 32  1  0
 15 33  1  0
 16 34  1  0
 18 35  1  0
 20 36  1  0
 21 37  1  0
M  END
$$$$
OCNT-2314657
     RDKit          3D

 43 46  0  0  0  0  0  0  0  0999 V2000
    0.2910   -1.2362   -3.7633 O   0  0  0  0  0  0  0  0  0  0  0  0
   -0.0850   -0.8921   -2.6396 C   0  0  0  0  0  0  0  0  0  0  0  0
   -1.3204   -0.0890   -2.4916 C   0  0  0  0  0  0  0  0  0  0  0  0
   -1.9064    0.2135   -1.3220 N   0  0  0  0  0  0  0  0  0  0  0  0
   -3.0073    0.9389   -1.6206 N   0  0  0  0  0  0  0  0  0  0  0  0
   -3.8704    1.4359   -0.6043 C   0  0  0  0  0  0  0  0  0  0  0  0
   -5.0223    2.1697   -0.9377 C   0  0  0  0  0  0  0  0  0  0  0  0
   -5.8695    2.6547    0.0655 C   0  0  0  0  0  0  0  0  0  0  0  0
   -5.5800    2.4159    1.4064 C   0  0  0  0  0  0  0  0  0  0  0  0
   -4.4410    1.6913    1.7464 C   0  0  0  0  0  0  0  0  0  0  0  0
   -3.5931    1.2053    0.7496 C   0  0  0  0  0  0  0  0  0  0  0  0
   -2.5141    0.5207    1.1563 F   0  0  0  0  0  0  0  0  0  0  0  0
   -3.1369    1.0939   -2.9844 C   0  0  0  0  0  0  0  0  0  0  0  0
   -2.0754    0.4456   -3.5653 C   0  0  0  0  0  0  0  0  0  0  0  0
    0.6374   -1.2612   -1.5143 N   0  0  0  0  0  0  0  0  0  0  0  0
    1.8209   -2.0878   -1.6286 C   0  0  0  0  0  0  0  0  0  0  0  0
    2.1249   -2.5199   -0.2020 C   0  0  0  0  0  0  0  0  0  0  0  0
    1.6897   -1.3073    0.6229 C   0  0  0  0  0  0  0  0  0  0  0  0
    2.6747   -0.2651    0.5577 O   0  0  0  0  0  0  0  0  0  0  0  0
    3.6998   -0.3878    1.4728 C   0  0  0  0  0  0  0  0  0  0  0  0
    4.6415    0.6293    1.4744 C   0  0  0  0  0  0  0  0  0  0  0  0
    5.7032    0.5461    2.3696 C   0  0  0  0  0  0  0  0  0  0  0  0
    5.7851   -0.5469    3.2249 C   0  0  0  0  0  0  0  0  0  0  0  0
    4.7964   -1.5151    3.1471 C   0  0  0  0  0  0  0  0  0  0  0  0
    3.7550   -1.4619    2.2884 N   0  0  0  0  0  0  0  0  0  0  0  0
    0.4379   -0.8304   -0.1314 C   0  0  0  0  0  0  0  0  0  0  0  0
   -5.2956    2.3837   -1.9664 H   0  0  0  0  0  0  0  0  0  0  0  0
   -6.7593    3.2205   -0.2032 H   0  0  0  0  0  0  0  0  0  0  0  0
   -6.2391    2.7928    2.1846 H   0  0  0  0  0  0  0  0  0  0  0  0
   -4.2003    1.4972    2.7875 H   0  0  0  0  0  0  0  0  0  0  0  0
   -3.9518    1.6365   -3.4360 H   0  0  0  0  0  0  0  0  0  0  0  0
   -1.8577    0.3562   -4.6211 H   0  0  0  0  0  0  0  0  0  0  0  0
    2.6267   -1.4708   -2.0422 H   0  0  0  0  0  0  0  0  0  0  0  0
    1.6461   -2.9356   -2.2978 H   0  0  0  0  0  0  0  0  0  0  0  0
    3.1778   -2.7903   -0.0871 H   0  0  0  0  0  0  0  0  0  0  0  0
    1.5068   -3.3862    0.0625 H   0  0  0  0  0  0  0  0  0  0  0  0
    1.4245   -1.5425    1.6604 H   0  0  0  0  0  0  0  0  0  0  0  0
    4.5478    1.4663    0.7921 H   0  0  0  0  0  0  0  0  0  0  0  0
    6.4584    1.3260    2.3979 H   0  0  0  0  0  0  0  0  0  0  0  0
    6.5993   -0.6429    3.9345 H   0  0  0  0  0  0  0  0  0  0  0  0
    4.8176   -2.3874    3.7943 H   0  0  0  0  0  0  0  0  0  0  0  0
   -0.4550   -1.3393    0.2467 H   0  0  0  0  0  0  0  0  0  0  0  0
    0.3179    0.2556   -0.0839 H   0  0  0  0  0  0  0  0  0  0  0  0
  1  2  2  0
  2  3  1  0
  3  4  2  0
  4  5  1  0
  5  6  1  0
  6  7  2  0
  7  8  1  0
  8  9  2  0
  9 10  1  0
 10 11  2  0
 11 12  1  0
  5 13  1  0
 13 14  2  0
  2 15  1  0
 15 16  1  0
 16 17  1  0
 17 18  1  0
 18 19  1  0
 19 20  1  0
 20 21  2  0
 21 22  1  0
 22 23  2  0
 23 24  1  0
 24 25  2  0
 18 26  1  0
 14  3  1  0
 26 15  1  0
 11  6  1  0
 25 20  1  0
  7 27  1  0
  8 28  1  0
  9 29  1  0
 10 30  1  0
 13 31  1  0
 14 32  1  0
 16 33  1  0
 16 34  1  0
 17 35  1  0
 17 36  1  0
 18 37  1  0
 21 38  1  0
 22 39  1  0
 23 40  1  0
 24 41  1  0
 26 42  1  0
 26 43  1  0
M  END
$$$$
OCNT-2314662
     RDKit          3D

 39 42  0  0  0  0  0  0  0  0999 V2000
   -0.0301   -0.8890    1.8224 C   0  0  0  0  0  0  0  0  0  0  0  0
    0.1927   -1.7676    0.6823 N   0  0  0  0  0  0  0  0  0  0  0  0
    1.2622   -2.7597    0.8007 C   0  0  0  0  0  0  0  0  0  0  0  0
    2.6026   -2.1751    0.4819 C   0  0  0  0  0  0  0  0  0  0  0  0
    3.5944   -2.9144   -0.0380 N   0  0  0  0  0  0  0  0  0  0  0  0
    4.6434   -2.0031   -0.1603 O   0  0  0  0  0  0  0  0  0  0  0  0
    4.1852   -0.8092    0.3199 C   0  0  0  0  0  0  0  0  0  0  0  0
    5.0512    0.4813    0.3622 C   0  0  0  0  0  0  0  0  0  0  0  0
    4.4073    1.8159    0.0854 C   0  0  0  0  0  0  0  0  0  0  0  0
    5.3355    1.2097   -0.9268 C   0  0  0  0  0  0  0  0  0  0  0  0
    2.9462   -0.8671    0.7517 N   0  0  0  0  0  0  0  0  0  0  0  0
   -0.4074   -1.6011   -0.5697 C   0  0  0  0  0  0  0  0  0  0  0  0
   -0.0253   -2.2343   -1.5572 O   0  0  0  0  0  0  0  0  0  0  0  0
   -1.5489   -0.6413   -0.7549 C   0  0  0  0  0  0  0  0  0  0  0  0
   -1.7871   -0.1345   -2.0264 C   0  0  0  0  0  0  0  0  0  0  0  0
   -2.8650    0.7251   -2.2049 C   0  0  0  0  0  0  0  0  0  0  0  0
   -3.6823    1.0465   -1.1150 C   0  0  0  0  0  0  0  0  0  0  0  0
   -4.7852    1.9079   -1.2490 C   0  0  0  0  0  0  0  0  0  0  0  0
   -5.5839    2.2055   -0.1467 C   0  0  0  0  0  0  0  0  0  0  0  0
   -5.2848    1.6450    1.0901 C   0  0  0  0  0  0  0  0  0  0  0  0
   -4.1864    0.7890    1.2197 C   0  0  0  0  0  0  0  0  0  0  0  0
   -3.3733    0.4749    0.1389 C   0  0  0  0  0  0  0  0  0  0  0  0
   -2.3306   -0.3536    0.3184 N   0  0  0  0  0  0  0  0  0  0  0  0
   -0.9328   -1.2172    2.3453 H   0  0  0  0  0  0  0  0  0  0  0  0
   -0.1353    0.1484    1.4931 H   0  0  0  0  0  0  0  0  0  0  0  0
    0.8115   -0.9423    2.5199 H   0  0  0  0  0  0  0  0  0  0  0  0
    1.2576   -3.1580    1.8219 H   0  0  0  0  0  0  0  0  0  0  0  0
    1.0553   -3.5990    0.1259 H   0  0  0  0  0  0  0  0  0  0  0  0
    5.8388    0.4551    1.1065 H   0  0  0  0  0  0  0  0  0  0  0  0
    3.3477    1.8395   -0.1452 H   0  0  0  0  0  0  0  0  0  0  0  0
    4.7557    2.6713    0.6526 H   0  0  0  0  0  0  0  0  0  0  0  0
    6.3150    1.6559   -1.0507 H   0  0  0  0  0  0  0  0  0  0  0  0
    4.9018    0.8282   -1.8448 H   0  0  0  0  0  0  0  0  0  0  0  0
   -1.1490   -0.4053   -2.8620 H   0  0  0  0  0  0  0  0  0  0  0  0
   -3.0652    1.1323   -3.1928 H   0  0  0  0  0  0  0  0  0  0  0  0
   -5.0281    2.3486   -2.2135 H   0  0  0  0  0  0  0  0  0  0  0  0
   -6.4378    2.8702   -0.2537 H   0  0  0  0  0  0  0  0  0  0  0  0
   -5.9035    1.8681    1.9561 H   0  0  0  0  0  0  0  0  0  0  0  0
   -3.9623    0.3533    2.1908 H   0  0  0  0  0  0  0  0  0  0  0  0
  1  2  1  0
  2  3  1  0
  3  4  1  0
  4  5  2  0
  5  6  1  0
  6  7  1  0
  7  8  1  0
  8  9  1  0
  9 10  1  0
  7 11  2  0
  2 12  1  0
 12 13  2  0
 12 14  1  0
 14 15  1  0
 15 16  2  0
 16 17  1  0
 17 18  2  0
 18 19  1  0
 19 20  2  0
 20 21  1  0
 21 22  2  0
 22 23  1  0
 11  4  1  0
 23 14  2  0
 10  8  1  0
 22 17  1  0
  1 24  1  0
  1 25  1  0
  1 26  1  0
  3 27  1  0
  3 28  1  0
  8 29  1  0
  9 30  1  0
  9 31  1  0
 10 32  1  0
 10 33  1  0
 15 34  1  0
 16 35  1  0
 18 36  1  0
 19 37  1  0
 20 38  1  0
 21 39  1  0
M  END
$$$$
OCNT-2314663
     RDKit          3D

 45 47  0  0  0  0  0  0  0  0999 V2000
    7.1788    0.9477   -2.5980 C   0  0  0  0  0  0  0  0  0  0  0  0
    5.9775    0.4349   -1.8559 C   0  0  0  0  0  0  0  0  0  0  0  0
    6.0829    0.0183   -0.5261 C   0  0  0  0  0  0  0  0  0  0  0  0
    4.9694   -0.4641    0.1931 C   0  0  0  0  0  0  0  0  0  0  0  0
    5.1630   -0.9027    1.6184 C   0  0  0  0  0  0  0  0  0  0  0  0
    3.7162   -0.5131   -0.4643 C   0  0  0  0  0  0  0  0  0  0  0  0
    2.5197   -0.9515    0.0898 N   0  0  0  0  0  0  0  0  0  0  0  0
    1.5592   -0.8650   -0.7972 C   0  0  0  0  0  0  0  0  0  0  0  0
    0.2813   -1.2422   -0.4724 N   0  0  0  0  0  0  0  0  0  0  0  0
   -0.8282   -1.2334   -1.2904 C   0  0  0  0  0  0  0  0  0  0  0  0
   -0.8587   -0.9419   -2.4809 O   0  0  0  0  0  0  0  0  0  0  0  0
   -2.0673   -1.7338   -0.5626 C   0  0  0  0  0  0  0  0  0  0  0  0
   -3.3366   -1.0686   -1.0797 C   0  0  0  0  0  0  0  0  0  0  0  0
   -3.4702    0.2489   -0.5382 O   0  0  0  0  0  0  0  0  0  0  0  0
   -4.1421    0.3125    0.7226 C   0  0  0  0  0  0  0  0  0  0  0  0
   -3.6773    1.5868    1.4319 C   0  0  0  0  0  0  0  0  0  0  0  0
   -4.7269    2.1222    2.3961 C   0  0  0  0  0  0  0  0  0  0  0  0
   -5.5318    1.0552    2.8864 O   0  0  0  0  0  0  0  0  0  0  0  0
   -6.3669    0.4975    1.8690 C   0  0  0  0  0  0  0  0  0  0  0  0
   -5.6538    0.3454    0.5286 C   0  0  0  0  0  0  0  0  0  0  0  0
    1.9957   -0.2571   -2.3201 S   0  0  0  0  0  0  0  0  0  0  0  0
    3.6253   -0.0896   -1.7911 C   0  0  0  0  0  0  0  0  0  0  0  0
    4.7373    0.3836   -2.5053 C   0  0  0  0  0  0  0  0  0  0  0  0
    8.0871    0.8780   -1.9899 H   0  0  0  0  0  0  0  0  0  0  0  0
    7.3410    0.3597   -3.5074 H   0  0  0  0  0  0  0  0  0  0  0  0
    7.0334    1.9989   -2.8682 H   0  0  0  0  0  0  0  0  0  0  0  0
    7.0502    0.0621   -0.0265 H   0  0  0  0  0  0  0  0  0  0  0  0
    5.5149   -0.0624    2.2257 H   0  0  0  0  0  0  0  0  0  0  0  0
    5.8991   -1.7119    1.6656 H   0  0  0  0  0  0  0  0  0  0  0  0
    4.2309   -1.2696    2.0588 H   0  0  0  0  0  0  0  0  0  0  0  0
    0.1998   -1.5480    0.4864 H   0  0  0  0  0  0  0  0  0  0  0  0
   -1.9596   -1.5746    0.5147 H   0  0  0  0  0  0  0  0  0  0  0  0
   -2.1202   -2.8123   -0.7483 H   0  0  0  0  0  0  0  0  0  0  0  0
   -4.2119   -1.6763   -0.8241 H   0  0  0  0  0  0  0  0  0  0  0  0
   -3.3221   -0.9738   -2.1709 H   0  0  0  0  0  0  0  0  0  0  0  0
   -3.8675   -0.5530    1.3379 H   0  0  0  0  0  0  0  0  0  0  0  0
   -2.7584    1.3472    1.9828 H   0  0  0  0  0  0  0  0  0  0  0  0
   -3.3895    2.3711    0.7211 H   0  0  0  0  0  0  0  0  0  0  0  0
   -4.2424    2.6122    3.2476 H   0  0  0  0  0  0  0  0  0  0  0  0
   -5.3670    2.8703    1.9123 H   0  0  0  0  0  0  0  0  0  0  0  0
   -6.6950   -0.4830    2.2325 H   0  0  0  0  0  0  0  0  0  0  0  0
   -7.2643    1.1183    1.7602 H   0  0  0  0  0  0  0  0  0  0  0  0
   -5.9125    1.1906   -0.1245 H   0  0  0  0  0  0  0  0  0  0  0  0
   -6.0238   -0.5404   -0.0000 H   0  0  0  0  0  0  0  0  0  0  0  0
    4.6316    0.7067   -3.5370 H   0  0  0  0  0  0  0  0  0  0  0  0
  1  2  1  0
  2  3  2  0
  3  4  1  0
  4  5  1  0
  4  6  2  0
  6  7  1  0
  7  8  2  0
  8  9  1  0
  9 10  1  0
 10 11  2  0
 10 12  1  0
 12 13  1  0
 13 14  1  0
 14 15  1  0
 15 16  1  0
 16 17  1  0
 17 18  1  0
 18 19  1  0
 19 20  1  0
  8 21  1  0
 21 22  1  0
 22 23  2  0
 23  2  1  0
 22  6  1  0
 20 15  1  0
  1 24  1  0
  1 25  1  0
  1 26  1  0
  3 27  1  0
  5 28  1  0
  5 29  1  0
  5 30  1  0
  9 31  1  0
 12 32  1  0
 12 33  1  0
 13 34  1  0
 13 35  1  0
 15 36  1  0
 16 37  1  0
 16 38  1  0
 17 39  1  0
 17 40  1  0
 19 41  1  0
 19 42  1  0
 20 43  1  0
 20 44  1  0
 23 45  1  0
M  END
$$$$
OCNT-2314674
     RDKit          3D

 37 39  0  0  0  0  0  0  0  0999 V2000
   -8.0790    0.4914   -1.6463 N   0  0  0  0  0  0  0  0  0  0  0  0
   -6.9542    0.4541   -1.3631 C   0  0  0  0  0  0  0  0  0  0  0  0
   -5.5655    0.4066   -1.0120 C   0  0  0  0  0  0  0  0  0  0  0  0
   -5.1560   -0.2038    0.1706 C   0  0  0  0  0  0  0  0  0  0  0  0
   -3.7948   -0.2491    0.5118 C   0  0  0  0  0  0  0  0  0  0  0  0
   -2.8031    0.3118   -0.3121 C   0  0  0  0  0  0  0  0  0  0  0  0
   -1.4153    0.2636    0.0362 N   0  0  0  0  0  0  0  0  0  0  0  0
   -0.3931    0.8679   -0.6638 C   0  0  0  0  0  0  0  0  0  0  0  0
   -0.4247    1.5757   -1.6583 O   0  0  0  0  0  0  0  0  0  0  0  0
    0.8042    0.5794   -0.0500 N   0  0  0  0  0  0  0  0  0  0  0  0
    0.6383   -0.1719    1.1532 C   0  0  0  0  0  0  0  0  0  0  0  0
    1.3899   -1.5022    1.1506 C   0  0  0  0  0  0  0  0  0  0  0  0
    2.8580   -1.3746    1.5778 C   0  0  0  0  0  0  0  0  0  0  0  0
    3.7054   -0.5357    0.6576 C   0  0  0  0  0  0  0  0  0  0  0  0
    4.2564    0.6711    1.0977 C   0  0  0  0  0  0  0  0  0  0  0  0
    5.0120    1.4209    0.2095 C   0  0  0  0  0  0  0  0  0  0  0  0
    5.2488    1.0551   -1.0670 N   0  0  0  0  0  0  0  0  0  0  0  0
    4.7226   -0.1201   -1.4703 C   0  0  0  0  0  0  0  0  0  0  0  0
    3.9567   -0.9403   -0.6564 C   0  0  0  0  0  0  0  0  0  0  0  0
   -0.8779   -0.3798    1.1362 C   0  0  0  0  0  0  0  0  0  0  0  0
   -1.4464   -1.0263    2.0096 O   0  0  0  0  0  0  0  0  0  0  0  0
   -3.2457    0.9202   -1.5002 C   0  0  0  0  0  0  0  0  0  0  0  0
   -4.6049    0.9693   -1.8480 C   0  0  0  0  0  0  0  0  0  0  0  0
   -5.8857   -0.6514    0.8438 H   0  0  0  0  0  0  0  0  0  0  0  0
   -3.5554   -0.7356    1.4527 H   0  0  0  0  0  0  0  0  0  0  0  0
    1.6625    1.0123   -0.3748 H   0  0  0  0  0  0  0  0  0  0  0  0
    0.8961    0.4628    2.0074 H   0  0  0  0  0  0  0  0  0  0  0  0
    0.9087   -2.1926    1.8552 H   0  0  0  0  0  0  0  0  0  0  0  0
    1.3189   -1.9777    0.1638 H   0  0  0  0  0  0  0  0  0  0  0  0
    3.3035   -2.3763    1.6322 H   0  0  0  0  0  0  0  0  0  0  0  0
    2.9018   -0.9739    2.5986 H   0  0  0  0  0  0  0  0  0  0  0  0
    4.1068    1.0296    2.1110 H   0  0  0  0  0  0  0  0  0  0  0  0
    5.4586    2.3644    0.5106 H   0  0  0  0  0  0  0  0  0  0  0  0
    4.9380   -0.3952   -2.4990 H   0  0  0  0  0  0  0  0  0  0  0  0
    3.5655   -1.8737   -1.0479 H   0  0  0  0  0  0  0  0  0  0  0  0
   -2.5554    1.3724   -2.2070 H   0  0  0  0  0  0  0  0  0  0  0  0
   -4.8956    1.4517   -2.7801 H   0  0  0  0  0  0  0  0  0  0  0  0
  1  2  3  0
  2  3  1  0
  3  4  1  0
  4  5  2  0
  5  6  1  0
  6  7  1  0
  7  8  1  0
  8  9  2  0
  8 10  1  0
 10 11  1  0
 11 12  1  0
 12 13  1  0
 13 14  1  0
 14 15  2  0
 15 16  1  0
 16 17  2  0
 17 18  1  0
 18 19  2  0
 11 20  1  0
 20 21  2  0
  6 22  2  0
 22 23  1  0
 23  3  2  0
 20  7  1  0
 19 14  1  0
  4 24  1  0
  5 25  1  0
 10 26  1  0
 11 27  1  0
 12 28  1  0
 12 29  1  0
 13 30  1  0
 13 31  1  0
 15 32  1  0
 16 33  1  0
 18 34  1  0
 19 35  1  0
 22 36  1  0
 23 37  1  0
M  END
$$$$
OCNT-2314683
     RDKit          3D

 43 48  0  0  0  0  0  0  0  0999 V2000
   -0.1509   -1.9648    2.0878 C   0  0  0  0  0  0  0  0  0  0  0  0
    1.3287   -1.9113    2.0242 C   0  0  0  0  0  0  0  0  0  0  0  0
    2.0284   -2.8114    2.7287 N   0  0  0  0  0  0  0  0  0  0  0  0
    3.3579   -2.5139    2.5055 O   0  0  0  0  0  0  0  0  0  0  0  0
    3.4581   -1.4447    1.6719 C   0  0  0  0  0  0  0  0  0  0  0  0
    4.6366   -0.9263    1.2909 N   0  0  0  0  0  0  0  0  0  0  0  0
    4.5689    0.1379    0.4657 C   0  0  0  0  0  0  0  0  0  0  0  0
    5.9017    0.7287    0.0352 C   0  0  0  0  0  0  0  0  0  0  0  0
    6.0916    2.2123   -0.1726 C   0  0  0  0  0  0  0  0  0  0  0  0
    6.1212    1.2822   -1.3526 C   0  0  0  0  0  0  0  0  0  0  0  0
    3.3407    0.6532    0.0382 C   0  0  0  0  0  0  0  0  0  0  0  0
    2.1198    0.0856    0.4490 C   0  0  0  0  0  0  0  0  0  0  0  0
    0.8438    0.6014   -0.0065 C   0  0  0  0  0  0  0  0  0  0  0  0
   -0.3426    0.0434   -0.0611 N   0  0  0  0  0  0  0  0  0  0  0  0
   -1.1313    1.0393   -0.6010 C   0  0  0  0  0  0  0  0  0  0  0  0
   -2.5590    0.8562   -0.8463 C   0  0  0  0  0  0  0  0  0  0  0  0
   -3.3519    1.9223   -1.3312 C   0  0  0  0  0  0  0  0  0  0  0  0
   -4.7222    1.7581   -1.5623 C   0  0  0  0  0  0  0  0  0  0  0  0
   -5.2744    0.5205   -1.3133 C   0  0  0  0  0  0  0  0  0  0  0  0
   -6.5988    0.2156   -1.4854 O   0  0  0  0  0  0  0  0  0  0  0  0
   -6.6338   -1.2271   -1.3728 C   0  0  0  0  0  0  0  0  0  0  0  0
   -5.3997   -1.7010   -0.6030 C   0  0  0  0  0  0  0  0  0  0  0  0
   -4.5173   -0.5367   -0.8374 C   0  0  0  0  0  0  0  0  0  0  0  0
   -3.1616   -0.3889   -0.5925 C   0  0  0  0  0  0  0  0  0  0  0  0
   -0.4601    2.1705   -0.8702 N   0  0  0  0  0  0  0  0  0  0  0  0
    0.8440    1.8829   -0.4819 O   0  0  0  0  0  0  0  0  0  0  0  0
    2.1860   -1.0183    1.3162 C   0  0  0  0  0  0  0  0  0  0  0  0
   -0.5643   -2.2894    1.1284 H   0  0  0  0  0  0  0  0  0  0  0  0
   -0.5652   -0.9869    2.3504 H   0  0  0  0  0  0  0  0  0  0  0  0
   -0.4933   -2.6749    2.8488 H   0  0  0  0  0  0  0  0  0  0  0  0
    6.7618    0.2127    0.4638 H   0  0  0  0  0  0  0  0  0  0  0  0
    5.2471    2.8822   -0.0661 H   0  0  0  0  0  0  0  0  0  0  0  0
    7.0303    2.6475    0.1545 H   0  0  0  0  0  0  0  0  0  0  0  0
    5.2967    1.3145   -2.0543 H   0  0  0  0  0  0  0  0  0  0  0  0
    7.0799    1.0889   -1.8227 H   0  0  0  0  0  0  0  0  0  0  0  0
    3.3346    1.5067   -0.6359 H   0  0  0  0  0  0  0  0  0  0  0  0
   -2.9043    2.8951   -1.5286 H   0  0  0  0  0  0  0  0  0  0  0  0
   -5.3323    2.5763   -1.9287 H   0  0  0  0  0  0  0  0  0  0  0  0
   -6.6478   -1.6408   -2.3894 H   0  0  0  0  0  0  0  0  0  0  0  0
   -7.5603   -1.5289   -0.8733 H   0  0  0  0  0  0  0  0  0  0  0  0
   -5.0082   -2.6412   -0.9996 H   0  0  0  0  0  0  0  0  0  0  0  0
   -5.6160   -1.8038    0.4651 H   0  0  0  0  0  0  0  0  0  0  0  0
   -2.5825   -1.2234   -0.2079 H   0  0  0  0  0  0  0  0  0  0  0  0
  1  2  1  0
  2  3  2  0
  3  4  1  0
  4  5  1  0
  5  6  2  0
  6  7  1  0
  7  8  1  0
  8  9  1  0
  9 10  1  0
  7 11  2  0
 11 12  1  0
 12 13  1  0
 13 14  2  0
 14 15  1  0
 15 16  1  0
 16 17  1  0
 17 18  2  0
 18 19  1  0
 19 20  1  0
 20 21  1  0
 21 22  1  0
 22 23  1  0
 23 24  1  0
 15 25  2  0
 25 26  1  0
 12 27  2  0
 27  2  1  0
 27  5  1  0
 10  8  1  0
 26 13  1  0
 24 16  2  0
 23 19  2  0
  1 28  1  0
  1 29  1  0
  1 30  1  0
  8 31  1  0
  9 32  1  0
  9 33  1  0
 10 34  1  0
 10 35  1  0
 11 36  1  0
 17 37  1  0
 18 38  1  0
 21 39  1  0
 21 40  1  0
 22 41  1  0
 22 42  1  0
 24 43  1  0
M  END
$$$$
OCNT-2314688
     RDKit          3D

 38 40  0  0  0  0  0  0  0  0999 V2000
    0.0797   -1.6029    0.7901 O   0  0  0  0  0  0  0  0  0  0  0  0
    0.4056   -0.8513   -0.1324 C   0  0  0  0  0  0  0  0  0  0  0  0
    1.8466   -0.8753   -0.6442 C   0  0  0  0  0  0  0  0  0  0  0  0
    2.7629   -1.7736    0.1890 C   0  0  0  0  0  0  0  0  0  0  0  0
    3.1630   -1.1193    1.4878 C   0  0  0  0  0  0  0  0  0  0  0  0
    2.6148   -1.5256    2.6894 C   0  0  0  0  0  0  0  0  0  0  0  0
    3.0411   -0.8538    3.8127 C   0  0  0  0  0  0  0  0  0  0  0  0
    3.9436    0.1431    3.7859 N   0  0  0  0  0  0  0  0  0  0  0  0
    4.4145    0.4606    2.5718 C   0  0  0  0  0  0  0  0  0  0  0  0
    4.0664   -0.1171    1.4101 N   0  0  0  0  0  0  0  0  0  0  0  0
   -0.4838    0.0263   -0.7810 N   0  0  0  0  0  0  0  0  0  0  0  0
    0.0835    1.1098   -1.5980 C   0  0  0  0  0  0  0  0  0  0  0  0
   -0.9148    1.9615   -2.3543 C   0  0  0  0  0  0  0  0  0  0  0  0
   -1.9501    2.4645   -1.3774 C   0  0  0  0  0  0  0  0  0  0  0  0
   -2.6244    1.2745   -0.7520 C   0  0  0  0  0  0  0  0  0  0  0  0
   -3.9942    1.3974   -0.4434 C   0  0  0  0  0  0  0  0  0  0  0  0
   -4.6996    0.3281    0.0877 C   0  0  0  0  0  0  0  0  0  0  0  0
   -4.0407   -0.8710    0.3093 C   0  0  0  0  0  0  0  0  0  0  0  0
   -2.6717   -0.9933    0.0389 C   0  0  0  0  0  0  0  0  0  0  0  0
   -2.2036   -2.2611    0.2550 O   0  0  0  0  0  0  0  0  0  0  0  0
   -1.9088    0.0811   -0.4727 C   0  0  0  0  0  0  0  0  0  0  0  0
    2.2589    0.1378   -0.6704 H   0  0  0  0  0  0  0  0  0  0  0  0
    1.8156   -1.2710   -1.6664 H   0  0  0  0  0  0  0  0  0  0  0  0
    3.6809   -1.9673   -0.3804 H   0  0  0  0  0  0  0  0  0  0  0  0
    2.3061   -2.7534    0.3728 H   0  0  0  0  0  0  0  0  0  0  0  0
    1.8791   -2.3171    2.7520 H   0  0  0  0  0  0  0  0  0  0  0  0
    2.6543   -1.1061    4.7957 H   0  0  0  0  0  0  0  0  0  0  0  0
    5.1447    1.2607    2.5227 H   0  0  0  0  0  0  0  0  0  0  0  0
    0.6770    1.7447   -0.9273 H   0  0  0  0  0  0  0  0  0  0  0  0
    0.7711    0.6748   -2.3314 H   0  0  0  0  0  0  0  0  0  0  0  0
   -1.3890    1.3696   -3.1479 H   0  0  0  0  0  0  0  0  0  0  0  0
   -0.4033    2.8019   -2.8362 H   0  0  0  0  0  0  0  0  0  0  0  0
   -1.4962    3.0813   -0.5928 H   0  0  0  0  0  0  0  0  0  0  0  0
   -2.6744    3.0861   -1.9166 H   0  0  0  0  0  0  0  0  0  0  0  0
   -4.5201    2.3303   -0.6371 H   0  0  0  0  0  0  0  0  0  0  0  0
   -5.7589    0.4200    0.3093 H   0  0  0  0  0  0  0  0  0  0  0  0
   -4.5889   -1.7270    0.6953 H   0  0  0  0  0  0  0  0  0  0  0  0
   -1.2868   -2.1678    0.5851 H   0  0  0  0  0  0  0  0  0  0  0  0
  1  2  2  0
  2  3  1  0
  3  4  1  0
  4  5  1  0
  5  6  1  0
  6  7  2  0
  7  8  1  0
  8  9  2  0
  9 10  1  0
  2 11  1  0
 11 12  1  0
 12 13  1  0
 13 14  1  0
 14 15  1  0
 15 16  2  0
 16 17  1  0
 17 18  2  0
 18 19  1  0
 19 20  1  0
 19 21  2  0
 10  5  2  0
 21 11  1  0
 21 15  1  0
  3 22  1  0
  3 23  1  0
  4 24  1  0
  4 25  1  0
  6 26  1  0
  7 27  1  0
  9 28  1  0
 12 29  1  0
 12 30  1  0
 13 31  1  0
 13 32  1  0
 14 33  1  0
 14 34  1  0
 16 35  1  0
 17 36  1  0
 18 37  1  0
 20 38  1  0
M  END
$$$$
OCNT-2314691
     RDKit          3D

 53 56  0  0  0  0  0  0  0  0999 V2000
   -0.6924    1.4365    0.8547 O   0  0  0  0  0  0  0  0  0  0  0  0
   -0.1991    0.4692    0.2727 C   0  0  0  0  0  0  0  0  0  0  0  0
    1.2810    0.4334   -0.0552 C   0  0  0  0  0  0  0  0  0  0  0  0
    1.9993    1.6640    0.4909 C   0  0  0  0  0  0  0  0  0  0  0  0
    3.4422    1.6141    0.1659 C   0  0  0  0  0  0  0  0  0  0  0  0
    4.3790    0.8277    0.6410 N   0  0  0  0  0  0  0  0  0  0  0  0
    5.4993    1.2479   -0.0465 C   0  0  0  0  0  0  0  0  0  0  0  0
    6.8098    0.6462    0.1644 C   0  0  0  0  0  0  0  0  0  0  0  0
    6.9682   -0.3878    1.0919 C   0  0  0  0  0  0  0  0  0  0  0  0
    8.2277   -0.9356    1.2636 C   0  0  0  0  0  0  0  0  0  0  0  0
    9.3202   -0.5291    0.5839 N   0  0  0  0  0  0  0  0  0  0  0  0
    9.1475    0.4715   -0.3056 C   0  0  0  0  0  0  0  0  0  0  0  0
    7.9295    1.0834   -0.5487 C   0  0  0  0  0  0  0  0  0  0  0  0
    5.2596    2.2423   -0.9183 N   0  0  0  0  0  0  0  0  0  0  0  0
    3.8958    2.4870   -0.7769 O   0  0  0  0  0  0  0  0  0  0  0  0
   -0.9616   -0.6385   -0.1069 N   0  0  0  0  0  0  0  0  0  0  0  0
   -0.4982   -1.6354   -1.0786 C   0  0  0  0  0  0  0  0  0  0  0  0
   -1.1035   -3.0139   -0.8386 C   0  0  0  0  0  0  0  0  0  0  0  0
   -2.6207   -2.9524   -0.7260 C   0  0  0  0  0  0  0  0  0  0  0  0
   -3.0225   -1.9508    0.3502 C   0  0  0  0  0  0  0  0  0  0  0  0
   -2.4249   -0.5530    0.1105 C   0  0  0  0  0  0  0  0  0  0  0  0
   -3.1077    0.2233   -1.0439 C   0  0  0  0  0  0  0  0  0  0  0  0
   -4.5423    0.6014   -0.7620 C   0  0  0  0  0  0  0  0  0  0  0  0
   -5.5969   -0.0523   -1.4139 C   0  0  0  0  0  0  0  0  0  0  0  0
   -6.9198    0.2992   -1.1414 C   0  0  0  0  0  0  0  0  0  0  0  0
   -7.1911    1.3033   -0.2205 C   0  0  0  0  0  0  0  0  0  0  0  0
   -8.4977    1.6138    0.0151 O   0  0  0  0  0  0  0  0  0  0  0  0
   -6.1595    1.9661    0.4353 C   0  0  0  0  0  0  0  0  0  0  0  0
   -4.8358    1.6148    0.1629 C   0  0  0  0  0  0  0  0  0  0  0  0
    1.7164   -0.4720    0.3844 H   0  0  0  0  0  0  0  0  0  0  0  0
    1.3999    0.3939   -1.1446 H   0  0  0  0  0  0  0  0  0  0  0  0
    1.8816    1.7194    1.5799 H   0  0  0  0  0  0  0  0  0  0  0  0
    1.5536    2.5781    0.0795 H   0  0  0  0  0  0  0  0  0  0  0  0
    6.1309   -0.7623    1.6727 H   0  0  0  0  0  0  0  0  0  0  0  0
    8.3961   -1.7404    1.9740 H   0  0  0  0  0  0  0  0  0  0  0  0
   10.0442    0.7797   -0.8365 H   0  0  0  0  0  0  0  0  0  0  0  0
    7.8645    1.8833   -1.2799 H   0  0  0  0  0  0  0  0  0  0  0  0
   -0.7667   -1.2666   -2.0756 H   0  0  0  0  0  0  0  0  0  0  0  0
    0.5901   -1.7278   -1.0576 H   0  0  0  0  0  0  0  0  0  0  0  0
   -0.8165   -3.6920   -1.6498 H   0  0  0  0  0  0  0  0  0  0  0  0
   -0.6919   -3.4310    0.0891 H   0  0  0  0  0  0  0  0  0  0  0  0
   -3.0119   -3.9442   -0.4721 H   0  0  0  0  0  0  0  0  0  0  0  0
   -3.0591   -2.6744   -1.6909 H   0  0  0  0  0  0  0  0  0  0  0  0
   -2.6587   -2.3219    1.3180 H   0  0  0  0  0  0  0  0  0  0  0  0
   -4.1134   -1.9070    0.4320 H   0  0  0  0  0  0  0  0  0  0  0  0
   -2.5844    0.0129    1.0378 H   0  0  0  0  0  0  0  0  0  0  0  0
   -3.0497   -0.3474   -1.9787 H   0  0  0  0  0  0  0  0  0  0  0  0
   -2.5557    1.1508   -1.2480 H   0  0  0  0  0  0  0  0  0  0  0  0
   -5.3981   -0.8401   -2.1364 H   0  0  0  0  0  0  0  0  0  0  0  0
   -7.7365   -0.2084   -1.6466 H   0  0  0  0  0  0  0  0  0  0  0  0
   -8.5296    2.3302    0.6701 H   0  0  0  0  0  0  0  0  0  0  0  0
   -6.3612    2.7531    1.1545 H   0  0  0  0  0  0  0  0  0  0  0  0
   -4.0289    2.1377    0.6750 H   0  0  0  0  0  0  0  0  0  0  0  0
  1  2  2  0
  2  3  1  0
  3  4  1  0
  4  5  1  0
  5  6  2  0
  6  7  1  0
  7  8  1  0
  8  9  2  0
  9 10  1  0
 10 11  2  0
 11 12  1  0
 12 13  2  0
  7 14  2  0
 14 15  1  0
  2 16  1  0
 16 17  1  0
 17 18  1  0
 18 19  1  0
 19 20  1  0
 20 21  1  0
 21 22  1  0
 22 23  1  0
 23 24  1  0
 24 25  2  0
 25 26  1  0
 26 27  1  0
 26 28  2  0
 28 29  1  0
 15  5  1  0
 21 16  1  0
 29 23  2  0
 13  8  1  0
  3 30  1  0
  3 31  1  0
  4 32  1  0
  4 33  1  0
  9 34  1  0
 10 35  1  0
 12 36  1  0
 13 37  1  0
 17 38  1  0
 17 39  1  0
 18 40  1  0
 18 41  1  0
 19 42  1  0
 19 43  1  0
 20 44  1  0
 20 45  1  0
 21 46  1  0
 22 47  1  0
 22 48  1  0
 24 49  1  0
 25 50  1  0
 27 51  1  0
 28 52  1  0
 29 53  1  0
M  END
$$$$
OCNT-2314692
     RDKit          3D

 46 48  0  0  0  0  0  0  0  0999 V2000
   -3.5439    2.3752   -0.0582 C   0  0  0  0  0  0  0  0  0  0  0  0
   -2.4040    1.6102   -0.7284 C   0  0  0  0  0  0  0  0  0  0  0  0
   -2.3325    1.9881   -2.2109 C   0  0  0  0  0  0  0  0  0  0  0  0
   -2.5371    0.0786   -0.5886 C   0  0  0  0  0  0  0  0  0  0  0  0
   -2.4948   -0.4376    0.8702 C   0  0  0  0  0  0  0  0  0  0  0  0
   -3.9328   -0.7240    1.3793 C   0  0  0  0  0  0  0  0  0  0  0  0
   -3.9289   -1.3364    2.6717 O   0  0  0  0  0  0  0  0  0  0  0  0
   -3.1288   -2.5279    2.7378 C   0  0  0  0  0  0  0  0  0  0  0  0
   -2.3500   -2.8474    1.4566 C   0  0  0  0  0  0  0  0  0  0  0  0
   -1.6449   -1.6529    0.9898 N   0  0  0  0  0  0  0  0  0  0  0  0
   -0.2603   -1.7179    0.8570 C   0  0  0  0  0  0  0  0  0  0  0  0
    0.3396   -2.7843    0.9726 O   0  0  0  0  0  0  0  0  0  0  0  0
    0.3537   -0.5258    0.5937 N   0  0  0  0  0  0  0  0  0  0  0  0
    1.7070   -0.2806    0.3471 C   0  0  0  0  0  0  0  0  0  0  0  0
    2.6817   -1.2508    0.2316 C   0  0  0  0  0  0  0  0  0  0  0  0
    3.9965   -0.8590   -0.0276 C   0  0  0  0  0  0  0  0  0  0  0  0
    4.3109    0.4872   -0.1732 C   0  0  0  0  0  0  0  0  0  0  0  0
    5.7227    0.9435   -0.4402 C   0  0  0  0  0  0  0  0  0  0  0  0
    5.9956    1.9560   -1.5293 C   0  0  0  0  0  0  0  0  0  0  0  0
    6.4300    0.5331   -1.7124 C   0  0  0  0  0  0  0  0  0  0  0  0
    3.3273    1.4054   -0.0510 N   0  0  0  0  0  0  0  0  0  0  0  0
    2.0254    1.0209    0.2046 N   0  0  0  0  0  0  0  0  0  0  0  0
   -4.5190    2.0422   -0.4288 H   0  0  0  0  0  0  0  0  0  0  0  0
   -3.4582    3.4497   -0.2532 H   0  0  0  0  0  0  0  0  0  0  0  0
   -3.5229    2.2454    1.0277 H   0  0  0  0  0  0  0  0  0  0  0  0
   -1.4633    1.9271   -0.2617 H   0  0  0  0  0  0  0  0  0  0  0  0
   -1.4885    1.4899   -2.6998 H   0  0  0  0  0  0  0  0  0  0  0  0
   -2.1949    3.0681   -2.3318 H   0  0  0  0  0  0  0  0  0  0  0  0
   -3.2487    1.7023   -2.7386 H   0  0  0  0  0  0  0  0  0  0  0  0
   -3.4609   -0.2542   -1.0800 H   0  0  0  0  0  0  0  0  0  0  0  0
   -1.7266   -0.3805   -1.1691 H   0  0  0  0  0  0  0  0  0  0  0  0
   -2.0402    0.3040    1.5381 H   0  0  0  0  0  0  0  0  0  0  0  0
   -4.4872   -1.3747    0.6916 H   0  0  0  0  0  0  0  0  0  0  0  0
   -4.5049    0.2038    1.4642 H   0  0  0  0  0  0  0  0  0  0  0  0
   -3.7885   -3.3625    2.9962 H   0  0  0  0  0  0  0  0  0  0  0  0
   -2.4326   -2.3906    3.5725 H   0  0  0  0  0  0  0  0  0  0  0  0
   -3.0324   -3.1495    0.6536 H   0  0  0  0  0  0  0  0  0  0  0  0
   -1.6736   -3.6879    1.6379 H   0  0  0  0  0  0  0  0  0  0  0  0
   -0.1747    0.3255    0.6569 H   0  0  0  0  0  0  0  0  0  0  0  0
    2.4635   -2.3066    0.3323 H   0  0  0  0  0  0  0  0  0  0  0  0
    4.7738   -1.6119   -0.1173 H   0  0  0  0  0  0  0  0  0  0  0  0
    6.3438    1.0338    0.4483 H   0  0  0  0  0  0  0  0  0  0  0  0
    5.1616    2.3160   -2.1225 H   0  0  0  0  0  0  0  0  0  0  0  0
    6.7562    2.7050   -1.3412 H   0  0  0  0  0  0  0  0  0  0  0  0
    5.8956   -0.0628   -2.4440 H   0  0  0  0  0  0  0  0  0  0  0  0
    7.4902    0.3147   -1.6542 H   0  0  0  0  0  0  0  0  0  0  0  0
  1  2  1  0
  2  3  1  0
  2  4  1  0
  4  5  1  0
  5  6  1  0
  6  7  1  0
  7  8  1  0
  8  9  1  0
  9 10  1  0
 10 11  1  0
 11 12  2  0
 11 13  1  0
 13 14  1  0
 14 15  2  0
 15 16  1  0
 16 17  2  0
 17 18  1  0
 18 19  1  0
 19 20  1  0
 17 21  1  0
 21 22  2  0
 10  5  1  0
 22 14  1  0
 20 18  1  0
  1 23  1  0
  1 24  1  0
  1 25  1  0
  2 26  1  0
  3 27  1  0
  3 28  1  0
  3 29  1  0
  4 30  1  0
  4 31  1  0
  5 32  1  0
  6 33  1  0
  6 34  1  0
  8 35  1  0
  8 36  1  0
  9 37  1  0
  9 38  1  0
 13 39  1  0
 15 40  1  0
 16 41  1  0
 18 42  1  0
 19 43  1  0
 19 44  1  0
 20 45  1  0
 20 46  1  0
M  END
$$$$
OCNT-2314695
     RDKit          3D

 41 43  0  0  0  0  0  0  0  0999 V2000
   -3.2316   -3.2399   -3.0019 F   0  0  0  0  0  0  0  0  0  0  0  0
   -1.9322   -3.1251   -2.6053 C   0  0  0  0  0  0  0  0  0  0  0  0
   -1.1945   -3.1392   -3.7549 F   0  0  0  0  0  0  0  0  0  0  0  0
   -1.6324   -4.2926   -1.9658 F   0  0  0  0  0  0  0  0  0  0  0  0
   -1.6529   -1.9064   -1.7444 C   0  0  0  0  0  0  0  0  0  0  0  0
   -0.3431   -1.4980   -1.5707 C   0  0  0  0  0  0  0  0  0  0  0  0
   -0.1187   -0.4010   -0.7659 C   0  0  0  0  0  0  0  0  0  0  0  0
    1.1947    0.0560   -0.6282 N   0  0  0  0  0  0  0  0  0  0  0  0
    1.4020    1.1822    0.2751 C   0  0  0  0  0  0  0  0  0  0  0  0
    2.8973    1.4246    0.5917 C   0  0  0  0  0  0  0  0  0  0  0  0
    3.4073    0.5365    1.7349 C   0  0  0  0  0  0  0  0  0  0  0  0
    3.5861   -0.9239    1.3289 C   0  0  0  0  0  0  0  0  0  0  0  0
    3.6581   -1.0980   -0.0884 O   0  0  0  0  0  0  0  0  0  0  0  0
    4.4751   -0.1057   -0.7109 C   0  0  0  0  0  0  0  0  0  0  0  0
    3.8219    1.2761   -0.6281 C   0  0  0  0  0  0  0  0  0  0  0  0
   -1.1317    0.2621   -0.1905 N   0  0  0  0  0  0  0  0  0  0  0  0
   -2.3812   -0.1905   -0.3921 C   0  0  0  0  0  0  0  0  0  0  0  0
   -3.4857    0.5295    0.2549 C   0  0  0  0  0  0  0  0  0  0  0  0
   -4.8289    0.1472    0.1089 C   0  0  0  0  0  0  0  0  0  0  0  0
   -5.8471    0.8571    0.7457 C   0  0  0  0  0  0  0  0  0  0  0  0
   -5.4994    1.9453    1.5244 C   0  0  0  0  0  0  0  0  0  0  0  0
   -4.2287    2.3592    1.6998 N   0  0  0  0  0  0  0  0  0  0  0  0
   -3.2629    1.6459    1.0624 C   0  0  0  0  0  0  0  0  0  0  0  0
   -2.6839   -1.2617   -1.1449 N   0  0  0  0  0  0  0  0  0  0  0  0
    0.4791   -2.0116   -2.0566 H   0  0  0  0  0  0  0  0  0  0  0  0
    1.8469   -0.7138   -0.4626 H   0  0  0  0  0  0  0  0  0  0  0  0
    0.8606    1.0439    1.2197 H   0  0  0  0  0  0  0  0  0  0  0  0
    1.0018    2.0850   -0.2041 H   0  0  0  0  0  0  0  0  0  0  0  0
    2.9632    2.4642    0.9417 H   0  0  0  0  0  0  0  0  0  0  0  0
    4.3855    0.9220    2.0526 H   0  0  0  0  0  0  0  0  0  0  0  0
    2.7654    0.6068    2.6206 H   0  0  0  0  0  0  0  0  0  0  0  0
    2.7359   -1.5176    1.6808 H   0  0  0  0  0  0  0  0  0  0  0  0
    4.4862   -1.3477    1.7884 H   0  0  0  0  0  0  0  0  0  0  0  0
    4.6195   -0.3874   -1.7589 H   0  0  0  0  0  0  0  0  0  0  0  0
    5.4650   -0.1032   -0.2378 H   0  0  0  0  0  0  0  0  0  0  0  0
    4.6191    2.0291   -0.5876 H   0  0  0  0  0  0  0  0  0  0  0  0
    3.2698    1.4881   -1.5517 H   0  0  0  0  0  0  0  0  0  0  0  0
   -5.0905   -0.7114   -0.5068 H   0  0  0  0  0  0  0  0  0  0  0  0
   -6.8849    0.5638    0.6340 H   0  0  0  0  0  0  0  0  0  0  0  0
   -6.2543    2.5293    2.0421 H   0  0  0  0  0  0  0  0  0  0  0  0
   -2.2556    2.0208    1.2333 H   0  0  0  0  0  0  0  0  0  0  0  0
  1  2  1  0
  2  3  1  0
  2  4  1  0
  2  5  1  0
  5  6  1  0
  6  7  2  0
  7  8  1  0
  8  9  1  0
  9 10  1  0
 10 11  1  0
 11 12  1  0
 12 13  1  0
 13 14  1  0
 14 15  1  0
  7 16  1  0
 16 17  2  0
 17 18  1  0
 18 19  1  0
 19 20  2  0
 20 21  1  0
 21 22  2  0
 22 23  1  0
 17 24  1  0
 24  5  2  0
 15 10  1  0
 23 18  2  0
  6 25  1  0
  8 26  1  0
  9 27  1  0
  9 28  1  0
 10 29  1  0
 11 30  1  0
 11 31  1  0
 12 32  1  0
 12 33  1  0
 14 34  1  0
 14 35  1  0
 15 36  1  0
 15 37  1  0
 19 38  1  0
 20 39  1  0
 21 40  1  0
 23 41  1  0
M  END
$$$$
OCNT-2314699
     RDKit          3D

 38 41  0  0  0  0  0  0  0  0999 V2000
   -1.1108   -2.4794    0.9960 O   0  0  0  0  0  0  0  0  0  0  0  0
   -0.9445   -1.4316    0.3703 C   0  0  0  0  0  0  0  0  0  0  0  0
    0.3738   -0.9636   -0.0228 C   0  0  0  0  0  0  0  0  0  0  0  0
    0.8456   -0.6059   -1.2695 C   0  0  0  0  0  0  0  0  0  0  0  0
    2.2146   -0.2093   -1.2348 C   0  0  0  0  0  0  0  0  0  0  0  0
    2.7641   -0.2991    0.0312 C   0  0  0  0  0  0  0  0  0  0  0  0
    4.1296    0.0295    0.4628 C   0  0  0  0  0  0  0  0  0  0  0  0
    4.7500    1.2006   -0.0062 C   0  0  0  0  0  0  0  0  0  0  0  0
    6.0530    1.5300    0.3816 C   0  0  0  0  0  0  0  0  0  0  0  0
    6.7533    0.6880    1.2409 C   0  0  0  0  0  0  0  0  0  0  0  0
    6.1462   -0.4732    1.7026 C   0  0  0  0  0  0  0  0  0  0  0  0
    6.8233   -1.2858    2.5246 F   0  0  0  0  0  0  0  0  0  0  0  0
    4.8499   -0.8097    1.3236 C   0  0  0  0  0  0  0  0  0  0  0  0
    1.6009   -0.8578    1.1633 S   0  0  0  0  0  0  0  0  0  0  0  0
   -2.0349   -0.6450    0.0170 N   0  0  0  0  0  0  0  0  0  0  0  0
   -1.9786    0.7370   -0.4465 C   0  0  0  0  0  0  0  0  0  0  0  0
   -3.4078    1.1727   -0.5059 C   0  0  1  0  0  0  0  0  0  0  0  0
   -4.3959    0.4778   -1.4077 C   0  0  0  0  0  0  0  0  0  0  0  0
   -4.2709    0.0833    0.0523 C   0  0  2  0  0  0  0  0  0  0  0  0
   -5.4008    0.4027    0.9819 C   0  0  0  0  0  0  0  0  0  0  0  0
   -6.4888   -0.4717    0.7211 O   0  0  0  0  0  0  0  0  0  0  0  0
   -3.3670   -1.0547    0.4408 C   0  0  0  0  0  0  0  0  0  0  0  0
    0.2438   -0.6405   -2.1697 H   0  0  0  0  0  0  0  0  0  0  0  0
    2.7760    0.1060   -2.1066 H   0  0  0  0  0  0  0  0  0  0  0  0
    4.2163    1.8763   -0.6717 H   0  0  0  0  0  0  0  0  0  0  0  0
    6.5167    2.4421    0.0144 H   0  0  0  0  0  0  0  0  0  0  0  0
    7.7651    0.9263    1.5528 H   0  0  0  0  0  0  0  0  0  0  0  0
    4.4239   -1.7345    1.7013 H   0  0  0  0  0  0  0  0  0  0  0  0
   -1.5096    0.7914   -1.4314 H   0  0  0  0  0  0  0  0  0  0  0  0
   -1.4071    1.3318    0.2729 H   0  0  0  0  0  0  0  0  0  0  0  0
   -3.5729    2.2061   -0.2401 H   0  0  0  0  0  0  0  0  0  0  0  0
   -4.0267   -0.2096   -2.1608 H   0  0  0  0  0  0  0  0  0  0  0  0
   -5.2806    1.0254   -1.7152 H   0  0  0  0  0  0  0  0  0  0  0  0
   -5.7596    1.4271    0.8361 H   0  0  0  0  0  0  0  0  0  0  0  0
   -5.1063    0.3034    2.0318 H   0  0  0  0  0  0  0  0  0  0  0  0
   -6.1904   -1.3773    0.9065 H   0  0  0  0  0  0  0  0  0  0  0  0
   -3.6374   -1.9890   -0.0619 H   0  0  0  0  0  0  0  0  0  0  0  0
   -3.3555   -1.2199    1.5238 H   0  0  0  0  0  0  0  0  0  0  0  0
  1  2  2  0
  2  3  1  0
  3  4  2  0
  4  5  1  0
  5  6  2  0
  6  7  1  0
  7  8  2  0
  8  9  1  0
  9 10  2  0
 10 11  1  0
 11 12  1  0
 11 13  2  0
  6 14  1  0
  2 15  1  0
 15 16  1  0
 16 17  1  0
 17 18  1  0
 18 19  1  0
 19 20  1  1
 20 21  1  0
 19 22  1  0
 14  3  1  0
 22 15  1  0
 13  7  1  0
 19 17  1  0
  4 23  1  0
  5 24  1  0
  8 25  1  0
  9 26  1  0
 10 27  1  0
 13 28  1  0
 16 29  1  0
 16 30  1  0
 17 31  1  1
 18 32  1  0
 18 33  1  0
 20 34  1  0
 20 35  1  0
 21 36  1  0
 22 37  1  0
 22 38  1  0
M  END
$$$$
OCNT-2314705
     RDKit          3D

 47 50  0  0  0  0  0  0  0  0999 V2000
    0.4193    4.8735    1.1190 C   0  0  0  0  0  0  0  0  0  0  0  0
   -0.0960    4.4533   -0.2463 C   0  0  0  0  0  0  0  0  0  0  0  0
   -0.9269    3.2719   -0.1802 N   0  0  0  0  0  0  0  0  0  0  0  0
   -2.2914    3.2488   -0.1105 C   0  0  0  0  0  0  0  0  0  0  0  0
   -2.7552    2.0181   -0.0777 N   0  0  0  0  0  0  0  0  0  0  0  0
   -1.6323    1.2041   -0.1294 C   0  0  0  0  0  0  0  0  0  0  0  0
   -1.4506   -0.1975   -0.1356 C   0  0  0  0  0  0  0  0  0  0  0  0
   -2.4701   -1.1398   -0.0576 N   0  0  0  0  0  0  0  0  0  0  0  0
   -2.1940   -2.5106   -0.5065 C   0  0  0  0  0  0  0  0  0  0  0  0
   -3.2662   -2.9594   -1.5136 C   0  0  0  0  0  0  0  0  0  0  0  0
   -4.6060   -2.9233   -0.9977 O   0  0  0  0  0  0  0  0  0  0  0  0
   -4.7979   -1.9232    0.0151 C   0  0  0  0  0  0  0  0  0  0  0  0
   -3.8701   -0.7051   -0.1270 C   0  0  0  0  0  0  0  0  0  0  0  0
   -0.1556   -0.6337   -0.1983 N   0  0  0  0  0  0  0  0  0  0  0  0
    0.8906    0.2214   -0.2528 C   0  0  0  0  0  0  0  0  0  0  0  0
    2.1505   -0.3200   -0.3302 N   0  0  0  0  0  0  0  0  0  0  0  0
    3.3222    0.4807   -0.0161 C   0  0  0  0  0  0  0  0  0  0  0  0
    4.3209   -0.5320    0.5516 C   0  0  0  0  0  0  0  0  0  0  0  0
    3.8793   -1.8588   -0.0658 C   0  0  0  0  0  0  0  0  0  0  0  0
    4.3896   -3.0724    0.6899 C   0  0  0  0  0  0  0  0  0  0  0  0
    2.3522   -1.7306   -0.0500 C   0  0  0  0  0  0  0  0  0  0  0  0
    0.7809    1.5597   -0.2607 N   0  0  0  0  0  0  0  0  0  0  0  0
   -0.4877    1.9781   -0.1965 C   0  0  0  0  0  0  0  0  0  0  0  0
    1.0340    5.7747    1.0320 H   0  0  0  0  0  0  0  0  0  0  0  0
   -0.4080    5.0883    1.8037 H   0  0  0  0  0  0  0  0  0  0  0  0
    1.0310    4.0859    1.5715 H   0  0  0  0  0  0  0  0  0  0  0  0
   -0.6922    5.2575   -0.6918 H   0  0  0  0  0  0  0  0  0  0  0  0
    0.7363    4.2445   -0.9273 H   0  0  0  0  0  0  0  0  0  0  0  0
   -2.8935    4.1481   -0.0863 H   0  0  0  0  0  0  0  0  0  0  0  0
   -2.2182   -3.1662    0.3719 H   0  0  0  0  0  0  0  0  0  0  0  0
   -1.2130   -2.6251   -0.9802 H   0  0  0  0  0  0  0  0  0  0  0  0
   -3.2386   -2.3230   -2.4061 H   0  0  0  0  0  0  0  0  0  0  0  0
   -3.0697   -3.9858   -1.8393 H   0  0  0  0  0  0  0  0  0  0  0  0
   -4.6452   -2.4060    0.9877 H   0  0  0  0  0  0  0  0  0  0  0  0
   -5.8449   -1.6068   -0.0307 H   0  0  0  0  0  0  0  0  0  0  0  0
   -4.0992   -0.0074    0.6856 H   0  0  0  0  0  0  0  0  0  0  0  0
   -4.0610   -0.2188   -1.0914 H   0  0  0  0  0  0  0  0  0  0  0  0
    3.7128    0.9380   -0.9319 H   0  0  0  0  0  0  0  0  0  0  0  0
    3.1361    1.2690    0.7223 H   0  0  0  0  0  0  0  0  0  0  0  0
    4.2313   -0.5651    1.6448 H   0  0  0  0  0  0  0  0  0  0  0  0
    5.3554   -0.2734    0.3061 H   0  0  0  0  0  0  0  0  0  0  0  0
    4.2294   -1.9033   -1.1058 H   0  0  0  0  0  0  0  0  0  0  0  0
    4.0630   -3.0621    1.7352 H   0  0  0  0  0  0  0  0  0  0  0  0
    5.4840   -3.1012    0.6791 H   0  0  0  0  0  0  0  0  0  0  0  0
    4.0204   -3.9952    0.2307 H   0  0  0  0  0  0  0  0  0  0  0  0
    1.8971   -2.3730   -0.8119 H   0  0  0  0  0  0  0  0  0  0  0  0
    1.9474   -1.9967    0.9348 H   0  0  0  0  0  0  0  0  0  0  0  0
  1  2  1  0
  2  3  1  0
  3  4  1  0
  4  5  2  0
  5  6  1  0
  6  7  2  0
  7  8  1  0
  8  9  1  0
  9 10  1  0
 10 11  1  0
 11 12  1  0
 12 13  1  0
  7 14  1  0
 14 15  2  0
 15 16  1  0
 16 17  1  0
 17 18  1  0
 18 19  1  0
 19 20  1  0
 19 21  1  0
 15 22  1  0
 22 23  2  0
 23  3  1  0
 23  6  1  0
 13  8  1  0
 21 16  1  0
  1 24  1  0
  1 25  1  0
  1 26  1  0
  2 27  1  0
  2 28  1  0
  4 29  1  0
  9 30  1  0
  9 31  1  0
 10 32  1  0
 10 33  1  0
 12 34  1  0
 12 35  1  0
 13 36  1  0
 13 37  1  0
 17 38  1  0
 17 39  1  0
 18 40  1  0
 18 41  1  0
 19 42  1  0
 20 43  1  0
 20 44  1  0
 20 45  1  0
 21 46  1  0
 21 47  1  0
M  END
$$$$
OCNT-2314706
     RDKit          3D

 35 37  0  0  0  0  0  0  0  0999 V2000
    6.1053   -1.3897    0.7779 C   0  0  0  0  0  0  0  0  0  0  0  0
    5.0569   -0.3185    0.7874 C   0  0  0  0  0  0  0  0  0  0  0  0
    5.4020    0.9954    0.5445 C   0  0  0  0  0  0  0  0  0  0  0  0
    4.3731    1.9072    0.5712 C   0  0  0  0  0  0  0  0  0  0  0  0
    3.0928    1.5778    0.8171 N   0  0  0  0  0  0  0  0  0  0  0  0
    2.8450    0.2722    1.0495 C   0  0  0  0  0  0  0  0  0  0  0  0
    1.4141   -0.1393    1.3009 C   0  0  0  0  0  0  0  0  0  0  0  0
    0.7774   -0.4250    0.0462 O   0  0  0  0  0  0  0  0  0  0  0  0
   -0.5320   -0.7790    0.1690 C   0  0  0  0  0  0  0  0  0  0  0  0
   -1.1266   -0.8708    1.2334 O   0  0  0  0  0  0  0  0  0  0  0  0
   -1.1011   -1.0609   -1.2064 C   0  0  0  0  0  0  0  0  0  0  0  0
   -2.6002   -1.1900   -1.2074 C   0  0  0  0  0  0  0  0  0  0  0  0
   -3.2681   -2.3987   -1.2331 C   0  0  0  0  0  0  0  0  0  0  0  0
   -4.9602   -2.2217   -1.2391 S   0  0  0  0  0  0  0  0  0  0  0  0
   -4.8555   -0.5058   -1.2021 C   0  0  0  0  0  0  0  0  0  0  0  0
   -5.9332    0.4028   -1.1873 C   0  0  0  0  0  0  0  0  0  0  0  0
   -5.6660    1.7728   -1.1555 C   0  0  0  0  0  0  0  0  0  0  0  0
   -4.3557    2.2249   -1.1380 C   0  0  0  0  0  0  0  0  0  0  0  0
   -4.0070    4.0836   -1.0937 Br  0  0  0  0  0  0  0  0  0  0  0  0
   -3.2860    1.3255   -1.1531 C   0  0  0  0  0  0  0  0  0  0  0  0
   -3.5254   -0.0735   -1.1871 C   0  0  0  0  0  0  0  0  0  0  0  0
    3.7861   -0.6964    1.0388 N   0  0  0  0  0  0  0  0  0  0  0  0
    6.8622   -1.1852    1.5415 H   0  0  0  0  0  0  0  0  0  0  0  0
    5.6641   -2.3691    0.9893 H   0  0  0  0  0  0  0  0  0  0  0  0
    6.5878   -1.4382   -0.2033 H   0  0  0  0  0  0  0  0  0  0  0  0
    6.4204    1.2984    0.3424 H   0  0  0  0  0  0  0  0  0  0  0  0
    4.5540    2.9625    0.3890 H   0  0  0  0  0  0  0  0  0  0  0  0
    0.8888    0.6779    1.8095 H   0  0  0  0  0  0  0  0  0  0  0  0
    1.4005   -1.0327    1.9363 H   0  0  0  0  0  0  0  0  0  0  0  0
   -0.6441   -1.9863   -1.5761 H   0  0  0  0  0  0  0  0  0  0  0  0
   -0.8117   -0.2470   -1.8815 H   0  0  0  0  0  0  0  0  0  0  0  0
   -2.8377   -3.3911   -1.2464 H   0  0  0  0  0  0  0  0  0  0  0  0
   -6.9585    0.0432   -1.1980 H   0  0  0  0  0  0  0  0  0  0  0  0
   -6.4957    2.4752   -1.1421 H   0  0  0  0  0  0  0  0  0  0  0  0
   -2.2659    1.6994   -1.1342 H   0  0  0  0  0  0  0  0  0  0  0  0
  1  2  1  0
  2  3  1  0
  3  4  2  0
  4  5  1  0
  5  6  2  0
  6  7  1  0
  7  8  1  0
  8  9  1  0
  9 10  2  0
  9 11  1  0
 11 12  1  0
 12 13  2  0
 13 14  1  0
 14 15  1  0
 15 16  2  0
 16 17  1  0
 17 18  2  0
 18 19  1  0
 18 20  1  0
 20 21  2  0
  6 22  1  0
 22  2  2  0
 21 12  1  0
 21 15  1  0
  1 23  1  0
  1 24  1  0
  1 25  1  0
  3 26  1  0
  4 27  1  0
  7 28  1  0
  7 29  1  0
 11 30  1  0
 11 31  1  0
 13 32  1  0
 16 33  1  0
 17 34  1  0
 20 35  1  0
M  END
$$$$
OCNT-2314720
     RDKit          3D

 43 45  0  0  0  0  0  0  0  0999 V2000
    5.1163    1.5038    1.1804 C   0  0  0  0  0  0  0  0  0  0  0  0
    3.8937    0.6961    0.7232 C   0  0  0  0  0  0  0  0  0  0  0  0
    3.1628    1.4646   -0.3853 C   0  0  0  0  0  0  0  0  0  0  0  0
    4.3424   -0.6680    0.3860 N   0  0  0  0  0  0  0  0  0  0  0  0
    4.8227   -0.8535   -0.9781 C   0  0  0  0  0  0  0  0  0  0  0  0
    3.4022   -1.7260    0.8099 C   0  0  0  0  0  0  0  0  0  0  0  0
    2.0743   -1.7530    0.1333 C   0  0  0  0  0  0  0  0  0  0  0  0
    0.9516   -1.1551    0.4578 N   0  0  0  0  0  0  0  0  0  0  0  0
    0.0872   -1.5627   -0.5420 C   0  0  0  0  0  0  0  0  0  0  0  0
   -1.3129   -1.1275   -0.6108 C   0  0  0  0  0  0  0  0  0  0  0  0
   -2.1530   -1.5707   -1.6276 C   0  0  0  0  0  0  0  0  0  0  0  0
   -3.4734   -1.1294   -1.6497 C   0  0  0  0  0  0  0  0  0  0  0  0
   -3.9331   -0.2623   -0.6562 C   0  0  0  0  0  0  0  0  0  0  0  0
   -5.3473    0.2512   -0.7005 C   0  0  0  0  0  0  0  0  0  0  0  0
   -5.8009    0.8856    0.6136 C   0  0  0  0  0  0  0  0  0  0  0  0
   -4.7314    1.8305    1.1484 C   0  0  0  0  0  0  0  0  0  0  0  0
   -3.4472    1.0608    1.4470 C   0  0  0  0  0  0  0  0  0  0  0  0
   -3.0256    0.1507    0.3224 C   0  0  0  0  0  0  0  0  0  0  0  0
   -1.7399   -0.2766    0.3588 N   0  0  0  0  0  0  0  0  0  0  0  0
    0.6580   -2.3922   -1.4377 N   0  0  0  0  0  0  0  0  0  0  0  0
    1.9701   -2.5192   -0.9889 O   0  0  0  0  0  0  0  0  0  0  0  0
    5.6295    1.0030    2.0092 H   0  0  0  0  0  0  0  0  0  0  0  0
    5.8392    1.6475    0.3701 H   0  0  0  0  0  0  0  0  0  0  0  0
    4.8117    2.4948    1.5347 H   0  0  0  0  0  0  0  0  0  0  0  0
    3.2241    0.6511    1.5926 H   0  0  0  0  0  0  0  0  0  0  0  0
    2.7984    2.4241   -0.0011 H   0  0  0  0  0  0  0  0  0  0  0  0
    2.2950    0.9166   -0.7605 H   0  0  0  0  0  0  0  0  0  0  0  0
    3.8200    1.6844   -1.2336 H   0  0  0  0  0  0  0  0  0  0  0  0
    5.2704   -1.8472   -1.0931 H   0  0  0  0  0  0  0  0  0  0  0  0
    4.0304   -0.7538   -1.7274 H   0  0  0  0  0  0  0  0  0  0  0  0
    5.6132   -0.1343   -1.2172 H   0  0  0  0  0  0  0  0  0  0  0  0
    3.8874   -2.7025    0.6821 H   0  0  0  0  0  0  0  0  0  0  0  0
    3.2381   -1.6381    1.8916 H   0  0  0  0  0  0  0  0  0  0  0  0
   -1.7955   -2.2474   -2.3975 H   0  0  0  0  0  0  0  0  0  0  0  0
   -4.1374   -1.4633   -2.4433 H   0  0  0  0  0  0  0  0  0  0  0  0
   -5.4122    0.9977   -1.5021 H   0  0  0  0  0  0  0  0  0  0  0  0
   -6.0337   -0.5657   -0.9534 H   0  0  0  0  0  0  0  0  0  0  0  0
   -6.7407    1.4265    0.4564 H   0  0  0  0  0  0  0  0  0  0  0  0
   -6.0012    0.1022    1.3556 H   0  0  0  0  0  0  0  0  0  0  0  0
   -5.0852    2.3249    2.0600 H   0  0  0  0  0  0  0  0  0  0  0  0
   -4.5336    2.6179    0.4100 H   0  0  0  0  0  0  0  0  0  0  0  0
   -2.6420    1.7714    1.6670 H   0  0  0  0  0  0  0  0  0  0  0  0
   -3.5925    0.4430    2.3418 H   0  0  0  0  0  0  0  0  0  0  0  0
  1  2  1  0
  2  3  1  0
  2  4  1  0
  4  5  1  0
  4  6  1  0
  6  7  1  0
  7  8  2  0
  8  9  1  0
  9 10  1  0
 10 11  1  0
 11 12  2  0
 12 13  1  0
 13 14  1  0
 14 15  1  0
 15 16  1  0
 16 17  1  0
 17 18  1  0
 18 19  1  0
  9 20  2  0
 20 21  1  0
 21  7  1  0
 19 10  2  0
 18 13  2  0
  1 22  1  0
  1 23  1  0
  1 24  1  0
  2 25  1  0
  3 26  1  0
  3 27  1  0
  3 28  1  0
  5 29  1  0
  5 30  1  0
  5 31  1  0
  6 32  1  0
  6 33  1  0
 11 34  1  0
 12 35  1  0
 14 36  1  0
 14 37  1  0
 15 38  1  0
 15 39  1  0
 16 40  1  0
 16 41  1  0
 17 42  1  0
 17 43  1  0
M  END
$$$$
OCNT-2314739
     RDKit          3D

 47 49  0  0  0  0  0  0  0  0999 V2000
    6.0353   -2.1706   -0.1828 C   0  0  0  0  0  0  0  0  0  0  0  0
    5.7520   -1.0568    0.8129 C   0  0  0  0  0  0  0  0  0  0  0  0
    4.6096   -0.1864    0.3616 C   0  0  0  0  0  0  0  0  0  0  0  0
    3.3022   -0.5258    0.6600 C   0  0  0  0  0  0  0  0  0  0  0  0
    2.3023    0.3097    0.1934 C   0  0  0  0  0  0  0  0  0  0  0  0
    0.9677   -0.0427    0.4718 N   0  0  0  0  0  0  0  0  0  0  0  0
   -0.0348    0.9187   -0.0269 C   0  0  0  0  0  0  0  0  0  0  0  0
   -1.5014    0.4164    0.2338 C   0  0  0  0  0  0  0  0  0  0  0  0
   -2.3994    1.6579    0.2719 C   0  0  0  0  0  0  0  0  0  0  0  0
   -2.7541    2.3325   -0.9083 C   0  0  0  0  0  0  0  0  0  0  0  0
   -3.5563    3.4731   -0.8613 C   0  0  0  0  0  0  0  0  0  0  0  0
   -4.0107    3.9561    0.3641 C   0  0  0  0  0  0  0  0  0  0  0  0
   -3.6641    3.2996    1.5436 C   0  0  0  0  0  0  0  0  0  0  0  0
   -2.8619    2.1577    1.4999 C   0  0  0  0  0  0  0  0  0  0  0  0
   -2.0167   -0.5862   -0.7386 N   0  0  0  0  0  0  0  0  0  0  0  0
   -3.3475   -1.1283   -0.3780 C   0  0  0  0  0  0  0  0  0  0  0  0
   -3.3120   -2.5826    0.1197 C   0  0  0  0  0  0  0  0  0  0  0  0
   -2.7452   -3.4939   -0.8295 O   0  0  0  0  0  0  0  0  0  0  0  0
   -1.7672   -2.8787   -1.6797 C   0  0  0  0  0  0  0  0  0  0  0  0
   -1.0680   -1.6843   -1.0123 C   0  0  0  0  0  0  0  0  0  0  0  0
    2.5834    1.3951   -0.5410 N   0  0  0  0  0  0  0  0  0  0  0  0
    3.8789    1.6394   -0.7838 C   0  0  0  0  0  0  0  0  0  0  0  0
    4.9173    0.9038   -0.3653 N   0  0  0  0  0  0  0  0  0  0  0  0
    6.8781   -2.7793    0.1596 H   0  0  0  0  0  0  0  0  0  0  0  0
    5.1677   -2.8285   -0.3015 H   0  0  0  0  0  0  0  0  0  0  0  0
    6.2866   -1.7656   -1.1691 H   0  0  0  0  0  0  0  0  0  0  0  0
    5.5311   -1.4804    1.7997 H   0  0  0  0  0  0  0  0  0  0  0  0
    6.6498   -0.4386    0.9329 H   0  0  0  0  0  0  0  0  0  0  0  0
    3.0673   -1.4192    1.2237 H   0  0  0  0  0  0  0  0  0  0  0  0
    0.8730   -0.1955    1.4718 H   0  0  0  0  0  0  0  0  0  0  0  0
    0.1225    1.8762    0.4888 H   0  0  0  0  0  0  0  0  0  0  0  0
    0.0951    1.0971   -1.1030 H   0  0  0  0  0  0  0  0  0  0  0  0
   -1.5175   -0.0502    1.2295 H   0  0  0  0  0  0  0  0  0  0  0  0
   -2.4094    1.9619   -1.8722 H   0  0  0  0  0  0  0  0  0  0  0  0
   -3.8268    3.9832   -1.7821 H   0  0  0  0  0  0  0  0  0  0  0  0
   -4.6354    4.8447    0.3993 H   0  0  0  0  0  0  0  0  0  0  0  0
   -4.0188    3.6785    2.4986 H   0  0  0  0  0  0  0  0  0  0  0  0
   -2.6014    1.6616    2.4318 H   0  0  0  0  0  0  0  0  0  0  0  0
   -3.9563   -1.0945   -1.2904 H   0  0  0  0  0  0  0  0  0  0  0  0
   -3.8697   -0.5134    0.3623 H   0  0  0  0  0  0  0  0  0  0  0  0
   -2.7384   -2.6576    1.0510 H   0  0  0  0  0  0  0  0  0  0  0  0
   -4.3276   -2.9287    0.3373 H   0  0  0  0  0  0  0  0  0  0  0  0
   -2.2628   -2.5740   -2.6090 H   0  0  0  0  0  0  0  0  0  0  0  0
   -1.0324   -3.6473   -1.9402 H   0  0  0  0  0  0  0  0  0  0  0  0
   -0.6193   -2.0430   -0.0778 H   0  0  0  0  0  0  0  0  0  0  0  0
   -0.2730   -1.3289   -1.6759 H   0  0  0  0  0  0  0  0  0  0  0  0
    4.1079    2.5178   -1.3769 H   0  0  0  0  0  0  0  0  0  0  0  0
  1  2  1  0
  2  3  1  0
  3  4  1  0
  4  5  2  0
  5  6  1  0
  6  7  1  0
  7  8  1  0
  8  9  1  0
  9 10  2  0
 10 11  1  0
 11 12  2  0
 12 13  1  0
 13 14  2  0
  8 15  1  0
 15 16  1  0
 16 17  1  0
 17 18  1  0
 18 19  1  0
 19 20  1  0
  5 21  1  0
 21 22  2  0
 22 23  1  0
 23  3  2  0
 14  9  1  0
 20 15  1  0
  1 24  1  0
  1 25  1  0
  1 26  1  0
  2 27  1  0
  2 28  1  0
  4 29  1  0
  6 30  1  0
  7 31  1  0
  7 32  1  0
  8 33  1  0
 10 34  1  0
 11 35  1  0
 12 36  1  0
 13 37  1  0
 14 38  1  0
 16 39  1  0
 16 40  1  0
 17 41  1  0
 17 42  1  0
 19 43  1  0
 19 44  1  0
 20 45  1  0
 20 46  1  0
 22 47  1  0
M  END
$$$$
OCNT-2314741
     RDKit          3D

 53 56  0  0  0  0  0  0  0  0999 V2000
   -2.8023    3.3819   -0.4859 C   0  0  0  0  0  0  0  0  0  0  0  0
   -3.2945    2.2473   -1.3815 C   0  0  0  0  0  0  0  0  0  0  0  0
   -2.1430    1.3478   -1.8562 C   0  0  0  0  0  0  0  0  0  0  0  0
   -1.6286    0.4720   -0.8025 N   0  0  0  0  0  0  0  0  0  0  0  0
   -0.3064    0.0452   -0.8996 C   0  0  0  0  0  0  0  0  0  0  0  0
    0.3678    0.3184   -1.8897 O   0  0  0  0  0  0  0  0  0  0  0  0
    0.1501   -0.6773    0.1775 N   0  0  0  0  0  0  0  0  0  0  0  0
    1.4128   -1.2349    0.2901 C   0  0  0  0  0  0  0  0  0  0  0  0
    2.4481   -1.2185   -0.6102 C   0  0  0  0  0  0  0  0  0  0  0  0
    3.4846   -1.8921   -0.0252 N   0  0  0  0  0  0  0  0  0  0  0  0
    4.7930   -2.1479   -0.6125 C   0  0  0  0  0  0  0  0  0  0  0  0
    5.7094   -0.9597   -0.4626 C   0  0  0  0  0  0  0  0  0  0  0  0
    5.9570   -0.1014   -1.5476 C   0  0  0  0  0  0  0  0  0  0  0  0
    6.7923    1.0056   -1.3956 C   0  0  0  0  0  0  0  0  0  0  0  0
    7.3876    1.2677   -0.1629 C   0  0  0  0  0  0  0  0  0  0  0  0
    7.1477    0.4233    0.9218 C   0  0  0  0  0  0  0  0  0  0  0  0
    6.3112   -0.6841    0.7747 C   0  0  0  0  0  0  0  0  0  0  0  0
    3.1760   -2.3869    1.1948 N   0  0  0  0  0  0  0  0  0  0  0  0
    1.9225   -1.9674    1.3872 C   0  0  0  0  0  0  0  0  0  0  0  0
   -2.5913    0.0850    0.2360 C   0  0  0  0  0  0  0  0  0  0  0  0
   -4.0628    0.2495   -0.2157 C   0  0  0  0  0  0  0  0  0  0  0  0
   -4.4709   -0.8124   -1.2380 C   0  0  0  0  0  0  0  0  0  0  0  0
   -4.8090   -2.0218   -0.3832 C   0  0  0  0  0  0  0  0  0  0  0  0
   -5.1185   -1.5426    0.9350 O   0  0  0  0  0  0  0  0  0  0  0  0
   -5.0684   -0.1063    0.8960 C   0  0  0  0  0  0  0  0  0  0  0  0
   -4.7670    0.4307    2.2864 C   0  0  0  0  0  0  0  0  0  0  0  0
   -4.3555    1.5657   -0.7001 O   0  0  0  0  0  0  0  0  0  0  0  0
   -2.3815    3.0069    0.4531 H   0  0  0  0  0  0  0  0  0  0  0  0
   -2.0407    3.9852   -0.9917 H   0  0  0  0  0  0  0  0  0  0  0  0
   -3.6356    4.0381   -0.2129 H   0  0  0  0  0  0  0  0  0  0  0  0
   -3.7475    2.7111   -2.2662 H   0  0  0  0  0  0  0  0  0  0  0  0
   -2.4953    0.6915   -2.6624 H   0  0  0  0  0  0  0  0  0  0  0  0
   -1.3343    1.9585   -2.2765 H   0  0  0  0  0  0  0  0  0  0  0  0
   -0.4340   -0.7621    0.9927 H   0  0  0  0  0  0  0  0  0  0  0  0
    2.5478   -0.7793   -1.5938 H   0  0  0  0  0  0  0  0  0  0  0  0
    5.2215   -3.0349   -0.1265 H   0  0  0  0  0  0  0  0  0  0  0  0
    4.6335   -2.4028   -1.6689 H   0  0  0  0  0  0  0  0  0  0  0  0
    5.4956   -0.2845   -2.5161 H   0  0  0  0  0  0  0  0  0  0  0  0
    6.9731    1.6706   -2.2376 H   0  0  0  0  0  0  0  0  0  0  0  0
    8.0346    2.1338   -0.0469 H   0  0  0  0  0  0  0  0  0  0  0  0
    7.6058    0.6307    1.8857 H   0  0  0  0  0  0  0  0  0  0  0  0
    6.1192   -1.3283    1.6338 H   0  0  0  0  0  0  0  0  0  0  0  0
    1.4306   -2.2188    2.3172 H   0  0  0  0  0  0  0  0  0  0  0  0
   -2.3730    0.7484    1.0805 H   0  0  0  0  0  0  0  0  0  0  0  0
   -2.3941   -0.9430    0.5597 H   0  0  0  0  0  0  0  0  0  0  0  0
   -3.7113   -1.0536   -1.9871 H   0  0  0  0  0  0  0  0  0  0  0  0
   -5.3594   -0.4834   -1.7922 H   0  0  0  0  0  0  0  0  0  0  0  0
   -5.6654   -2.5790   -0.7779 H   0  0  0  0  0  0  0  0  0  0  0  0
   -3.9594   -2.7079   -0.2995 H   0  0  0  0  0  0  0  0  0  0  0  0
   -6.0696    0.2491    0.6143 H   0  0  0  0  0  0  0  0  0  0  0  0
   -3.8701   -0.0305    2.7117 H   0  0  0  0  0  0  0  0  0  0  0  0
   -4.6475    1.5176    2.2778 H   0  0  0  0  0  0  0  0  0  0  0  0
   -5.5851    0.1797    2.9696 H   0  0  0  0  0  0  0  0  0  0  0  0
  1  2  1  0
  2  3  1  0
  3  4  1  0
  4  5  1  0
  5  6  2  0
  5  7  1  0
  7  8  1  0
  8  9  2  0
  9 10  1  0
 10 11  1  0
 11 12  1  0
 12 13  2  0
 13 14  1  0
 14 15  2  0
 15 16  1  0
 16 17  2  0
 10 18  1  0
 18 19  2  0
  4 20  1  0
 20 21  1  0
 21 22  1  0
 22 23  1  0
 23 24  1  0
 24 25  1  0
 25 26  1  0
 21 27  1  0
 27  2  1  0
 19  8  1  0
 25 21  1  0
 17 12  1  0
  1 28  1  0
  1 29  1  0
  1 30  1  0
  2 31  1  0
  3 32  1  0
  3 33  1  0
  7 34  1  0
  9 35  1  0
 11 36  1  0
 11 37  1  0
 13 38  1  0
 14 39  1  0
 15 40  1  0
 16 41  1  0
 17 42  1  0
 19 43  1  0
 20 44  1  0
 20 45  1  0
 22 46  1  0
 22 47  1  0
 23 48  1  0
 23 49  1  0
 25 50  1  0
 26 51  1  0
 26 52  1  0
 26 53  1  0
M  END
$$$$
OCNT-2314750
     RDKit          3D

 45 46  0  0  0  0  0  0  0  0999 V2000
    3.2766    1.7752   -0.2346 C   0  0  0  0  0  0  0  0  0  0  0  0
    3.5742    0.3528   -0.4014 N   0  0  0  0  0  0  0  0  0  0  0  0
    4.8060   -0.0395    0.3427 C   0  0  0  0  0  0  0  0  0  0  0  0
    6.1235    0.7077    0.0428 C   0  0  0  0  0  0  0  0  0  0  0  0
    6.0844    1.9858    0.4840 F   0  0  0  0  0  0  0  0  0  0  0  0
    6.4103    0.7271   -1.2763 F   0  0  0  0  0  0  0  0  0  0  0  0
    7.1574    0.1010    0.6747 F   0  0  0  0  0  0  0  0  0  0  0  0
    2.4368   -0.5505   -0.1117 C   0  0  0  0  0  0  0  0  0  0  0  0
    1.8453   -0.4350    1.3048 C   0  0  0  0  0  0  0  0  0  0  0  0
    0.5401   -1.2170    1.3995 C   0  0  0  0  0  0  0  0  0  0  0  0
   -0.4698   -0.7404    0.4548 N   0  0  0  0  0  0  0  0  0  0  0  0
   -1.7864   -1.1555    0.6673 C   0  0  0  0  0  0  0  0  0  0  0  0
   -2.0447   -1.9269    1.5993 O   0  0  0  0  0  0  0  0  0  0  0  0
   -2.9173   -0.6010   -0.2293 C   0  0  0  0  0  0  0  0  0  0  0  0
   -2.6425   -0.7999   -1.5610 F   0  0  0  0  0  0  0  0  0  0  0  0
   -4.2419   -1.3217    0.0448 C   0  0  0  0  0  0  0  0  0  0  0  0
   -5.3871   -0.7453   -0.7970 C   0  0  0  0  0  0  0  0  0  0  0  0
   -5.1447    0.6940   -1.2557 C   0  0  0  0  0  0  0  0  0  0  0  0
   -4.4514    1.4557   -0.2231 N   0  0  0  0  0  0  0  0  0  0  0  0
   -3.0947    0.9185    0.0181 C   0  0  0  0  0  0  0  0  0  0  0  0
    0.0099    0.0520   -0.6795 C   0  0  0  0  0  0  0  0  0  0  0  0
    1.3474   -0.4598   -1.2053 C   0  0  0  0  0  0  0  0  0  0  0  0
    4.0484    2.3853   -0.7152 H   0  0  0  0  0  0  0  0  0  0  0  0
    3.2149    2.0689    0.8185 H   0  0  0  0  0  0  0  0  0  0  0  0
    2.3378    2.0526   -0.7239 H   0  0  0  0  0  0  0  0  0  0  0  0
    5.0028   -1.0973    0.1283 H   0  0  0  0  0  0  0  0  0  0  0  0
    4.6265    0.0363    1.4220 H   0  0  0  0  0  0  0  0  0  0  0  0
    2.8293   -1.5739   -0.2054 H   0  0  0  0  0  0  0  0  0  0  0  0
    1.6448    0.6100    1.5678 H   0  0  0  0  0  0  0  0  0  0  0  0
    2.5541   -0.8211    2.0460 H   0  0  0  0  0  0  0  0  0  0  0  0
    0.7124   -2.2797    1.1893 H   0  0  0  0  0  0  0  0  0  0  0  0
    0.1412   -1.1447    2.4180 H   0  0  0  0  0  0  0  0  0  0  0  0
   -4.5038   -1.2337    1.1076 H   0  0  0  0  0  0  0  0  0  0  0  0
   -4.1482   -2.3938   -0.1662 H   0  0  0  0  0  0  0  0  0  0  0  0
   -6.3133   -0.8020   -0.2117 H   0  0  0  0  0  0  0  0  0  0  0  0
   -5.5425   -1.3726   -1.6831 H   0  0  0  0  0  0  0  0  0  0  0  0
   -4.5713    0.7117   -2.1906 H   0  0  0  0  0  0  0  0  0  0  0  0
   -6.1089    1.1663   -1.4741 H   0  0  0  0  0  0  0  0  0  0  0  0
   -4.3872    2.4369   -0.4939 H   0  0  0  0  0  0  0  0  0  0  0  0
   -2.4071    1.4654   -0.6366 H   0  0  0  0  0  0  0  0  0  0  0  0
   -2.8265    1.1747    1.0496 H   0  0  0  0  0  0  0  0  0  0  0  0
   -0.7076    0.0545   -1.4982 H   0  0  0  0  0  0  0  0  0  0  0  0
    0.1054    1.0865   -0.3305 H   0  0  0  0  0  0  0  0  0  0  0  0
    1.6726    0.1576   -2.0515 H   0  0  0  0  0  0  0  0  0  0  0  0
    1.1945   -1.4654   -1.6216 H   0  0  0  0  0  0  0  0  0  0  0  0
  1  2  1  0
  2  3  1  0
  3  4  1  0
  4  5  1  0
  4  6  1  0
  4  7  1  0
  2  8  1  0
  8  9  1  0
  9 10  1  0
 10 11  1  0
 11 12  1  0
 12 13  2  0
 12 14  1  0
 14 15  1  0
 14 16  1  0
 16 17  1  0
 17 18  1  0
 18 19  1  0
 19 20  1  0
 11 21  1  0
 21 22  1  0
 22  8  1  0
 20 14  1  0
  1 23  1  0
  1 24  1  0
  1 25  1  0
  3 26  1  0
  3 27  1  0
  8 28  1  0
  9 29  1  0
  9 30  1  0
 10 31  1  0
 10 32  1  0
 16 33  1  0
 16 34  1  0
 17 35  1  0
 17 36  1  0
 18 37  1  0
 18 38  1  0
 19 39  1  0
 20 40  1  0
 20 41  1  0
 21 42  1  0
 21 43  1  0
 22 44  1  0
 22 45  1  0
M  END
$$$$
OCNT-2314757
     RDKit          3D

 42 45  0  0  0  0  0  0  0  0999 V2000
   -4.1251    2.9496    1.4963 C   0  0  0  0  0  0  0  0  0  0  0  0
   -3.2900    1.8950    1.0340 O   0  0  0  0  0  0  0  0  0  0  0  0
   -3.8669    0.9691    0.2153 C   0  0  0  0  0  0  0  0  0  0  0  0
   -5.2046    0.9356   -0.1886 C   0  0  0  0  0  0  0  0  0  0  0  0
   -5.6760   -0.0824   -1.0400 C   0  0  0  0  0  0  0  0  0  0  0  0
   -4.8211   -1.0838   -1.5026 C   0  0  0  0  0  0  0  0  0  0  0  0
   -3.4993   -1.0470   -1.0988 C   0  0  0  0  0  0  0  0  0  0  0  0
   -3.0313   -0.0337   -0.2521 C   0  0  0  0  0  0  0  0  0  0  0  0
   -1.5760   -0.2297    0.0261 C   0  0  0  0  0  0  0  0  0  0  0  0
   -1.2456   -1.4598   -0.7053 N   0  0  0  0  0  0  0  0  0  0  0  0
    0.0144   -1.9656   -0.9469 C   0  0  0  0  0  0  0  0  0  0  0  0
    0.2354   -2.8623   -1.7565 O   0  0  0  0  0  0  0  0  0  0  0  0
    1.1583   -1.3969   -0.2164 C   0  0  0  0  0  0  0  0  0  0  0  0
    1.2176   -1.3558    1.1707 C   0  0  0  0  0  0  0  0  0  0  0  0
    2.3515   -0.8147    1.7784 C   0  0  0  0  0  0  0  0  0  0  0  0
    3.4116   -0.3439    0.9947 C   0  0  0  0  0  0  0  0  0  0  0  0
    4.5148    0.2247    1.6817 N   0  0  0  0  0  0  0  0  0  0  0  0
    5.6694    0.8660    1.0388 C   0  0  0  0  0  0  0  0  0  0  0  0
    6.3633    0.3287   -0.1769 C   0  0  0  0  0  0  0  0  0  0  0  0
    5.6280    1.6425   -0.2423 C   0  0  0  0  0  0  0  0  0  0  0  0
    3.3528   -0.3968   -0.3510 N   0  0  0  0  0  0  0  0  0  0  0  0
    2.2493   -0.9341   -0.9292 C   0  0  0  0  0  0  0  0  0  0  0  0
   -2.3877   -1.9806   -1.4527 C   0  0  0  0  0  0  0  0  0  0  0  0
   -4.5092    3.5446    0.6612 H   0  0  0  0  0  0  0  0  0  0  0  0
   -4.9411    2.5633    2.1159 H   0  0  0  0  0  0  0  0  0  0  0  0
   -3.5154    3.6086    2.1220 H   0  0  0  0  0  0  0  0  0  0  0  0
   -5.9164    1.6868    0.1388 H   0  0  0  0  0  0  0  0  0  0  0  0
   -6.7213   -0.0862   -1.3415 H   0  0  0  0  0  0  0  0  0  0  0  0
   -5.1874   -1.8652   -2.1611 H   0  0  0  0  0  0  0  0  0  0  0  0
   -0.9699    0.5959   -0.3587 H   0  0  0  0  0  0  0  0  0  0  0  0
   -1.4004   -0.3841    1.0934 H   0  0  0  0  0  0  0  0  0  0  0  0
    0.4077   -1.7471    1.7782 H   0  0  0  0  0  0  0  0  0  0  0  0
    2.4033   -0.7555    2.8612 H   0  0  0  0  0  0  0  0  0  0  0  0
    4.7723   -0.4103    2.4333 H   0  0  0  0  0  0  0  0  0  0  0  0
    6.3206    1.2876    1.8038 H   0  0  0  0  0  0  0  0  0  0  0  0
    5.9323   -0.5171   -0.6983 H   0  0  0  0  0  0  0  0  0  0  0  0
    7.4460    0.3526   -0.1962 H   0  0  0  0  0  0  0  0  0  0  0  0
    6.2154    2.5508   -0.3021 H   0  0  0  0  0  0  0  0  0  0  0  0
    4.7042    1.6849   -0.8048 H   0  0  0  0  0  0  0  0  0  0  0  0
    2.2720   -0.9733   -2.0150 H   0  0  0  0  0  0  0  0  0  0  0  0
   -2.1670   -1.9558   -2.5246 H   0  0  0  0  0  0  0  0  0  0  0  0
   -2.5884   -3.0049   -1.1243 H   0  0  0  0  0  0  0  0  0  0  0  0
  1  2  1  0
  2  3  1  0
  3  4  1  0
  4  5  2  0
  5  6  1  0
  6  7  2  0
  7  8  1  0
  8  9  1  0
  9 10  1  0
 10 11  1  0
 11 12  2  0
 11 13  1  0
 13 14  2  0
 14 15  1  0
 15 16  2  0
 16 17  1  0
 17 18  1  0
 18 19  1  0
 19 20  1  0
 16 21  1  0
 21 22  2  0
 10 23  1  0
  8  3  2  0
 22 13  1  0
 23  7  1  0
 20 18  1  0
  1 24  1  0
  1 25  1  0
  1 26  1  0
  4 27  1  0
  5 28  1  0
  6 29  1  0
  9 30  1  0
  9 31  1  0
 14 32  1  0
 15 33  1  0
 17 34  1  0
 18 35  1  0
 19 36  1  0
 19 37  1  0
 20 38  1  0
 20 39  1  0
 22 40  1  0
 23 41  1  0
 23 42  1  0
M  END
$$$$
OCNT-2314768
     RDKit          3D

 50 53  0  0  0  0  0  0  0  0999 V2000
    9.0533    1.6377   -1.4000 C   0  0  0  0  0  0  0  0  0  0  0  0
    8.2288    0.9644   -0.3435 C   0  0  0  0  0  0  0  0  0  0  0  0
    8.7760    0.7003    0.9073 C   0  0  0  0  0  0  0  0  0  0  0  0
    7.9867    0.0695    1.8624 C   0  0  0  0  0  0  0  0  0  0  0  0
    6.6785   -0.2855    1.5405 C   0  0  0  0  0  0  0  0  0  0  0  0
    6.1945    0.0079    0.2679 C   0  0  0  0  0  0  0  0  0  0  0  0
    4.8159   -0.3576   -0.1007 C   0  0  0  0  0  0  0  0  0  0  0  0
    4.2945   -0.2429   -1.3392 N   0  0  0  0  0  0  0  0  0  0  0  0
    3.0467   -0.6971   -1.1631 N   0  0  0  0  0  0  0  0  0  0  0  0
    2.8316   -1.0774    0.1320 C   0  0  0  0  0  0  0  0  0  0  0  0
    1.6598   -1.5868    0.6261 N   0  0  0  0  0  0  0  0  0  0  0  0
    0.5641   -1.8001   -0.1839 C   0  0  0  0  0  0  0  0  0  0  0  0
    0.5501   -1.5786   -1.3972 O   0  0  0  0  0  0  0  0  0  0  0  0
   -0.6458   -2.3394    0.5594 C   0  0  0  0  0  0  0  0  0  0  0  0
   -1.7653   -1.3330    0.6321 C   0  0  0  0  0  0  0  0  0  0  0  0
   -1.8260   -0.4022    1.6800 C   0  0  0  0  0  0  0  0  0  0  0  0
   -2.8603    0.5344    1.7286 C   0  0  0  0  0  0  0  0  0  0  0  0
   -3.8366    0.5603    0.7275 C   0  0  0  0  0  0  0  0  0  0  0  0
   -3.7746   -0.3457   -0.3332 C   0  0  0  0  0  0  0  0  0  0  0  0
   -4.6780   -0.4342   -1.3567 O   0  0  0  0  0  0  0  0  0  0  0  0
   -5.3636    0.7667   -1.7289 C   0  0  0  0  0  0  0  0  0  0  0  0
   -6.7163    0.9095   -1.0824 C   0  0  0  0  0  0  0  0  0  0  0  0
   -7.4143   -0.1652   -0.5235 C   0  0  0  0  0  0  0  0  0  0  0  0
   -8.6733    0.0418    0.0332 C   0  0  0  0  0  0  0  0  0  0  0  0
   -9.2026    1.3216    0.0032 C   0  0  0  0  0  0  0  0  0  0  0  0
   -8.5675    2.3832   -0.5375 N   0  0  0  0  0  0  0  0  0  0  0  0
   -7.3469    2.1515   -1.0709 C   0  0  0  0  0  0  0  0  0  0  0  0
   -2.7475   -1.2937   -0.3704 C   0  0  0  0  0  0  0  0  0  0  0  0
    3.9221   -0.8779    0.8293 N   0  0  0  0  0  0  0  0  0  0  0  0
    6.9589    0.6270   -0.6712 N   0  0  0  0  0  0  0  0  0  0  0  0
    9.8730    0.9796   -1.7143 H   0  0  0  0  0  0  0  0  0  0  0  0
    8.4416    1.8713   -2.2799 H   0  0  0  0  0  0  0  0  0  0  0  0
    9.4701    2.5779   -1.0157 H   0  0  0  0  0  0  0  0  0  0  0  0
    9.7989    0.9836    1.1378 H   0  0  0  0  0  0  0  0  0  0  0  0
    8.3867   -0.1460    2.8486 H   0  0  0  0  0  0  0  0  0  0  0  0
    6.0492   -0.7803    2.2736 H   0  0  0  0  0  0  0  0  0  0  0  0
    2.3918   -0.7406   -1.9390 H   0  0  0  0  0  0  0  0  0  0  0  0
    1.6565   -1.8056    1.6143 H   0  0  0  0  0  0  0  0  0  0  0  0
   -0.3684   -2.6571    1.5730 H   0  0  0  0  0  0  0  0  0  0  0  0
   -0.9789   -3.2516    0.0466 H   0  0  0  0  0  0  0  0  0  0  0  0
   -1.0762   -0.4015    2.4710 H   0  0  0  0  0  0  0  0  0  0  0  0
   -2.9114    1.2452    2.5540 H   0  0  0  0  0  0  0  0  0  0  0  0
   -4.6405    1.2853    0.8140 H   0  0  0  0  0  0  0  0  0  0  0  0
   -4.7375    1.6538   -1.5564 H   0  0  0  0  0  0  0  0  0  0  0  0
   -5.5216    0.7051   -2.8133 H   0  0  0  0  0  0  0  0  0  0  0  0
   -6.9822   -1.1642   -0.5160 H   0  0  0  0  0  0  0  0  0  0  0  0
   -9.2273   -0.7784    0.4770 H   0  0  0  0  0  0  0  0  0  0  0  0
  -10.1813    1.5330    0.4226 H   0  0  0  0  0  0  0  0  0  0  0  0
   -6.8752    3.0299   -1.5069 H   0  0  0  0  0  0  0  0  0  0  0  0
   -2.7099   -1.9978   -1.2032 H   0  0  0  0  0  0  0  0  0  0  0  0
  1  2  1  0
  2  3  2  0
  3  4  1  0
  4  5  2  0
  5  6  1  0
  6  7  1  0
  7  8  2  0
  8  9  1  0
  9 10  1  0
 10 11  1  0
 11 12  1  0
 12 13  2  0
 12 14  1  0
 14 15  1  0
 15 16  2  0
 16 17  1  0
 17 18  2  0
 18 19  1  0
 19 20  1  0
 20 21  1  0
 21 22  1  0
 22 23  1  0
 23 24  2  0
 24 25  1  0
 25 26  2  0
 26 27  1  0
 19 28  2  0
 10 29  2  0
  6 30  2  0
 30  2  1  0
 29  7  1  0
 28 15  1  0
 27 22  2  0
  1 31  1  0
  1 32  1  0
  1 33  1  0
  3 34  1  0
  4 35  1  0
  5 36  1  0
  9 37  1  0
 11 38  1  0
 14 39  1  0
 14 40  1  0
 16 41  1  0
 17 42  1  0
 18 43  1  0
 21 44  1  0
 21 45  1  0
 23 46  1  0
 24 47  1  0
 25 48  1  0
 27 49  1  0
 28 50  1  0
M  END
$$$$
