OCNT-2318347
     RDKit          3D

 51 54  0  0  0  0  0  0  0  0999 V2000
    1.0828    1.9247   -0.0247 O   0  0  0  0  0  0  0  0  0  0  0  0
    1.1550    1.3339   -1.0998 C   0  0  0  0  0  0  0  0  0  0  0  0
    2.4638    0.8907   -1.7328 C   0  0  0  0  0  0  0  0  0  0  0  0
    3.3987    0.2285   -0.7792 C   0  0  0  0  0  0  0  0  0  0  0  0
    3.1568   -0.4096    0.4221 C   0  0  0  0  0  0  0  0  0  0  0  0
    4.3793   -0.8262    0.8833 N   0  0  0  0  0  0  0  0  0  0  0  0
    4.6921   -1.4899    2.0652 C   0  0  0  0  0  0  0  0  0  0  0  0
    5.9731   -1.8035    2.3134 C   0  0  0  0  0  0  0  0  0  0  0  0
    6.4376   -2.6201    3.7525 Cl  0  0  0  0  0  0  0  0  0  0  0  0
    6.9946   -1.4474    1.3432 C   0  0  0  0  0  0  0  0  0  0  0  0
    6.6773   -0.8058    0.2005 C   0  0  0  0  0  0  0  0  0  0  0  0
    7.8936   -0.3840   -0.9454 Cl  0  0  0  0  0  0  0  0  0  0  0  0
    5.3197   -0.4604   -0.0752 C   0  0  0  0  0  0  0  0  0  0  0  0
    4.7420    0.1610   -1.0861 N   0  0  0  0  0  0  0  0  0  0  0  0
    0.0329    1.0151   -1.8443 N   0  0  0  0  0  0  0  0  0  0  0  0
   -1.2996    1.4350   -1.4226 C   0  0  0  0  0  0  0  0  0  0  0  0
   -1.8378    0.7362   -0.1285 C   0  0  0  0  0  0  0  0  0  0  0  0
   -2.9224    1.6556    0.4425 C   0  0  0  0  0  0  0  0  0  0  0  0
   -2.6225    2.4981    1.5242 C   0  0  0  0  0  0  0  0  0  0  0  0
   -3.5910    3.3573    2.0428 C   0  0  0  0  0  0  0  0  0  0  0  0
   -4.8668    3.3886    1.4850 C   0  0  0  0  0  0  0  0  0  0  0  0
   -5.1766    2.5636    0.4059 C   0  0  0  0  0  0  0  0  0  0  0  0
   -4.2101    1.7040   -0.1157 C   0  0  0  0  0  0  0  0  0  0  0  0
   -2.3568   -0.6561   -0.3140 N   0  0  0  0  0  0  0  0  0  0  0  0
   -1.4126   -1.5360   -1.0321 C   0  0  0  0  0  0  0  0  0  0  0  0
   -1.9260   -2.9851   -1.1151 C   0  0  0  0  0  0  0  0  0  0  0  0
   -2.1651   -3.5314    0.1871 O   0  0  0  0  0  0  0  0  0  0  0  0
   -3.1317   -2.7283    0.8743 C   0  0  0  0  0  0  0  0  0  0  0  0
   -2.6448   -1.2764    1.0097 C   0  0  0  0  0  0  0  0  0  0  0  0
    2.2653    0.1946   -2.5572 H   0  0  0  0  0  0  0  0  0  0  0  0
    2.9362    1.7829   -2.1629 H   0  0  0  0  0  0  0  0  0  0  0  0
    2.2468   -0.5700    0.9853 H   0  0  0  0  0  0  0  0  0  0  0  0
    3.8766   -1.7203    2.7381 H   0  0  0  0  0  0  0  0  0  0  0  0
    8.0245   -1.7113    1.5651 H   0  0  0  0  0  0  0  0  0  0  0  0
    0.1508    0.7330   -2.8088 H   0  0  0  0  0  0  0  0  0  0  0  0
   -1.9800    1.2563   -2.2650 H   0  0  0  0  0  0  0  0  0  0  0  0
   -1.2468    2.5231   -1.2793 H   0  0  0  0  0  0  0  0  0  0  0  0
   -1.0176    0.6856    0.5997 H   0  0  0  0  0  0  0  0  0  0  0  0
   -1.6273    2.4934    1.9641 H   0  0  0  0  0  0  0  0  0  0  0  0
   -3.3477    4.0052    2.8806 H   0  0  0  0  0  0  0  0  0  0  0  0
   -5.6198    4.0581    1.8903 H   0  0  0  0  0  0  0  0  0  0  0  0
   -6.1715    2.5886   -0.0290 H   0  0  0  0  0  0  0  0  0  0  0  0
   -4.4656    1.0608   -0.9548 H   0  0  0  0  0  0  0  0  0  0  0  0
   -1.2770   -1.1893   -2.0618 H   0  0  0  0  0  0  0  0  0  0  0  0
   -0.4381   -1.5343   -0.5254 H   0  0  0  0  0  0  0  0  0  0  0  0
   -2.8472   -3.0455   -1.7093 H   0  0  0  0  0  0  0  0  0  0  0  0
   -1.1749   -3.6134   -1.6040 H   0  0  0  0  0  0  0  0  0  0  0  0
   -3.2760   -3.1657    1.8688 H   0  0  0  0  0  0  0  0  0  0  0  0
   -4.0925   -2.7792    0.3449 H   0  0  0  0  0  0  0  0  0  0  0  0
   -3.4192   -0.7153    1.5430 H   0  0  0  0  0  0  0  0  0  0  0  0
   -1.7346   -1.2695    1.6264 H   0  0  0  0  0  0  0  0  0  0  0  0
  1  2  2  0
  2  3  1  0
  3  4  1  0
  4  5  2  0
  5  6  1  0
  6  7  1  0
  7  8  2  0
  8  9  1  0
  8 10  1  0
 10 11  2  0
 11 12  1  0
 11 13  1  0
 13 14  2  0
  2 15  1  0
 15 16  1  0
 16 17  1  0
 17 18  1  0
 18 19  2  0
 19 20  1  0
 20 21  2  0
 21 22  1  0
 22 23  2  0
 17 24  1  0
 24 25  1  0
 25 26  1  0
 26 27  1  0
 27 28  1  0
 28 29  1  0
 14  4  1  0
 23 18  1  0
 29 24  1  0
 13  6  1  0
  3 30  1  0
  3 31  1  0
  5 32  1  0
  7 33  1  0
 10 34  1  0
 15 35  1  0
 16 36  1  0
 16 37  1  0
 17 38  1  0
 19 39  1  0
 20 40  1  0
 21 41  1  0
 22 42  1  0
 23 43  1  0
 25 44  1  0
 25 45  1  0
 26 46  1  0
 26 47  1  0
 28 48  1  0
 28 49  1  0
 29 50  1  0
 29 51  1  0
M  END
$$$$
OCNT-2318348
     RDKit          3D

 39 41  0  0  0  0  0  0  0  0999 V2000
   -4.1990    1.2019    3.3934 C   0  0  0  0  0  0  0  0  0  0  0  0
   -3.6743    0.0597    2.7290 O   0  0  0  0  0  0  0  0  0  0  0  0
   -2.6497    0.4119    1.7978 C   0  0  0  0  0  0  0  0  0  0  0  0
   -2.0688   -0.8562    1.1432 C   0  0  0  0  0  0  0  0  0  0  0  0
   -3.1229   -1.6708    0.3527 C   0  0  0  0  0  0  0  0  0  0  0  0
   -3.5748   -1.0340   -0.8987 N   0  0  0  0  0  0  0  0  0  0  0  0
   -2.4077   -0.7670   -1.7506 C   0  0  0  0  0  0  0  0  0  0  0  0
   -1.3201    0.0770   -1.0618 C   0  0  0  0  0  0  0  0  0  0  0  0
   -0.8953   -0.4732    0.2670 N   0  0  0  0  0  0  0  0  0  0  0  0
    0.3468   -1.6462    0.2117 S   0  0  0  0  0  0  0  0  0  0  0  0
    0.0143   -2.6064   -0.8157 O   0  0  0  0  0  0  0  0  0  0  0  0
    0.6529   -2.0403    1.5691 O   0  0  0  0  0  0  0  0  0  0  0  0
    1.8156   -0.8007   -0.3320 C   0  0  0  0  0  0  0  0  0  0  0  0
    2.2085    0.5174   -0.2262 C   0  0  0  0  0  0  0  0  0  0  0  0
    3.4969    0.7681   -0.8028 C   0  0  0  0  0  0  0  0  0  0  0  0
    4.2408    1.9682   -0.9069 C   0  0  0  0  0  0  0  0  0  0  0  0
    5.4953    1.9615   -1.5216 C   0  0  0  0  0  0  0  0  0  0  0  0
    6.3857    3.4297   -1.6436 Cl  0  0  0  0  0  0  0  0  0  0  0  0
    6.0304    0.7883   -2.0338 C   0  0  0  0  0  0  0  0  0  0  0  0
    5.3182   -0.4104   -1.9411 C   0  0  0  0  0  0  0  0  0  0  0  0
    4.0525   -0.4043   -1.3225 C   0  0  0  0  0  0  0  0  0  0  0  0
    3.0060   -1.7519   -1.0917 S   0  0  0  0  0  0  0  0  0  0  0  0
   -3.4140    1.7070    3.9644 H   0  0  0  0  0  0  0  0  0  0  0  0
   -4.6449    1.8929    2.6717 H   0  0  0  0  0  0  0  0  0  0  0  0
   -4.9767    0.8700    4.0864 H   0  0  0  0  0  0  0  0  0  0  0  0
   -1.8501    0.9446    2.3277 H   0  0  0  0  0  0  0  0  0  0  0  0
   -3.0659    1.0915    1.0457 H   0  0  0  0  0  0  0  0  0  0  0  0
   -1.7257   -1.4941    1.9667 H   0  0  0  0  0  0  0  0  0  0  0  0
   -4.0008   -1.8603    0.9804 H   0  0  0  0  0  0  0  0  0  0  0  0
   -2.7104   -2.6579    0.1088 H   0  0  0  0  0  0  0  0  0  0  0  0
   -4.0458   -0.1590   -0.6734 H   0  0  0  0  0  0  0  0  0  0  0  0
   -1.9943   -1.7195   -2.0988 H   0  0  0  0  0  0  0  0  0  0  0  0
   -2.7485   -0.2398   -2.6490 H   0  0  0  0  0  0  0  0  0  0  0  0
   -0.4571    0.1806   -1.7277 H   0  0  0  0  0  0  0  0  0  0  0  0
   -1.6911    1.0958   -0.8960 H   0  0  0  0  0  0  0  0  0  0  0  0
    1.5944    1.2722    0.2503 H   0  0  0  0  0  0  0  0  0  0  0  0
    3.8346    2.8937   -0.5073 H   0  0  0  0  0  0  0  0  0  0  0  0
    7.0083    0.7916   -2.5095 H   0  0  0  0  0  0  0  0  0  0  0  0
    5.7367   -1.3315   -2.3385 H   0  0  0  0  0  0  0  0  0  0  0  0
  1  2  1  0
  2  3  1  0
  3  4  1  0
  4  5  1  0
  5  6  1  0
  6  7  1  0
  7  8  1  0
  8  9  1  0
  9 10  1  0
 10 11  2  0
 10 12  2  0
 10 13  1  0
 13 14  2  0
 14 15  1  0
 15 16  2  0
 16 17  1  0
 17 18  1  0
 17 19  2  0
 19 20  1  0
 20 21  2  0
 21 22  1  0
  9  4  1  0
 22 13  1  0
 21 15  1  0
  1 23  1  0
  1 24  1  0
  1 25  1  0
  3 26  1  0
  3 27  1  0
  4 28  1  0
  5 29  1  0
  5 30  1  0
  6 31  1  0
  7 32  1  0
  7 33  1  0
  8 34  1  0
  8 35  1  0
 14 36  1  0
 16 37  1  0
 19 38  1  0
 20 39  1  0
M  END
$$$$
OCNT-2318351
     RDKit          3D

 47 50  0  0  0  0  0  0  0  0999 V2000
   -5.9523    1.8544   -0.8229 O   0  0  0  0  0  0  0  0  0  0  0  0
   -5.9036    0.6400   -0.7179 C   0  0  0  0  0  0  0  0  0  0  0  0
   -6.4057   -0.3446   -1.7465 C   0  0  0  0  0  0  0  0  0  0  0  0
   -6.3955   -1.6694   -0.9927 C   0  0  0  0  0  0  0  0  0  0  0  0
   -5.2832   -1.4928    0.0213 C   0  0  0  0  0  0  0  0  0  0  0  0
   -5.3424   -0.0855    0.3233 N   0  0  0  0  0  0  0  0  0  0  0  0
   -4.5414    0.5203    1.3703 C   0  0  0  0  0  0  0  0  0  0  0  0
   -3.0633    0.4653    1.0738 C   0  0  0  0  0  0  0  0  0  0  0  0
   -2.2329   -0.4517    1.7242 C   0  0  0  0  0  0  0  0  0  0  0  0
   -0.8666   -0.5050    1.4255 C   0  0  0  0  0  0  0  0  0  0  0  0
   -0.2879    0.3491    0.4727 C   0  0  0  0  0  0  0  0  0  0  0  0
    1.0818    0.2340    0.2189 N   0  0  0  0  0  0  0  0  0  0  0  0
    1.9690    0.8773   -0.6383 C   0  0  0  0  0  0  0  0  0  0  0  0
    1.5732    1.8278   -1.4985 N   0  0  0  0  0  0  0  0  0  0  0  0
    2.5085    2.3860   -2.2879 C   0  0  0  0  0  0  0  0  0  0  0  0
    3.8307    2.0361   -2.2516 C   0  0  0  0  0  0  0  0  0  0  0  0
    4.1438    1.0637   -1.3362 C   0  0  0  0  0  0  0  0  0  0  0  0
    5.4809    0.6750   -1.2974 O   0  0  0  0  0  0  0  0  0  0  0  0
    5.8708   -0.1012   -0.2333 C   0  0  0  0  0  0  0  0  0  0  0  0
    5.9136    0.4153    1.0633 C   0  0  0  0  0  0  0  0  0  0  0  0
    6.3691   -0.3859    2.1107 C   0  0  0  0  0  0  0  0  0  0  0  0
    6.7966   -1.6903    1.8566 C   0  0  0  0  0  0  0  0  0  0  0  0
    6.7738   -2.1945    0.5551 C   0  0  0  0  0  0  0  0  0  0  0  0
    6.3170   -1.3965   -0.4941 C   0  0  0  0  0  0  0  0  0  0  0  0
    3.2405    0.4688   -0.5345 N   0  0  0  0  0  0  0  0  0  0  0  0
   -1.1297    1.2566   -0.1748 C   0  0  0  0  0  0  0  0  0  0  0  0
   -2.4978    1.3172    0.1191 C   0  0  0  0  0  0  0  0  0  0  0  0
   -5.7096   -0.3586   -2.5905 H   0  0  0  0  0  0  0  0  0  0  0  0
   -7.4100   -0.0800   -2.0860 H   0  0  0  0  0  0  0  0  0  0  0  0
   -6.2432   -2.5320   -1.6472 H   0  0  0  0  0  0  0  0  0  0  0  0
   -7.3541   -1.8023   -0.4754 H   0  0  0  0  0  0  0  0  0  0  0  0
   -4.3071   -1.7256   -0.4172 H   0  0  0  0  0  0  0  0  0  0  0  0
   -5.4421   -2.0889    0.9240 H   0  0  0  0  0  0  0  0  0  0  0  0
   -4.7702    0.0005    2.3078 H   0  0  0  0  0  0  0  0  0  0  0  0
   -4.8438    1.5659    1.5030 H   0  0  0  0  0  0  0  0  0  0  0  0
   -2.6389   -1.1340    2.4671 H   0  0  0  0  0  0  0  0  0  0  0  0
   -0.2503   -1.2311    1.9507 H   0  0  0  0  0  0  0  0  0  0  0  0
    1.5986   -0.4336    0.7725 H   0  0  0  0  0  0  0  0  0  0  0  0
    2.1437    3.1467   -2.9715 H   0  0  0  0  0  0  0  0  0  0  0  0
    4.5710    2.4901   -2.8933 H   0  0  0  0  0  0  0  0  0  0  0  0
    5.5894    1.4327    1.2601 H   0  0  0  0  0  0  0  0  0  0  0  0
    6.3943    0.0075    3.1235 H   0  0  0  0  0  0  0  0  0  0  0  0
    7.1528   -2.3130    2.6734 H   0  0  0  0  0  0  0  0  0  0  0  0
    7.1140   -3.2077    0.3583 H   0  0  0  0  0  0  0  0  0  0  0  0
    6.3037   -1.7842   -1.5083 H   0  0  0  0  0  0  0  0  0  0  0  0
   -0.7435    1.9404   -0.9245 H   0  0  0  0  0  0  0  0  0  0  0  0
   -3.1214    2.0375   -0.4092 H   0  0  0  0  0  0  0  0  0  0  0  0
  1  2  2  0
  2  3  1  0
  3  4  1  0
  4  5  1  0
  5  6  1  0
  6  7  1  0
  7  8  1  0
  8  9  1  0
  9 10  2  0
 10 11  1  0
 11 12  1  0
 12 13  1  0
 13 14  2  0
 14 15  1  0
 15 16  2  0
 16 17  1  0
 17 18  1  0
 18 19  1  0
 19 20  2  0
 20 21  1  0
 21 22  2  0
 22 23  1  0
 23 24  2  0
 17 25  2  0
 11 26  2  0
 26 27  1  0
  6  2  1  0
 27  8  2  0
 25 13  1  0
 24 19  1  0
  3 28  1  0
  3 29  1  0
  4 30  1  0
  4 31  1  0
  5 32  1  0
  5 33  1  0
  7 34  1  0
  7 35  1  0
  9 36  1  0
 10 37  1  0
 12 38  1  0
 15 39  1  0
 16 40  1  0
 20 41  1  0
 21 42  1  0
 22 43  1  0
 23 44  1  0
 24 45  1  0
 26 46  1  0
 27 47  1  0
M  END
$$$$
OCNT-2318352
     RDKit          3D

 34 37  0  0  0  0  0  0  0  0999 V2000
    4.7638    4.1444    0.1651 Br  0  0  0  0  0  0  0  0  0  0  0  0
    4.5829    2.2515    0.2074 C   0  0  0  0  0  0  0  0  0  0  0  0
    5.6162    1.3580    0.3683 C   0  0  0  0  0  0  0  0  0  0  0  0
    5.0291    0.0688    0.3388 C   0  0  0  0  0  0  0  0  0  0  0  0
    3.6711    0.2550    0.1615 C   0  0  0  0  0  0  0  0  0  0  0  0
    2.5943   -0.8690    0.0651 C   0  0  0  0  0  0  0  0  0  0  0  0
    2.8882   -2.1725    0.1470 N   0  0  0  0  0  0  0  0  0  0  0  0
    1.6436   -2.7873    0.0146 O   0  0  0  0  0  0  0  0  0  0  0  0
    0.7135   -1.7884   -0.1385 C   0  0  0  0  0  0  0  0  0  0  0  0
   -0.6827   -2.0432   -0.2929 C   0  0  0  0  0  0  0  0  0  0  0  0
   -1.3374   -3.2591   -0.2543 C   0  0  0  0  0  0  0  0  0  0  0  0
   -2.6940   -2.9537   -0.4317 C   0  0  0  0  0  0  0  0  0  0  0  0
   -2.9018   -1.6469   -0.5781 N   0  0  0  0  0  0  0  0  0  0  0  0
   -1.6648   -1.0982   -0.5051 N   0  0  0  0  0  0  0  0  0  0  0  0
   -1.5038    0.3461   -0.6492 C   0  0  0  0  0  0  0  0  0  0  0  0
   -2.6724    1.0760   -1.3279 C   0  0  0  0  0  0  0  0  0  0  0  0
   -3.6306    1.4746   -0.2045 C   0  0  0  0  0  0  0  0  0  0  0  0
   -2.8642    1.2936    1.1033 C   0  0  0  0  0  0  0  0  0  0  0  0
   -1.4134    1.0570    0.7022 C   0  0  0  0  0  0  0  0  0  0  0  0
    1.2623   -0.5942   -0.1115 N   0  0  0  0  0  0  0  0  0  0  0  0
    3.4014    1.5931    0.0812 O   0  0  0  0  0  0  0  0  0  0  0  0
    6.6620    1.6024    0.4917 H   0  0  0  0  0  0  0  0  0  0  0  0
    5.5306   -0.8850    0.4350 H   0  0  0  0  0  0  0  0  0  0  0  0
   -0.8947   -4.2344   -0.1072 H   0  0  0  0  0  0  0  0  0  0  0  0
   -3.5417   -3.6267   -0.4582 H   0  0  0  0  0  0  0  0  0  0  0  0
   -0.6040    0.4982   -1.2535 H   0  0  0  0  0  0  0  0  0  0  0  0
   -2.2945    1.9905   -1.8033 H   0  0  0  0  0  0  0  0  0  0  0  0
   -3.1692    0.4922   -2.1094 H   0  0  0  0  0  0  0  0  0  0  0  0
   -3.9590    2.5119   -0.3314 H   0  0  0  0  0  0  0  0  0  0  0  0
   -4.5289    0.8476   -0.2096 H   0  0  0  0  0  0  0  0  0  0  0  0
   -2.9681    2.1603    1.7634 H   0  0  0  0  0  0  0  0  0  0  0  0
   -3.2530    0.4221    1.6432 H   0  0  0  0  0  0  0  0  0  0  0  0
   -0.8718    0.4926    1.4675 H   0  0  0  0  0  0  0  0  0  0  0  0
   -0.9090    2.0230    0.5764 H   0  0  0  0  0  0  0  0  0  0  0  0
  1  2  1  0
  2  3  2  0
  3  4  1  0
  4  5  2  0
  5  6  1  0
  6  7  2  0
  7  8  1  0
  8  9  1  0
  9 10  1  0
 10 11  2  0
 11 12  1  0
 12 13  2  0
 13 14  1  0
 14 15  1  0
 15 16  1  0
 16 17  1  0
 17 18  1  0
 18 19  1  0
  9 20  2  0
  5 21  1  0
 21  2  1  0
 20  6  1  0
 14 10  1  0
 19 15  1  0
  3 22  1  0
  4 23  1  0
 11 24  1  0
 12 25  1  0
 15 26  1  0
 16 27  1  0
 16 28  1  0
 17 29  1  0
 17 30  1  0
 18 31  1  0
 18 32  1  0
 19 33  1  0
 19 34  1  0
M  END
$$$$
OCNT-2318356
     RDKit          3D

 50 52  0  0  0  0  0  0  0  0999 V2000
    5.9128   -0.0116   -2.0904 C   0  0  0  0  0  0  0  0  0  0  0  0
    5.5840    0.3564   -0.7583 O   0  0  0  0  0  0  0  0  0  0  0  0
    4.2279    0.8048   -0.5397 C   0  0  0  0  0  0  0  0  0  0  0  0
    3.9326    1.4359    0.8445 C   0  0  0  0  0  0  0  0  0  0  0  0
    4.9780    1.2718    1.9387 C   0  0  0  0  0  0  0  0  0  0  0  0
    2.6779    0.5369    0.9786 C   0  0  0  0  0  0  0  0  0  0  0  0
    1.4077    1.2926    0.8335 N   0  0  0  0  0  0  0  0  0  0  0  0
    0.1811    0.6888    1.0840 C   0  0  0  0  0  0  0  0  0  0  0  0
    0.1019   -0.4827    1.4280 O   0  0  0  0  0  0  0  0  0  0  0  0
   -0.8452    1.5888    0.9030 N   0  0  0  0  0  0  0  0  0  0  0  0
   -2.1876    1.2812    0.9544 C   0  0  0  0  0  0  0  0  0  0  0  0
   -2.6993    0.0522    0.9925 N   0  0  0  0  0  0  0  0  0  0  0  0
   -4.0309    0.2319    1.0142 N   0  0  0  0  0  0  0  0  0  0  0  0
   -4.9164   -0.9223    1.0856 C   0  0  0  0  0  0  0  0  0  0  0  0
   -5.4244   -1.3167   -0.2774 C   0  0  0  0  0  0  0  0  0  0  0  0
   -6.7692   -1.1522   -0.6229 C   0  0  0  0  0  0  0  0  0  0  0  0
   -7.1800   -1.5331   -1.8916 C   0  0  0  0  0  0  0  0  0  0  0  0
   -6.3565   -2.0562   -2.8238 N   0  0  0  0  0  0  0  0  0  0  0  0
   -5.0616   -2.2076   -2.4727 C   0  0  0  0  0  0  0  0  0  0  0  0
   -4.5557   -1.8600   -1.2308 C   0  0  0  0  0  0  0  0  0  0  0  0
   -4.3951    1.5471    0.9907 C   0  0  0  0  0  0  0  0  0  0  0  0
   -3.2175    2.2554    0.9407 C   0  0  0  0  0  0  0  0  0  0  0  0
    3.1407   -0.2836   -0.2693 C   0  0  0  0  0  0  0  0  0  0  0  0
    2.1589   -0.4176   -1.4366 C   0  0  0  0  0  0  0  0  0  0  0  0
    3.6673   -1.6659    0.1355 C   0  0  0  0  0  0  0  0  0  0  0  0
    6.9417   -0.3803   -2.1048 H   0  0  0  0  0  0  0  0  0  0  0  0
    5.8393    0.8597   -2.7474 H   0  0  0  0  0  0  0  0  0  0  0  0
    5.2480   -0.8030   -2.4456 H   0  0  0  0  0  0  0  0  0  0  0  0
    3.9382    1.5093   -1.3332 H   0  0  0  0  0  0  0  0  0  0  0  0
    3.6931    2.5054    0.7566 H   0  0  0  0  0  0  0  0  0  0  0  0
    5.8783    1.8461    1.6978 H   0  0  0  0  0  0  0  0  0  0  0  0
    5.2704    0.2269    2.0765 H   0  0  0  0  0  0  0  0  0  0  0  0
    4.5919    1.6421    2.8939 H   0  0  0  0  0  0  0  0  0  0  0  0
    2.6643   -0.0359    1.9153 H   0  0  0  0  0  0  0  0  0  0  0  0
    1.3760    2.0930    0.2189 H   0  0  0  0  0  0  0  0  0  0  0  0
   -0.6138    2.5666    0.9028 H   0  0  0  0  0  0  0  0  0  0  0  0
   -4.3675   -1.7510    1.5479 H   0  0  0  0  0  0  0  0  0  0  0  0
   -5.7390   -0.6571    1.7598 H   0  0  0  0  0  0  0  0  0  0  0  0
   -7.4906   -0.7384    0.0735 H   0  0  0  0  0  0  0  0  0  0  0  0
   -8.2155   -1.4243   -2.2011 H   0  0  0  0  0  0  0  0  0  0  0  0
   -4.4179   -2.6283   -3.2400 H   0  0  0  0  0  0  0  0  0  0  0  0
   -3.4997   -2.0030   -1.0141 H   0  0  0  0  0  0  0  0  0  0  0  0
   -5.4303    1.8572    1.0034 H   0  0  0  0  0  0  0  0  0  0  0  0
   -3.1175    3.3300    0.9035 H   0  0  0  0  0  0  0  0  0  0  0  0
    1.7663    0.5535   -1.7564 H   0  0  0  0  0  0  0  0  0  0  0  0
    2.6483   -0.8719   -2.3052 H   0  0  0  0  0  0  0  0  0  0  0  0
    1.3085   -1.0515   -1.1645 H   0  0  0  0  0  0  0  0  0  0  0  0
    2.8495   -2.2984    0.4981 H   0  0  0  0  0  0  0  0  0  0  0  0
    4.1318   -2.1764   -0.7145 H   0  0  0  0  0  0  0  0  0  0  0  0
    4.4146   -1.6043    0.9324 H   0  0  0  0  0  0  0  0  0  0  0  0
  1  2  1  0
  2  3  1  0
  3  4  1  0
  4  5  1  0
  4  6  1  0
  6  7  1  0
  7  8  1  0
  8  9  2  0
  8 10  1  0
 10 11  1  0
 11 12  2  0
 12 13  1  0
 13 14  1  0
 14 15  1  0
 15 16  2  0
 16 17  1  0
 17 18  2  0
 18 19  1  0
 19 20  2  0
 13 21  1  0
 21 22  2  0
  6 23  1  0
 23 24  1  0
 23 25  1  0
 23  3  1  0
 22 11  1  0
 20 15  1  0
  1 26  1  0
  1 27  1  0
  1 28  1  0
  3 29  1  0
  4 30  1  0
  5 31  1  0
  5 32  1  0
  5 33  1  0
  6 34  1  0
  7 35  1  0
 10 36  1  0
 14 37  1  0
 14 38  1  0
 16 39  1  0
 17 40  1  0
 19 41  1  0
 20 42  1  0
 21 43  1  0
 22 44  1  0
 24 45  1  0
 24 46  1  0
 24 47  1  0
 25 48  1  0
 25 49  1  0
 25 50  1  0
M  END
$$$$
OCNT-2318363
     RDKit          3D

 44 46  0  0  0  0  0  0  0  0999 V2000
    4.3146    0.8412    0.4084 C   0  0  0  0  0  0  0  0  0  0  0  0
    3.7049   -0.4902    0.8649 C   0  0  0  0  0  0  0  0  0  0  0  0
    2.5279   -0.3126    1.8337 C   0  0  0  0  0  0  0  0  0  0  0  0
    4.8075   -1.2544    1.6294 C   0  0  0  0  0  0  0  0  0  0  0  0
    3.4014   -1.3595   -0.2373 O   0  0  0  0  0  0  0  0  0  0  0  0
    2.4130   -1.1603   -1.1488 C   0  0  0  0  0  0  0  0  0  0  0  0
    1.5981   -0.0420   -1.2902 C   0  0  0  0  0  0  0  0  0  0  0  0
    0.6095    0.0126   -2.2910 C   0  0  0  0  0  0  0  0  0  0  0  0
   -0.2873    1.2188   -2.4000 C   0  0  0  0  0  0  0  0  0  0  0  0
   -1.4573    1.0059   -1.6011 O   0  0  0  0  0  0  0  0  0  0  0  0
   -1.4359    1.5598   -0.3636 C   0  0  0  0  0  0  0  0  0  0  0  0
   -0.5390    2.2531    0.0957 O   0  0  0  0  0  0  0  0  0  0  0  0
   -2.6760    1.2228    0.3957 C   0  0  0  0  0  0  0  0  0  0  0  0
   -3.5936    0.3496   -0.0700 C   0  0  0  0  0  0  0  0  0  0  0  0
   -4.7248    0.0787    0.6936 N   0  0  0  0  0  0  0  0  0  0  0  0
   -5.7836   -0.7565    0.4384 C   0  0  0  0  0  0  0  0  0  0  0  0
   -6.6728   -0.7417    1.4086 N   0  0  0  0  0  0  0  0  0  0  0  0
   -6.1761    0.1366    2.3405 C   0  0  0  0  0  0  0  0  0  0  0  0
   -4.9731    0.6597    1.9267 C   0  0  0  0  0  0  0  0  0  0  0  0
   -4.0158    1.5762    2.4343 C   0  0  0  0  0  0  0  0  0  0  0  0
   -2.9161    1.8451    1.7032 C   0  0  0  0  0  0  0  0  0  0  0  0
    0.4392   -1.0799   -3.1491 C   0  0  0  0  0  0  0  0  0  0  0  0
    1.2573   -2.1984   -3.0225 C   0  0  0  0  0  0  0  0  0  0  0  0
    2.2374   -2.2323   -2.0300 C   0  0  0  0  0  0  0  0  0  0  0  0
    4.7325    1.3971    1.2551 H   0  0  0  0  0  0  0  0  0  0  0  0
    5.1134    0.6712   -0.3225 H   0  0  0  0  0  0  0  0  0  0  0  0
    3.5879    1.4971   -0.0746 H   0  0  0  0  0  0  0  0  0  0  0  0
    2.0725   -1.2804    2.0726 H   0  0  0  0  0  0  0  0  0  0  0  0
    1.7330    0.3145    1.4249 H   0  0  0  0  0  0  0  0  0  0  0  0
    2.8519    0.1579    2.7688 H   0  0  0  0  0  0  0  0  0  0  0  0
    4.4456   -2.2364    1.9568 H   0  0  0  0  0  0  0  0  0  0  0  0
    5.1525   -0.7026    2.5104 H   0  0  0  0  0  0  0  0  0  0  0  0
    5.6715   -1.4451    0.9815 H   0  0  0  0  0  0  0  0  0  0  0  0
    1.6955    0.8157   -0.6367 H   0  0  0  0  0  0  0  0  0  0  0  0
   -0.6174    1.3464   -3.4375 H   0  0  0  0  0  0  0  0  0  0  0  0
    0.2460    2.1411   -2.1389 H   0  0  0  0  0  0  0  0  0  0  0  0
   -3.5111   -0.1710   -1.0159 H   0  0  0  0  0  0  0  0  0  0  0  0
   -5.8500   -1.3454   -0.4662 H   0  0  0  0  0  0  0  0  0  0  0  0
   -6.7130    0.3423    3.2575 H   0  0  0  0  0  0  0  0  0  0  0  0
   -4.1758    2.0462    3.3998 H   0  0  0  0  0  0  0  0  0  0  0  0
   -2.1687    2.5420    2.0755 H   0  0  0  0  0  0  0  0  0  0  0  0
   -0.3299   -1.0650   -3.9177 H   0  0  0  0  0  0  0  0  0  0  0  0
    1.1330   -3.0466   -3.6903 H   0  0  0  0  0  0  0  0  0  0  0  0
    2.8713   -3.1113   -1.9352 H   0  0  0  0  0  0  0  0  0  0  0  0
  1  2  1  0
  2  3  1  0
  2  4  1  0
  2  5  1  0
  5  6  1  0
  6  7  2  0
  7  8  1  0
  8  9  1  0
  9 10  1  0
 10 11  1  0
 11 12  2  0
 11 13  1  0
 13 14  2  0
 14 15  1  0
 15 16  1  0
 16 17  2  0
 17 18  1  0
 18 19  2  0
 19 20  1  0
 20 21  2  0
  8 22  2  0
 22 23  1  0
 23 24  2  0
 24  6  1  0
 21 13  1  0
 19 15  1  0
  1 25  1  0
  1 26  1  0
  1 27  1  0
  3 28  1  0
  3 29  1  0
  3 30  1  0
  4 31  1  0
  4 32  1  0
  4 33  1  0
  7 34  1  0
  9 35  1  0
  9 36  1  0
 14 37  1  0
 16 38  1  0
 18 39  1  0
 20 40  1  0
 21 41  1  0
 22 42  1  0
 23 43  1  0
 24 44  1  0
M  END
$$$$
OCNT-2318364
     RDKit          3D

 28 30  0  0  0  0  0  0  0  0999 V2000
   -1.9718   -2.6304   -0.9961 F   0  0  0  0  0  0  0  0  0  0  0  0
   -3.0739   -2.1810   -0.3279 C   0  0  0  0  0  0  0  0  0  0  0  0
   -4.1121   -2.9166   -0.8236 F   0  0  0  0  0  0  0  0  0  0  0  0
   -2.9263   -2.5898    0.9647 F   0  0  0  0  0  0  0  0  0  0  0  0
   -3.2717   -0.6764   -0.4505 C   0  0  0  0  0  0  0  0  0  0  0  0
   -4.5375   -0.2438   -0.7691 N   0  0  0  0  0  0  0  0  0  0  0  0
   -4.7475    1.0779   -0.9363 C   0  0  0  0  0  0  0  0  0  0  0  0
   -3.7545    2.0240   -0.8043 C   0  0  0  0  0  0  0  0  0  0  0  0
   -2.4769    1.5871   -0.4695 C   0  0  0  0  0  0  0  0  0  0  0  0
   -2.2088    0.2208   -0.2675 C   0  0  0  0  0  0  0  0  0  0  0  0
   -0.8481   -0.1508    0.0970 C   0  0  0  0  0  0  0  0  0  0  0  0
    0.2782    0.4611   -0.1833 N   0  0  0  0  0  0  0  0  0  0  0  0
    1.2226   -0.3049    0.4758 C   0  0  0  0  0  0  0  0  0  0  0  0
    2.6586   -0.0067    0.4357 C   0  0  0  0  0  0  0  0  0  0  0  0
    3.5822   -0.8280    1.0818 C   0  0  0  0  0  0  0  0  0  0  0  0
    4.9359   -0.5041    1.0152 C   0  0  0  0  0  0  0  0  0  0  0  0
    5.3318    0.6249    0.3094 C   0  0  0  0  0  0  0  0  0  0  0  0
    4.3542    1.3890   -0.3040 C   0  0  0  0  0  0  0  0  0  0  0  0
    3.0355    1.1017   -0.2568 N   0  0  0  0  0  0  0  0  0  0  0  0
    0.6893   -1.3359    1.1580 N   0  0  0  0  0  0  0  0  0  0  0  0
   -0.6769   -1.2231    0.9191 O   0  0  0  0  0  0  0  0  0  0  0  0
   -5.7653    1.3604   -1.1917 H   0  0  0  0  0  0  0  0  0  0  0  0
   -3.9644    3.0773   -0.9556 H   0  0  0  0  0  0  0  0  0  0  0  0
   -1.6792    2.3225   -0.3600 H   0  0  0  0  0  0  0  0  0  0  0  0
    3.2633   -1.7094    1.6301 H   0  0  0  0  0  0  0  0  0  0  0  0
    5.6735   -1.1300    1.5102 H   0  0  0  0  0  0  0  0  0  0  0  0
    6.3775    0.9033    0.2382 H   0  0  0  0  0  0  0  0  0  0  0  0
    4.6125    2.2809   -0.8681 H   0  0  0  0  0  0  0  0  0  0  0  0
  1  2  1  0
  2  3  1  0
  2  4  1  0
  2  5  1  0
  5  6  1  0
  6  7  2  0
  7  8  1  0
  8  9  2  0
  9 10  1  0
 10 11  1  0
 11 12  2  0
 12 13  1  0
 13 14  1  0
 14 15  2  0
 15 16  1  0
 16 17  2  0
 17 18  1  0
 18 19  2  0
 13 20  2  0
 20 21  1  0
 10  5  2  0
 21 11  1  0
 19 14  1  0
  7 22  1  0
  8 23  1  0
  9 24  1  0
 15 25  1  0
 16 26  1  0
 17 27  1  0
 18 28  1  0
M  END
$$$$
OCNT-2318376
     RDKit          3D

 38 40  0  0  0  0  0  0  0  0999 V2000
    2.4109   -0.2256    3.1008 C   0  0  0  0  0  0  0  0  0  0  0  0
    2.8197   -0.1118    1.6355 C   0  0  0  0  0  0  0  0  0  0  0  0
    1.9272   -1.3567    0.6279 S   0  0  0  0  0  0  0  0  0  0  0  0
    0.3696   -0.6054    0.4777 C   0  0  0  0  0  0  0  0  0  0  0  0
    0.1035    0.6481    0.7752 N   0  0  0  0  0  0  0  0  0  0  0  0
   -1.2335    0.8405    0.5025 N   0  0  0  0  0  0  0  0  0  0  0  0
   -1.7004   -0.3078    0.0495 C   0  0  0  0  0  0  0  0  0  0  0  0
   -3.1734   -0.5525   -0.3862 C   0  0  0  0  0  0  0  0  0  0  0  0
   -3.6468   -1.7572   -0.8577 C   0  0  0  0  0  0  0  0  0  0  0  0
   -4.9779   -1.5969   -1.1388 N   0  0  0  0  0  0  0  0  0  0  0  0
   -5.3729   -0.3076   -0.8570 C   0  0  0  0  0  0  0  0  0  0  0  0
   -6.6288    0.2972   -0.9889 C   0  0  0  0  0  0  0  0  0  0  0  0
   -6.7433    1.6410   -0.6215 C   0  0  0  0  0  0  0  0  0  0  0  0
   -5.6449    2.3498   -0.1417 C   0  0  0  0  0  0  0  0  0  0  0  0
   -4.3959    1.7310   -0.0156 C   0  0  0  0  0  0  0  0  0  0  0  0
   -4.2515    0.3759   -0.3790 C   0  0  0  0  0  0  0  0  0  0  0  0
   -0.7245   -1.2735    0.0047 O   0  0  0  0  0  0  0  0  0  0  0  0
    4.3240   -0.3500    1.4620 C   0  0  0  0  0  0  0  0  0  0  0  0
    5.0744   -0.6736    2.3783 O   0  0  0  0  0  0  0  0  0  0  0  0
    4.7896   -0.1315    0.1777 N   0  0  0  0  0  0  0  0  0  0  0  0
    6.1812   -0.4402   -0.1624 C   0  0  0  0  0  0  0  0  0  0  0  0
    6.6374    0.0837   -1.5207 C   0  0  0  0  0  0  0  0  0  0  0  0
    5.8260   -0.3724   -2.5042 F   0  0  0  0  0  0  0  0  0  0  0  0
    6.6157    1.4334   -1.5664 F   0  0  0  0  0  0  0  0  0  0  0  0
    7.8941   -0.3210   -1.8046 F   0  0  0  0  0  0  0  0  0  0  0  0
    2.6293   -1.2188    3.5102 H   0  0  0  0  0  0  0  0  0  0  0  0
    1.3451   -0.0208    3.2444 H   0  0  0  0  0  0  0  0  0  0  0  0
    2.9656    0.4999    3.7072 H   0  0  0  0  0  0  0  0  0  0  0  0
    2.6124    0.9000    1.2684 H   0  0  0  0  0  0  0  0  0  0  0  0
   -3.1563   -2.7084   -1.0163 H   0  0  0  0  0  0  0  0  0  0  0  0
   -5.5901   -2.3155   -1.5009 H   0  0  0  0  0  0  0  0  0  0  0  0
   -7.4881   -0.2506   -1.3621 H   0  0  0  0  0  0  0  0  0  0  0  0
   -7.7055    2.1403   -0.7119 H   0  0  0  0  0  0  0  0  0  0  0  0
   -5.7551    3.3946    0.1389 H   0  0  0  0  0  0  0  0  0  0  0  0
   -3.5468    2.2960    0.3606 H   0  0  0  0  0  0  0  0  0  0  0  0
    4.1035   -0.1657   -0.5710 H   0  0  0  0  0  0  0  0  0  0  0  0
    6.8284   -0.0363    0.6238 H   0  0  0  0  0  0  0  0  0  0  0  0
    6.2781   -1.5314   -0.1395 H   0  0  0  0  0  0  0  0  0  0  0  0
  1  2  1  0
  2  3  1  0
  3  4  1  0
  4  5  2  0
  5  6  1  0
  6  7  2  0
  7  8  1  0
  8  9  2  0
  9 10  1  0
 10 11  1  0
 11 12  2  0
 12 13  1  0
 13 14  2  0
 14 15  1  0
 15 16  2  0
  7 17  1  0
  2 18  1  0
 18 19  2  0
 18 20  1  0
 20 21  1  0
 21 22  1  0
 22 23  1  0
 22 24  1  0
 22 25  1  0
 17  4  1  0
 16  8  1  0
 16 11  1  0
  1 26  1  0
  1 27  1  0
  1 28  1  0
  2 29  1  0
  9 30  1  0
 10 31  1  0
 12 32  1  0
 13 33  1  0
 14 34  1  0
 15 35  1  0
 20 36  1  0
 21 37  1  0
 21 38  1  0
M  END
$$$$
OCNT-2318394
     RDKit          3D

 39 42  0  0  0  0  0  0  0  0999 V2000
   -0.5458    2.8792   -3.4679 N   0  0  0  0  0  0  0  0  0  0  0  0
    0.3357    2.8852   -2.7118 C   0  0  0  0  0  0  0  0  0  0  0  0
    1.4067    2.9489   -1.7647 C   0  0  0  0  0  0  0  0  0  0  0  0
    1.9220    4.2082   -1.4384 C   0  0  0  0  0  0  0  0  0  0  0  0
    2.9874    4.2763   -0.5711 C   0  0  0  0  0  0  0  0  0  0  0  0
    3.5384    3.1738   -0.0461 N   0  0  0  0  0  0  0  0  0  0  0  0
    3.0277    1.9376   -0.3730 N   0  0  0  0  0  0  0  0  0  0  0  0
    1.9662    1.7966   -1.2027 C   0  0  0  0  0  0  0  0  0  0  0  0
    1.4852    0.5073   -1.4928 N   0  0  0  0  0  0  0  0  0  0  0  0
    2.4600   -0.5660   -1.2445 C   0  0  0  0  0  0  0  0  0  0  0  0
    1.8331   -1.9089   -1.6076 C   0  0  0  0  0  0  0  0  0  0  0  0
    0.6136   -2.2212   -0.7364 C   0  0  0  0  0  0  0  0  0  0  0  0
   -0.0061   -0.9613   -0.1043 C   0  0  0  0  0  0  0  0  0  0  0  0
   -1.4168   -1.2045    0.3694 C   0  0  0  0  0  0  0  0  0  0  0  0
   -2.5291   -1.4582   -0.4191 C   0  0  0  0  0  0  0  0  0  0  0  0
   -3.6159   -1.6179    0.4011 N   0  0  0  0  0  0  0  0  0  0  0  0
   -3.2378   -1.4732    1.7049 C   0  0  0  0  0  0  0  0  0  0  0  0
   -4.0764   -1.5717    2.7526 N   0  0  0  0  0  0  0  0  0  0  0  0
   -3.4558   -1.3883    3.9398 C   0  0  0  0  0  0  0  0  0  0  0  0
   -2.1038   -1.1239    4.1150 C   0  0  0  0  0  0  0  0  0  0  0  0
   -1.2804   -1.0320    2.9917 C   0  0  0  0  0  0  0  0  0  0  0  0
   -1.8713   -1.2145    1.7289 C   0  0  0  0  0  0  0  0  0  0  0  0
    0.0924    0.2459   -1.0588 C   0  0  0  0  0  0  0  0  0  0  0  0
    1.5059    5.1166   -1.8629 H   0  0  0  0  0  0  0  0  0  0  0  0
    3.4374    5.2170   -0.2764 H   0  0  0  0  0  0  0  0  0  0  0  0
    3.3472   -0.4107   -1.8709 H   0  0  0  0  0  0  0  0  0  0  0  0
    2.7855   -0.5867   -0.1962 H   0  0  0  0  0  0  0  0  0  0  0  0
    1.5238   -1.8905   -2.6607 H   0  0  0  0  0  0  0  0  0  0  0  0
    2.5717   -2.7127   -1.5110 H   0  0  0  0  0  0  0  0  0  0  0  0
    0.9049   -2.9099    0.0676 H   0  0  0  0  0  0  0  0  0  0  0  0
   -0.1168   -2.7687   -1.3453 H   0  0  0  0  0  0  0  0  0  0  0  0
    0.6002   -0.7149    0.7792 H   0  0  0  0  0  0  0  0  0  0  0  0
   -2.6404   -1.5405   -1.4928 H   0  0  0  0  0  0  0  0  0  0  0  0
   -4.5637   -1.8131    0.1145 H   0  0  0  0  0  0  0  0  0  0  0  0
   -4.1111   -1.4632    4.8046 H   0  0  0  0  0  0  0  0  0  0  0  0
   -1.6957   -0.9912    5.1111 H   0  0  0  0  0  0  0  0  0  0  0  0
   -0.2206   -0.8266    3.0969 H   0  0  0  0  0  0  0  0  0  0  0  0
   -0.5061    0.0582   -1.9594 H   0  0  0  0  0  0  0  0  0  0  0  0
   -0.3514    1.1196   -0.5624 H   0  0  0  0  0  0  0  0  0  0  0  0
  1  2  3  0
  2  3  1  0
  3  4  1  0
  4  5  2  0
  5  6  1  0
  6  7  2  0
  7  8  1  0
  8  9  1  0
  9 10  1  0
 10 11  1  0
 11 12  1  0
 12 13  1  0
 13 14  1  0
 14 15  2  0
 15 16  1  0
 16 17  1  0
 17 18  1  0
 18 19  2  0
 19 20  1  0
 20 21  2  0
 21 22  1  0
 13 23  1  0
  8  3  2  0
 23  9  1  0
 22 14  1  0
 22 17  2  0
  4 24  1  0
  5 25  1  0
 10 26  1  0
 10 27  1  0
 11 28  1  0
 11 29  1  0
 12 30  1  0
 12 31  1  0
 13 32  1  0
 15 33  1  0
 16 34  1  0
 19 35  1  0
 20 36  1  0
 21 37  1  0
 23 38  1  0
 23 39  1  0
M  END
$$$$
OCNT-2318405
     RDKit          3D

  0  0  0  0  0  0  0  0  0  0999 V3000
M  V30 BEGIN CTAB
M  V30 COUNTS 45 47 0 0 0
M  V30 BEGIN ATOM
M  V30 1 C -0.454696 -1.517550 -3.057633 0
M  V30 2 C -1.217616 -1.495532 -1.737771 0
M  V30 3 C -1.349316 -0.085219 -1.125961 0
M  V30 4 N -0.090130 0.601442 -0.801532 0
M  V30 5 C 0.705996 0.105391 0.333384 0 CFG=1
M  V30 6 C 1.991846 -0.550324 -0.130395 0
M  V30 7 C 2.053754 -1.931051 -0.375535 0
M  V30 8 C 3.232901 -2.526503 -0.827950 0
M  V30 9 C 4.371000 -1.751675 -1.027734 0
M  V30 10 C 4.332285 -0.385525 -0.757379 0
M  V30 11 C 3.154262 0.212061 -0.302880 0
M  V30 12 O 3.256136 1.541872 -0.005441 0
M  V30 13 C 2.076004 2.195688 0.474066 0
M  V30 14 C 1.128518 1.274808 1.248259 0 CFG=1
M  V30 15 C -0.055669 2.053432 1.816674 0
M  V30 16 O 0.387142 2.994154 2.792863 0
M  V30 17 C -2.387639 0.044454 -0.018481 0
M  V30 18 C -3.114797 1.246664 0.095083 0
M  V30 19 C -4.073491 1.413274 1.096725 0
M  V30 20 C -4.311623 0.381305 1.994938 0
M  V30 21 F -5.229743 0.541841 2.956425 0
M  V30 22 C -3.607446 -0.809833 1.914785 0
M  V30 23 C -2.652593 -0.968007 0.914610 0
M  V30 24 F -1.969770 -2.120499 0.882944 0
M  V30 25 H -0.929476 -0.862367 -3.794912 0
M  V30 26 H 0.584027 -1.200125 -2.934910 0
M  V30 27 H -0.445620 -2.532885 -3.467065 0
M  V30 28 H -0.746957 -2.191940 -1.041979 0
M  V30 29 H -2.222173 -1.895710 -1.929729 0
M  V30 30 H -1.769049 0.510888 -1.950606 0
M  V30 31 H 0.502286 0.634884 -1.631935 0
M  V30 32 H 0.147060 -0.611028 0.945179 0
M  V30 33 H 1.186957 -2.561940 -0.201732 0
M  V30 34 H 3.263190 -3.596419 -1.018043 0
M  V30 35 H 5.291701 -2.210936 -1.376978 0
M  V30 36 H 5.226962 0.217970 -0.887651 0
M  V30 37 H 2.419880 3.009014 1.122992 0
M  V30 38 H 1.580240 2.670843 -0.380959 0
M  V30 39 H 1.697940 0.861797 2.094958 0
M  V30 40 H -0.771774 1.384046 2.303145 0
M  V30 41 H -0.580353 2.616600 1.039403 0
M  V30 42 H 0.739484 2.490865 3.547348 0
M  V30 43 H -2.925329 2.066118 -0.597013 0
M  V30 44 H -4.629710 2.341843 1.182962 0
M  V30 45 H -3.794599 -1.606187 2.625457 0
M  V30 END ATOM
M  V30 BEGIN BOND
M  V30 1 1 1 2
M  V30 2 1 2 3
M  V30 3 1 3 4
M  V30 4 1 4 5
M  V30 5 1 5 6
M  V30 6 2 6 7
M  V30 7 1 7 8
M  V30 8 2 8 9
M  V30 9 1 9 10
M  V30 10 2 10 11
M  V30 11 1 11 12
M  V30 12 1 12 13
M  V30 13 1 13 14
M  V30 14 1 14 15
M  V30 15 1 15 16
M  V30 16 1 3 17
M  V30 17 1 17 18
M  V30 18 2 18 19
M  V30 19 1 19 20
M  V30 20 1 20 21
M  V30 21 2 20 22
M  V30 22 1 22 23
M  V30 23 1 23 24
M  V30 24 1 14 5
M  V30 25 2 23 17
M  V30 26 1 11 6
M  V30 27 1 1 25
M  V30 28 1 1 26
M  V30 29 1 1 27
M  V30 30 1 2 28
M  V30 31 1 2 29
M  V30 32 1 3 30
M  V30 33 1 4 31
M  V30 34 1 5 32 CFG=1
M  V30 35 1 7 33
M  V30 36 1 8 34
M  V30 37 1 9 35
M  V30 38 1 10 36
M  V30 39 1 13 37
M  V30 40 1 13 38
M  V30 41 1 14 39 CFG=1
M  V30 42 1 15 40
M  V30 43 1 15 41
M  V30 44 1 16 42
M  V30 45 1 18 43
M  V30 46 1 19 44
M  V30 47 1 22 45
M  V30 END BOND
M  V30 BEGIN COLLECTION
M  V30 MDLV30/STERAC1 ATOMS=(2 5 14)
M  V30 END COLLECTION
M  V30 END CTAB
M  END
>  <_CXSMILES_Data>  (1310) 
|&1:4,13|

$$$$
OCNT-2318411
     RDKit          3D

  0  0  0  0  0  0  0  0  0  0999 V3000
M  V30 BEGIN CTAB
M  V30 COUNTS 60 63 0 0 0
M  V30 BEGIN ATOM
M  V30 1 C 5.884343 4.293662 1.416167 0
M  V30 2 C 4.535255 4.104235 0.730717 0
M  V30 3 C 4.350302 2.710636 0.192432 0
M  V30 4 N 5.278428 2.239666 -0.654704 0
M  V30 5 C 5.058626 1.016120 -1.162785 0
M  V30 6 C 6.068651 0.477839 -2.134666 0
M  V30 7 C 3.939269 0.274866 -0.839738 0
M  V30 8 C 3.027212 0.827812 0.039884 0
M  V30 9 N 1.854961 0.146312 0.364497 0
M  V30 10 C 0.950320 0.812463 1.296572 0
M  V30 11 C -0.102536 -0.251749 1.577651 0 CFG=1
M  V30 12 C -1.222819 -0.287211 0.540280 0
M  V30 13 N -1.609673 -1.708072 0.428306 0
M  V30 14 C -2.541503 -2.115933 1.514091 0
M  V30 15 C -3.962594 -1.618740 1.216819 0
M  V30 16 O -4.751248 -1.302859 2.104394 0
M  V30 17 N -4.267774 -1.616525 -0.129280 0
M  V30 18 C -5.497843 -1.037872 -0.637240 0
M  V30 19 C -5.359694 0.476784 -0.842621 0
M  V30 20 C -5.123630 0.693450 -2.340131 0
M  V30 21 C -5.007543 -0.695659 -2.955717 0
M  V30 22 C -5.826611 -1.577850 -2.026722 0
M  V30 23 C -0.325172 -2.427880 0.512678 0
M  V30 24 C 0.614697 -1.604647 1.413348 0 CFG=2
M  V30 25 C 0.851754 -2.287617 2.763225 0
M  V30 26 C 1.959316 -1.270517 0.720146 0
M  V30 27 N 3.231966 2.053140 0.549905 0
M  V30 28 H 5.997825 3.606011 2.266769 0
M  V30 29 H 6.718535 4.115620 0.723057 0
M  V30 30 H 5.975012 5.318622 1.790826 0
M  V30 31 H 3.737740 4.331602 1.452356 0
M  V30 32 H 4.432005 4.812215 -0.100920 0
M  V30 33 H 6.474864 -0.473496 -1.772711 0
M  V30 34 H 5.603366 0.319154 -3.115623 0
M  V30 35 H 6.899652 1.178483 -2.261401 0
M  V30 36 H 3.772076 -0.691682 -1.293157 0
M  V30 37 H 0.509415 1.721410 0.873401 0
M  V30 38 H 1.468802 1.064282 2.230408 0
M  V30 39 H -0.531555 -0.116665 2.577297 0
M  V30 40 H -0.871776 0.054249 -0.442283 0
M  V30 41 H -2.059118 0.364658 0.816376 0
M  V30 42 H -2.612641 -3.209943 1.557898 0
M  V30 43 H -2.236807 -1.744023 2.499160 0
M  V30 44 H -3.437826 -1.638440 -0.722974 0
M  V30 45 H -6.297884 -1.264453 0.078115 0
M  V30 46 H -6.287852 0.983925 -0.550315 0
M  V30 47 H -4.550811 0.910849 -0.246951 0
M  V30 48 H -4.229139 1.296289 -2.532879 0
M  V30 49 H -5.980887 1.228288 -2.769159 0
M  V30 50 H -5.373664 -0.723208 -3.985768 0
M  V30 51 H -3.958841 -1.019341 -2.964724 0
M  V30 52 H -5.585078 -2.639301 -2.148979 0
M  V30 53 H -6.893823 -1.441320 -2.236321 0
M  V30 54 H 0.070312 -2.491557 -0.508561 0
M  V30 55 H -0.445076 -3.465085 0.849915 0
M  V30 56 H 1.455395 -1.655015 3.423874 0
M  V30 57 H 1.383005 -3.237355 2.630342 0
M  V30 58 H -0.088668 -2.501666 3.281155 0
M  V30 59 H 2.136306 -1.891477 -0.165389 0
M  V30 60 H 2.800672 -1.425488 1.410109 0
M  V30 END ATOM
M  V30 BEGIN BOND
M  V30 1 1 1 2
M  V30 2 1 2 3
M  V30 3 1 3 4
M  V30 4 2 4 5
M  V30 5 1 5 6
M  V30 6 1 5 7
M  V30 7 2 7 8
M  V30 8 1 8 9
M  V30 9 1 9 10
M  V30 10 1 10 11
M  V30 11 1 11 12
M  V30 12 1 12 13
M  V30 13 1 13 14
M  V30 14 1 14 15
M  V30 15 2 15 16
M  V30 16 1 15 17
M  V30 17 1 17 18
M  V30 18 1 18 19
M  V30 19 1 19 20
M  V30 20 1 20 21
M  V30 21 1 21 22
M  V30 22 1 13 23
M  V30 23 1 23 24
M  V30 24 1 24 25 CFG=1
M  V30 25 1 24 26
M  V30 26 1 8 27
M  V30 27 2 27 3
M  V30 28 1 26 9
M  V30 29 1 24 11
M  V30 30 1 22 18
M  V30 31 1 1 28
M  V30 32 1 1 29
M  V30 33 1 1 30
M  V30 34 1 2 31
M  V30 35 1 2 32
M  V30 36 1 6 33
M  V30 37 1 6 34
M  V30 38 1 6 35
M  V30 39 1 7 36
M  V30 40 1 10 37
M  V30 41 1 10 38
M  V30 42 1 11 39 CFG=1
M  V30 43 1 12 40
M  V30 44 1 12 41
M  V30 45 1 14 42
M  V30 46 1 14 43
M  V30 47 1 17 44
M  V30 48 1 18 45
M  V30 49 1 19 46
M  V30 50 1 19 47
M  V30 51 1 20 48
M  V30 52 1 20 49
M  V30 53 1 21 50
M  V30 54 1 21 51
M  V30 55 1 22 52
M  V30 56 1 22 53
M  V30 57 1 23 54
M  V30 58 1 23 55
M  V30 59 1 25 56
M  V30 60 1 25 57
M  V30 61 1 25 58
M  V30 62 1 26 59
M  V30 63 1 26 60
M  V30 END BOND
M  V30 BEGIN COLLECTION
M  V30 MDLV30/STERAC1 ATOMS=(2 11 24)
M  V30 END COLLECTION
M  V30 END CTAB
M  END
>  <_CXSMILES_Data>  (1311) 
|&1:10,23|

$$$$
OCNT-2318423
     RDKit          3D

 46 48  0  0  0  0  0  0  0  0999 V2000
    3.4446   -0.7700   -1.6527 C   0  0  0  0  0  0  0  0  0  0  0  0
    4.2410   -1.2367   -0.4129 C   0  0  0  0  0  0  0  0  0  0  0  0
    5.5494   -0.4270   -0.3563 C   0  0  0  0  0  0  0  0  0  0  0  0
    4.5604   -2.7322   -0.5907 C   0  0  0  0  0  0  0  0  0  0  0  0
    3.4111   -1.0052    0.8481 C   0  0  0  0  0  0  0  0  0  0  0  0
    2.2126   -0.4562    0.8503 N   0  0  0  0  0  0  0  0  0  0  0  0
    1.6934   -0.3625    2.1419 C   0  0  0  0  0  0  0  0  0  0  0  0
    0.3727    0.2100    2.4881 C   0  0  0  0  0  0  0  0  0  0  0  0
    0.0309    0.2620    3.6723 O   0  0  0  0  0  0  0  0  0  0  0  0
   -0.4774    0.6857    1.4753 N   0  0  0  0  0  0  0  0  0  0  0  0
   -1.7309    1.3189    1.8653 C   0  0  0  0  0  0  0  0  0  0  0  0
   -2.9034    0.8728    0.9906 C   0  0  0  0  0  0  0  0  0  0  0  0
   -2.5511    0.7305   -0.5060 C   0  0  0  0  0  0  0  0  0  0  0  0
   -3.6465    1.2924   -1.4251 C   0  0  0  0  0  0  0  0  0  0  0  0
   -4.8915    0.5578   -1.3484 N   0  0  0  0  0  0  0  0  0  0  0  0
   -5.2347   -0.5728   -2.0208 C   0  0  0  0  0  0  0  0  0  0  0  0
   -6.4554   -0.9247   -1.6902 N   0  0  0  0  0  0  0  0  0  0  0  0
   -6.8236    0.0459   -0.8026 C   0  0  0  0  0  0  0  0  0  0  0  0
   -5.8998    0.9804   -0.5662 N   0  0  0  0  0  0  0  0  0  0  0  0
   -1.2002    1.3873   -0.8114 C   0  0  0  0  0  0  0  0  0  0  0  0
   -0.1040    0.7800    0.0662 C   0  0  0  0  0  0  0  0  0  0  0  0
    2.5486   -0.8641    3.1098 C   0  0  0  0  0  0  0  0  0  0  0  0
    3.9922   -1.4484    2.4099 S   0  0  0  0  0  0  0  0  0  0  0  0
    4.0183   -0.9221   -2.5744 H   0  0  0  0  0  0  0  0  0  0  0  0
    2.5018   -1.3219   -1.7537 H   0  0  0  0  0  0  0  0  0  0  0  0
    3.1985    0.2967   -1.5885 H   0  0  0  0  0  0  0  0  0  0  0  0
    5.3496    0.6400   -0.2022 H   0  0  0  0  0  0  0  0  0  0  0  0
    6.2016   -0.7597    0.4586 H   0  0  0  0  0  0  0  0  0  0  0  0
    6.1172   -0.5295   -1.2881 H   0  0  0  0  0  0  0  0  0  0  0  0
    3.6455   -3.3370   -0.5985 H   0  0  0  0  0  0  0  0  0  0  0  0
    5.1993   -3.1139    0.2135 H   0  0  0  0  0  0  0  0  0  0  0  0
    5.0878   -2.9130   -1.5345 H   0  0  0  0  0  0  0  0  0  0  0  0
   -1.5828    2.4026    1.7767 H   0  0  0  0  0  0  0  0  0  0  0  0
   -1.9746    1.1242    2.9148 H   0  0  0  0  0  0  0  0  0  0  0  0
   -3.7263    1.5806    1.1445 H   0  0  0  0  0  0  0  0  0  0  0  0
   -3.2668   -0.0994    1.3492 H   0  0  0  0  0  0  0  0  0  0  0  0
   -2.4491   -0.3444   -0.7180 H   0  0  0  0  0  0  0  0  0  0  0  0
   -3.8593    2.3436   -1.1937 H   0  0  0  0  0  0  0  0  0  0  0  0
   -3.3251    1.2502   -2.4736 H   0  0  0  0  0  0  0  0  0  0  0  0
   -4.5807   -1.0820   -2.7144 H   0  0  0  0  0  0  0  0  0  0  0  0
   -7.7910    0.0715   -0.3176 H   0  0  0  0  0  0  0  0  0  0  0  0
   -1.2630    2.4688   -0.6355 H   0  0  0  0  0  0  0  0  0  0  0  0
   -0.9338    1.2547   -1.8667 H   0  0  0  0  0  0  0  0  0  0  0  0
    0.1088   -0.2337   -0.2911 H   0  0  0  0  0  0  0  0  0  0  0  0
    0.8031    1.3880   -0.0191 H   0  0  0  0  0  0  0  0  0  0  0  0
    2.3827   -0.9093    4.1778 H   0  0  0  0  0  0  0  0  0  0  0  0
  1  2  1  0
  2  3  1  0
  2  4  1  0
  2  5  1  0
  5  6  2  0
  6  7  1  0
  7  8  1  0
  8  9  2  0
  8 10  1  0
 10 11  1  0
 11 12  1  0
 12 13  1  0
 13 14  1  0
 14 15  1  0
 15 16  1  0
 16 17  2  0
 17 18  1  0
 18 19  2  0
 13 20  1  0
 20 21  1  0
  7 22  2  0
 22 23  1  0
 23  5  1  0
 21 10  1  0
 19 15  1  0
  1 24  1  0
  1 25  1  0
  1 26  1  0
  3 27  1  0
  3 28  1  0
  3 29  1  0
  4 30  1  0
  4 31  1  0
  4 32  1  0
 11 33  1  0
 11 34  1  0
 12 35  1  0
 12 36  1  0
 13 37  1  0
 14 38  1  0
 14 39  1  0
 16 40  1  0
 18 41  1  0
 20 42  1  0
 20 43  1  0
 21 44  1  0
 21 45  1  0
 22 46  1  0
M  END
$$$$
OCNT-2318429
     RDKit          3D

 42 45  0  0  0  0  0  0  0  0999 V2000
    6.8299    0.5058    2.1033 C   0  0  0  0  0  0  0  0  0  0  0  0
    6.3505    0.5299    0.6621 C   0  0  0  0  0  0  0  0  0  0  0  0
    6.4075   -0.7494    0.1878 F   0  0  0  0  0  0  0  0  0  0  0  0
    7.2692    1.2242   -0.0713 F   0  0  0  0  0  0  0  0  0  0  0  0
    4.9644    1.1209    0.5498 C   0  0  0  0  0  0  0  0  0  0  0  0
    4.7924    2.5045    0.4271 C   0  0  0  0  0  0  0  0  0  0  0  0
    3.5127    3.0447    0.3313 C   0  0  0  0  0  0  0  0  0  0  0  0
    2.3912    2.2111    0.3530 C   0  0  0  0  0  0  0  0  0  0  0  0
    2.5378    0.8295    0.4644 C   0  0  0  0  0  0  0  0  0  0  0  0
    1.4558   -0.0729    0.4952 N   0  0  0  0  0  0  0  0  0  0  0  0
    0.1264    0.2043    0.2445 C   0  0  0  0  0  0  0  0  0  0  0  0
   -0.3389    1.2681   -0.1386 O   0  0  0  0  0  0  0  0  0  0  0  0
   -0.6583   -0.9170    0.4722 N   0  0  0  0  0  0  0  0  0  0  0  0
   -2.0839   -0.8660    0.3033 C   0  0  0  0  0  0  0  0  0  0  0  0
   -2.8920   -2.1412    0.2680 C   0  0  0  0  0  0  0  0  0  0  0  0
   -4.3665   -2.1737    0.6485 C   0  0  0  0  0  0  0  0  0  0  0  0
   -5.0341   -1.3658   -0.4399 C   0  0  0  0  0  0  0  0  0  0  0  0
   -6.3857   -1.0870   -0.5662 C   0  0  0  0  0  0  0  0  0  0  0  0
   -6.7854   -0.2964   -1.6371 C   0  0  0  0  0  0  0  0  0  0  0  0
   -8.0849   -0.0055   -1.7832 F   0  0  0  0  0  0  0  0  0  0  0  0
   -5.8634    0.2040   -2.5622 C   0  0  0  0  0  0  0  0  0  0  0  0
   -4.5029   -0.0855   -2.4281 C   0  0  0  0  0  0  0  0  0  0  0  0
   -4.0886   -0.8765   -1.3644 C   0  0  0  0  0  0  0  0  0  0  0  0
   -2.7073   -1.3153   -0.9959 C   0  0  0  0  0  0  0  0  0  0  0  0
    3.8277    0.2931    0.5706 C   0  0  0  0  0  0  0  0  0  0  0  0
    7.8315    0.0679    2.1548 H   0  0  0  0  0  0  0  0  0  0  0  0
    6.1719   -0.0970    2.7382 H   0  0  0  0  0  0  0  0  0  0  0  0
    6.8873    1.5143    2.5258 H   0  0  0  0  0  0  0  0  0  0  0  0
    5.6565    3.1669    0.3970 H   0  0  0  0  0  0  0  0  0  0  0  0
    3.3816    4.1186    0.2322 H   0  0  0  0  0  0  0  0  0  0  0  0
    1.4125    2.6749    0.2799 H   0  0  0  0  0  0  0  0  0  0  0  0
    1.6890   -1.0527    0.5431 H   0  0  0  0  0  0  0  0  0  0  0  0
   -0.3111   -1.5548    1.1731 H   0  0  0  0  0  0  0  0  0  0  0  0
   -2.5303    0.0054    0.7829 H   0  0  0  0  0  0  0  0  0  0  0  0
   -2.3946   -3.0965    0.3480 H   0  0  0  0  0  0  0  0  0  0  0  0
   -4.7396   -3.2026    0.6360 H   0  0  0  0  0  0  0  0  0  0  0  0
   -4.5264   -1.7219    1.6318 H   0  0  0  0  0  0  0  0  0  0  0  0
   -7.1182   -1.4571    0.1431 H   0  0  0  0  0  0  0  0  0  0  0  0
   -6.2126    0.8294   -3.3768 H   0  0  0  0  0  0  0  0  0  0  0  0
   -3.7802    0.3105   -3.1345 H   0  0  0  0  0  0  0  0  0  0  0  0
   -2.0567   -1.7112   -1.7677 H   0  0  0  0  0  0  0  0  0  0  0  0
    3.9657   -0.7819    0.6567 H   0  0  0  0  0  0  0  0  0  0  0  0
  1  2  1  0
  2  3  1  0
  2  4  1  0
  2  5  1  0
  5  6  2  0
  6  7  1  0
  7  8  2  0
  8  9  1  0
  9 10  1  0
 10 11  1  0
 11 12  2  0
 11 13  1  0
 13 14  1  0
 14 15  1  0
 15 16  1  0
 16 17  1  0
 17 18  1  0
 18 19  2  0
 19 20  1  0
 19 21  1  0
 21 22  2  0
 22 23  1  0
 23 24  1  0
  9 25  2  0
 25  5  1  0
 24 14  1  0
 24 15  1  0
 23 17  2  0
  1 26  1  0
  1 27  1  0
  1 28  1  0
  6 29  1  0
  7 30  1  0
  8 31  1  0
 10 32  1  0
 13 33  1  0
 14 34  1  0
 15 35  1  0
 16 36  1  0
 16 37  1  0
 18 38  1  0
 21 39  1  0
 22 40  1  0
 24 41  1  0
 25 42  1  0
M  END
$$$$
OCNT-2318439
     RDKit          3D

 51 54  0  0  0  0  0  0  0  0999 V2000
    3.7180    1.8201   -1.3530 C   0  0  0  0  0  0  0  0  0  0  0  0
    2.9201    2.3077   -0.2280 N   0  0  0  0  0  0  0  0  0  0  0  0
    3.7680    2.8107    0.8618 C   0  0  0  0  0  0  0  0  0  0  0  0
    3.7236    1.9866    2.1531 C   0  0  0  0  0  0  0  0  0  0  0  0
    3.7556    0.4965    1.8416 C   0  0  0  0  0  0  0  0  0  0  0  0
    2.5384    0.0750    0.9865 C   0  0  0  0  0  0  0  0  0  0  0  0
    3.0136   -0.9193    0.0646 O   0  0  0  0  0  0  0  0  0  0  0  0
    1.4760   -0.5810    1.8953 C   0  0  0  0  0  0  0  0  0  0  0  0
    0.2688   -1.1146    1.1429 C   0  0  0  0  0  0  0  0  0  0  0  0
    0.2694   -1.2453   -0.0762 O   0  0  0  0  0  0  0  0  0  0  0  0
   -0.7416   -1.4959    1.9983 N   0  0  0  0  0  0  0  0  0  0  0  0
   -1.9196   -2.0690    1.5835 C   0  0  0  0  0  0  0  0  0  0  0  0
   -2.4877   -2.9898    2.3932 N   0  0  0  0  0  0  0  0  0  0  0  0
   -3.5509   -3.4636    1.6855 N   0  0  0  0  0  0  0  0  0  0  0  0
   -3.7089   -2.8028    0.5221 C   0  0  0  0  0  0  0  0  0  0  0  0
   -2.7163   -1.9027    0.4619 C   0  0  0  0  0  0  0  0  0  0  0  0
   -2.9038   -1.1197   -0.6725 C   0  0  0  0  0  0  0  0  0  0  0  0
   -2.2450    0.1024   -1.1129 C   0  0  0  0  0  0  0  0  0  0  0  0
   -2.0602    1.1703   -0.2231 C   0  0  0  0  0  0  0  0  0  0  0  0
   -1.4580    2.3535   -0.6571 C   0  0  0  0  0  0  0  0  0  0  0  0
   -1.0340    2.4762   -1.9798 C   0  0  0  0  0  0  0  0  0  0  0  0
   -1.2219    1.4227   -2.8735 C   0  0  0  0  0  0  0  0  0  0  0  0
   -1.8323    0.2424   -2.4438 C   0  0  0  0  0  0  0  0  0  0  0  0
   -3.9641   -1.6191   -1.3635 N   0  0  0  0  0  0  0  0  0  0  0  0
   -4.4314   -2.6439   -0.6027 N   0  0  0  0  0  0  0  0  0  0  0  0
   -5.5890   -3.3823   -1.0358 C   0  0  0  0  0  0  0  0  0  0  0  0
    1.9441    1.3002    0.2246 C   0  0  0  0  0  0  0  0  0  0  0  0
    3.0724    1.4663   -2.1646 H   0  0  0  0  0  0  0  0  0  0  0  0
    4.3996    1.0105   -1.0736 H   0  0  0  0  0  0  0  0  0  0  0  0
    4.3175    2.6370   -1.7706 H   0  0  0  0  0  0  0  0  0  0  0  0
    3.4444    3.8317    1.0980 H   0  0  0  0  0  0  0  0  0  0  0  0
    4.8131    2.9046    0.5381 H   0  0  0  0  0  0  0  0  0  0  0  0
    4.5775    2.2547    2.7858 H   0  0  0  0  0  0  0  0  0  0  0  0
    2.8190    2.2283    2.7248 H   0  0  0  0  0  0  0  0  0  0  0  0
    3.7952   -0.0737    2.7777 H   0  0  0  0  0  0  0  0  0  0  0  0
    4.6910    0.2613    1.3166 H   0  0  0  0  0  0  0  0  0  0  0  0
    2.2538   -1.1505   -0.5120 H   0  0  0  0  0  0  0  0  0  0  0  0
    1.1322    0.1342    2.6525 H   0  0  0  0  0  0  0  0  0  0  0  0
    1.9173   -1.4434    2.4123 H   0  0  0  0  0  0  0  0  0  0  0  0
   -0.4917   -1.7743    2.9376 H   0  0  0  0  0  0  0  0  0  0  0  0
   -4.1079   -4.2102    2.0891 H   0  0  0  0  0  0  0  0  0  0  0  0
   -2.3983    1.0934    0.8067 H   0  0  0  0  0  0  0  0  0  0  0  0
   -1.3157    3.1790    0.0351 H   0  0  0  0  0  0  0  0  0  0  0  0
   -0.5542    3.3926   -2.3138 H   0  0  0  0  0  0  0  0  0  0  0  0
   -0.8948    1.5180   -3.9051 H   0  0  0  0  0  0  0  0  0  0  0  0
   -1.9832   -0.5735   -3.1469 H   0  0  0  0  0  0  0  0  0  0  0  0
   -6.4306   -2.6899   -1.1170 H   0  0  0  0  0  0  0  0  0  0  0  0
   -5.8164   -4.1622   -0.3049 H   0  0  0  0  0  0  0  0  0  0  0  0
   -5.3677   -3.8340   -2.0059 H   0  0  0  0  0  0  0  0  0  0  0  0
    1.3671    0.9646   -0.6441 H   0  0  0  0  0  0  0  0  0  0  0  0
    1.2295    1.8204    0.8760 H   0  0  0  0  0  0  0  0  0  0  0  0
  1  2  1  0
  2  3  1  0
  3  4  1  0
  4  5  1  0
  5  6  1  0
  6  7  1  0
  6  8  1  0
  8  9  1  0
  9 10  2  0
  9 11  1  0
 11 12  1  0
 12 13  2  0
 13 14  1  0
 14 15  1  0
 15 16  2  0
 16 17  1  0
 17 18  1  0
 18 19  2  0
 19 20  1  0
 20 21  2  0
 21 22  1  0
 22 23  2  0
 17 24  2  0
 24 25  1  0
 25 26  1  0
  6 27  1  0
 27  2  1  0
 16 12  1  0
 23 18  1  0
 25 15  1  0
  1 28  1  0
  1 29  1  0
  1 30  1  0
  3 31  1  0
  3 32  1  0
  4 33  1  0
  4 34  1  0
  5 35  1  0
  5 36  1  0
  7 37  1  0
  8 38  1  0
  8 39  1  0
 11 40  1  0
 14 41  1  0
 19 42  1  0
 20 43  1  0
 21 44  1  0
 22 45  1  0
 23 46  1  0
 26 47  1  0
 26 48  1  0
 26 49  1  0
 27 50  1  0
 27 51  1  0
M  END
$$$$
OCNT-2318448
     RDKit          3D

  0  0  0  0  0  0  0  0  0  0999 V3000
M  V30 BEGIN CTAB
M  V30 COUNTS 37 39 0 0 0
M  V30 BEGIN ATOM
M  V30 1 C -6.355122 -0.748870 -0.389385 0
M  V30 2 C -5.814127 0.051317 -1.559152 0
M  V30 3 O -4.416713 0.310718 -1.367130 0
M  V30 4 C -4.115878 1.441870 -0.681125 0
M  V30 5 O -4.908891 2.246242 -0.216989 0
M  V30 6 C -2.656050 1.616438 -0.536579 0 CFG=1
M  V30 7 C -2.053623 1.852142 0.828912 0
M  V30 8 C -1.830342 0.539401 0.131381 0 CFG=2
M  V30 9 C -0.432541 0.221717 -0.446995 0
M  V30 10 N -0.161151 0.107986 -1.723623 0
M  V30 11 N 1.177841 -0.187349 -1.835462 0
M  V30 12 C 1.704319 -0.245657 -0.623906 0
M  V30 13 C 3.099447 -0.540271 -0.290660 0
M  V30 14 C 3.962223 -0.989266 -1.301731 0
M  V30 15 C 5.299020 -1.286773 -1.030274 0
M  V30 16 C 5.798108 -1.132222 0.260035 0
M  V30 17 C 4.966161 -0.672156 1.290525 0
M  V30 18 C 5.502109 -0.518162 2.693312 0
M  V30 19 F 5.417669 -1.673193 3.407567 0
M  V30 20 F 4.824965 0.417475 3.418065 0
M  V30 21 F 6.810466 -0.144591 2.731909 0
M  V30 22 C 3.616351 -0.386694 1.005396 0
M  V30 23 N 0.700807 0.004966 0.279100 0
M  V30 24 H -5.781058 -1.672199 -0.258882 0
M  V30 25 H -6.267371 -0.184789 0.544622 0
M  V30 26 H -7.406322 -1.005435 -0.546353 0
M  V30 27 H -5.908843 -0.532077 -2.481242 0
M  V30 28 H -6.379256 0.978675 -1.704381 0
M  V30 29 H -2.205462 2.155905 -1.363634 0
M  V30 30 H -2.724385 1.871692 1.681687 0
M  V30 31 H -1.240482 2.566039 0.893527 0
M  V30 32 H -2.361433 -0.328768 0.508844 0
M  V30 33 H 3.590238 -1.114746 -2.318289 0
M  V30 34 H 5.947472 -1.637901 -1.829921 0
M  V30 35 H 6.842737 -1.368361 0.459640 0
M  V30 36 H 2.985195 -0.029911 1.817058 0
M  V30 37 H 0.773923 0.016806 1.283654 0
M  V30 END ATOM
M  V30 BEGIN BOND
M  V30 1 1 1 2
M  V30 2 1 2 3
M  V30 3 1 3 4
M  V30 4 2 4 5
M  V30 5 1 4 6
M  V30 6 1 6 7
M  V30 7 1 7 8
M  V30 8 1 8 9
M  V30 9 2 9 10
M  V30 10 1 10 11
M  V30 11 2 11 12
M  V30 12 1 12 13
M  V30 13 1 13 14
M  V30 14 2 14 15
M  V30 15 1 15 16
M  V30 16 2 16 17
M  V30 17 1 17 18
M  V30 18 1 18 19
M  V30 19 1 18 20
M  V30 20 1 18 21
M  V30 21 1 17 22
M  V30 22 1 12 23
M  V30 23 1 8 6
M  V30 24 1 23 9
M  V30 25 2 22 13
M  V30 26 1 1 24
M  V30 27 1 1 25
M  V30 28 1 1 26
M  V30 29 1 2 27
M  V30 30 1 2 28
M  V30 31 1 6 29 CFG=3
M  V30 32 1 7 30
M  V30 33 1 7 31
M  V30 34 1 8 32 CFG=1
M  V30 35 1 14 33
M  V30 36 1 15 34
M  V30 37 1 16 35
M  V30 38 1 22 36
M  V30 39 1 23 37
M  V30 END BOND
M  V30 BEGIN COLLECTION
M  V30 MDLV30/STERAC1 ATOMS=(2 6 8)
M  V30 END COLLECTION
M  V30 END CTAB
M  END
>  <_CXSMILES_Data>  (1315) 
|&1:5,7|

$$$$
OCNT-2318451
     RDKit          3D

 43 46  0  0  0  0  0  0  0  0999 V2000
    6.7808   -0.3645   -0.1272 O   0  0  0  0  0  0  0  0  0  0  0  0
    5.5987   -0.5739   -0.3883 C   0  0  0  0  0  0  0  0  0  0  0  0
    4.7445   -1.4936    0.4485 C   0  0  0  0  0  0  0  0  0  0  0  0
    3.5213   -1.9889   -0.3013 C   0  0  0  0  0  0  0  0  0  0  0  0
    2.7477   -0.8850   -1.0192 C   0  0  0  0  0  0  0  0  0  0  0  0
    1.7184   -0.2316   -0.2201 N   0  0  0  0  0  0  0  0  0  0  0  0
    1.9548    0.5895    0.8350 C   0  0  0  0  0  0  0  0  0  0  0  0
    3.0191    0.9242    1.3173 O   0  0  0  0  0  0  0  0  0  0  0  0
    0.6566    1.0599    1.3003 C   0  0  0  0  0  0  0  0  0  0  0  0
   -0.3451    0.4953    0.5068 C   0  0  0  0  0  0  0  0  0  0  0  0
    0.3771   -0.3270   -0.4923 C   0  0  0  0  0  0  0  0  0  0  0  0
   -0.1124   -0.9842   -1.3915 O   0  0  0  0  0  0  0  0  0  0  0  0
   -1.6909    0.7974    0.7284 C   0  0  0  0  0  0  0  0  0  0  0  0
   -2.8042    0.3038    0.0565 N   0  0  0  0  0  0  0  0  0  0  0  0
   -2.7927   -0.9870   -0.6461 C   0  0  0  0  0  0  0  0  0  0  0  0
   -4.2340   -1.5565   -0.7361 C   0  0  0  0  0  0  0  0  0  0  0  0
   -5.3172   -0.5739   -0.9796 N   0  0  0  0  0  0  0  0  0  0  0  0
   -4.7413    0.6772   -1.5054 C   0  0  0  0  0  0  0  0  0  0  0  0
   -3.7045    1.3172   -0.5473 C   0  0  0  0  0  0  0  0  0  0  0  0
   -1.9283    1.6996    1.7999 C   0  0  0  0  0  0  0  0  0  0  0  0
   -0.9059    2.2610    2.5891 C   0  0  0  0  0  0  0  0  0  0  0  0
    0.4171    1.9388    2.3391 C   0  0  0  0  0  0  0  0  0  0  0  0
    3.6399    0.1780   -1.6593 C   0  0  0  0  0  0  0  0  0  0  0  0
    3.1907    1.1144   -2.3194 O   0  0  0  0  0  0  0  0  0  0  0  0
    4.9889    0.0726   -1.4315 N   0  0  0  0  0  0  0  0  0  0  0  0
    5.3581   -2.3570    0.7315 H   0  0  0  0  0  0  0  0  0  0  0  0
    4.4716   -0.9780    1.3715 H   0  0  0  0  0  0  0  0  0  0  0  0
    2.8658   -2.5502    0.3747 H   0  0  0  0  0  0  0  0  0  0  0  0
    3.8692   -2.7031   -1.0607 H   0  0  0  0  0  0  0  0  0  0  0  0
    2.2404   -1.3711   -1.8635 H   0  0  0  0  0  0  0  0  0  0  0  0
   -2.1732   -1.7223   -0.1207 H   0  0  0  0  0  0  0  0  0  0  0  0
   -2.4160   -0.8499   -1.6653 H   0  0  0  0  0  0  0  0  0  0  0  0
   -4.4670   -2.0791    0.2000 H   0  0  0  0  0  0  0  0  0  0  0  0
   -4.2639   -2.3155   -1.5263 H   0  0  0  0  0  0  0  0  0  0  0  0
   -5.7223   -0.3549   -0.0678 H   0  0  0  0  0  0  0  0  0  0  0  0
   -4.2808    0.4800   -2.4817 H   0  0  0  0  0  0  0  0  0  0  0  0
   -5.5496    1.3939   -1.6890 H   0  0  0  0  0  0  0  0  0  0  0  0
   -4.2552    1.8340    0.2472 H   0  0  0  0  0  0  0  0  0  0  0  0
   -3.1247    2.0639   -1.1041 H   0  0  0  0  0  0  0  0  0  0  0  0
   -2.9543    1.9566    2.0622 H   0  0  0  0  0  0  0  0  0  0  0  0
   -1.1615    2.9412    3.3987 H   0  0  0  0  0  0  0  0  0  0  0  0
    1.2290    2.3566    2.9256 H   0  0  0  0  0  0  0  0  0  0  0  0
    5.5550    0.7921   -1.8611 H   0  0  0  0  0  0  0  0  0  0  0  0
  1  2  2  0
  2  3  1  0
  3  4  1  0
  4  5  1  0
  5  6  1  0
  6  7  1  0
  7  8  2  0
  7  9  1  0
  9 10  2  0
 10 11  1  0
 11 12  2  0
 10 13  1  0
 13 14  1  0
 14 15  1  0
 15 16  1  0
 16 17  1  0
 17 18  1  0
 18 19  1  0
 13 20  2  0
 20 21  1  0
 21 22  2  0
  5 23  1  0
 23 24  2  0
 23 25  1  0
 25  2  1  0
 11  6  1  0
 19 14  1  0
 22  9  1  0
  3 26  1  0
  3 27  1  0
  4 28  1  0
  4 29  1  0
  5 30  1  0
 15 31  1  0
 15 32  1  0
 16 33  1  0
 16 34  1  0
 17 35  1  0
 18 36  1  0
 18 37  1  0
 19 38  1  0
 19 39  1  0
 20 40  1  0
 21 41  1  0
 22 42  1  0
 25 43  1  0
M  END
$$$$
OCNT-2318453
     RDKit          3D

 35 37  0  0  0  0  0  0  0  0999 V2000
   -0.6285    0.0359   -3.0915 O   0  0  0  0  0  0  0  0  0  0  0  0
   -0.3163   -0.0296   -1.9056 C   0  0  0  0  0  0  0  0  0  0  0  0
   -1.1976   -0.4033   -0.9245 N   0  0  0  0  0  0  0  0  0  0  0  0
   -2.5129   -0.9067   -1.2414 C   0  0  0  0  0  0  0  0  0  0  0  0
   -3.4290   -0.8411   -0.0517 C   0  0  0  0  0  0  0  0  0  0  0  0
   -3.6684    0.3758    0.6053 C   0  0  0  0  0  0  0  0  0  0  0  0
   -4.5311    0.4225    1.6990 C   0  0  0  0  0  0  0  0  0  0  0  0
   -4.7362    1.6004    2.3061 F   0  0  0  0  0  0  0  0  0  0  0  0
   -5.1701   -0.7316    2.1497 C   0  0  0  0  0  0  0  0  0  0  0  0
   -6.2371   -0.6751    3.4991 Cl  0  0  0  0  0  0  0  0  0  0  0  0
   -4.9492   -1.9442    1.5022 C   0  0  0  0  0  0  0  0  0  0  0  0
   -4.0861   -1.9869    0.4095 C   0  0  0  0  0  0  0  0  0  0  0  0
   -3.8913   -3.1618   -0.2052 F   0  0  0  0  0  0  0  0  0  0  0  0
    1.0615    0.2918   -1.4364 C   0  0  0  0  0  0  0  0  0  0  0  0
    1.9544    0.7450   -2.3326 C   0  0  0  0  0  0  0  0  0  0  0  0
    3.2515    1.0903   -2.0536 N   0  0  0  0  0  0  0  0  0  0  0  0
    3.7748    0.9351   -0.7653 C   0  0  0  0  0  0  0  0  0  0  0  0
    5.0999    1.2721   -0.4785 C   0  0  0  0  0  0  0  0  0  0  0  0
    5.5960    1.1384    0.8218 C   0  0  0  0  0  0  0  0  0  0  0  0
    4.7702    0.6755    1.8472 C   0  0  0  0  0  0  0  0  0  0  0  0
    3.4423    0.3468    1.5778 C   0  0  0  0  0  0  0  0  0  0  0  0
    2.9478    0.4811    0.2759 C   0  0  0  0  0  0  0  0  0  0  0  0
    1.5332    0.1372   -0.0292 C   0  0  0  0  0  0  0  0  0  0  0  0
    0.7847   -0.2717    0.8565 O   0  0  0  0  0  0  0  0  0  0  0  0
   -0.8245   -0.5637    0.0124 H   0  0  0  0  0  0  0  0  0  0  0  0
   -2.3832   -1.9359   -1.5938 H   0  0  0  0  0  0  0  0  0  0  0  0
   -2.9424   -0.3302   -2.0690 H   0  0  0  0  0  0  0  0  0  0  0  0
   -3.1856    1.2920    0.2739 H   0  0  0  0  0  0  0  0  0  0  0  0
   -5.4379   -2.8553    1.8322 H   0  0  0  0  0  0  0  0  0  0  0  0
    1.6913    0.8761   -3.3806 H   0  0  0  0  0  0  0  0  0  0  0  0
    3.8738    1.3147   -2.8219 H   0  0  0  0  0  0  0  0  0  0  0  0
    5.7573    1.6422   -1.2607 H   0  0  0  0  0  0  0  0  0  0  0  0
    6.6299    1.3997    1.0363 H   0  0  0  0  0  0  0  0  0  0  0  0
    5.1606    0.5745    2.8573 H   0  0  0  0  0  0  0  0  0  0  0  0
    2.7982   -0.0097    2.3784 H   0  0  0  0  0  0  0  0  0  0  0  0
  1  2  2  0
  2  3  1  0
  3  4  1  0
  4  5  1  0
  5  6  2  0
  6  7  1  0
  7  8  1  0
  7  9  2  0
  9 10  1  0
  9 11  1  0
 11 12  2  0
 12 13  1  0
  2 14  1  0
 14 15  2  0
 15 16  1  0
 16 17  1  0
 17 18  2  0
 18 19  1  0
 19 20  2  0
 20 21  1  0
 21 22  2  0
 22 23  1  0
 23 24  2  0
 12  5  1  0
 23 14  1  0
 22 17  1  0
  3 25  1  0
  4 26  1  0
  4 27  1  0
  6 28  1  0
 11 29  1  0
 15 30  1  0
 16 31  1  0
 18 32  1  0
 19 33  1  0
 20 34  1  0
 21 35  1  0
M  END
$$$$
OCNT-2318467
     RDKit          3D

 39 42  0  0  0  0  0  0  0  0999 V2000
    5.6490    3.3153    0.5394 C   0  0  0  0  0  0  0  0  0  0  0  0
    5.1253    2.1225    1.2275 C   0  0  0  0  0  0  0  0  0  0  0  0
    3.8738    1.5825    1.3856 C   0  0  0  0  0  0  0  0  0  0  0  0
    4.0908    0.4148    2.1587 C   0  0  0  0  0  0  0  0  0  0  0  0
    3.0919   -0.5802    2.6394 C   0  0  0  0  0  0  0  0  0  0  0  0
    2.3081   -1.1672    1.5271 C   0  0  0  0  0  0  0  0  0  0  0  0
    1.1121   -0.8503    1.0867 N   0  0  0  0  0  0  0  0  0  0  0  0
    0.9281   -1.7359    0.0457 C   0  0  0  0  0  0  0  0  0  0  0  0
   -0.2943   -1.7605   -0.7536 C   0  0  0  0  0  0  0  0  0  0  0  0
   -0.4084   -2.6077   -1.8620 C   0  0  0  0  0  0  0  0  0  0  0  0
   -1.5810   -2.6253   -2.6124 C   0  0  0  0  0  0  0  0  0  0  0  0
   -2.6496   -1.7953   -2.2630 C   0  0  0  0  0  0  0  0  0  0  0  0
   -2.5715   -0.9328   -1.1580 C   0  0  0  0  0  0  0  0  0  0  0  0
   -3.6715   -0.1008   -0.8174 N   0  0  0  0  0  0  0  0  0  0  0  0
   -4.9076   -0.0707   -1.5747 C   0  0  0  0  0  0  0  0  0  0  0  0
   -5.6748    1.1043   -0.9898 C   0  0  0  0  0  0  0  0  0  0  0  0
   -5.0608    1.3046    0.2858 N   0  0  0  0  0  0  0  0  0  0  0  0
   -3.7961    0.7216    0.3195 C   0  0  0  0  0  0  0  0  0  0  0  0
   -3.0011    0.9559    1.2137 O   0  0  0  0  0  0  0  0  0  0  0  0
   -1.3808   -0.9303   -0.4158 C   0  0  0  0  0  0  0  0  0  0  0  0
    1.9733   -2.5577   -0.1551 N   0  0  0  0  0  0  0  0  0  0  0  0
    2.8839   -2.1883    0.8323 O   0  0  0  0  0  0  0  0  0  0  0  0
    5.3882    0.2734    2.4640 N   0  0  0  0  0  0  0  0  0  0  0  0
    6.0328    1.3501    1.8820 O   0  0  0  0  0  0  0  0  0  0  0  0
    5.7299    4.1535    1.2392 H   0  0  0  0  0  0  0  0  0  0  0  0
    6.6395    3.1206    0.1165 H   0  0  0  0  0  0  0  0  0  0  0  0
    4.9863    3.6141   -0.2794 H   0  0  0  0  0  0  0  0  0  0  0  0
    2.9409    1.9620    0.9905 H   0  0  0  0  0  0  0  0  0  0  0  0
    2.4090   -0.0859    3.3409 H   0  0  0  0  0  0  0  0  0  0  0  0
    3.5864   -1.3848    3.1982 H   0  0  0  0  0  0  0  0  0  0  0  0
    0.4124   -3.2628   -2.1478 H   0  0  0  0  0  0  0  0  0  0  0  0
   -1.6659   -3.2896   -3.4692 H   0  0  0  0  0  0  0  0  0  0  0  0
   -3.5447   -1.8545   -2.8745 H   0  0  0  0  0  0  0  0  0  0  0  0
   -5.4432   -1.0117   -1.4033 H   0  0  0  0  0  0  0  0  0  0  0  0
   -4.7298    0.0721   -2.6453 H   0  0  0  0  0  0  0  0  0  0  0  0
   -5.5237    2.0140   -1.5794 H   0  0  0  0  0  0  0  0  0  0  0  0
   -6.7446    0.9134   -0.8780 H   0  0  0  0  0  0  0  0  0  0  0  0
   -5.2414    2.0780    0.9124 H   0  0  0  0  0  0  0  0  0  0  0  0
   -1.2708   -0.2805    0.4480 H   0  0  0  0  0  0  0  0  0  0  0  0
  1  2  1  0
  2  3  2  0
  3  4  1  0
  4  5  1  0
  5  6  1  0
  6  7  2  0
  7  8  1  0
  8  9  1  0
  9 10  1  0
 10 11  2  0
 11 12  1  0
 12 13  2  0
 13 14  1  0
 14 15  1  0
 15 16  1  0
 16 17  1  0
 17 18  1  0
 18 19  2  0
 13 20  1  0
  8 21  2  0
 21 22  1  0
  4 23  2  0
 23 24  1  0
 24  2  1  0
 22  6  1  0
 20  9  2  0
 18 14  1  0
  1 25  1  0
  1 26  1  0
  1 27  1  0
  3 28  1  0
  5 29  1  0
  5 30  1  0
 10 31  1  0
 11 32  1  0
 12 33  1  0
 15 34  1  0
 15 35  1  0
 16 36  1  0
 16 37  1  0
 17 38  1  0
 20 39  1  0
M  END
$$$$
OCNT-2318468
     RDKit          3D

 45 47  0  0  0  0  0  0  0  0999 V2000
   -2.6562    2.7105   -0.5195 C   0  0  0  0  0  0  0  0  0  0  0  0
   -2.2224    1.5024   -1.3351 C   0  0  0  0  0  0  0  0  0  0  0  0
   -1.8794    0.3277   -0.4225 C   0  0  0  0  0  0  0  0  0  0  0  0
   -0.8273    0.4964    0.3146 N   0  0  0  0  0  0  0  0  0  0  0  0
   -0.4555   -0.4934    1.1827 N   0  0  0  0  0  0  0  0  0  0  0  0
    0.7684   -0.2610    1.9512 C   0  0  0  0  0  0  0  0  0  0  0  0
    2.0136   -0.6771    1.1910 C   0  0  0  0  0  0  0  0  0  0  0  0
    2.3873   -2.0335    1.2195 C   0  0  0  0  0  0  0  0  0  0  0  0
    3.5197   -2.4832    0.5447 C   0  0  0  0  0  0  0  0  0  0  0  0
    4.3040   -1.5837   -0.1689 C   0  0  0  0  0  0  0  0  0  0  0  0
    3.9620   -0.2252   -0.2142 C   0  0  0  0  0  0  0  0  0  0  0  0
    2.7997    0.2313    0.4469 C   0  0  0  0  0  0  0  0  0  0  0  0
    2.4854    1.7100    0.3914 C   0  0  0  0  0  0  0  0  0  0  0  0
    3.1841    2.3897   -0.7811 C   0  0  0  0  0  0  0  0  0  0  0  0
    4.5798    2.1018   -0.7391 O   0  0  0  0  0  0  0  0  0  0  0  0
    4.8238    0.7208   -1.0210 C   0  0  0  0  0  0  0  0  0  0  0  0
   -1.1590   -1.6738    1.3464 C   0  0  0  0  0  0  0  0  0  0  0  0
   -0.8476   -2.5476    2.1538 O   0  0  0  0  0  0  0  0  0  0  0  0
   -2.3457   -1.8512    0.4703 C   0  0  0  0  0  0  0  0  0  0  0  0
   -3.0587   -3.0762    0.6095 C   0  0  0  0  0  0  0  0  0  0  0  0
   -3.6879   -4.0499    0.6731 N   0  0  0  0  0  0  0  0  0  0  0  0
   -2.7264   -0.9023   -0.4079 C   0  0  0  0  0  0  0  0  0  0  0  0
   -3.8904   -1.0537   -1.3588 C   0  0  0  0  0  0  0  0  0  0  0  0
   -5.1541   -0.3743   -0.8495 C   0  0  0  0  0  0  0  0  0  0  0  0
   -2.9270    3.5387   -1.1815 H   0  0  0  0  0  0  0  0  0  0  0  0
   -1.8522    3.0542    0.1398 H   0  0  0  0  0  0  0  0  0  0  0  0
   -3.5211    2.4732    0.1081 H   0  0  0  0  0  0  0  0  0  0  0  0
   -1.3239    1.7536   -1.9119 H   0  0  0  0  0  0  0  0  0  0  0  0
   -2.9998    1.2614   -2.0588 H   0  0  0  0  0  0  0  0  0  0  0  0
    0.8064    0.7955    2.2391 H   0  0  0  0  0  0  0  0  0  0  0  0
    0.7220   -0.8174    2.8959 H   0  0  0  0  0  0  0  0  0  0  0  0
    1.7915   -2.7537    1.7795 H   0  0  0  0  0  0  0  0  0  0  0  0
    3.7905   -3.5352    0.5809 H   0  0  0  0  0  0  0  0  0  0  0  0
    5.1881   -1.9457   -0.6890 H   0  0  0  0  0  0  0  0  0  0  0  0
    2.8327    2.1564    1.3310 H   0  0  0  0  0  0  0  0  0  0  0  0
    1.4116    1.8879    0.2962 H   0  0  0  0  0  0  0  0  0  0  0  0
    2.7668    2.0736   -1.7455 H   0  0  0  0  0  0  0  0  0  0  0  0
    3.0605    3.4751   -0.7077 H   0  0  0  0  0  0  0  0  0  0  0  0
    4.6579    0.5470   -2.0908 H   0  0  0  0  0  0  0  0  0  0  0  0
    5.8812    0.5352   -0.8044 H   0  0  0  0  0  0  0  0  0  0  0  0
   -4.1193   -2.1121   -1.5317 H   0  0  0  0  0  0  0  0  0  0  0  0
   -3.6282   -0.6795   -2.3538 H   0  0  0  0  0  0  0  0  0  0  0  0
   -5.4624   -0.7867    0.1171 H   0  0  0  0  0  0  0  0  0  0  0  0
   -5.9746   -0.5300   -1.5575 H   0  0  0  0  0  0  0  0  0  0  0  0
   -5.0177    0.7039   -0.7299 H   0  0  0  0  0  0  0  0  0  0  0  0
  1  2  1  0
  2  3  1  0
  3  4  2  0
  4  5  1  0
  5  6  1  0
  6  7  1  0
  7  8  2  0
  8  9  1  0
  9 10  2  0
 10 11  1  0
 11 12  2  0
 12 13  1  0
 13 14  1  0
 14 15  1  0
 15 16  1  0
  5 17  1  0
 17 18  2  0
 17 19  1  0
 19 20  1  0
 20 21  3  0
 19 22  2  0
 22 23  1  0
 23 24  1  0
 22  3  1  0
 12  7  1  0
 16 11  1  0
  1 25  1  0
  1 26  1  0
  1 27  1  0
  2 28  1  0
  2 29  1  0
  6 30  1  0
  6 31  1  0
  8 32  1  0
  9 33  1  0
 10 34  1  0
 13 35  1  0
 13 36  1  0
 14 37  1  0
 14 38  1  0
 16 39  1  0
 16 40  1  0
 23 41  1  0
 23 42  1  0
 24 43  1  0
 24 44  1  0
 24 45  1  0
M  END
$$$$
OCNT-2318512
     RDKit          3D

 45 47  0  0  0  0  0  0  0  0999 V2000
    4.9052   -3.2002    1.5112 C   0  0  0  0  0  0  0  0  0  0  0  0
    4.2525   -1.9490    1.0044 C   0  0  0  0  0  0  0  0  0  0  0  0
    2.8711   -1.7590    1.1195 C   0  0  0  0  0  0  0  0  0  0  0  0
    2.2972   -0.5588    0.6800 C   0  0  0  0  0  0  0  0  0  0  0  0
    0.5481   -0.2946    0.8537 S   0  0  0  0  0  0  0  0  0  0  0  0
    0.3704    0.9723    1.5258 O   0  0  0  0  0  0  0  0  0  0  0  0
   -0.0460   -1.5177    1.3551 O   0  0  0  0  0  0  0  0  0  0  0  0
    0.0652   -0.1828   -0.7845 N   0  0  0  0  0  0  0  0  0  0  0  0
   -0.8508    0.9503   -1.0415 C   0  0  0  0  0  0  0  0  0  0  0  0
   -0.3633    2.1409   -1.5298 C   0  0  0  0  0  0  0  0  0  0  0  0
   -1.4770    2.9925   -1.6122 C   0  0  0  0  0  0  0  0  0  0  0  0
   -1.5130    4.4064   -2.0583 C   0  0  0  0  0  0  0  0  0  0  0  0
   -2.5979    2.3794   -1.2298 N   0  0  0  0  0  0  0  0  0  0  0  0
   -2.2261    1.1157   -0.8638 N   0  0  0  0  0  0  0  0  0  0  0  0
   -3.2438    0.2087   -0.4232 C   0  0  0  0  0  0  0  0  0  0  0  0
   -2.9975   -1.1417   -0.1537 C   0  0  0  0  0  0  0  0  0  0  0  0
   -4.0371   -1.9900    0.2580 C   0  0  0  0  0  0  0  0  0  0  0  0
   -5.3352   -1.4883    0.4033 C   0  0  0  0  0  0  0  0  0  0  0  0
   -6.4206   -2.3825    0.8239 N   0  0  0  0  0  0  0  0  0  0  0  0
   -6.1852   -3.6008    0.8468 O   0  0  0  0  0  0  0  0  0  0  0  0
   -7.5092   -1.8688    1.1241 O   0  0  0  0  0  0  0  0  0  0  0  0
   -5.6028   -0.1434    0.1425 C   0  0  0  0  0  0  0  0  0  0  0  0
   -4.5606    0.6951   -0.2709 C   0  0  0  0  0  0  0  0  0  0  0  0
    3.0846    0.4582    0.1272 C   0  0  0  0  0  0  0  0  0  0  0  0
    4.4661    0.2725   -0.0024 C   0  0  0  0  0  0  0  0  0  0  0  0
    5.3431    1.3485   -0.5700 C   0  0  0  0  0  0  0  0  0  0  0  0
    5.0325   -0.9241    0.4532 C   0  0  0  0  0  0  0  0  0  0  0  0
    6.3607   -1.0863    0.3742 F   0  0  0  0  0  0  0  0  0  0  0  0
    5.6311   -3.5795    0.7815 H   0  0  0  0  0  0  0  0  0  0  0  0
    4.1678   -3.9926    1.6804 H   0  0  0  0  0  0  0  0  0  0  0  0
    5.4180   -2.9982    2.4572 H   0  0  0  0  0  0  0  0  0  0  0  0
    2.2520   -2.5351    1.5667 H   0  0  0  0  0  0  0  0  0  0  0  0
   -0.2898   -1.0889   -1.0915 H   0  0  0  0  0  0  0  0  0  0  0  0
    0.6640    2.3710   -1.7744 H   0  0  0  0  0  0  0  0  0  0  0  0
   -0.5538    4.8992   -1.8650 H   0  0  0  0  0  0  0  0  0  0  0  0
   -1.7180    4.4610   -3.1320 H   0  0  0  0  0  0  0  0  0  0  0  0
   -2.2910    4.9676   -1.5280 H   0  0  0  0  0  0  0  0  0  0  0  0
   -2.0228   -1.5952   -0.2512 H   0  0  0  0  0  0  0  0  0  0  0  0
   -3.8133   -3.0363    0.4629 H   0  0  0  0  0  0  0  0  0  0  0  0
   -6.6042    0.2686    0.2489 H   0  0  0  0  0  0  0  0  0  0  0  0
   -4.7960    1.7414   -0.4690 H   0  0  0  0  0  0  0  0  0  0  0  0
    2.6238    1.3937   -0.1877 H   0  0  0  0  0  0  0  0  0  0  0  0
    4.7502    2.1207   -1.0719 H   0  0  0  0  0  0  0  0  0  0  0  0
    5.9231    1.8216    0.2285 H   0  0  0  0  0  0  0  0  0  0  0  0
    6.0283    0.9283   -1.3158 H   0  0  0  0  0  0  0  0  0  0  0  0
  1  2  1  0
  2  3  2  0
  3  4  1  0
  4  5  1  0
  5  6  2  0
  5  7  2  0
  5  8  1  0
  8  9  1  0
  9 10  2  0
 10 11  1  0
 11 12  1  0
 11 13  2  0
 13 14  1  0
 14 15  1  0
 15 16  1  0
 16 17  2  0
 17 18  1  0
 18 19  1  0
 19 20  2  0
 19 21  1  0
 18 22  2  0
 22 23  1  0
  4 24  2  0
 24 25  1  0
 25 26  1  0
 25 27  2  0
 27 28  1  0
 27  2  1  0
 14  9  1  0
 23 15  2  0
  1 29  1  0
  1 30  1  0
  1 31  1  0
  3 32  1  0
  8 33  1  0
 10 34  1  0
 12 35  1  0
 12 36  1  0
 12 37  1  0
 16 38  1  0
 17 39  1  0
 22 40  1  0
 23 41  1  0
 24 42  1  0
 26 43  1  0
 26 44  1  0
 26 45  1  0
M  CHG  2  19   1  21  -1
M  END
$$$$
OCNT-2318531
     RDKit          3D

 42 45  0  0  0  0  0  0  0  0999 V2000
   -3.8002    1.9902    1.9013 C   0  0  0  0  0  0  0  0  0  0  0  0
   -4.1345    1.4155    0.5225 C   0  0  0  0  0  0  0  0  0  0  0  0
   -4.0695    2.5031   -0.5525 C   0  0  0  0  0  0  0  0  0  0  0  0
   -3.2401    0.2362    0.1773 C   0  0  0  0  0  0  0  0  0  0  0  0
   -3.8175   -1.0349   -0.0362 C   0  0  0  0  0  0  0  0  0  0  0  0
   -3.0333   -2.1467   -0.3574 C   0  0  0  0  0  0  0  0  0  0  0  0
   -1.6640   -1.9801   -0.4513 C   0  0  0  0  0  0  0  0  0  0  0  0
   -0.6352   -3.0051   -0.8118 C   0  0  0  0  0  0  0  0  0  0  0  0
    0.6505   -2.3222   -0.3255 C   0  0  0  0  0  0  0  0  0  0  0  0
    0.4131   -0.8052   -0.4567 C   0  0  0  0  0  0  0  0  0  0  0  0
    1.1325   -0.0556    0.5589 N   0  0  0  0  0  0  0  0  0  0  0  0
    2.4940    0.0262    0.5650 C   0  0  0  0  0  0  0  0  0  0  0  0
    3.1480   -0.2945    1.6468 N   0  0  0  0  0  0  0  0  0  0  0  0
    4.5402   -0.2142    1.6737 C   0  0  0  0  0  0  0  0  0  0  0  0
    5.2125   -0.5357    2.6455 O   0  0  0  0  0  0  0  0  0  0  0  0
    5.1547    0.2850    0.4631 C   0  0  0  0  0  0  0  0  0  0  0  0
    4.3874    0.6098   -0.6169 C   0  0  0  0  0  0  0  0  0  0  0  0
    5.2124    1.0731   -1.5871 N   0  0  0  0  0  0  0  0  0  0  0  0
    6.5097    1.0501   -1.2019 N   0  0  0  0  0  0  0  0  0  0  0  0
    6.4641    0.5690    0.0527 C   0  0  0  0  0  0  0  0  0  0  0  0
    3.0549    0.4707   -0.6108 N   0  0  0  0  0  0  0  0  0  0  0  0
   -1.0737   -0.7291   -0.2442 C   0  0  0  0  0  0  0  0  0  0  0  0
   -1.8476    0.3823    0.0620 C   0  0  0  0  0  0  0  0  0  0  0  0
   -3.8569    1.2143    2.6730 H   0  0  0  0  0  0  0  0  0  0  0  0
   -4.5076    2.7823    2.1697 H   0  0  0  0  0  0  0  0  0  0  0  0
   -2.7930    2.4198    1.9335 H   0  0  0  0  0  0  0  0  0  0  0  0
   -5.1743    1.0649    0.5638 H   0  0  0  0  0  0  0  0  0  0  0  0
   -4.3206    2.0950   -1.5379 H   0  0  0  0  0  0  0  0  0  0  0  0
   -3.0727    2.9523   -0.6216 H   0  0  0  0  0  0  0  0  0  0  0  0
   -4.7810    3.3060   -0.3311 H   0  0  0  0  0  0  0  0  0  0  0  0
   -4.8954   -1.1638    0.0454 H   0  0  0  0  0  0  0  0  0  0  0  0
   -3.4948   -3.1147   -0.5262 H   0  0  0  0  0  0  0  0  0  0  0  0
   -0.7973   -3.9589   -0.3021 H   0  0  0  0  0  0  0  0  0  0  0  0
   -0.6178   -3.1566   -1.8960 H   0  0  0  0  0  0  0  0  0  0  0  0
    1.5304   -2.6531   -0.8875 H   0  0  0  0  0  0  0  0  0  0  0  0
    0.8251   -2.5973    0.7248 H   0  0  0  0  0  0  0  0  0  0  0  0
    0.6423   -0.4553   -1.4701 H   0  0  0  0  0  0  0  0  0  0  0  0
    0.8144   -0.3327    1.4872 H   0  0  0  0  0  0  0  0  0  0  0  0
    4.9893    1.4070   -2.5181 H   0  0  0  0  0  0  0  0  0  0  0  0
    7.3855    0.4532    0.6100 H   0  0  0  0  0  0  0  0  0  0  0  0
    2.4381    0.9021   -1.2877 H   0  0  0  0  0  0  0  0  0  0  0  0
   -1.3719    1.3476    0.2123 H   0  0  0  0  0  0  0  0  0  0  0  0
  1  2  1  0
  2  3  1  0
  2  4  1  0
  4  5  1  0
  5  6  2  0
  6  7  1  0
  7  8  1  0
  8  9  1  0
  9 10  1  0
 10 11  1  0
 11 12  1  0
 12 13  2  0
 13 14  1  0
 14 15  2  0
 14 16  1  0
 16 17  2  0
 17 18  1  0
 18 19  1  0
 19 20  2  0
 17 21  1  0
 10 22  1  0
 22 23  1  0
 23  4  2  0
 22  7  2  0
 21 12  1  0
 20 16  1  0
  1 24  1  0
  1 25  1  0
  1 26  1  0
  2 27  1  0
  3 28  1  0
  3 29  1  0
  3 30  1  0
  5 31  1  0
  6 32  1  0
  8 33  1  0
  8 34  1  0
  9 35  1  0
  9 36  1  0
 10 37  1  0
 11 38  1  0
 18 39  1  0
 20 40  1  0
 21 41  1  0
 23 42  1  0
M  END
$$$$
OCNT-2318540
     RDKit          3D

 41 43  0  0  0  0  0  0  0  0999 V2000
    5.0759    0.5607   -1.4289 C   0  0  0  0  0  0  0  0  0  0  0  0
    5.5619   -0.3562   -0.3709 C   0  0  0  0  0  0  0  0  0  0  0  0
    6.4410   -1.3188   -0.6753 N   0  0  0  0  0  0  0  0  0  0  0  0
    6.6736   -2.0027    0.5023 O   0  0  0  0  0  0  0  0  0  0  0  0
    5.9397   -1.4501    1.4960 C   0  0  0  0  0  0  0  0  0  0  0  0
    5.2111   -0.3907    1.0076 C   0  0  0  0  0  0  0  0  0  0  0  0
    4.2779    0.4968    1.7540 C   0  0  0  0  0  0  0  0  0  0  0  0
    2.8530    0.1356    1.5321 C   0  0  0  0  0  0  0  0  0  0  0  0
    2.1397   -0.5618    2.4173 N   0  0  0  0  0  0  0  0  0  0  0  0
    0.8925   -0.6654    1.8104 O   0  0  0  0  0  0  0  0  0  0  0  0
    0.9494   -0.0098    0.5923 C   0  0  0  0  0  0  0  0  0  0  0  0
   -0.1498    0.0775   -0.3127 C   0  0  0  0  0  0  0  0  0  0  0  0
    0.0100    0.6615   -1.5145 C   0  0  0  0  0  0  0  0  0  0  0  0
   -1.0774    0.7604   -2.4527 C   0  0  0  0  0  0  0  0  0  0  0  0
   -2.2781    0.2660   -2.1373 C   0  0  0  0  0  0  0  0  0  0  0  0
   -2.5034   -0.3424   -0.9156 N   0  0  0  0  0  0  0  0  0  0  0  0
   -3.8381   -0.8642   -0.6103 C   0  0  0  0  0  0  0  0  0  0  0  0
   -4.6634    0.0626    0.3039 C   0  0  0  0  0  0  0  0  0  0  0  0
   -5.9419   -0.6520    0.7468 C   0  0  0  0  0  0  0  0  0  0  0  0
   -5.0200    1.3813   -0.3846 C   0  0  0  0  0  0  0  0  0  0  0  0
   -1.4968   -0.4773    0.0533 C   0  0  0  0  0  0  0  0  0  0  0  0
   -1.6930   -1.0122    1.1426 O   0  0  0  0  0  0  0  0  0  0  0  0
    2.1611    0.5059    0.4078 N   0  0  0  0  0  0  0  0  0  0  0  0
    4.1280    0.1976   -1.8384 H   0  0  0  0  0  0  0  0  0  0  0  0
    4.9169    1.5684   -1.0326 H   0  0  0  0  0  0  0  0  0  0  0  0
    5.7958    0.6376   -2.2505 H   0  0  0  0  0  0  0  0  0  0  0  0
    6.0430   -1.9156    2.4654 H   0  0  0  0  0  0  0  0  0  0  0  0
    4.4362    1.5377    1.4465 H   0  0  0  0  0  0  0  0  0  0  0  0
    4.5091    0.4598    2.8262 H   0  0  0  0  0  0  0  0  0  0  0  0
    0.9664    1.0761   -1.8231 H   0  0  0  0  0  0  0  0  0  0  0  0
   -0.8994    1.2390   -3.4105 H   0  0  0  0  0  0  0  0  0  0  0  0
   -3.1136    0.3302   -2.8286 H   0  0  0  0  0  0  0  0  0  0  0  0
   -3.7058   -1.8355   -0.1161 H   0  0  0  0  0  0  0  0  0  0  0  0
   -4.3765   -1.0650   -1.5454 H   0  0  0  0  0  0  0  0  0  0  0  0
   -4.0818    0.2989    1.2035 H   0  0  0  0  0  0  0  0  0  0  0  0
   -6.5286   -0.0188    1.4209 H   0  0  0  0  0  0  0  0  0  0  0  0
   -6.5721   -0.9082   -0.1117 H   0  0  0  0  0  0  0  0  0  0  0  0
   -5.7048   -1.5773    1.2823 H   0  0  0  0  0  0  0  0  0  0  0  0
   -5.5622    1.2077   -1.3202 H   0  0  0  0  0  0  0  0  0  0  0  0
   -4.1227    1.9648   -0.6122 H   0  0  0  0  0  0  0  0  0  0  0  0
   -5.6528    1.9981    0.2626 H   0  0  0  0  0  0  0  0  0  0  0  0
  1  2  1  0
  2  3  2  0
  3  4  1  0
  4  5  1  0
  5  6  2  0
  6  7  1  0
  7  8  1  0
  8  9  2  0
  9 10  1  0
 10 11  1  0
 11 12  1  0
 12 13  2  0
 13 14  1  0
 14 15  2  0
 15 16  1  0
 16 17  1  0
 17 18  1  0
 18 19  1  0
 18 20  1  0
 16 21  1  0
 21 22  2  0
 11 23  2  0
  6  2  1  0
 23  8  1  0
 21 12  1  0
  1 24  1  0
  1 25  1  0
  1 26  1  0
  5 27  1  0
  7 28  1  0
  7 29  1  0
 13 30  1  0
 14 31  1  0
 15 32  1  0
 17 33  1  0
 17 34  1  0
 18 35  1  0
 19 36  1  0
 19 37  1  0
 19 38  1  0
 20 39  1  0
 20 40  1  0
 20 41  1  0
M  END
$$$$
OCNT-2318549
     RDKit          3D

 36 38  0  0  0  0  0  0  0  0999 V2000
   -3.9081   -1.0299   -2.5124 C   0  0  0  0  0  0  0  0  0  0  0  0
   -3.6163   -0.6633   -1.1692 O   0  0  0  0  0  0  0  0  0  0  0  0
   -2.3017   -0.4844   -0.8336 C   0  0  0  0  0  0  0  0  0  0  0  0
   -1.2521   -0.4752   -1.7551 C   0  0  0  0  0  0  0  0  0  0  0  0
    0.0779   -0.3284   -1.3318 C   0  0  0  0  0  0  0  0  0  0  0  0
    0.4026   -0.1990    0.0181 C   0  0  0  0  0  0  0  0  0  0  0  0
    1.7117   -0.0495    0.5066 N   0  0  0  0  0  0  0  0  0  0  0  0
    2.9595    0.0472   -0.1263 C   0  0  0  0  0  0  0  0  0  0  0  0
    3.0855    0.0646   -1.4804 N   0  0  0  0  0  0  0  0  0  0  0  0
    4.3107    0.1641   -2.0359 C   0  0  0  0  0  0  0  0  0  0  0  0
    5.4964    0.2552   -1.4122 N   0  0  0  0  0  0  0  0  0  0  0  0
    5.3369    0.2368   -0.0818 C   0  0  0  0  0  0  0  0  0  0  0  0
    4.1488    0.1391    0.6172 C   0  0  0  0  0  0  0  0  0  0  0  0
    4.5482    0.1647    1.9719 C   0  0  0  0  0  0  0  0  0  0  0  0
    5.8735    0.2706    2.1256 N   0  0  0  0  0  0  0  0  0  0  0  0
    6.3265    0.3131    0.8547 N   0  0  0  0  0  0  0  0  0  0  0  0
   -0.6585   -0.1964    0.9352 C   0  0  0  0  0  0  0  0  0  0  0  0
   -1.9943   -0.3135    0.5229 C   0  0  0  0  0  0  0  0  0  0  0  0
   -2.8978   -0.3046    1.5564 O   0  0  0  0  0  0  0  0  0  0  0  0
   -4.0924    0.4536    1.3165 C   0  0  0  0  0  0  0  0  0  0  0  0
   -4.6328    1.0104    2.6229 C   0  0  0  0  0  0  0  0  0  0  0  0
   -3.7417    1.8301    3.2258 F   0  0  0  0  0  0  0  0  0  0  0  0
   -4.9551    0.0311    3.4969 F   0  0  0  0  0  0  0  0  0  0  0  0
   -5.7563    1.7348    2.3998 F   0  0  0  0  0  0  0  0  0  0  0  0
   -4.9838   -1.2210   -2.5798 H   0  0  0  0  0  0  0  0  0  0  0  0
   -3.6729   -0.2126   -3.2013 H   0  0  0  0  0  0  0  0  0  0  0  0
   -3.3890   -1.9510   -2.7956 H   0  0  0  0  0  0  0  0  0  0  0  0
   -1.4231   -0.5839   -2.8212 H   0  0  0  0  0  0  0  0  0  0  0  0
    0.8511   -0.3326   -2.0935 H   0  0  0  0  0  0  0  0  0  0  0  0
    1.7717   -0.0450    1.5156 H   0  0  0  0  0  0  0  0  0  0  0  0
    4.3391    0.1723   -3.1211 H   0  0  0  0  0  0  0  0  0  0  0  0
    3.9290    0.1102    2.8578 H   0  0  0  0  0  0  0  0  0  0  0  0
    7.3216    0.3935    0.6851 H   0  0  0  0  0  0  0  0  0  0  0  0
   -0.4593   -0.0901    1.9992 H   0  0  0  0  0  0  0  0  0  0  0  0
   -4.8520   -0.2057    0.8844 H   0  0  0  0  0  0  0  0  0  0  0  0
   -3.9034    1.2945    0.6380 H   0  0  0  0  0  0  0  0  0  0  0  0
  1  2  1  0
  2  3  1  0
  3  4  1  0
  4  5  2  0
  5  6  1  0
  6  7  1  0
  7  8  1  0
  8  9  1  0
  9 10  2  0
 10 11  1  0
 11 12  2  0
 12 13  1  0
 13 14  1  0
 14 15  2  0
 15 16  1  0
  6 17  2  0
 17 18  1  0
 18 19  1  0
 19 20  1  0
 20 21  1  0
 21 22  1  0
 21 23  1  0
 21 24  1  0
 18  3  2  0
 13  8  2  0
 16 12  1  0
  1 25  1  0
  1 26  1  0
  1 27  1  0
  4 28  1  0
  5 29  1  0
  7 30  1  0
 10 31  1  0
 14 32  1  0
 16 33  1  0
 17 34  1  0
 20 35  1  0
 20 36  1  0
M  END
$$$$
OCNT-2318553
     RDKit          3D

 42 45  0  0  0  0  0  0  0  0999 V2000
    0.4596   -1.6324    1.5239 O   0  0  0  0  0  0  0  0  0  0  0  0
    0.1566   -0.4397    1.5419 C   0  0  0  0  0  0  0  0  0  0  0  0
    1.0612    0.6160    2.1665 C   0  0  0  0  0  0  0  0  0  0  0  0
    2.3673    0.6989    1.4426 C   0  0  0  0  0  0  0  0  0  0  0  0
    3.1172    1.7916    1.0564 C   0  0  0  0  0  0  0  0  0  0  0  0
    4.2904    1.3146    0.4087 C   0  0  0  0  0  0  0  0  0  0  0  0
    5.4016    1.9414   -0.1872 C   0  0  0  0  0  0  0  0  0  0  0  0
    6.4034    1.1453   -0.7509 C   0  0  0  0  0  0  0  0  0  0  0  0
    7.7681    1.9007   -1.4839 Cl  0  0  0  0  0  0  0  0  0  0  0  0
    6.3185   -0.2451   -0.7316 C   0  0  0  0  0  0  0  0  0  0  0  0
    5.2234   -0.8863   -0.1439 C   0  0  0  0  0  0  0  0  0  0  0  0
    4.2279   -0.0786    0.4183 C   0  0  0  0  0  0  0  0  0  0  0  0
    3.0585   -0.4267    1.0537 N   0  0  0  0  0  0  0  0  0  0  0  0
   -1.0066    0.0557    1.0031 N   0  0  0  0  0  0  0  0  0  0  0  0
   -1.8957   -0.7768    0.2007 C   0  0  1  0  0  0  0  0  0  0  0  0
   -2.6611   -1.7878    1.0655 C   0  0  0  0  0  0  0  0  0  0  0  0
   -3.6806   -2.5366    0.2139 C   0  0  0  0  0  0  0  0  0  0  0  0
   -4.7294   -1.5779   -0.3442 C   0  0  0  0  0  0  0  0  0  0  0  0
   -4.1469   -0.3053   -0.8969 C   0  0  0  0  0  0  0  0  0  0  0  0
   -4.9450    0.5453   -1.6694 C   0  0  0  0  0  0  0  0  0  0  0  0
   -4.4295    1.7502   -2.1330 C   0  0  0  0  0  0  0  0  0  0  0  0
   -3.1289    2.0769   -1.7978 C   0  0  0  0  0  0  0  0  0  0  0  0
   -2.3285    1.2919   -1.0459 N   0  0  0  0  0  0  0  0  0  0  0  0
   -2.8425    0.1071   -0.6047 C   0  0  0  0  0  0  0  0  0  0  0  0
    1.2267    0.3407    3.2142 H   0  0  0  0  0  0  0  0  0  0  0  0
    0.5654    1.5932    2.1631 H   0  0  0  0  0  0  0  0  0  0  0  0
    2.8538    2.8287    1.2207 H   0  0  0  0  0  0  0  0  0  0  0  0
    5.4747    3.0239   -0.2075 H   0  0  0  0  0  0  0  0  0  0  0  0
    7.1082   -0.8457   -1.1764 H   0  0  0  0  0  0  0  0  0  0  0  0
    5.1529   -1.9692   -0.1268 H   0  0  0  0  0  0  0  0  0  0  0  0
    2.7300   -1.3769    1.1897 H   0  0  0  0  0  0  0  0  0  0  0  0
   -1.0033    1.0295    0.7113 H   0  0  0  0  0  0  0  0  0  0  0  0
   -1.2726   -1.3219   -0.5208 H   0  0  0  0  0  0  0  0  0  0  0  0
   -1.9704   -2.5068    1.5195 H   0  0  0  0  0  0  0  0  0  0  0  0
   -3.1712   -1.2779    1.8936 H   0  0  0  0  0  0  0  0  0  0  0  0
   -3.1646   -3.0444   -0.6110 H   0  0  0  0  0  0  0  0  0  0  0  0
   -4.1731   -3.3141    0.8086 H   0  0  0  0  0  0  0  0  0  0  0  0
   -5.4289   -1.3084    0.4573 H   0  0  0  0  0  0  0  0  0  0  0  0
   -5.3032   -2.0949   -1.1226 H   0  0  0  0  0  0  0  0  0  0  0  0
   -5.9706    0.2736   -1.9080 H   0  0  0  0  0  0  0  0  0  0  0  0
   -5.0307    2.4204   -2.7369 H   0  0  0  0  0  0  0  0  0  0  0  0
   -2.6818    3.0076   -2.1355 H   0  0  0  0  0  0  0  0  0  0  0  0
  1  2  2  0
  2  3  1  0
  3  4  1  0
  4  5  2  0
  5  6  1  0
  6  7  2  0
  7  8  1  0
  8  9  1  0
  8 10  2  0
 10 11  1  0
 11 12  2  0
 12 13  1  0
  2 14  1  0
 14 15  1  0
 15 16  1  0
 16 17  1  0
 17 18  1  0
 18 19  1  0
 19 20  1  0
 20 21  2  0
 21 22  1  0
 22 23  2  0
 23 24  1  0
 13  4  1  0
 24 15  1  0
 12  6  1  0
 24 19  2  0
  3 25  1  0
  3 26  1  0
  5 27  1  0
  7 28  1  0
 10 29  1  0
 11 30  1  0
 13 31  1  0
 14 32  1  0
 15 33  1  6
 16 34  1  0
 16 35  1  0
 17 36  1  0
 17 37  1  0
 18 38  1  0
 18 39  1  0
 20 40  1  0
 21 41  1  0
 22 42  1  0
M  END
$$$$
OCNT-2318557
     RDKit          3D

 41 45  0  0  0  0  0  0  0  0999 V2000
    5.3663    0.1623   -2.0947 C   0  0  0  0  0  0  0  0  0  0  0  0
    5.0954    0.4965   -0.6755 C   0  0  0  0  0  0  0  0  0  0  0  0
    6.0740    0.9639    0.1109 N   0  0  0  0  0  0  0  0  0  0  0  0
    5.4705    1.1474    1.2973 N   0  0  0  0  0  0  0  0  0  0  0  0
    4.1415    0.8211    1.3098 C   0  0  0  0  0  0  0  0  0  0  0  0
    3.1817    0.8689    2.3231 C   0  0  0  0  0  0  0  0  0  0  0  0
    1.8850    0.4527    1.9912 C   0  0  0  0  0  0  0  0  0  0  0  0
    1.5580    0.0080    0.7014 C   0  0  0  0  0  0  0  0  0  0  0  0
    0.2043   -0.4246    0.3775 C   0  0  0  0  0  0  0  0  0  0  0  0
   -0.9399    0.1275    0.9251 C   0  0  0  0  0  0  0  0  0  0  0  0
   -2.0198   -0.4884    0.3544 N   0  0  0  0  0  0  0  0  0  0  0  0
   -1.6084   -1.4872   -0.4997 C   0  0  0  0  0  0  0  0  0  0  0  0
   -0.2271   -1.4369   -0.5292 C   0  0  0  0  0  0  0  0  0  0  0  0
   -2.5230   -2.3640   -1.1929 C   0  0  0  0  0  0  0  0  0  0  0  0
   -2.2036   -3.1765   -2.0533 O   0  0  0  0  0  0  0  0  0  0  0  0
   -3.8410   -2.2359   -0.8087 N   0  0  0  0  0  0  0  0  0  0  0  0
   -4.2043   -1.5582    0.4267 C   0  0  0  0  0  0  0  0  0  0  0  0
   -3.4372   -0.2324    0.6297 C   0  0  0  0  0  0  0  0  0  0  0  0
   -4.0586    0.8853   -0.1862 C   0  0  0  0  0  0  0  0  0  0  0  0
   -3.6883    1.1791   -1.6216 C   0  0  0  0  0  0  0  0  0  0  0  0
   -3.3287    2.1612   -0.5392 C   0  0  0  0  0  0  0  0  0  0  0  0
    2.5531   -0.0300   -0.2918 C   0  0  0  0  0  0  0  0  0  0  0  0
    3.8617    0.3853    0.0215 C   0  0  0  0  0  0  0  0  0  0  0  0
    4.7399    0.7701   -2.7554 H   0  0  0  0  0  0  0  0  0  0  0  0
    6.4130    0.3442   -2.3596 H   0  0  0  0  0  0  0  0  0  0  0  0
    5.1479   -0.8932   -2.2860 H   0  0  0  0  0  0  0  0  0  0  0  0
    6.0258    1.5022    2.0666 H   0  0  0  0  0  0  0  0  0  0  0  0
    3.4211    1.2072    3.3255 H   0  0  0  0  0  0  0  0  0  0  0  0
    1.1266    0.4680    2.7712 H   0  0  0  0  0  0  0  0  0  0  0  0
   -1.0729    0.9266    1.6427 H   0  0  0  0  0  0  0  0  0  0  0  0
    0.3994   -2.0887   -1.1258 H   0  0  0  0  0  0  0  0  0  0  0  0
   -4.4454   -2.9485   -1.1977 H   0  0  0  0  0  0  0  0  0  0  0  0
   -5.2880   -1.4038    0.4176 H   0  0  0  0  0  0  0  0  0  0  0  0
   -3.9673   -2.2532    1.2418 H   0  0  0  0  0  0  0  0  0  0  0  0
   -3.5035    0.0485    1.6885 H   0  0  0  0  0  0  0  0  0  0  0  0
   -5.1063    1.0050    0.0797 H   0  0  0  0  0  0  0  0  0  0  0  0
   -2.8773    0.6380   -2.0956 H   0  0  0  0  0  0  0  0  0  0  0  0
   -4.4853    1.4473   -2.3068 H   0  0  0  0  0  0  0  0  0  0  0  0
   -2.2780    2.2761   -0.3018 H   0  0  0  0  0  0  0  0  0  0  0  0
   -3.8835    3.0928   -0.4998 H   0  0  0  0  0  0  0  0  0  0  0  0
    2.3225   -0.3636   -1.2991 H   0  0  0  0  0  0  0  0  0  0  0  0
  1  2  1  0
  2  3  2  0
  3  4  1  0
  4  5  1  0
  5  6  2  0
  6  7  1  0
  7  8  2  0
  8  9  1  0
  9 10  2  0
 10 11  1  0
 11 12  1  0
 12 13  2  0
 12 14  1  0
 14 15  2  0
 14 16  1  0
 16 17  1  0
 17 18  1  0
 18 19  1  0
 19 20  1  0
 20 21  1  0
  8 22  1  0
 22 23  2  0
 23  2  1  0
 23  5  1  0
 13  9  1  0
 21 19  1  0
 18 11  1  0
  1 24  1  0
  1 25  1  0
  1 26  1  0
  4 27  1  0
  6 28  1  0
  7 29  1  0
 10 30  1  0
 13 31  1  0
 16 32  1  0
 17 33  1  0
 17 34  1  0
 18 35  1  0
 19 36  1  0
 20 37  1  0
 20 38  1  0
 21 39  1  0
 21 40  1  0
 22 41  1  0
M  END
$$$$
OCNT-2318566
     RDKit          3D

 35 37  0  0  0  0  0  0  0  0999 V2000
    0.6386    0.2848   -1.3776 O   0  0  0  0  0  0  0  0  0  0  0  0
   -0.0853   -0.5612   -0.8662 C   0  0  0  0  0  0  0  0  0  0  0  0
   -1.5429   -0.6683   -1.2704 C   0  0  0  0  0  0  0  0  0  0  0  0
   -2.3461    0.4824   -0.7399 C   0  0  0  0  0  0  0  0  0  0  0  0
   -2.3724    1.6970   -1.4147 C   0  0  0  0  0  0  0  0  0  0  0  0
   -3.1176    2.7422   -0.8921 C   0  0  0  0  0  0  0  0  0  0  0  0
   -3.8062    2.5540    0.2977 C   0  0  0  0  0  0  0  0  0  0  0  0
   -3.7317    1.3175    0.9383 C   0  0  0  0  0  0  0  0  0  0  0  0
   -4.4902    1.1264    2.2434 C   0  0  0  0  0  0  0  0  0  0  0  0
   -4.2234   -0.0467    2.8846 F   0  0  0  0  0  0  0  0  0  0  0  0
   -4.2221    2.1111    3.1526 F   0  0  0  0  0  0  0  0  0  0  0  0
   -5.8454    1.1531    2.0688 F   0  0  0  0  0  0  0  0  0  0  0  0
   -3.0130    0.2812    0.4196 N   0  0  0  0  0  0  0  0  0  0  0  0
    0.2656   -1.4875    0.0830 N   0  0  0  0  0  0  0  0  0  0  0  0
    1.4869   -1.7164    0.6664 C   0  0  0  0  0  0  0  0  0  0  0  0
    1.5075   -2.6820    1.5985 N   0  0  0  0  0  0  0  0  0  0  0  0
    2.7713   -2.6952    2.0435 N   0  0  0  0  0  0  0  0  0  0  0  0
    3.5770   -1.7919    1.4229 C   0  0  0  0  0  0  0  0  0  0  0  0
    2.7768   -1.1566    0.5042 C   0  0  0  0  0  0  0  0  0  0  0  0
    3.2628   -0.0328   -0.4358 C   0  0  0  0  0  0  0  0  0  0  0  0
    3.5466   -0.3587   -1.8802 C   0  0  0  0  0  0  0  0  0  0  0  0
    4.6795   -0.0284   -0.9579 C   0  0  0  0  0  0  0  0  0  0  0  0
   -1.5939   -0.7079   -2.3633 H   0  0  0  0  0  0  0  0  0  0  0  0
   -1.9788   -1.6092   -0.9163 H   0  0  0  0  0  0  0  0  0  0  0  0
   -1.8143    1.8316   -2.3325 H   0  0  0  0  0  0  0  0  0  0  0  0
   -3.1565    3.6943   -1.4141 H   0  0  0  0  0  0  0  0  0  0  0  0
   -4.3906    3.3645    0.7206 H   0  0  0  0  0  0  0  0  0  0  0  0
   -0.4421   -2.0930    0.4721 H   0  0  0  0  0  0  0  0  0  0  0  0
    3.0124   -3.3504    2.7786 H   0  0  0  0  0  0  0  0  0  0  0  0
    4.6196   -1.6855    1.6811 H   0  0  0  0  0  0  0  0  0  0  0  0
    2.8285    0.9389   -0.2211 H   0  0  0  0  0  0  0  0  0  0  0  0
    3.2465    0.3777   -2.6160 H   0  0  0  0  0  0  0  0  0  0  0  0
    3.4351   -1.3842   -2.2103 H   0  0  0  0  0  0  0  0  0  0  0  0
    5.3505   -0.8328   -0.6894 H   0  0  0  0  0  0  0  0  0  0  0  0
    5.1674    0.9321   -1.0793 H   0  0  0  0  0  0  0  0  0  0  0  0
  1  2  2  0
  2  3  1  0
  3  4  1  0
  4  5  2  0
  5  6  1  0
  6  7  2  0
  7  8  1  0
  8  9  1  0
  9 10  1  0
  9 11  1  0
  9 12  1  0
  8 13  2  0
  2 14  1  0
 14 15  1  0
 15 16  2  0
 16 17  1  0
 17 18  1  0
 18 19  2  0
 19 20  1  0
 20 21  1  0
 21 22  1  0
 13  4  1  0
 19 15  1  0
 22 20  1  0
  3 23  1  0
  3 24  1  0
  5 25  1  0
  6 26  1  0
  7 27  1  0
 14 28  1  0
 17 29  1  0
 18 30  1  0
 20 31  1  0
 21 32  1  0
 21 33  1  0
 22 34  1  0
 22 35  1  0
M  END
$$$$
OCNT-2318569
     RDKit          3D

 49 53  0  0  0  0  0  0  0  0999 V2000
   -2.6781   -0.2528   -3.7919 C   0  0  0  0  0  0  0  0  0  0  0  0
   -2.0498   -1.2527   -2.8223 C   0  0  0  0  0  0  0  0  0  0  0  0
   -2.8083   -1.3315   -1.4984 C   0  0  0  0  0  0  0  0  0  0  0  0
   -2.2276   -0.1800   -0.6431 C   0  0  0  0  0  0  0  0  0  0  0  0
   -2.1555   -0.5642    0.8174 C   0  0  0  0  0  0  0  0  0  0  0  0
   -1.3097   -1.5681    1.3052 C   0  0  0  0  0  0  0  0  0  0  0  0
   -1.2989   -1.8728    2.6631 C   0  0  0  0  0  0  0  0  0  0  0  0
   -2.1486   -1.1697    3.4987 C   0  0  0  0  0  0  0  0  0  0  0  0
   -2.9892   -0.2040    3.0723 N   0  0  0  0  0  0  0  0  0  0  0  0
   -2.9681    0.0777    1.7492 C   0  0  0  0  0  0  0  0  0  0  0  0
   -0.9414    0.1549   -1.3012 N   0  0  0  0  0  0  0  0  0  0  0  0
    0.1407    0.6274   -0.5637 C   0  0  0  0  0  0  0  0  0  0  0  0
    1.2439   -0.1460   -0.5365 N   0  0  0  0  0  0  0  0  0  0  0  0
    2.2641    0.2368    0.2467 C   0  0  0  0  0  0  0  0  0  0  0  0
    3.4503   -0.6382    0.2999 C   0  0  0  0  0  0  0  0  0  0  0  0
    3.5422   -1.7997   -0.4822 C   0  0  0  0  0  0  0  0  0  0  0  0
    4.6758   -2.5929   -0.3969 C   0  0  0  0  0  0  0  0  0  0  0  0
    5.7228   -2.3204    0.4065 N   0  0  0  0  0  0  0  0  0  0  0  0
    5.6314   -1.2031    1.1551 C   0  0  0  0  0  0  0  0  0  0  0  0
    4.5395   -0.3495    1.1361 C   0  0  0  0  0  0  0  0  0  0  0  0
    2.2755    1.3492    0.9951 N   0  0  0  0  0  0  0  0  0  0  0  0
    1.2056    2.1431    0.9256 C   0  0  0  0  0  0  0  0  0  0  0  0
    1.2155    3.3193    1.6661 C   0  0  0  0  0  0  0  0  0  0  0  0
    0.1560    4.2285    1.6275 C   0  0  0  0  0  0  0  0  0  0  0  0
   -0.9400    3.9690    0.8193 C   0  0  0  0  0  0  0  0  0  0  0  0
   -0.9726    2.7933    0.0727 C   0  0  0  0  0  0  0  0  0  0  0  0
    0.0870    1.8500    0.1349 C   0  0  0  0  0  0  0  0  0  0  0  0
   -0.6579   -0.8181   -2.3577 C   0  0  0  0  0  0  0  0  0  0  0  0
   -2.0848   -0.1857   -4.7098 H   0  0  0  0  0  0  0  0  0  0  0  0
   -3.6889   -0.5712   -4.0678 H   0  0  0  0  0  0  0  0  0  0  0  0
   -2.7486    0.7527   -3.3644 H   0  0  0  0  0  0  0  0  0  0  0  0
   -2.0093   -2.2321   -3.3119 H   0  0  0  0  0  0  0  0  0  0  0  0
   -2.6201   -2.3107   -1.0404 H   0  0  0  0  0  0  0  0  0  0  0  0
   -3.8936   -1.2403   -1.6182 H   0  0  0  0  0  0  0  0  0  0  0  0
   -2.8927    0.6837   -0.7637 H   0  0  0  0  0  0  0  0  0  0  0  0
   -0.6417   -2.1014    0.6329 H   0  0  0  0  0  0  0  0  0  0  0  0
   -0.6390   -2.6363    3.0587 H   0  0  0  0  0  0  0  0  0  0  0  0
   -2.1753   -1.3695    4.5659 H   0  0  0  0  0  0  0  0  0  0  0  0
   -3.6530    0.8684    1.4534 H   0  0  0  0  0  0  0  0  0  0  0  0
    2.7399   -2.0865   -1.1552 H   0  0  0  0  0  0  0  0  0  0  0  0
    4.7714   -3.4959   -0.9929 H   0  0  0  0  0  0  0  0  0  0  0  0
    6.4861   -1.0012    1.7943 H   0  0  0  0  0  0  0  0  0  0  0  0
    4.5406    0.5321    1.7705 H   0  0  0  0  0  0  0  0  0  0  0  0
    2.0795    3.5402    2.2892 H   0  0  0  0  0  0  0  0  0  0  0  0
    0.1997    5.1393    2.2188 H   0  0  0  0  0  0  0  0  0  0  0  0
   -1.7618    4.6779    0.7636 H   0  0  0  0  0  0  0  0  0  0  0  0
   -1.8195    2.6204   -0.5844 H   0  0  0  0  0  0  0  0  0  0  0  0
   -0.1228   -1.6929   -1.9659 H   0  0  0  0  0  0  0  0  0  0  0  0
   -0.0708   -0.3761   -3.1702 H   0  0  0  0  0  0  0  0  0  0  0  0
  1  2  1  0
  2  3  1  0
  3  4  1  0
  4  5  1  0
  5  6  1  0
  6  7  2  0
  7  8  1  0
  8  9  2  0
  9 10  1  0
  4 11  1  0
 11 12  1  0
 12 13  1  0
 13 14  2  0
 14 15  1  0
 15 16  2  0
 16 17  1  0
 17 18  2  0
 18 19  1  0
 19 20  2  0
 14 21  1  0
 21 22  2  0
 22 23  1  0
 23 24  2  0
 24 25  1  0
 25 26  2  0
 26 27  1  0
 11 28  1  0
 28  2  1  0
 10  5  2  0
 27 12  2  0
 20 15  1  0
 27 22  1  0
  1 29  1  0
  1 30  1  0
  1 31  1  0
  2 32  1  0
  3 33  1  0
  3 34  1  0
  4 35  1  0
  6 36  1  0
  7 37  1  0
  8 38  1  0
 10 39  1  0
 16 40  1  0
 17 41  1  0
 19 42  1  0
 20 43  1  0
 23 44  1  0
 24 45  1  0
 25 46  1  0
 26 47  1  0
 28 48  1  0
 28 49  1  0
M  END
$$$$
OCNT-2318577
     RDKit          3D

 44 45  0  0  0  0  0  0  0  0999 V2000
   -4.9518    0.3666    0.8194 C   0  0  0  0  0  0  0  0  0  0  0  0
   -3.6628    1.0300    0.4312 C   0  0  0  0  0  0  0  0  0  0  0  0
   -3.5177    2.4168    0.5422 C   0  0  0  0  0  0  0  0  0  0  0  0
   -2.3344    3.0323    0.1224 C   0  0  0  0  0  0  0  0  0  0  0  0
   -2.1336    4.5034    0.2120 C   0  0  0  0  0  0  0  0  0  0  0  0
   -2.8899    5.1901    1.1225 N   0  0  0  0  0  0  0  0  0  0  0  0
   -1.2984    5.0864   -0.4675 O   0  0  0  0  0  0  0  0  0  0  0  0
   -1.3051    2.2559   -0.4278 C   0  0  0  0  0  0  0  0  0  0  0  0
   -1.4118    0.8621   -0.5235 C   0  0  0  0  0  0  0  0  0  0  0  0
   -0.3753    0.1551   -1.1414 N   0  0  0  0  0  0  0  0  0  0  0  0
   -0.2307   -1.2765   -0.8888 C   0  0  0  0  0  0  0  0  0  0  0  0
    1.0610   -1.7664   -1.5012 C   0  0  0  0  0  0  0  0  0  0  0  0
    1.2014   -1.7757   -2.9003 C   0  0  0  0  0  0  0  0  0  0  0  0
    2.3761   -2.2341   -3.4985 C   0  0  0  0  0  0  0  0  0  0  0  0
    3.4243   -2.6974   -2.7075 C   0  0  0  0  0  0  0  0  0  0  0  0
    3.3035   -2.6894   -1.3183 C   0  0  0  0  0  0  0  0  0  0  0  0
    2.1380   -2.2027   -0.7178 C   0  0  0  0  0  0  0  0  0  0  0  0
    2.0005   -2.2214    0.6450 O   0  0  0  0  0  0  0  0  0  0  0  0
    2.9591   -1.3953    1.3271 C   0  0  0  0  0  0  0  0  0  0  0  0
    2.1979   -0.2633    2.0100 C   0  0  0  0  0  0  0  0  0  0  0  0
    3.6735   -2.2610    2.3584 C   0  0  0  0  0  0  0  0  0  0  0  0
   -2.6164    0.2716   -0.1200 C   0  0  0  0  0  0  0  0  0  0  0  0
   -5.4448    0.9145    1.6294 H   0  0  0  0  0  0  0  0  0  0  0  0
   -4.7734   -0.6521    1.1792 H   0  0  0  0  0  0  0  0  0  0  0  0
   -5.6258    0.3261   -0.0417 H   0  0  0  0  0  0  0  0  0  0  0  0
   -4.3461    3.0090    0.9201 H   0  0  0  0  0  0  0  0  0  0  0  0
   -3.3545    4.7257    1.8888 H   0  0  0  0  0  0  0  0  0  0  0  0
   -2.6371    6.1614    1.2542 H   0  0  0  0  0  0  0  0  0  0  0  0
   -0.4051    2.7525   -0.7861 H   0  0  0  0  0  0  0  0  0  0  0  0
    0.5149    0.6418   -1.0640 H   0  0  0  0  0  0  0  0  0  0  0  0
   -1.0562   -1.8351   -1.3471 H   0  0  0  0  0  0  0  0  0  0  0  0
   -0.2585   -1.4786    0.1878 H   0  0  0  0  0  0  0  0  0  0  0  0
    0.3858   -1.4183   -3.5273 H   0  0  0  0  0  0  0  0  0  0  0  0
    2.4678   -2.2358   -4.5817 H   0  0  0  0  0  0  0  0  0  0  0  0
    4.3332   -3.0699   -3.1725 H   0  0  0  0  0  0  0  0  0  0  0  0
    4.1168   -3.0736   -0.7099 H   0  0  0  0  0  0  0  0  0  0  0  0
    3.7014   -0.9557    0.6480 H   0  0  0  0  0  0  0  0  0  0  0  0
    1.4227   -0.6559    2.6772 H   0  0  0  0  0  0  0  0  0  0  0  0
    2.8711    0.3756    2.5897 H   0  0  0  0  0  0  0  0  0  0  0  0
    1.6878    0.3572    1.2659 H   0  0  0  0  0  0  0  0  0  0  0  0
    4.3974   -1.6767    2.9345 H   0  0  0  0  0  0  0  0  0  0  0  0
    2.9587   -2.7174    3.0522 H   0  0  0  0  0  0  0  0  0  0  0  0
    4.2033   -3.0840    1.8675 H   0  0  0  0  0  0  0  0  0  0  0  0
   -2.7666   -0.7979   -0.2419 H   0  0  0  0  0  0  0  0  0  0  0  0
  1  2  1  0
  2  3  2  0
  3  4  1  0
  4  5  1  0
  5  6  1  0
  5  7  2  0
  4  8  2  0
  8  9  1  0
  9 10  1  0
 10 11  1  0
 11 12  1  0
 12 13  2  0
 13 14  1  0
 14 15  2  0
 15 16  1  0
 16 17  2  0
 17 18  1  0
 18 19  1  0
 19 20  1  0
 19 21  1  0
  9 22  2  0
 22  2  1  0
 17 12  1  0
  1 23  1  0
  1 24  1  0
  1 25  1  0
  3 26  1  0
  6 27  1  0
  6 28  1  0
  8 29  1  0
 10 30  1  0
 11 31  1  0
 11 32  1  0
 13 33  1  0
 14 34  1  0
 15 35  1  0
 16 36  1  0
 19 37  1  0
 20 38  1  0
 20 39  1  0
 20 40  1  0
 21 41  1  0
 21 42  1  0
 21 43  1  0
 22 44  1  0
M  END
$$$$
OCNT-2318583
     RDKit          3D

 38 41  0  0  0  0  0  0  0  0999 V2000
   -4.7741   -2.8424   -1.0783 O   0  0  0  0  0  0  0  0  0  0  0  0
   -4.1504   -1.8993   -0.6227 C   0  0  0  0  0  0  0  0  0  0  0  0
   -3.5750   -0.7143   -1.4077 C   0  0  0  0  0  0  0  0  0  0  0  0
   -2.9292    0.0966   -0.3222 C   0  0  0  0  0  0  0  0  0  0  0  0
   -2.2391    1.2911   -0.4001 C   0  0  0  0  0  0  0  0  0  0  0  0
   -1.7298    1.8391    0.7925 C   0  0  0  0  0  0  0  0  0  0  0  0
   -0.8490    3.3801    0.6883 S   0  0  0  0  0  0  0  0  0  0  0  0
   -0.7667    3.7460   -0.7112 O   0  0  0  0  0  0  0  0  0  0  0  0
   -1.4353    4.2891    1.6480 O   0  0  0  0  0  0  0  0  0  0  0  0
    0.7044    2.9996    1.2327 N   0  0  0  0  0  0  0  0  0  0  0  0
    1.4186    1.9214    0.6390 C   0  0  0  0  0  0  0  0  0  0  0  0
    1.8297    0.8616    1.4464 C   0  0  0  0  0  0  0  0  0  0  0  0
    2.5124   -0.2227    0.8875 C   0  0  0  0  0  0  0  0  0  0  0  0
    2.7999   -0.2473   -0.4858 C   0  0  0  0  0  0  0  0  0  0  0  0
    3.4933   -1.3586   -1.0323 N   0  0  0  0  0  0  0  0  0  0  0  0
    3.8834   -1.5845   -2.3305 C   0  0  0  0  0  0  0  0  0  0  0  0
    4.4993   -2.7403   -2.4332 N   0  0  0  0  0  0  0  0  0  0  0  0
    4.4708   -3.2069   -1.1554 C   0  0  0  0  0  0  0  0  0  0  0  0
    3.8734   -2.4126   -0.2667 N   0  0  0  0  0  0  0  0  0  0  0  0
    2.4016    0.8276   -1.2905 C   0  0  0  0  0  0  0  0  0  0  0  0
    1.7153    1.9080   -0.7236 C   0  0  0  0  0  0  0  0  0  0  0  0
   -1.9257    1.1891    2.0292 C   0  0  0  0  0  0  0  0  0  0  0  0
   -1.3082    1.7823    3.5312 Cl  0  0  0  0  0  0  0  0  0  0  0  0
   -2.6306   -0.0219    2.0850 C   0  0  0  0  0  0  0  0  0  0  0  0
   -3.1148   -0.5370    0.9022 C   0  0  0  0  0  0  0  0  0  0  0  0
   -3.8311   -1.7075    0.7172 N   0  0  0  0  0  0  0  0  0  0  0  0
   -2.8365   -1.0739   -2.1284 H   0  0  0  0  0  0  0  0  0  0  0  0
   -4.3863   -0.1621   -1.8881 H   0  0  0  0  0  0  0  0  0  0  0  0
   -2.1011    1.7857   -1.3583 H   0  0  0  0  0  0  0  0  0  0  0  0
    0.7920    3.1365    2.2404 H   0  0  0  0  0  0  0  0  0  0  0  0
    1.6239    0.8581    2.5136 H   0  0  0  0  0  0  0  0  0  0  0  0
    2.8179   -1.0408    1.5389 H   0  0  0  0  0  0  0  0  0  0  0  0
    3.7021   -0.8970   -3.1426 H   0  0  0  0  0  0  0  0  0  0  0  0
    4.8989   -4.1573   -0.8616 H   0  0  0  0  0  0  0  0  0  0  0  0
    2.6085    0.8674   -2.3561 H   0  0  0  0  0  0  0  0  0  0  0  0
    1.4331    2.7445   -1.3597 H   0  0  0  0  0  0  0  0  0  0  0  0
   -2.7894   -0.5386    3.0256 H   0  0  0  0  0  0  0  0  0  0  0  0
   -4.1059   -2.3599    1.4372 H   0  0  0  0  0  0  0  0  0  0  0  0
  1  2  2  0
  2  3  1  0
  3  4  1  0
  4  5  1  0
  5  6  2  0
  6  7  1  0
  7  8  2  0
  7  9  2  0
  7 10  1  0
 10 11  1  0
 11 12  1  0
 12 13  2  0
 13 14  1  0
 14 15  1  0
 15 16  1  0
 16 17  2  0
 17 18  1  0
 18 19  2  0
 14 20  2  0
 20 21  1  0
  6 22  1  0
 22 23  1  0
 22 24  2  0
 24 25  1  0
 25 26  1  0
 26  2  1  0
 25  4  2  0
 21 11  2  0
 19 15  1  0
  3 27  1  0
  3 28  1  0
  5 29  1  0
 10 30  1  0
 12 31  1  0
 13 32  1  0
 16 33  1  0
 18 34  1  0
 20 35  1  0
 21 36  1  0
 24 37  1  0
 26 38  1  0
M  END
$$$$
OCNT-2318585
     RDKit          3D

 41 44  0  0  0  0  0  0  0  0999 V2000
    5.1202   -1.9134   -1.1861 C   0  0  0  0  0  0  0  0  0  0  0  0
    3.7759   -1.2546   -1.0149 C   0  0  0  0  0  0  0  0  0  0  0  0
    2.7894   -1.5726   -1.9651 C   0  0  0  0  0  0  0  0  0  0  0  0
    1.5064   -1.0220   -1.9038 C   0  0  0  0  0  0  0  0  0  0  0  0
    1.1466   -0.1570   -0.8746 C   0  0  0  0  0  0  0  0  0  0  0  0
   -0.0938    0.4756   -0.7934 N   0  0  0  0  0  0  0  0  0  0  0  0
   -1.2403   -0.0589   -1.5176 C   0  0  0  0  0  0  0  0  0  0  0  0
   -2.4994    0.6467   -1.0540 C   0  0  0  0  0  0  0  0  0  0  0  0
   -2.9487    1.7490   -1.8046 C   0  0  0  0  0  0  0  0  0  0  0  0
   -4.0917    2.4466   -1.4321 C   0  0  0  0  0  0  0  0  0  0  0  0
   -4.7986    2.0602   -0.2975 C   0  0  0  0  0  0  0  0  0  0  0  0
   -4.3697    0.9792    0.4863 C   0  0  0  0  0  0  0  0  0  0  0  0
   -5.0917    0.6173    1.6356 C   0  0  0  0  0  0  0  0  0  0  0  0
   -4.6806   -0.4453    2.4378 C   0  0  0  0  0  0  0  0  0  0  0  0
   -3.5392   -1.1593    2.1014 C   0  0  0  0  0  0  0  0  0  0  0  0
   -2.8111   -0.8131    0.9602 C   0  0  0  0  0  0  0  0  0  0  0  0
   -3.2048    0.2564    0.1211 C   0  0  0  0  0  0  0  0  0  0  0  0
    2.1404    0.1996    0.0507 C   0  0  0  0  0  0  0  0  0  0  0  0
    3.4471   -0.3395    0.0094 C   0  0  0  0  0  0  0  0  0  0  0  0
    4.3807    0.0731    1.0058 N   0  0  0  0  0  0  0  0  0  0  0  0
    4.2081    0.9619    2.0446 C   0  0  0  0  0  0  0  0  0  0  0  0
    5.3176    1.0549    2.7407 N   0  0  0  0  0  0  0  0  0  0  0  0
    6.2044    0.2148    2.1311 N   0  0  0  0  0  0  0  0  0  0  0  0
    5.6522   -0.3810    1.0853 N   0  0  0  0  0  0  0  0  0  0  0  0
    5.3655   -2.5238   -0.3117 H   0  0  0  0  0  0  0  0  0  0  0  0
    5.8970   -1.1645   -1.3685 H   0  0  0  0  0  0  0  0  0  0  0  0
    5.1295   -2.5897   -2.0487 H   0  0  0  0  0  0  0  0  0  0  0  0
    3.0158   -2.2562   -2.7825 H   0  0  0  0  0  0  0  0  0  0  0  0
    0.8023   -1.2903   -2.6858 H   0  0  0  0  0  0  0  0  0  0  0  0
   -0.3361    0.7695    0.1498 H   0  0  0  0  0  0  0  0  0  0  0  0
   -1.3460   -1.1409   -1.3758 H   0  0  0  0  0  0  0  0  0  0  0  0
   -1.1097    0.1001   -2.5956 H   0  0  0  0  0  0  0  0  0  0  0  0
   -2.3985    2.0709   -2.6871 H   0  0  0  0  0  0  0  0  0  0  0  0
   -4.4304    3.2940   -2.0225 H   0  0  0  0  0  0  0  0  0  0  0  0
   -5.6904    2.6199   -0.0227 H   0  0  0  0  0  0  0  0  0  0  0  0
   -5.9870    1.1674    1.9182 H   0  0  0  0  0  0  0  0  0  0  0  0
   -5.2509   -0.7112    3.3238 H   0  0  0  0  0  0  0  0  0  0  0  0
   -3.2114   -1.9876    2.7244 H   0  0  0  0  0  0  0  0  0  0  0  0
   -1.9213   -1.3982    0.7406 H   0  0  0  0  0  0  0  0  0  0  0  0
    1.8548    0.9227    0.8094 H   0  0  0  0  0  0  0  0  0  0  0  0
    3.2972    1.4990    2.2500 H   0  0  0  0  0  0  0  0  0  0  0  0
  1  2  1  0
  2  3  1  0
  3  4  2  0
  4  5  1  0
  5  6  1  0
  6  7  1  0
  7  8  1  0
  8  9  2  0
  9 10  1  0
 10 11  2  0
 11 12  1  0
 12 13  2  0
 13 14  1  0
 14 15  2  0
 15 16  1  0
 16 17  2  0
  5 18  2  0
 18 19  1  0
 19 20  1  0
 20 21  1  0
 21 22  2  0
 22 23  1  0
 23 24  2  0
 19  2  2  0
 24 20  1  0
 17  8  1  0
 17 12  1  0
  1 25  1  0
  1 26  1  0
  1 27  1  0
  3 28  1  0
  4 29  1  0
  6 30  1  0
  7 31  1  0
  7 32  1  0
  9 33  1  0
 10 34  1  0
 11 35  1  0
 13 36  1  0
 14 37  1  0
 15 38  1  0
 16 39  1  0
 18 40  1  0
 21 41  1  0
M  END
$$$$
OCNT-2318590
     RDKit          3D

  0  0  0  0  0  0  0  0  0  0999 V3000
M  V30 BEGIN CTAB
M  V30 COUNTS 42 45 0 0 0
M  V30 BEGIN ATOM
M  V30 1 C 4.703493 2.996124 -0.918627 0
M  V30 2 O 4.152675 1.793652 -0.377902 0
M  V30 3 C 2.874016 1.546577 -0.778700 0
M  V30 4 O 2.231687 2.252064 -1.541176 0
M  V30 5 C 2.370870 0.281661 -0.152949 0
M  V30 6 C 3.210936 -0.575892 0.521963 0
M  V30 7 C 2.620721 -1.712361 1.017740 0
M  V30 8 C 3.431320 -2.724981 1.768181 0
M  V30 9 N 1.307606 -1.968238 0.856587 0
M  V30 10 C 0.547292 -1.075942 0.197400 0
M  V30 11 N -0.802943 -1.328635 0.081679 0
M  V30 12 C -1.189846 -2.734529 0.015182 0
M  V30 13 C -2.520573 -2.726456 -0.681976 0 CFG=1
M  V30 14 C -3.704082 -1.978657 -0.128534 0
M  V30 15 C -2.794818 -1.337455 -1.156829 0 CFG=1
M  V30 16 C -1.600735 -0.473652 -0.802269 0 CFG=1
M  V30 17 C -2.068571 0.820361 -0.159984 0
M  V30 18 C -2.369299 1.923986 -0.976195 0
M  V30 19 C -2.822446 3.123067 -0.421608 0
M  V30 20 C -2.986420 3.236448 0.956877 0
M  V30 21 C -2.695832 2.152584 1.781743 0
M  V30 22 C -2.241532 0.953952 1.227597 0
M  V30 23 N 1.052904 0.044186 -0.322880 0
M  V30 24 H 4.116478 3.863938 -0.601844 0
M  V30 25 H 5.720035 3.106335 -0.530993 0
M  V30 26 H 4.753880 2.937444 -2.010399 0
M  V30 27 H 4.266639 -0.381722 0.651397 0
M  V30 28 H 3.875307 -2.269585 2.658881 0
M  V30 29 H 4.228391 -3.119678 1.130411 0
M  V30 30 H 2.806118 -3.564022 2.090371 0
M  V30 31 H -1.275697 -3.170406 1.016113 0
M  V30 32 H -0.484229 -3.326393 -0.580985 0
M  V30 33 H -2.684863 -3.566250 -1.339827 0
M  V30 34 H -4.693877 -2.278609 -0.451984 0
M  V30 35 H -3.662385 -1.633725 0.897668 0
M  V30 36 H -3.170063 -1.175201 -2.156760 0
M  V30 37 H -1.051744 -0.264040 -1.730799 0
M  V30 38 H -2.240036 1.857439 -2.054233 0
M  V30 39 H -3.041481 3.969498 -1.066796 0
M  V30 40 H -3.335603 4.170295 1.388296 0
M  V30 41 H -2.818308 2.238296 2.857809 0
M  V30 42 H -2.014987 0.118522 1.886495 0
M  V30 END ATOM
M  V30 BEGIN BOND
M  V30 1 1 1 2
M  V30 2 1 2 3
M  V30 3 2 3 4
M  V30 4 1 3 5
M  V30 5 2 5 6
M  V30 6 1 6 7
M  V30 7 1 7 8
M  V30 8 2 7 9
M  V30 9 1 9 10
M  V30 10 1 10 11
M  V30 11 1 11 12
M  V30 12 1 12 13
M  V30 13 1 13 14
M  V30 14 1 14 15
M  V30 15 1 15 16
M  V30 16 1 16 17
M  V30 17 2 17 18
M  V30 18 1 18 19
M  V30 19 2 19 20
M  V30 20 1 20 21
M  V30 21 2 21 22
M  V30 22 2 10 23
M  V30 23 1 23 5
M  V30 24 1 16 11
M  V30 25 1 22 17
M  V30 26 1 15 13
M  V30 27 1 1 24
M  V30 28 1 1 25
M  V30 29 1 1 26
M  V30 30 1 6 27
M  V30 31 1 8 28
M  V30 32 1 8 29
M  V30 33 1 8 30
M  V30 34 1 12 31
M  V30 35 1 12 32
M  V30 36 1 13 33 CFG=3
M  V30 37 1 14 34
M  V30 38 1 14 35
M  V30 39 1 15 36 CFG=3
M  V30 40 1 16 37 CFG=3
M  V30 41 1 18 38
M  V30 42 1 19 39
M  V30 43 1 20 40
M  V30 44 1 21 41
M  V30 45 1 22 42
M  V30 END BOND
M  V30 BEGIN COLLECTION
M  V30 MDLV30/STERAC1 ATOMS=(3 13 15 16)
M  V30 END COLLECTION
M  V30 END CTAB
M  END
>  <_CXSMILES_Data>  (1331) 
|&1:12,14,15|

$$$$
OCNT-2318612
     RDKit          3D

 55 59  0  0  0  0  0  0  0  0999 V2000
    1.2990    1.5016   -1.1357 C   0  0  0  0  0  0  0  0  0  0  0  0
    1.1847    0.0684   -1.2262 N   0  0  0  0  0  0  0  0  0  0  0  0
    2.1587   -0.8565   -0.9077 C   0  0  0  0  0  0  0  0  0  0  0  0
    3.4274   -0.6052   -0.2197 C   0  0  0  0  0  0  0  0  0  0  0  0
    4.4006   -1.5949   -0.1514 C   0  0  0  0  0  0  0  0  0  0  0  0
    5.5816   -1.3251    0.5308 C   0  0  0  0  0  0  0  0  0  0  0  0
    5.7634   -0.0752    1.1315 C   0  0  0  0  0  0  0  0  0  0  0  0
    6.9399    0.2421    1.8329 C   0  0  0  0  0  0  0  0  0  0  0  0
    7.0912    1.4962    2.4211 C   0  0  0  0  0  0  0  0  0  0  0  0
    6.0710    2.4349    2.3096 C   0  0  0  0  0  0  0  0  0  0  0  0
    4.9024    2.1145    1.6114 C   0  0  0  0  0  0  0  0  0  0  0  0
    4.7235    0.8720    1.0163 C   0  0  0  0  0  0  0  0  0  0  0  0
    3.5789    0.6138    0.3567 N   0  0  0  0  0  0  0  0  0  0  0  0
    1.7534   -2.0364   -1.3478 N   0  0  0  0  0  0  0  0  0  0  0  0
    0.5105   -1.8927   -1.9049 N   0  0  0  0  0  0  0  0  0  0  0  0
    0.1357   -0.6394   -1.7689 C   0  0  0  0  0  0  0  0  0  0  0  0
   -1.0436   -0.0681   -2.1469 N   0  0  0  0  0  0  0  0  0  0  0  0
   -1.8471   -0.8465   -3.1111 C   0  0  0  0  0  0  0  0  0  0  0  0
   -3.2541   -0.2598   -3.2224 C   0  0  0  0  0  0  0  0  0  0  0  0
   -3.9829   -0.3504   -1.9925 O   0  0  0  0  0  0  0  0  0  0  0  0
   -3.2088   -0.0436   -0.8019 C   0  0  0  0  0  0  0  0  0  0  0  0
   -3.0209   -1.3807   -0.0509 C   0  0  0  0  0  0  0  0  0  0  0  0
   -2.5965   -1.2919    1.4148 C   0  0  0  0  0  0  0  0  0  0  0  0
   -3.5673   -0.5835    2.3650 C   0  0  0  0  0  0  0  0  0  0  0  0
   -5.0151   -0.5376    1.8831 C   0  0  0  0  0  0  0  0  0  0  0  0
   -5.2911    0.4053    0.7017 C   0  0  0  0  0  0  0  0  0  0  0  0
   -4.0657    0.9776   -0.0155 C   0  0  0  0  0  0  0  0  0  0  0  0
   -1.8408    0.6439   -1.1244 C   0  0  0  0  0  0  0  0  0  0  0  0
    0.5445    1.9827   -1.7623 H   0  0  0  0  0  0  0  0  0  0  0  0
    1.1571    1.7978   -0.0936 H   0  0  0  0  0  0  0  0  0  0  0  0
    2.2801    1.8105   -1.5058 H   0  0  0  0  0  0  0  0  0  0  0  0
    4.2427   -2.5634   -0.6180 H   0  0  0  0  0  0  0  0  0  0  0  0
    6.3495   -2.0918    0.5912 H   0  0  0  0  0  0  0  0  0  0  0  0
    7.7425   -0.4870    1.9246 H   0  0  0  0  0  0  0  0  0  0  0  0
    8.0016    1.7387    2.9638 H   0  0  0  0  0  0  0  0  0  0  0  0
    6.1794    3.4166    2.7645 H   0  0  0  0  0  0  0  0  0  0  0  0
    4.1106    2.8561    1.5310 H   0  0  0  0  0  0  0  0  0  0  0  0
   -1.9265   -1.8944   -2.7975 H   0  0  0  0  0  0  0  0  0  0  0  0
   -1.3582   -0.8204   -4.0917 H   0  0  0  0  0  0  0  0  0  0  0  0
   -3.2245    0.7934   -3.5276 H   0  0  0  0  0  0  0  0  0  0  0  0
   -3.8287   -0.8019   -3.9797 H   0  0  0  0  0  0  0  0  0  0  0  0
   -2.2802   -1.9982   -0.5716 H   0  0  0  0  0  0  0  0  0  0  0  0
   -3.9411   -1.9749   -0.1286 H   0  0  0  0  0  0  0  0  0  0  0  0
   -2.4697   -2.3216    1.7760 H   0  0  0  0  0  0  0  0  0  0  0  0
   -1.6055   -0.8316    1.4990 H   0  0  0  0  0  0  0  0  0  0  0  0
   -3.5364   -1.1047    3.3313 H   0  0  0  0  0  0  0  0  0  0  0  0
   -3.2095    0.4310    2.5793 H   0  0  0  0  0  0  0  0  0  0  0  0
   -5.3508   -1.5518    1.6292 H   0  0  0  0  0  0  0  0  0  0  0  0
   -5.6532   -0.2278    2.7219 H   0  0  0  0  0  0  0  0  0  0  0  0
   -5.9481   -0.0983   -0.0186 H   0  0  0  0  0  0  0  0  0  0  0  0
   -5.8724    1.2553    1.0832 H   0  0  0  0  0  0  0  0  0  0  0  0
   -3.4476    1.5255    0.7053 H   0  0  0  0  0  0  0  0  0  0  0  0
   -4.4323    1.7358   -0.7226 H   0  0  0  0  0  0  0  0  0  0  0  0
   -1.2756    0.7971   -0.1972 H   0  0  0  0  0  0  0  0  0  0  0  0
   -2.0356    1.6447   -1.5325 H   0  0  0  0  0  0  0  0  0  0  0  0
  1  2  1  0
  2  3  1  0
  3  4  1  0
  4  5  1  0
  5  6  2  0
  6  7  1  0
  7  8  2  0
  8  9  1  0
  9 10  2  0
 10 11  1  0
 11 12  2  0
 12 13  1  0
  3 14  2  0
 14 15  1  0
 15 16  2  0
 16 17  1  0
 17 18  1  0
 18 19  1  0
 19 20  1  0
 20 21  1  0
 21 22  1  0
 22 23  1  0
 23 24  1  0
 24 25  1  0
 25 26  1  0
 26 27  1  0
 21 28  1  0
 16  2  1  0
 28 17  1  0
 13  4  2  0
 27 21  1  0
 12  7  1  0
  1 29  1  0
  1 30  1  0
  1 31  1  0
  5 32  1  0
  6 33  1  0
  8 34  1  0
  9 35  1  0
 10 36  1  0
 11 37  1  0
 18 38  1  0
 18 39  1  0
 19 40  1  0
 19 41  1  0
 22 42  1  0
 22 43  1  0
 23 44  1  0
 23 45  1  0
 24 46  1  0
 24 47  1  0
 25 48  1  0
 25 49  1  0
 26 50  1  0
 26 51  1  0
 27 52  1  0
 27 53  1  0
 28 54  1  0
 28 55  1  0
M  END
$$$$
OCNT-2318628
     RDKit          3D

 57 61  0  0  0  0  0  0  0  0999 V2000
   -5.2066    4.0148   -1.0809 C   0  0  0  0  0  0  0  0  0  0  0  0
   -4.9973    2.5611   -0.7032 C   0  0  0  0  0  0  0  0  0  0  0  0
   -3.4861    1.9166   -1.4169 S   0  0  0  0  0  0  0  0  0  0  0  0
   -3.6328    1.9470   -2.8565 O   0  0  0  0  0  0  0  0  0  0  0  0
   -2.3552    2.5388   -0.7649 O   0  0  0  0  0  0  0  0  0  0  0  0
   -3.5430    0.2932   -0.9195 N   0  0  0  0  0  0  0  0  0  0  0  0
   -3.2823   -0.0222    0.5028 C   0  0  0  0  0  0  0  0  0  0  0  0
   -1.7947   -0.2393    0.7587 C   0  0  0  0  0  0  0  0  0  0  0  0
   -1.1808   -1.3533   -0.1458 C   0  0  0  0  0  0  0  0  0  0  0  0
   -1.6919   -2.7621    0.2505 C   0  0  0  0  0  0  0  0  0  0  0  0
   -2.0315   -3.7398   -0.7031 C   0  0  0  0  0  0  0  0  0  0  0  0
   -2.4734   -5.0107   -0.3195 C   0  0  0  0  0  0  0  0  0  0  0  0
   -2.5659   -5.3445    1.0265 C   0  0  0  0  0  0  0  0  0  0  0  0
   -2.2008   -4.4130    1.9902 C   0  0  0  0  0  0  0  0  0  0  0  0
   -1.7598   -3.1428    1.6070 C   0  0  0  0  0  0  0  0  0  0  0  0
    0.3249   -1.3330    0.0266 C   0  0  0  0  0  0  0  0  0  0  0  0
    1.0604   -0.7640    0.9591 N   0  0  0  0  0  0  0  0  0  0  0  0
    2.3353   -1.1032    0.5716 C   0  0  0  0  0  0  0  0  0  0  0  0
    3.5400   -0.6741    1.3293 C   0  0  0  0  0  0  0  0  0  0  0  0
    3.9365    0.7239    1.0372 C   0  0  0  0  0  0  0  0  0  0  0  0
    3.2664    1.9113    0.8543 C   0  0  0  0  0  0  0  0  0  0  0  0
    4.1617    2.9256    0.6312 N   0  0  0  0  0  0  0  0  0  0  0  0
    5.3377    2.3334    0.6820 C   0  0  0  0  0  0  0  0  0  0  0  0
    6.6719    3.1096    0.4747 C   0  0  0  0  0  0  0  0  0  0  0  0
    7.6566    2.6107   -0.5506 C   0  0  0  0  0  0  0  0  0  0  0  0
    7.9749    2.4933    0.9126 C   0  0  0  0  0  0  0  0  0  0  0  0
    5.2756    0.9876    0.9344 O   0  0  0  0  0  0  0  0  0  0  0  0
    2.4034   -1.8611   -0.5310 N   0  0  0  0  0  0  0  0  0  0  0  0
    1.0669   -2.0186   -0.8960 O   0  0  0  0  0  0  0  0  0  0  0  0
   -1.5071   -0.9313   -1.6117 C   0  0  0  0  0  0  0  0  0  0  0  0
   -2.9993   -0.7219   -1.8462 C   0  0  0  0  0  0  0  0  0  0  0  0
   -5.2765    4.1351   -2.1667 H   0  0  0  0  0  0  0  0  0  0  0  0
   -4.3767    4.6361   -0.7288 H   0  0  0  0  0  0  0  0  0  0  0  0
   -6.1313    4.3942   -0.6356 H   0  0  0  0  0  0  0  0  0  0  0  0
   -4.9324    2.4652    0.3831 H   0  0  0  0  0  0  0  0  0  0  0  0
   -5.8241    1.9497   -1.0766 H   0  0  0  0  0  0  0  0  0  0  0  0
   -3.8612   -0.9133    0.7719 H   0  0  0  0  0  0  0  0  0  0  0  0
   -3.6532    0.7798    1.1484 H   0  0  0  0  0  0  0  0  0  0  0  0
   -1.2623    0.7035    0.5747 H   0  0  0  0  0  0  0  0  0  0  0  0
   -1.6417   -0.4369    1.8254 H   0  0  0  0  0  0  0  0  0  0  0  0
   -1.9529   -3.5511   -1.7701 H   0  0  0  0  0  0  0  0  0  0  0  0
   -2.7351   -5.7449   -1.0780 H   0  0  0  0  0  0  0  0  0  0  0  0
   -2.9032   -6.3343    1.3222 H   0  0  0  0  0  0  0  0  0  0  0  0
   -2.2450   -4.6769    3.0440 H   0  0  0  0  0  0  0  0  0  0  0  0
   -1.4457   -2.4653    2.3982 H   0  0  0  0  0  0  0  0  0  0  0  0
    3.3377   -0.7674    2.4031 H   0  0  0  0  0  0  0  0  0  0  0  0
    4.3744   -1.3518    1.1099 H   0  0  0  0  0  0  0  0  0  0  0  0
    2.1989    2.0878    0.8726 H   0  0  0  0  0  0  0  0  0  0  0  0
    6.5694    4.1838    0.5820 H   0  0  0  0  0  0  0  0  0  0  0  0
    8.1937    3.3500   -1.1331 H   0  0  0  0  0  0  0  0  0  0  0  0
    7.4210    1.7028   -1.0945 H   0  0  0  0  0  0  0  0  0  0  0  0
    7.9600    1.5047    1.3571 H   0  0  0  0  0  0  0  0  0  0  0  0
    8.7297    3.1524    1.3249 H   0  0  0  0  0  0  0  0  0  0  0  0
   -1.1203   -1.6548   -2.3391 H   0  0  0  0  0  0  0  0  0  0  0  0
   -0.9850    0.0095   -1.8405 H   0  0  0  0  0  0  0  0  0  0  0  0
   -3.5651   -1.6484   -1.7017 H   0  0  0  0  0  0  0  0  0  0  0  0
   -3.1768   -0.4415   -2.8890 H   0  0  0  0  0  0  0  0  0  0  0  0
  1  2  1  0
  2  3  1  0
  3  4  2  0
  3  5  2  0
  3  6  1  0
  6  7  1  0
  7  8  1  0
  8  9  1  0
  9 10  1  0
 10 11  2  0
 11 12  1  0
 12 13  2  0
 13 14  1  0
 14 15  2  0
  9 16  1  0
 16 17  2  0
 17 18  1  0
 18 19  1  0
 19 20  1  0
 20 21  2  0
 21 22  1  0
 22 23  2  0
 23 24  1  0
 24 25  1  0
 25 26  1  0
 23 27  1  0
 18 28  2  0
 28 29  1  0
  9 30  1  0
 30 31  1  0
 31  6  1  0
 15 10  1  0
 29 16  1  0
 27 20  1  0
 26 24  1  0
  1 32  1  0
  1 33  1  0
  1 34  1  0
  2 35  1  0
  2 36  1  0
  7 37  1  0
  7 38  1  0
  8 39  1  0
  8 40  1  0
 11 41  1  0
 12 42  1  0
 13 43  1  0
 14 44  1  0
 15 45  1  0
 19 46  1  0
 19 47  1  0
 21 48  1  0
 24 49  1  0
 25 50  1  0
 25 51  1  0
 26 52  1  0
 26 53  1  0
 30 54  1  0
 30 55  1  0
 31 56  1  0
 31 57  1  0
M  END
$$$$
OCNT-2318633
     RDKit          3D

 38 39  0  0  0  0  0  0  0  0999 V2000
    6.6346   -0.0755   -1.6835 C   0  0  0  0  0  0  0  0  0  0  0  0
    5.1208    0.8366   -1.2935 S   0  0  0  0  0  0  0  0  0  0  0  0
    5.0107    0.4905    0.4962 C   0  0  0  0  0  0  0  0  0  0  0  0
    4.5941   -0.9451    0.8286 C   0  0  0  0  0  0  0  0  0  0  0  0
    3.2015   -1.3389    0.3285 C   0  0  0  0  0  0  0  0  0  0  0  0
    2.0766   -0.5870    1.0271 C   0  0  0  0  0  0  0  0  0  0  0  0
    2.2656    0.0169    2.0765 O   0  0  0  0  0  0  0  0  0  0  0  0
    0.8849   -0.7313    0.3528 N   0  0  0  0  0  0  0  0  0  0  0  0
   -0.3326   -0.2025    0.6930 C   0  0  0  0  0  0  0  0  0  0  0  0
   -1.3891   -0.4250   -0.0512 N   0  0  0  0  0  0  0  0  0  0  0  0
   -2.4907    0.2156    0.4934 C   0  0  0  0  0  0  0  0  0  0  0  0
   -3.7833    0.1171   -0.1559 C   0  0  0  0  0  0  0  0  0  0  0  0
   -4.8992   -0.3958    0.5129 C   0  0  0  0  0  0  0  0  0  0  0  0
   -4.8049   -0.7988    1.7891 F   0  0  0  0  0  0  0  0  0  0  0  0
   -6.1340   -0.5084   -0.1206 C   0  0  0  0  0  0  0  0  0  0  0  0
   -6.2529   -0.1067   -1.4440 C   0  0  0  0  0  0  0  0  0  0  0  0
   -7.4369   -0.2112   -2.0599 F   0  0  0  0  0  0  0  0  0  0  0  0
   -5.1642    0.4027   -2.1380 C   0  0  0  0  0  0  0  0  0  0  0  0
   -3.9361    0.5085   -1.4898 C   0  0  0  0  0  0  0  0  0  0  0  0
   -2.9028    1.0193   -2.1763 F   0  0  0  0  0  0  0  0  0  0  0  0
   -2.2419    0.9333    1.6522 C   0  0  0  0  0  0  0  0  0  0  0  0
   -3.1424    1.7550    2.5062 C   0  0  0  0  0  0  0  0  0  0  0  0
   -0.5836    0.7621    2.0687 S   0  0  0  0  0  0  0  0  0  0  0  0
    6.4820   -1.1502   -1.5600 H   0  0  0  0  0  0  0  0  0  0  0  0
    7.4585    0.2581   -1.0475 H   0  0  0  0  0  0  0  0  0  0  0  0
    6.9051    0.1133   -2.7260 H   0  0  0  0  0  0  0  0  0  0  0  0
    5.9814    0.7114    0.9529 H   0  0  0  0  0  0  0  0  0  0  0  0
    4.2974    1.2033    0.9211 H   0  0  0  0  0  0  0  0  0  0  0  0
    4.6331   -1.0674    1.9186 H   0  0  0  0  0  0  0  0  0  0  0  0
    5.3287   -1.6503    0.4228 H   0  0  0  0  0  0  0  0  0  0  0  0
    3.1212   -1.2035   -0.7550 H   0  0  0  0  0  0  0  0  0  0  0  0
    3.0453   -2.4052    0.5344 H   0  0  0  0  0  0  0  0  0  0  0  0
    0.8540   -1.2611   -0.5068 H   0  0  0  0  0  0  0  0  0  0  0  0
   -6.9896   -0.9088    0.4116 H   0  0  0  0  0  0  0  0  0  0  0  0
   -5.2665    0.7152   -3.1712 H   0  0  0  0  0  0  0  0  0  0  0  0
   -2.5986    2.5594    3.0128 H   0  0  0  0  0  0  0  0  0  0  0  0
   -3.6159    1.1295    3.2697 H   0  0  0  0  0  0  0  0  0  0  0  0
   -3.9305    2.2247    1.9090 H   0  0  0  0  0  0  0  0  0  0  0  0
  1  2  1  0
  2  3  1  0
  3  4  1  0
  4  5  1  0
  5  6  1  0
  6  7  2  0
  6  8  1  0
  8  9  1  0
  9 10  2  0
 10 11  1  0
 11 12  1  0
 12 13  2  0
 13 14  1  0
 13 15  1  0
 15 16  2  0
 16 17  1  0
 16 18  1  0
 18 19  2  0
 19 20  1  0
 11 21  2  0
 21 22  1  0
 21 23  1  0
 23  9  1  0
 19 12  1  0
  1 24  1  0
  1 25  1  0
  1 26  1  0
  3 27  1  0
  3 28  1  0
  4 29  1  0
  4 30  1  0
  5 31  1  0
  5 32  1  0
  8 33  1  0
 15 34  1  0
 18 35  1  0
 22 36  1  0
 22 37  1  0
 22 38  1  0
M  END
$$$$
OCNT-2318634
     RDKit          3D

 42 44  0  0  0  0  0  0  0  0999 V2000
    1.7217    1.1672    1.2741 C   0  0  0  0  0  0  0  0  0  0  0  0
    2.7098    0.7786    0.1787 C   0  0  0  0  0  0  0  0  0  0  0  0
    2.0705    0.0362   -1.0022 C   0  0  0  0  0  0  0  0  0  0  0  0
    1.5259   -1.2717   -0.6022 N   0  0  0  0  0  0  0  0  0  0  0  0
    0.1339   -1.3270   -0.3539 C   0  0  0  0  0  0  0  0  0  0  0  0
   -0.5810   -0.1952   -0.4352 N   0  0  0  0  0  0  0  0  0  0  0  0
   -1.8996   -0.2643   -0.1941 C   0  0  0  0  0  0  0  0  0  0  0  0
   -2.6775    0.9847   -0.2925 C   0  0  0  0  0  0  0  0  0  0  0  0
   -4.0493    1.0205   -0.0006 C   0  0  0  0  0  0  0  0  0  0  0  0
   -4.7385    2.2189   -0.1040 C   0  0  0  0  0  0  0  0  0  0  0  0
   -4.1683    3.3823   -0.4751 N   0  0  0  0  0  0  0  0  0  0  0  0
   -2.8508    3.3436   -0.7574 C   0  0  0  0  0  0  0  0  0  0  0  0
   -2.0801    2.1939   -0.6819 C   0  0  0  0  0  0  0  0  0  0  0  0
   -2.5543   -1.3897    0.1323 N   0  0  0  0  0  0  0  0  0  0  0  0
   -1.8364   -2.5111    0.2336 C   0  0  0  0  0  0  0  0  0  0  0  0
   -2.4886   -3.6876    0.5836 C   0  0  0  0  0  0  0  0  0  0  0  0
   -1.8063   -4.8992    0.7233 C   0  0  0  0  0  0  0  0  0  0  0  0
   -0.4353   -4.9448    0.5142 C   0  0  0  0  0  0  0  0  0  0  0  0
    0.2401   -3.7791    0.1601 C   0  0  0  0  0  0  0  0  0  0  0  0
   -0.4552   -2.5516    0.0071 C   0  0  0  0  0  0  0  0  0  0  0  0
    3.5433    2.2309   -0.4890 S   0  0  0  0  0  0  0  0  0  0  0  0
    4.3775    2.9584    0.9026 C   0  0  0  0  0  0  0  0  0  0  0  0
    4.5770    1.7653   -1.3960 O   0  0  0  0  0  0  0  0  0  0  0  0
    2.5401    3.1739   -0.9454 O   0  0  0  0  0  0  0  0  0  0  0  0
    1.2497    0.2854    1.7170 H   0  0  0  0  0  0  0  0  0  0  0  0
    2.2221    1.6931    2.0922 H   0  0  0  0  0  0  0  0  0  0  0  0
    0.9369    1.8274    0.8920 H   0  0  0  0  0  0  0  0  0  0  0  0
    3.4984    0.1529    0.6145 H   0  0  0  0  0  0  0  0  0  0  0  0
    2.8529   -0.1756   -1.7425 H   0  0  0  0  0  0  0  0  0  0  0  0
    1.3454    0.6615   -1.5377 H   0  0  0  0  0  0  0  0  0  0  0  0
    1.7326   -1.9775   -1.3080 H   0  0  0  0  0  0  0  0  0  0  0  0
   -4.5812    0.1246    0.3061 H   0  0  0  0  0  0  0  0  0  0  0  0
   -5.8007    2.2726    0.1169 H   0  0  0  0  0  0  0  0  0  0  0  0
   -2.4108    4.2908   -1.0571 H   0  0  0  0  0  0  0  0  0  0  0  0
   -1.0233    2.2475   -0.9282 H   0  0  0  0  0  0  0  0  0  0  0  0
   -3.5625   -3.6613    0.7572 H   0  0  0  0  0  0  0  0  0  0  0  0
   -2.3495   -5.7991    1.0008 H   0  0  0  0  0  0  0  0  0  0  0  0
    0.1071   -5.8797    0.6300 H   0  0  0  0  0  0  0  0  0  0  0  0
    1.3171   -3.8227    0.0155 H   0  0  0  0  0  0  0  0  0  0  0  0
    5.0210    3.7578    0.5281 H   0  0  0  0  0  0  0  0  0  0  0  0
    4.9839    2.1931    1.3901 H   0  0  0  0  0  0  0  0  0  0  0  0
    3.6425    3.3762    1.5911 H   0  0  0  0  0  0  0  0  0  0  0  0
  1  2  1  0
  2  3  1  0
  3  4  1  0
  4  5  1  0
  5  6  1  0
  6  7  2  0
  7  8  1  0
  8  9  2  0
  9 10  1  0
 10 11  2  0
 11 12  1  0
 12 13  2  0
  7 14  1  0
 14 15  2  0
 15 16  1  0
 16 17  2  0
 17 18  1  0
 18 19  2  0
 19 20  1  0
  2 21  1  0
 21 22  1  0
 21 23  2  0
 21 24  2  0
 20  5  2  0
 13  8  1  0
 20 15  1  0
  1 25  1  0
  1 26  1  0
  1 27  1  0
  2 28  1  0
  3 29  1  0
  3 30  1  0
  4 31  1  0
  9 32  1  0
 10 33  1  0
 12 34  1  0
 13 35  1  0
 16 36  1  0
 17 37  1  0
 18 38  1  0
 19 39  1  0
 22 40  1  0
 22 41  1  0
 22 42  1  0
M  END
$$$$
OCNT-2318639
     RDKit          3D

 54 56  0  0  0  0  0  0  0  0999 V2000
   -4.2895    2.4788    4.3255 C   0  0  0  0  0  0  0  0  0  0  0  0
   -3.8854    1.1208    4.2072 O   0  0  0  0  0  0  0  0  0  0  0  0
   -3.4697    0.7049    2.9732 C   0  0  0  0  0  0  0  0  0  0  0  0
   -3.4589    1.4688    1.8085 C   0  0  0  0  0  0  0  0  0  0  0  0
   -3.0058    0.9173    0.6018 C   0  0  0  0  0  0  0  0  0  0  0  0
   -2.5433   -0.4059    0.5374 C   0  0  0  0  0  0  0  0  0  0  0  0
   -2.0493   -1.0528   -0.7562 C   0  0  0  0  0  0  0  0  0  0  0  0
   -1.9331   -0.1408   -1.9928 C   0  0  0  0  0  0  0  0  0  0  0  0
   -1.3007   -0.7808   -3.2378 C   0  0  0  0  0  0  0  0  0  0  0  0
   -1.6030   -2.2658   -3.4586 C   0  0  0  0  0  0  0  0  0  0  0  0
   -0.6763   -3.2007   -2.6712 C   0  0  0  0  0  0  0  0  0  0  0  0
   -0.8938   -3.2005   -1.1571 C   0  0  0  0  0  0  0  0  0  0  0  0
   -0.8269   -1.8625   -0.5733 N   0  0  0  0  0  0  0  0  0  0  0  0
    0.4515   -1.3668   -0.2929 C   0  0  0  0  0  0  0  0  0  0  0  0
    1.4486   -2.0670   -0.4622 O   0  0  0  0  0  0  0  0  0  0  0  0
    0.4994   -0.0739    0.1462 N   0  0  0  0  0  0  0  0  0  0  0  0
    1.6195    0.7252    0.3986 C   0  0  0  0  0  0  0  0  0  0  0  0
    2.9188    0.3598    0.1135 C   0  0  0  0  0  0  0  0  0  0  0  0
    3.9264    1.2708    0.3942 C   0  0  0  0  0  0  0  0  0  0  0  0
    5.2758    0.9532    0.1409 N   0  0  0  0  0  0  0  0  0  0  0  0
    5.5409    0.3812   -1.1781 C   0  0  0  0  0  0  0  0  0  0  0  0
    6.2155    1.9923    0.5594 C   0  0  0  0  0  0  0  0  0  0  0  0
    3.6281    2.4583    0.9527 N   0  0  0  0  0  0  0  0  0  0  0  0
    2.3385    2.7197    1.1938 C   0  0  0  0  0  0  0  0  0  0  0  0
    1.3056    1.9152    0.9319 N   0  0  0  0  0  0  0  0  0  0  0  0
   -2.5762   -1.1680    1.7176 C   0  0  0  0  0  0  0  0  0  0  0  0
   -3.0295   -0.6164    2.9186 C   0  0  0  0  0  0  0  0  0  0  0  0
   -5.1735    2.6814    3.7120 H   0  0  0  0  0  0  0  0  0  0  0  0
   -4.5619    2.6568    5.3703 H   0  0  0  0  0  0  0  0  0  0  0  0
   -3.4691    3.1594    4.0747 H   0  0  0  0  0  0  0  0  0  0  0  0
   -3.7989    2.4993    1.7999 H   0  0  0  0  0  0  0  0  0  0  0  0
   -3.0228    1.5532   -0.2799 H   0  0  0  0  0  0  0  0  0  0  0  0
   -2.8622   -1.7572   -0.9869 H   0  0  0  0  0  0  0  0  0  0  0  0
   -2.9399    0.2065   -2.2618 H   0  0  0  0  0  0  0  0  0  0  0  0
   -1.3583    0.7641   -1.7592 H   0  0  0  0  0  0  0  0  0  0  0  0
   -1.6530   -0.2180   -4.1118 H   0  0  0  0  0  0  0  0  0  0  0  0
   -0.2141   -0.6301   -3.2095 H   0  0  0  0  0  0  0  0  0  0  0  0
   -1.4490   -2.4810   -4.5238 H   0  0  0  0  0  0  0  0  0  0  0  0
   -2.6551   -2.4887   -3.2482 H   0  0  0  0  0  0  0  0  0  0  0  0
    0.3659   -2.9404   -2.8939 H   0  0  0  0  0  0  0  0  0  0  0  0
   -0.8215   -4.2249   -3.0360 H   0  0  0  0  0  0  0  0  0  0  0  0
   -0.1371   -3.8412   -0.6886 H   0  0  0  0  0  0  0  0  0  0  0  0
   -1.8632   -3.6476   -0.9068 H   0  0  0  0  0  0  0  0  0  0  0  0
   -0.3403    0.3530    0.4975 H   0  0  0  0  0  0  0  0  0  0  0  0
    3.1581   -0.6101   -0.2925 H   0  0  0  0  0  0  0  0  0  0  0  0
    5.0894   -0.6092   -1.2927 H   0  0  0  0  0  0  0  0  0  0  0  0
    5.1789    1.0383   -1.9772 H   0  0  0  0  0  0  0  0  0  0  0  0
    6.6183    0.2413   -1.3236 H   0  0  0  0  0  0  0  0  0  0  0  0
    7.2457    1.6397    0.4337 H   0  0  0  0  0  0  0  0  0  0  0  0
    6.0995    2.9049   -0.0368 H   0  0  0  0  0  0  0  0  0  0  0  0
    6.0998    2.2332    1.6226 H   0  0  0  0  0  0  0  0  0  0  0  0
    2.1119    3.6799    1.6433 H   0  0  0  0  0  0  0  0  0  0  0  0
   -2.2387   -2.2032    1.7140 H   0  0  0  0  0  0  0  0  0  0  0  0
   -3.0361   -1.2241    3.8205 H   0  0  0  0  0  0  0  0  0  0  0  0
  1  2  1  0
  2  3  1  0
  3  4  1  0
  4  5  2  0
  5  6  1  0
  6  7  1  0
  7  8  1  0
  8  9  1  0
  9 10  1  0
 10 11  1  0
 11 12  1  0
 12 13  1  0
 13 14  1  0
 14 15  2  0
 14 16  1  0
 16 17  1  0
 17 18  2  0
 18 19  1  0
 19 20  1  0
 20 21  1  0
 20 22  1  0
 19 23  2  0
 23 24  1  0
 24 25  2  0
  6 26  2  0
 26 27  1  0
 27  3  2  0
 13  7  1  0
 25 17  1  0
  1 28  1  0
  1 29  1  0
  1 30  1  0
  4 31  1  0
  5 32  1  0
  7 33  1  0
  8 34  1  0
  8 35  1  0
  9 36  1  0
  9 37  1  0
 10 38  1  0
 10 39  1  0
 11 40  1  0
 11 41  1  0
 12 42  1  0
 12 43  1  0
 16 44  1  0
 18 45  1  0
 21 46  1  0
 21 47  1  0
 21 48  1  0
 22 49  1  0
 22 50  1  0
 22 51  1  0
 24 52  1  0
 26 53  1  0
 27 54  1  0
M  END
$$$$
OCNT-2318647
     RDKit          3D

 37 40  0  0  0  0  0  0  0  0999 V2000
   -4.3907   -0.2917    2.1807 C   0  0  0  0  0  0  0  0  0  0  0  0
   -4.4440    0.1579    0.8102 N   0  0  0  0  0  0  0  0  0  0  0  0
   -5.5519    0.7777    0.3552 N   0  0  0  0  0  0  0  0  0  0  0  0
   -5.2551    1.0479   -0.9181 C   0  0  0  0  0  0  0  0  0  0  0  0
   -3.9652    0.6061   -1.2854 C   0  0  0  0  0  0  0  0  0  0  0  0
   -3.1809    0.6354   -2.4507 C   0  0  0  0  0  0  0  0  0  0  0  0
   -1.8977    0.0721   -2.4187 C   0  0  0  0  0  0  0  0  0  0  0  0
   -1.3916   -0.5194   -1.2521 C   0  0  0  0  0  0  0  0  0  0  0  0
    0.0020   -1.1143   -1.2354 C   0  0  0  0  0  0  0  0  0  0  0  0
    0.8523   -0.2856   -0.3888 N   0  0  0  0  0  0  0  0  0  0  0  0
    2.1989   -0.6975   -0.3139 C   0  0  0  0  0  0  0  0  0  0  0  0
    2.5715   -1.8146   -0.9614 N   0  0  0  0  0  0  0  0  0  0  0  0
    3.8570   -2.1697   -0.8607 C   0  0  0  0  0  0  0  0  0  0  0  0
    4.8072   -1.5231   -0.1774 N   0  0  0  0  0  0  0  0  0  0  0  0
    4.4266   -0.4272    0.4819 C   0  0  0  0  0  0  0  0  0  0  0  0
    5.3785    0.2676    1.2213 C   0  0  0  0  0  0  0  0  0  0  0  0
    5.0526    1.4156    1.9473 C   0  0  0  0  0  0  0  0  0  0  0  0
    3.7466    1.8735    1.9356 C   0  0  0  0  0  0  0  0  0  0  0  0
    3.4203    2.9677    2.6340 F   0  0  0  0  0  0  0  0  0  0  0  0
    2.7721    1.2072    1.2071 C   0  0  0  0  0  0  0  0  0  0  0  0
    3.1055    0.0491    0.4626 C   0  0  0  0  0  0  0  0  0  0  0  0
   -2.1730   -0.5483   -0.0817 C   0  0  0  0  0  0  0  0  0  0  0  0
   -3.4528    0.0216   -0.1316 C   0  0  0  0  0  0  0  0  0  0  0  0
   -5.3190   -0.0227    2.6913 H   0  0  0  0  0  0  0  0  0  0  0  0
   -4.2670   -1.3775    2.1825 H   0  0  0  0  0  0  0  0  0  0  0  0
   -3.5439    0.1946    2.6712 H   0  0  0  0  0  0  0  0  0  0  0  0
   -5.9883    1.5565   -1.5298 H   0  0  0  0  0  0  0  0  0  0  0  0
   -3.5593    1.0874   -3.3627 H   0  0  0  0  0  0  0  0  0  0  0  0
   -1.2944    0.1003   -3.3244 H   0  0  0  0  0  0  0  0  0  0  0  0
    0.3939   -1.1603   -2.2595 H   0  0  0  0  0  0  0  0  0  0  0  0
   -0.0627   -2.1404   -0.8511 H   0  0  0  0  0  0  0  0  0  0  0  0
    0.8137    0.6865   -0.6824 H   0  0  0  0  0  0  0  0  0  0  0  0
    4.1588   -3.0692   -1.3865 H   0  0  0  0  0  0  0  0  0  0  0  0
    6.4033   -0.0982    1.2356 H   0  0  0  0  0  0  0  0  0  0  0  0
    5.8080    1.9433    2.5206 H   0  0  0  0  0  0  0  0  0  0  0  0
    1.7543    1.5848    1.2337 H   0  0  0  0  0  0  0  0  0  0  0  0
   -1.7858   -0.9928    0.8310 H   0  0  0  0  0  0  0  0  0  0  0  0
  1  2  1  0
  2  3  1  0
  3  4  2  0
  4  5  1  0
  5  6  2  0
  6  7  1  0
  7  8  2  0
  8  9  1  0
  9 10  1  0
 10 11  1  0
 11 12  1  0
 12 13  2  0
 13 14  1  0
 14 15  2  0
 15 16  1  0
 16 17  2  0
 17 18  1  0
 18 19  1  0
 18 20  2  0
 20 21  1  0
  8 22  1  0
 22 23  2  0
 23  2  1  0
 23  5  1  0
 21 11  2  0
 21 15  1  0
  1 24  1  0
  1 25  1  0
  1 26  1  0
  4 27  1  0
  6 28  1  0
  7 29  1  0
  9 30  1  0
  9 31  1  0
 10 32  1  0
 13 33  1  0
 16 34  1  0
 17 35  1  0
 20 36  1  0
 22 37  1  0
M  END
$$$$
OCNT-2318651
     RDKit          3D

 52 56  0  0  0  0  0  0  0  0999 V2000
   -3.7786   -2.9243    0.5187 C   0  0  0  0  0  0  0  0  0  0  0  0
   -2.7795   -1.9697   -0.1414 C   0  0  0  0  0  0  0  0  0  0  0  0
   -1.3512   -2.3682    0.3038 C   0  0  0  0  0  0  0  0  0  0  0  0
   -0.3309   -1.4075   -0.1127 N   0  0  0  0  0  0  0  0  0  0  0  0
    0.9759   -1.8581   -0.2695 C   0  0  0  0  0  0  0  0  0  0  0  0
    1.3243   -3.0117   -0.0322 O   0  0  0  0  0  0  0  0  0  0  0  0
    2.0052   -0.9041   -0.7400 C   0  0  0  0  0  0  0  0  0  0  0  0
    1.8445   -0.2213   -1.9474 C   0  0  0  0  0  0  0  0  0  0  0  0
    2.8309    0.6660   -2.3678 C   0  0  0  0  0  0  0  0  0  0  0  0
    3.9767    0.8577   -1.5885 C   0  0  0  0  0  0  0  0  0  0  0  0
    4.1703    0.1605   -0.3809 C   0  0  0  0  0  0  0  0  0  0  0  0
    5.3864    0.3623    0.4286 C   0  0  0  0  0  0  0  0  0  0  0  0
    6.1512   -0.7165    0.8978 C   0  0  0  0  0  0  0  0  0  0  0  0
    5.7948   -1.9763    0.6032 F   0  0  0  0  0  0  0  0  0  0  0  0
    7.3031   -0.5325    1.6666 C   0  0  0  0  0  0  0  0  0  0  0  0
    7.7255    0.7535    1.9903 C   0  0  0  0  0  0  0  0  0  0  0  0
    6.9900    1.8460    1.5405 C   0  0  0  0  0  0  0  0  0  0  0  0
    5.8405    1.6450    0.7724 C   0  0  0  0  0  0  0  0  0  0  0  0
    5.1608    2.7318    0.3730 F   0  0  0  0  0  0  0  0  0  0  0  0
    3.1653   -0.7334    0.0257 C   0  0  0  0  0  0  0  0  0  0  0  0
   -0.7127    0.0072   -0.0394 C   0  0  0  0  0  0  0  0  0  0  0  0
   -2.0088    0.2400    0.7572 C   0  0  0  0  0  0  0  0  0  0  0  0
   -3.1115   -0.5632    0.2055 N   0  0  0  0  0  0  0  0  0  0  0  0
   -4.2761    0.0369   -0.2837 C   0  0  0  0  0  0  0  0  0  0  0  0
   -4.9232   -0.5576   -1.2733 N   0  0  0  0  0  0  0  0  0  0  0  0
   -6.0784    0.0008   -1.7877 C   0  0  0  0  0  0  0  0  0  0  0  0
   -6.6240    1.1431   -1.3427 C   0  0  0  0  0  0  0  0  0  0  0  0
   -5.9853    1.7868   -0.3083 N   0  0  0  0  0  0  0  0  0  0  0  0
   -6.2448    2.9285    0.3876 C   0  0  0  0  0  0  0  0  0  0  0  0
   -5.3205    3.1055    1.3084 N   0  0  0  0  0  0  0  0  0  0  0  0
   -4.4318    2.0502    1.2213 N   0  0  0  0  0  0  0  0  0  0  0  0
   -4.8386    1.2798    0.2350 C   0  0  0  0  0  0  0  0  0  0  0  0
   -3.7776   -2.8035    1.6079 H   0  0  0  0  0  0  0  0  0  0  0  0
   -4.8017   -2.7503    0.1725 H   0  0  0  0  0  0  0  0  0  0  0  0
   -3.5286   -3.9661    0.2914 H   0  0  0  0  0  0  0  0  0  0  0  0
   -2.8263   -2.0816   -1.2323 H   0  0  0  0  0  0  0  0  0  0  0  0
   -1.2909   -2.4321    1.3982 H   0  0  0  0  0  0  0  0  0  0  0  0
   -1.1043   -3.3620   -0.0884 H   0  0  0  0  0  0  0  0  0  0  0  0
    0.9658   -0.3885   -2.5642 H   0  0  0  0  0  0  0  0  0  0  0  0
    2.7173    1.2049   -3.3052 H   0  0  0  0  0  0  0  0  0  0  0  0
    4.7344    1.5554   -1.9432 H   0  0  0  0  0  0  0  0  0  0  0  0
    7.8615   -1.4012    2.0037 H   0  0  0  0  0  0  0  0  0  0  0  0
    8.6207    0.9026    2.5886 H   0  0  0  0  0  0  0  0  0  0  0  0
    7.2985    2.8589    1.7826 H   0  0  0  0  0  0  0  0  0  0  0  0
    3.2747   -1.3037    0.9471 H   0  0  0  0  0  0  0  0  0  0  0  0
   -0.8550    0.3524   -1.0698 H   0  0  0  0  0  0  0  0  0  0  0  0
    0.1019    0.5858    0.4083 H   0  0  0  0  0  0  0  0  0  0  0  0
   -1.8642   -0.0337    1.8089 H   0  0  0  0  0  0  0  0  0  0  0  0
   -2.2140    1.3125    0.7249 H   0  0  0  0  0  0  0  0  0  0  0  0
   -6.5431   -0.5514   -2.6011 H   0  0  0  0  0  0  0  0  0  0  0  0
   -7.5291    1.5761   -1.7456 H   0  0  0  0  0  0  0  0  0  0  0  0
   -7.0898    3.5729    0.1958 H   0  0  0  0  0  0  0  0  0  0  0  0
  1  2  1  0
  2  3  1  0
  3  4  1  0
  4  5  1  0
  5  6  2  0
  5  7  1  0
  7  8  1  0
  8  9  2  0
  9 10  1  0
 10 11  2  0
 11 12  1  0
 12 13  2  0
 13 14  1  0
 13 15  1  0
 15 16  2  0
 16 17  1  0
 17 18  2  0
 18 19  1  0
 11 20  1  0
  4 21  1  0
 21 22  1  0
 22 23  1  0
 23 24  1  0
 24 25  2  0
 25 26  1  0
 26 27  2  0
 27 28  1  0
 28 29  1  0
 29 30  2  0
 30 31  1  0
 31 32  2  0
 23  2  1  0
 32 24  1  0
 20  7  2  0
 32 28  1  0
 18 12  1  0
  1 33  1  0
  1 34  1  0
  1 35  1  0
  2 36  1  0
  3 37  1  0
  3 38  1  0
  8 39  1  0
  9 40  1  0
 10 41  1  0
 15 42  1  0
 16 43  1  0
 17 44  1  0
 20 45  1  0
 21 46  1  0
 21 47  1  0
 22 48  1  0
 22 49  1  0
 26 50  1  0
 27 51  1  0
 29 52  1  0
M  END
$$$$
OCNT-2318657
     RDKit          3D

 47 50  0  0  0  0  0  0  0  0999 V2000
    5.8241    0.4855   -2.3209 C   0  0  0  0  0  0  0  0  0  0  0  0
    5.4448   -0.3906   -1.1261 C   0  0  0  0  0  0  0  0  0  0  0  0
    6.6963   -0.9188   -0.4233 C   0  0  0  0  0  0  0  0  0  0  0  0
    4.5325    0.3320   -0.1722 C   0  0  0  0  0  0  0  0  0  0  0  0
    4.8102    1.4782    0.5500 C   0  0  0  0  0  0  0  0  0  0  0  0
    3.4579    1.9253    1.4985 S   0  0  0  0  0  0  0  0  0  0  0  0
    2.5949    0.5710    0.8861 C   0  0  0  0  0  0  0  0  0  0  0  0
    1.1818    0.3043    1.3250 C   0  0  0  0  0  0  0  0  0  0  0  0
    1.0738   -1.0657    2.0126 C   0  0  0  0  0  0  0  0  0  0  0  0
   -0.3774   -1.3754    2.3754 C   0  0  0  0  0  0  0  0  0  0  0  0
   -1.2847   -1.2706    1.1540 C   0  0  0  0  0  0  0  0  0  0  0  0
   -1.1453    0.0306    0.4983 N   0  0  0  0  0  0  0  0  0  0  0  0
   -2.1820    0.5918   -0.2719 C   0  0  0  0  0  0  0  0  0  0  0  0
   -1.9309    1.2642   -1.2747 O   0  0  0  0  0  0  0  0  0  0  0  0
   -3.5829    0.3959    0.1612 C   0  0  0  0  0  0  0  0  0  0  0  0
   -3.9436    0.2125    1.4498 N   0  0  0  0  0  0  0  0  0  0  0  0
   -5.2826    0.1345    1.4104 N   0  0  0  0  0  0  0  0  0  0  0  0
   -5.8224    0.2627    0.1626 C   0  0  0  0  0  0  0  0  0  0  0  0
   -7.1480    0.2395   -0.2827 C   0  0  0  0  0  0  0  0  0  0  0  0
   -7.3628    0.4201   -1.6528 C   0  0  0  0  0  0  0  0  0  0  0  0
   -6.2965    0.6169   -2.5297 C   0  0  0  0  0  0  0  0  0  0  0  0
   -4.9775    0.6356   -2.0601 C   0  0  0  0  0  0  0  0  0  0  0  0
   -4.7369    0.4513   -0.6841 C   0  0  0  0  0  0  0  0  0  0  0  0
    0.2265    0.3850    0.1255 C   0  0  0  0  0  0  0  0  0  0  0  0
    3.2596   -0.1787    0.0317 N   0  0  0  0  0  0  0  0  0  0  0  0
    6.4052    1.3615   -2.0117 H   0  0  0  0  0  0  0  0  0  0  0  0
    4.9295    0.8465   -2.8406 H   0  0  0  0  0  0  0  0  0  0  0  0
    6.4257   -0.0798   -3.0408 H   0  0  0  0  0  0  0  0  0  0  0  0
    4.8990   -1.2594   -1.5181 H   0  0  0  0  0  0  0  0  0  0  0  0
    6.4279   -1.5656    0.4195 H   0  0  0  0  0  0  0  0  0  0  0  0
    7.3152   -0.1033   -0.0325 H   0  0  0  0  0  0  0  0  0  0  0  0
    7.3109   -1.5053   -1.1146 H   0  0  0  0  0  0  0  0  0  0  0  0
    5.7206    2.0598    0.5641 H   0  0  0  0  0  0  0  0  0  0  0  0
    0.8681    1.0643    2.0545 H   0  0  0  0  0  0  0  0  0  0  0  0
    1.4571   -1.8567    1.3545 H   0  0  0  0  0  0  0  0  0  0  0  0
    1.6917   -1.0851    2.9188 H   0  0  0  0  0  0  0  0  0  0  0  0
   -0.4451   -2.3815    2.8038 H   0  0  0  0  0  0  0  0  0  0  0  0
   -0.7168   -0.6708    3.1446 H   0  0  0  0  0  0  0  0  0  0  0  0
   -1.0066   -2.0304    0.4122 H   0  0  0  0  0  0  0  0  0  0  0  0
   -2.3115   -1.4961    1.4387 H   0  0  0  0  0  0  0  0  0  0  0  0
   -5.7800   -0.0029    2.2825 H   0  0  0  0  0  0  0  0  0  0  0  0
   -7.9797    0.0931    0.3985 H   0  0  0  0  0  0  0  0  0  0  0  0
   -8.3793    0.4114   -2.0408 H   0  0  0  0  0  0  0  0  0  0  0  0
   -6.4879    0.7606   -3.5907 H   0  0  0  0  0  0  0  0  0  0  0  0
   -4.1520    0.7953   -2.7494 H   0  0  0  0  0  0  0  0  0  0  0  0
    0.5317   -0.2937   -0.6820 H   0  0  0  0  0  0  0  0  0  0  0  0
    0.2474    1.4012   -0.2878 H   0  0  0  0  0  0  0  0  0  0  0  0
  1  2  1  0
  2  3  1  0
  2  4  1  0
  4  5  2  0
  5  6  1  0
  6  7  1  0
  7  8  1  0
  8  9  1  0
  9 10  1  0
 10 11  1  0
 11 12  1  0
 12 13  1  0
 13 14  2  0
 13 15  1  0
 15 16  2  0
 16 17  1  0
 17 18  1  0
 18 19  2  0
 19 20  1  0
 20 21  2  0
 21 22  1  0
 22 23  2  0
 12 24  1  0
  7 25  2  0
 25  4  1  0
 24  8  1  0
 23 15  1  0
 23 18  1  0
  1 26  1  0
  1 27  1  0
  1 28  1  0
  2 29  1  0
  3 30  1  0
  3 31  1  0
  3 32  1  0
  5 33  1  0
  8 34  1  0
  9 35  1  0
  9 36  1  0
 10 37  1  0
 10 38  1  0
 11 39  1  0
 11 40  1  0
 17 41  1  0
 19 42  1  0
 20 43  1  0
 21 44  1  0
 22 45  1  0
 24 46  1  0
 24 47  1  0
M  END
$$$$
OCNT-2318658
     RDKit          3D

 38 41  0  0  0  0  0  0  0  0999 V2000
    7.1532   -2.0866    1.5395 Cl  0  0  0  0  0  0  0  0  0  0  0  0
    5.7631   -1.1081    1.2778 C   0  0  0  0  0  0  0  0  0  0  0  0
    5.1770   -1.0616    0.0141 C   0  0  0  0  0  0  0  0  0  0  0  0
    4.0459   -0.2677   -0.2058 C   0  0  0  0  0  0  0  0  0  0  0  0
    3.5009    0.4825    0.8466 C   0  0  0  0  0  0  0  0  0  0  0  0
    2.3540    1.2949    0.6486 N   0  0  0  0  0  0  0  0  0  0  0  0
    1.6243    1.4953   -0.4988 C   0  0  0  0  0  0  0  0  0  0  0  0
    0.6132    2.3581   -0.1341 C   0  0  0  0  0  0  0  0  0  0  0  0
   -0.5016    2.9231   -0.9402 C   0  0  0  0  0  0  0  0  0  0  0  0
   -1.0093    2.0165   -1.9283 O   0  0  0  0  0  0  0  0  0  0  0  0
   -1.9102    1.0646   -1.5307 C   0  0  0  0  0  0  0  0  0  0  0  0
   -2.4530    0.3096   -2.5883 C   0  0  0  0  0  0  0  0  0  0  0  0
   -3.3850   -0.7053   -2.3535 C   0  0  0  0  0  0  0  0  0  0  0  0
   -3.7509   -0.9582   -1.0459 C   0  0  0  0  0  0  0  0  0  0  0  0
   -4.7268   -1.9474   -0.5046 C   0  0  0  0  0  0  0  0  0  0  0  0
   -4.4940   -1.9705    0.9624 N   0  0  0  0  0  0  0  0  0  0  0  0
   -3.8126   -0.6909    1.2887 C   0  0  0  0  0  0  0  0  0  0  0  0
   -3.2157   -0.2197    0.0050 C   0  0  0  0  0  0  0  0  0  0  0  0
   -2.2985    0.7973   -0.2152 C   0  0  0  0  0  0  0  0  0  0  0  0
    0.7513    2.6692    1.1889 N   0  0  0  0  0  0  0  0  0  0  0  0
    1.8093    2.0220    1.6562 N   0  0  0  0  0  0  0  0  0  0  0  0
    4.0992    0.4281    2.1164 C   0  0  0  0  0  0  0  0  0  0  0  0
    5.2292   -0.3671    2.3290 C   0  0  0  0  0  0  0  0  0  0  0  0
    5.5955   -1.6418   -0.8048 H   0  0  0  0  0  0  0  0  0  0  0  0
    3.6185   -0.2603   -1.2043 H   0  0  0  0  0  0  0  0  0  0  0  0
    1.8503    1.0243   -1.4418 H   0  0  0  0  0  0  0  0  0  0  0  0
   -1.3101    3.3154   -0.3116 H   0  0  0  0  0  0  0  0  0  0  0  0
   -0.1100    3.7863   -1.4916 H   0  0  0  0  0  0  0  0  0  0  0  0
   -2.1462    0.5254   -3.6094 H   0  0  0  0  0  0  0  0  0  0  0  0
   -3.8051   -1.2724   -3.1775 H   0  0  0  0  0  0  0  0  0  0  0  0
   -5.7517   -1.6206   -0.7093 H   0  0  0  0  0  0  0  0  0  0  0  0
   -4.5706   -2.9446   -0.9274 H   0  0  0  0  0  0  0  0  0  0  0  0
   -3.8124   -2.7100    1.1342 H   0  0  0  0  0  0  0  0  0  0  0  0
   -3.0487   -0.8547    2.0552 H   0  0  0  0  0  0  0  0  0  0  0  0
   -4.5472    0.0341    1.6543 H   0  0  0  0  0  0  0  0  0  0  0  0
   -1.9096    1.3429    0.6365 H   0  0  0  0  0  0  0  0  0  0  0  0
    3.6999    0.9985    2.9540 H   0  0  0  0  0  0  0  0  0  0  0  0
    5.6845   -0.4020    3.3156 H   0  0  0  0  0  0  0  0  0  0  0  0
  1  2  1  0
  2  3  1  0
  3  4  2  0
  4  5  1  0
  5  6  1  0
  6  7  1  0
  7  8  2  0
  8  9  1  0
  9 10  1  0
 10 11  1  0
 11 12  1  0
 12 13  2  0
 13 14  1  0
 14 15  1  0
 15 16  1  0
 16 17  1  0
 17 18  1  0
 18 19  1  0
  8 20  1  0
 20 21  2  0
  5 22  2  0
 22 23  1  0
 23  2  2  0
 21  6  1  0
 19 11  2  0
 18 14  2  0
  3 24  1  0
  4 25  1  0
  7 26  1  0
  9 27  1  0
  9 28  1  0
 12 29  1  0
 13 30  1  0
 15 31  1  0
 15 32  1  0
 16 33  1  0
 17 34  1  0
 17 35  1  0
 19 36  1  0
 22 37  1  0
 23 38  1  0
M  END
$$$$
OCNT-2318659
     RDKit          3D

  0  0  0  0  0  0  0  0  0  0999 V3000
M  V30 BEGIN CTAB
M  V30 COUNTS 48 51 0 0 0
M  V30 BEGIN ATOM
M  V30 1 C 4.863247 1.181137 -0.209721 0
M  V30 2 C 4.109595 0.311516 0.816177 0
M  V30 3 C 5.000875 -0.904412 1.155529 0
M  V30 4 C 3.896845 1.121671 2.110137 0
M  V30 5 C 2.747383 -0.195632 0.252736 0 CFG=2
M  V30 6 O 2.984331 -0.989547 -0.936977 0
M  V30 7 C 1.932877 -0.712693 -1.864684 0
M  V30 8 C 1.587566 0.739025 -1.639023 0
M  V30 9 C 1.720108 0.892252 -0.131319 0 CFG=1
M  V30 10 C 0.429539 0.697549 0.595028 0
M  V30 11 N 0.194042 1.262145 1.787078 0
M  V30 12 O -1.081779 0.802316 2.113720 0
M  V30 13 C -1.489726 0.008553 1.076926 0
M  V30 14 C -2.859448 -0.587702 1.201658 0
M  V30 15 O -2.744021 -2.026196 1.127717 0
M  V30 16 C -2.748955 -2.522520 -0.211949 0
M  V30 17 C -4.095312 -2.249779 -0.870821 0
M  V30 18 C -4.440972 -0.786622 -0.784320 0
M  V30 19 C -5.373357 -0.227186 -1.668198 0
M  V30 20 C -5.723624 1.119083 -1.562666 0
M  V30 21 C -5.157661 1.911344 -0.566586 0
M  V30 22 C -4.238169 1.360760 0.327168 0
M  V30 23 C -3.866571 0.007409 0.226700 0
M  V30 24 N -0.590811 -0.083427 0.117177 0
M  V30 25 H 5.831509 1.506005 0.187233 0
M  V30 26 H 5.058653 0.630501 -1.136583 0
M  V30 27 H 4.302671 2.083935 -0.469352 0
M  V30 28 H 4.515309 -1.556840 1.891334 0
M  V30 29 H 5.220627 -1.507288 0.267530 0
M  V30 30 H 5.959943 -0.584282 1.580097 0
M  V30 31 H 3.343177 2.048286 1.926597 0
M  V30 32 H 4.856179 1.406948 2.562451 0
M  V30 33 H 3.342744 0.535177 2.853653 0
M  V30 34 H 2.313503 -0.885993 0.991265 0
M  V30 35 H 2.281174 -0.908081 -2.883001 0
M  V30 36 H 1.090645 -1.377911 -1.648271 0
M  V30 37 H 0.611231 1.014507 -2.050278 0
M  V30 38 H 2.345321 1.363697 -2.128339 0
M  V30 39 H 2.069032 1.905308 0.093386 0
M  V30 40 H -3.233352 -0.392281 2.214474 0
M  V30 41 H -2.575850 -3.601217 -0.165464 0
M  V30 42 H -1.923404 -2.089829 -0.785554 0
M  V30 43 H -4.063808 -2.578546 -1.916035 0
M  V30 44 H -4.882006 -2.811030 -0.352761 0
M  V30 45 H -5.831395 -0.835918 -2.443406 0
M  V30 46 H -6.441864 1.548251 -2.255234 0
M  V30 47 H -5.434745 2.959542 -0.483797 0
M  V30 48 H -3.811295 1.998012 1.100990 0
M  V30 END ATOM
M  V30 BEGIN BOND
M  V30 1 1 1 2
M  V30 2 1 2 3
M  V30 3 1 2 4
M  V30 4 1 2 5
M  V30 5 1 5 6
M  V30 6 1 6 7
M  V30 7 1 7 8
M  V30 8 1 8 9
M  V30 9 1 9 10
M  V30 10 2 10 11
M  V30 11 1 11 12
M  V30 12 1 12 13
M  V30 13 1 13 14
M  V30 14 1 14 15
M  V30 15 1 15 16
M  V30 16 1 16 17
M  V30 17 1 17 18
M  V30 18 2 18 19
M  V30 19 1 19 20
M  V30 20 2 20 21
M  V30 21 1 21 22
M  V30 22 2 22 23
M  V30 23 2 13 24
M  V30 24 1 9 5
M  V30 25 1 24 10
M  V30 26 1 23 14
M  V30 27 1 23 18
M  V30 28 1 1 25
M  V30 29 1 1 26
M  V30 30 1 1 27
M  V30 31 1 3 28
M  V30 32 1 3 29
M  V30 33 1 3 30
M  V30 34 1 4 31
M  V30 35 1 4 32
M  V30 36 1 4 33
M  V30 37 1 5 34 CFG=1
M  V30 38 1 7 35
M  V30 39 1 7 36
M  V30 40 1 8 37
M  V30 41 1 8 38
M  V30 42 1 9 39 CFG=3
M  V30 43 1 14 40
M  V30 44 1 16 41
M  V30 45 1 16 42
M  V30 46 1 17 43
M  V30 47 1 17 44
M  V30 48 1 19 45
M  V30 49 1 20 46
M  V30 50 1 21 47
M  V30 51 1 22 48
M  V30 END BOND
M  V30 BEGIN COLLECTION
M  V30 MDLV30/STERAC1 ATOMS=(2 5 9)
M  V30 END COLLECTION
M  V30 END CTAB
M  END
>  <_CXSMILES_Data>  (1341) 
|&1:4,8|

$$$$
OCNT-2318668
     RDKit          3D

 42 43  0  0  0  0  0  0  0  0999 V2000
    1.7168    0.2035   -1.3659 C   0  0  0  0  0  0  0  0  0  0  0  0
    2.8306    0.8191   -0.5305 C   0  0  0  0  0  0  0  0  0  0  0  0
    2.7636    0.4434    0.8839 N   0  0  0  0  0  0  0  0  0  0  0  0
    3.6268   -0.6524    1.3345 C   0  0  0  0  0  0  0  0  0  0  0  0
    3.0129   -2.0242    1.1074 C   0  0  0  0  0  0  0  0  0  0  0  0
    1.8006    1.0690    1.6791 C   0  0  0  0  0  0  0  0  0  0  0  0
    1.0954    1.9770    1.2235 O   0  0  0  0  0  0  0  0  0  0  0  0
    1.6614    0.6060    3.1328 C   0  0  0  0  0  0  0  0  0  0  0  0
   -0.0316    0.8582    3.7605 S   0  0  0  0  0  0  0  0  0  0  0  0
   -0.8673   -0.1639    2.6595 C   0  0  0  0  0  0  0  0  0  0  0  0
   -0.9541   -1.4687    2.6696 N   0  0  0  0  0  0  0  0  0  0  0  0
   -1.6136   -1.8353    1.5130 N   0  0  0  0  0  0  0  0  0  0  0  0
   -1.8875   -0.7421    0.8165 C   0  0  0  0  0  0  0  0  0  0  0  0
   -2.5214   -0.6658   -0.5045 C   0  0  0  0  0  0  0  0  0  0  0  0
   -3.0220   -1.8539   -1.0665 C   0  0  0  0  0  0  0  0  0  0  0  0
   -3.6265   -1.8472   -2.3209 C   0  0  0  0  0  0  0  0  0  0  0  0
   -4.2328   -3.3115   -2.9899 Cl  0  0  0  0  0  0  0  0  0  0  0  0
   -3.7472   -0.6612   -3.0365 C   0  0  0  0  0  0  0  0  0  0  0  0
   -3.2538    0.5290   -2.4978 C   0  0  0  0  0  0  0  0  0  0  0  0
   -2.6302    0.5355   -1.2425 C   0  0  0  0  0  0  0  0  0  0  0  0
   -2.1384    1.6795   -0.6618 O   0  0  0  0  0  0  0  0  0  0  0  0
   -1.7513    2.7299   -1.5435 C   0  0  0  0  0  0  0  0  0  0  0  0
   -1.4491    0.3367    1.5425 N   0  0  0  0  0  0  0  0  0  0  0  0
    1.8008    0.5327   -2.4063 H   0  0  0  0  0  0  0  0  0  0  0  0
    0.7301    0.4987   -0.9977 H   0  0  0  0  0  0  0  0  0  0  0  0
    1.7615   -0.8885   -1.3534 H   0  0  0  0  0  0  0  0  0  0  0  0
    3.8082    0.5359   -0.9351 H   0  0  0  0  0  0  0  0  0  0  0  0
    2.7629    1.9113   -0.6007 H   0  0  0  0  0  0  0  0  0  0  0  0
    3.8497   -0.5215    2.3978 H   0  0  0  0  0  0  0  0  0  0  0  0
    4.5883   -0.5781    0.8140 H   0  0  0  0  0  0  0  0  0  0  0  0
    2.9307   -2.2468    0.0399 H   0  0  0  0  0  0  0  0  0  0  0  0
    2.0115   -2.0966    1.5424 H   0  0  0  0  0  0  0  0  0  0  0  0
    3.6413   -2.7980    1.5592 H   0  0  0  0  0  0  0  0  0  0  0  0
    1.8875   -0.4545    3.2498 H   0  0  0  0  0  0  0  0  0  0  0  0
    2.3581    1.1864    3.7445 H   0  0  0  0  0  0  0  0  0  0  0  0
   -2.9385   -2.7901   -0.5162 H   0  0  0  0  0  0  0  0  0  0  0  0
   -4.2285   -0.6539   -4.0112 H   0  0  0  0  0  0  0  0  0  0  0  0
   -3.3833    1.4397   -3.0744 H   0  0  0  0  0  0  0  0  0  0  0  0
   -1.1250    2.3592   -2.3622 H   0  0  0  0  0  0  0  0  0  0  0  0
   -1.1573    3.4454   -0.9669 H   0  0  0  0  0  0  0  0  0  0  0  0
   -2.6307    3.2574   -1.9254 H   0  0  0  0  0  0  0  0  0  0  0  0
   -1.4488    1.3005    1.2390 H   0  0  0  0  0  0  0  0  0  0  0  0
  1  2  1  0
  2  3  1  0
  3  4  1  0
  4  5  1  0
  3  6  1  0
  6  7  2  0
  6  8  1  0
  8  9  1  0
  9 10  1  0
 10 11  2  0
 11 12  1  0
 12 13  2  0
 13 14  1  0
 14 15  1  0
 15 16  2  0
 16 17  1  0
 16 18  1  0
 18 19  2  0
 19 20  1  0
 20 21  1  0
 21 22  1  0
 13 23  1  0
 23 10  1  0
 20 14  2  0
  1 24  1  0
  1 25  1  0
  1 26  1  0
  2 27  1  0
  2 28  1  0
  4 29  1  0
  4 30  1  0
  5 31  1  0
  5 32  1  0
  5 33  1  0
  8 34  1  0
  8 35  1  0
 15 36  1  0
 18 37  1  0
 19 38  1  0
 22 39  1  0
 22 40  1  0
 22 41  1  0
 23 42  1  0
M  END
$$$$
OCNT-2318671
     RDKit          3D

 43 46  0  0  0  0  0  0  0  0999 V2000
   -8.0040    0.0997   -1.5450 C   0  0  0  0  0  0  0  0  0  0  0  0
   -7.4636    0.5355   -0.3037 O   0  0  0  0  0  0  0  0  0  0  0  0
   -6.1043    0.4530   -0.1578 C   0  0  0  0  0  0  0  0  0  0  0  0
   -5.2106   -0.0418   -1.1042 C   0  0  0  0  0  0  0  0  0  0  0  0
   -3.8288   -0.0787   -0.8449 C   0  0  0  0  0  0  0  0  0  0  0  0
   -3.3257    0.3941    0.3839 C   0  0  0  0  0  0  0  0  0  0  0  0
   -4.2521    0.8702    1.3095 C   0  0  0  0  0  0  0  0  0  0  0  0
   -5.6315    0.9170    1.0736 C   0  0  0  0  0  0  0  0  0  0  0  0
   -3.5196    1.2372    2.4006 N   0  0  0  0  0  0  0  0  0  0  0  0
   -2.2027    1.0291    2.2754 N   0  0  0  0  0  0  0  0  0  0  0  0
   -2.0629    0.5373    1.0378 C   0  0  0  0  0  0  0  0  0  0  0  0
   -0.7694    0.2559    0.6622 N   0  0  0  0  0  0  0  0  0  0  0  0
   -0.3003   -0.1199   -0.5691 C   0  0  0  0  0  0  0  0  0  0  0  0
   -0.9366   -0.2145   -1.6099 O   0  0  0  0  0  0  0  0  0  0  0  0
    1.1659   -0.3904   -0.6183 C   0  0  0  0  0  0  0  0  0  0  0  0
    1.8490   -0.9641    0.4606 C   0  0  0  0  0  0  0  0  0  0  0  0
    3.2229   -1.2067    0.3693 C   0  0  0  0  0  0  0  0  0  0  0  0
    3.9314   -0.8851   -0.7993 C   0  0  0  0  0  0  0  0  0  0  0  0
    5.4145   -1.1476   -0.8985 C   0  0  0  0  0  0  0  0  0  0  0  0
    6.1748   -0.2987    0.0019 N   0  0  0  0  0  0  0  0  0  0  0  0
    6.8501   -0.7006    1.1216 C   0  0  0  0  0  0  0  0  0  0  0  0
    7.4424    0.4424    1.6062 C   0  0  0  0  0  0  0  0  0  0  0  0
    7.1521    1.5175    0.8069 N   0  0  0  0  0  0  0  0  0  0  0  0
    6.3894    1.0418   -0.1517 C   0  0  0  0  0  0  0  0  0  0  0  0
    3.2361   -0.3269   -1.8816 C   0  0  0  0  0  0  0  0  0  0  0  0
    1.8626   -0.0864   -1.7935 C   0  0  0  0  0  0  0  0  0  0  0  0
   -7.8139   -0.9667   -1.7053 H   0  0  0  0  0  0  0  0  0  0  0  0
   -7.6202    0.7005   -2.3761 H   0  0  0  0  0  0  0  0  0  0  0  0
   -9.0884    0.2415   -1.5052 H   0  0  0  0  0  0  0  0  0  0  0  0
   -5.5453   -0.4150   -2.0668 H   0  0  0  0  0  0  0  0  0  0  0  0
   -3.1697   -0.4811   -1.6066 H   0  0  0  0  0  0  0  0  0  0  0  0
   -6.3220    1.2986    1.8192 H   0  0  0  0  0  0  0  0  0  0  0  0
   -3.8651    1.6290    3.2691 H   0  0  0  0  0  0  0  0  0  0  0  0
   -0.1200    0.4728    1.4048 H   0  0  0  0  0  0  0  0  0  0  0  0
    1.3263   -1.2515    1.3694 H   0  0  0  0  0  0  0  0  0  0  0  0
    3.7374   -1.6516    1.2199 H   0  0  0  0  0  0  0  0  0  0  0  0
    5.7920   -0.9617   -1.9108 H   0  0  0  0  0  0  0  0  0  0  0  0
    5.6284   -2.1948   -0.6553 H   0  0  0  0  0  0  0  0  0  0  0  0
    6.8568   -1.7233    1.4707 H   0  0  0  0  0  0  0  0  0  0  0  0
    8.0654    0.5482    2.4850 H   0  0  0  0  0  0  0  0  0  0  0  0
    5.9708    1.6173   -0.9673 H   0  0  0  0  0  0  0  0  0  0  0  0
    3.7533   -0.0747   -2.8056 H   0  0  0  0  0  0  0  0  0  0  0  0
    1.3351    0.3433   -2.6437 H   0  0  0  0  0  0  0  0  0  0  0  0
  1  2  1  0
  2  3  1  0
  3  4  2  0
  4  5  1  0
  5  6  2  0
  6  7  1  0
  7  8  2  0
  7  9  1  0
  9 10  1  0
 10 11  2  0
 11 12  1  0
 12 13  1  0
 13 14  2  0
 13 15  1  0
 15 16  1  0
 16 17  2  0
 17 18  1  0
 18 19  1  0
 19 20  1  0
 20 21  1  0
 21 22  2  0
 22 23  1  0
 23 24  2  0
 18 25  2  0
 25 26  1  0
  8  3  1  0
 26 15  2  0
 11  6  1  0
 24 20  1  0
  1 27  1  0
  1 28  1  0
  1 29  1  0
  4 30  1  0
  5 31  1  0
  8 32  1  0
  9 33  1  0
 12 34  1  0
 16 35  1  0
 17 36  1  0
 19 37  1  0
 19 38  1  0
 21 39  1  0
 22 40  1  0
 24 41  1  0
 25 42  1  0
 26 43  1  0
M  END
$$$$
OCNT-2318680
     RDKit          3D

 45 48  0  0  0  0  0  0  0  0999 V2000
    3.4480   -2.7621    0.6114 C   0  0  0  0  0  0  0  0  0  0  0  0
    3.5056   -1.3164    0.4877 N   0  0  0  0  0  0  0  0  0  0  0  0
    2.4233   -0.7282   -0.1089 N   0  0  0  0  0  0  0  0  0  0  0  0
    2.3992    0.5598   -0.3094 C   0  0  0  0  0  0  0  0  0  0  0  0
    1.2247    1.0800   -0.9816 C   0  0  0  0  0  0  0  0  0  0  0  0
    1.0416    2.2743   -1.5080 N   0  0  0  0  0  0  0  0  0  0  0  0
   -0.2292    2.2888   -2.0415 N   0  0  0  0  0  0  0  0  0  0  0  0
   -0.7404    1.0969   -1.8139 C   0  0  0  0  0  0  0  0  0  0  0  0
   -2.0667    0.5451   -2.1842 C   0  0  0  0  0  0  0  0  0  0  0  0
   -2.8473    0.3808   -0.9955 O   0  0  0  0  0  0  0  0  0  0  0  0
   -2.8290   -0.9515   -0.4643 C   0  0  0  0  0  0  0  0  0  0  0  0
   -3.1357   -0.8528    1.0301 C   0  0  0  0  0  0  0  0  0  0  0  0
   -4.5212   -0.2628    1.3105 C   0  0  0  0  0  0  0  0  0  0  0  0
   -5.5596   -0.6077    0.2424 C   0  0  0  0  0  0  0  0  0  0  0  0
   -5.2207   -1.9026   -0.4811 C   0  0  0  0  0  0  0  0  0  0  0  0
   -3.8644   -1.8273   -1.1913 C   0  0  0  0  0  0  0  0  0  0  0  0
    0.1306    0.2657   -1.1620 O   0  0  0  0  0  0  0  0  0  0  0  0
    3.5184    1.4443    0.1162 C   0  0  0  0  0  0  0  0  0  0  0  0
    3.5102    2.8443    0.0180 C   0  0  0  0  0  0  0  0  0  0  0  0
    4.6145    3.5968    0.4347 C   0  0  0  0  0  0  0  0  0  0  0  0
    5.7359    2.9649    0.9611 C   0  0  0  0  0  0  0  0  0  0  0  0
    5.7495    1.5783    1.0808 C   0  0  0  0  0  0  0  0  0  0  0  0
    4.6407    0.8234    0.6650 C   0  0  0  0  0  0  0  0  0  0  0  0
    4.6655   -0.6403    0.8380 C   0  0  0  0  0  0  0  0  0  0  0  0
    5.6740   -1.1824    1.2825 O   0  0  0  0  0  0  0  0  0  0  0  0
    4.1532   -3.1208    1.3661 H   0  0  0  0  0  0  0  0  0  0  0  0
    2.4356   -3.0631    0.8967 H   0  0  0  0  0  0  0  0  0  0  0  0
    3.7050   -3.2025   -0.3563 H   0  0  0  0  0  0  0  0  0  0  0  0
   -2.5919    1.2645   -2.8203 H   0  0  0  0  0  0  0  0  0  0  0  0
   -1.9667   -0.3897   -2.7461 H   0  0  0  0  0  0  0  0  0  0  0  0
   -1.8289   -1.3830   -0.5900 H   0  0  0  0  0  0  0  0  0  0  0  0
   -3.0692   -1.8522    1.4780 H   0  0  0  0  0  0  0  0  0  0  0  0
   -2.3843   -0.2295    1.5297 H   0  0  0  0  0  0  0  0  0  0  0  0
   -4.8621   -0.6230    2.2888 H   0  0  0  0  0  0  0  0  0  0  0  0
   -4.4528    0.8286    1.3968 H   0  0  0  0  0  0  0  0  0  0  0  0
   -5.6160    0.2085   -0.4887 H   0  0  0  0  0  0  0  0  0  0  0  0
   -6.5514   -0.6784    0.7034 H   0  0  0  0  0  0  0  0  0  0  0  0
   -5.2060   -2.7265    0.2437 H   0  0  0  0  0  0  0  0  0  0  0  0
   -6.0023   -2.1453   -1.2100 H   0  0  0  0  0  0  0  0  0  0  0  0
   -3.4764   -2.8493   -1.2807 H   0  0  0  0  0  0  0  0  0  0  0  0
   -4.0235   -1.4604   -2.2121 H   0  0  0  0  0  0  0  0  0  0  0  0
    2.6605    3.3968   -0.3710 H   0  0  0  0  0  0  0  0  0  0  0  0
    4.5935    4.6816    0.3476 H   0  0  0  0  0  0  0  0  0  0  0  0
    6.5938    3.5496    1.2849 H   0  0  0  0  0  0  0  0  0  0  0  0
    6.6225    1.0848    1.5052 H   0  0  0  0  0  0  0  0  0  0  0  0
  1  2  1  0
  2  3  1  0
  3  4  2  0
  4  5  1  0
  5  6  2  0
  6  7  1  0
  7  8  2  0
  8  9  1  0
  9 10  1  0
 10 11  1  0
 11 12  1  0
 12 13  1  0
 13 14  1  0
 14 15  1  0
 15 16  1  0
  8 17  1  0
  4 18  1  0
 18 19  2  0
 19 20  1  0
 20 21  2  0
 21 22  1  0
 22 23  2  0
 23 24  1  0
 24 25  2  0
 24  2  1  0
 17  5  1  0
 23 18  1  0
 16 11  1  0
  1 26  1  0
  1 27  1  0
  1 28  1  0
  9 29  1  0
  9 30  1  0
 11 31  1  0
 12 32  1  0
 12 33  1  0
 13 34  1  0
 13 35  1  0
 14 36  1  0
 14 37  1  0
 15 38  1  0
 15 39  1  0
 16 40  1  0
 16 41  1  0
 19 42  1  0
 20 43  1  0
 21 44  1  0
 22 45  1  0
M  END
$$$$
OCNT-2318685
     RDKit          3D

 42 44  0  0  0  0  0  0  0  0999 V2000
    7.2848    0.4688    0.5778 C   0  0  0  0  0  0  0  0  0  0  0  0
    5.9312   -0.0952    0.2578 C   0  0  0  0  0  0  0  0  0  0  0  0
    5.8011   -1.4237   -0.1570 C   0  0  0  0  0  0  0  0  0  0  0  0
    4.5485   -1.9806   -0.4338 C   0  0  0  0  0  0  0  0  0  0  0  0
    3.4249   -1.1648   -0.2665 C   0  0  0  0  0  0  0  0  0  0  0  0
    2.0984   -1.4373   -0.4697 N   0  0  0  0  0  0  0  0  0  0  0  0
    1.3025   -0.3602   -0.1379 C   0  0  0  0  0  0  0  0  0  0  0  0
   -0.1440   -0.4832   -0.2415 C   0  0  0  0  0  0  0  0  0  0  0  0
   -0.6439   -1.3830   -0.9119 O   0  0  0  0  0  0  0  0  0  0  0  0
   -0.8553    0.4272    0.4952 N   0  0  0  0  0  0  0  0  0  0  0  0
   -2.2218    0.5284    0.5495 C   0  0  0  0  0  0  0  0  0  0  0  0
   -2.7619    1.4419    1.3600 N   0  0  0  0  0  0  0  0  0  0  0  0
   -4.0850    1.2946    1.1881 N   0  0  0  0  0  0  0  0  0  0  0  0
   -4.4190    0.3197    0.2895 C   0  0  0  0  0  0  0  0  0  0  0  0
   -5.8389   -0.0071   -0.0521 C   0  0  0  0  0  0  0  0  0  0  0  0
   -6.1164    0.2438   -1.5345 C   0  0  0  0  0  0  0  0  0  0  0  0
   -6.1735   -1.4508    0.3239 C   0  0  0  0  0  0  0  0  0  0  0  0
   -3.2146   -0.1961   -0.1432 C   0  0  0  0  0  0  0  0  0  0  0  0
    2.1652    0.6786    0.2128 C   0  0  0  0  0  0  0  0  0  0  0  0
    1.8209    2.0862    0.5630 C   0  0  0  0  0  0  0  0  0  0  0  0
    3.5039    0.1562    0.1594 C   0  0  0  0  0  0  0  0  0  0  0  0
    4.7814    0.6954    0.4278 C   0  0  0  0  0  0  0  0  0  0  0  0
    7.3167    1.5449    0.3777 H   0  0  0  0  0  0  0  0  0  0  0  0
    7.5213    0.2973    1.6324 H   0  0  0  0  0  0  0  0  0  0  0  0
    8.0591    0.0013   -0.0396 H   0  0  0  0  0  0  0  0  0  0  0  0
    6.6864   -2.0459   -0.2736 H   0  0  0  0  0  0  0  0  0  0  0  0
    4.4591   -3.0102   -0.7645 H   0  0  0  0  0  0  0  0  0  0  0  0
    1.7279   -2.3196   -0.7979 H   0  0  0  0  0  0  0  0  0  0  0  0
   -0.3869    1.0587    1.1219 H   0  0  0  0  0  0  0  0  0  0  0  0
   -4.7071    1.8963    1.7177 H   0  0  0  0  0  0  0  0  0  0  0  0
   -6.5032    0.6491    0.5259 H   0  0  0  0  0  0  0  0  0  0  0  0
   -7.1693    0.0537   -1.7691 H   0  0  0  0  0  0  0  0  0  0  0  0
   -5.5072   -0.4034   -2.1757 H   0  0  0  0  0  0  0  0  0  0  0  0
   -5.8947    1.2825   -1.8044 H   0  0  0  0  0  0  0  0  0  0  0  0
   -5.9928   -1.6302    1.3897 H   0  0  0  0  0  0  0  0  0  0  0  0
   -7.2273   -1.6697    0.1209 H   0  0  0  0  0  0  0  0  0  0  0  0
   -5.5666   -2.1674   -0.2413 H   0  0  0  0  0  0  0  0  0  0  0  0
   -3.0783   -0.9905   -0.8638 H   0  0  0  0  0  0  0  0  0  0  0  0
    1.5213    2.1551    1.6133 H   0  0  0  0  0  0  0  0  0  0  0  0
    1.0064    2.4597   -0.0655 H   0  0  0  0  0  0  0  0  0  0  0  0
    2.6731    2.7560    0.4109 H   0  0  0  0  0  0  0  0  0  0  0  0
    4.8734    1.7234    0.7669 H   0  0  0  0  0  0  0  0  0  0  0  0
  1  2  1  0
  2  3  2  0
  3  4  1  0
  4  5  2  0
  5  6  1  0
  6  7  1  0
  7  8  1  0
  8  9  2  0
  8 10  1  0
 10 11  1  0
 11 12  2  0
 12 13  1  0
 13 14  1  0
 14 15  1  0
 15 16  1  0
 15 17  1  0
 14 18  2  0
  7 19  2  0
 19 20  1  0
 19 21  1  0
 21 22  2  0
 22  2  1  0
 21  5  1  0
 18 11  1  0
  1 23  1  0
  1 24  1  0
  1 25  1  0
  3 26  1  0
  4 27  1  0
  6 28  1  0
 10 29  1  0
 13 30  1  0
 15 31  1  0
 16 32  1  0
 16 33  1  0
 16 34  1  0
 17 35  1  0
 17 36  1  0
 17 37  1  0
 18 38  1  0
 20 39  1  0
 20 40  1  0
 20 41  1  0
 22 42  1  0
M  END
$$$$
OCNT-2328316
     RDKit          3D

 28 28  0  0  0  0  0  0  0  0999 V2000
   -3.4891   -0.2482   -1.5990 C   0  0  0  0  0  0  0  0  0  0  0  0
   -2.8617   -1.4045   -0.8362 C   0  0  0  0  0  0  0  0  0  0  0  0
   -2.8693   -1.2088    0.6830 C   0  0  0  0  0  0  0  0  0  0  0  0
   -2.0622   -0.0075    1.1699 C   0  0  0  0  0  0  0  0  0  0  0  0
   -0.7074   -0.1405    0.7232 O   0  0  0  0  0  0  0  0  0  0  0  0
    0.1007    0.8902    1.0733 C   0  0  0  0  0  0  0  0  0  0  0  0
   -0.2309    1.8705    1.7212 O   0  0  0  0  0  0  0  0  0  0  0  0
    1.4796    0.6742    0.5564 C   0  0  0  0  0  0  0  0  0  0  0  0
    2.4528    1.6440    0.8421 C   0  0  0  0  0  0  0  0  0  0  0  0
    3.7628    1.4908    0.3798 C   0  0  0  0  0  0  0  0  0  0  0  0
    4.0947    0.3659   -0.3682 C   0  0  0  0  0  0  0  0  0  0  0  0
    5.3590    0.1744   -0.8397 O   0  0  0  0  0  0  0  0  0  0  0  0
    3.1424   -0.6043   -0.6605 C   0  0  0  0  0  0  0  0  0  0  0  0
    1.8323   -0.4530   -0.1993 C   0  0  0  0  0  0  0  0  0  0  0  0
   -3.5469   -0.4893   -2.6653 H   0  0  0  0  0  0  0  0  0  0  0  0
   -2.8968    0.6661   -1.4986 H   0  0  0  0  0  0  0  0  0  0  0  0
   -4.5037   -0.0460   -1.2418 H   0  0  0  0  0  0  0  0  0  0  0  0
   -3.4190   -2.3198   -1.0692 H   0  0  0  0  0  0  0  0  0  0  0  0
   -1.8377   -1.5629   -1.1935 H   0  0  0  0  0  0  0  0  0  0  0  0
   -2.4503   -2.1167    1.1345 H   0  0  0  0  0  0  0  0  0  0  0  0
   -3.9020   -1.1183    1.0391 H   0  0  0  0  0  0  0  0  0  0  0  0
   -2.4923    0.9260    0.7903 H   0  0  0  0  0  0  0  0  0  0  0  0
   -2.0794    0.0155    2.2659 H   0  0  0  0  0  0  0  0  0  0  0  0
    2.1918    2.5242    1.4274 H   0  0  0  0  0  0  0  0  0  0  0  0
    4.5002    2.2528    0.6122 H   0  0  0  0  0  0  0  0  0  0  0  0
    5.9131    0.9227   -0.5629 H   0  0  0  0  0  0  0  0  0  0  0  0
    3.4187   -1.4768   -1.2464 H   0  0  0  0  0  0  0  0  0  0  0  0
    1.1006   -1.2207   -0.4377 H   0  0  0  0  0  0  0  0  0  0  0  0
  1  2  1  0
  2  3  1  0
  3  4  1  0
  4  5  1  0
  5  6  1  0
  6  7  2  0
  6  8  1  0
  8  9  1  0
  9 10  2  0
 10 11  1  0
 11 12  1  0
 11 13  2  0
 13 14  1  0
 14  8  2  0
  1 15  1  0
  1 16  1  0
  1 17  1  0
  2 18  1  0
  2 19  1  0
  3 20  1  0
  3 21  1  0
  4 22  1  0
  4 23  1  0
  9 24  1  0
 10 25  1  0
 12 26  1  0
 13 27  1  0
 14 28  1  0
M  END
$$$$
OCNT-2328317
     RDKit          3D

 29 30  0  0  0  0  0  0  0  0999 V2000
    5.2495   -0.3487   -0.2095 C   0  0  0  0  0  0  0  0  0  0  0  0
    4.0899   -1.0177   -0.6916 O   0  0  0  0  0  0  0  0  0  0  0  0
    2.8882   -0.4037   -0.4702 C   0  0  0  0  0  0  0  0  0  0  0  0
    1.7803   -1.0945   -0.9705 C   0  0  0  0  0  0  0  0  0  0  0  0
    0.4865   -0.5873   -0.8128 C   0  0  0  0  0  0  0  0  0  0  0  0
    0.2878    0.6205   -0.1352 C   0  0  0  0  0  0  0  0  0  0  0  0
   -1.0716    1.1881    0.0607 C   0  0  0  0  0  0  0  0  0  0  0  0
   -1.1862    2.4054    0.2045 O   0  0  0  0  0  0  0  0  0  0  0  0
   -2.2854    0.3408    0.1090 C   0  0  0  0  0  0  0  0  0  0  0  0
   -2.3032   -0.8697    0.8117 C   0  0  0  0  0  0  0  0  0  0  0  0
   -3.4715   -1.6331    0.8479 C   0  0  0  0  0  0  0  0  0  0  0  0
   -4.6212   -1.1834    0.1973 C   0  0  0  0  0  0  0  0  0  0  0  0
   -4.6108    0.0347   -0.4828 C   0  0  0  0  0  0  0  0  0  0  0  0
   -3.4460    0.8017   -0.5219 C   0  0  0  0  0  0  0  0  0  0  0  0
    1.4058    1.3247    0.3349 C   0  0  0  0  0  0  0  0  0  0  0  0
    1.3066    2.5401    0.9623 O   0  0  0  0  0  0  0  0  0  0  0  0
    2.6961    0.8134    0.1819 C   0  0  0  0  0  0  0  0  0  0  0  0
    6.1188   -0.9635   -0.4621 H   0  0  0  0  0  0  0  0  0  0  0  0
    5.2208   -0.2445    0.8802 H   0  0  0  0  0  0  0  0  0  0  0  0
    5.3759    0.6232   -0.6978 H   0  0  0  0  0  0  0  0  0  0  0  0
    1.9295   -2.0363   -1.4949 H   0  0  0  0  0  0  0  0  0  0  0  0
   -0.3440   -1.1436   -1.2389 H   0  0  0  0  0  0  0  0  0  0  0  0
   -1.4253   -1.2205    1.3484 H   0  0  0  0  0  0  0  0  0  0  0  0
   -3.4901   -2.5742    1.3924 H   0  0  0  0  0  0  0  0  0  0  0  0
   -5.5316   -1.7774    0.2310 H   0  0  0  0  0  0  0  0  0  0  0  0
   -5.5120    0.3906   -0.9763 H   0  0  0  0  0  0  0  0  0  0  0  0
   -3.4447    1.7573   -1.0421 H   0  0  0  0  0  0  0  0  0  0  0  0
    0.3846    2.8634    0.8390 H   0  0  0  0  0  0  0  0  0  0  0  0
    3.5236    1.3945    0.5744 H   0  0  0  0  0  0  0  0  0  0  0  0
  1  2  1  0
  2  3  1  0
  3  4  1  0
  4  5  2  0
  5  6  1  0
  6  7  1  0
  7  8  2  0
  7  9  1  0
  9 10  2  0
 10 11  1  0
 11 12  2  0
 12 13  1  0
 13 14  2  0
  6 15  2  0
 15 16  1  0
 15 17  1  0
 17  3  2  0
 14  9  1  0
  1 18  1  0
  1 19  1  0
  1 20  1  0
  4 21  1  0
  5 22  1  0
 10 23  1  0
 11 24  1  0
 12 25  1  0
 13 26  1  0
 14 27  1  0
 16 28  1  0
 17 29  1  0
M  END
$$$$
OCNT-2328329
     RDKit          3D

 40 41  0  0  0  0  0  0  0  0999 V2000
   -3.9993    2.2819    2.9298 C   0  0  0  0  0  0  0  0  0  0  0  0
   -2.7032    1.6976    2.9073 O   0  0  0  0  0  0  0  0  0  0  0  0
   -2.3833    0.9336    1.8190 C   0  0  0  0  0  0  0  0  0  0  0  0
   -1.1183    0.3481    1.8679 C   0  0  0  0  0  0  0  0  0  0  0  0
   -0.6458   -0.4536    0.8176 C   0  0  0  0  0  0  0  0  0  0  0  0
    0.6262   -1.0864    0.8869 N   0  0  0  0  0  0  0  0  0  0  0  0
    1.7704   -0.2638    1.2901 C   0  0  0  0  0  0  0  0  0  0  0  0
    2.3124   -0.8237    2.6069 C   0  0  0  0  0  0  0  0  0  0  0  0
    2.8718   -0.3074    0.2126 C   0  0  0  0  0  0  0  0  0  0  0  0
    2.4625    0.4140   -1.0791 C   0  0  0  0  0  0  0  0  0  0  0  0
    3.6145    0.5766   -2.0732 C   0  0  0  0  0  0  0  0  0  0  0  0
    4.1024   -0.7009   -2.5772 N   0  0  0  0  0  0  0  0  0  0  0  0
   -1.4686   -0.7114   -0.2955 C   0  0  0  0  0  0  0  0  0  0  0  0
   -1.0151   -1.4990   -1.2990 N   0  0  0  0  0  0  0  0  0  0  0  0
   -1.8202   -1.7162   -2.3603 C   0  0  0  0  0  0  0  0  0  0  0  0
   -3.0849   -1.1784   -2.4876 C   0  0  0  0  0  0  0  0  0  0  0  0
   -3.5530   -0.3667   -1.4621 C   0  0  0  0  0  0  0  0  0  0  0  0
   -2.7478   -0.1165   -0.3415 C   0  0  0  0  0  0  0  0  0  0  0  0
   -3.1944    0.7038    0.7111 C   0  0  0  0  0  0  0  0  0  0  0  0
   -4.7796    1.5138    2.9134 H   0  0  0  0  0  0  0  0  0  0  0  0
   -4.1254    2.9922    2.1060 H   0  0  0  0  0  0  0  0  0  0  0  0
   -4.0991    2.8380    3.8669 H   0  0  0  0  0  0  0  0  0  0  0  0
   -0.5040    0.5061    2.7497 H   0  0  0  0  0  0  0  0  0  0  0  0
    0.7613   -1.5653   -0.0124 H   0  0  0  0  0  0  0  0  0  0  0  0
    1.4913    0.7855    1.4485 H   0  0  0  0  0  0  0  0  0  0  0  0
    3.1676   -0.2367    2.9580 H   0  0  0  0  0  0  0  0  0  0  0  0
    2.6369   -1.8644    2.4937 H   0  0  0  0  0  0  0  0  0  0  0  0
    1.5460   -0.8015    3.3890 H   0  0  0  0  0  0  0  0  0  0  0  0
    3.7760    0.1715    0.6095 H   0  0  0  0  0  0  0  0  0  0  0  0
    3.1324   -1.3498   -0.0087 H   0  0  0  0  0  0  0  0  0  0  0  0
    1.6373   -0.1191   -1.5653 H   0  0  0  0  0  0  0  0  0  0  0  0
    2.0866    1.4138   -0.8286 H   0  0  0  0  0  0  0  0  0  0  0  0
    3.2669    1.1753   -2.9223 H   0  0  0  0  0  0  0  0  0  0  0  0
    4.4403    1.1248   -1.6062 H   0  0  0  0  0  0  0  0  0  0  0  0
    4.4969   -1.2507   -1.8161 H   0  0  0  0  0  0  0  0  0  0  0  0
    4.8645   -0.5370   -3.2335 H   0  0  0  0  0  0  0  0  0  0  0  0
   -1.4026   -2.3571   -3.1317 H   0  0  0  0  0  0  0  0  0  0  0  0
   -3.6907   -1.3853   -3.3622 H   0  0  0  0  0  0  0  0  0  0  0  0
   -4.5461    0.0682   -1.5412 H   0  0  0  0  0  0  0  0  0  0  0  0
   -4.1829    1.1458    0.6421 H   0  0  0  0  0  0  0  0  0  0  0  0
  1  2  1  0
  2  3  1  0
  3  4  2  0
  4  5  1  0
  5  6  1  0
  6  7  1  0
  7  8  1  0
  7  9  1  0
  9 10  1  0
 10 11  1  0
 11 12  1  0
  5 13  2  0
 13 14  1  0
 14 15  2  0
 15 16  1  0
 16 17  2  0
 17 18  1  0
 18 19  2  0
 19  3  1  0
 18 13  1  0
  1 20  1  0
  1 21  1  0
  1 22  1  0
  4 23  1  0
  6 24  1  0
  7 25  1  0
  8 26  1  0
  8 27  1  0
  8 28  1  0
  9 29  1  0
  9 30  1  0
 10 31  1  0
 10 32  1  0
 11 33  1  0
 11 34  1  0
 12 35  1  0
 12 36  1  0
 15 37  1  0
 16 38  1  0
 17 39  1  0
 19 40  1  0
M  END
$$$$
OCNT-2328337
     RDKit          3D

 54 54  0  0  0  0  0  0  0  0999 V2000
   -7.2403    0.2835    1.1159 C   0  0  0  0  0  0  0  0  0  0  0  0
   -6.1619    1.1755    0.8430 O   0  0  0  0  0  0  0  0  0  0  0  0
   -5.0020    0.4970    0.4799 C   0  0  0  0  0  0  0  0  0  0  0  0
   -3.9038    0.6065    1.2392 C   0  0  0  0  0  0  0  0  0  0  0  0
   -3.9593    1.3077    2.4404 O   0  0  0  0  0  0  0  0  0  0  0  0
   -3.1495    2.4809    2.4015 C   0  0  0  0  0  0  0  0  0  0  0  0
   -2.6452   -0.1025    0.8739 C   0  0  0  0  0  0  0  0  0  0  0  0
   -1.6556   -0.0536    1.5993 O   0  0  0  0  0  0  0  0  0  0  0  0
   -2.6098   -0.8740   -0.4048 C   0  0  0  0  0  0  0  0  0  0  0  0
   -1.2937   -1.5666   -0.6908 C   0  0  0  0  0  0  0  0  0  0  0  0
   -0.2992   -0.6276   -1.3813 C   0  0  0  0  0  0  0  0  0  0  0  0
    1.0171   -1.3118   -1.7637 C   0  0  0  0  0  0  0  0  0  0  0  0
    1.8272   -1.8915   -0.5995 C   0  0  0  0  0  0  0  0  0  0  0  0
    2.1875   -0.9038    0.5147 C   0  0  0  0  0  0  0  0  0  0  0  0
    2.9698    0.3381    0.0753 C   0  0  0  0  0  0  0  0  0  0  0  0
    4.3244    0.0068   -0.5587 C   0  0  0  0  0  0  0  0  0  0  0  0
    5.1559    1.2560   -0.8729 C   0  0  0  0  0  0  0  0  0  0  0  0
    6.2067    1.6031    0.1841 C   0  0  0  0  0  0  0  0  0  0  0  0
    5.6378    1.9699    1.5468 C   0  0  0  0  0  0  0  0  0  0  0  0
    6.6871    2.4175    2.3970 O   0  0  0  0  0  0  0  0  0  0  0  0
   -3.6986   -0.9397   -1.1934 C   0  0  0  0  0  0  0  0  0  0  0  0
   -3.7723   -1.6525   -2.5166 C   0  0  0  0  0  0  0  0  0  0  0  0
   -4.9686   -0.2594   -0.8034 C   0  0  0  0  0  0  0  0  0  0  0  0
   -5.9554   -0.3291   -1.5308 O   0  0  0  0  0  0  0  0  0  0  0  0
   -8.0039    0.8422    1.6655 H   0  0  0  0  0  0  0  0  0  0  0  0
   -6.9198   -0.5567    1.7422 H   0  0  0  0  0  0  0  0  0  0  0  0
   -7.6966   -0.0804    0.1915 H   0  0  0  0  0  0  0  0  0  0  0  0
   -3.3991    3.0878    3.2770 H   0  0  0  0  0  0  0  0  0  0  0  0
   -2.0857    2.2349    2.4584 H   0  0  0  0  0  0  0  0  0  0  0  0
   -3.3558    3.0776    1.5059 H   0  0  0  0  0  0  0  0  0  0  0  0
   -1.4484   -2.4597   -1.3065 H   0  0  0  0  0  0  0  0  0  0  0  0
   -0.8728   -1.9517    0.2454 H   0  0  0  0  0  0  0  0  0  0  0  0
   -0.7531   -0.2343   -2.3003 H   0  0  0  0  0  0  0  0  0  0  0  0
   -0.0961    0.2435   -0.7476 H   0  0  0  0  0  0  0  0  0  0  0  0
    1.6360   -0.5930   -2.3137 H   0  0  0  0  0  0  0  0  0  0  0  0
    0.8013   -2.1234   -2.4701 H   0  0  0  0  0  0  0  0  0  0  0  0
    2.7459   -2.3339   -1.0034 H   0  0  0  0  0  0  0  0  0  0  0  0
    1.2744   -2.7277   -0.1548 H   0  0  0  0  0  0  0  0  0  0  0  0
    2.7735   -1.4395    1.2723 H   0  0  0  0  0  0  0  0  0  0  0  0
    1.2716   -0.5778    1.0215 H   0  0  0  0  0  0  0  0  0  0  0  0
    2.3711    0.9306   -0.6259 H   0  0  0  0  0  0  0  0  0  0  0  0
    3.1143    0.9702    0.9574 H   0  0  0  0  0  0  0  0  0  0  0  0
    4.1430   -0.5184   -1.5041 H   0  0  0  0  0  0  0  0  0  0  0  0
    4.8905   -0.6815    0.0795 H   0  0  0  0  0  0  0  0  0  0  0  0
    5.6957    1.0732   -1.8112 H   0  0  0  0  0  0  0  0  0  0  0  0
    4.5066    2.1201   -1.0569 H   0  0  0  0  0  0  0  0  0  0  0  0
    6.8116    2.4419   -0.1838 H   0  0  0  0  0  0  0  0  0  0  0  0
    6.9105    0.7687    0.2975 H   0  0  0  0  0  0  0  0  0  0  0  0
    4.9071    2.7796    1.4612 H   0  0  0  0  0  0  0  0  0  0  0  0
    5.1576    1.1134    2.0284 H   0  0  0  0  0  0  0  0  0  0  0  0
    7.3202    1.6852    2.4899 H   0  0  0  0  0  0  0  0  0  0  0  0
   -4.4270   -2.5268   -2.4393 H   0  0  0  0  0  0  0  0  0  0  0  0
   -2.8001   -1.9926   -2.8808 H   0  0  0  0  0  0  0  0  0  0  0  0
   -4.1713   -0.9869   -3.2904 H   0  0  0  0  0  0  0  0  0  0  0  0
  1  2  1  0
  2  3  1  0
  3  4  2  0
  4  5  1  0
  5  6  1  0
  4  7  1  0
  7  8  2  0
  7  9  1  0
  9 10  1  0
 10 11  1  0
 11 12  1  0
 12 13  1  0
 13 14  1  0
 14 15  1  0
 15 16  1  0
 16 17  1  0
 17 18  1  0
 18 19  1  0
 19 20  1  0
  9 21  2  0
 21 22  1  0
 21 23  1  0
 23 24  2  0
 23  3  1  0
  1 25  1  0
  1 26  1  0
  1 27  1  0
  6 28  1  0
  6 29  1  0
  6 30  1  0
 10 31  1  0
 10 32  1  0
 11 33  1  0
 11 34  1  0
 12 35  1  0
 12 36  1  0
 13 37  1  0
 13 38  1  0
 14 39  1  0
 14 40  1  0
 15 41  1  0
 15 42  1  0
 16 43  1  0
 16 44  1  0
 17 45  1  0
 17 46  1  0
 18 47  1  0
 18 48  1  0
 19 49  1  0
 19 50  1  0
 20 51  1  0
 22 52  1  0
 22 53  1  0
 22 54  1  0
M  END
$$$$
OCNT-2328360
     RDKit          3D

 33 34  0  0  0  0  0  0  0  0999 V2000
    1.7898    2.8814   -0.7062 O   0  0  0  0  0  0  0  0  0  0  0  0
    1.5507    1.6889   -0.7968 C   0  0  0  0  0  0  0  0  0  0  0  0
    0.7075    1.2393   -1.7449 O   0  0  0  0  0  0  0  0  0  0  0  0
    2.1109    0.6272    0.0893 C   0  0  0  0  0  0  0  0  0  0  0  0
    3.0540    1.0715    1.0368 C   0  0  0  0  0  0  0  0  0  0  0  0
    3.6383    0.1829    1.9364 C   0  0  0  0  0  0  0  0  0  0  0  0
    3.2918   -1.1608    1.8938 C   0  0  0  0  0  0  0  0  0  0  0  0
    2.3548   -1.6128    0.9602 C   0  0  0  0  0  0  0  0  0  0  0  0
    1.7270   -0.7360    0.0566 C   0  0  0  0  0  0  0  0  0  0  0  0
    0.8158   -1.2389   -0.8901 N   0  0  0  0  0  0  0  0  0  0  0  0
   -0.2281   -2.1756   -0.4610 C   0  0  0  0  0  0  0  0  0  0  0  0
   -1.2330   -1.5634    0.5283 C   0  0  0  0  0  0  0  0  0  0  0  0
   -1.9883   -0.3671   -0.0057 C   0  0  0  0  0  0  0  0  0  0  0  0
   -1.7988    0.8998    0.5642 C   0  0  0  0  0  0  0  0  0  0  0  0
   -2.4826    2.0109    0.0682 C   0  0  0  0  0  0  0  0  0  0  0  0
   -3.3682    1.8663   -0.9973 C   0  0  0  0  0  0  0  0  0  0  0  0
   -3.5718    0.6106   -1.5662 C   0  0  0  0  0  0  0  0  0  0  0  0
   -2.8872   -0.5016   -1.0726 C   0  0  0  0  0  0  0  0  0  0  0  0
    0.3981    2.0567   -2.1892 H   0  0  0  0  0  0  0  0  0  0  0  0
    3.3396    2.1217    1.0735 H   0  0  0  0  0  0  0  0  0  0  0  0
    4.3686    0.5385    2.6587 H   0  0  0  0  0  0  0  0  0  0  0  0
    3.7577   -1.8661    2.5775 H   0  0  0  0  0  0  0  0  0  0  0  0
    2.1390   -2.6773    0.9313 H   0  0  0  0  0  0  0  0  0  0  0  0
    0.4110   -0.4594   -1.4269 H   0  0  0  0  0  0  0  0  0  0  0  0
    0.2117   -3.0814   -0.0298 H   0  0  0  0  0  0  0  0  0  0  0  0
   -0.7571   -2.5074   -1.3624 H   0  0  0  0  0  0  0  0  0  0  0  0
   -1.9678   -2.3295    0.8076 H   0  0  0  0  0  0  0  0  0  0  0  0
   -0.7200   -1.2929    1.4594 H   0  0  0  0  0  0  0  0  0  0  0  0
   -1.1081    1.0321    1.3943 H   0  0  0  0  0  0  0  0  0  0  0  0
   -2.3231    2.9888    0.5153 H   0  0  0  0  0  0  0  0  0  0  0  0
   -3.9032    2.7310   -1.3809 H   0  0  0  0  0  0  0  0  0  0  0  0
   -4.2666    0.4961   -2.3942 H   0  0  0  0  0  0  0  0  0  0  0  0
   -3.0624   -1.4737   -1.5275 H   0  0  0  0  0  0  0  0  0  0  0  0
  1  2  2  0
  2  3  1  0
  2  4  1  0
  4  5  2  0
  5  6  1  0
  6  7  2  0
  7  8  1  0
  8  9  2  0
  9 10  1  0
 10 11  1  0
 11 12  1  0
 12 13  1  0
 13 14  2  0
 14 15  1  0
 15 16  2  0
 16 17  1  0
 17 18  2  0
  9  4  1  0
 18 13  1  0
  3 19  1  0
  5 20  1  0
  6 21  1  0
  7 22  1  0
  8 23  1  0
 10 24  1  0
 11 25  1  0
 11 26  1  0
 12 27  1  0
 12 28  1  0
 14 29  1  0
 15 30  1  0
 16 31  1  0
 17 32  1  0
 18 33  1  0
M  END
$$$$
OCNT-2328395
     RDKit          3D

 22 22  0  0  0  0  0  0  0  0999 V2000
   -2.7217   -0.3704   -1.3468 N   0  0  0  0  0  0  0  0  0  0  0  0
   -3.0164   -0.8533   -0.1894 C   0  0  0  0  0  0  0  0  0  0  0  0
   -4.2765   -1.2728    0.0900 N   0  0  0  0  0  0  0  0  0  0  0  0
   -2.1462   -1.0270    0.8593 N   0  0  0  0  0  0  0  0  0  0  0  0
   -0.9293   -0.4267    1.0376 N   0  0  0  0  0  0  0  0  0  0  0  0
   -0.1123   -0.5044    0.0347 C   0  0  0  0  0  0  0  0  0  0  0  0
    1.2201    0.1362    0.0540 C   0  0  0  0  0  0  0  0  0  0  0  0
    2.0085    0.1971    1.2149 C   0  0  0  0  0  0  0  0  0  0  0  0
    1.5709   -0.5401    2.7184 Cl  0  0  0  0  0  0  0  0  0  0  0  0
    3.2605    0.8283    1.1840 C   0  0  0  0  0  0  0  0  0  0  0  0
    3.7409    1.3928    0.0052 C   0  0  0  0  0  0  0  0  0  0  0  0
    2.9726    1.3220   -1.1529 C   0  0  0  0  0  0  0  0  0  0  0  0
    1.7196    0.6958   -1.1341 C   0  0  0  0  0  0  0  0  0  0  0  0
    0.8427    0.6845   -2.6263 Cl  0  0  0  0  0  0  0  0  0  0  0  0
   -3.5398   -0.3816   -1.9533 H   0  0  0  0  0  0  0  0  0  0  0  0
   -4.9716   -0.9925   -0.5899 H   0  0  0  0  0  0  0  0  0  0  0  0
   -4.5936   -1.0531    1.0262 H   0  0  0  0  0  0  0  0  0  0  0  0
   -2.5872   -1.3002    1.7297 H   0  0  0  0  0  0  0  0  0  0  0  0
   -0.3792   -1.0510   -0.8865 H   0  0  0  0  0  0  0  0  0  0  0  0
    3.8729    0.8734    2.0828 H   0  0  0  0  0  0  0  0  0  0  0  0
    4.7128    1.8805   -0.0113 H   0  0  0  0  0  0  0  0  0  0  0  0
    3.3524    1.7625   -2.0728 H   0  0  0  0  0  0  0  0  0  0  0  0
  1  2  2  3
  2  3  1  0
  2  4  1  0
  4  5  1  0
  5  6  2  3
  6  7  1  0
  7  8  2  0
  8  9  1  0
  8 10  1  0
 10 11  2  0
 11 12  1  0
 12 13  2  0
 13 14  1  0
 13  7  1  0
  1 15  1  0
  3 16  1  0
  3 17  1  0
  4 18  1  0
  6 19  1  0
 10 20  1  0
 11 21  1  0
 12 22  1  0
M  END
$$$$
OCNT-2328400
     RDKit          3D

 50 50  0  0  0  0  0  0  0  0999 V2000
   -7.1146    1.6589    1.1321 C   0  0  0  0  0  0  0  0  0  0  0  0
   -6.4681    0.8380    0.1680 O   0  0  0  0  0  0  0  0  0  0  0  0
   -5.1845    0.4318    0.4308 C   0  0  0  0  0  0  0  0  0  0  0  0
   -4.4482    0.8349    1.5476 C   0  0  0  0  0  0  0  0  0  0  0  0
   -3.1369    0.3815    1.7567 C   0  0  0  0  0  0  0  0  0  0  0  0
   -2.3802    0.8748    2.9631 C   0  0  0  0  0  0  0  0  0  0  0  0
   -2.5561   -0.5083    0.8300 C   0  0  0  0  0  0  0  0  0  0  0  0
   -1.1656   -0.9488    1.0368 C   0  0  0  0  0  0  0  0  0  0  0  0
   -0.1425   -0.3363    0.4184 C   0  0  0  0  0  0  0  0  0  0  0  0
    1.2777   -0.6758    0.5402 C   0  0  0  0  0  0  0  0  0  0  0  0
    1.6342   -1.8265    1.4492 C   0  0  0  0  0  0  0  0  0  0  0  0
    2.1686    0.0556   -0.1634 C   0  0  0  0  0  0  0  0  0  0  0  0
    3.6109   -0.0990   -0.1972 C   0  0  0  0  0  0  0  0  0  0  0  0
    4.4039    0.6906   -0.9423 C   0  0  0  0  0  0  0  0  0  0  0  0
    5.8651    0.6165   -1.0420 C   0  0  0  0  0  0  0  0  0  0  0  0
    6.5562   -0.5480   -0.3768 C   0  0  0  0  0  0  0  0  0  0  0  0
    6.5033    1.5703   -1.7520 C   0  0  0  0  0  0  0  0  0  0  0  0
    7.9486    1.7374   -1.9591 C   0  0  0  0  0  0  0  0  0  0  0  0
    8.4456    2.2343   -2.9540 O   0  0  0  0  0  0  0  0  0  0  0  0
    8.6942    1.3877   -0.9024 O   0  0  0  0  0  0  0  0  0  0  0  0
   -3.2980   -0.9517   -0.2927 C   0  0  0  0  0  0  0  0  0  0  0  0
   -2.6875   -1.9200   -1.2825 C   0  0  0  0  0  0  0  0  0  0  0  0
   -4.6060   -0.4425   -0.5120 C   0  0  0  0  0  0  0  0  0  0  0  0
   -5.4000   -0.8684   -1.7254 C   0  0  0  0  0  0  0  0  0  0  0  0
   -6.6101    2.6260    1.2287 H   0  0  0  0  0  0  0  0  0  0  0  0
   -7.1898    1.1504    2.0992 H   0  0  0  0  0  0  0  0  0  0  0  0
   -8.1323    1.8502    0.7782 H   0  0  0  0  0  0  0  0  0  0  0  0
   -4.8724    1.5205    2.2738 H   0  0  0  0  0  0  0  0  0  0  0  0
   -2.0379    0.0325    3.5727 H   0  0  0  0  0  0  0  0  0  0  0  0
   -1.5211    1.4788    2.6528 H   0  0  0  0  0  0  0  0  0  0  0  0
   -3.0088    1.5027    3.6034 H   0  0  0  0  0  0  0  0  0  0  0  0
   -1.0391   -1.7842    1.7167 H   0  0  0  0  0  0  0  0  0  0  0  0
   -0.3805    0.4979   -0.2433 H   0  0  0  0  0  0  0  0  0  0  0  0
    1.3156   -1.6166    2.4764 H   0  0  0  0  0  0  0  0  0  0  0  0
    2.7034   -2.0426    1.4899 H   0  0  0  0  0  0  0  0  0  0  0  0
    1.1458   -2.7477    1.1111 H   0  0  0  0  0  0  0  0  0  0  0  0
    1.7907    0.8645   -0.7900 H   0  0  0  0  0  0  0  0  0  0  0  0
    4.0469   -0.8806    0.4136 H   0  0  0  0  0  0  0  0  0  0  0  0
    3.9325    1.4797   -1.5291 H   0  0  0  0  0  0  0  0  0  0  0  0
    6.0391   -1.4887   -0.6003 H   0  0  0  0  0  0  0  0  0  0  0  0
    6.5803   -0.4112    0.7095 H   0  0  0  0  0  0  0  0  0  0  0  0
    7.5802   -0.6989   -0.7269 H   0  0  0  0  0  0  0  0  0  0  0  0
    5.9392    2.3396   -2.2723 H   0  0  0  0  0  0  0  0  0  0  0  0
    9.6079    1.6051   -1.1786 H   0  0  0  0  0  0  0  0  0  0  0  0
   -3.4390   -2.6111   -1.6775 H   0  0  0  0  0  0  0  0  0  0  0  0
   -1.9262   -2.5580   -0.8232 H   0  0  0  0  0  0  0  0  0  0  0  0
   -2.2334   -1.3686   -2.1119 H   0  0  0  0  0  0  0  0  0  0  0  0
   -6.2087   -0.1705   -1.9632 H   0  0  0  0  0  0  0  0  0  0  0  0
   -4.7655   -0.8987   -2.6170 H   0  0  0  0  0  0  0  0  0  0  0  0
   -5.8365   -1.8578   -1.5558 H   0  0  0  0  0  0  0  0  0  0  0  0
  1  2  1  0
  2  3  1  0
  3  4  2  0
  4  5  1  0
  5  6  1  0
  5  7  2  0
  7  8  1  0
  8  9  2  0
  9 10  1  0
 10 11  1  0
 10 12  2  0
 12 13  1  0
 13 14  2  0
 14 15  1  0
 15 16  1  0
 15 17  2  0
 17 18  1  0
 18 19  2  0
 18 20  1  0
  7 21  1  0
 21 22  1  0
 21 23  2  0
 23 24  1  0
 23  3  1  0
  1 25  1  0
  1 26  1  0
  1 27  1  0
  4 28  1  0
  6 29  1  0
  6 30  1  0
  6 31  1  0
  8 32  1  0
  9 33  1  0
 11 34  1  0
 11 35  1  0
 11 36  1  0
 12 37  1  0
 13 38  1  0
 14 39  1  0
 16 40  1  0
 16 41  1  0
 16 42  1  0
 17 43  1  0
 20 44  1  0
 22 45  1  0
 22 46  1  0
 22 47  1  0
 24 48  1  0
 24 49  1  0
 24 50  1  0
M  END
$$$$
OCNT-2328401
     RDKit          3D

 23 25  0  0  0  0  0  0  0  0999 V2000
    4.7374    0.1823   -0.6278 O   0  0  0  0  0  0  0  0  0  0  0  0
    3.5266    0.2139   -0.4777 C   0  0  0  0  0  0  0  0  0  0  0  0
    2.7763    0.5476    0.8180 C   0  0  0  0  0  0  0  0  0  0  0  0
    1.3963    0.4547    0.3688 N   0  0  0  0  0  0  0  0  0  0  0  0
    0.3042    0.2128    1.2769 C   0  0  0  0  0  0  0  0  0  0  0  0
   -0.9827    0.0056    0.5095 C   0  0  0  0  0  0  0  0  0  0  0  0
   -2.2402    0.0409    1.1433 C   0  0  0  0  0  0  0  0  0  0  0  0
   -2.3308    0.3376    2.8523 Cl  0  0  0  0  0  0  0  0  0  0  0  0
   -3.4096   -0.1772    0.3967 C   0  0  0  0  0  0  0  0  0  0  0  0
   -4.9873   -0.1392    1.1053 Cl  0  0  0  0  0  0  0  0  0  0  0  0
   -3.3298   -0.4434   -0.9709 C   0  0  0  0  0  0  0  0  0  0  0  0
   -2.0861   -0.4998   -1.5972 C   0  0  0  0  0  0  0  0  0  0  0  0
   -0.9126   -0.2816   -0.8723 C   0  0  0  0  0  0  0  0  0  0  0  0
    0.3101   -0.3773   -1.5659 N   0  0  0  0  0  0  0  0  0  0  0  0
    1.3477   -0.0134   -0.9054 C   0  0  0  0  0  0  0  0  0  0  0  0
    2.5857   -0.0810   -1.4281 N   0  0  0  0  0  0  0  0  0  0  0  0
    3.0122   -0.2005    1.5798 H   0  0  0  0  0  0  0  0  0  0  0  0
    3.0207    1.5596    1.1487 H   0  0  0  0  0  0  0  0  0  0  0  0
    0.5063   -0.6819    1.8775 H   0  0  0  0  0  0  0  0  0  0  0  0
    0.2188    1.0774    1.9432 H   0  0  0  0  0  0  0  0  0  0  0  0
   -4.2302   -0.6154   -1.5556 H   0  0  0  0  0  0  0  0  0  0  0  0
   -2.0228   -0.7178   -2.6610 H   0  0  0  0  0  0  0  0  0  0  0  0
    2.7899   -0.4040   -2.3581 H   0  0  0  0  0  0  0  0  0  0  0  0
  1  2  2  0
  2  3  1  0
  3  4  1  0
  4  5  1  0
  5  6  1  0
  6  7  1  0
  7  8  1  0
  7  9  2  0
  9 10  1  0
  9 11  1  0
 11 12  2  0
 12 13  1  0
 13 14  1  0
 14 15  2  0
 15 16  1  0
 16  2  1  0
 15  4  1  0
 13  6  2  0
  3 17  1  0
  3 18  1  0
  5 19  1  0
  5 20  1  0
 11 21  1  0
 12 22  1  0
 16 23  1  0
M  END
$$$$
OCNT-2328416
     RDKit          3D

 21 22  0  0  0  0  0  0  0  0999 V2000
    3.1312   -1.0970    0.5874 C   0  0  0  0  0  0  0  0  0  0  0  0
    1.8557   -0.3364    0.3796 C   0  0  0  0  0  0  0  0  0  0  0  0
    1.8369    1.0425    0.5137 C   0  0  0  0  0  0  0  0  0  0  0  0
    0.6346    1.7146    0.3133 C   0  0  0  0  0  0  0  0  0  0  0  0
   -0.5387    1.0055   -0.0192 C   0  0  0  0  0  0  0  0  0  0  0  0
   -1.8091    1.5950   -0.2430 C   0  0  0  0  0  0  0  0  0  0  0  0
   -2.0526    3.3060   -0.1257 Cl  0  0  0  0  0  0  0  0  0  0  0  0
   -2.9210    0.8165   -0.5687 C   0  0  0  0  0  0  0  0  0  0  0  0
   -2.7831   -0.5614   -0.6762 C   0  0  0  0  0  0  0  0  0  0  0  0
   -4.1689   -1.5045   -1.0794 Cl  0  0  0  0  0  0  0  0  0  0  0  0
   -1.5375   -1.1478   -0.4575 C   0  0  0  0  0  0  0  0  0  0  0  0
   -1.3853   -2.5145   -0.5607 O   0  0  0  0  0  0  0  0  0  0  0  0
   -0.4137   -0.3930   -0.1315 C   0  0  0  0  0  0  0  0  0  0  0  0
    0.7501   -1.0499    0.0618 N   0  0  0  0  0  0  0  0  0  0  0  0
    2.9719   -2.1706    0.4443 H   0  0  0  0  0  0  0  0  0  0  0  0
    3.5036   -0.9402    1.6045 H   0  0  0  0  0  0  0  0  0  0  0  0
    3.8896   -0.7665   -0.1291 H   0  0  0  0  0  0  0  0  0  0  0  0
    2.7372    1.5924    0.7693 H   0  0  0  0  0  0  0  0  0  0  0  0
    0.6238    2.7971    0.4194 H   0  0  0  0  0  0  0  0  0  0  0  0
   -3.8885    1.2825   -0.7375 H   0  0  0  0  0  0  0  0  0  0  0  0
   -0.4360   -2.6700   -0.3648 H   0  0  0  0  0  0  0  0  0  0  0  0
  1  2  1  0
  2  3  1  0
  3  4  2  0
  4  5  1  0
  5  6  2  0
  6  7  1  0
  6  8  1  0
  8  9  2  0
  9 10  1  0
  9 11  1  0
 11 12  1  0
 11 13  2  0
 13 14  1  0
 14  2  2  0
 13  5  1  0
  1 15  1  0
  1 16  1  0
  1 17  1  0
  3 18  1  0
  4 19  1  0
  8 20  1  0
 12 21  1  0
M  END
$$$$
OCNT-2328420
     RDKit          3D

 28 29  0  0  0  0  0  0  0  0999 V2000
   -3.3793    0.7316   -1.0625 C   0  0  0  0  0  0  0  0  0  0  0  0
   -2.3029    0.0207   -0.2851 C   0  0  0  0  0  0  0  0  0  0  0  0
   -2.6267   -0.4807    0.9863 C   0  0  0  0  0  0  0  0  0  0  0  0
   -1.6811   -1.1555    1.7495 C   0  0  0  0  0  0  0  0  0  0  0  0
   -0.3980   -1.3422    1.2496 C   0  0  0  0  0  0  0  0  0  0  0  0
   -0.0310   -0.8485   -0.0178 C   0  0  0  0  0  0  0  0  0  0  0  0
    1.3832   -1.1180   -0.4982 C   0  0  0  0  0  0  0  0  0  0  0  0
    2.2821   -0.2129    0.2755 C   0  0  0  0  0  0  0  0  0  0  0  0
    2.4424    1.1563    0.1910 C   0  0  0  0  0  0  0  0  0  0  0  0
    3.3915    1.4699    1.1229 N   0  0  0  0  0  0  0  0  0  0  0  0
    3.7869    0.3066    1.7164 C   0  0  0  0  0  0  0  0  0  0  0  0
    3.1447   -0.7266    1.2241 N   0  0  0  0  0  0  0  0  0  0  0  0
   -0.9902   -0.1447   -0.7924 C   0  0  0  0  0  0  0  0  0  0  0  0
   -0.6224    0.3753   -2.1608 C   0  0  0  0  0  0  0  0  0  0  0  0
   -3.1233    1.7888   -1.1840 H   0  0  0  0  0  0  0  0  0  0  0  0
   -3.5125    0.2660   -2.0443 H   0  0  0  0  0  0  0  0  0  0  0  0
   -4.3463    0.6832   -0.5501 H   0  0  0  0  0  0  0  0  0  0  0  0
   -3.6280   -0.3499    1.3909 H   0  0  0  0  0  0  0  0  0  0  0  0
   -1.9429   -1.5392    2.7315 H   0  0  0  0  0  0  0  0  0  0  0  0
    0.3348   -1.8737    1.8562 H   0  0  0  0  0  0  0  0  0  0  0  0
    1.6377   -2.1690   -0.3145 H   0  0  0  0  0  0  0  0  0  0  0  0
    1.5067   -0.9565   -1.5725 H   0  0  0  0  0  0  0  0  0  0  0  0
    1.9638    1.9078   -0.4201 H   0  0  0  0  0  0  0  0  0  0  0  0
    3.7404    2.3932    1.3387 H   0  0  0  0  0  0  0  0  0  0  0  0
    4.5388    0.2749    2.4933 H   0  0  0  0  0  0  0  0  0  0  0  0
    0.3282    0.9161   -2.1282 H   0  0  0  0  0  0  0  0  0  0  0  0
   -0.5442   -0.4579   -2.8663 H   0  0  0  0  0  0  0  0  0  0  0  0
   -1.3525    1.0848   -2.5580 H   0  0  0  0  0  0  0  0  0  0  0  0
  1  2  1  0
  2  3  1  0
  3  4  2  0
  4  5  1  0
  5  6  2  0
  6  7  1  0
  7  8  1  0
  8  9  2  0
  9 10  1  0
 10 11  1  0
 11 12  2  0
  6 13  1  0
 13 14  1  0
 13  2  2  0
 12  8  1  0
  1 15  1  0
  1 16  1  0
  1 17  1  0
  3 18  1  0
  4 19  1  0
  5 20  1  0
  7 21  1  0
  7 22  1  0
  9 23  1  0
 10 24  1  0
 11 25  1  0
 14 26  1  0
 14 27  1  0
 14 28  1  0
M  END
$$$$
OCNT-2328447
     RDKit          3D

 42 45  0  0  0  0  0  0  0  0999 V2000
    6.2923    1.3470   -1.2625 C   0  0  0  0  0  0  0  0  0  0  0  0
    5.3353    1.9926   -2.0412 C   0  0  0  0  0  0  0  0  0  0  0  0
    3.9796    1.6992   -1.8697 C   0  0  0  0  0  0  0  0  0  0  0  0
    3.5566    0.7571   -0.9170 C   0  0  0  0  0  0  0  0  0  0  0  0
    2.1285    0.4489   -0.7368 C   0  0  0  0  0  0  0  0  0  0  0  0
    1.5233    0.5311    0.5258 C   0  0  0  0  0  0  0  0  0  0  0  0
    0.1661    0.2374    0.7014 C   0  0  0  0  0  0  0  0  0  0  0  0
   -0.6334   -0.1434   -0.3870 C   0  0  0  0  0  0  0  0  0  0  0  0
   -2.1139   -0.4912   -0.2390 C   0  0  0  0  0  0  0  0  0  0  0  0
   -2.8525    0.2552    0.8727 C   0  0  0  0  0  0  0  0  0  0  0  0
   -3.2349    1.5922    0.6520 C   0  0  0  0  0  0  0  0  0  0  0  0
   -3.8943    2.3233    1.6418 C   0  0  0  0  0  0  0  0  0  0  0  0
   -4.1784    1.7339    2.8703 C   0  0  0  0  0  0  0  0  0  0  0  0
   -3.7998    0.4159    3.1117 C   0  0  0  0  0  0  0  0  0  0  0  0
   -3.1384   -0.3179    2.1240 C   0  0  0  0  0  0  0  0  0  0  0  0
   -2.3417   -1.9454   -0.1983 N   0  0  0  0  0  0  0  0  0  0  0  0
   -1.5293   -2.9257    0.3100 C   0  0  0  0  0  0  0  0  0  0  0  0
   -2.1994   -4.1042    0.0801 C   0  0  0  0  0  0  0  0  0  0  0  0
   -3.3950   -3.8707   -0.5456 N   0  0  0  0  0  0  0  0  0  0  0  0
   -3.4568   -2.5675   -0.6985 C   0  0  0  0  0  0  0  0  0  0  0  0
   -0.0276   -0.2353   -1.6513 C   0  0  0  0  0  0  0  0  0  0  0  0
    1.3295    0.0591   -1.8214 C   0  0  0  0  0  0  0  0  0  0  0  0
    4.5388    0.1180   -0.1418 C   0  0  0  0  0  0  0  0  0  0  0  0
    5.8950    0.4094   -0.3129 C   0  0  0  0  0  0  0  0  0  0  0  0
    7.3467    1.5741   -1.3958 H   0  0  0  0  0  0  0  0  0  0  0  0
    5.6416    2.7270   -2.7815 H   0  0  0  0  0  0  0  0  0  0  0  0
    3.2480    2.2235   -2.4811 H   0  0  0  0  0  0  0  0  0  0  0  0
    2.1085    0.8381    1.3911 H   0  0  0  0  0  0  0  0  0  0  0  0
   -0.2513    0.3147    1.7034 H   0  0  0  0  0  0  0  0  0  0  0  0
   -2.6001   -0.1792   -1.1770 H   0  0  0  0  0  0  0  0  0  0  0  0
   -3.0141    2.0783   -0.2970 H   0  0  0  0  0  0  0  0  0  0  0  0
   -4.1836    3.3544    1.4546 H   0  0  0  0  0  0  0  0  0  0  0  0
   -4.6925    2.3020    3.6413 H   0  0  0  0  0  0  0  0  0  0  0  0
   -4.0194   -0.0445    4.0722 H   0  0  0  0  0  0  0  0  0  0  0  0
   -2.8532   -1.3430    2.3524 H   0  0  0  0  0  0  0  0  0  0  0  0
   -0.5738   -2.7196    0.7717 H   0  0  0  0  0  0  0  0  0  0  0  0
   -1.8831   -5.1080    0.3324 H   0  0  0  0  0  0  0  0  0  0  0  0
   -4.2761   -2.0264   -1.1545 H   0  0  0  0  0  0  0  0  0  0  0  0
   -0.6053   -0.5492   -2.5192 H   0  0  0  0  0  0  0  0  0  0  0  0
    1.7672   -0.0354   -2.8137 H   0  0  0  0  0  0  0  0  0  0  0  0
    4.2515   -0.6266    0.5978 H   0  0  0  0  0  0  0  0  0  0  0  0
    6.6393   -0.0991    0.2944 H   0  0  0  0  0  0  0  0  0  0  0  0
  1  2  2  0
  2  3  1  0
  3  4  2  0
  4  5  1  0
  5  6  1  0
  6  7  2  0
  7  8  1  0
  8  9  1  0
  9 10  1  0
 10 11  2  0
 11 12  1  0
 12 13  2  0
 13 14  1  0
 14 15  2  0
  9 16  1  0
 16 17  1  0
 17 18  2  0
 18 19  1  0
 19 20  2  0
  8 21  2  0
 21 22  1  0
  4 23  1  0
 23 24  2  0
 24  1  1  0
 22  5  2  0
 15 10  1  0
 20 16  1  0
  1 25  1  0
  2 26  1  0
  3 27  1  0
  6 28  1  0
  7 29  1  0
  9 30  1  0
 11 31  1  0
 12 32  1  0
 13 33  1  0
 14 34  1  0
 15 35  1  0
 17 36  1  0
 18 37  1  0
 20 38  1  0
 21 39  1  0
 22 40  1  0
 23 41  1  0
 24 42  1  0
M  END
$$$$
OCNT-2328455
     RDKit          3D

 79 84  0  0  0  0  0  0  0  0999 V2000
   -3.6859   -4.5562    2.2108 C   0  0  0  0  0  0  0  0  0  0  0  0
   -2.4685   -4.6659    1.3077 C   0  0  0  0  0  0  0  0  0  0  0  0
   -1.8785   -3.3700    1.2007 O   0  0  0  0  0  0  0  0  0  0  0  0
   -0.9569   -3.2548    0.2490 C   0  0  0  0  0  0  0  0  0  0  0  0
   -0.3765   -4.2526   -0.3626 N   0  0  0  0  0  0  0  0  0  0  0  0
    0.5021   -3.6694   -1.2349 C   0  0  0  0  0  0  0  0  0  0  0  0
    1.3951   -4.3129   -2.1074 C   0  0  0  0  0  0  0  0  0  0  0  0
    2.2107   -3.5487   -2.9424 C   0  0  0  0  0  0  0  0  0  0  0  0
    2.1199   -2.1603   -2.9192 C   0  0  0  0  0  0  0  0  0  0  0  0
    1.2359   -1.4839   -2.0459 C   0  0  0  0  0  0  0  0  0  0  0  0
    1.1238   -0.0122   -2.1416 C   0  0  0  0  0  0  0  0  0  0  0  0
    0.0812    0.6108   -2.0541 O   0  0  0  0  0  0  0  0  0  0  0  0
    2.3518    0.5165   -2.3444 O   0  0  0  0  0  0  0  0  0  0  0  0
    2.4065    1.9463   -2.3625 C   0  0  0  0  0  0  0  0  0  0  0  0
    1.9696    2.4594   -3.7306 C   0  0  0  0  0  0  0  0  0  0  0  0
    3.7591    2.3890   -2.1812 O   0  0  0  0  0  0  0  0  0  0  0  0
    4.2711    2.1279   -0.9539 C   0  0  0  0  0  0  0  0  0  0  0  0
    3.6737    1.6250   -0.0151 O   0  0  0  0  0  0  0  0  0  0  0  0
    5.5765    2.4904   -0.9600 O   0  0  0  0  0  0  0  0  0  0  0  0
    6.3415    2.1292    0.2019 C   0  0  0  0  0  0  0  0  0  0  0  0
    7.6157    2.9808    0.1895 C   0  0  0  0  0  0  0  0  0  0  0  0
    8.5736    2.5887    1.3117 C   0  0  0  0  0  0  0  0  0  0  0  0
    8.9043    1.0996    1.2731 C   0  0  0  0  0  0  0  0  0  0  0  0
    7.6429    0.2468    1.2834 C   0  0  0  0  0  0  0  0  0  0  0  0
    6.6921    0.6376    0.1568 C   0  0  0  0  0  0  0  0  0  0  0  0
    0.4374   -2.2706   -1.1858 C   0  0  0  0  0  0  0  0  0  0  0  0
   -0.4677   -2.0356   -0.1634 N   0  0  0  0  0  0  0  0  0  0  0  0
   -0.7461   -0.7970    0.5532 C   0  0  0  0  0  0  0  0  0  0  0  0
   -2.2085   -0.4107    0.5293 C   0  0  0  0  0  0  0  0  0  0  0  0
   -2.9172   -0.3144    1.7323 C   0  0  0  0  0  0  0  0  0  0  0  0
   -4.2819   -0.0060    1.7385 C   0  0  0  0  0  0  0  0  0  0  0  0
   -4.9783    0.2374    0.5454 C   0  0  0  0  0  0  0  0  0  0  0  0
   -6.4276    0.5184    0.5618 C   0  0  0  0  0  0  0  0  0  0  0  0
   -7.2961   -0.3366   -0.1465 C   0  0  0  0  0  0  0  0  0  0  0  0
   -8.6831   -0.1670   -0.1123 C   0  0  0  0  0  0  0  0  0  0  0  0
   -9.2401    0.8608    0.6399 C   0  0  0  0  0  0  0  0  0  0  0  0
   -8.4060    1.7254    1.3487 C   0  0  0  0  0  0  0  0  0  0  0  0
   -7.0056    1.5726    1.3063 C   0  0  0  0  0  0  0  0  0  0  0  0
   -6.2050    2.5344    2.0453 C   0  0  0  0  0  0  0  0  0  0  0  0
   -6.0753    2.6570    3.3543 N   0  0  0  0  0  0  0  0  0  0  0  0
   -5.2663    3.7476    3.5595 N   0  0  0  0  0  0  0  0  0  0  0  0
   -4.9131    4.3025    2.4032 N   0  0  0  0  0  0  0  0  0  0  0  0
   -5.4598    3.5216    1.4613 N   0  0  0  0  0  0  0  0  0  0  0  0
   -4.2592    0.1631   -0.6560 C   0  0  0  0  0  0  0  0  0  0  0  0
   -2.8904   -0.1525   -0.6667 C   0  0  0  0  0  0  0  0  0  0  0  0
   -4.3956   -3.8110    1.8321 H   0  0  0  0  0  0  0  0  0  0  0  0
   -4.1977   -5.5213    2.2850 H   0  0  0  0  0  0  0  0  0  0  0  0
   -3.3892   -4.2282    3.2152 H   0  0  0  0  0  0  0  0  0  0  0  0
   -1.7430   -5.3694    1.7369 H   0  0  0  0  0  0  0  0  0  0  0  0
   -2.7863   -5.0317    0.3252 H   0  0  0  0  0  0  0  0  0  0  0  0
    1.4388   -5.3964   -2.1178 H   0  0  0  0  0  0  0  0  0  0  0  0
    2.9050   -4.0386   -3.6215 H   0  0  0  0  0  0  0  0  0  0  0  0
    2.7432   -1.5899   -3.6062 H   0  0  0  0  0  0  0  0  0  0  0  0
    1.7711    2.3867   -1.5788 H   0  0  0  0  0  0  0  0  0  0  0  0
    2.0611    3.5485   -3.7923 H   0  0  0  0  0  0  0  0  0  0  0  0
    0.9387    2.1779   -3.9634 H   0  0  0  0  0  0  0  0  0  0  0  0
    2.6066    2.0357   -4.5161 H   0  0  0  0  0  0  0  0  0  0  0  0
    5.7704    2.3553    1.1144 H   0  0  0  0  0  0  0  0  0  0  0  0
    7.3598    4.0447    0.2752 H   0  0  0  0  0  0  0  0  0  0  0  0
    8.1176    2.8842   -0.7859 H   0  0  0  0  0  0  0  0  0  0  0  0
    8.1313    2.8481    2.2845 H   0  0  0  0  0  0  0  0  0  0  0  0
    9.4984    3.1690    1.2220 H   0  0  0  0  0  0  0  0  0  0  0  0
    9.4845    0.8762    0.3687 H   0  0  0  0  0  0  0  0  0  0  0  0
    9.5316    0.8410    2.1330 H   0  0  0  0  0  0  0  0  0  0  0  0
    7.1381    0.3636    2.2524 H   0  0  0  0  0  0  0  0  0  0  0  0
    7.9149   -0.8082    1.1820 H   0  0  0  0  0  0  0  0  0  0  0  0
    5.7808    0.0294    0.2209 H   0  0  0  0  0  0  0  0  0  0  0  0
    7.1366    0.3843   -0.8163 H   0  0  0  0  0  0  0  0  0  0  0  0
   -0.4096   -0.9666    1.5882 H   0  0  0  0  0  0  0  0  0  0  0  0
   -0.1285    0.0145    0.1757 H   0  0  0  0  0  0  0  0  0  0  0  0
   -2.4190   -0.4985    2.6853 H   0  0  0  0  0  0  0  0  0  0  0  0
   -4.7985    0.0311    2.6984 H   0  0  0  0  0  0  0  0  0  0  0  0
   -6.8892   -1.1733   -0.7139 H   0  0  0  0  0  0  0  0  0  0  0  0
   -9.3238   -0.8513   -0.6673 H   0  0  0  0  0  0  0  0  0  0  0  0
  -10.3191    0.9865    0.6677 H   0  0  0  0  0  0  0  0  0  0  0  0
   -8.8543    2.5248    1.9369 H   0  0  0  0  0  0  0  0  0  0  0  0
   -5.3287    3.7358    0.4800 H   0  0  0  0  0  0  0  0  0  0  0  0
   -4.7647    0.3385   -1.6021 H   0  0  0  0  0  0  0  0  0  0  0  0
   -2.3723   -0.2031   -1.6228 H   0  0  0  0  0  0  0  0  0  0  0  0
  1  2  1  0
  2  3  1  0
  3  4  1  0
  4  5  2  0
  5  6  1  0
  6  7  2  0
  7  8  1  0
  8  9  2  0
  9 10  1  0
 10 11  1  0
 11 12  2  0
 11 13  1  0
 13 14  1  0
 14 15  1  0
 14 16  1  0
 16 17  1  0
 17 18  2  0
 17 19  1  0
 19 20  1  0
 20 21  1  0
 21 22  1  0
 22 23  1  0
 23 24  1  0
 24 25  1  0
 10 26  2  0
 26 27  1  0
 27 28  1  0
 28 29  1  0
 29 30  1  0
 30 31  2  0
 31 32  1  0
 32 33  1  0
 33 34  2  0
 34 35  1  0
 35 36  2  0
 36 37  1  0
 37 38  2  0
 38 39  1  0
 39 40  2  0
 40 41  1  0
 41 42  2  0
 42 43  1  0
 32 44  2  0
 44 45  1  0
 27  4  1  0
 45 29  2  0
 26  6  1  0
 38 33  1  0
 43 39  1  0
 25 20  1  0
  1 46  1  0
  1 47  1  0
  1 48  1  0
  2 49  1  0
  2 50  1  0
  7 51  1  0
  8 52  1  0
  9 53  1  0
 14 54  1  0
 15 55  1  0
 15 56  1  0
 15 57  1  0
 20 58  1  0
 21 59  1  0
 21 60  1  0
 22 61  1  0
 22 62  1  0
 23 63  1  0
 23 64  1  0
 24 65  1  0
 24 66  1  0
 25 67  1  0
 25 68  1  0
 28 69  1  0
 28 70  1  0
 30 71  1  0
 31 72  1  0
 34 73  1  0
 35 74  1  0
 36 75  1  0
 37 76  1  0
 43 77  1  0
 44 78  1  0
 45 79  1  0
M  END
$$$$
OCNT-2328488
     RDKit          3D

 36 38  0  0  0  0  0  0  0  0999 V2000
   -4.9071   -3.6310   -0.7564 Cl  0  0  0  0  0  0  0  0  0  0  0  0
   -3.6680   -2.4518   -0.5783 C   0  0  0  0  0  0  0  0  0  0  0  0
   -3.2237   -1.7446   -1.6898 C   0  0  0  0  0  0  0  0  0  0  0  0
   -2.2171   -0.7873   -1.5459 C   0  0  0  0  0  0  0  0  0  0  0  0
   -1.6384   -0.5232   -0.2873 C   0  0  0  0  0  0  0  0  0  0  0  0
   -0.5360    0.5264   -0.2194 C   0  0  0  0  0  0  0  0  0  0  0  0
   -0.9911    1.7788    0.5503 C   0  0  0  0  0  0  0  0  0  0  0  0
   -0.2033    2.9429    0.1750 N   0  0  0  0  0  0  0  0  0  0  0  0
    1.0107    3.3003    0.6899 C   0  0  0  0  0  0  0  0  0  0  0  0
    1.3587    4.4442    0.0109 C   0  0  0  0  0  0  0  0  0  0  0  0
    0.3876    4.7857   -0.8957 N   0  0  0  0  0  0  0  0  0  0  0  0
   -0.5471    3.8720   -0.7641 C   0  0  0  0  0  0  0  0  0  0  0  0
    0.6306   -0.0150    0.4099 O   0  0  0  0  0  0  0  0  0  0  0  0
    1.4558   -0.7674   -0.4774 C   0  0  0  0  0  0  0  0  0  0  0  0
    2.4424   -1.5724    0.3035 C   0  0  0  0  0  0  0  0  0  0  0  0
    2.2452   -2.8520    0.7752 C   0  0  0  0  0  0  0  0  0  0  0  0
    0.8425   -3.8329    0.5806 Cl  0  0  0  0  0  0  0  0  0  0  0  0
    3.5634   -3.4828    1.6321 S   0  0  0  0  0  0  0  0  0  0  0  0
    4.4554   -2.0396    1.4129 C   0  0  0  0  0  0  0  0  0  0  0  0
    3.7451   -1.1031    0.6922 C   0  0  0  0  0  0  0  0  0  0  0  0
   -2.1110   -1.2484    0.8235 C   0  0  0  0  0  0  0  0  0  0  0  0
   -1.4998   -1.0115    2.4217 Cl  0  0  0  0  0  0  0  0  0  0  0  0
   -3.1186   -2.2080    0.6756 C   0  0  0  0  0  0  0  0  0  0  0  0
   -3.6530   -1.9354   -2.6707 H   0  0  0  0  0  0  0  0  0  0  0  0
   -1.8838   -0.2519   -2.4341 H   0  0  0  0  0  0  0  0  0  0  0  0
   -0.2641    0.8301   -1.2405 H   0  0  0  0  0  0  0  0  0  0  0  0
   -2.0376    2.0266    0.3353 H   0  0  0  0  0  0  0  0  0  0  0  0
   -0.8782    1.6691    1.6340 H   0  0  0  0  0  0  0  0  0  0  0  0
    1.5101    2.7300    1.4615 H   0  0  0  0  0  0  0  0  0  0  0  0
    2.2557    5.0390    0.1253 H   0  0  0  0  0  0  0  0  0  0  0  0
   -1.4746    3.8389   -1.3211 H   0  0  0  0  0  0  0  0  0  0  0  0
    1.9827   -0.0682   -1.1378 H   0  0  0  0  0  0  0  0  0  0  0  0
    0.8519   -1.4258   -1.1122 H   0  0  0  0  0  0  0  0  0  0  0  0
    5.4509   -1.9455    1.8251 H   0  0  0  0  0  0  0  0  0  0  0  0
    4.1356   -0.1196    0.4568 H   0  0  0  0  0  0  0  0  0  0  0  0
   -3.4715   -2.7668    1.5391 H   0  0  0  0  0  0  0  0  0  0  0  0
  1  2  1  0
  2  3  1  0
  3  4  2  0
  4  5  1  0
  5  6  1  0
  6  7  1  0
  7  8  1  0
  8  9  1  0
  9 10  2  0
 10 11  1  0
 11 12  2  0
  6 13  1  0
 13 14  1  0
 14 15  1  0
 15 16  2  0
 16 17  1  0
 16 18  1  0
 18 19  1  0
 19 20  2  0
  5 21  2  0
 21 22  1  0
 21 23  1  0
 23  2  2  0
 12  8  1  0
 20 15  1  0
  3 24  1  0
  4 25  1  0
  6 26  1  0
  7 27  1  0
  7 28  1  0
  9 29  1  0
 10 30  1  0
 12 31  1  0
 14 32  1  0
 14 33  1  0
 19 34  1  0
 20 35  1  0
 23 36  1  0
M  END
$$$$
OCNT-2328496
     RDKit          3D

 60 62  0  0  0  0  0  0  0  0999 V2000
   -6.2627    3.2712   -0.1719 C   0  0  0  0  0  0  0  0  0  0  0  0
   -6.5959    1.8057    0.0672 C   0  0  0  0  0  0  0  0  0  0  0  0
   -6.7659    1.0091   -1.2298 C   0  0  0  0  0  0  0  0  0  0  0  0
   -5.4623    0.7166   -1.9811 C   0  0  0  0  0  0  0  0  0  0  0  0
   -4.6337   -0.3275   -1.3126 C   0  0  0  0  0  0  0  0  0  0  0  0
   -3.4296   -0.3156   -0.6218 C   0  0  0  0  0  0  0  0  0  0  0  0
   -2.6385    0.8765   -0.3613 C   0  0  0  0  0  0  0  0  0  0  0  0
   -3.1473    1.9729   -0.1508 O   0  0  0  0  0  0  0  0  0  0  0  0
   -1.1560    0.7820   -0.3535 C   0  0  0  0  0  0  0  0  0  0  0  0
   -0.4716   -0.0094   -1.2828 C   0  0  0  0  0  0  0  0  0  0  0  0
    0.9279   -0.0560   -1.2645 C   0  0  0  0  0  0  0  0  0  0  0  0
    1.8504   -1.1930   -2.7684 I   0  0  0  0  0  0  0  0  0  0  0  0
    1.6509    0.6741   -0.3061 C   0  0  0  0  0  0  0  0  0  0  0  0
    3.0209    0.6563   -0.2823 O   0  0  0  0  0  0  0  0  0  0  0  0
    3.5336   -0.4605    0.4648 C   0  0  0  0  0  0  0  0  0  0  0  0
    4.8449   -0.0728    1.1857 C   0  0  0  0  0  0  0  0  0  0  0  0
    5.9041    0.5296    0.3535 N   0  0  0  0  0  0  0  0  0  0  0  0
    7.0844    0.9199    1.1419 C   0  0  0  0  0  0  0  0  0  0  0  0
    6.8137    2.0810    2.0954 C   0  0  0  0  0  0  0  0  0  0  0  0
    6.2749   -0.2645   -0.8258 C   0  0  0  0  0  0  0  0  0  0  0  0
    6.8358   -1.6562   -0.5502 C   0  0  0  0  0  0  0  0  0  0  0  0
    0.9558    1.5123    0.5811 C   0  0  0  0  0  0  0  0  0  0  0  0
    1.9357    2.7559    1.9532 I   0  0  0  0  0  0  0  0  0  0  0  0
   -0.4410    1.5629    0.5624 C   0  0  0  0  0  0  0  0  0  0  0  0
   -3.1965   -1.6762   -0.2240 C   0  0  0  0  0  0  0  0  0  0  0  0
   -4.2517   -2.4135   -0.7488 C   0  0  0  0  0  0  0  0  0  0  0  0
   -4.4029   -3.7914   -0.6023 C   0  0  0  0  0  0  0  0  0  0  0  0
   -3.4199   -4.4530    0.1390 C   0  0  0  0  0  0  0  0  0  0  0  0
   -2.3506   -3.7537    0.7009 C   0  0  0  0  0  0  0  0  0  0  0  0
   -2.2256   -2.3669    0.5321 C   0  0  0  0  0  0  0  0  0  0  0  0
   -5.1129   -1.6014   -1.4126 O   0  0  0  0  0  0  0  0  0  0  0  0
   -5.3353    3.3953   -0.7355 H   0  0  0  0  0  0  0  0  0  0  0  0
   -7.0666    3.7647   -0.7285 H   0  0  0  0  0  0  0  0  0  0  0  0
   -6.1491    3.7911    0.7839 H   0  0  0  0  0  0  0  0  0  0  0  0
   -5.8351    1.3464    0.7079 H   0  0  0  0  0  0  0  0  0  0  0  0
   -7.5407    1.7606    0.6250 H   0  0  0  0  0  0  0  0  0  0  0  0
   -7.2708    0.0647   -0.9918 H   0  0  0  0  0  0  0  0  0  0  0  0
   -7.4406    1.5598   -1.8965 H   0  0  0  0  0  0  0  0  0  0  0  0
   -4.8836    1.6313   -2.1405 H   0  0  0  0  0  0  0  0  0  0  0  0
   -5.7206    0.3473   -2.9817 H   0  0  0  0  0  0  0  0  0  0  0  0
   -1.0277   -0.5668   -2.0354 H   0  0  0  0  0  0  0  0  0  0  0  0
    2.8144   -0.8019    1.2211 H   0  0  0  0  0  0  0  0  0  0  0  0
    3.7180   -1.2955   -0.2153 H   0  0  0  0  0  0  0  0  0  0  0  0
    5.2286   -0.9557    1.7116 H   0  0  0  0  0  0  0  0  0  0  0  0
    4.5588    0.6493    1.9543 H   0  0  0  0  0  0  0  0  0  0  0  0
    7.8807    1.2537    0.4639 H   0  0  0  0  0  0  0  0  0  0  0  0
    7.4822    0.0695    1.7092 H   0  0  0  0  0  0  0  0  0  0  0  0
    6.1448    1.7938    2.9117 H   0  0  0  0  0  0  0  0  0  0  0  0
    7.7532    2.4172    2.5482 H   0  0  0  0  0  0  0  0  0  0  0  0
    6.3729    2.9340    1.5698 H   0  0  0  0  0  0  0  0  0  0  0  0
    7.0132    0.2993   -1.4114 H   0  0  0  0  0  0  0  0  0  0  0  0
    5.4111   -0.3560   -1.4955 H   0  0  0  0  0  0  0  0  0  0  0  0
    7.1355   -2.1254   -1.4938 H   0  0  0  0  0  0  0  0  0  0  0  0
    7.7218   -1.6186    0.0912 H   0  0  0  0  0  0  0  0  0  0  0  0
    6.0929   -2.3088   -0.0806 H   0  0  0  0  0  0  0  0  0  0  0  0
   -0.9834    2.2148    1.2471 H   0  0  0  0  0  0  0  0  0  0  0  0
   -5.2462   -4.3148   -1.0376 H   0  0  0  0  0  0  0  0  0  0  0  0
   -3.4970   -5.5268    0.2890 H   0  0  0  0  0  0  0  0  0  0  0  0
   -1.6063   -4.2911    1.2858 H   0  0  0  0  0  0  0  0  0  0  0  0
   -1.3931   -1.8460    0.9968 H   0  0  0  0  0  0  0  0  0  0  0  0
  1  2  1  0
  2  3  1  0
  3  4  1  0
  4  5  1  0
  5  6  2  0
  6  7  1  0
  7  8  2  0
  7  9  1  0
  9 10  1  0
 10 11  2  0
 11 12  1  0
 11 13  1  0
 13 14  1  0
 14 15  1  0
 15 16  1  0
 16 17  1  0
 17 18  1  0
 18 19  1  0
 17 20  1  0
 20 21  1  0
 13 22  2  0
 22 23  1  0
 22 24  1  0
  6 25  1  0
 25 26  1  0
 26 27  2  0
 27 28  1  0
 28 29  2  0
 29 30  1  0
 26 31  1  0
 31  5  1  0
 24  9  2  0
 30 25  2  0
  1 32  1  0
  1 33  1  0
  1 34  1  0
  2 35  1  0
  2 36  1  0
  3 37  1  0
  3 38  1  0
  4 39  1  0
  4 40  1  0
 10 41  1  0
 15 42  1  0
 15 43  1  0
 16 44  1  0
 16 45  1  0
 18 46  1  0
 18 47  1  0
 19 48  1  0
 19 49  1  0
 19 50  1  0
 20 51  1  0
 20 52  1  0
 21 53  1  0
 21 54  1  0
 21 55  1  0
 24 56  1  0
 27 57  1  0
 28 58  1  0
 29 59  1  0
 30 60  1  0
M  END
$$$$
OCNT-2328510
     RDKit          3D

102107  0  0  0  0  0  0  0  0999 V2000
    4.8732   -1.0636   -1.1865 C   0  0  0  0  0  0  0  0  0  0  0  0
    5.1921    0.4305   -1.3500 C   0  0  0  0  0  0  0  0  0  0  0  0
    4.4775    1.0832   -2.5399 C   0  0  0  0  0  0  0  0  0  0  0  0
    6.6957    0.6330   -1.4534 C   0  0  0  0  0  0  0  0  0  0  0  0
    7.1061    1.3853   -0.3543 C   0  0  0  0  0  0  0  0  0  0  0  0
    8.4263    1.7415   -0.1519 C   0  0  0  0  0  0  0  0  0  0  0  0
    9.3664    1.3231   -1.0919 C   0  0  0  0  0  0  0  0  0  0  0  0
    8.9925    0.5591   -2.2130 C   0  0  0  0  0  0  0  0  0  0  0  0
    7.6335    0.1982   -2.4152 C   0  0  0  0  0  0  0  0  0  0  0  0
    7.3220   -0.5685   -3.5607 C   0  0  0  0  0  0  0  0  0  0  0  0
    8.3089   -0.9614   -4.4676 C   0  0  0  0  0  0  0  0  0  0  0  0
    9.6313   -0.6001   -4.2545 C   0  0  0  0  0  0  0  0  0  0  0  0
    9.9706    0.1538   -3.1337 C   0  0  0  0  0  0  0  0  0  0  0  0
    5.9432    1.6940    0.4998 N   0  0  0  0  0  0  0  0  0  0  0  0
    6.1065    2.4954    1.7344 C   0  0  0  0  0  0  0  0  0  0  0  0
    6.0436    1.6295    2.9975 C   0  0  0  0  0  0  0  0  0  0  0  0
    7.2701    0.7439    3.2548 C   0  0  0  0  0  0  0  0  0  0  0  0
    7.0919   -0.6898    2.7597 C   0  0  0  0  0  0  0  0  0  0  0  0
    8.5721   -1.6746    2.9557 S   0  0  0  0  0  0  0  0  0  0  0  0
    8.3516   -2.9728    2.3659 O   0  0  0  0  0  0  0  0  0  0  0  0
    9.1123   -1.4940    4.2801 O   0  0  0  0  0  0  0  0  0  0  0  0
    9.5147   -0.8636    1.9236 O   0  0  0  0  0  0  0  0  0  0  0  0
    4.8592    1.2019   -0.0303 C   0  0  0  0  0  0  0  0  0  0  0  0
    3.5038    1.3607    0.5701 C   0  0  0  0  0  0  0  0  0  0  0  0
    2.3693    0.8008    0.1288 C   0  0  0  0  0  0  0  0  0  0  0  0
    1.0983    0.9831    0.8012 C   0  0  0  0  0  0  0  0  0  0  0  0
   -0.0269    0.3726    0.3976 C   0  0  0  0  0  0  0  0  0  0  0  0
   -1.2921    0.5249    1.0834 C   0  0  0  0  0  0  0  0  0  0  0  0
   -2.4071   -0.1203    0.7045 C   0  0  0  0  0  0  0  0  0  0  0  0
   -3.6571    0.0001    1.4220 C   0  0  0  0  0  0  0  0  0  0  0  0
   -4.8675   -0.5426    1.1666 C   0  0  0  0  0  0  0  0  0  0  0  0
   -5.3396   -1.3454    0.1206 N   0  0  0  0  0  0  0  0  0  0  0  0
   -4.7086   -1.6530   -1.1570 C   0  0  0  0  0  0  0  0  0  0  0  0
   -4.6460   -0.4359   -2.0898 C   0  0  0  0  0  0  0  0  0  0  0  0
   -6.0234    0.0733   -2.5216 C   0  0  0  0  0  0  0  0  0  0  0  0
   -5.9008    1.2024   -3.5374 C   0  0  0  0  0  0  0  0  0  0  0  0
   -7.5059    1.8482   -3.9854 S   0  0  0  0  0  0  0  0  0  0  0  0
   -8.2615    0.8360   -4.6881 O   0  0  0  0  0  0  0  0  0  0  0  0
   -8.0498    2.6208   -2.8942 O   0  0  0  0  0  0  0  0  0  0  0  0
   -7.0123    2.8836   -5.1221 O   0  0  0  0  0  0  0  0  0  0  0  0
   -6.6907   -1.6800    0.3357 C   0  0  0  0  0  0  0  0  0  0  0  0
   -7.5230   -2.4619   -0.4501 C   0  0  0  0  0  0  0  0  0  0  0  0
   -8.8464   -2.6698   -0.0568 C   0  0  0  0  0  0  0  0  0  0  0  0
   -9.3586   -2.1052    1.1225 C   0  0  0  0  0  0  0  0  0  0  0  0
  -10.6966   -2.3365    1.4823 C   0  0  0  0  0  0  0  0  0  0  0  0
  -11.2333   -1.7882    2.6450 C   0  0  0  0  0  0  0  0  0  0  0  0
  -10.4374   -0.9988    3.4620 C   0  0  0  0  0  0  0  0  0  0  0  0
   -9.1038   -0.7614    3.1181 C   0  0  0  0  0  0  0  0  0  0  0  0
   -8.5285   -1.3040    1.9457 C   0  0  0  0  0  0  0  0  0  0  0  0
   -7.1885   -1.1088    1.5271 C   0  0  0  0  0  0  0  0  0  0  0  0
   -6.0582   -0.3085    2.1736 C   0  0  0  0  0  0  0  0  0  0  0  0
   -6.4031    1.1893    2.2328 C   0  0  0  0  0  0  0  0  0  0  0  0
   -5.6995   -0.8748    3.5589 C   0  0  0  0  0  0  0  0  0  0  0  0
    5.2785   -1.6716   -1.9997 H   0  0  0  0  0  0  0  0  0  0  0  0
    5.2887   -1.4570   -0.2513 H   0  0  0  0  0  0  0  0  0  0  0  0
    3.7994   -1.2628   -1.1668 H   0  0  0  0  0  0  0  0  0  0  0  0
    3.3890    1.0102   -2.4650 H   0  0  0  0  0  0  0  0  0  0  0  0
    4.7216    2.1492   -2.6103 H   0  0  0  0  0  0  0  0  0  0  0  0
    4.7539    0.6262   -3.4962 H   0  0  0  0  0  0  0  0  0  0  0  0
    8.7707    2.3226    0.6962 H   0  0  0  0  0  0  0  0  0  0  0  0
   10.4122    1.5959   -0.9445 H   0  0  0  0  0  0  0  0  0  0  0  0
    6.3057   -0.8799   -3.7822 H   0  0  0  0  0  0  0  0  0  0  0  0
    8.0427   -1.5508   -5.3428 H   0  0  0  0  0  0  0  0  0  0  0  0
   10.4008   -0.9068   -4.9594 H   0  0  0  0  0  0  0  0  0  0  0  0
   11.0162    0.4245   -2.9925 H   0  0  0  0  0  0  0  0  0  0  0  0
    5.2938    3.2303    1.7496 H   0  0  0  0  0  0  0  0  0  0  0  0
    7.0299    3.0786    1.6908 H   0  0  0  0  0  0  0  0  0  0  0  0
    5.1290    1.0260    3.0249 H   0  0  0  0  0  0  0  0  0  0  0  0
    5.9680    2.3266    3.8430 H   0  0  0  0  0  0  0  0  0  0  0  0
    7.4361    0.7024    4.3388 H   0  0  0  0  0  0  0  0  0  0  0  0
    8.1707    1.2033    2.8356 H   0  0  0  0  0  0  0  0  0  0  0  0
    6.8244   -0.7338    1.7013 H   0  0  0  0  0  0  0  0  0  0  0  0
    6.3045   -1.1967    3.3280 H   0  0  0  0  0  0  0  0  0  0  0  0
   10.2702   -1.4493    1.6891 H   0  0  0  0  0  0  0  0  0  0  0  0
    3.4382    1.9805    1.4615 H   0  0  0  0  0  0  0  0  0  0  0  0
    2.3325    0.1657   -0.7488 H   0  0  0  0  0  0  0  0  0  0  0  0
    1.0707    1.6315    1.6759 H   0  0  0  0  0  0  0  0  0  0  0  0
   -0.0175   -0.2856   -0.4702 H   0  0  0  0  0  0  0  0  0  0  0  0
   -1.3156    1.1847    1.9488 H   0  0  0  0  0  0  0  0  0  0  0  0
   -2.3655   -0.7799   -0.1502 H   0  0  0  0  0  0  0  0  0  0  0  0
   -3.5779    0.6084    2.3231 H   0  0  0  0  0  0  0  0  0  0  0  0
   -5.2001   -2.4774   -1.6829 H   0  0  0  0  0  0  0  0  0  0  0  0
   -3.6996   -2.0382   -0.9834 H   0  0  0  0  0  0  0  0  0  0  0  0
   -4.0968    0.3846   -1.6142 H   0  0  0  0  0  0  0  0  0  0  0  0
   -4.0743   -0.7223   -2.9821 H   0  0  0  0  0  0  0  0  0  0  0  0
   -6.5822    0.4336   -1.6507 H   0  0  0  0  0  0  0  0  0  0  0  0
   -6.6049   -0.7482   -2.9558 H   0  0  0  0  0  0  0  0  0  0  0  0
   -5.3178    2.0346   -3.1310 H   0  0  0  0  0  0  0  0  0  0  0  0
   -5.4238    0.8444   -4.4546 H   0  0  0  0  0  0  0  0  0  0  0  0
   -7.5986    2.7726   -5.9017 H   0  0  0  0  0  0  0  0  0  0  0  0
   -7.1873   -2.9283   -1.3678 H   0  0  0  0  0  0  0  0  0  0  0  0
   -9.4837   -3.2876   -0.6868 H   0  0  0  0  0  0  0  0  0  0  0  0
  -11.3383   -2.9491    0.8526 H   0  0  0  0  0  0  0  0  0  0  0  0
  -12.2700   -1.9773    2.9094 H   0  0  0  0  0  0  0  0  0  0  0  0
  -10.8491   -0.5649    4.3696 H   0  0  0  0  0  0  0  0  0  0  0  0
   -8.5255   -0.1360    3.7888 H   0  0  0  0  0  0  0  0  0  0  0  0
   -6.6295    1.5860    1.2353 H   0  0  0  0  0  0  0  0  0  0  0  0
   -5.5757    1.7785    2.6440 H   0  0  0  0  0  0  0  0  0  0  0  0
   -7.2730    1.3935    2.8626 H   0  0  0  0  0  0  0  0  0  0  0  0
   -4.8352   -0.3631    3.9960 H   0  0  0  0  0  0  0  0  0  0  0  0
   -6.5155   -0.7697    4.2778 H   0  0  0  0  0  0  0  0  0  0  0  0
   -5.4566   -1.9426    3.5032 H   0  0  0  0  0  0  0  0  0  0  0  0
  1  2  1  0
  2  3  1  0
  2  4  1  0
  4  5  2  0
  5  6  1  0
  6  7  2  0
  7  8  1  0
  8  9  1  0
  9 10  2  0
 10 11  1  0
 11 12  2  0
 12 13  1  0
  5 14  1  0
 14 15  1  0
 15 16  1  0
 16 17  1  0
 17 18  1  0
 18 19  1  0
 19 20  2  0
 19 21  2  0
 19 22  1  0
 14 23  2  0
 23 24  1  0
 24 25  2  0
 25 26  1  0
 26 27  2  0
 27 28  1  0
 28 29  2  0
 29 30  1  0
 30 31  2  0
 31 32  1  0
 32 33  1  0
 33 34  1  0
 34 35  1  0
 35 36  1  0
 36 37  1  0
 37 38  2  0
 37 39  2  0
 37 40  1  0
 32 41  1  0
 41 42  1  0
 42 43  2  0
 43 44  1  0
 44 45  2  0
 45 46  1  0
 46 47  2  0
 47 48  1  0
 48 49  2  0
 49 50  1  0
 50 51  1  0
 51 52  1  0
 51 53  1  0
 23  2  1  0
 51 31  1  0
  9  4  1  0
 50 41  2  0
 13  8  2  0
 49 44  1  0
  1 54  1  0
  1 55  1  0
  1 56  1  0
  3 57  1  0
  3 58  1  0
  3 59  1  0
  6 60  1  0
  7 61  1  0
 10 62  1  0
 11 63  1  0
 12 64  1  0
 13 65  1  0
 15 66  1  0
 15 67  1  0
 16 68  1  0
 16 69  1  0
 17 70  1  0
 17 71  1  0
 18 72  1  0
 18 73  1  0
 22 74  1  0
 24 75  1  0
 25 76  1  0
 26 77  1  0
 27 78  1  0
 28 79  1  0
 29 80  1  0
 30 81  1  0
 33 82  1  0
 33 83  1  0
 34 84  1  0
 34 85  1  0
 35 86  1  0
 35 87  1  0
 36 88  1  0
 36 89  1  0
 40 90  1  0
 42 91  1  0
 43 92  1  0
 45 93  1  0
 46 94  1  0
 47 95  1  0
 48 96  1  0
 52 97  1  0
 52 98  1  0
 52 99  1  0
 53100  1  0
 53101  1  0
 53102  1  0
M  CHG  1  14   1
M  END
$$$$
OCNT-2328519
     RDKit          3D

 36 35  0  0  0  0  0  0  0  0999 V2000
   -5.8930    2.9196   -0.8450 C   0  0  0  0  0  0  0  0  0  0  0  0
   -4.7344    2.1254   -1.4272 C   0  0  0  0  0  0  0  0  0  0  0  0
   -3.7452    1.7006   -0.3426 C   0  0  0  0  0  0  0  0  0  0  0  0
   -2.6085    0.8606   -0.9252 C   0  0  0  0  0  0  0  0  0  0  0  0
   -1.6046    0.4579    0.1528 C   0  0  0  0  0  0  0  0  0  0  0  0
   -0.5184   -0.4533   -0.4041 C   0  0  0  0  0  0  0  0  0  0  0  0
    0.3931   -0.7671    0.6589 O   0  0  0  0  0  0  0  0  0  0  0  0
    1.3827   -1.6351    0.3065 C   0  0  0  0  0  0  0  0  0  0  0  0
    1.5267   -2.1226   -0.8024 O   0  0  0  0  0  0  0  0  0  0  0  0
    2.2648   -1.9053    1.5027 C   0  0  0  0  0  0  0  0  0  0  0  0
    3.5011   -2.7190    1.1426 C   0  0  0  0  0  0  0  0  0  0  0  0
    4.5381   -1.9358    0.3555 C   0  0  0  0  0  0  0  0  0  0  0  0
    4.9620   -2.3508   -0.7261 O   0  0  0  0  0  0  0  0  0  0  0  0
    5.0785   -0.6498    0.9859 C   0  0  0  0  0  0  0  0  0  0  0  0
    6.2564   -0.1663    0.2512 N   0  0  0  0  0  0  0  0  0  0  0  0
   -5.5372    3.8297   -0.3509 H   0  0  0  0  0  0  0  0  0  0  0  0
   -6.4464    2.3227   -0.1124 H   0  0  0  0  0  0  0  0  0  0  0  0
   -6.5878    3.2129   -1.6388 H   0  0  0  0  0  0  0  0  0  0  0  0
   -5.1283    1.2407   -1.9416 H   0  0  0  0  0  0  0  0  0  0  0  0
   -4.2207    2.7358   -2.1795 H   0  0  0  0  0  0  0  0  0  0  0  0
   -4.2703    1.1216    0.4273 H   0  0  0  0  0  0  0  0  0  0  0  0
   -3.3341    2.5917    0.1484 H   0  0  0  0  0  0  0  0  0  0  0  0
   -2.0937    1.4268   -1.7110 H   0  0  0  0  0  0  0  0  0  0  0  0
   -3.0240   -0.0391   -1.3967 H   0  0  0  0  0  0  0  0  0  0  0  0
   -2.1162   -0.0524    0.9794 H   0  0  0  0  0  0  0  0  0  0  0  0
   -1.1443    1.3491    0.5930 H   0  0  0  0  0  0  0  0  0  0  0  0
   -0.9674   -1.3767   -0.7853 H   0  0  0  0  0  0  0  0  0  0  0  0
    0.0256    0.0525   -1.2101 H   0  0  0  0  0  0  0  0  0  0  0  0
    1.6660   -2.4711    2.2246 H   0  0  0  0  0  0  0  0  0  0  0  0
    2.5422   -0.9501    1.9592 H   0  0  0  0  0  0  0  0  0  0  0  0
    3.9925   -3.0713    2.0574 H   0  0  0  0  0  0  0  0  0  0  0  0
    3.2259   -3.6076    0.5625 H   0  0  0  0  0  0  0  0  0  0  0  0
    5.3620   -0.8530    2.0227 H   0  0  0  0  0  0  0  0  0  0  0  0
    4.3027    0.1194    0.9597 H   0  0  0  0  0  0  0  0  0  0  0  0
    6.9590   -0.9111    0.2479 H   0  0  0  0  0  0  0  0  0  0  0  0
    5.9953   -0.0988   -0.7394 H   0  0  0  0  0  0  0  0  0  0  0  0
  1  2  1  0
  2  3  1  0
  3  4  1  0
  4  5  1  0
  5  6  1  0
  6  7  1  0
  7  8  1  0
  8  9  2  0
  8 10  1  0
 10 11  1  0
 11 12  1  0
 12 13  2  0
 12 14  1  0
 14 15  1  0
  1 16  1  0
  1 17  1  0
  1 18  1  0
  2 19  1  0
  2 20  1  0
  3 21  1  0
  3 22  1  0
  4 23  1  0
  4 24  1  0
  5 25  1  0
  5 26  1  0
  6 27  1  0
  6 28  1  0
 10 29  1  0
 10 30  1  0
 11 31  1  0
 11 32  1  0
 14 33  1  0
 14 34  1  0
 15 35  1  0
 15 36  1  0
M  END
$$$$
OCNT-2328546
     RDKit          3D

 56 59  0  0  0  0  0  0  0  0999 V2000
    7.7182   -0.0161   -3.3383 C   0  0  0  0  0  0  0  0  0  0  0  0
    6.4188    0.1211   -2.7840 O   0  0  0  0  0  0  0  0  0  0  0  0
    6.3165    0.6699   -1.5288 C   0  0  0  0  0  0  0  0  0  0  0  0
    7.4058    1.1095   -0.7674 C   0  0  0  0  0  0  0  0  0  0  0  0
    7.2048    1.6524    0.5033 C   0  0  0  0  0  0  0  0  0  0  0  0
    5.9171    1.7648    1.0173 C   0  0  0  0  0  0  0  0  0  0  0  0
    4.8226    1.3308    0.2659 C   0  0  0  0  0  0  0  0  0  0  0  0
    5.0110    0.7747   -1.0043 C   0  0  0  0  0  0  0  0  0  0  0  0
    4.0029    0.3131   -1.8138 O   0  0  0  0  0  0  0  0  0  0  0  0
    2.6816    0.1833   -1.2884 C   0  0  0  0  0  0  0  0  0  0  0  0
    2.5458   -1.0708   -0.4097 C   0  0  0  0  0  0  0  0  0  0  0  0
    1.1768   -1.3632    0.0370 N   0  0  0  0  0  0  0  0  0  0  0  0
    0.6552   -0.3505    0.9676 C   0  0  0  0  0  0  0  0  0  0  0  0
   -0.6235   -0.8372    1.6735 C   0  0  0  0  0  0  0  0  0  0  0  0
   -0.3138   -2.0158    2.4372 O   0  0  0  0  0  0  0  0  0  0  0  0
   -1.7662   -1.1413    0.6981 C   0  0  0  0  0  0  0  0  0  0  0  0
   -2.9248   -1.4655    1.4942 O   0  0  0  0  0  0  0  0  0  0  0  0
   -3.9969   -1.7080    0.6611 C   0  0  0  0  0  0  0  0  0  0  0  0
   -4.1980   -3.0146    0.2013 C   0  0  0  0  0  0  0  0  0  0  0  0
   -5.2691   -3.3063   -0.6384 C   0  0  0  0  0  0  0  0  0  0  0  0
   -6.1680   -2.3095   -1.0303 C   0  0  0  0  0  0  0  0  0  0  0  0
   -5.9656   -1.0145   -0.5348 C   0  0  0  0  0  0  0  0  0  0  0  0
   -4.9090   -0.6857    0.3159 C   0  0  0  0  0  0  0  0  0  0  0  0
   -5.0374    0.7064    0.6345 C   0  0  0  0  0  0  0  0  0  0  0  0
   -4.3076    1.6028    1.4441 C   0  0  0  0  0  0  0  0  0  0  0  0
   -4.7122    2.9394    1.5353 C   0  0  0  0  0  0  0  0  0  0  0  0
   -5.8272    3.3917    0.8348 C   0  0  0  0  0  0  0  0  0  0  0  0
   -6.5719    2.5247    0.0295 C   0  0  0  0  0  0  0  0  0  0  0  0
   -6.1537    1.1908   -0.0476 C   0  0  0  0  0  0  0  0  0  0  0  0
   -6.6915    0.1343   -0.7419 N   0  0  0  0  0  0  0  0  0  0  0  0
    8.3402   -0.6826   -2.7317 H   0  0  0  0  0  0  0  0  0  0  0  0
    8.1961    0.9596   -3.4756 H   0  0  0  0  0  0  0  0  0  0  0  0
    7.6130   -0.4734   -4.3269 H   0  0  0  0  0  0  0  0  0  0  0  0
    8.4247    1.0412   -1.1335 H   0  0  0  0  0  0  0  0  0  0  0  0
    8.0559    1.9879    1.0909 H   0  0  0  0  0  0  0  0  0  0  0  0
    5.7621    2.1906    2.0060 H   0  0  0  0  0  0  0  0  0  0  0  0
    3.8381    1.4415    0.7045 H   0  0  0  0  0  0  0  0  0  0  0  0
    2.0227    0.0707   -2.1558 H   0  0  0  0  0  0  0  0  0  0  0  0
    2.3602    1.1026   -0.7884 H   0  0  0  0  0  0  0  0  0  0  0  0
    2.9008   -1.9305   -0.9920 H   0  0  0  0  0  0  0  0  0  0  0  0
    3.2173   -1.0175    0.4548 H   0  0  0  0  0  0  0  0  0  0  0  0
    1.1882   -2.2542    0.5463 H   0  0  0  0  0  0  0  0  0  0  0  0
    1.4088   -0.1424    1.7364 H   0  0  0  0  0  0  0  0  0  0  0  0
    0.4388    0.5793    0.4321 H   0  0  0  0  0  0  0  0  0  0  0  0
   -0.9479   -0.0783    2.3950 H   0  0  0  0  0  0  0  0  0  0  0  0
   -1.1741   -2.3560    2.7506 H   0  0  0  0  0  0  0  0  0  0  0  0
   -1.5117   -2.0039    0.0702 H   0  0  0  0  0  0  0  0  0  0  0  0
   -1.9691   -0.2658    0.0698 H   0  0  0  0  0  0  0  0  0  0  0  0
   -3.5120   -3.8029    0.4966 H   0  0  0  0  0  0  0  0  0  0  0  0
   -5.4092   -4.3241   -0.9955 H   0  0  0  0  0  0  0  0  0  0  0  0
   -7.0011   -2.5422   -1.6869 H   0  0  0  0  0  0  0  0  0  0  0  0
   -3.4426    1.2568    2.0016 H   0  0  0  0  0  0  0  0  0  0  0  0
   -4.1515    3.6278    2.1624 H   0  0  0  0  0  0  0  0  0  0  0  0
   -6.1290    4.4328    0.9190 H   0  0  0  0  0  0  0  0  0  0  0  0
   -7.4436    2.8791   -0.5100 H   0  0  0  0  0  0  0  0  0  0  0  0
   -7.5161    0.1934   -1.3216 H   0  0  0  0  0  0  0  0  0  0  0  0
  1  2  1  0
  2  3  1  0
  3  4  2  0
  4  5  1  0
  5  6  2  0
  6  7  1  0
  7  8  2  0
  8  9  1  0
  9 10  1  0
 10 11  1  0
 11 12  1  0
 12 13  1  0
 13 14  1  0
 14 15  1  0
 14 16  1  0
 16 17  1  0
 17 18  1  0
 18 19  1  0
 19 20  2  0
 20 21  1  0
 21 22  2  0
 22 23  1  0
 23 24  1  0
 24 25  2  0
 25 26  1  0
 26 27  2  0
 27 28  1  0
 28 29  2  0
 29 30  1  0
  8  3  1  0
 23 18  2  0
 29 24  1  0
 30 22  1  0
  1 31  1  0
  1 32  1  0
  1 33  1  0
  4 34  1  0
  5 35  1  0
  6 36  1  0
  7 37  1  0
 10 38  1  0
 10 39  1  0
 11 40  1  0
 11 41  1  0
 12 42  1  0
 13 43  1  0
 13 44  1  0
 14 45  1  0
 15 46  1  0
 16 47  1  0
 16 48  1  0
 19 49  1  0
 20 50  1  0
 21 51  1  0
 25 52  1  0
 26 53  1  0
 27 54  1  0
 28 55  1  0
 30 56  1  0
M  END
$$$$
OCNT-2328552
     RDKit          3D

 36 39  0  0  0  0  0  0  0  0999 V2000
    4.1632   -0.6135   -0.2546 C   0  0  0  0  0  0  0  0  0  0  0  0
    2.8940   -0.3334    0.3969 N   0  0  0  0  0  0  0  0  0  0  0  0
    2.2017    0.8429   -0.1577 C   0  0  0  0  0  0  0  0  0  0  0  0
    0.7140    0.4524   -0.2942 C   0  0  2  0  0  0  0  0  0  0  0  0
   -0.2862    1.5686   -0.0770 C   0  0  0  0  0  0  0  0  0  0  0  0
   -1.4660    1.4331    0.6752 C   0  0  0  0  0  0  0  0  0  0  0  0
   -2.3374    2.5205    0.8338 C   0  0  0  0  0  0  0  0  0  0  0  0
   -2.0789    3.7372    0.2086 C   0  0  0  0  0  0  0  0  0  0  0  0
   -0.9411    3.8760   -0.5758 C   0  0  0  0  0  0  0  0  0  0  0  0
   -0.0581    2.8034   -0.7195 C   0  0  0  0  0  0  0  0  0  0  0  0
   -1.8478    0.3075    1.3731 O   0  0  0  0  0  0  0  0  0  0  0  0
   -1.8597   -0.8856    0.6884 C   0  0  0  0  0  0  0  0  0  0  0  0
   -0.6595   -1.5268    0.3464 C   0  0  0  0  0  0  0  0  0  0  0  0
   -0.7241   -2.7968   -0.2406 C   0  0  0  0  0  0  0  0  0  0  0  0
   -1.9641   -3.3977   -0.4765 C   0  0  0  0  0  0  0  0  0  0  0  0
   -2.0281   -4.9563   -1.2051 Cl  0  0  0  0  0  0  0  0  0  0  0  0
   -3.1489   -2.7525   -0.1262 C   0  0  0  0  0  0  0  0  0  0  0  0
   -3.0962   -1.4941    0.4700 C   0  0  0  0  0  0  0  0  0  0  0  0
    0.6168   -0.7782    0.6178 C   0  0  1  0  0  0  0  0  0  0  0  0
    1.9550   -1.4578    0.3284 C   0  0  0  0  0  0  0  0  0  0  0  0
    4.6515   -1.4751    0.2136 H   0  0  0  0  0  0  0  0  0  0  0  0
    4.0438   -0.8250   -1.3232 H   0  0  0  0  0  0  0  0  0  0  0  0
    4.8442    0.2376   -0.1462 H   0  0  0  0  0  0  0  0  0  0  0  0
    2.5949    1.1443   -1.1367 H   0  0  0  0  0  0  0  0  0  0  0  0
    2.3419    1.6826    0.5327 H   0  0  0  0  0  0  0  0  0  0  0  0
    0.5574    0.1155   -1.3325 H   0  0  0  0  0  0  0  0  0  0  0  0
   -3.2289    2.4111    1.4465 H   0  0  0  0  0  0  0  0  0  0  0  0
   -2.7652    4.5705    0.3313 H   0  0  0  0  0  0  0  0  0  0  0  0
   -0.7363    4.8192   -1.0759 H   0  0  0  0  0  0  0  0  0  0  0  0
    0.8200    2.9440   -1.3470 H   0  0  0  0  0  0  0  0  0  0  0  0
    0.1781   -3.3322   -0.5208 H   0  0  0  0  0  0  0  0  0  0  0  0
   -4.1101   -3.2269   -0.3034 H   0  0  0  0  0  0  0  0  0  0  0  0
   -4.0113   -0.9914    0.7699 H   0  0  0  0  0  0  0  0  0  0  0  0
    0.6163   -0.4785    1.6777 H   0  0  0  0  0  0  0  0  0  0  0  0
    2.1904   -2.2273    1.0709 H   0  0  0  0  0  0  0  0  0  0  0  0
    1.9646   -1.9172   -0.6685 H   0  0  0  0  0  0  0  0  0  0  0  0
  1  2  1  0
  2  3  1  0
  3  4  1  0
  4  5  1  0
  5  6  1  0
  6  7  2  0
  7  8  1  0
  8  9  2  0
  9 10  1  0
  6 11  1  0
 11 12  1  0
 12 13  2  0
 13 14  1  0
 14 15  2  0
 15 16  1  0
 15 17  1  0
 17 18  2  0
 13 19  1  0
 19 20  1  0
 20  2  1  0
 19  4  1  0
 10  5  2  0
 18 12  1  0
  1 21  1  0
  1 22  1  0
  1 23  1  0
  3 24  1  0
  3 25  1  0
  4 26  1  6
  7 27  1  0
  8 28  1  0
  9 29  1  0
 10 30  1  0
 14 31  1  0
 17 32  1  0
 18 33  1  0
 19 34  1  1
 20 35  1  0
 20 36  1  0
M  END
$$$$
OCNT-2328553
     RDKit          3D

 79 80  0  0  0  0  0  0  0  0999 V2000
    5.5346    0.6802   -1.3136 C   0  0  0  0  0  0  0  0  0  0  0  0
    6.5208    0.3965   -0.2123 C   0  0  0  0  0  0  0  0  0  0  0  0
    6.4054    0.7810    1.0787 C   0  0  0  0  0  0  0  0  0  0  0  0
    5.2578    1.4903    1.7863 C   0  0  0  0  0  0  0  0  0  0  0  0
    3.9303    1.5768    1.0851 C   0  0  0  0  0  0  0  0  0  0  0  0
    2.9280    0.6739    1.0978 C   0  0  0  0  0  0  0  0  0  0  0  0
    2.9937   -0.6559    1.8001 C   0  0  0  0  0  0  0  0  0  0  0  0
    1.6185    0.9778    0.3933 C   0  0  0  0  0  0  0  0  0  0  0  0
    1.5071    0.2691   -0.9598 C   0  0  0  0  0  0  0  0  0  0  0  0
    0.3099    0.7385   -1.7952 C   0  0  0  0  0  0  0  0  0  0  0  0
   -1.0901    0.5655   -1.1597 C   0  0  2  0  0  0  0  0  0  0  0  0
   -1.3380   -0.8970   -0.7830 C   0  0  0  0  0  0  0  0  0  0  0  0
   -2.1494    1.0968   -2.1563 C   0  0  0  0  0  0  0  0  0  0  0  0
   -3.4335    1.6586   -1.5318 C   0  0  0  0  0  0  0  0  0  0  0  0
   -4.4043    0.6688   -0.8803 C   0  0  0  0  0  0  0  0  0  0  0  0
   -4.8681   -0.4994   -1.7690 C   0  0  2  0  0  0  0  0  0  0  0  0
   -5.6335   -0.0122   -3.0033 C   0  0  0  0  0  0  0  0  0  0  0  0
   -5.6747   -1.5593   -0.9820 C   0  0  0  0  0  0  0  0  0  0  0  0
   -6.9857   -1.0959   -0.3282 C   0  0  0  0  0  0  0  0  0  0  0  0
   -6.8137   -0.7031    1.1465 C   0  0  0  0  0  0  0  0  0  0  0  0
   -8.1157   -0.3237    1.8811 C   0  0  0  0  0  0  0  0  0  0  0  0
   -8.8328    0.8607    1.2307 C   0  0  0  0  0  0  0  0  0  0  0  0
   -9.0717   -1.5099    2.0231 C   0  0  0  0  0  0  0  0  0  0  0  0
    7.5327    0.5110    2.0370 C   0  0  0  0  0  0  0  0  0  0  0  0
    7.4644    0.8511    3.2139 O   0  0  0  0  0  0  0  0  0  0  0  0
    8.7540   -0.1446    1.5479 C   0  0  0  0  0  0  0  0  0  0  0  0
    9.8395   -0.3317    2.4164 C   0  0  0  0  0  0  0  0  0  0  0  0
   11.0074   -0.9462    1.9605 C   0  0  0  0  0  0  0  0  0  0  0  0
   11.0929   -1.3798    0.6399 C   0  0  0  0  0  0  0  0  0  0  0  0
   10.0128   -1.1968   -0.2238 C   0  0  0  0  0  0  0  0  0  0  0  0
    8.8419   -0.5735    0.2332 C   0  0  0  0  0  0  0  0  0  0  0  0
    7.7159   -0.3722   -0.6875 C   0  0  0  0  0  0  0  0  0  0  0  0
    7.7728   -0.8347   -1.8217 O   0  0  0  0  0  0  0  0  0  0  0  0
    6.0202    0.7341   -2.2956 H   0  0  0  0  0  0  0  0  0  0  0  0
    4.7767   -0.1086   -1.3582 H   0  0  0  0  0  0  0  0  0  0  0  0
    5.0552    1.6545   -1.1965 H   0  0  0  0  0  0  0  0  0  0  0  0
    5.0811    1.0239    2.7639 H   0  0  0  0  0  0  0  0  0  0  0  0
    5.5790    2.5163    2.0084 H   0  0  0  0  0  0  0  0  0  0  0  0
    3.7706    2.5147    0.5536 H   0  0  0  0  0  0  0  0  0  0  0  0
    2.2843   -0.6778    2.6334 H   0  0  0  0  0  0  0  0  0  0  0  0
    2.7427   -1.4672    1.1091 H   0  0  0  0  0  0  0  0  0  0  0  0
    3.9866   -0.8786    2.1996 H   0  0  0  0  0  0  0  0  0  0  0  0
    1.5188    2.0605    0.2401 H   0  0  0  0  0  0  0  0  0  0  0  0
    0.7886    0.6897    1.0503 H   0  0  0  0  0  0  0  0  0  0  0  0
    2.4128    0.4672   -1.5463 H   0  0  0  0  0  0  0  0  0  0  0  0
    1.4700   -0.8176   -0.8215 H   0  0  0  0  0  0  0  0  0  0  0  0
    0.3389    0.2127   -2.7571 H   0  0  0  0  0  0  0  0  0  0  0  0
    0.4596    1.8008   -2.0242 H   0  0  0  0  0  0  0  0  0  0  0  0
   -1.1339    1.1729   -0.2473 H   0  0  0  0  0  0  0  0  0  0  0  0
   -2.3163   -1.0410   -0.3236 H   0  0  0  0  0  0  0  0  0  0  0  0
   -1.2813   -1.5470   -1.6629 H   0  0  0  0  0  0  0  0  0  0  0  0
   -0.6057   -1.2520   -0.0522 H   0  0  0  0  0  0  0  0  0  0  0  0
   -1.7080    1.9343   -2.7139 H   0  0  0  0  0  0  0  0  0  0  0  0
   -2.3803    0.3382   -2.9119 H   0  0  0  0  0  0  0  0  0  0  0  0
   -3.9738    2.2082   -2.3136 H   0  0  0  0  0  0  0  0  0  0  0  0
   -3.1599    2.4129   -0.7824 H   0  0  0  0  0  0  0  0  0  0  0  0
   -5.2816    1.2462   -0.5622 H   0  0  0  0  0  0  0  0  0  0  0  0
   -3.9530    0.2830    0.0395 H   0  0  0  0  0  0  0  0  0  0  0  0
   -3.9813   -1.0269   -2.1397 H   0  0  0  0  0  0  0  0  0  0  0  0
   -6.0130   -0.8598   -3.5871 H   0  0  0  0  0  0  0  0  0  0  0  0
   -6.4833    0.6248   -2.7350 H   0  0  0  0  0  0  0  0  0  0  0  0
   -4.9803    0.5673   -3.6648 H   0  0  0  0  0  0  0  0  0  0  0  0
   -5.0221   -2.0169   -0.2275 H   0  0  0  0  0  0  0  0  0  0  0  0
   -5.9231   -2.3663   -1.6850 H   0  0  0  0  0  0  0  0  0  0  0  0
   -7.4309   -0.2752   -0.8952 H   0  0  0  0  0  0  0  0  0  0  0  0
   -7.6907   -1.9318   -0.3822 H   0  0  0  0  0  0  0  0  0  0  0  0
   -6.3391   -1.5334    1.6852 H   0  0  0  0  0  0  0  0  0  0  0  0
   -6.1241    0.1430    1.2261 H   0  0  0  0  0  0  0  0  0  0  0  0
   -7.8278   -0.0142    2.8958 H   0  0  0  0  0  0  0  0  0  0  0  0
   -8.1495    1.7071    1.0973 H   0  0  0  0  0  0  0  0  0  0  0  0
   -9.2483    0.5993    0.2516 H   0  0  0  0  0  0  0  0  0  0  0  0
   -9.6618    1.1995    1.8602 H   0  0  0  0  0  0  0  0  0  0  0  0
   -8.5645   -2.3711    2.4695 H   0  0  0  0  0  0  0  0  0  0  0  0
   -9.4862   -1.8184    1.0585 H   0  0  0  0  0  0  0  0  0  0  0  0
   -9.9137   -1.2456    2.6720 H   0  0  0  0  0  0  0  0  0  0  0  0
    9.7815    0.0055    3.4499 H   0  0  0  0  0  0  0  0  0  0  0  0
   11.8480   -1.0814    2.6351 H   0  0  0  0  0  0  0  0  0  0  0  0
   12.0012   -1.8579    0.2793 H   0  0  0  0  0  0  0  0  0  0  0  0
   10.0888   -1.5358   -1.2567 H   0  0  0  0  0  0  0  0  0  0  0  0
  1  2  1  0
  2  3  2  0
  3  4  1  0
  4  5  1  0
  5  6  2  0
  6  7  1  0
  6  8  1  0
  8  9  1  0
  9 10  1  0
 10 11  1  0
 11 12  1  0
 11 13  1  0
 13 14  1  0
 14 15  1  0
 15 16  1  0
 16 17  1  0
 16 18  1  0
 18 19  1  0
 19 20  1  0
 20 21  1  0
 21 22  1  0
 21 23  1  0
  3 24  1  0
 24 25  2  0
 24 26  1  0
 26 27  2  0
 27 28  1  0
 28 29  2  0
 29 30  1  0
 30 31  2  0
 31 32  1  0
 32 33  2  0
 32  2  1  0
 31 26  1  0
  1 34  1  0
  1 35  1  0
  1 36  1  0
  4 37  1  0
  4 38  1  0
  5 39  1  0
  7 40  1  0
  7 41  1  0
  7 42  1  0
  8 43  1  0
  8 44  1  0
  9 45  1  0
  9 46  1  0
 10 47  1  0
 10 48  1  0
 11 49  1  1
 12 50  1  0
 12 51  1  0
 12 52  1  0
 13 53  1  0
 13 54  1  0
 14 55  1  0
 14 56  1  0
 15 57  1  0
 15 58  1  0
 16 59  1  6
 17 60  1  0
 17 61  1  0
 17 62  1  0
 18 63  1  0
 18 64  1  0
 19 65  1  0
 19 66  1  0
 20 67  1  0
 20 68  1  0
 21 69  1  0
 22 70  1  0
 22 71  1  0
 22 72  1  0
 23 73  1  0
 23 74  1  0
 23 75  1  0
 27 76  1  0
 28 77  1  0
 29 78  1  0
 30 79  1  0
M  END
$$$$
OCNT-2328555
     RDKit          3D

 44 47  0  0  0  0  0  0  0  0999 V2000
   -1.4802    3.4896   -0.1980 C   0  0  0  0  0  0  0  0  0  0  0  0
   -0.4531    2.3615   -0.0578 C   0  0  2  0  0  0  0  0  0  0  0  0
    0.7210    2.6333   -1.0242 C   0  0  0  0  0  0  0  0  0  0  0  0
    1.6505    1.4357   -1.2448 C   0  0  0  0  0  0  0  0  0  0  0  0
    1.5007    0.4080   -0.1239 C   0  0  0  0  0  0  0  0  0  0  0  0
    2.5469   -0.7389   -0.1921 C   0  0  1  0  0  0  0  0  0  0  0  0
    3.9007   -0.2532    0.3475 C   0  0  0  0  0  0  0  0  0  0  0  0
    2.0186   -1.9868    0.5606 C   0  0  1  0  0  0  0  0  0  0  0  0
    3.0819   -2.7461    1.1061 O   0  0  0  0  0  0  0  0  0  0  0  0
    1.1741   -1.5858    1.6258 O   0  0  0  0  0  0  0  0  0  0  0  0
   -0.0716   -1.0298    1.1696 C   0  0  2  0  0  0  0  0  0  0  0  0
   -1.0065   -2.0879    1.0059 O   0  0  0  0  0  0  0  0  0  0  0  0
   -1.9666   -1.8495   -0.0180 C   0  0  0  0  0  0  0  0  0  0  0  0
   -2.7479   -3.1547   -0.1762 C   0  0  0  0  0  0  0  0  0  0  0  0
   -2.9357   -0.7149    0.3504 C   0  0  0  0  0  0  0  0  0  0  0  0
   -2.3045    0.6738    0.5356 C   0  0  0  0  0  0  0  0  0  0  0  0
   -1.0374    0.9452   -0.3034 C   0  0  2  0  0  0  0  0  0  0  0  0
    0.0613   -0.1601   -0.1099 C   0  0  1  0  0  0  0  0  0  0  0  0
   -0.0419   -1.0916   -1.2146 O   0  0  0  0  0  0  0  0  0  0  0  0
   -1.4298   -1.5488   -1.3192 O   0  0  0  0  0  0  0  0  0  0  0  0
   -2.2259    3.4516    0.6018 H   0  0  0  0  0  0  0  0  0  0  0  0
   -2.0016    3.4349   -1.1594 H   0  0  0  0  0  0  0  0  0  0  0  0
   -0.9925    4.4685   -0.1325 H   0  0  0  0  0  0  0  0  0  0  0  0
   -0.0727    2.4057    0.9718 H   0  0  0  0  0  0  0  0  0  0  0  0
    1.3079    3.4719   -0.6273 H   0  0  0  0  0  0  0  0  0  0  0  0
    0.3461    2.9640   -2.0013 H   0  0  0  0  0  0  0  0  0  0  0  0
    2.6809    1.7981   -1.3238 H   0  0  0  0  0  0  0  0  0  0  0  0
    1.4170    0.9694   -2.2104 H   0  0  0  0  0  0  0  0  0  0  0  0
    1.6650    0.9383    0.8266 H   0  0  0  0  0  0  0  0  0  0  0  0
    2.7150   -1.0314   -1.2373 H   0  0  0  0  0  0  0  0  0  0  0  0
    4.2439    0.6420   -0.1794 H   0  0  0  0  0  0  0  0  0  0  0  0
    3.8389   -0.0145    1.4147 H   0  0  0  0  0  0  0  0  0  0  0  0
    4.6741   -1.0168    0.2130 H   0  0  0  0  0  0  0  0  0  0  0  0
    1.4746   -2.6530   -0.1189 H   0  0  0  0  0  0  0  0  0  0  0  0
    2.6437   -3.5016    1.5320 H   0  0  0  0  0  0  0  0  0  0  0  0
   -0.4007   -0.4174    2.0139 H   0  0  0  0  0  0  0  0  0  0  0  0
   -3.5137   -3.0749   -0.9553 H   0  0  0  0  0  0  0  0  0  0  0  0
   -2.0730   -3.9673   -0.4705 H   0  0  0  0  0  0  0  0  0  0  0  0
   -3.2218   -3.4540    0.7649 H   0  0  0  0  0  0  0  0  0  0  0  0
   -3.6853   -0.6246   -0.4475 H   0  0  0  0  0  0  0  0  0  0  0  0
   -3.4763   -0.9637    1.2721 H   0  0  0  0  0  0  0  0  0  0  0  0
   -2.0863    0.8335    1.5984 H   0  0  0  0  0  0  0  0  0  0  0  0
   -3.0801    1.4095    0.2915 H   0  0  0  0  0  0  0  0  0  0  0  0
   -1.3577    0.9328   -1.3564 H   0  0  0  0  0  0  0  0  0  0  0  0
  1  2  1  0
  2  3  1  0
  3  4  1  0
  4  5  1  0
  5  6  1  0
  6  7  1  0
  6  8  1  0
  8  9  1  0
  8 10  1  0
 10 11  1  0
 11 12  1  0
 12 13  1  0
 13 14  1  0
 13 15  1  0
 15 16  1  0
 16 17  1  0
 17 18  1  0
 18 19  1  6
 19 20  1  0
 17  2  1  0
 18  5  1  0
 18 11  1  0
 20 13  1  0
  1 21  1  0
  1 22  1  0
  1 23  1  0
  2 24  1  1
  3 25  1  0
  3 26  1  0
  4 27  1  0
  4 28  1  0
  5 29  1  0
  6 30  1  6
  7 31  1  0
  7 32  1  0
  7 33  1  0
  8 34  1  6
  9 35  1  0
 11 36  1  1
 14 37  1  0
 14 38  1  0
 14 39  1  0
 15 40  1  0
 15 41  1  0
 16 42  1  0
 16 43  1  0
 17 44  1  6
M  END
$$$$
OCNT-2328559
     RDKit          3D

 48 50  0  0  0  0  0  0  0  0999 V2000
   -0.7454   -0.2189    1.6272 C   0  0  0  0  0  0  0  0  0  0  0  0
   -1.2995    0.4805    0.3805 C   0  0  1  0  0  0  0  0  0  0  0  0
   -0.3056    0.5415   -0.7119 N   0  0  0  0  0  0  0  0  0  0  0  0
    0.7997    1.4607   -0.4355 C   0  0  0  0  0  0  0  0  0  0  0  0
    1.7735    1.5192   -1.6197 C   0  0  0  0  0  0  0  0  0  0  0  0
    2.4383    0.1820   -1.9698 C   0  0  0  0  0  0  0  0  0  0  0  0
    3.3495   -0.3418   -0.8861 C   0  0  0  0  0  0  0  0  0  0  0  0
    4.6388    0.1835   -0.7213 C   0  0  0  0  0  0  0  0  0  0  0  0
    5.4849   -0.2859    0.2974 C   0  0  0  0  0  0  0  0  0  0  0  0
    6.8782    0.2707    0.4493 C   0  0  0  0  0  0  0  0  0  0  0  0
    7.7861   -0.3813   -0.3285 F   0  0  0  0  0  0  0  0  0  0  0  0
    7.3532    0.1910    1.7243 F   0  0  0  0  0  0  0  0  0  0  0  0
    6.9683    1.5865    0.1044 F   0  0  0  0  0  0  0  0  0  0  0  0
    5.0255   -1.3034    1.1466 C   0  0  0  0  0  0  0  0  0  0  0  0
    3.7429   -1.8283    0.9913 C   0  0  0  0  0  0  0  0  0  0  0  0
    2.9096   -1.3488   -0.0184 C   0  0  0  0  0  0  0  0  0  0  0  0
   -2.5688   -0.2501   -0.0757 C   0  0  0  0  0  0  0  0  0  0  0  0
   -2.4286   -1.4045   -0.8764 C   0  0  0  0  0  0  0  0  0  0  0  0
   -3.5369   -2.1122   -1.3249 C   0  0  0  0  0  0  0  0  0  0  0  0
   -4.8126   -1.6884   -0.9728 C   0  0  0  0  0  0  0  0  0  0  0  0
   -4.9989   -0.5635   -0.1578 C   0  0  0  0  0  0  0  0  0  0  0  0
   -6.3028   -0.1752    0.1929 C   0  0  0  0  0  0  0  0  0  0  0  0
   -6.5298    0.9258    1.0144 C   0  0  0  0  0  0  0  0  0  0  0  0
   -5.4523    1.6509    1.4997 C   0  0  0  0  0  0  0  0  0  0  0  0
   -4.1488    1.2787    1.1573 C   0  0  0  0  0  0  0  0  0  0  0  0
   -3.8784    0.1717    0.3148 C   0  0  0  0  0  0  0  0  0  0  0  0
    0.0841    0.3398    2.0713 H   0  0  0  0  0  0  0  0  0  0  0  0
   -1.5173   -0.3129    2.3999 H   0  0  0  0  0  0  0  0  0  0  0  0
   -0.3869   -1.2292    1.3981 H   0  0  0  0  0  0  0  0  0  0  0  0
   -1.5531    1.5148    0.6291 H   0  0  0  0  0  0  0  0  0  0  0  0
   -0.7923    0.8629   -1.5505 H   0  0  0  0  0  0  0  0  0  0  0  0
    1.3470    1.1664    0.4647 H   0  0  0  0  0  0  0  0  0  0  0  0
    0.4082    2.4707   -0.2635 H   0  0  0  0  0  0  0  0  0  0  0  0
    1.2374    1.8825   -2.5061 H   0  0  0  0  0  0  0  0  0  0  0  0
    2.5444    2.2681   -1.3984 H   0  0  0  0  0  0  0  0  0  0  0  0
    3.0320    0.3110   -2.8844 H   0  0  0  0  0  0  0  0  0  0  0  0
    1.6818   -0.5713   -2.2218 H   0  0  0  0  0  0  0  0  0  0  0  0
    4.9900    0.9672   -1.3922 H   0  0  0  0  0  0  0  0  0  0  0  0
    5.6670   -1.6900    1.9371 H   0  0  0  0  0  0  0  0  0  0  0  0
    3.3899   -2.6118    1.6574 H   0  0  0  0  0  0  0  0  0  0  0  0
    1.9069   -1.7601   -0.1232 H   0  0  0  0  0  0  0  0  0  0  0  0
   -1.4363   -1.7561   -1.1555 H   0  0  0  0  0  0  0  0  0  0  0  0
   -3.4057   -2.9934   -1.9467 H   0  0  0  0  0  0  0  0  0  0  0  0
   -5.6679   -2.2551   -1.3347 H   0  0  0  0  0  0  0  0  0  0  0  0
   -7.1604   -0.7369   -0.1722 H   0  0  0  0  0  0  0  0  0  0  0  0
   -7.5449    1.2103    1.2772 H   0  0  0  0  0  0  0  0  0  0  0  0
   -5.6195    2.5070    2.1482 H   0  0  0  0  0  0  0  0  0  0  0  0
   -3.3448    1.8758    1.5771 H   0  0  0  0  0  0  0  0  0  0  0  0
  1  2  1  0
  2  3  1  0
  3  4  1  0
  4  5  1  0
  5  6  1  0
  6  7  1  0
  7  8  1  0
  8  9  2  0
  9 10  1  0
 10 11  1  0
 10 12  1  0
 10 13  1  0
  9 14  1  0
 14 15  2  0
 15 16  1  0
  2 17  1  0
 17 18  2  0
 18 19  1  0
 19 20  2  0
 20 21  1  0
 21 22  2  0
 22 23  1  0
 23 24  2  0
 24 25  1  0
 25 26  2  0
 16  7  2  0
 26 17  1  0
 26 21  1  0
  1 27  1  0
  1 28  1  0
  1 29  1  0
  2 30  1  1
  3 31  1  0
  4 32  1  0
  4 33  1  0
  5 34  1  0
  5 35  1  0
  6 36  1  0
  6 37  1  0
  8 38  1  0
 14 39  1  0
 15 40  1  0
 16 41  1  0
 18 42  1  0
 19 43  1  0
 20 44  1  0
 22 45  1  0
 23 46  1  0
 24 47  1  0
 25 48  1  0
M  END
$$$$
OCNT-2328565
     RDKit          3D

 28 29  0  0  0  0  0  0  0  0999 V2000
    0.6089    1.7610    1.3841 O   0  0  0  0  0  0  0  0  0  0  0  0
    0.8740    0.6309    1.0051 C   0  0  0  0  0  0  0  0  0  0  0  0
    0.0918   -0.4656    1.1461 O   0  0  0  0  0  0  0  0  0  0  0  0
   -1.1841   -0.2463    1.7589 C   0  0  0  0  0  0  0  0  0  0  0  0
   -2.2405   -0.1571    0.6888 C   0  0  0  0  0  0  0  0  0  0  0  0
   -2.6162    1.0886    0.1672 C   0  0  0  0  0  0  0  0  0  0  0  0
   -3.5796    1.1729   -0.8389 C   0  0  0  0  0  0  0  0  0  0  0  0
   -4.1706    0.0137   -1.3381 C   0  0  0  0  0  0  0  0  0  0  0  0
   -3.7953   -1.2311   -0.8359 C   0  0  0  0  0  0  0  0  0  0  0  0
   -2.8314   -1.3176    0.1700 C   0  0  0  0  0  0  0  0  0  0  0  0
    2.1460    0.2766    0.3175 C   0  0  0  0  0  0  0  0  0  0  0  0
    3.1226    1.2728    0.1783 C   0  0  0  0  0  0  0  0  0  0  0  0
    4.3319    0.9903   -0.4600 C   0  0  0  0  0  0  0  0  0  0  0  0
    4.5719   -0.2872   -0.9641 C   0  0  0  0  0  0  0  0  0  0  0  0
    3.6049   -1.2833   -0.8329 C   0  0  0  0  0  0  0  0  0  0  0  0
    2.3936   -1.0047   -0.1946 C   0  0  0  0  0  0  0  0  0  0  0  0
   -1.1997    0.6350    2.4117 H   0  0  0  0  0  0  0  0  0  0  0  0
   -1.3872   -1.1048    2.4097 H   0  0  0  0  0  0  0  0  0  0  0  0
   -2.1527    2.0006    0.5403 H   0  0  0  0  0  0  0  0  0  0  0  0
   -3.8647    2.1437   -1.2357 H   0  0  0  0  0  0  0  0  0  0  0  0
   -4.9195    0.0805   -2.1228 H   0  0  0  0  0  0  0  0  0  0  0  0
   -4.2508   -2.1354   -1.2309 H   0  0  0  0  0  0  0  0  0  0  0  0
   -2.5404   -2.2960    0.5455 H   0  0  0  0  0  0  0  0  0  0  0  0
    2.9443    2.2739    0.5667 H   0  0  0  0  0  0  0  0  0  0  0  0
    5.0850    1.7675   -0.5644 H   0  0  0  0  0  0  0  0  0  0  0  0
    5.5134   -0.5062   -1.4622 H   0  0  0  0  0  0  0  0  0  0  0  0
    3.7927   -2.2780   -1.2299 H   0  0  0  0  0  0  0  0  0  0  0  0
    1.6516   -1.7945   -0.1085 H   0  0  0  0  0  0  0  0  0  0  0  0
  1  2  2  0
  2  3  1  0
  3  4  1  0
  4  5  1  0
  5  6  2  0
  6  7  1  0
  7  8  2  0
  8  9  1  0
  9 10  2  0
  2 11  1  0
 11 12  2  0
 12 13  1  0
 13 14  2  0
 14 15  1  0
 15 16  2  0
 10  5  1  0
 16 11  1  0
  4 17  1  0
  4 18  1  0
  6 19  1  0
  7 20  1  0
  8 21  1  0
  9 22  1  0
 10 23  1  0
 12 24  1  0
 13 25  1  0
 14 26  1  0
 15 27  1  0
 16 28  1  0
M  END
$$$$
OCNT-2328583
     RDKit          3D

 30 30  0  0  0  0  0  0  0  0999 V2000
   -0.4773   -1.1811    2.2340 C   0  0  0  0  0  0  0  0  0  0  0  0
   -1.4179   -0.6887    1.1718 C   0  0  0  0  0  0  0  0  0  0  0  0
   -2.7306   -1.1762    1.1284 C   0  0  0  0  0  0  0  0  0  0  0  0
   -3.6212   -0.7276    0.1537 C   0  0  0  0  0  0  0  0  0  0  0  0
   -3.2141    0.2215   -0.7835 C   0  0  0  0  0  0  0  0  0  0  0  0
   -1.9077    0.7277   -0.7639 C   0  0  0  0  0  0  0  0  0  0  0  0
   -1.4968    1.7523   -1.7816 C   0  0  0  0  0  0  0  0  0  0  0  0
   -1.0057    0.2279    0.1898 C   0  0  0  0  0  0  0  0  0  0  0  0
    0.2834    0.7006    0.2124 O   0  0  0  0  0  0  0  0  0  0  0  0
    1.1326   -0.1212   -0.6057 C   0  0  0  0  0  0  0  0  0  0  0  0
    2.5889    0.3580   -0.4469 C   0  0  0  0  0  0  0  0  0  0  0  0
    3.0906    0.1427    0.9815 C   0  0  0  0  0  0  0  0  0  0  0  0
    3.4843   -0.3371   -1.3812 N   0  0  0  0  0  0  0  0  0  0  0  0
    0.1688   -1.9674    1.8325 H   0  0  0  0  0  0  0  0  0  0  0  0
    0.1423   -0.3639    2.6169 H   0  0  0  0  0  0  0  0  0  0  0  0
   -1.0269   -1.5905    3.0884 H   0  0  0  0  0  0  0  0  0  0  0  0
   -3.0700   -1.9060    1.8600 H   0  0  0  0  0  0  0  0  0  0  0  0
   -4.6382   -1.1108    0.1310 H   0  0  0  0  0  0  0  0  0  0  0  0
   -3.9269    0.5701   -1.5275 H   0  0  0  0  0  0  0  0  0  0  0  0
   -1.0318    1.2627   -2.6425 H   0  0  0  0  0  0  0  0  0  0  0  0
   -2.3623    2.3239   -2.1337 H   0  0  0  0  0  0  0  0  0  0  0  0
   -0.7931    2.4739   -1.3543 H   0  0  0  0  0  0  0  0  0  0  0  0
    0.8307   -0.0225   -1.6559 H   0  0  0  0  0  0  0  0  0  0  0  0
    1.0515   -1.1779   -0.3192 H   0  0  0  0  0  0  0  0  0  0  0  0
    2.6306    1.4338   -0.6575 H   0  0  0  0  0  0  0  0  0  0  0  0
    2.4797    0.6987    1.7003 H   0  0  0  0  0  0  0  0  0  0  0  0
    3.0602   -0.9164    1.2611 H   0  0  0  0  0  0  0  0  0  0  0  0
    4.1234    0.4921    1.0923 H   0  0  0  0  0  0  0  0  0  0  0  0
    3.2186   -0.1108   -2.3393 H   0  0  0  0  0  0  0  0  0  0  0  0
    4.4351    0.0120   -1.2616 H   0  0  0  0  0  0  0  0  0  0  0  0
  1  2  1  0
  2  3  1  0
  3  4  2  0
  4  5  1  0
  5  6  2  0
  6  7  1  0
  6  8  1  0
  8  9  1  0
  9 10  1  0
 10 11  1  0
 11 12  1  0
 11 13  1  0
  8  2  2  0
  1 14  1  0
  1 15  1  0
  1 16  1  0
  3 17  1  0
  4 18  1  0
  5 19  1  0
  7 20  1  0
  7 21  1  0
  7 22  1  0
 10 23  1  0
 10 24  1  0
 11 25  1  0
 12 26  1  0
 12 27  1  0
 12 28  1  0
 13 29  1  0
 13 30  1  0
M  END
$$$$
OCNT-2328589
     RDKit          3D

 50 53  0  0  0  0  0  0  0  0999 V2000
    3.6865   -3.6488    2.1062 C   0  0  0  0  0  0  0  0  0  0  0  0
    2.3629   -2.9044    2.1041 C   0  0  0  0  0  0  0  0  0  0  0  0
    2.2230   -2.1395    0.9108 O   0  0  0  0  0  0  0  0  0  0  0  0
    2.6047   -0.8250    0.8947 C   0  0  0  0  0  0  0  0  0  0  0  0
    2.2108   -0.0611   -0.2215 C   0  0  0  0  0  0  0  0  0  0  0  0
    1.4008   -0.7056   -1.2821 C   0  0  0  0  0  0  0  0  0  0  0  0
    1.8553   -0.8649   -2.4068 O   0  0  0  0  0  0  0  0  0  0  0  0
    0.1232   -1.0353   -0.9010 N   0  0  0  0  0  0  0  0  0  0  0  0
   -0.9304   -1.3813   -1.8941 C   0  0  2  0  0  0  0  0  0  0  0  0
   -1.6923   -0.1700   -2.5110 C   0  0  0  0  0  0  0  0  0  0  0  0
   -1.4002    0.9044   -2.9866 O   0  0  0  0  0  0  0  0  0  0  0  0
   -2.8952   -0.7169   -2.1791 N   0  0  0  0  0  0  0  0  0  0  0  0
   -2.3227   -1.7448   -1.3067 C   0  0  2  0  0  0  0  0  0  0  0  0
   -2.6160   -1.1573    0.4252 S   0  0  0  0  0  0  0  0  0  0  0  0
   -3.7401    0.2338   -0.1113 C   0  0  0  0  0  0  0  0  0  0  0  0
   -2.9678    1.5449    0.1292 C   0  0  0  0  0  0  0  0  0  0  0  0
   -4.9680    0.2295    0.8101 C   0  0  0  0  0  0  0  0  0  0  0  0
   -4.0307    0.0369   -1.6212 C   0  0  2  0  0  0  0  0  0  0  0  0
   -5.4029   -0.6594   -1.8518 C   0  0  0  0  0  0  0  0  0  0  0  0
   -5.4043   -1.9245   -1.7901 O   0  0  0  0  0  0  0  0  0  0  0  0
   -6.3704    0.1318   -2.0559 O   0  0  0  0  0  0  0  0  0  0  0  0
    2.5473    1.3149   -0.3523 C   0  0  0  0  0  0  0  0  0  0  0  0
    3.3190    1.9083    0.6732 C   0  0  0  0  0  0  0  0  0  0  0  0
    3.6727    3.2664    0.5902 C   0  0  0  0  0  0  0  0  0  0  0  0
    3.2668    4.0500   -0.4893 C   0  0  0  0  0  0  0  0  0  0  0  0
    2.4995    3.4860   -1.5000 C   0  0  0  0  0  0  0  0  0  0  0  0
    2.1440    2.1374   -1.4331 C   0  0  0  0  0  0  0  0  0  0  0  0
    3.7223    1.1366    1.7729 C   0  0  0  0  0  0  0  0  0  0  0  0
    3.3700   -0.2123    1.8841 C   0  0  0  0  0  0  0  0  0  0  0  0
    3.7663   -4.2926    2.9891 H   0  0  0  0  0  0  0  0  0  0  0  0
    3.7766   -4.2717    1.2098 H   0  0  0  0  0  0  0  0  0  0  0  0
    4.5364   -2.9606    2.0991 H   0  0  0  0  0  0  0  0  0  0  0  0
    2.2174   -2.3076    3.0119 H   0  0  0  0  0  0  0  0  0  0  0  0
    1.5530   -3.6424    2.0961 H   0  0  0  0  0  0  0  0  0  0  0  0
   -0.1774   -0.7878    0.0380 H   0  0  0  0  0  0  0  0  0  0  0  0
   -0.5687   -2.0914   -2.6466 H   0  0  0  0  0  0  0  0  0  0  0  0
   -2.6786   -2.7561   -1.5224 H   0  0  0  0  0  0  0  0  0  0  0  0
   -2.0282    1.5928   -0.4301 H   0  0  0  0  0  0  0  0  0  0  0  0
   -2.7251    1.6833    1.1904 H   0  0  0  0  0  0  0  0  0  0  0  0
   -3.5726    2.4067   -0.1775 H   0  0  0  0  0  0  0  0  0  0  0  0
   -5.5058   -0.7250    0.7898 H   0  0  0  0  0  0  0  0  0  0  0  0
   -4.6880    0.4177    1.8538 H   0  0  0  0  0  0  0  0  0  0  0  0
   -5.6723    1.0188    0.5225 H   0  0  0  0  0  0  0  0  0  0  0  0
   -4.0620    1.0075   -2.1345 H   0  0  0  0  0  0  0  0  0  0  0  0
    4.2672    3.7294    1.3744 H   0  0  0  0  0  0  0  0  0  0  0  0
    3.5442    5.0994   -0.5386 H   0  0  0  0  0  0  0  0  0  0  0  0
    2.1691    4.0873   -2.3436 H   0  0  0  0  0  0  0  0  0  0  0  0
    1.5365    1.7313   -2.2435 H   0  0  0  0  0  0  0  0  0  0  0  0
    4.3201    1.5849    2.5646 H   0  0  0  0  0  0  0  0  0  0  0  0
    3.7241   -0.7540    2.7541 H   0  0  0  0  0  0  0  0  0  0  0  0
  1  2  1  0
  2  3  1  0
  3  4  1  0
  4  5  2  0
  5  6  1  0
  6  7  2  0
  6  8  1  0
  8  9  1  0
  9 10  1  0
 10 11  2  0
 10 12  1  0
 12 13  1  0
 13 14  1  0
 14 15  1  0
 15 16  1  0
 15 17  1  0
 15 18  1  0
 18 19  1  0
 19 20  2  0
 19 21  1  0
  5 22  1  0
 22 23  1  0
 23 24  2  0
 24 25  1  0
 25 26  2  0
 26 27  1  0
 23 28  1  0
 28 29  2  0
 29  4  1  0
 13  9  1  0
 27 22  2  0
 18 12  1  0
  1 30  1  0
  1 31  1  0
  1 32  1  0
  2 33  1  0
  2 34  1  0
  8 35  1  0
  9 36  1  6
 13 37  1  1
 16 38  1  0
 16 39  1  0
 16 40  1  0
 17 41  1  0
 17 42  1  0
 17 43  1  0
 18 44  1  6
 24 45  1  0
 25 46  1  0
 26 47  1  0
 27 48  1  0
 28 49  1  0
 29 50  1  0
M  CHG  1  21  -1
M  END
$$$$
OCNT-2328601
     RDKit          3D

 46 49  0  0  0  0  0  0  0  0999 V2000
   -5.7964    0.5413    2.7804 C   0  0  0  0  0  0  0  0  0  0  0  0
   -4.9568    0.4676    1.6114 N   0  0  0  0  0  0  0  0  0  0  0  0
   -5.4276    0.8017    0.3636 C   0  0  0  0  0  0  0  0  0  0  0  0
   -6.6011    1.0683    0.1303 O   0  0  0  0  0  0  0  0  0  0  0  0
   -4.4456    0.7639   -0.7536 C   0  0  0  0  0  0  0  0  0  0  0  0
   -4.9042    0.1670   -1.9404 C   0  0  0  0  0  0  0  0  0  0  0  0
   -4.0808    0.0739   -3.0602 C   0  0  0  0  0  0  0  0  0  0  0  0
   -2.7958    0.5975   -3.0123 C   0  0  0  0  0  0  0  0  0  0  0  0
   -2.3351    1.2080   -1.8444 C   0  0  0  0  0  0  0  0  0  0  0  0
   -3.1427    1.2893   -0.6950 C   0  0  0  0  0  0  0  0  0  0  0  0
   -2.4861    2.1441    0.7367 S   0  0  0  0  0  0  0  0  0  0  0  0
   -0.9211    1.3252    1.0125 C   0  0  0  0  0  0  0  0  0  0  0  0
   -0.8214   -0.0713    1.0694 C   0  0  0  0  0  0  0  0  0  0  0  0
    0.4112   -0.7020    1.2877 C   0  0  0  0  0  0  0  0  0  0  0  0
    1.5593    0.0893    1.4683 C   0  0  0  0  0  0  0  0  0  0  0  0
    1.4317    1.4727    1.4311 C   0  0  0  0  0  0  0  0  0  0  0  0
    0.2146    2.1255    1.2079 C   0  0  0  0  0  0  0  0  0  0  0  0
    2.6904    1.9560    1.6583 N   0  0  0  0  0  0  0  0  0  0  0  0
    3.6203    1.0055    1.8412 N   0  0  0  0  0  0  0  0  0  0  0  0
    2.9423   -0.1428    1.7148 C   0  0  0  0  0  0  0  0  0  0  0  0
    3.5274   -1.4326    1.8877 C   0  0  0  0  0  0  0  0  0  0  0  0
    4.3095   -2.1141    1.0349 C   0  0  0  0  0  0  0  0  0  0  0  0
    4.7685   -1.7489   -0.3075 C   0  0  0  0  0  0  0  0  0  0  0  0
    5.2588   -0.4935   -0.6457 C   0  0  0  0  0  0  0  0  0  0  0  0
    5.7139   -0.2724   -1.9442 C   0  0  0  0  0  0  0  0  0  0  0  0
    5.6888   -1.3128   -2.8617 C   0  0  0  0  0  0  0  0  0  0  0  0
    5.2105   -2.5385   -2.4377 C   0  0  0  0  0  0  0  0  0  0  0  0
    4.7559   -2.7802   -1.1879 N   0  0  0  0  0  0  0  0  0  0  0  0
   -5.4669   -0.2211    3.4899 H   0  0  0  0  0  0  0  0  0  0  0  0
   -6.8454    0.3781    2.5226 H   0  0  0  0  0  0  0  0  0  0  0  0
   -5.6793    1.5302    3.2280 H   0  0  0  0  0  0  0  0  0  0  0  0
   -3.9567    0.3844    1.7452 H   0  0  0  0  0  0  0  0  0  0  0  0
   -5.9148   -0.2290   -1.9907 H   0  0  0  0  0  0  0  0  0  0  0  0
   -4.4493   -0.3937   -3.9692 H   0  0  0  0  0  0  0  0  0  0  0  0
   -2.1542    0.5488   -3.8894 H   0  0  0  0  0  0  0  0  0  0  0  0
   -1.3329    1.6285   -1.8458 H   0  0  0  0  0  0  0  0  0  0  0  0
   -1.7008   -0.6970    0.9436 H   0  0  0  0  0  0  0  0  0  0  0  0
    0.4737   -1.7859    1.3095 H   0  0  0  0  0  0  0  0  0  0  0  0
    0.1550    3.2088    1.1963 H   0  0  0  0  0  0  0  0  0  0  0  0
    2.9803    2.9262    1.7147 H   0  0  0  0  0  0  0  0  0  0  0  0
    3.2687   -1.9283    2.8200 H   0  0  0  0  0  0  0  0  0  0  0  0
    4.6139   -3.1190    1.3190 H   0  0  0  0  0  0  0  0  0  0  0  0
    5.3022    0.3102    0.0778 H   0  0  0  0  0  0  0  0  0  0  0  0
    6.0955    0.7042   -2.2299 H   0  0  0  0  0  0  0  0  0  0  0  0
    6.0426   -1.1739   -3.8766 H   0  0  0  0  0  0  0  0  0  0  0  0
    5.1804   -3.3901   -3.1104 H   0  0  0  0  0  0  0  0  0  0  0  0
  1  2  1  0
  2  3  1  0
  3  4  2  0
  3  5  1  0
  5  6  2  0
  6  7  1  0
  7  8  2  0
  8  9  1  0
  9 10  2  0
 10 11  1  0
 11 12  1  0
 12 13  2  0
 13 14  1  0
 14 15  2  0
 15 16  1  0
 16 17  2  0
 16 18  1  0
 18 19  1  0
 19 20  2  0
 20 21  1  0
 21 22  2  3
 22 23  1  0
 23 24  2  0
 24 25  1  0
 25 26  2  0
 26 27  1  0
 27 28  2  0
 10  5  1  0
 17 12  1  0
 28 23  1  0
 20 15  1  0
  1 29  1  0
  1 30  1  0
  1 31  1  0
  2 32  1  0
  6 33  1  0
  7 34  1  0
  8 35  1  0
  9 36  1  0
 13 37  1  0
 14 38  1  0
 17 39  1  0
 18 40  1  0
 21 41  1  0
 22 42  1  0
 24 43  1  0
 25 44  1  0
 26 45  1  0
 27 46  1  0
M  END
$$$$
OCNT-2328604
     RDKit          3D

 36 36  0  0  0  0  0  0  0  0999 V2000
    6.4066    0.5057   -0.1565 C   0  0  0  0  0  0  0  0  0  0  0  0
    5.9641   -0.8790   -0.5944 C   0  0  0  0  0  0  0  0  0  0  0  0
    4.5435   -0.9711   -0.6701 O   0  0  0  0  0  0  0  0  0  0  0  0
    3.9225   -1.2020    0.5986 C   0  0  0  0  0  0  0  0  0  0  0  0
    2.4104   -1.2904    0.4101 C   0  0  0  0  0  0  0  0  0  0  0  0
    1.9031    0.0178    0.0982 O   0  0  0  0  0  0  0  0  0  0  0  0
    0.5587    0.0569   -0.0856 C   0  0  0  0  0  0  0  0  0  0  0  0
   -0.2071   -0.8824    0.0304 O   0  0  0  0  0  0  0  0  0  0  0  0
    0.2084    1.4487   -0.4524 C   0  0  0  0  0  0  0  0  0  0  0  0
   -1.0272    1.9657   -0.5368 C   0  0  0  0  0  0  0  0  0  0  0  0
   -2.2921    1.2884   -0.2461 C   0  0  0  0  0  0  0  0  0  0  0  0
   -3.2082    1.0643   -1.2783 C   0  0  0  0  0  0  0  0  0  0  0  0
   -4.4388    0.4489   -1.0172 C   0  0  0  0  0  0  0  0  0  0  0  0
   -4.7659    0.0581    0.2814 C   0  0  0  0  0  0  0  0  0  0  0  0
   -5.9293   -0.5462    0.6714 O   0  0  0  0  0  0  0  0  0  0  0  0
   -6.8572   -0.8730   -0.3550 C   0  0  0  0  0  0  0  0  0  0  0  0
   -3.8537    0.2907    1.3132 C   0  0  0  0  0  0  0  0  0  0  0  0
   -2.6243    0.9032    1.0550 C   0  0  0  0  0  0  0  0  0  0  0  0
    7.4949    0.5985   -0.2146 H   0  0  0  0  0  0  0  0  0  0  0  0
    6.1006    0.7153    0.8727 H   0  0  0  0  0  0  0  0  0  0  0  0
    5.9513    1.2742   -0.7897 H   0  0  0  0  0  0  0  0  0  0  0  0
    6.3488   -1.0700   -1.6016 H   0  0  0  0  0  0  0  0  0  0  0  0
    6.3702   -1.6553    0.0636 H   0  0  0  0  0  0  0  0  0  0  0  0
    4.2948   -2.1466    1.0094 H   0  0  0  0  0  0  0  0  0  0  0  0
    4.1639   -0.3821    1.2821 H   0  0  0  0  0  0  0  0  0  0  0  0
    1.9478   -1.6413    1.3393 H   0  0  0  0  0  0  0  0  0  0  0  0
    2.1723   -1.9727   -0.4140 H   0  0  0  0  0  0  0  0  0  0  0  0
    1.0570    2.0836   -0.6889 H   0  0  0  0  0  0  0  0  0  0  0  0
   -1.1387    3.0007   -0.8536 H   0  0  0  0  0  0  0  0  0  0  0  0
   -2.9699    1.3590   -2.2975 H   0  0  0  0  0  0  0  0  0  0  0  0
   -5.1149    0.2906   -1.8501 H   0  0  0  0  0  0  0  0  0  0  0  0
   -6.4180   -1.5659   -1.0804 H   0  0  0  0  0  0  0  0  0  0  0  0
   -7.2339    0.0296   -0.8473 H   0  0  0  0  0  0  0  0  0  0  0  0
   -7.7088   -1.3767    0.1124 H   0  0  0  0  0  0  0  0  0  0  0  0
   -4.0993   -0.0132    2.3275 H   0  0  0  0  0  0  0  0  0  0  0  0
   -1.9316    1.0679    1.8758 H   0  0  0  0  0  0  0  0  0  0  0  0
  1  2  1  0
  2  3  1  0
  3  4  1  0
  4  5  1  0
  5  6  1  0
  6  7  1  0
  7  8  2  0
  7  9  1  0
  9 10  2  3
 10 11  1  0
 11 12  1  0
 12 13  2  0
 13 14  1  0
 14 15  1  0
 15 16  1  0
 14 17  2  0
 17 18  1  0
 18 11  2  0
  1 19  1  0
  1 20  1  0
  1 21  1  0
  2 22  1  0
  2 23  1  0
  4 24  1  0
  4 25  1  0
  5 26  1  0
  5 27  1  0
  9 28  1  0
 10 29  1  0
 12 30  1  0
 13 31  1  0
 16 32  1  0
 16 33  1  0
 16 34  1  0
 17 35  1  0
 18 36  1  0
M  END
$$$$
OCNT-2328617
     RDKit          3D

 31 32  0  0  0  0  0  0  0  0999 V2000
   -3.7520    0.1243    0.9566 C   0  0  0  0  0  0  0  0  0  0  0  0
   -2.4869   -0.3679    0.3040 C   0  0  0  0  0  0  0  0  0  0  0  0
   -1.3541    0.4658    0.1232 C   0  0  0  0  0  0  0  0  0  0  0  0
   -1.3775    1.9041    0.5828 C   0  0  0  0  0  0  0  0  0  0  0  0
   -0.1890   -0.0616   -0.5007 C   0  0  0  0  0  0  0  0  0  0  0  0
    1.0631    0.7847   -0.7423 C   0  0  2  0  0  0  0  0  0  0  0  0
    1.4056    0.9129   -2.2278 C   0  0  0  0  0  0  0  0  0  0  0  0
    2.1521    0.1576    0.0852 C   0  0  0  0  0  0  0  0  0  0  0  0
    2.3563    0.2454    1.4495 C   0  0  0  0  0  0  0  0  0  0  0  0
    3.4716   -0.5023    1.7011 N   0  0  0  0  0  0  0  0  0  0  0  0
    3.9144   -0.9962    0.5088 C   0  0  0  0  0  0  0  0  0  0  0  0
    3.1473   -0.6134   -0.4847 N   0  0  0  0  0  0  0  0  0  0  0  0
   -0.1980   -1.4063   -0.9277 C   0  0  0  0  0  0  0  0  0  0  0  0
   -1.3127   -2.2168   -0.7463 C   0  0  0  0  0  0  0  0  0  0  0  0
   -2.4483   -1.7006   -0.1354 C   0  0  0  0  0  0  0  0  0  0  0  0
   -4.1802    0.9511    0.3809 H   0  0  0  0  0  0  0  0  0  0  0  0
   -4.5124   -0.6625    1.0098 H   0  0  0  0  0  0  0  0  0  0  0  0
   -3.5496    0.4493    1.9821 H   0  0  0  0  0  0  0  0  0  0  0  0
   -1.2261    2.5732   -0.2707 H   0  0  0  0  0  0  0  0  0  0  0  0
   -0.5950    2.0730    1.3298 H   0  0  0  0  0  0  0  0  0  0  0  0
   -2.3218    2.1972    1.0470 H   0  0  0  0  0  0  0  0  0  0  0  0
    0.9277    1.8042   -0.3676 H   0  0  0  0  0  0  0  0  0  0  0  0
    0.5757    1.3699   -2.7781 H   0  0  0  0  0  0  0  0  0  0  0  0
    1.6216   -0.0534   -2.6968 H   0  0  0  0  0  0  0  0  0  0  0  0
    2.2903    1.5449   -2.3653 H   0  0  0  0  0  0  0  0  0  0  0  0
    1.8071    0.7470    2.2333 H   0  0  0  0  0  0  0  0  0  0  0  0
    3.8951   -0.6657    2.6037 H   0  0  0  0  0  0  0  0  0  0  0  0
    4.7921   -1.6231    0.4274 H   0  0  0  0  0  0  0  0  0  0  0  0
    0.6863   -1.8342   -1.3992 H   0  0  0  0  0  0  0  0  0  0  0  0
   -1.2922   -3.2504   -1.0799 H   0  0  0  0  0  0  0  0  0  0  0  0
   -3.3108   -2.3500   -0.0024 H   0  0  0  0  0  0  0  0  0  0  0  0
  1  2  1  0
  2  3  2  0
  3  4  1  0
  3  5  1  0
  5  6  1  0
  6  7  1  0
  6  8  1  0
  8  9  2  0
  9 10  1  0
 10 11  1  0
 11 12  2  0
  5 13  2  0
 13 14  1  0
 14 15  2  0
 15  2  1  0
 12  8  1  0
  1 16  1  0
  1 17  1  0
  1 18  1  0
  4 19  1  0
  4 20  1  0
  4 21  1  0
  6 22  1  1
  7 23  1  0
  7 24  1  0
  7 25  1  0
  9 26  1  0
 10 27  1  0
 11 28  1  0
 13 29  1  0
 14 30  1  0
 15 31  1  0
M  END
$$$$
OCNT-2328630
     RDKit          3D

 62 61  0  0  0  0  0  0  0  0999 V2000
    7.2259    0.9295   -1.2602 C   0  0  0  0  0  0  0  0  0  0  0  0
    6.9890   -0.5240   -0.8767 C   0  0  0  0  0  0  0  0  0  0  0  0
    7.1813   -0.8009    0.6166 C   0  0  0  0  0  0  0  0  0  0  0  0
    6.1684   -0.1355    1.5569 C   0  0  0  0  0  0  0  0  0  0  0  0
    4.9573   -1.0054    1.9145 C   0  0  0  0  0  0  0  0  0  0  0  0
    3.9698   -1.2993    0.7839 C   0  0  0  0  0  0  0  0  0  0  0  0
    3.3336   -0.0713    0.1245 C   0  0  0  0  0  0  0  0  0  0  0  0
    2.5679    0.8631    1.0667 C   0  0  0  0  0  0  0  0  0  0  0  0
    1.4247    0.2175    1.8565 C   0  0  0  0  0  0  0  0  0  0  0  0
    0.3456   -0.4810    1.0215 C   0  0  0  0  0  0  0  0  0  0  0  0
   -0.3929    0.4644    0.0706 C   0  0  0  0  0  0  0  0  0  0  0  0
   -1.4679   -0.2337   -0.7708 C   0  0  0  0  0  0  0  0  0  0  0  0
   -2.6619   -0.7250    0.0523 C   0  0  0  0  0  0  0  0  0  0  0  0
   -3.7419   -1.4083   -0.7931 C   0  0  0  0  0  0  0  0  0  0  0  0
   -4.4046   -0.5441   -1.8674 C   0  0  0  0  0  0  0  0  0  0  0  0
   -4.9846    0.8151   -1.4597 C   0  0  0  0  0  0  0  0  0  0  0  0
   -6.2675    0.7966   -0.6057 N   0  0  0  0  0  0  0  0  0  0  0  0
   -6.8990    2.1957   -0.7022 C   0  0  0  0  0  0  0  0  0  0  0  0
   -7.2891   -0.2125   -1.1124 C   0  0  0  0  0  0  0  0  0  0  0  0
   -5.9772    0.5367    0.8671 C   0  0  0  0  0  0  0  0  0  0  0  0
    7.1763    1.0422   -2.3480 H   0  0  0  0  0  0  0  0  0  0  0  0
    6.4723    1.5917   -0.8255 H   0  0  0  0  0  0  0  0  0  0  0  0
    8.2139    1.2669   -0.9313 H   0  0  0  0  0  0  0  0  0  0  0  0
    5.9946   -0.8310   -1.2100 H   0  0  0  0  0  0  0  0  0  0  0  0
    7.7049   -1.1426   -1.4320 H   0  0  0  0  0  0  0  0  0  0  0  0
    7.1825   -1.8851    0.7818 H   0  0  0  0  0  0  0  0  0  0  0  0
    8.1847   -0.4524    0.8944 H   0  0  0  0  0  0  0  0  0  0  0  0
    6.6923    0.0656    2.5013 H   0  0  0  0  0  0  0  0  0  0  0  0
    5.8486    0.8422    1.1863 H   0  0  0  0  0  0  0  0  0  0  0  0
    5.3156   -1.9619    2.3162 H   0  0  0  0  0  0  0  0  0  0  0  0
    4.4210   -0.5234    2.7409 H   0  0  0  0  0  0  0  0  0  0  0  0
    3.1765   -1.9442    1.1812 H   0  0  0  0  0  0  0  0  0  0  0  0
    4.4669   -1.8986    0.0134 H   0  0  0  0  0  0  0  0  0  0  0  0
    2.6614   -0.4148   -0.6708 H   0  0  0  0  0  0  0  0  0  0  0  0
    4.1086    0.5146   -0.3819 H   0  0  0  0  0  0  0  0  0  0  0  0
    3.2691    1.3137    1.7794 H   0  0  0  0  0  0  0  0  0  0  0  0
    2.1745    1.7008    0.4786 H   0  0  0  0  0  0  0  0  0  0  0  0
    0.9490    0.9942    2.4687 H   0  0  0  0  0  0  0  0  0  0  0  0
    1.8397   -0.5093    2.5648 H   0  0  0  0  0  0  0  0  0  0  0  0
    0.7838   -1.3105    0.4555 H   0  0  0  0  0  0  0  0  0  0  0  0
   -0.3687   -0.9286    1.7216 H   0  0  0  0  0  0  0  0  0  0  0  0
   -0.8461    1.2853    0.6394 H   0  0  0  0  0  0  0  0  0  0  0  0
    0.3244    0.9173   -0.6231 H   0  0  0  0  0  0  0  0  0  0  0  0
   -1.0210   -1.0737   -1.3160 H   0  0  0  0  0  0  0  0  0  0  0  0
   -1.8141    0.4844   -1.5227 H   0  0  0  0  0  0  0  0  0  0  0  0
   -2.3194   -1.4547    0.7945 H   0  0  0  0  0  0  0  0  0  0  0  0
   -3.0904    0.1097    0.6160 H   0  0  0  0  0  0  0  0  0  0  0  0
   -3.2907   -2.2765   -1.2918 H   0  0  0  0  0  0  0  0  0  0  0  0
   -4.5061   -1.8276   -0.1322 H   0  0  0  0  0  0  0  0  0  0  0  0
   -5.1650   -1.1438   -2.3803 H   0  0  0  0  0  0  0  0  0  0  0  0
   -3.6505   -0.3465   -2.6410 H   0  0  0  0  0  0  0  0  0  0  0  0
   -4.2503    1.4350   -0.9339 H   0  0  0  0  0  0  0  0  0  0  0  0
   -5.2503    1.3429   -2.3846 H   0  0  0  0  0  0  0  0  0  0  0  0
   -7.1644    2.3850   -1.7467 H   0  0  0  0  0  0  0  0  0  0  0  0
   -6.1660    2.9279   -0.3504 H   0  0  0  0  0  0  0  0  0  0  0  0
   -7.7955    2.2185   -0.0750 H   0  0  0  0  0  0  0  0  0  0  0  0
   -6.9095   -1.2216   -0.9324 H   0  0  0  0  0  0  0  0  0  0  0  0
   -8.2222   -0.0689   -0.5587 H   0  0  0  0  0  0  0  0  0  0  0  0
   -7.4486   -0.0370   -2.1801 H   0  0  0  0  0  0  0  0  0  0  0  0
   -5.2156    1.2458    1.2033 H   0  0  0  0  0  0  0  0  0  0  0  0
   -6.9032    0.6823    1.4327 H   0  0  0  0  0  0  0  0  0  0  0  0
   -5.6397   -0.4905    0.9944 H   0  0  0  0  0  0  0  0  0  0  0  0
  1  2  1  0
  2  3  1  0
  3  4  1  0
  4  5  1  0
  5  6  1  0
  6  7  1  0
  7  8  1  0
  8  9  1  0
  9 10  1  0
 10 11  1  0
 11 12  1  0
 12 13  1  0
 13 14  1  0
 14 15  1  0
 15 16  1  0
 16 17  1  0
 17 18  1  0
 17 19  1  0
 17 20  1  0
  1 21  1  0
  1 22  1  0
  1 23  1  0
  2 24  1  0
  2 25  1  0
  3 26  1  0
  3 27  1  0
  4 28  1  0
  4 29  1  0
  5 30  1  0
  5 31  1  0
  6 32  1  0
  6 33  1  0
  7 34  1  0
  7 35  1  0
  8 36  1  0
  8 37  1  0
  9 38  1  0
  9 39  1  0
 10 40  1  0
 10 41  1  0
 11 42  1  0
 11 43  1  0
 12 44  1  0
 12 45  1  0
 13 46  1  0
 13 47  1  0
 14 48  1  0
 14 49  1  0
 15 50  1  0
 15 51  1  0
 16 52  1  0
 16 53  1  0
 18 54  1  0
 18 55  1  0
 18 56  1  0
 19 57  1  0
 19 58  1  0
 19 59  1  0
 20 60  1  0
 20 61  1  0
 20 62  1  0
M  CHG  1  17   1
M  END
$$$$
OCNT-2328638
     RDKit          3D

 35 36  0  0  0  0  0  0  0  0999 V2000
    5.4694   -0.3318   -1.0714 N   0  0  0  0  0  0  0  0  0  0  0  0
    4.2879   -0.1038   -0.2015 C   0  0  1  0  0  0  0  0  0  0  0  0
    3.0918   -0.9139   -0.7287 C   0  0  0  0  0  0  0  0  0  0  0  0
    1.7548   -0.3699   -0.2685 C   0  0  0  0  0  0  0  0  0  0  0  0
    1.1984    0.7573   -0.8896 C   0  0  0  0  0  0  0  0  0  0  0  0
   -0.0332    1.2694   -0.4638 C   0  0  0  0  0  0  0  0  0  0  0  0
   -0.7468    2.9908   -1.4264 I   0  0  0  0  0  0  0  0  0  0  0  0
   -0.7364    0.6451    0.5762 C   0  0  0  0  0  0  0  0  0  0  0  0
   -1.9348    1.1597    1.0094 O   0  0  0  0  0  0  0  0  0  0  0  0
   -3.0978    0.6880    0.4308 C   0  0  0  0  0  0  0  0  0  0  0  0
   -4.2710    1.2667    0.9244 C   0  0  0  0  0  0  0  0  0  0  0  0
   -5.5171    0.8817    0.4260 C   0  0  0  0  0  0  0  0  0  0  0  0
   -5.5914   -0.0881   -0.5726 C   0  0  0  0  0  0  0  0  0  0  0  0
   -6.8133   -0.4615   -1.0580 O   0  0  0  0  0  0  0  0  0  0  0  0
   -4.4231   -0.6716   -1.0710 C   0  0  0  0  0  0  0  0  0  0  0  0
   -4.4720   -2.1317   -2.5695 I   0  0  0  0  0  0  0  0  0  0  0  0
   -3.1748   -0.2851   -0.5701 C   0  0  0  0  0  0  0  0  0  0  0  0
   -0.1655   -0.4600    1.2233 C   0  0  0  0  0  0  0  0  0  0  0  0
   -1.0834   -1.3988    2.8587 I   0  0  0  0  0  0  0  0  0  0  0  0
    1.0660   -0.9694    0.7942 C   0  0  0  0  0  0  0  0  0  0  0  0
    4.6494   -0.4916    1.2408 C   0  0  0  0  0  0  0  0  0  0  0  0
    4.0045   -1.1674    2.0246 O   0  0  0  0  0  0  0  0  0  0  0  0
    5.8319    0.0477    1.6298 O   0  0  0  0  0  0  0  0  0  0  0  0
    6.2731    0.1132   -0.6187 H   0  0  0  0  0  0  0  0  0  0  0  0
    5.3349    0.1560   -1.9555 H   0  0  0  0  0  0  0  0  0  0  0  0
    4.0630    0.9695   -0.1979 H   0  0  0  0  0  0  0  0  0  0  0  0
    3.1808   -1.9717   -0.4481 H   0  0  0  0  0  0  0  0  0  0  0  0
    3.0809   -0.9019   -1.8276 H   0  0  0  0  0  0  0  0  0  0  0  0
    1.7342    1.2352   -1.7079 H   0  0  0  0  0  0  0  0  0  0  0  0
   -4.2124    2.0233    1.7037 H   0  0  0  0  0  0  0  0  0  0  0  0
   -6.4115    1.3479    0.8278 H   0  0  0  0  0  0  0  0  0  0  0  0
   -7.5084    0.0352   -0.5972 H   0  0  0  0  0  0  0  0  0  0  0  0
   -2.2779   -0.7493   -0.9672 H   0  0  0  0  0  0  0  0  0  0  0  0
    1.5045   -1.8314    1.2963 H   0  0  0  0  0  0  0  0  0  0  0  0
    5.9453   -0.2876    2.5441 H   0  0  0  0  0  0  0  0  0  0  0  0
  1  2  1  0
  2  3  1  0
  3  4  1  0
  4  5  1  0
  5  6  2  0
  6  7  1  0
  6  8  1  0
  8  9  1  0
  9 10  1  0
 10 11  1  0
 11 12  2  0
 12 13  1  0
 13 14  1  0
 13 15  2  0
 15 16  1  0
 15 17  1  0
  8 18  2  0
 18 19  1  0
 18 20  1  0
  2 21  1  0
 21 22  2  0
 21 23  1  0
 20  4  2  0
 17 10  2  0
  1 24  1  0
  1 25  1  0
  2 26  1  1
  3 27  1  0
  3 28  1  0
  5 29  1  0
 11 30  1  0
 12 31  1  0
 14 32  1  0
 17 33  1  0
 20 34  1  0
 23 35  1  0
M  END
$$$$
OCNT-2328663
     RDKit          3D

 54 57  0  0  0  0  0  0  0  0999 V2000
    4.3951   -0.7851   -2.7993 C   0  0  0  0  0  0  0  0  0  0  0  0
    3.4229   -1.1252   -1.7089 C   0  0  0  0  0  0  0  0  0  0  0  0
    2.7627   -0.2699   -0.9044 C   0  0  0  0  0  0  0  0  0  0  0  0
    2.8719    1.1941   -1.0185 C   0  0  0  0  0  0  0  0  0  0  0  0
    2.3808    1.8685   -2.1445 C   0  0  0  0  0  0  0  0  0  0  0  0
    2.4742    3.2591   -2.2347 C   0  0  0  0  0  0  0  0  0  0  0  0
    3.0498    3.9867   -1.1939 C   0  0  0  0  0  0  0  0  0  0  0  0
    3.5235    3.3267   -0.0614 C   0  0  0  0  0  0  0  0  0  0  0  0
    3.4318    1.9365    0.0303 C   0  0  0  0  0  0  0  0  0  0  0  0
    1.9200   -0.6436    0.1245 O   0  0  0  0  0  0  0  0  0  0  0  0
    1.6991   -1.9727    0.3659 C   0  0  0  0  0  0  0  0  0  0  0  0
    2.2760   -2.9667   -0.4165 C   0  0  0  0  0  0  0  0  0  0  0  0
    1.9971   -4.3189   -0.1762 C   0  0  0  0  0  0  0  0  0  0  0  0
    1.1310   -4.6792    0.8556 C   0  0  0  0  0  0  0  0  0  0  0  0
    0.5544   -3.6900    1.6505 C   0  0  0  0  0  0  0  0  0  0  0  0
    0.8423   -2.3364    1.4111 C   0  0  0  0  0  0  0  0  0  0  0  0
    0.2687   -1.2962    2.2925 C   0  0  0  0  0  0  0  0  0  0  0  0
    0.8938   -0.3454    2.7352 O   0  0  0  0  0  0  0  0  0  0  0  0
   -1.0423   -1.5700    2.4987 O   0  0  0  0  0  0  0  0  0  0  0  0
   -1.7689   -0.5686    3.2332 C   0  0  0  0  0  0  0  0  0  0  0  0
   -2.0644    0.6772    2.3745 C   0  0  0  0  0  0  0  0  0  0  0  0
   -2.8432    0.3817    1.1575 N   0  0  0  0  0  0  0  0  0  0  0  0
   -2.6582    1.4348    0.1505 C   0  0  0  0  0  0  0  0  0  0  0  0
   -3.6278    1.2695   -1.0200 C   0  0  0  0  0  0  0  0  0  0  0  0
   -5.0839    1.3575   -0.5688 C   0  0  0  0  0  0  0  0  0  0  0  0
   -5.2447    1.1018    0.9285 C   0  0  0  0  0  0  0  0  0  0  0  0
   -4.2494    0.0556    1.4319 C   0  0  0  0  0  0  0  0  0  0  0  0
    3.1876   -2.5777   -1.5038 C   0  0  0  0  0  0  0  0  0  0  0  0
    3.7233   -3.4252   -2.2105 O   0  0  0  0  0  0  0  0  0  0  0  0
    4.0418   -1.1705   -3.7637 H   0  0  0  0  0  0  0  0  0  0  0  0
    5.3721   -1.2355   -2.5843 H   0  0  0  0  0  0  0  0  0  0  0  0
    4.5607    0.2901   -2.9159 H   0  0  0  0  0  0  0  0  0  0  0  0
    1.9185    1.3148   -2.9600 H   0  0  0  0  0  0  0  0  0  0  0  0
    2.0949    3.7739   -3.1122 H   0  0  0  0  0  0  0  0  0  0  0  0
    3.1204    5.0688   -1.2625 H   0  0  0  0  0  0  0  0  0  0  0  0
    3.9583    3.8930    0.7561 H   0  0  0  0  0  0  0  0  0  0  0  0
    3.7941    1.4350    0.9266 H   0  0  0  0  0  0  0  0  0  0  0  0
    2.4508   -5.0896   -0.7955 H   0  0  0  0  0  0  0  0  0  0  0  0
    0.9098   -5.7285    1.0410 H   0  0  0  0  0  0  0  0  0  0  0  0
   -0.1136   -3.9755    2.4588 H   0  0  0  0  0  0  0  0  0  0  0  0
   -1.2094   -0.2889    4.1333 H   0  0  0  0  0  0  0  0  0  0  0  0
   -2.6954   -1.0367    3.5792 H   0  0  0  0  0  0  0  0  0  0  0  0
   -2.5778    1.4324    2.9828 H   0  0  0  0  0  0  0  0  0  0  0  0
   -1.1031    1.1133    2.0779 H   0  0  0  0  0  0  0  0  0  0  0  0
   -1.6318    1.3834   -0.2376 H   0  0  0  0  0  0  0  0  0  0  0  0
   -2.7912    2.4331    0.5936 H   0  0  0  0  0  0  0  0  0  0  0  0
   -3.4508    0.2962   -1.5009 H   0  0  0  0  0  0  0  0  0  0  0  0
   -3.4339    2.0298   -1.7851 H   0  0  0  0  0  0  0  0  0  0  0  0
   -5.4948    2.3443   -0.8088 H   0  0  0  0  0  0  0  0  0  0  0  0
   -5.6748    0.6313   -1.1388 H   0  0  0  0  0  0  0  0  0  0  0  0
   -6.2712    0.7795    1.1378 H   0  0  0  0  0  0  0  0  0  0  0  0
   -5.0965    2.0400    1.4794 H   0  0  0  0  0  0  0  0  0  0  0  0
   -4.4321   -0.1139    2.4973 H   0  0  0  0  0  0  0  0  0  0  0  0
   -4.4683   -0.8988    0.9370 H   0  0  0  0  0  0  0  0  0  0  0  0
  1  2  1  0
  2  3  2  0
  3  4  1  0
  4  5  2  0
  5  6  1  0
  6  7  2  0
  7  8  1  0
  8  9  2  0
  3 10  1  0
 10 11  1  0
 11 12  1  0
 12 13  2  0
 13 14  1  0
 14 15  2  0
 15 16  1  0
 16 17  1  0
 17 18  2  0
 17 19  1  0
 19 20  1  0
 20 21  1  0
 21 22  1  0
 22 23  1  0
 23 24  1  0
 24 25  1  0
 25 26  1  0
 26 27  1  0
 12 28  1  0
 28 29  2  0
 28  2  1  0
  9  4  1  0
 16 11  2  0
 27 22  1  0
  1 30  1  0
  1 31  1  0
  1 32  1  0
  5 33  1  0
  6 34  1  0
  7 35  1  0
  8 36  1  0
  9 37  1  0
 13 38  1  0
 14 39  1  0
 15 40  1  0
 20 41  1  0
 20 42  1  0
 21 43  1  0
 21 44  1  0
 23 45  1  0
 23 46  1  0
 24 47  1  0
 24 48  1  0
 25 49  1  0
 25 50  1  0
 26 51  1  0
 26 52  1  0
 27 53  1  0
 27 54  1  0
M  END
$$$$
OCNT-2328666
     RDKit          3D

 42 45  0  0  0  0  0  0  0  0999 V2000
   -4.3211   -5.5794    0.3521 Cl  0  0  0  0  0  0  0  0  0  0  0  0
   -3.5257   -4.0547    0.3665 C   0  0  0  0  0  0  0  0  0  0  0  0
   -2.4809   -3.8122   -0.5192 C   0  0  0  0  0  0  0  0  0  0  0  0
   -1.8354   -2.5739   -0.5080 C   0  0  0  0  0  0  0  0  0  0  0  0
   -2.2193   -1.5637    0.3957 C   0  0  0  0  0  0  0  0  0  0  0  0
   -1.5110   -0.2157    0.3791 C   0  0  0  0  0  0  0  0  0  0  0  0
   -2.2151    0.7349   -0.6023 C   0  0  0  0  0  0  0  0  0  0  0  0
   -1.7481    2.1008   -0.4406 N   0  0  0  0  0  0  0  0  0  0  0  0
   -2.2900    3.0505    0.3786 C   0  0  0  0  0  0  0  0  0  0  0  0
   -1.4869    4.1553    0.2146 C   0  0  0  0  0  0  0  0  0  0  0  0
   -0.4797    3.8967   -0.6794 N   0  0  0  0  0  0  0  0  0  0  0  0
   -0.6727    2.6571   -1.0707 C   0  0  0  0  0  0  0  0  0  0  0  0
   -0.1527   -0.3803   -0.0627 O   0  0  0  0  0  0  0  0  0  0  0  0
    0.7552   -0.6159    1.0153 C   0  0  0  0  0  0  0  0  0  0  0  0
    2.1414   -0.8099    0.4823 C   0  0  0  0  0  0  0  0  0  0  0  0
    2.7358   -2.0436    0.3163 C   0  0  0  0  0  0  0  0  0  0  0  0
    4.3108   -1.9397   -0.3119 S   0  0  0  0  0  0  0  0  0  0  0  0
    4.2543   -0.2164   -0.4010 C   0  0  0  0  0  0  0  0  0  0  0  0
    5.2533    0.6714   -0.8613 C   0  0  0  0  0  0  0  0  0  0  0  0
    6.7808    0.1088   -1.4362 Cl  0  0  0  0  0  0  0  0  0  0  0  0
    5.0088    2.0474   -0.8587 C   0  0  0  0  0  0  0  0  0  0  0  0
    3.7967    2.5437   -0.4066 C   0  0  0  0  0  0  0  0  0  0  0  0
    2.8106    1.6685    0.0534 C   0  0  0  0  0  0  0  0  0  0  0  0
    3.0207    0.2640    0.0631 C   0  0  0  0  0  0  0  0  0  0  0  0
   -3.2887   -1.8301    1.2710 C   0  0  0  0  0  0  0  0  0  0  0  0
   -3.8681   -0.6442    2.3870 Cl  0  0  0  0  0  0  0  0  0  0  0  0
   -3.9351   -3.0696    1.2598 C   0  0  0  0  0  0  0  0  0  0  0  0
   -2.1635   -4.5793   -1.2218 H   0  0  0  0  0  0  0  0  0  0  0  0
   -1.0218   -2.4029   -1.2134 H   0  0  0  0  0  0  0  0  0  0  0  0
   -1.4978    0.2275    1.3821 H   0  0  0  0  0  0  0  0  0  0  0  0
   -3.3008    0.7508   -0.4509 H   0  0  0  0  0  0  0  0  0  0  0  0
   -2.0233    0.4515   -1.6446 H   0  0  0  0  0  0  0  0  0  0  0  0
   -3.1641    2.8748    0.9902 H   0  0  0  0  0  0  0  0  0  0  0  0
   -1.5793    5.1219    0.6928 H   0  0  0  0  0  0  0  0  0  0  0  0
   -0.0617    2.1165   -1.7834 H   0  0  0  0  0  0  0  0  0  0  0  0
    0.7394    0.2383    1.7027 H   0  0  0  0  0  0  0  0  0  0  0  0
    0.4397   -1.5047    1.5752 H   0  0  0  0  0  0  0  0  0  0  0  0
    2.3124   -3.0143    0.5366 H   0  0  0  0  0  0  0  0  0  0  0  0
    5.7700    2.7373   -1.2151 H   0  0  0  0  0  0  0  0  0  0  0  0
    3.6052    3.6147   -0.4115 H   0  0  0  0  0  0  0  0  0  0  0  0
    1.8659    2.0835    0.4003 H   0  0  0  0  0  0  0  0  0  0  0  0
   -4.7580   -3.2655    1.9427 H   0  0  0  0  0  0  0  0  0  0  0  0
  1  2  1  0
  2  3  1  0
  3  4  2  0
  4  5  1  0
  5  6  1  0
  6  7  1  0
  7  8  1  0
  8  9  1  0
  9 10  2  0
 10 11  1  0
 11 12  2  0
  6 13  1  0
 13 14  1  0
 14 15  1  0
 15 16  2  0
 16 17  1  0
 17 18  1  0
 18 19  2  0
 19 20  1  0
 19 21  1  0
 21 22  2  0
 22 23  1  0
 23 24  2  0
  5 25  2  0
 25 26  1  0
 25 27  1  0
 27  2  2  0
 12  8  1  0
 24 15  1  0
 24 18  1  0
  3 28  1  0
  4 29  1  0
  6 30  1  0
  7 31  1  0
  7 32  1  0
  9 33  1  0
 10 34  1  0
 12 35  1  0
 14 36  1  0
 14 37  1  0
 16 38  1  0
 21 39  1  0
 22 40  1  0
 23 41  1  0
 27 42  1  0
M  END
$$$$
OCNT-2328673
     RDKit          3D

 18 19  0  0  0  0  0  0  0  0999 V2000
   -1.2920   -2.4513   -0.7575 O   0  0  0  0  0  0  0  0  0  0  0  0
   -1.0780   -1.2354   -0.1406 C   0  0  0  0  0  0  0  0  0  0  0  0
   -2.0432   -0.7094    0.7239 C   0  0  0  0  0  0  0  0  0  0  0  0
   -3.8298   -1.7223    1.1187 I   0  0  0  0  0  0  0  0  0  0  0  0
   -1.8267    0.5134    1.3436 C   0  0  0  0  0  0  0  0  0  0  0  0
   -0.6395    1.2074    1.0939 C   0  0  0  0  0  0  0  0  0  0  0  0
   -0.4381    3.0546    2.1011 I   0  0  0  0  0  0  0  0  0  0  0  0
    0.3532    0.6878    0.2178 C   0  0  0  0  0  0  0  0  0  0  0  0
    1.5787    1.3299   -0.0850 C   0  0  0  0  0  0  0  0  0  0  0  0
    2.4979    0.7543   -0.9536 C   0  0  0  0  0  0  0  0  0  0  0  0
    2.1767   -0.4608   -1.5095 C   0  0  0  0  0  0  0  0  0  0  0  0
    1.0257   -1.1113   -1.2538 N   0  0  0  0  0  0  0  0  0  0  0  0
    0.1227   -0.5612   -0.4099 C   0  0  0  0  0  0  0  0  0  0  0  0
   -2.1574   -2.7905   -0.4743 H   0  0  0  0  0  0  0  0  0  0  0  0
   -2.5749    0.9256    2.0165 H   0  0  0  0  0  0  0  0  0  0  0  0
    1.8381    2.2902    0.3512 H   0  0  0  0  0  0  0  0  0  0  0  0
    3.4362    1.2440   -1.1866 H   0  0  0  0  0  0  0  0  0  0  0  0
    2.8504   -0.9649   -2.1960 H   0  0  0  0  0  0  0  0  0  0  0  0
  1  2  1  0
  2  3  1  0
  3  4  1  0
  3  5  2  0
  5  6  1  0
  6  7  1  0
  6  8  2  0
  8  9  1  0
  9 10  2  0
 10 11  1  0
 11 12  2  0
 12 13  1  0
 13  2  2  0
 13  8  1  0
  1 14  1  0
  5 15  1  0
  9 16  1  0
 10 17  1  0
 11 18  1  0
M  END
$$$$
OCNT-2328702
     RDKit          3D

 38 38  0  0  0  0  0  0  0  0999 V2000
    5.1160    1.8558    0.3243 C   0  0  0  0  0  0  0  0  0  0  0  0
    4.3467    1.4492   -0.8002 O   0  0  0  0  0  0  0  0  0  0  0  0
    3.5957    0.3153   -0.6579 C   0  0  0  0  0  0  0  0  0  0  0  0
    3.5389   -0.4955    0.4759 C   0  0  0  0  0  0  0  0  0  0  0  0
    2.7227   -1.6334    0.4877 C   0  0  0  0  0  0  0  0  0  0  0  0
    1.9518   -1.9663   -0.6301 C   0  0  0  0  0  0  0  0  0  0  0  0
    1.1158   -3.1684   -0.6025 C   0  0  0  0  0  0  0  0  0  0  0  0
   -0.2216   -3.2246   -0.7097 C   0  0  0  0  0  0  0  0  0  0  0  0
   -1.1850   -2.1104   -0.8313 C   0  0  0  0  0  0  0  0  0  0  0  0
   -2.2597   -2.2498   -1.3969 O   0  0  0  0  0  0  0  0  0  0  0  0
   -0.7518   -1.0002   -0.1943 O   0  0  0  0  0  0  0  0  0  0  0  0
   -1.6160    0.1444   -0.2595 C   0  0  0  0  0  0  0  0  0  0  0  0
   -2.5972    0.1174    0.9106 C   0  0  0  0  0  0  0  0  0  0  0  0
   -3.6156    1.2688    0.8884 C   0  0  0  0  0  0  0  0  0  0  0  0
   -2.9494    2.6389    1.0205 C   0  0  0  0  0  0  0  0  0  0  0  0
   -4.6373    1.0805    2.0124 C   0  0  0  0  0  0  0  0  0  0  0  0
    2.0186   -1.1594   -1.7696 C   0  0  0  0  0  0  0  0  0  0  0  0
    2.8341   -0.0248   -1.7785 C   0  0  0  0  0  0  0  0  0  0  0  0
    5.6399    2.7782    0.0549 H   0  0  0  0  0  0  0  0  0  0  0  0
    5.8723    1.1053    0.5771 H   0  0  0  0  0  0  0  0  0  0  0  0
    4.4743    2.0765    1.1839 H   0  0  0  0  0  0  0  0  0  0  0  0
    4.1146   -0.2734    1.3680 H   0  0  0  0  0  0  0  0  0  0  0  0
    2.6872   -2.2502    1.3827 H   0  0  0  0  0  0  0  0  0  0  0  0
    1.6714   -4.0992   -0.5076 H   0  0  0  0  0  0  0  0  0  0  0  0
   -0.7047   -4.1967   -0.7441 H   0  0  0  0  0  0  0  0  0  0  0  0
   -2.1344    0.1939   -1.2244 H   0  0  0  0  0  0  0  0  0  0  0  0
   -0.9661    1.0227   -0.1971 H   0  0  0  0  0  0  0  0  0  0  0  0
   -3.1326   -0.8409    0.9022 H   0  0  0  0  0  0  0  0  0  0  0  0
   -2.0320    0.1247    1.8518 H   0  0  0  0  0  0  0  0  0  0  0  0
   -4.1571    1.2409   -0.0657 H   0  0  0  0  0  0  0  0  0  0  0  0
   -2.3393    2.6984    1.9282 H   0  0  0  0  0  0  0  0  0  0  0  0
   -2.3062    2.8539    0.1621 H   0  0  0  0  0  0  0  0  0  0  0  0
   -3.7021    3.4334    1.0672 H   0  0  0  0  0  0  0  0  0  0  0  0
   -4.1552    1.1028    2.9958 H   0  0  0  0  0  0  0  0  0  0  0  0
   -5.3937    1.8721    1.9878 H   0  0  0  0  0  0  0  0  0  0  0  0
   -5.1563    0.1216    1.9102 H   0  0  0  0  0  0  0  0  0  0  0  0
    1.4385   -1.4021   -2.6565 H   0  0  0  0  0  0  0  0  0  0  0  0
    2.8750    0.6006   -2.6671 H   0  0  0  0  0  0  0  0  0  0  0  0
  1  2  1  0
  2  3  1  0
  3  4  1  0
  4  5  2  0
  5  6  1  0
  6  7  1  0
  7  8  2  3
  8  9  1  0
  9 10  2  0
  9 11  1  0
 11 12  1  0
 12 13  1  0
 13 14  1  0
 14 15  1  0
 14 16  1  0
  6 17  2  0
 17 18  1  0
 18  3  2  0
  1 19  1  0
  1 20  1  0
  1 21  1  0
  4 22  1  0
  5 23  1  0
  7 24  1  0
  8 25  1  0
 12 26  1  0
 12 27  1  0
 13 28  1  0
 13 29  1  0
 14 30  1  0
 15 31  1  0
 15 32  1  0
 15 33  1  0
 16 34  1  0
 16 35  1  0
 16 36  1  0
 17 37  1  0
 18 38  1  0
M  END
$$$$
OCNT-2328704
     RDKit          3D

 45 46  0  0  0  0  0  0  0  0999 V2000
    6.4348    2.4557    0.8921 C   0  0  0  0  0  0  0  0  0  0  0  0
    6.0026    0.9986    0.8280 C   0  0  0  0  0  0  0  0  0  0  0  0
    4.9827    0.7688   -0.2877 C   0  0  0  0  0  0  0  0  0  0  0  0
    4.6048   -0.7053   -0.4772 C   0  0  0  0  0  0  0  0  0  0  0  0
    3.9417   -1.3659    0.7331 C   0  0  0  0  0  0  0  0  0  0  0  0
    2.7259   -0.6718    1.1288 N   0  0  0  0  0  0  0  0  0  0  0  0
    1.5447   -0.8641    0.4785 C   0  0  0  0  0  0  0  0  0  0  0  0
    1.4143   -1.5829   -0.5843 N   0  0  0  0  0  0  0  0  0  0  0  0
    0.5045   -0.2069    1.0917 N   0  0  0  0  0  0  0  0  0  0  0  0
   -0.8011   -0.2760    0.6687 N   0  0  0  0  0  0  0  0  0  0  0  0
   -1.3780   -1.4053    0.9363 C   0  0  0  0  0  0  0  0  0  0  0  0
   -2.7531   -1.6338    0.5430 C   0  0  0  0  0  0  0  0  0  0  0  0
   -3.4242   -2.8204    0.7803 C   0  0  0  0  0  0  0  0  0  0  0  0
   -4.6939   -2.7067    0.2830 N   0  0  0  0  0  0  0  0  0  0  0  0
   -4.8750   -1.4646   -0.2767 C   0  0  0  0  0  0  0  0  0  0  0  0
   -6.0019   -0.9137   -0.8965 C   0  0  0  0  0  0  0  0  0  0  0  0
   -5.9063    0.3951   -1.3866 C   0  0  0  0  0  0  0  0  0  0  0  0
   -4.7267    1.1263   -1.2622 C   0  0  0  0  0  0  0  0  0  0  0  0
   -4.5276    2.4076   -1.7035 O   0  0  0  0  0  0  0  0  0  0  0  0
   -5.6125    3.0357   -2.3732 C   0  0  0  0  0  0  0  0  0  0  0  0
   -3.6120    0.5506   -0.6365 C   0  0  0  0  0  0  0  0  0  0  0  0
   -3.6751   -0.7664   -0.1311 C   0  0  0  0  0  0  0  0  0  0  0  0
    5.5786    3.1104    1.0839 H   0  0  0  0  0  0  0  0  0  0  0  0
    6.9035    2.7681   -0.0465 H   0  0  0  0  0  0  0  0  0  0  0  0
    7.1607    2.6005    1.6984 H   0  0  0  0  0  0  0  0  0  0  0  0
    6.8845    0.3691    0.6630 H   0  0  0  0  0  0  0  0  0  0  0  0
    5.5766    0.7182    1.7971 H   0  0  0  0  0  0  0  0  0  0  0  0
    5.3996    1.1352   -1.2344 H   0  0  0  0  0  0  0  0  0  0  0  0
    4.0826    1.3647   -0.0952 H   0  0  0  0  0  0  0  0  0  0  0  0
    3.9394   -0.7768   -1.3459 H   0  0  0  0  0  0  0  0  0  0  0  0
    5.5069   -1.2744   -0.7337 H   0  0  0  0  0  0  0  0  0  0  0  0
    4.6361   -1.3690    1.5803 H   0  0  0  0  0  0  0  0  0  0  0  0
    3.7272   -2.4192    0.5157 H   0  0  0  0  0  0  0  0  0  0  0  0
    2.6216   -0.5942    2.1332 H   0  0  0  0  0  0  0  0  0  0  0  0
    0.4324   -1.4816   -0.8683 H   0  0  0  0  0  0  0  0  0  0  0  0
    0.7924    0.7392    1.3384 H   0  0  0  0  0  0  0  0  0  0  0  0
   -0.8552   -2.2242    1.4634 H   0  0  0  0  0  0  0  0  0  0  0  0
   -3.1038   -3.7371    1.2579 H   0  0  0  0  0  0  0  0  0  0  0  0
   -5.4017   -3.4276    0.3167 H   0  0  0  0  0  0  0  0  0  0  0  0
   -6.9246   -1.4759   -0.9990 H   0  0  0  0  0  0  0  0  0  0  0  0
   -6.7850    0.8152   -1.8653 H   0  0  0  0  0  0  0  0  0  0  0  0
   -5.8838    2.4914   -3.2838 H   0  0  0  0  0  0  0  0  0  0  0  0
   -5.2874    4.0377   -2.6696 H   0  0  0  0  0  0  0  0  0  0  0  0
   -6.4745    3.1493   -1.7077 H   0  0  0  0  0  0  0  0  0  0  0  0
   -2.6947    1.1263   -0.5441 H   0  0  0  0  0  0  0  0  0  0  0  0
  1  2  1  0
  2  3  1  0
  3  4  1  0
  4  5  1  0
  5  6  1  0
  6  7  1  0
  7  8  2  3
  7  9  1  0
  9 10  1  0
 10 11  2  3
 11 12  1  0
 12 13  2  0
 13 14  1  0
 14 15  1  0
 15 16  2  0
 16 17  1  0
 17 18  2  0
 18 19  1  0
 19 20  1  0
 18 21  1  0
 21 22  2  0
 22 12  1  0
 22 15  1  0
  1 23  1  0
  1 24  1  0
  1 25  1  0
  2 26  1  0
  2 27  1  0
  3 28  1  0
  3 29  1  0
  4 30  1  0
  4 31  1  0
  5 32  1  0
  5 33  1  0
  6 34  1  0
  8 35  1  0
  9 36  1  0
 11 37  1  0
 13 38  1  0
 14 39  1  0
 16 40  1  0
 17 41  1  0
 20 42  1  0
 20 43  1  0
 20 44  1  0
 21 45  1  0
M  END
$$$$
OCNT-2328726
     RDKit          3D

 26 27  0  0  0  0  0  0  0  0999 V2000
    3.9728    0.0144   -0.0932 C   0  0  0  0  0  0  0  0  0  0  0  0
    3.0168   -0.1259    0.6207 C   0  0  0  0  0  0  0  0  0  0  0  0
    1.8557   -0.2947    1.5060 C   0  0  0  0  0  0  0  0  0  0  0  0
    1.0954   -1.4978    1.1874 N   0  0  0  0  0  0  0  0  0  0  0  0
    0.0440   -1.3845    0.1789 C   0  0  2  0  0  0  0  0  0  0  0  0
    0.4565   -0.9566   -1.2470 C   0  0  0  0  0  0  0  0  0  0  0  0
    0.1289    0.5360   -1.3975 C   0  0  0  0  0  0  0  0  0  0  0  0
   -0.9821    0.7030   -0.4089 C   0  0  0  0  0  0  0  0  0  0  0  0
   -1.0176   -0.3654    0.4965 C   0  0  0  0  0  0  0  0  0  0  0  0
   -1.9408   -0.3914    1.5308 C   0  0  0  0  0  0  0  0  0  0  0  0
   -2.8387    0.6713    1.6477 C   0  0  0  0  0  0  0  0  0  0  0  0
   -2.7997    1.7424    0.7413 C   0  0  0  0  0  0  0  0  0  0  0  0
   -1.8619    1.7664   -0.2935 C   0  0  0  0  0  0  0  0  0  0  0  0
    4.8218    0.1405   -0.7249 H   0  0  0  0  0  0  0  0  0  0  0  0
    1.2405    0.6098    1.5263 H   0  0  0  0  0  0  0  0  0  0  0  0
    2.2307   -0.4132    2.5297 H   0  0  0  0  0  0  0  0  0  0  0  0
    1.7447   -2.2344    0.9194 H   0  0  0  0  0  0  0  0  0  0  0  0
   -0.4368   -2.3683    0.1070 H   0  0  0  0  0  0  0  0  0  0  0  0
    1.4942   -1.1928   -1.5008 H   0  0  0  0  0  0  0  0  0  0  0  0
   -0.1578   -1.5191   -1.9659 H   0  0  0  0  0  0  0  0  0  0  0  0
    0.9787    1.1666   -1.1208 H   0  0  0  0  0  0  0  0  0  0  0  0
   -0.1872    0.7704   -2.4181 H   0  0  0  0  0  0  0  0  0  0  0  0
   -1.9592   -1.2157    2.2369 H   0  0  0  0  0  0  0  0  0  0  0  0
   -3.5710    0.6725    2.4512 H   0  0  0  0  0  0  0  0  0  0  0  0
   -3.5028    2.5644    0.8513 H   0  0  0  0  0  0  0  0  0  0  0  0
   -1.8251    2.6020   -0.9850 H   0  0  0  0  0  0  0  0  0  0  0  0
  1  2  3  0
  2  3  1  0
  3  4  1  0
  4  5  1  0
  5  6  1  0
  6  7  1  0
  7  8  1  0
  8  9  1  0
  9 10  2  0
 10 11  1  0
 11 12  2  0
 12 13  1  0
  9  5  1  0
 13  8  2  0
  1 14  1  0
  3 15  1  0
  3 16  1  0
  4 17  1  0
  5 18  1  6
  6 19  1  0
  6 20  1  0
  7 21  1  0
  7 22  1  0
 10 23  1  0
 11 24  1  0
 12 25  1  0
 13 26  1  0
M  END
$$$$
OCNT-2328729
     RDKit          3D

 32 32  0  0  0  0  0  0  0  0999 V2000
   -4.2435    0.4461    1.2954 C   0  0  0  0  0  0  0  0  0  0  0  0
   -3.3315   -0.3852    0.4059 C   0  0  0  0  0  0  0  0  0  0  0  0
   -1.9336   -0.5178    1.0108 C   0  0  0  0  0  0  0  0  0  0  0  0
   -1.0102   -1.4497    0.2201 C   0  0  0  0  0  0  0  0  0  0  0  0
   -0.7368   -1.0437   -1.2330 C   0  0  0  0  0  0  0  0  0  0  0  0
   -0.0347    0.3089   -1.4136 C   0  0  0  0  0  0  0  0  0  0  0  0
    1.3778    0.3449   -0.8754 C   0  0  0  0  0  0  0  0  0  0  0  0
    2.3755   -0.4279   -1.4948 C   0  0  0  0  0  0  0  0  0  0  0  0
    3.6893   -0.4188   -1.0202 C   0  0  0  0  0  0  0  0  0  0  0  0
    4.0115    0.3698    0.0779 C   0  0  0  0  0  0  0  0  0  0  0  0
    5.2809    0.4096    0.5757 O   0  0  0  0  0  0  0  0  0  0  0  0
    3.0465    1.1484    0.7047 C   0  0  0  0  0  0  0  0  0  0  0  0
    1.7369    1.1341    0.2243 C   0  0  0  0  0  0  0  0  0  0  0  0
    0.7852    1.9037    0.8321 O   0  0  0  0  0  0  0  0  0  0  0  0
   -4.3585   -0.0159    2.2811 H   0  0  0  0  0  0  0  0  0  0  0  0
   -3.8429    1.4556    1.4330 H   0  0  0  0  0  0  0  0  0  0  0  0
   -5.2367    0.5332    0.8436 H   0  0  0  0  0  0  0  0  0  0  0  0
   -3.2763    0.0913   -0.5787 H   0  0  0  0  0  0  0  0  0  0  0  0
   -3.7737   -1.3782    0.2657 H   0  0  0  0  0  0  0  0  0  0  0  0
   -2.0218   -0.9160    2.0296 H   0  0  0  0  0  0  0  0  0  0  0  0
   -1.4798    0.4734    1.1086 H   0  0  0  0  0  0  0  0  0  0  0  0
   -0.0596   -1.5404    0.7592 H   0  0  0  0  0  0  0  0  0  0  0  0
   -1.4511   -2.4547    0.2158 H   0  0  0  0  0  0  0  0  0  0  0  0
   -1.6812   -1.0238   -1.7891 H   0  0  0  0  0  0  0  0  0  0  0  0
   -0.1371   -1.8353   -1.6997 H   0  0  0  0  0  0  0  0  0  0  0  0
   -0.6464    1.1103   -0.9860 H   0  0  0  0  0  0  0  0  0  0  0  0
    0.0164    0.5344   -2.4874 H   0  0  0  0  0  0  0  0  0  0  0  0
    2.1299   -1.0432   -2.3579 H   0  0  0  0  0  0  0  0  0  0  0  0
    4.4373   -1.0273   -1.5181 H   0  0  0  0  0  0  0  0  0  0  0  0
    5.8402   -0.1792    0.0425 H   0  0  0  0  0  0  0  0  0  0  0  0
    3.3306    1.7558    1.5574 H   0  0  0  0  0  0  0  0  0  0  0  0
    1.1976    2.3810    1.5705 H   0  0  0  0  0  0  0  0  0  0  0  0
  1  2  1  0
  2  3  1  0
  3  4  1  0
  4  5  1  0
  5  6  1  0
  6  7  1  0
  7  8  1  0
  8  9  2  0
  9 10  1  0
 10 11  1  0
 10 12  2  0
 12 13  1  0
 13 14  1  0
 13  7  2  0
  1 15  1  0
  1 16  1  0
  1 17  1  0
  2 18  1  0
  2 19  1  0
  3 20  1  0
  3 21  1  0
  4 22  1  0
  4 23  1  0
  5 24  1  0
  5 25  1  0
  6 26  1  0
  6 27  1  0
  8 28  1  0
  9 29  1  0
 11 30  1  0
 12 31  1  0
 14 32  1  0
M  END
$$$$
OCNT-2328733
     RDKit          3D

 29 29  0  0  0  0  0  0  0  0999 V2000
   -4.8781    1.2048   -0.0252 C   0  0  0  0  0  0  0  0  0  0  0  0
   -4.1723   -0.0182   -0.5898 C   0  0  0  0  0  0  0  0  0  0  0  0
   -2.6569    0.1469   -0.6927 C   0  0  0  0  0  0  0  0  0  0  0  0
   -1.9658    0.2908    0.6606 C   0  0  0  0  0  0  0  0  0  0  0  0
   -0.5441    0.3912    0.4735 O   0  0  0  0  0  0  0  0  0  0  0  0
    0.1301   -0.7851    0.4300 C   0  0  0  0  0  0  0  0  0  0  0  0
   -0.3623   -1.8981    0.5260 O   0  0  0  0  0  0  0  0  0  0  0  0
    1.5865   -0.5463    0.2373 C   0  0  0  0  0  0  0  0  0  0  0  0
    2.1332    0.7379    0.1335 C   0  0  0  0  0  0  0  0  0  0  0  0
    3.5117    0.9025   -0.0454 C   0  0  0  0  0  0  0  0  0  0  0  0
    4.3562   -0.2041   -0.1649 C   0  0  0  0  0  0  0  0  0  0  0  0
    5.7424   -0.0293   -0.2217 N   0  0  0  0  0  0  0  0  0  0  0  0
    3.8141   -1.4808   -0.0013 C   0  0  0  0  0  0  0  0  0  0  0  0
    2.4377   -1.6558    0.1770 C   0  0  0  0  0  0  0  0  0  0  0  0
   -4.6039    1.3797    1.0192 H   0  0  0  0  0  0  0  0  0  0  0  0
   -4.6334    2.1016   -0.6030 H   0  0  0  0  0  0  0  0  0  0  0  0
   -5.9630    1.0630   -0.0632 H   0  0  0  0  0  0  0  0  0  0  0  0
   -4.5693   -0.2178   -1.5923 H   0  0  0  0  0  0  0  0  0  0  0  0
   -4.4108   -0.8935    0.0254 H   0  0  0  0  0  0  0  0  0  0  0  0
   -2.2435   -0.7217   -1.2199 H   0  0  0  0  0  0  0  0  0  0  0  0
   -2.4119    1.0129   -1.3203 H   0  0  0  0  0  0  0  0  0  0  0  0
   -2.2771    1.2169    1.1540 H   0  0  0  0  0  0  0  0  0  0  0  0
   -2.2179   -0.5344    1.3371 H   0  0  0  0  0  0  0  0  0  0  0  0
    1.5049    1.6220    0.2032 H   0  0  0  0  0  0  0  0  0  0  0  0
    3.9206    1.9088   -0.0906 H   0  0  0  0  0  0  0  0  0  0  0  0
    6.2439   -0.8242   -0.6059 H   0  0  0  0  0  0  0  0  0  0  0  0
    6.0325    0.8482   -0.6418 H   0  0  0  0  0  0  0  0  0  0  0  0
    4.4592   -2.3557   -0.0116 H   0  0  0  0  0  0  0  0  0  0  0  0
    2.0371   -2.6622    0.2822 H   0  0  0  0  0  0  0  0  0  0  0  0
  1  2  1  0
  2  3  1  0
  3  4  1  0
  4  5  1  0
  5  6  1  0
  6  7  2  0
  6  8  1  0
  8  9  1  0
  9 10  2  0
 10 11  1  0
 11 12  1  0
 11 13  2  0
 13 14  1  0
 14  8  2  0
  1 15  1  0
  1 16  1  0
  1 17  1  0
  2 18  1  0
  2 19  1  0
  3 20  1  0
  3 21  1  0
  4 22  1  0
  4 23  1  0
  9 24  1  0
 10 25  1  0
 12 26  1  0
 12 27  1  0
 13 28  1  0
 14 29  1  0
M  END
$$$$
OCNT-2328752
     RDKit          3D

 43 43  0  0  0  0  0  0  0  0999 V2000
    6.0339    0.1382   -1.8748 C   0  0  0  0  0  0  0  0  0  0  0  0
    5.5016   -0.4411   -0.5731 C   0  0  0  0  0  0  0  0  0  0  0  0
    4.2880   -1.3413   -0.8180 C   0  0  0  0  0  0  0  0  0  0  0  0
    3.7724   -2.0093    0.4592 C   0  0  0  0  0  0  0  0  0  0  0  0
    3.2589   -1.0481    1.4288 N   0  0  0  0  0  0  0  0  0  0  0  0
    2.0634   -0.3593    1.2420 C   0  0  0  0  0  0  0  0  0  0  0  0
    1.8041    0.7585    2.0486 C   0  0  0  0  0  0  0  0  0  0  0  0
    0.5984    1.4637    1.9583 C   0  0  0  0  0  0  0  0  0  0  0  0
   -0.3951    1.0463    1.0694 C   0  0  0  0  0  0  0  0  0  0  0  0
   -1.6613    1.8253    1.0081 C   0  0  0  0  0  0  0  0  0  0  0  0
   -1.8736    2.8238    1.6775 O   0  0  0  0  0  0  0  0  0  0  0  0
   -2.5175    1.2711    0.1154 O   0  0  0  0  0  0  0  0  0  0  0  0
   -3.7844    1.9412    0.0186 C   0  0  0  0  0  0  0  0  0  0  0  0
   -4.6719    1.2254   -1.0140 C   0  0  0  0  0  0  0  0  0  0  0  0
   -5.4164    0.0572   -0.4939 N   0  0  0  0  0  0  0  0  0  0  0  0
   -6.3183   -0.4586   -1.5270 C   0  0  0  0  0  0  0  0  0  0  0  0
   -4.5262   -1.0095   -0.0338 C   0  0  0  0  0  0  0  0  0  0  0  0
   -0.1682   -0.0886    0.2853 C   0  0  0  0  0  0  0  0  0  0  0  0
    1.0437   -0.7867    0.3848 C   0  0  0  0  0  0  0  0  0  0  0  0
    6.8994    0.7787   -1.6786 H   0  0  0  0  0  0  0  0  0  0  0  0
    5.2708    0.7421   -2.3761 H   0  0  0  0  0  0  0  0  0  0  0  0
    6.3479   -0.6567   -2.5589 H   0  0  0  0  0  0  0  0  0  0  0  0
    5.2342    0.3843    0.0959 H   0  0  0  0  0  0  0  0  0  0  0  0
    6.2975   -1.0136   -0.0829 H   0  0  0  0  0  0  0  0  0  0  0  0
    4.5686   -2.1308   -1.5264 H   0  0  0  0  0  0  0  0  0  0  0  0
    3.4917   -0.7591   -1.2959 H   0  0  0  0  0  0  0  0  0  0  0  0
    4.5946   -2.5583    0.9336 H   0  0  0  0  0  0  0  0  0  0  0  0
    3.0160   -2.7639    0.2171 H   0  0  0  0  0  0  0  0  0  0  0  0
    3.9862   -0.4740    1.8470 H   0  0  0  0  0  0  0  0  0  0  0  0
    2.5487    1.0961    2.7661 H   0  0  0  0  0  0  0  0  0  0  0  0
    0.4396    2.3331    2.5932 H   0  0  0  0  0  0  0  0  0  0  0  0
   -3.6064    2.9675   -0.3248 H   0  0  0  0  0  0  0  0  0  0  0  0
   -4.2758    1.9740    0.9985 H   0  0  0  0  0  0  0  0  0  0  0  0
   -5.4106    1.9615   -1.3556 H   0  0  0  0  0  0  0  0  0  0  0  0
   -4.0663    0.9339   -1.8820 H   0  0  0  0  0  0  0  0  0  0  0  0
   -5.7749   -0.8126   -2.4107 H   0  0  0  0  0  0  0  0  0  0  0  0
   -7.0263    0.3155   -1.8435 H   0  0  0  0  0  0  0  0  0  0  0  0
   -6.9190   -1.2874   -1.1358 H   0  0  0  0  0  0  0  0  0  0  0  0
   -5.1052   -1.8855    0.2813 H   0  0  0  0  0  0  0  0  0  0  0  0
   -3.8237   -1.3275   -0.8125 H   0  0  0  0  0  0  0  0  0  0  0  0
   -3.9593   -0.6971    0.8484 H   0  0  0  0  0  0  0  0  0  0  0  0
   -0.9251   -0.4532   -0.4042 H   0  0  0  0  0  0  0  0  0  0  0  0
    1.1656   -1.6753   -0.2268 H   0  0  0  0  0  0  0  0  0  0  0  0
  1  2  1  0
  2  3  1  0
  3  4  1  0
  4  5  1  0
  5  6  1  0
  6  7  1  0
  7  8  2  0
  8  9  1  0
  9 10  1  0
 10 11  2  0
 10 12  1  0
 12 13  1  0
 13 14  1  0
 14 15  1  0
 15 16  1  0
 15 17  1  0
  9 18  2  0
 18 19  1  0
 19  6  2  0
  1 20  1  0
  1 21  1  0
  1 22  1  0
  2 23  1  0
  2 24  1  0
  3 25  1  0
  3 26  1  0
  4 27  1  0
  4 28  1  0
  5 29  1  0
  7 30  1  0
  8 31  1  0
 13 32  1  0
 13 33  1  0
 14 34  1  0
 14 35  1  0
 16 36  1  0
 16 37  1  0
 16 38  1  0
 17 39  1  0
 17 40  1  0
 17 41  1  0
 18 42  1  0
 19 43  1  0
M  END
$$$$
OCNT-2328759
     RDKit          3D

 18 19  0  0  0  0  0  0  0  0999 V2000
   -1.9010    2.1328   -0.2200 O   0  0  0  0  0  0  0  0  0  0  0  0
   -1.4969    0.8252   -0.2658 C   0  0  0  0  0  0  0  0  0  0  0  0
   -2.5189   -0.1070   -0.3594 C   0  0  0  0  0  0  0  0  0  0  0  0
   -2.1685   -1.4383   -0.3841 C   0  0  0  0  0  0  0  0  0  0  0  0
   -0.8939   -1.8788   -0.3245 N   0  0  0  0  0  0  0  0  0  0  0  0
    0.0930   -0.9708   -0.2482 C   0  0  0  0  0  0  0  0  0  0  0  0
    1.3988   -1.4343   -0.1989 C   0  0  0  0  0  0  0  0  0  0  0  0
    2.4767   -0.5559   -0.1306 C   0  0  0  0  0  0  0  0  0  0  0  0
    4.0822   -1.1714   -0.0728 Cl  0  0  0  0  0  0  0  0  0  0  0  0
    2.2649    0.8157   -0.1144 C   0  0  0  0  0  0  0  0  0  0  0  0
    0.9605    1.3068   -0.1611 C   0  0  0  0  0  0  0  0  0  0  0  0
   -0.1454    0.4231   -0.2201 C   0  0  0  0  0  0  0  0  0  0  0  0
   -1.1733    2.6877    0.0982 H   0  0  0  0  0  0  0  0  0  0  0  0
   -3.5572    0.1993   -0.4035 H   0  0  0  0  0  0  0  0  0  0  0  0
   -2.9244   -2.2154   -0.4517 H   0  0  0  0  0  0  0  0  0  0  0  0
    1.5728   -2.5075   -0.2178 H   0  0  0  0  0  0  0  0  0  0  0  0
    3.1046    1.5045   -0.0703 H   0  0  0  0  0  0  0  0  0  0  0  0
    0.8261    2.3842   -0.1650 H   0  0  0  0  0  0  0  0  0  0  0  0
  1  2  1  0
  2  3  2  0
  3  4  1  0
  4  5  2  0
  5  6  1  0
  6  7  2  0
  7  8  1  0
  8  9  1  0
  8 10  2  0
 10 11  1  0
 11 12  2  0
 12  2  1  0
 12  6  1  0
  1 13  1  0
  3 14  1  0
  4 15  1  0
  7 16  1  0
 10 17  1  0
 11 18  1  0
M  END
$$$$
OCNT-2328764
     RDKit          3D

 25 25  0  0  0  0  0  0  0  0999 V2000
    3.7842   -0.6400    0.0907 C   0  0  0  0  0  0  0  0  0  0  0  0
    2.3017   -0.3963    0.0737 C   0  0  0  0  0  0  0  0  0  0  0  0
    1.5352   -0.7052    1.2073 C   0  0  0  0  0  0  0  0  0  0  0  0
    0.1541   -0.4866    1.2135 C   0  0  0  0  0  0  0  0  0  0  0  0
   -0.5702   -0.7959    2.3305 O   0  0  0  0  0  0  0  0  0  0  0  0
   -0.5060    0.0435    0.0985 C   0  0  0  0  0  0  0  0  0  0  0  0
   -2.0080    0.2828    0.1012 C   0  0  0  0  0  0  0  0  0  0  0  0
   -2.3402    1.7674   -0.0758 C   0  0  0  0  0  0  0  0  0  0  0  0
   -2.7131   -0.5634   -0.9631 C   0  0  0  0  0  0  0  0  0  0  0  0
    0.2675    0.3509   -1.0342 C   0  0  0  0  0  0  0  0  0  0  0  0
    1.6503    0.1347   -1.0476 C   0  0  0  0  0  0  0  0  0  0  0  0
    2.5172    0.5435   -2.4857 Cl  0  0  0  0  0  0  0  0  0  0  0  0
    4.1115   -1.0572    1.0491 H   0  0  0  0  0  0  0  0  0  0  0  0
    4.3273    0.2985   -0.0600 H   0  0  0  0  0  0  0  0  0  0  0  0
    4.0627   -1.3555   -0.6897 H   0  0  0  0  0  0  0  0  0  0  0  0
    2.0247   -1.1179    2.0855 H   0  0  0  0  0  0  0  0  0  0  0  0
    0.0265   -1.1499    3.0096 H   0  0  0  0  0  0  0  0  0  0  0  0
   -2.4262   -0.0187    1.0689 H   0  0  0  0  0  0  0  0  0  0  0  0
   -3.4195    1.9328    0.0121 H   0  0  0  0  0  0  0  0  0  0  0  0
   -1.8449    2.3730    0.6915 H   0  0  0  0  0  0  0  0  0  0  0  0
   -2.0259    2.1457   -1.0545 H   0  0  0  0  0  0  0  0  0  0  0  0
   -2.4142   -0.2808   -1.9782 H   0  0  0  0  0  0  0  0  0  0  0  0
   -2.4849   -1.6270   -0.8312 H   0  0  0  0  0  0  0  0  0  0  0  0
   -3.7996   -0.4427   -0.8922 H   0  0  0  0  0  0  0  0  0  0  0  0
   -0.2101    0.7644   -1.9198 H   0  0  0  0  0  0  0  0  0  0  0  0
  1  2  1  0
  2  3  1  0
  3  4  2  0
  4  5  1  0
  4  6  1  0
  6  7  1  0
  7  8  1  0
  7  9  1  0
  6 10  2  0
 10 11  1  0
 11 12  1  0
 11  2  2  0
  1 13  1  0
  1 14  1  0
  1 15  1  0
  3 16  1  0
  5 17  1  0
  7 18  1  0
  8 19  1  0
  8 20  1  0
  8 21  1  0
  9 22  1  0
  9 23  1  0
  9 24  1  0
 10 25  1  0
M  END
$$$$
OCNT-2328784
     RDKit          3D

 26 27  0  0  0  0  0  0  0  0999 V2000
    4.4072    0.9307    0.7828 C   0  0  0  0  0  0  0  0  0  0  0  0
    3.2752    0.9972   -0.1000 N   0  0  0  0  0  0  0  0  0  0  0  0
    2.2313    0.1174   -0.0066 C   0  0  0  0  0  0  0  0  0  0  0  0
    2.2040   -0.8478    0.7438 O   0  0  0  0  0  0  0  0  0  0  0  0
    1.2322    0.5097   -0.8818 O   0  0  0  0  0  0  0  0  0  0  0  0
    0.1016   -0.3218   -0.8591 C   0  0  0  0  0  0  0  0  0  0  0  0
    0.1465   -1.5124   -1.5884 C   0  0  0  0  0  0  0  0  0  0  0  0
   -0.9752   -2.3326   -1.6211 C   0  0  0  0  0  0  0  0  0  0  0  0
   -2.1354   -1.9535   -0.9419 C   0  0  0  0  0  0  0  0  0  0  0  0
   -2.1956   -0.7459   -0.2228 C   0  0  0  0  0  0  0  0  0  0  0  0
   -3.3685   -0.3636    0.4491 C   0  0  0  0  0  0  0  0  0  0  0  0
   -3.4305    0.8378    1.1563 C   0  0  0  0  0  0  0  0  0  0  0  0
   -2.3209    1.6744    1.2018 C   0  0  0  0  0  0  0  0  0  0  0  0
   -1.1469    1.3093    0.5411 C   0  0  0  0  0  0  0  0  0  0  0  0
   -1.0613    0.0978   -0.1779 C   0  0  0  0  0  0  0  0  0  0  0  0
    4.1443    1.4207    1.7240 H   0  0  0  0  0  0  0  0  0  0  0  0
    4.6799   -0.1097    0.9788 H   0  0  0  0  0  0  0  0  0  0  0  0
    5.2442    1.4545    0.3156 H   0  0  0  0  0  0  0  0  0  0  0  0
    3.1185    1.8177   -0.6681 H   0  0  0  0  0  0  0  0  0  0  0  0
    1.0503   -1.8013   -2.1161 H   0  0  0  0  0  0  0  0  0  0  0  0
   -0.9496   -3.2685   -2.1730 H   0  0  0  0  0  0  0  0  0  0  0  0
   -3.0012   -2.6115   -0.9798 H   0  0  0  0  0  0  0  0  0  0  0  0
   -4.2479   -1.0036    0.4258 H   0  0  0  0  0  0  0  0  0  0  0  0
   -4.3455    1.1178    1.6716 H   0  0  0  0  0  0  0  0  0  0  0  0
   -2.3657    2.6099    1.7530 H   0  0  0  0  0  0  0  0  0  0  0  0
   -0.2908    1.9775    0.5930 H   0  0  0  0  0  0  0  0  0  0  0  0
  1  2  1  0
  2  3  1  0
  3  4  2  0
  3  5  1  0
  5  6  1  0
  6  7  2  0
  7  8  1  0
  8  9  2  0
  9 10  1  0
 10 11  2  0
 11 12  1  0
 12 13  2  0
 13 14  1  0
 14 15  2  0
 15  6  1  0
 15 10  1  0
  1 16  1  0
  1 17  1  0
  1 18  1  0
  2 19  1  0
  7 20  1  0
  8 21  1  0
  9 22  1  0
 11 23  1  0
 12 24  1  0
 13 25  1  0
 14 26  1  0
M  END
$$$$
OCNT-2328787
     RDKit          3D

 60 60  0  0  0  0  0  0  0  0999 V2000
   -8.7588    0.2494   -0.1483 C   0  0  0  0  0  0  0  0  0  0  0  0
   -7.6008   -0.0284   -1.0945 C   0  0  0  0  0  0  0  0  0  0  0  0
   -6.2488   -0.1600   -0.3881 C   0  0  0  0  0  0  0  0  0  0  0  0
   -5.7687    1.1469    0.2487 C   0  0  0  0  0  0  0  0  0  0  0  0
   -4.4215    1.0123    0.9679 C   0  0  0  0  0  0  0  0  0  0  0  0
   -3.2548    0.7137    0.0226 C   0  0  0  0  0  0  0  0  0  0  0  0
   -1.8840    0.8097    0.7016 C   0  0  0  0  0  0  0  0  0  0  0  0
   -1.6816   -0.2321    1.8068 C   0  0  0  0  0  0  0  0  0  0  0  0
   -0.2586   -0.2239    2.3777 C   0  0  0  0  0  0  0  0  0  0  0  0
    0.6664   -1.3011    1.8000 C   0  0  0  0  0  0  0  0  0  0  0  0
    0.9406   -1.1553    0.3031 C   0  0  0  0  0  0  0  0  0  0  0  0
    1.9889   -2.1674   -0.1666 C   0  0  0  0  0  0  0  0  0  0  0  0
    2.2572   -2.1069   -1.6708 C   0  0  0  0  0  0  0  0  0  0  0  0
    2.8329   -0.7928   -2.2110 C   0  0  0  0  0  0  0  0  0  0  0  0
    4.2305   -0.4441   -1.6899 C   0  0  0  0  0  0  0  0  0  0  0  0
    4.2085    0.4998   -0.4919 C   0  0  0  0  0  0  0  0  0  0  0  0
    5.6032    0.8113   -0.0931 N   0  0  0  0  0  0  0  0  0  0  0  0
    6.2361    0.0166    0.8021 C   0  0  0  0  0  0  0  0  0  0  0  0
    7.5404    0.2922    1.1950 C   0  0  0  0  0  0  0  0  0  0  0  0
    8.1939    1.3951    0.6610 C   0  0  0  0  0  0  0  0  0  0  0  0
    7.5323    2.2017   -0.2555 C   0  0  0  0  0  0  0  0  0  0  0  0
    6.2279    1.8903   -0.6212 C   0  0  0  0  0  0  0  0  0  0  0  0
   -8.6711    1.2360    0.3156 H   0  0  0  0  0  0  0  0  0  0  0  0
   -8.8088   -0.5038    0.6442 H   0  0  0  0  0  0  0  0  0  0  0  0
   -9.7058    0.2260   -0.6975 H   0  0  0  0  0  0  0  0  0  0  0  0
   -7.8057   -0.9655   -1.6263 H   0  0  0  0  0  0  0  0  0  0  0  0
   -7.5507    0.7615   -1.8530 H   0  0  0  0  0  0  0  0  0  0  0  0
   -5.5175   -0.4952   -1.1322 H   0  0  0  0  0  0  0  0  0  0  0  0
   -6.3081   -0.9452    0.3753 H   0  0  0  0  0  0  0  0  0  0  0  0
   -5.7007    1.9297   -0.5164 H   0  0  0  0  0  0  0  0  0  0  0  0
   -6.5042    1.4878    0.9860 H   0  0  0  0  0  0  0  0  0  0  0  0
   -4.2221    1.9529    1.4962 H   0  0  0  0  0  0  0  0  0  0  0  0
   -4.5000    0.2293    1.7307 H   0  0  0  0  0  0  0  0  0  0  0  0
   -3.2745    1.4279   -0.8098 H   0  0  0  0  0  0  0  0  0  0  0  0
   -3.3667   -0.2856   -0.4130 H   0  0  0  0  0  0  0  0  0  0  0  0
   -1.1167    0.6933   -0.0705 H   0  0  0  0  0  0  0  0  0  0  0  0
   -1.7530    1.8157    1.1191 H   0  0  0  0  0  0  0  0  0  0  0  0
   -2.3711   -0.0006    2.6276 H   0  0  0  0  0  0  0  0  0  0  0  0
   -1.9464   -1.2331    1.4469 H   0  0  0  0  0  0  0  0  0  0  0  0
   -0.3279   -0.4095    3.4575 H   0  0  0  0  0  0  0  0  0  0  0  0
    0.2003    0.7656    2.2660 H   0  0  0  0  0  0  0  0  0  0  0  0
    1.6178   -1.2560    2.3450 H   0  0  0  0  0  0  0  0  0  0  0  0
    0.2395   -2.2918    1.9994 H   0  0  0  0  0  0  0  0  0  0  0  0
    1.2790   -0.1347    0.0973 H   0  0  0  0  0  0  0  0  0  0  0  0
    0.0157   -1.3169   -0.2615 H   0  0  0  0  0  0  0  0  0  0  0  0
    1.6337   -3.1779    0.0729 H   0  0  0  0  0  0  0  0  0  0  0  0
    2.9238   -2.0369    0.3884 H   0  0  0  0  0  0  0  0  0  0  0  0
    2.9413   -2.9242   -1.9325 H   0  0  0  0  0  0  0  0  0  0  0  0
    1.3200   -2.3148   -2.2028 H   0  0  0  0  0  0  0  0  0  0  0  0
    2.9076   -0.9093   -3.3004 H   0  0  0  0  0  0  0  0  0  0  0  0
    2.1354    0.0362   -2.0480 H   0  0  0  0  0  0  0  0  0  0  0  0
    4.7940   -1.3548   -1.4550 H   0  0  0  0  0  0  0  0  0  0  0  0
    4.7826    0.0498   -2.5001 H   0  0  0  0  0  0  0  0  0  0  0  0
    3.7084    1.4453   -0.7305 H   0  0  0  0  0  0  0  0  0  0  0  0
    3.7096    0.0712    0.3810 H   0  0  0  0  0  0  0  0  0  0  0  0
    5.6903   -0.8373    1.1936 H   0  0  0  0  0  0  0  0  0  0  0  0
    8.0460   -0.3496    1.9135 H   0  0  0  0  0  0  0  0  0  0  0  0
    9.2166    1.6251    0.9581 H   0  0  0  0  0  0  0  0  0  0  0  0
    8.0315    3.0688   -0.6832 H   0  0  0  0  0  0  0  0  0  0  0  0
    5.6764    2.4937   -1.3366 H   0  0  0  0  0  0  0  0  0  0  0  0
  1  2  1  0
  2  3  1  0
  3  4  1  0
  4  5  1  0
  5  6  1  0
  6  7  1  0
  7  8  1  0
  8  9  1  0
  9 10  1  0
 10 11  1  0
 11 12  1  0
 12 13  1  0
 13 14  1  0
 14 15  1  0
 15 16  1  0
 16 17  1  0
 17 18  2  0
 18 19  1  0
 19 20  2  0
 20 21  1  0
 21 22  2  0
 22 17  1  0
  1 23  1  0
  1 24  1  0
  1 25  1  0
  2 26  1  0
  2 27  1  0
  3 28  1  0
  3 29  1  0
  4 30  1  0
  4 31  1  0
  5 32  1  0
  5 33  1  0
  6 34  1  0
  6 35  1  0
  7 36  1  0
  7 37  1  0
  8 38  1  0
  8 39  1  0
  9 40  1  0
  9 41  1  0
 10 42  1  0
 10 43  1  0
 11 44  1  0
 11 45  1  0
 12 46  1  0
 12 47  1  0
 13 48  1  0
 13 49  1  0
 14 50  1  0
 14 51  1  0
 15 52  1  0
 15 53  1  0
 16 54  1  0
 16 55  1  0
 18 56  1  0
 19 57  1  0
 20 58  1  0
 21 59  1  0
 22 60  1  0
M  CHG  1  17   1
M  END
$$$$
OCNT-2328789
     RDKit          3D

 18 19  0  0  0  0  0  0  0  0999 V2000
   -1.3861    2.4288    0.6565 O   0  0  0  0  0  0  0  0  0  0  0  0
   -1.2380    1.1075    0.2923 C   0  0  0  0  0  0  0  0  0  0  0  0
   -2.3564    0.3080    0.0580 C   0  0  0  0  0  0  0  0  0  0  0  0
   -4.3021    1.0417    0.2386 I   0  0  0  0  0  0  0  0  0  0  0  0
   -2.1803   -1.0221   -0.3083 C   0  0  0  0  0  0  0  0  0  0  0  0
   -0.8879   -1.5371   -0.4360 C   0  0  0  0  0  0  0  0  0  0  0  0
   -0.7461   -3.2017   -0.8952 Cl  0  0  0  0  0  0  0  0  0  0  0  0
    0.2532   -0.7298   -0.1992 C   0  0  0  0  0  0  0  0  0  0  0  0
    1.5914   -1.1697   -0.3055 C   0  0  0  0  0  0  0  0  0  0  0  0
    2.6460   -0.2992   -0.0522 C   0  0  0  0  0  0  0  0  0  0  0  0
    2.3424    0.9981    0.3036 C   0  0  0  0  0  0  0  0  0  0  0  0
    1.0813    1.4672    0.4188 N   0  0  0  0  0  0  0  0  0  0  0  0
    0.0614    0.6167    0.1715 C   0  0  0  0  0  0  0  0  0  0  0  0
   -0.4669    2.7584    0.7585 H   0  0  0  0  0  0  0  0  0  0  0  0
   -3.0385   -1.6631   -0.4958 H   0  0  0  0  0  0  0  0  0  0  0  0
    1.8226   -2.1947   -0.5867 H   0  0  0  0  0  0  0  0  0  0  0  0
    3.6762   -0.6286   -0.1315 H   0  0  0  0  0  0  0  0  0  0  0  0
    3.1278    1.7195    0.5124 H   0  0  0  0  0  0  0  0  0  0  0  0
  1  2  1  0
  2  3  1  0
  3  4  1  0
  3  5  2  0
  5  6  1  0
  6  7  1  0
  6  8  2  0
  8  9  1  0
  9 10  2  0
 10 11  1  0
 11 12  2  0
 12 13  1  0
 13  2  2  0
 13  8  1  0
  1 14  1  0
  5 15  1  0
  9 16  1  0
 10 17  1  0
 11 18  1  0
M  END
$$$$
OCNT-2328791
     RDKit          3D

 72 73  0  0  0  0  0  0  0  0999 V2000
    5.3925   -2.5343   -2.1422 C   0  0  0  0  0  0  0  0  0  0  0  0
    5.8938   -1.4018   -1.2096 C   0  0  0  0  0  0  0  0  0  0  0  0
    6.9241   -0.5821   -1.9941 C   0  0  0  0  0  0  0  0  0  0  0  0
    6.5836   -2.0847   -0.0141 C   0  0  0  0  0  0  0  0  0  0  0  0
    4.6350   -0.5822   -0.7782 C   0  0  0  0  0  0  0  0  0  0  0  0
    4.7021    0.8056   -0.0506 C   0  0  0  0  0  0  0  0  0  0  0  0
    5.6969    0.8067    1.1264 C   0  0  0  0  0  0  0  0  0  0  0  0
    5.1530    1.9368   -1.0086 C   0  0  0  0  0  0  0  0  0  0  0  0
    3.2504    1.1116    0.4247 C   0  0  0  0  0  0  0  0  0  0  0  0
    2.2587    1.4882   -0.4988 C   0  0  0  0  0  0  0  0  0  0  0  0
    0.9492    1.7622   -0.0898 C   0  0  0  0  0  0  0  0  0  0  0  0
    0.5829    1.6601    1.2509 C   0  0  0  0  0  0  0  0  0  0  0  0
   -0.7270    1.9486    1.5061 O   0  0  0  0  0  0  0  0  0  0  0  0
   -1.1606    2.0251    2.8671 C   0  0  0  0  0  0  0  0  0  0  0  0
   -1.6282    0.6611    3.3933 C   0  0  0  0  0  0  0  0  0  0  0  0
   -2.4470   -0.0746    2.4744 O   0  0  0  0  0  0  0  0  0  0  0  0
   -3.6950    0.5393    2.1710 C   0  0  0  0  0  0  0  0  0  0  0  0
   -4.4727   -0.3278    1.1633 C   0  0  0  0  0  0  0  0  0  0  0  0
   -3.8493   -0.4109   -0.2581 N   0  0  0  0  0  0  0  0  0  0  0  0
   -3.7927    0.9605   -0.9099 C   0  0  0  0  0  0  0  0  0  0  0  0
   -2.4252   -0.9771   -0.1969 C   0  0  0  0  0  0  0  0  0  0  0  0
   -4.6789   -1.3910   -1.1259 C   0  0  0  0  0  0  0  0  0  0  0  0
   -6.1373   -1.0582   -1.3266 C   0  0  0  0  0  0  0  0  0  0  0  0
   -7.1166   -1.5972   -0.4758 C   0  0  0  0  0  0  0  0  0  0  0  0
   -8.4646   -1.2822   -0.6548 C   0  0  0  0  0  0  0  0  0  0  0  0
   -8.8515   -0.4334   -1.6882 C   0  0  0  0  0  0  0  0  0  0  0  0
   -7.8937    0.0960   -2.5495 C   0  0  0  0  0  0  0  0  0  0  0  0
   -6.5448   -0.2164   -2.3738 C   0  0  0  0  0  0  0  0  0  0  0  0
    1.5422    1.2684    2.1774 C   0  0  0  0  0  0  0  0  0  0  0  0
    2.8561    0.9934    1.7680 C   0  0  0  0  0  0  0  0  0  0  0  0
    4.6598   -3.1707   -1.6325 H   0  0  0  0  0  0  0  0  0  0  0  0
    6.2173   -3.1770   -2.4711 H   0  0  0  0  0  0  0  0  0  0  0  0
    4.9157   -2.1268   -3.0413 H   0  0  0  0  0  0  0  0  0  0  0  0
    6.4524   -0.0310   -2.8147 H   0  0  0  0  0  0  0  0  0  0  0  0
    7.4531    0.1279   -1.3532 H   0  0  0  0  0  0  0  0  0  0  0  0
    7.6907   -1.2312   -2.4342 H   0  0  0  0  0  0  0  0  0  0  0  0
    7.3186   -2.8237   -0.3553 H   0  0  0  0  0  0  0  0  0  0  0  0
    7.1290   -1.3791    0.6157 H   0  0  0  0  0  0  0  0  0  0  0  0
    5.8581   -2.6117    0.6156 H   0  0  0  0  0  0  0  0  0  0  0  0
    4.0304   -1.2554   -0.1502 H   0  0  0  0  0  0  0  0  0  0  0  0
    4.0259   -0.4347   -1.6832 H   0  0  0  0  0  0  0  0  0  0  0  0
    5.5331   -0.0406    1.8010 H   0  0  0  0  0  0  0  0  0  0  0  0
    5.6127    1.7266    1.7180 H   0  0  0  0  0  0  0  0  0  0  0  0
    6.7342    0.7620    0.7815 H   0  0  0  0  0  0  0  0  0  0  0  0
    4.6571    1.8780   -1.9832 H   0  0  0  0  0  0  0  0  0  0  0  0
    6.2291    1.9173   -1.1991 H   0  0  0  0  0  0  0  0  0  0  0  0
    4.9319    2.9236   -0.5833 H   0  0  0  0  0  0  0  0  0  0  0  0
    2.4914    1.5777   -1.5573 H   0  0  0  0  0  0  0  0  0  0  0  0
    0.2176    2.0715   -0.8308 H   0  0  0  0  0  0  0  0  0  0  0  0
   -0.4144    2.4864    3.5243 H   0  0  0  0  0  0  0  0  0  0  0  0
   -2.0113    2.7156    2.8679 H   0  0  0  0  0  0  0  0  0  0  0  0
   -0.7577    0.0265    3.5847 H   0  0  0  0  0  0  0  0  0  0  0  0
   -2.1582    0.7761    4.3455 H   0  0  0  0  0  0  0  0  0  0  0  0
   -3.5561    1.5482    1.7758 H   0  0  0  0  0  0  0  0  0  0  0  0
   -4.2791    0.6130    3.0955 H   0  0  0  0  0  0  0  0  0  0  0  0
   -5.4774    0.0896    1.0470 H   0  0  0  0  0  0  0  0  0  0  0  0
   -4.5400   -1.3593    1.5276 H   0  0  0  0  0  0  0  0  0  0  0  0
   -3.0476    1.5713   -0.3933 H   0  0  0  0  0  0  0  0  0  0  0  0
   -4.7759    1.4318   -0.8333 H   0  0  0  0  0  0  0  0  0  0  0  0
   -3.4991    0.8362   -1.9567 H   0  0  0  0  0  0  0  0  0  0  0  0
   -2.4378   -1.8876    0.4085 H   0  0  0  0  0  0  0  0  0  0  0  0
   -1.7530   -0.2253    0.2166 H   0  0  0  0  0  0  0  0  0  0  0  0
   -2.1037   -1.2060   -1.2181 H   0  0  0  0  0  0  0  0  0  0  0  0
   -4.1818   -1.4531   -2.1031 H   0  0  0  0  0  0  0  0  0  0  0  0
   -4.5833   -2.3803   -0.6592 H   0  0  0  0  0  0  0  0  0  0  0  0
   -6.8474   -2.2785    0.3293 H   0  0  0  0  0  0  0  0  0  0  0  0
   -9.2191   -1.7072    0.0042 H   0  0  0  0  0  0  0  0  0  0  0  0
   -9.9035   -0.1951   -1.8316 H   0  0  0  0  0  0  0  0  0  0  0  0
   -8.2037    0.7443   -3.3665 H   0  0  0  0  0  0  0  0  0  0  0  0
   -5.8235    0.1963   -3.0765 H   0  0  0  0  0  0  0  0  0  0  0  0
    1.3191    1.1598    3.2329 H   0  0  0  0  0  0  0  0  0  0  0  0
    3.5608    0.6849    2.5364 H   0  0  0  0  0  0  0  0  0  0  0  0
  1  2  1  0
  2  3  1  0
  2  4  1  0
  2  5  1  0
  5  6  1  0
  6  7  1  0
  6  8  1  0
  6  9  1  0
  9 10  1  0
 10 11  2  0
 11 12  1  0
 12 13  1  0
 13 14  1  0
 14 15  1  0
 15 16  1  0
 16 17  1  0
 17 18  1  0
 18 19  1  0
 19 20  1  0
 19 21  1  0
 19 22  1  0
 22 23  1  0
 23 24  2  0
 24 25  1  0
 25 26  2  0
 26 27  1  0
 27 28  2  0
 12 29  2  0
 29 30  1  0
 30  9  2  0
 28 23  1  0
  1 31  1  0
  1 32  1  0
  1 33  1  0
  3 34  1  0
  3 35  1  0
  3 36  1  0
  4 37  1  0
  4 38  1  0
  4 39  1  0
  5 40  1  0
  5 41  1  0
  7 42  1  0
  7 43  1  0
  7 44  1  0
  8 45  1  0
  8 46  1  0
  8 47  1  0
 10 48  1  0
 11 49  1  0
 14 50  1  0
 14 51  1  0
 15 52  1  0
 15 53  1  0
 17 54  1  0
 17 55  1  0
 18 56  1  0
 18 57  1  0
 20 58  1  0
 20 59  1  0
 20 60  1  0
 21 61  1  0
 21 62  1  0
 21 63  1  0
 22 64  1  0
 22 65  1  0
 24 66  1  0
 25 67  1  0
 26 68  1  0
 27 69  1  0
 28 70  1  0
 29 71  1  0
 30 72  1  0
M  CHG  1  19   1
M  END
$$$$
OCNT-2328794
     RDKit          3D

 21 22  0  0  0  0  0  0  0  0999 V2000
    3.3435    0.3532    0.6388 C   0  0  0  0  0  0  0  0  0  0  0  0
    1.9127   -0.0715    0.5209 C   0  0  0  0  0  0  0  0  0  0  0  0
    1.4834   -1.2926    0.8636 C   0  0  0  0  0  0  0  0  0  0  0  0
    0.0713   -1.7025    0.7442 C   0  0  0  0  0  0  0  0  0  0  0  0
   -0.2731   -2.8310    1.0706 O   0  0  0  0  0  0  0  0  0  0  0  0
   -0.8894   -0.7137    0.2248 C   0  0  0  0  0  0  0  0  0  0  0  0
   -2.2400   -1.0630    0.0958 C   0  0  0  0  0  0  0  0  0  0  0  0
   -3.1571   -0.1325   -0.3955 C   0  0  0  0  0  0  0  0  0  0  0  0
   -2.7294    1.1446   -0.7578 C   0  0  0  0  0  0  0  0  0  0  0  0
   -1.3836    1.4938   -0.6297 C   0  0  0  0  0  0  0  0  0  0  0  0
   -0.4602    0.5620   -0.1368 C   0  0  0  0  0  0  0  0  0  0  0  0
    0.9609    0.9437   -0.0060 C   0  0  0  0  0  0  0  0  0  0  0  0
    1.3414    2.0644   -0.3230 O   0  0  0  0  0  0  0  0  0  0  0  0
    3.4355    1.2094    1.3150 H   0  0  0  0  0  0  0  0  0  0  0  0
    3.7417    0.6371   -0.3409 H   0  0  0  0  0  0  0  0  0  0  0  0
    3.9758   -0.4496    1.0332 H   0  0  0  0  0  0  0  0  0  0  0  0
    2.1548   -2.0520    1.2503 H   0  0  0  0  0  0  0  0  0  0  0  0
   -2.5801   -2.0583    0.3769 H   0  0  0  0  0  0  0  0  0  0  0  0
   -4.2058   -0.4043   -0.4954 H   0  0  0  0  0  0  0  0  0  0  0  0
   -3.4441    1.8699   -1.1407 H   0  0  0  0  0  0  0  0  0  0  0  0
   -1.0581    2.4929   -0.9148 H   0  0  0  0  0  0  0  0  0  0  0  0
  1  2  1  0
  2  3  2  0
  3  4  1  0
  4  5  2  0
  4  6  1  0
  6  7  2  0
  7  8  1  0
  8  9  2  0
  9 10  1  0
 10 11  2  0
 11 12  1  0
 12 13  2  0
 12  2  1  0
 11  6  1  0
  1 14  1  0
  1 15  1  0
  1 16  1  0
  3 17  1  0
  7 18  1  0
  8 19  1  0
  9 20  1  0
 10 21  1  0
M  END
$$$$
OCNT-2328824
     RDKit          3D

 37 40  0  0  0  0  0  0  0  0999 V2000
    1.6676    2.0492    1.6199 O   0  0  0  0  0  0  0  0  0  0  0  0
    1.8953    0.8579    1.6355 C   0  0  0  0  0  0  0  0  0  0  0  0
    1.7170    0.0685    2.7044 O   0  0  0  0  0  0  0  0  0  0  0  0
    2.3448    0.0537    0.4928 C   0  0  0  0  0  0  0  0  0  0  0  0
    3.7006   -0.2844    0.3756 C   0  0  0  0  0  0  0  0  0  0  0  0
    4.8349    0.2638    1.5739 Cl  0  0  0  0  0  0  0  0  0  0  0  0
    4.1273   -1.0532   -0.7207 C   0  0  0  0  0  0  0  0  0  0  0  0
    5.8076   -1.4839   -0.8766 Cl  0  0  0  0  0  0  0  0  0  0  0  0
    3.1973   -1.4728   -1.6928 C   0  0  0  0  0  0  0  0  0  0  0  0
    3.7239   -2.4274   -3.0509 Cl  0  0  0  0  0  0  0  0  0  0  0  0
    1.8389   -1.1183   -1.5691 C   0  0  0  0  0  0  0  0  0  0  0  0
    0.6805   -1.6311   -2.7651 Cl  0  0  0  0  0  0  0  0  0  0  0  0
    1.3992   -0.3440   -0.4744 C   0  0  0  0  0  0  0  0  0  0  0  0
   -0.0452    0.0309   -0.3192 C   0  0  0  0  0  0  0  0  0  0  0  0
   -0.5216    1.1865   -0.8614 C   0  0  0  0  0  0  0  0  0  0  0  0
    0.3471    2.1051   -1.6045 C   0  0  0  0  0  0  0  0  0  0  0  0
   -0.1016    3.2473   -2.1463 C   0  0  0  0  0  0  0  0  0  0  0  0
    1.1749    4.4961   -3.1765 I   0  0  0  0  0  0  0  0  0  0  0  0
   -1.5402    3.6331   -2.0120 C   0  0  0  0  0  0  0  0  0  0  0  0
   -1.9718    4.6678   -2.5133 O   0  0  0  0  0  0  0  0  0  0  0  0
   -2.4268    2.6977   -1.2442 C   0  0  0  0  0  0  0  0  0  0  0  0
   -4.4279    3.2460   -1.0496 I   0  0  0  0  0  0  0  0  0  0  0  0
   -1.9375    1.5586   -0.7138 C   0  0  0  0  0  0  0  0  0  0  0  0
   -2.7901    0.7161   -0.0142 O   0  0  0  0  0  0  0  0  0  0  0  0
   -2.3375   -0.4492    0.5410 C   0  0  0  0  0  0  0  0  0  0  0  0
   -3.2600   -1.2506    1.2378 C   0  0  0  0  0  0  0  0  0  0  0  0
   -5.2798   -0.6574    1.4079 I   0  0  0  0  0  0  0  0  0  0  0  0
   -2.8450   -2.4502    1.8272 C   0  0  0  0  0  0  0  0  0  0  0  0
   -3.7212   -3.2486    2.5128 O   0  0  0  0  0  0  0  0  0  0  0  0
   -1.5112   -2.8418    1.7167 C   0  0  0  0  0  0  0  0  0  0  0  0
   -0.8007   -4.6172    2.5697 I   0  0  0  0  0  0  0  0  0  0  0  0
   -0.5983   -2.0410    1.0207 C   0  0  0  0  0  0  0  0  0  0  0  0
   -1.0014   -0.8340    0.4237 C   0  0  0  0  0  0  0  0  0  0  0  0
    1.4312    0.6692    3.4270 H   0  0  0  0  0  0  0  0  0  0  0  0
    1.3989    1.8673   -1.7199 H   0  0  0  0  0  0  0  0  0  0  0  0
   -4.6031   -2.8356    2.4826 H   0  0  0  0  0  0  0  0  0  0  0  0
    0.4341   -2.3739    0.9554 H   0  0  0  0  0  0  0  0  0  0  0  0
  1  2  2  0
  2  3  1  0
  2  4  1  0
  4  5  2  0
  5  6  1  0
  5  7  1  0
  7  8  1  0
  7  9  2  0
  9 10  1  0
  9 11  1  0
 11 12  1  0
 11 13  2  0
 13 14  1  0
 14 15  2  0
 15 16  1  0
 16 17  2  0
 17 18  1  0
 17 19  1  0
 19 20  2  0
 19 21  1  0
 21 22  1  0
 21 23  2  0
 23 24  1  0
 24 25  1  0
 25 26  1  0
 26 27  1  0
 26 28  2  0
 28 29  1  0
 28 30  1  0
 30 31  1  0
 30 32  2  0
 32 33  1  0
 13  4  1  0
 33 14  1  0
 23 15  1  0
 33 25  2  0
  3 34  1  0
 16 35  1  0
 29 36  1  0
 32 37  1  0
M  END
$$$$
OCNT-2328827
     RDKit          3D

 32 33  0  0  0  0  0  0  0  0999 V2000
   -4.0866   -0.6475   -0.3765 C   0  0  0  0  0  0  0  0  0  0  0  0
   -3.1433    0.4136    0.1772 C   0  0  0  0  0  0  0  0  0  0  0  0
   -3.7862    1.2442    1.2795 C   0  0  0  0  0  0  0  0  0  0  0  0
   -2.6263    1.2450   -0.8689 N   0  0  0  0  0  0  0  0  0  0  0  0
   -1.2728    1.0848   -1.0553 C   0  0  0  0  0  0  0  0  0  0  0  0
   -0.6969    1.6717   -1.9577 O   0  0  0  0  0  0  0  0  0  0  0  0
   -0.7878    0.1996   -0.1170 N   0  0  0  0  0  0  0  0  0  0  0  0
    0.5797   -0.2028    0.0171 C   0  0  0  0  0  0  0  0  0  0  0  0
    0.9605   -1.2415    0.8838 C   0  0  0  0  0  0  0  0  0  0  0  0
    2.2974   -1.6335    1.0245 C   0  0  0  0  0  0  0  0  0  0  0  0
    3.2894   -0.9833    0.2882 C   0  0  0  0  0  0  0  0  0  0  0  0
    4.6684   -1.4027    0.4977 N   0  0  0  0  0  0  0  0  0  0  0  0
    5.4863   -0.5206    0.7803 O   0  0  0  0  0  0  0  0  0  0  0  0
    4.9081   -2.6127    0.4049 O   0  0  0  0  0  0  0  0  0  0  0  0
    2.9696    0.0431   -0.6050 C   0  0  0  0  0  0  0  0  0  0  0  0
    4.0148    0.7448   -1.4344 C   0  0  0  0  0  0  0  0  0  0  0  0
    4.9470   -0.1050   -1.9416 F   0  0  0  0  0  0  0  0  0  0  0  0
    3.4867    1.3815   -2.5176 F   0  0  0  0  0  0  0  0  0  0  0  0
    4.6832    1.7000   -0.7389 F   0  0  0  0  0  0  0  0  0  0  0  0
    1.6107    0.4225   -0.7152 C   0  0  0  0  0  0  0  0  0  0  0  0
   -1.8407   -0.2366    0.6701 C   0  0  0  0  0  0  0  0  0  0  0  0
   -1.8196   -1.0104    1.6212 O   0  0  0  0  0  0  0  0  0  0  0  0
   -4.9624   -0.1882   -0.8482 H   0  0  0  0  0  0  0  0  0  0  0  0
   -4.4372   -1.3182    0.4157 H   0  0  0  0  0  0  0  0  0  0  0  0
   -3.5918   -1.2673   -1.1336 H   0  0  0  0  0  0  0  0  0  0  0  0
   -4.1340    0.6104    2.1027 H   0  0  0  0  0  0  0  0  0  0  0  0
   -3.0763    1.9659    1.7007 H   0  0  0  0  0  0  0  0  0  0  0  0
   -4.6435    1.8098    0.8978 H   0  0  0  0  0  0  0  0  0  0  0  0
   -3.1678    1.8257   -1.4976 H   0  0  0  0  0  0  0  0  0  0  0  0
    0.2349   -1.7941    1.4748 H   0  0  0  0  0  0  0  0  0  0  0  0
    2.5468   -2.4408    1.7121 H   0  0  0  0  0  0  0  0  0  0  0  0
    1.3897    1.2426   -1.3970 H   0  0  0  0  0  0  0  0  0  0  0  0
  1  2  1  0
  2  3  1  0
  2  4  1  0
  4  5  1  0
  5  6  2  0
  5  7  1  0
  7  8  1  0
  8  9  1  0
  9 10  2  0
 10 11  1  0
 11 12  1  0
 12 13  2  0
 12 14  1  0
 11 15  2  0
 15 16  1  0
 16 17  1  0
 16 18  1  0
 16 19  1  0
 15 20  1  0
  7 21  1  0
 21 22  2  0
 21  2  1  0
 20  8  2  0
  1 23  1  0
  1 24  1  0
  1 25  1  0
  3 26  1  0
  3 27  1  0
  3 28  1  0
  4 29  1  0
  9 30  1  0
 10 31  1  0
 20 32  1  0
M  CHG  2  12   1  14  -1
M  END
$$$$
OCNT-2328838
     RDKit          3D

 24 25  0  0  0  0  0  0  0  0999 V2000
    5.1416    0.9017   -0.3665 O   0  0  0  0  0  0  0  0  0  0  0  0
    4.5360   -0.1520   -0.1234 N   0  0  0  0  0  0  0  0  0  0  0  0
    5.0830   -1.2444    0.0858 O   0  0  0  0  0  0  0  0  0  0  0  0
    3.0695   -0.1029   -0.0802 C   0  0  0  0  0  0  0  0  0  0  0  0
    2.3435   -1.2635    0.2085 C   0  0  0  0  0  0  0  0  0  0  0  0
    0.9462   -1.2096    0.2475 C   0  0  0  0  0  0  0  0  0  0  0  0
    0.2563   -0.0086    0.0026 C   0  0  0  0  0  0  0  0  0  0  0  0
   -1.2145    0.0407    0.0459 C   0  0  0  0  0  0  0  0  0  0  0  0
   -1.9915   -0.8388   -0.7266 C   0  0  0  0  0  0  0  0  0  0  0  0
   -3.3877   -0.7922   -0.6864 C   0  0  0  0  0  0  0  0  0  0  0  0
   -4.0312    0.1351    0.1288 C   0  0  0  0  0  0  0  0  0  0  0  0
   -3.2803    1.0157    0.9030 C   0  0  0  0  0  0  0  0  0  0  0  0
   -1.8841    0.9687    0.8610 C   0  0  0  0  0  0  0  0  0  0  0  0
    1.0094    1.1440   -0.2848 C   0  0  0  0  0  0  0  0  0  0  0  0
    2.4071    1.1043   -0.3281 C   0  0  0  0  0  0  0  0  0  0  0  0
    2.8423   -2.2100    0.4069 H   0  0  0  0  0  0  0  0  0  0  0  0
    0.3918   -2.1168    0.4847 H   0  0  0  0  0  0  0  0  0  0  0  0
   -1.5108   -1.5645   -1.3798 H   0  0  0  0  0  0  0  0  0  0  0  0
   -3.9710   -1.4790   -1.2944 H   0  0  0  0  0  0  0  0  0  0  0  0
   -5.1170    0.1715    0.1608 H   0  0  0  0  0  0  0  0  0  0  0  0
   -3.7796    1.7388    1.5428 H   0  0  0  0  0  0  0  0  0  0  0  0
   -1.3184    1.6593    1.4834 H   0  0  0  0  0  0  0  0  0  0  0  0
    0.5039    2.0868   -0.4908 H   0  0  0  0  0  0  0  0  0  0  0  0
    2.9555    2.0156   -0.5573 H   0  0  0  0  0  0  0  0  0  0  0  0
  1  2  2  0
  2  3  1  0
  2  4  1  0
  4  5  1  0
  5  6  2  0
  6  7  1  0
  7  8  1  0
  8  9  2  0
  9 10  1  0
 10 11  2  0
 11 12  1  0
 12 13  2  0
  7 14  2  0
 14 15  1  0
 15  4  2  0
 13  8  1  0
  5 16  1  0
  6 17  1  0
  9 18  1  0
 10 19  1  0
 11 20  1  0
 12 21  1  0
 13 22  1  0
 14 23  1  0
 15 24  1  0
M  CHG  2   2   1   3  -1
M  END
$$$$
OCNT-2328854
     RDKit          3D

 31 32  0  0  0  0  0  0  0  0999 V2000
   -0.4503   -1.6652   -1.2284 C   0  0  0  0  0  0  0  0  0  0  0  0
   -0.8149   -1.0271    0.1314 C   0  0  0  0  0  0  0  0  0  0  0  0
   -1.8967   -1.9410    0.7625 C   0  0  0  0  0  0  0  0  0  0  0  0
    0.4422   -1.0614    1.0411 C   0  0  0  0  0  0  0  0  0  0  0  0
    0.4113   -1.5596    2.1686 O   0  0  0  0  0  0  0  0  0  0  0  0
    1.7451   -0.4951    0.5917 C   0  0  0  0  0  0  0  0  0  0  0  0
    1.8851    0.5535   -0.3176 C   0  0  0  0  0  0  0  0  0  0  0  0
    3.1613    1.0016   -0.6608 C   0  0  0  0  0  0  0  0  0  0  0  0
    4.2583    0.3867   -0.0804 C   0  0  0  0  0  0  0  0  0  0  0  0
    4.1618   -0.6238    0.8075 N   0  0  0  0  0  0  0  0  0  0  0  0
    2.9096   -1.0334    1.1321 C   0  0  0  0  0  0  0  0  0  0  0  0
   -1.4165    0.3764    0.0412 C   0  0  0  0  0  0  0  0  0  0  0  0
   -1.9197    0.9199   -1.1486 C   0  0  0  0  0  0  0  0  0  0  0  0
   -2.4591    2.2048   -1.1612 C   0  0  0  0  0  0  0  0  0  0  0  0
   -2.4892    2.9173    0.0229 C   0  0  0  0  0  0  0  0  0  0  0  0
   -2.0303    2.4336    1.1933 N   0  0  0  0  0  0  0  0  0  0  0  0
   -1.5209    1.1807    1.1810 C   0  0  0  0  0  0  0  0  0  0  0  0
    0.0861   -2.6114   -1.0867 H   0  0  0  0  0  0  0  0  0  0  0  0
   -1.3442   -1.8863   -1.8237 H   0  0  0  0  0  0  0  0  0  0  0  0
    0.1889   -1.0190   -1.8382 H   0  0  0  0  0  0  0  0  0  0  0  0
   -2.8065   -1.9658    0.1504 H   0  0  0  0  0  0  0  0  0  0  0  0
   -2.1882   -1.6020    1.7641 H   0  0  0  0  0  0  0  0  0  0  0  0
   -1.5343   -2.9710    0.8645 H   0  0  0  0  0  0  0  0  0  0  0  0
    1.0312    1.0536   -0.7596 H   0  0  0  0  0  0  0  0  0  0  0  0
    3.2960    1.8196   -1.3607 H   0  0  0  0  0  0  0  0  0  0  0  0
    5.2706    0.7029   -0.3165 H   0  0  0  0  0  0  0  0  0  0  0  0
    2.8747   -1.8401    1.8616 H   0  0  0  0  0  0  0  0  0  0  0  0
   -1.9103    0.3599   -2.0796 H   0  0  0  0  0  0  0  0  0  0  0  0
   -2.8524    2.6373   -2.0746 H   0  0  0  0  0  0  0  0  0  0  0  0
   -2.8997    3.9220    0.0646 H   0  0  0  0  0  0  0  0  0  0  0  0
   -1.1889    0.8324    2.1579 H   0  0  0  0  0  0  0  0  0  0  0  0
  1  2  1  0
  2  3  1  0
  2  4  1  0
  4  5  2  0
  4  6  1  0
  6  7  1  0
  7  8  2  0
  8  9  1  0
  9 10  2  0
 10 11  1  0
  2 12  1  0
 12 13  1  0
 13 14  2  0
 14 15  1  0
 15 16  2  0
 16 17  1  0
 11  6  2  0
 17 12  2  0
  1 18  1  0
  1 19  1  0
  1 20  1  0
  3 21  1  0
  3 22  1  0
  3 23  1  0
  7 24  1  0
  8 25  1  0
  9 26  1  0
 11 27  1  0
 13 28  1  0
 14 29  1  0
 15 30  1  0
 17 31  1  0
M  END
$$$$
OCNT-2328864
     RDKit          3D

 40 42  0  0  0  0  0  0  0  0999 V2000
    2.8514   -2.4539    1.0128 C   0  0  0  0  0  0  0  0  0  0  0  0
    1.6157   -2.4397    0.2500 N   0  0  0  0  0  0  0  0  0  0  0  0
    1.7367   -1.8036   -1.0601 C   0  0  0  0  0  0  0  0  0  0  0  0
    2.1650   -0.3310   -1.0810 C   0  0  0  0  0  0  0  0  0  0  0  0
    1.2478    0.6074   -0.2805 C   0  0  2  0  0  0  0  0  0  0  0  0
   -0.0731    0.5735   -0.8442 O   0  0  0  0  0  0  0  0  0  0  0  0
   -1.1122    0.4541    0.0498 C   0  0  0  0  0  0  0  0  0  0  0  0
   -1.1558    1.1826    1.2431 C   0  0  0  0  0  0  0  0  0  0  0  0
   -2.2303    1.0350    2.1162 C   0  0  0  0  0  0  0  0  0  0  0  0
   -3.2763    0.1726    1.7944 C   0  0  0  0  0  0  0  0  0  0  0  0
   -3.2735   -0.5405    0.5864 C   0  0  0  0  0  0  0  0  0  0  0  0
   -4.3408   -1.3925    0.2565 C   0  0  0  0  0  0  0  0  0  0  0  0
   -4.3511   -2.0951   -0.9484 C   0  0  0  0  0  0  0  0  0  0  0  0
   -3.2961   -1.9523   -1.8411 C   0  0  0  0  0  0  0  0  0  0  0  0
   -2.2278   -1.1106   -1.5261 C   0  0  0  0  0  0  0  0  0  0  0  0
   -2.1870   -0.3944   -0.3105 C   0  0  0  0  0  0  0  0  0  0  0  0
    1.7662    2.0311   -0.3376 C   0  0  0  0  0  0  0  0  0  0  0  0
    2.4610    2.7088    0.6492 C   0  0  0  0  0  0  0  0  0  0  0  0
    2.8050    4.0364    0.2643 C   0  0  0  0  0  0  0  0  0  0  0  0
    2.3688    4.3323   -1.0065 C   0  0  0  0  0  0  0  0  0  0  0  0
    1.5544    3.0160   -1.7291 S   0  0  0  0  0  0  0  0  0  0  0  0
    3.6656   -2.9147    0.4442 H   0  0  0  0  0  0  0  0  0  0  0  0
    2.7095   -3.0488    1.9205 H   0  0  0  0  0  0  0  0  0  0  0  0
    3.1534   -1.4489    1.3221 H   0  0  0  0  0  0  0  0  0  0  0  0
    0.8584   -2.0200    0.7887 H   0  0  0  0  0  0  0  0  0  0  0  0
    0.7730   -1.9052   -1.5702 H   0  0  0  0  0  0  0  0  0  0  0  0
    2.4454   -2.3808   -1.6673 H   0  0  0  0  0  0  0  0  0  0  0  0
    3.1979   -0.2403   -0.7218 H   0  0  0  0  0  0  0  0  0  0  0  0
    2.1790   -0.0201   -2.1343 H   0  0  0  0  0  0  0  0  0  0  0  0
    1.2478    0.2714    0.7650 H   0  0  0  0  0  0  0  0  0  0  0  0
   -0.3746    1.8900    1.5006 H   0  0  0  0  0  0  0  0  0  0  0  0
   -2.2599    1.6016    3.0433 H   0  0  0  0  0  0  0  0  0  0  0  0
   -4.1074    0.0733    2.4895 H   0  0  0  0  0  0  0  0  0  0  0  0
   -5.1793   -1.5133    0.9389 H   0  0  0  0  0  0  0  0  0  0  0  0
   -5.1846   -2.7493   -1.1898 H   0  0  0  0  0  0  0  0  0  0  0  0
   -3.3005   -2.4926   -2.7839 H   0  0  0  0  0  0  0  0  0  0  0  0
   -1.4176   -1.0089   -2.2451 H   0  0  0  0  0  0  0  0  0  0  0  0
    2.7109    2.2717    1.6088 H   0  0  0  0  0  0  0  0  0  0  0  0
    3.3454    4.7389    0.8869 H   0  0  0  0  0  0  0  0  0  0  0  0
    2.4895    5.2593   -1.5501 H   0  0  0  0  0  0  0  0  0  0  0  0
  1  2  1  0
  2  3  1  0
  3  4  1  0
  4  5  1  0
  5  6  1  0
  6  7  1  0
  7  8  2  0
  8  9  1  0
  9 10  2  0
 10 11  1  0
 11 12  2  0
 12 13  1  0
 13 14  2  0
 14 15  1  0
 15 16  2  0
  5 17  1  0
 17 18  2  0
 18 19  1  0
 19 20  2  0
 20 21  1  0
 16  7  1  0
 21 17  1  0
 16 11  1  0
  1 22  1  0
  1 23  1  0
  1 24  1  0
  2 25  1  0
  3 26  1  0
  3 27  1  0
  4 28  1  0
  4 29  1  0
  5 30  1  1
  8 31  1  0
  9 32  1  0
 10 33  1  0
 12 34  1  0
 13 35  1  0
 14 36  1  0
 15 37  1  0
 18 38  1  0
 19 39  1  0
 20 40  1  0
M  END
$$$$
OCNT-2328870
     RDKit          3D

 44 47  0  0  0  0  0  0  0  0999 V2000
    4.4098   -0.6901   -1.9336 C   0  0  0  0  0  0  0  0  0  0  0  0
    3.5988   -0.5468   -0.7263 N   0  0  0  0  0  0  0  0  0  0  0  0
    2.9707    0.7850   -0.6778 C   0  0  0  0  0  0  0  0  0  0  0  0
    2.1043    0.9807    0.5792 C   0  0  0  0  0  0  0  0  0  0  0  0
    1.0465   -0.1088    0.7058 C   0  0  0  0  0  0  0  0  0  0  0  0
   -0.2895    0.1123    0.8504 C   0  0  0  0  0  0  0  0  0  0  0  0
   -1.2226   -1.0397    0.8617 C   0  0  0  0  0  0  0  0  0  0  0  0
   -1.3241   -1.8826    1.9754 C   0  0  0  0  0  0  0  0  0  0  0  0
   -2.2144   -2.9559    1.9614 C   0  0  0  0  0  0  0  0  0  0  0  0
   -3.0130   -3.1842    0.8415 C   0  0  0  0  0  0  0  0  0  0  0  0
   -2.9326   -2.3351   -0.2639 C   0  0  0  0  0  0  0  0  0  0  0  0
   -2.0428   -1.2534   -0.2594 C   0  0  0  0  0  0  0  0  0  0  0  0
   -1.9745   -0.2921   -1.4201 C   0  0  0  0  0  0  0  0  0  0  0  0
   -2.5331    1.0900   -1.0576 C   0  0  0  0  0  0  0  0  0  0  0  0
   -1.8620    1.9202    0.0188 C   0  0  0  0  0  0  0  0  0  0  0  0
   -0.8516    1.4900    0.8915 C   0  0  0  0  0  0  0  0  0  0  0  0
   -0.3460    2.2806    1.8782 N   0  0  0  0  0  0  0  0  0  0  0  0
   -0.8278    3.5332    1.9974 C   0  0  0  0  0  0  0  0  0  0  0  0
   -1.8085    4.0546    1.1801 C   0  0  0  0  0  0  0  0  0  0  0  0
   -2.3306    3.2361    0.1860 C   0  0  0  0  0  0  0  0  0  0  0  0
    1.7009   -1.4810    0.5993 C   0  0  0  0  0  0  0  0  0  0  0  0
    2.5679   -1.5968   -0.6654 C   0  0  0  0  0  0  0  0  0  0  0  0
    5.2011    0.0674   -1.9571 H   0  0  0  0  0  0  0  0  0  0  0  0
    4.9086   -1.6655   -1.9478 H   0  0  0  0  0  0  0  0  0  0  0  0
    3.8139   -0.5945   -2.8484 H   0  0  0  0  0  0  0  0  0  0  0  0
    3.7522    1.5549   -0.6731 H   0  0  0  0  0  0  0  0  0  0  0  0
    2.3545    0.9542   -1.5717 H   0  0  0  0  0  0  0  0  0  0  0  0
    2.7402    0.9558    1.4736 H   0  0  0  0  0  0  0  0  0  0  0  0
    1.6831    1.9869    0.5218 H   0  0  0  0  0  0  0  0  0  0  0  0
   -0.7076   -1.7025    2.8531 H   0  0  0  0  0  0  0  0  0  0  0  0
   -2.2864   -3.6112    2.8253 H   0  0  0  0  0  0  0  0  0  0  0  0
   -3.7076   -4.0204    0.8335 H   0  0  0  0  0  0  0  0  0  0  0  0
   -3.5750   -2.5188   -1.1215 H   0  0  0  0  0  0  0  0  0  0  0  0
   -2.5549   -0.6931   -2.2609 H   0  0  0  0  0  0  0  0  0  0  0  0
   -0.9420   -0.2165   -1.7843 H   0  0  0  0  0  0  0  0  0  0  0  0
   -3.5855    0.9700   -0.7648 H   0  0  0  0  0  0  0  0  0  0  0  0
   -2.5269    1.6858   -1.9805 H   0  0  0  0  0  0  0  0  0  0  0  0
   -0.3892    4.1231    2.7967 H   0  0  0  0  0  0  0  0  0  0  0  0
   -2.1661    5.0683    1.3185 H   0  0  0  0  0  0  0  0  0  0  0  0
   -3.1180    3.6229   -0.4575 H   0  0  0  0  0  0  0  0  0  0  0  0
    0.9805   -2.3025    0.5796 H   0  0  0  0  0  0  0  0  0  0  0  0
    2.3244   -1.6385    1.4892 H   0  0  0  0  0  0  0  0  0  0  0  0
    1.9231   -1.5609   -1.5543 H   0  0  0  0  0  0  0  0  0  0  0  0
    3.0521   -2.5811   -0.6551 H   0  0  0  0  0  0  0  0  0  0  0  0
  1  2  1  0
  2  3  1  0
  3  4  1  0
  4  5  1  0
  5  6  2  3
  6  7  1  0
  7  8  2  0
  8  9  1  0
  9 10  2  0
 10 11  1  0
 11 12  2  0
 12 13  1  0
 13 14  1  0
 14 15  1  0
 15 16  2  0
 16 17  1  0
 17 18  2  0
 18 19  1  0
 19 20  2  0
  5 21  1  0
 21 22  1  0
 22  2  1  0
 16  6  1  0
 12  7  1  0
 20 15  1  0
  1 23  1  0
  1 24  1  0
  1 25  1  0
  3 26  1  0
  3 27  1  0
  4 28  1  0
  4 29  1  0
  8 30  1  0
  9 31  1  0
 10 32  1  0
 11 33  1  0
 13 34  1  0
 13 35  1  0
 14 36  1  0
 14 37  1  0
 18 38  1  0
 19 39  1  0
 20 40  1  0
 21 41  1  0
 21 42  1  0
 22 43  1  0
 22 44  1  0
M  END
$$$$
OCNT-2328886
     RDKit          3D

 31 31  0  0  0  0  0  0  0  0999 V2000
   -3.3050   -1.9903   -0.4016 C   0  0  0  0  0  0  0  0  0  0  0  0
   -2.5942   -1.5311    0.8594 C   0  0  0  0  0  0  0  0  0  0  0  0
   -1.3707   -0.8752    0.5369 O   0  0  0  0  0  0  0  0  0  0  0  0
   -1.3602    0.4865    0.3672 C   0  0  0  0  0  0  0  0  0  0  0  0
   -2.5007    1.2909    0.2832 C   0  0  0  0  0  0  0  0  0  0  0  0
   -2.3802    2.6703    0.1019 C   0  0  0  0  0  0  0  0  0  0  0  0
   -1.1213    3.2543    0.0005 C   0  0  0  0  0  0  0  0  0  0  0  0
    0.0251    2.4617    0.0742 C   0  0  0  0  0  0  0  0  0  0  0  0
   -0.0851    1.0785    0.2518 C   0  0  0  0  0  0  0  0  0  0  0  0
    0.9810    0.2189    0.3362 O   0  0  0  0  0  0  0  0  0  0  0  0
    2.2910    0.7513    0.1315 C   0  0  0  0  0  0  0  0  0  0  0  0
    3.2871   -0.4088    0.2073 C   0  0  0  0  0  0  0  0  0  0  0  0
    3.2061   -1.0408    1.4984 O   0  0  0  0  0  0  0  0  0  0  0  0
    3.0250   -1.4798   -0.8558 C   0  0  0  0  0  0  0  0  0  0  0  0
    4.0310   -2.4909   -0.7611 O   0  0  0  0  0  0  0  0  0  0  0  0
   -2.6474   -2.6295   -1.0001 H   0  0  0  0  0  0  0  0  0  0  0  0
   -4.2094   -2.5527   -0.1525 H   0  0  0  0  0  0  0  0  0  0  0  0
   -3.5844   -1.1435   -1.0354 H   0  0  0  0  0  0  0  0  0  0  0  0
   -2.3246   -2.4177    1.4447 H   0  0  0  0  0  0  0  0  0  0  0  0
   -3.2390   -0.9298    1.5095 H   0  0  0  0  0  0  0  0  0  0  0  0
   -3.5009    0.8769    0.3439 H   0  0  0  0  0  0  0  0  0  0  0  0
   -3.2724    3.2886    0.0379 H   0  0  0  0  0  0  0  0  0  0  0  0
   -1.0308    4.3289   -0.1382 H   0  0  0  0  0  0  0  0  0  0  0  0
    0.9873    2.9554   -0.0066 H   0  0  0  0  0  0  0  0  0  0  0  0
    2.5165    1.4656    0.9321 H   0  0  0  0  0  0  0  0  0  0  0  0
    2.3629    1.2368   -0.8486 H   0  0  0  0  0  0  0  0  0  0  0  0
    4.3108   -0.0323    0.1084 H   0  0  0  0  0  0  0  0  0  0  0  0
    2.2507   -1.1476    1.6828 H   0  0  0  0  0  0  0  0  0  0  0  0
    2.0593   -1.9724   -0.7042 H   0  0  0  0  0  0  0  0  0  0  0  0
    3.0574   -1.0585   -1.8646 H   0  0  0  0  0  0  0  0  0  0  0  0
    4.1351   -2.6637    0.1958 H   0  0  0  0  0  0  0  0  0  0  0  0
  1  2  1  0
  2  3  1  0
  3  4  1  0
  4  5  2  0
  5  6  1  0
  6  7  2  0
  7  8  1  0
  8  9  2  0
  9 10  1  0
 10 11  1  0
 11 12  1  0
 12 13  1  0
 12 14  1  0
 14 15  1  0
  9  4  1  0
  1 16  1  0
  1 17  1  0
  1 18  1  0
  2 19  1  0
  2 20  1  0
  5 21  1  0
  6 22  1  0
  7 23  1  0
  8 24  1  0
 11 25  1  0
 11 26  1  0
 12 27  1  0
 13 28  1  0
 14 29  1  0
 14 30  1  0
 15 31  1  0
M  END
$$$$
OCNT-2328889
     RDKit          3D

 35 36  0  0  0  0  0  0  0  0999 V2000
    3.3141    0.2061    0.9080 C   0  0  0  0  0  0  0  0  0  0  0  0
    2.3117   -0.5189    0.0126 C   0  0  0  0  0  0  0  0  0  0  0  0
    3.0269   -1.3373   -1.0576 C   0  0  0  0  0  0  0  0  0  0  0  0
    1.3916    0.5086   -0.6412 C   0  0  0  0  0  0  0  0  0  0  0  0
    1.8518    1.3325   -1.4338 O   0  0  0  0  0  0  0  0  0  0  0  0
   -0.0156    0.5492   -0.2574 C   0  0  0  0  0  0  0  0  0  0  0  0
   -0.7401    1.7088   -0.0461 C   0  0  0  0  0  0  0  0  0  0  0  0
   -0.4506    3.1058   -0.1135 C   0  0  0  0  0  0  0  0  0  0  0  0
   -1.4098    4.0015    0.1879 C   0  0  0  0  0  0  0  0  0  0  0  0
   -2.7426    3.5828    0.5833 C   0  0  0  0  0  0  0  0  0  0  0  0
   -3.0151    2.2694    0.6409 C   0  0  0  0  0  0  0  0  0  0  0  0
   -2.0279    1.3325    0.3287 N   0  0  0  0  0  0  0  0  0  0  0  0
   -2.1536   -0.0143    0.3452 N   0  0  0  0  0  0  0  0  0  0  0  0
   -0.9635   -0.4923   -0.0413 C   0  0  0  0  0  0  0  0  0  0  0  0
   -0.8070   -1.9811   -0.2225 C   0  0  0  0  0  0  0  0  0  0  0  0
   -0.8675   -2.7218    1.1154 C   0  0  0  0  0  0  0  0  0  0  0  0
   -1.8441   -2.5523   -1.1957 C   0  0  0  0  0  0  0  0  0  0  0  0
    2.7957    0.8007    1.6682 H   0  0  0  0  0  0  0  0  0  0  0  0
    3.9649   -0.5091    1.4218 H   0  0  0  0  0  0  0  0  0  0  0  0
    3.9479    0.8894    0.3319 H   0  0  0  0  0  0  0  0  0  0  0  0
    1.7316   -1.1934    0.6473 H   0  0  0  0  0  0  0  0  0  0  0  0
    2.3086   -1.8212   -1.7275 H   0  0  0  0  0  0  0  0  0  0  0  0
    3.6778   -0.7089   -1.6756 H   0  0  0  0  0  0  0  0  0  0  0  0
    3.6449   -2.1173   -0.6009 H   0  0  0  0  0  0  0  0  0  0  0  0
    0.5391    3.4352   -0.4183 H   0  0  0  0  0  0  0  0  0  0  0  0
   -1.2072    5.0672    0.1347 H   0  0  0  0  0  0  0  0  0  0  0  0
   -3.4870    4.3352    0.8183 H   0  0  0  0  0  0  0  0  0  0  0  0
   -3.9791    1.8678    0.9216 H   0  0  0  0  0  0  0  0  0  0  0  0
    0.1718   -2.1806   -0.6696 H   0  0  0  0  0  0  0  0  0  0  0  0
   -1.8484   -2.6133    1.5919 H   0  0  0  0  0  0  0  0  0  0  0  0
   -0.1167   -2.3367    1.8139 H   0  0  0  0  0  0  0  0  0  0  0  0
   -0.6786   -3.7914    0.9750 H   0  0  0  0  0  0  0  0  0  0  0  0
   -2.8642   -2.4512   -0.8085 H   0  0  0  0  0  0  0  0  0  0  0  0
   -1.6592   -3.6167   -1.3765 H   0  0  0  0  0  0  0  0  0  0  0  0
   -1.8006   -2.0349   -2.1606 H   0  0  0  0  0  0  0  0  0  0  0  0
  1  2  1  0
  2  3  1  0
  2  4  1  0
  4  5  2  0
  4  6  1  0
  6  7  2  0
  7  8  1  0
  8  9  2  0
  9 10  1  0
 10 11  2  0
 11 12  1  0
 12 13  1  0
 13 14  2  0
 14 15  1  0
 15 16  1  0
 15 17  1  0
 14  6  1  0
 12  7  1  0
  1 18  1  0
  1 19  1  0
  1 20  1  0
  2 21  1  0
  3 22  1  0
  3 23  1  0
  3 24  1  0
  8 25  1  0
  9 26  1  0
 10 27  1  0
 11 28  1  0
 15 29  1  0
 16 30  1  0
 16 31  1  0
 16 32  1  0
 17 33  1  0
 17 34  1  0
 17 35  1  0
M  END
$$$$
OCNT-2328890
     RDKit          3D

 22 22  0  0  0  0  0  0  0  0999 V2000
   -2.7189    0.9083   -1.3827 N   0  0  0  0  0  0  0  0  0  0  0  0
   -2.1946    0.8845   -0.0343 N   0  0  0  0  0  0  0  0  0  0  0  0
   -1.9758   -0.5108    0.3925 C   0  0  0  0  0  0  0  0  0  0  0  0
   -0.7872   -1.2153   -0.2849 C   0  0  0  0  0  0  0  0  0  0  0  0
    0.5509   -0.5846    0.0248 C   0  0  0  0  0  0  0  0  0  0  0  0
    1.1762   -0.8066    1.2590 C   0  0  0  0  0  0  0  0  0  0  0  0
    2.4045   -0.2091    1.5464 C   0  0  0  0  0  0  0  0  0  0  0  0
    3.0172    0.6161    0.6051 C   0  0  0  0  0  0  0  0  0  0  0  0
    2.4027    0.8451   -0.6245 C   0  0  0  0  0  0  0  0  0  0  0  0
    1.1750    0.2484   -0.9138 C   0  0  0  0  0  0  0  0  0  0  0  0
   -3.6667    0.5182   -1.4044 H   0  0  0  0  0  0  0  0  0  0  0  0
   -2.8378    1.8754   -1.7005 H   0  0  0  0  0  0  0  0  0  0  0  0
   -1.2922    1.3733    0.0267 H   0  0  0  0  0  0  0  0  0  0  0  0
   -2.8892   -1.0975    0.2309 H   0  0  0  0  0  0  0  0  0  0  0  0
   -1.8160   -0.4972    1.4776 H   0  0  0  0  0  0  0  0  0  0  0  0
   -0.9376   -1.2603   -1.3709 H   0  0  0  0  0  0  0  0  0  0  0  0
   -0.7594   -2.2612    0.0479 H   0  0  0  0  0  0  0  0  0  0  0  0
    0.7104   -1.4476    2.0040 H   0  0  0  0  0  0  0  0  0  0  0  0
    2.8836   -0.3877    2.5055 H   0  0  0  0  0  0  0  0  0  0  0  0
    3.9737    1.0805    0.8297 H   0  0  0  0  0  0  0  0  0  0  0  0
    2.8791    1.4889   -1.3591 H   0  0  0  0  0  0  0  0  0  0  0  0
    0.7022    0.4392   -1.8753 H   0  0  0  0  0  0  0  0  0  0  0  0
  1  2  1  0
  2  3  1  0
  3  4  1  0
  4  5  1  0
  5  6  2  0
  6  7  1  0
  7  8  2  0
  8  9  1  0
  9 10  2  0
 10  5  1  0
  1 11  1  0
  1 12  1  0
  2 13  1  0
  3 14  1  0
  3 15  1  0
  4 16  1  0
  4 17  1  0
  6 18  1  0
  7 19  1  0
  8 20  1  0
  9 21  1  0
 10 22  1  0
M  END
$$$$
OCNT-2328892
     RDKit          3D

 34 35  0  0  0  0  0  0  0  0999 V2000
    4.6033   -1.6145    0.2719 N   0  0  0  0  0  0  0  0  0  0  0  0
    4.4122   -0.1544    0.5780 C   0  0  1  0  0  0  0  0  0  0  0  0
    3.1404    0.1074    1.3912 C   0  0  0  0  0  0  0  0  0  0  0  0
    1.8824    0.0579    0.5475 C   0  0  0  0  0  0  0  0  0  0  0  0
    1.2490   -1.1650    0.2866 C   0  0  0  0  0  0  0  0  0  0  0  0
    0.0944   -1.2112   -0.5002 C   0  0  0  0  0  0  0  0  0  0  0  0
   -0.7562   -3.0935   -0.8677 I   0  0  0  0  0  0  0  0  0  0  0  0
   -0.4502   -0.0280   -1.0220 C   0  0  0  0  0  0  0  0  0  0  0  0
   -1.5775   -0.0728   -1.8090 O   0  0  0  0  0  0  0  0  0  0  0  0
   -2.8085    0.0730   -1.1976 C   0  0  0  0  0  0  0  0  0  0  0  0
   -3.0237    0.2493    0.1733 C   0  0  0  0  0  0  0  0  0  0  0  0
   -4.3284    0.3813    0.6638 C   0  0  0  0  0  0  0  0  0  0  0  0
   -4.5772    0.6381    2.7276 I   0  0  0  0  0  0  0  0  0  0  0  0
   -5.4197    0.3402   -0.2102 C   0  0  0  0  0  0  0  0  0  0  0  0
   -6.6901    0.4715    0.2877 O   0  0  0  0  0  0  0  0  0  0  0  0
   -5.1973    0.1693   -1.5811 C   0  0  0  0  0  0  0  0  0  0  0  0
   -6.7855    0.1042   -2.9408 I   0  0  0  0  0  0  0  0  0  0  0  0
   -3.8976    0.0361   -2.0731 C   0  0  0  0  0  0  0  0  0  0  0  0
    0.2100    1.1904   -0.8029 C   0  0  0  0  0  0  0  0  0  0  0  0
   -0.4622    2.9942   -1.6366 I   0  0  0  0  0  0  0  0  0  0  0  0
    1.3646    1.2327   -0.0149 C   0  0  0  0  0  0  0  0  0  0  0  0
    5.5916    0.3445    1.4895 C   0  0  0  0  0  0  0  0  0  0  0  0
    6.2363   -0.5811    2.0715 O   0  0  0  0  0  0  0  0  0  0  0  0
    5.7593    1.5961    1.5216 O   0  0  0  0  0  0  0  0  0  0  0  0
    4.9456   -1.9873    1.1750 H   0  0  0  0  0  0  0  0  0  0  0  0
    5.4704   -1.6560   -0.2708 H   0  0  0  0  0  0  0  0  0  0  0  0
    4.4168    0.4083   -0.3626 H   0  0  0  0  0  0  0  0  0  0  0  0
    3.1830    1.0883    1.8843 H   0  0  0  0  0  0  0  0  0  0  0  0
    3.0495   -0.6146    2.2154 H   0  0  0  0  0  0  0  0  0  0  0  0
    1.6892   -2.0778    0.6874 H   0  0  0  0  0  0  0  0  0  0  0  0
   -2.1880    0.2822    0.8674 H   0  0  0  0  0  0  0  0  0  0  0  0
   -7.3087    0.4204   -0.4615 H   0  0  0  0  0  0  0  0  0  0  0  0
   -3.7120   -0.1025   -3.1357 H   0  0  0  0  0  0  0  0  0  0  0  0
    1.8851    2.1732    0.1611 H   0  0  0  0  0  0  0  0  0  0  0  0
  1  2  1  0
  2  3  1  0
  3  4  1  0
  4  5  1  0
  5  6  2  0
  6  7  1  0
  6  8  1  0
  8  9  1  0
  9 10  1  0
 10 11  1  0
 11 12  2  0
 12 13  1  0
 12 14  1  0
 14 15  1  0
 14 16  2  0
 16 17  1  0
 16 18  1  0
  8 19  2  0
 19 20  1  0
 19 21  1  0
  2 22  1  0
 22 23  2  0
 22 24  1  0
 21  4  2  0
 18 10  2  0
  1 25  1  0
  1 26  1  0
  2 27  1  6
  3 28  1  0
  3 29  1  0
  5 30  1  0
 11 31  1  0
 15 32  1  0
 18 33  1  0
 21 34  1  0
M  CHG  1  24  -1
M  END
$$$$
