OCNT-2316329
     RDKit          3D

 46 49  0  0  0  0  0  0  0  0999 V2000
    7.6846   -0.4671    1.3457 C   0  0  0  0  0  0  0  0  0  0  0  0
    6.2524   -0.7183    1.1075 C   0  0  0  0  0  0  0  0  0  0  0  0
    5.1010   -0.3949    1.7781 C   0  0  0  0  0  0  0  0  0  0  0  0
    4.0643   -0.9383    0.9821 C   0  0  0  0  0  0  0  0  0  0  0  0
    2.5857   -0.8801    1.2189 C   0  0  0  0  0  0  0  0  0  0  0  0
    2.1001    0.5157    1.1888 N   0  0  0  0  0  0  0  0  0  0  0  0
    2.2478    1.1015   -0.1678 C   0  0  0  0  0  0  0  0  0  0  0  0
    1.1409    2.0978   -0.5564 C   0  0  0  0  0  0  0  0  0  0  0  0
   -0.1789    1.4635   -0.5045 N   0  0  0  0  0  0  0  0  0  0  0  0
   -1.1315    1.8108   -1.4703 C   0  0  0  0  0  0  0  0  0  0  0  0
   -0.8684    2.6878   -2.2984 O   0  0  0  0  0  0  0  0  0  0  0  0
   -2.4283    1.1452   -1.5095 C   0  0  0  0  0  0  0  0  0  0  0  0
   -3.5072    1.3961   -2.3438 C   0  0  0  0  0  0  0  0  0  0  0  0
   -4.5395    0.4936   -1.9858 C   0  0  0  0  0  0  0  0  0  0  0  0
   -5.8535    0.2538   -2.4205 C   0  0  0  0  0  0  0  0  0  0  0  0
   -6.5950   -0.7493   -1.7829 C   0  0  0  0  0  0  0  0  0  0  0  0
   -6.0418   -1.5046   -0.7442 C   0  0  0  0  0  0  0  0  0  0  0  0
   -4.7220   -1.3008   -0.2988 C   0  0  0  0  0  0  0  0  0  0  0  0
   -4.1596   -2.1100    0.8269 C   0  0  0  0  0  0  0  0  0  0  0  0
   -4.0218   -0.2813   -0.9539 C   0  0  0  0  0  0  0  0  0  0  0  0
   -2.7431    0.1028   -0.6800 O   0  0  0  0  0  0  0  0  0  0  0  0
   -0.3889    0.5343    0.6075 C   0  0  0  0  0  0  0  0  0  0  0  0
    0.7130    0.6196    1.6823 C   0  0  0  0  0  0  0  0  0  0  0  0
    4.5609   -1.5607   -0.0980 N   0  0  0  0  0  0  0  0  0  0  0  0
    5.9352   -1.4187   -0.0150 O   0  0  0  0  0  0  0  0  0  0  0  0
    7.9082   -0.4837    2.4186 H   0  0  0  0  0  0  0  0  0  0  0  0
    7.9688    0.5142    0.9505 H   0  0  0  0  0  0  0  0  0  0  0  0
    8.3059   -1.2251    0.8587 H   0  0  0  0  0  0  0  0  0  0  0  0
    5.0090    0.1618    2.6969 H   0  0  0  0  0  0  0  0  0  0  0  0
    2.4061   -1.3146    2.2128 H   0  0  0  0  0  0  0  0  0  0  0  0
    2.0438   -1.5057    0.4956 H   0  0  0  0  0  0  0  0  0  0  0  0
    2.2457    0.3124   -0.9324 H   0  0  0  0  0  0  0  0  0  0  0  0
    3.2182    1.6081   -0.2260 H   0  0  0  0  0  0  0  0  0  0  0  0
    1.1246    2.9505    0.1333 H   0  0  0  0  0  0  0  0  0  0  0  0
    1.3455    2.4910   -1.5586 H   0  0  0  0  0  0  0  0  0  0  0  0
   -3.5337    2.1565   -3.1134 H   0  0  0  0  0  0  0  0  0  0  0  0
   -6.2893    0.8341   -3.2281 H   0  0  0  0  0  0  0  0  0  0  0  0
   -7.6172   -0.9417   -2.1014 H   0  0  0  0  0  0  0  0  0  0  0  0
   -6.6571   -2.2682   -0.2680 H   0  0  0  0  0  0  0  0  0  0  0  0
   -4.6290   -1.8090    1.7703 H   0  0  0  0  0  0  0  0  0  0  0  0
   -4.3444   -3.1765    0.6626 H   0  0  0  0  0  0  0  0  0  0  0  0
   -3.0772   -1.9700    0.9192 H   0  0  0  0  0  0  0  0  0  0  0  0
   -1.3481    0.7608    1.0839 H   0  0  0  0  0  0  0  0  0  0  0  0
   -0.4265   -0.4791    0.1935 H   0  0  0  0  0  0  0  0  0  0  0  0
    0.6261    1.5989    2.1719 H   0  0  0  0  0  0  0  0  0  0  0  0
    0.5142   -0.1129    2.4746 H   0  0  0  0  0  0  0  0  0  0  0  0
  1  2  1  0
  2  3  2  0
  3  4  1  0
  4  5  1  0
  5  6  1  0
  6  7  1  0
  7  8  1  0
  8  9  1  0
  9 10  1  0
 10 11  2  0
 10 12  1  0
 12 13  2  0
 13 14  1  0
 14 15  2  0
 15 16  1  0
 16 17  2  0
 17 18  1  0
 18 19  1  0
 18 20  2  0
 20 21  1  0
  9 22  1  0
 22 23  1  0
  4 24  2  0
 24 25  1  0
 25  2  1  0
 23  6  1  0
 21 12  1  0
 20 14  1  0
  1 26  1  0
  1 27  1  0
  1 28  1  0
  3 29  1  0
  5 30  1  0
  5 31  1  0
  7 32  1  0
  7 33  1  0
  8 34  1  0
  8 35  1  0
 13 36  1  0
 15 37  1  0
 16 38  1  0
 17 39  1  0
 19 40  1  0
 19 41  1  0
 19 42  1  0
 22 43  1  0
 22 44  1  0
 23 45  1  0
 23 46  1  0
M  END
$$$$
OCNT-2316334
     RDKit          3D

 40 42  0  0  0  0  0  0  0  0999 V2000
    1.7182   -1.9056   -0.7832 C   0  0  0  0  0  0  0  0  0  0  0  0
    1.8487   -0.4505   -0.8543 N   0  0  0  0  0  0  0  0  0  0  0  0
    0.9821    0.1150   -1.9164 C   0  0  0  0  0  0  0  0  0  0  0  0
   -0.5008   -0.1600   -1.7904 C   0  0  0  0  0  0  0  0  0  0  0  0
   -1.2581    0.2323   -0.7856 N   0  0  0  0  0  0  0  0  0  0  0  0
   -2.5626   -0.1934   -0.9649 C   0  0  0  0  0  0  0  0  0  0  0  0
   -3.5883    0.0893    0.0244 C   0  0  0  0  0  0  0  0  0  0  0  0
   -3.2992    0.0124    1.3907 C   0  0  0  0  0  0  0  0  0  0  0  0
   -2.0859   -0.3682    1.8197 F   0  0  0  0  0  0  0  0  0  0  0  0
   -4.2677    0.2950    2.3569 C   0  0  0  0  0  0  0  0  0  0  0  0
   -5.5540    0.6631    1.9687 C   0  0  0  0  0  0  0  0  0  0  0  0
   -5.8633    0.7434    0.6129 C   0  0  0  0  0  0  0  0  0  0  0  0
   -4.8862    0.4585   -0.3436 C   0  0  0  0  0  0  0  0  0  0  0  0
   -5.2310    0.5590   -1.6371 F   0  0  0  0  0  0  0  0  0  0  0  0
   -2.7846   -0.8947   -2.1338 C   0  0  0  0  0  0  0  0  0  0  0  0
   -1.3263   -1.0356   -3.0230 S   0  0  0  0  0  0  0  0  0  0  0  0
    1.6120    0.1949    0.4570 C   0  0  0  0  0  0  0  0  0  0  0  0
    2.9022    0.6087    1.2135 C   0  0  0  0  0  0  0  0  0  0  0  0
    2.4977    1.3487    2.3989 O   0  0  0  0  0  0  0  0  0  0  0  0
    3.9896   -0.4716    1.5098 C   0  0  0  0  0  0  0  0  0  0  0  0
    4.7833    0.0298    0.2930 C   0  0  0  0  0  0  0  0  0  0  0  0
    3.9842    1.3429    0.3573 C   0  0  0  0  0  0  0  0  0  0  0  0
    1.9073   -2.3561   -1.7643 H   0  0  0  0  0  0  0  0  0  0  0  0
    2.4588   -2.3369   -0.1056 H   0  0  0  0  0  0  0  0  0  0  0  0
    0.7279   -2.2277   -0.4423 H   0  0  0  0  0  0  0  0  0  0  0  0
    1.3530   -0.2521   -2.8824 H   0  0  0  0  0  0  0  0  0  0  0  0
    1.1278    1.2026   -1.9580 H   0  0  0  0  0  0  0  0  0  0  0  0
   -4.0047    0.2220    3.4084 H   0  0  0  0  0  0  0  0  0  0  0  0
   -6.3092    0.8859    2.7183 H   0  0  0  0  0  0  0  0  0  0  0  0
   -6.8593    1.0311    0.2889 H   0  0  0  0  0  0  0  0  0  0  0  0
   -3.7036   -1.3267   -2.5037 H   0  0  0  0  0  0  0  0  0  0  0  0
    1.0379    1.1209    0.3167 H   0  0  0  0  0  0  0  0  0  0  0  0
    0.9928   -0.4398    1.1047 H   0  0  0  0  0  0  0  0  0  0  0  0
    3.3246    1.6339    2.8222 H   0  0  0  0  0  0  0  0  0  0  0  0
    4.5176   -0.3152    2.4590 H   0  0  0  0  0  0  0  0  0  0  0  0
    3.6745   -1.5159    1.4786 H   0  0  0  0  0  0  0  0  0  0  0  0
    5.8614    0.1300    0.4461 H   0  0  0  0  0  0  0  0  0  0  0  0
    4.6161   -0.5516   -0.6196 H   0  0  0  0  0  0  0  0  0  0  0  0
    4.5072    2.1434    0.8942 H   0  0  0  0  0  0  0  0  0  0  0  0
    3.6599    1.7388   -0.6093 H   0  0  0  0  0  0  0  0  0  0  0  0
  1  2  1  0
  2  3  1  0
  3  4  1  0
  4  5  2  0
  5  6  1  0
  6  7  1  0
  7  8  2  0
  8  9  1  0
  8 10  1  0
 10 11  2  0
 11 12  1  0
 12 13  2  0
 13 14  1  0
  6 15  2  0
 15 16  1  0
  2 17  1  0
 17 18  1  0
 18 19  1  0
 18 20  1  0
 20 21  1  0
 21 22  1  0
 16  4  1  0
 22 18  1  0
 13  7  1  0
  1 23  1  0
  1 24  1  0
  1 25  1  0
  3 26  1  0
  3 27  1  0
 10 28  1  0
 11 29  1  0
 12 30  1  0
 15 31  1  0
 17 32  1  0
 17 33  1  0
 19 34  1  0
 20 35  1  0
 20 36  1  0
 21 37  1  0
 21 38  1  0
 22 39  1  0
 22 40  1  0
M  END
$$$$
OCNT-2316345
     RDKit          3D

 38 41  0  0  0  0  0  0  0  0999 V2000
   -4.6347   -2.0192   -0.5633 C   0  0  0  0  0  0  0  0  0  0  0  0
   -3.1950   -1.9028   -0.6373 N   0  0  0  0  0  0  0  0  0  0  0  0
   -2.5762   -2.5952   -1.6175 N   0  0  0  0  0  0  0  0  0  0  0  0
   -1.3089   -2.2002   -1.5415 C   0  0  0  0  0  0  0  0  0  0  0  0
   -1.0921   -1.2312   -0.5356 C   0  0  0  0  0  0  0  0  0  0  0  0
    0.1875   -0.6461   -0.1627 C   0  0  0  0  0  0  0  0  0  0  0  0
    0.5284   -0.5700    1.0109 O   0  0  0  0  0  0  0  0  0  0  0  0
    0.9137   -0.2162   -1.2551 N   0  0  0  0  0  0  0  0  0  0  0  0
    2.1907    0.3841   -1.2899 C   0  0  0  0  0  0  0  0  0  0  0  0
    2.6789    0.7486   -2.5603 C   0  0  0  0  0  0  0  0  0  0  0  0
    3.9266    1.3453   -2.7320 C   0  0  0  0  0  0  0  0  0  0  0  0
    4.7419    1.6030   -1.6311 C   0  0  0  0  0  0  0  0  0  0  0  0
    4.2918    1.2551   -0.3442 C   0  0  0  0  0  0  0  0  0  0  0  0
    3.0336    0.6566   -0.1969 C   0  0  0  0  0  0  0  0  0  0  0  0
    2.8764    0.4399    1.1567 N   0  0  0  0  0  0  0  0  0  0  0  0
    3.9699    0.8699    1.8565 C   0  0  0  0  0  0  0  0  0  0  0  0
    4.8671    1.3812    0.9515 C   0  0  0  0  0  0  0  0  0  0  0  0
   -2.3428   -1.0687    0.0512 C   0  0  0  0  0  0  0  0  0  0  0  0
   -2.7174   -0.2153    1.0976 N   0  0  0  0  0  0  0  0  0  0  0  0
   -2.0908    0.9632    1.4620 C   0  0  0  0  0  0  0  0  0  0  0  0
   -2.7658    1.5475    2.5105 C   0  0  0  0  0  0  0  0  0  0  0  0
   -3.8443    0.7034    2.8279 C   0  0  0  0  0  0  0  0  0  0  0  0
   -3.7893   -0.3654    1.9605 C   0  0  0  0  0  0  0  0  0  0  0  0
   -4.8824   -2.6987    0.2548 H   0  0  0  0  0  0  0  0  0  0  0  0
   -5.0122   -2.4305   -1.5044 H   0  0  0  0  0  0  0  0  0  0  0  0
   -5.0723   -1.0297   -0.4167 H   0  0  0  0  0  0  0  0  0  0  0  0
   -0.5859   -2.6479   -2.2125 H   0  0  0  0  0  0  0  0  0  0  0  0
    0.4566   -0.3019   -2.1539 H   0  0  0  0  0  0  0  0  0  0  0  0
    2.0795    0.5669   -3.4501 H   0  0  0  0  0  0  0  0  0  0  0  0
    4.2690    1.6122   -3.7286 H   0  0  0  0  0  0  0  0  0  0  0  0
    5.7144    2.0678   -1.7654 H   0  0  0  0  0  0  0  0  0  0  0  0
    2.0442    0.0189    1.5592 H   0  0  0  0  0  0  0  0  0  0  0  0
    4.0095    0.7741    2.9330 H   0  0  0  0  0  0  0  0  0  0  0  0
    5.8343    1.8028    1.1909 H   0  0  0  0  0  0  0  0  0  0  0  0
   -1.2217    1.3227    0.9308 H   0  0  0  0  0  0  0  0  0  0  0  0
   -2.4975    2.4790    2.9923 H   0  0  0  0  0  0  0  0  0  0  0  0
   -4.5726    0.8426    3.6166 H   0  0  0  0  0  0  0  0  0  0  0  0
   -4.4119   -1.2458    1.9363 H   0  0  0  0  0  0  0  0  0  0  0  0
  1  2  1  0
  2  3  1  0
  3  4  2  0
  4  5  1  0
  5  6  1  0
  6  7  2  0
  6  8  1  0
  8  9  1  0
  9 10  1  0
 10 11  2  0
 11 12  1  0
 12 13  2  0
 13 14  1  0
 14 15  1  0
 15 16  1  0
 16 17  2  0
  5 18  2  0
 18 19  1  0
 19 20  1  0
 20 21  2  0
 21 22  1  0
 22 23  2  0
 18  2  1  0
 23 19  1  0
 14  9  2  0
 17 13  1  0
  1 24  1  0
  1 25  1  0
  1 26  1  0
  4 27  1  0
  8 28  1  0
 10 29  1  0
 11 30  1  0
 12 31  1  0
 15 32  1  0
 16 33  1  0
 17 34  1  0
 20 35  1  0
 21 36  1  0
 22 37  1  0
 23 38  1  0
M  END
$$$$
OCNT-2316358
     RDKit          3D

 46 47  0  0  0  0  0  0  0  0999 V2000
    1.4465   -2.4709   -0.4180 C   0  0  0  0  0  0  0  0  0  0  0  0
    0.7178   -1.1368   -0.0864 C   0  0  0  0  0  0  0  0  0  0  0  0
    0.4844   -0.4419   -1.4409 C   0  0  0  0  0  0  0  0  0  0  0  0
    1.5838   -0.3440    0.9290 C   0  0  0  0  0  0  0  0  0  0  0  0
    2.9010    0.1952    0.4170 C   0  0  0  0  0  0  0  0  0  0  0  0
    2.9666    1.4512   -0.2050 C   0  0  0  0  0  0  0  0  0  0  0  0
    4.1832    1.9492   -0.6782 C   0  0  0  0  0  0  0  0  0  0  0  0
    5.3386    1.1913   -0.5246 C   0  0  0  0  0  0  0  0  0  0  0  0
    6.5469    1.6378   -0.9711 O   0  0  0  0  0  0  0  0  0  0  0  0
    5.2963   -0.0508    0.0948 C   0  0  0  0  0  0  0  0  0  0  0  0
    4.0808   -0.5477    0.5672 C   0  0  0  0  0  0  0  0  0  0  0  0
   -0.6341   -1.5113    0.5825 C   0  0  0  0  0  0  0  0  0  0  0  0
   -0.8363   -2.6843    0.9227 O   0  0  0  0  0  0  0  0  0  0  0  0
   -1.6359   -0.5690    0.8110 N   0  0  0  0  0  0  0  0  0  0  0  0
   -1.5271    0.8847    0.7567 C   0  0  0  0  0  0  0  0  0  0  0  0
   -2.6628    1.5033   -0.0590 C   0  0  0  0  0  0  0  0  0  0  0  0
   -3.9951    0.7394    0.0893 C   0  0  0  0  0  0  0  0  0  0  0  0
   -5.0572    1.7116    0.1537 O   0  0  0  0  0  0  0  0  0  0  0  0
   -4.2164   -0.1895   -1.1320 C   0  0  0  0  0  0  0  0  0  0  0  0
   -5.3892   -0.8631   -1.0069 F   0  0  0  0  0  0  0  0  0  0  0  0
   -4.3043    0.5410   -2.2748 F   0  0  0  0  0  0  0  0  0  0  0  0
   -4.0100   -0.0693    1.3937 C   0  0  0  0  0  0  0  0  0  0  0  0
   -2.8634   -1.0750    1.4392 C   0  0  0  0  0  0  0  0  0  0  0  0
    1.6924   -3.0319    0.4913 H   0  0  0  0  0  0  0  0  0  0  0  0
    0.8183   -3.1188   -1.0418 H   0  0  0  0  0  0  0  0  0  0  0  0
    2.3785   -2.3030   -0.9678 H   0  0  0  0  0  0  0  0  0  0  0  0
    1.3829   -0.4738   -2.0682 H   0  0  0  0  0  0  0  0  0  0  0  0
   -0.3190   -0.9377   -1.9987 H   0  0  0  0  0  0  0  0  0  0  0  0
    0.2113    0.6100   -1.3536 H   0  0  0  0  0  0  0  0  0  0  0  0
    1.0361    0.4949    1.3679 H   0  0  0  0  0  0  0  0  0  0  0  0
    1.7873   -0.9860    1.7990 H   0  0  0  0  0  0  0  0  0  0  0  0
    2.0693    2.0534   -0.3246 H   0  0  0  0  0  0  0  0  0  0  0  0
    4.2088    2.9223   -1.1580 H   0  0  0  0  0  0  0  0  0  0  0  0
    6.4232    2.5087   -1.3821 H   0  0  0  0  0  0  0  0  0  0  0  0
    6.2069   -0.6317    0.2109 H   0  0  0  0  0  0  0  0  0  0  0  0
    4.0627   -1.5213    1.0523 H   0  0  0  0  0  0  0  0  0  0  0  0
   -0.5765    1.2331    0.3661 H   0  0  0  0  0  0  0  0  0  0  0  0
   -1.5711    1.2433    1.7932 H   0  0  0  0  0  0  0  0  0  0  0  0
   -2.3671    1.5299   -1.1156 H   0  0  0  0  0  0  0  0  0  0  0  0
   -2.7734    2.5542    0.2368 H   0  0  0  0  0  0  0  0  0  0  0  0
   -4.9734    2.2204    0.9773 H   0  0  0  0  0  0  0  0  0  0  0  0
   -3.4164   -0.9217   -1.2678 H   0  0  0  0  0  0  0  0  0  0  0  0
   -3.9273    0.6192    2.2461 H   0  0  0  0  0  0  0  0  0  0  0  0
   -4.9709   -0.5792    1.5345 H   0  0  0  0  0  0  0  0  0  0  0  0
   -2.6330   -1.3349    2.4794 H   0  0  0  0  0  0  0  0  0  0  0  0
   -3.1631   -2.0007    0.9329 H   0  0  0  0  0  0  0  0  0  0  0  0
  1  2  1  0
  2  3  1  0
  2  4  1  0
  4  5  1  0
  5  6  1  0
  6  7  2  0
  7  8  1  0
  8  9  1  0
  8 10  2  0
 10 11  1  0
  2 12  1  0
 12 13  2  0
 12 14  1  0
 14 15  1  0
 15 16  1  0
 16 17  1  0
 17 18  1  0
 17 19  1  0
 19 20  1  0
 19 21  1  0
 17 22  1  0
 22 23  1  0
 11  5  2  0
 23 14  1  0
  1 24  1  0
  1 25  1  0
  1 26  1  0
  3 27  1  0
  3 28  1  0
  3 29  1  0
  4 30  1  0
  4 31  1  0
  6 32  1  0
  7 33  1  0
  9 34  1  0
 10 35  1  0
 11 36  1  0
 15 37  1  0
 15 38  1  0
 16 39  1  0
 16 40  1  0
 18 41  1  0
 19 42  1  0
 22 43  1  0
 22 44  1  0
 23 45  1  0
 23 46  1  0
M  END
$$$$
OCNT-2316365
     RDKit          3D

 47 49  0  0  0  0  0  0  0  0999 V2000
    3.1025    1.6133   -1.4563 C   0  0  0  0  0  0  0  0  0  0  0  0
    2.2264    0.3714   -1.6351 C   0  0  0  0  0  0  0  0  0  0  0  0
    0.7377    0.7033   -1.3682 C   0  0  0  0  0  0  0  0  0  0  0  0
    0.1285    1.3239   -2.5645 N   0  0  0  0  0  0  0  0  0  0  0  0
   -1.0840    2.4632   -2.3187 S   0  0  0  0  0  0  0  0  0  0  0  0
   -1.6551    2.7420   -3.6163 O   0  0  0  0  0  0  0  0  0  0  0  0
   -0.5874    3.4982   -1.4434 O   0  0  0  0  0  0  0  0  0  0  0  0
   -2.3487    1.7191   -1.4415 C   0  0  0  0  0  0  0  0  0  0  0  0
   -2.3833    1.3926   -0.1044 C   0  0  0  0  0  0  0  0  0  0  0  0
   -3.6021    0.7922    0.1246 N   0  0  0  0  0  0  0  0  0  0  0  0
   -4.1045    0.2718    1.3503 C   0  0  0  0  0  0  0  0  0  0  0  0
   -3.3461    0.3250    2.5286 C   0  0  0  0  0  0  0  0  0  0  0  0
   -3.8649   -0.1958    3.7180 C   0  0  0  0  0  0  0  0  0  0  0  0
   -5.1346   -0.7706    3.7398 C   0  0  0  0  0  0  0  0  0  0  0  0
   -5.8930   -0.8270    2.5726 C   0  0  0  0  0  0  0  0  0  0  0  0
   -5.3826   -0.3083    1.3805 C   0  0  0  0  0  0  0  0  0  0  0  0
   -4.3363    0.7185   -1.0221 N   0  0  0  0  0  0  0  0  0  0  0  0
   -3.5760    1.2979   -1.9540 C   0  0  0  0  0  0  0  0  0  0  0  0
    2.7389   -0.7468   -0.8175 N   0  0  0  0  0  0  0  0  0  0  0  0
    3.7013   -1.6676   -1.4132 C   0  0  0  0  0  0  0  0  0  0  0  0
    4.9638   -1.7497   -0.5663 C   0  0  0  0  0  0  0  0  0  0  0  0
    4.6595   -2.0343    0.9057 C   0  0  0  0  0  0  0  0  0  0  0  0
    3.1729   -1.9899    1.2394 C   0  0  0  0  0  0  0  0  0  0  0  0
    2.4794   -0.8354    0.5467 C   0  0  0  0  0  0  0  0  0  0  0  0
    1.7181   -0.0858    1.1507 O   0  0  0  0  0  0  0  0  0  0  0  0
    3.0810    1.9718   -0.4213 H   0  0  0  0  0  0  0  0  0  0  0  0
    2.7681    2.4284   -2.1063 H   0  0  0  0  0  0  0  0  0  0  0  0
    4.1458    1.3911   -1.7051 H   0  0  0  0  0  0  0  0  0  0  0  0
    2.3042    0.0479   -2.6815 H   0  0  0  0  0  0  0  0  0  0  0  0
    0.6541    1.3708   -0.5051 H   0  0  0  0  0  0  0  0  0  0  0  0
    0.1784   -0.2153   -1.1555 H   0  0  0  0  0  0  0  0  0  0  0  0
   -0.1054    0.6834   -3.3225 H   0  0  0  0  0  0  0  0  0  0  0  0
   -1.6521    1.5477    0.6747 H   0  0  0  0  0  0  0  0  0  0  0  0
   -2.3520    0.7613    2.5614 H   0  0  0  0  0  0  0  0  0  0  0  0
   -3.2753   -0.1513    4.6306 H   0  0  0  0  0  0  0  0  0  0  0  0
   -5.5338   -1.1736    4.6671 H   0  0  0  0  0  0  0  0  0  0  0  0
   -6.8841   -1.2736    2.5877 H   0  0  0  0  0  0  0  0  0  0  0  0
   -5.9951   -0.3626    0.4820 H   0  0  0  0  0  0  0  0  0  0  0  0
   -3.9530    1.3785   -2.9668 H   0  0  0  0  0  0  0  0  0  0  0  0
    3.9565   -1.3451   -2.4278 H   0  0  0  0  0  0  0  0  0  0  0  0
    3.2197   -2.6499   -1.4852 H   0  0  0  0  0  0  0  0  0  0  0  0
    5.6393   -2.5137   -0.9676 H   0  0  0  0  0  0  0  0  0  0  0  0
    5.5015   -0.7949   -0.6327 H   0  0  0  0  0  0  0  0  0  0  0  0
    5.1937   -1.2988    1.5207 H   0  0  0  0  0  0  0  0  0  0  0  0
    5.0622   -3.0146    1.1868 H   0  0  0  0  0  0  0  0  0  0  0  0
    3.0405   -1.8905    2.3224 H   0  0  0  0  0  0  0  0  0  0  0  0
    2.6753   -2.9184    0.9344 H   0  0  0  0  0  0  0  0  0  0  0  0
  1  2  1  0
  2  3  1  0
  3  4  1  0
  4  5  1  0
  5  6  2  0
  5  7  2  0
  5  8  1  0
  8  9  2  0
  9 10  1  0
 10 11  1  0
 11 12  2  0
 12 13  1  0
 13 14  2  0
 14 15  1  0
 15 16  2  0
 10 17  1  0
 17 18  2  0
  2 19  1  0
 19 20  1  0
 20 21  1  0
 21 22  1  0
 22 23  1  0
 23 24  1  0
 24 25  2  0
 18  8  1  0
 24 19  1  0
 16 11  1  0
  1 26  1  0
  1 27  1  0
  1 28  1  0
  2 29  1  0
  3 30  1  0
  3 31  1  0
  4 32  1  0
  9 33  1  0
 12 34  1  0
 13 35  1  0
 14 36  1  0
 15 37  1  0
 16 38  1  0
 18 39  1  0
 20 40  1  0
 20 41  1  0
 21 42  1  0
 21 43  1  0
 22 44  1  0
 22 45  1  0
 23 46  1  0
 23 47  1  0
M  END
$$$$
OCNT-2316372
     RDKit          3D

 44 46  0  0  0  0  0  0  0  0999 V2000
   -4.8185    1.1405   -0.9892 C   0  0  0  0  0  0  0  0  0  0  0  0
   -3.4111    1.6658   -0.6808 C   0  0  0  0  0  0  0  0  0  0  0  0
   -3.4748    3.2009   -0.6599 C   0  0  0  0  0  0  0  0  0  0  0  0
   -2.8359    1.1146    0.6528 C   0  0  0  0  0  0  0  0  0  0  0  0
   -1.3435    1.4812    0.8406 C   0  0  0  0  0  0  0  0  0  0  0  0
   -0.5633    0.2947    0.4681 N   0  0  0  0  0  0  0  0  0  0  0  0
    0.7941    0.3861    0.2730 C   0  0  0  0  0  0  0  0  0  0  0  0
    1.4346    1.4016    0.5407 O   0  0  0  0  0  0  0  0  0  0  0  0
    1.3905   -0.7123   -0.2901 N   0  0  0  0  0  0  0  0  0  0  0  0
    2.8017   -0.6851   -0.6470 C   0  0  0  0  0  0  0  0  0  0  0  0
    3.7295   -0.7011    0.5641 C   0  0  0  0  0  0  0  0  0  0  0  0
    5.1222   -0.6753    0.1611 N   0  0  0  0  0  0  0  0  0  0  0  0
    5.9777    0.3864    0.2362 C   0  0  0  0  0  0  0  0  0  0  0  0
    7.1818   -0.0602   -0.2547 C   0  0  0  0  0  0  0  0  0  0  0  0
    6.9490   -1.4035   -0.6013 C   0  0  0  0  0  0  0  0  0  0  0  0
    5.6927   -1.7829   -0.3535 N   0  0  0  0  0  0  0  0  0  0  0  0
   -1.4098   -0.8221    0.5726 C   0  0  0  0  0  0  0  0  0  0  0  0
   -1.0948   -2.1712    0.6244 C   0  0  0  0  0  0  0  0  0  0  0  0
   -2.1281   -3.0943    0.8141 C   0  0  0  0  0  0  0  0  0  0  0  0
   -3.4514   -2.6631    0.9715 C   0  0  0  0  0  0  0  0  0  0  0  0
   -3.7596   -1.3031    0.9384 C   0  0  0  0  0  0  0  0  0  0  0  0
   -2.7335   -0.3916    0.7234 C   0  0  0  0  0  0  0  0  0  0  0  0
   -5.4988    1.3069   -0.1472 H   0  0  0  0  0  0  0  0  0  0  0  0
   -5.2401    1.6437   -1.8666 H   0  0  0  0  0  0  0  0  0  0  0  0
   -4.8040    0.0719   -1.2213 H   0  0  0  0  0  0  0  0  0  0  0  0
   -2.7573    1.3648   -1.5103 H   0  0  0  0  0  0  0  0  0  0  0  0
   -2.4851    3.6532   -0.5575 H   0  0  0  0  0  0  0  0  0  0  0  0
   -4.0974    3.5577    0.1678 H   0  0  0  0  0  0  0  0  0  0  0  0
   -3.9039    3.5843   -1.5924 H   0  0  0  0  0  0  0  0  0  0  0  0
   -3.4164    1.4972    1.5013 H   0  0  0  0  0  0  0  0  0  0  0  0
   -1.1273    1.6897    1.8972 H   0  0  0  0  0  0  0  0  0  0  0  0
   -1.0071    2.3438    0.2595 H   0  0  0  0  0  0  0  0  0  0  0  0
    0.7823   -1.1810   -0.9477 H   0  0  0  0  0  0  0  0  0  0  0  0
    2.9813   -1.5642   -1.2763 H   0  0  0  0  0  0  0  0  0  0  0  0
    2.9833    0.2030   -1.2646 H   0  0  0  0  0  0  0  0  0  0  0  0
    3.5776   -1.6061    1.1640 H   0  0  0  0  0  0  0  0  0  0  0  0
    3.5592    0.1572    1.2220 H   0  0  0  0  0  0  0  0  0  0  0  0
    5.6643    1.3461    0.6236 H   0  0  0  0  0  0  0  0  0  0  0  0
    8.0986    0.5035   -0.3485 H   0  0  0  0  0  0  0  0  0  0  0  0
    7.6409   -2.1203   -1.0242 H   0  0  0  0  0  0  0  0  0  0  0  0
   -0.0756   -2.5345    0.5736 H   0  0  0  0  0  0  0  0  0  0  0  0
   -1.8994   -4.1565    0.8646 H   0  0  0  0  0  0  0  0  0  0  0  0
   -4.2408   -3.3933    1.1340 H   0  0  0  0  0  0  0  0  0  0  0  0
   -4.7839   -0.9731    1.0814 H   0  0  0  0  0  0  0  0  0  0  0  0
  1  2  1  0
  2  3  1  0
  2  4  1  0
  4  5  1  0
  5  6  1  0
  6  7  1  0
  7  8  2  0
  7  9  1  0
  9 10  1  0
 10 11  1  0
 11 12  1  0
 12 13  1  0
 13 14  2  0
 14 15  1  0
 15 16  2  0
  6 17  1  0
 17 18  2  0
 18 19  1  0
 19 20  2  0
 20 21  1  0
 21 22  2  0
 22  4  1  0
 16 12  1  0
 22 17  1  0
  1 23  1  0
  1 24  1  0
  1 25  1  0
  2 26  1  0
  3 27  1  0
  3 28  1  0
  3 29  1  0
  4 30  1  0
  5 31  1  0
  5 32  1  0
  9 33  1  0
 10 34  1  0
 10 35  1  0
 11 36  1  0
 11 37  1  0
 13 38  1  0
 14 39  1  0
 15 40  1  0
 18 41  1  0
 19 42  1  0
 20 43  1  0
 21 44  1  0
M  END
$$$$
OCNT-2316388
     RDKit          3D

 43 45  0  0  0  0  0  0  0  0999 V2000
    7.0676    1.6605    1.3933 C   0  0  0  0  0  0  0  0  0  0  0  0
    6.2863    1.1826    0.3056 O   0  0  0  0  0  0  0  0  0  0  0  0
    5.0089    0.7756    0.5872 C   0  0  0  0  0  0  0  0  0  0  0  0
    4.4051    0.7969    1.8481 C   0  0  0  0  0  0  0  0  0  0  0  0
    3.0863    0.3571    2.0294 C   0  0  0  0  0  0  0  0  0  0  0  0
    2.4163   -0.0984    0.8976 C   0  0  0  0  0  0  0  0  0  0  0  0
    1.1386   -0.5594    0.8723 O   0  0  0  0  0  0  0  0  0  0  0  0
    0.8617   -0.9098   -0.4203 C   0  0  0  0  0  0  0  0  0  0  0  0
   -0.5084   -1.4478   -0.6850 C   0  0  0  0  0  0  0  0  0  0  0  0
   -0.6864   -2.8232   -0.0439 C   0  0  0  0  0  0  0  0  0  0  0  0
   -1.4592   -0.4810   -0.1653 N   0  0  0  0  0  0  0  0  0  0  0  0
   -2.7797   -0.5061   -0.5500 C   0  0  0  0  0  0  0  0  0  0  0  0
   -3.2042   -1.2898   -1.3883 O   0  0  0  0  0  0  0  0  0  0  0  0
   -3.5005    0.4637    0.1114 N   0  0  0  0  0  0  0  0  0  0  0  0
   -4.8873    0.7057    0.0329 C   0  0  0  0  0  0  0  0  0  0  0  0
   -5.7803   -0.1159   -0.6475 C   0  0  0  0  0  0  0  0  0  0  0  0
   -7.1241    0.2246   -0.6446 C   0  0  0  0  0  0  0  0  0  0  0  0
   -7.6272    1.3080   -0.0158 N   0  0  0  0  0  0  0  0  0  0  0  0
   -6.7437    2.0864    0.6395 C   0  0  0  0  0  0  0  0  0  0  0  0
   -5.3827    1.8302    0.6942 C   0  0  0  0  0  0  0  0  0  0  0  0
    1.9604   -0.6707   -1.2323 C   0  0  0  0  0  0  0  0  0  0  0  0
    2.0518   -0.9123   -2.6937 C   0  0  0  0  0  0  0  0  0  0  0  0
    2.9722   -0.1411   -0.3733 C   0  0  0  0  0  0  0  0  0  0  0  0
    4.2974    0.3077   -0.5304 C   0  0  0  0  0  0  0  0  0  0  0  0
    8.0511    1.9379    1.0019 H   0  0  0  0  0  0  0  0  0  0  0  0
    7.2172    0.8789    2.1455 H   0  0  0  0  0  0  0  0  0  0  0  0
    6.6208    2.5567    1.8363 H   0  0  0  0  0  0  0  0  0  0  0  0
    4.9368    1.1535    2.7249 H   0  0  0  0  0  0  0  0  0  0  0  0
    2.6076    0.3674    3.0008 H   0  0  0  0  0  0  0  0  0  0  0  0
   -0.6707   -1.5372   -1.7656 H   0  0  0  0  0  0  0  0  0  0  0  0
    0.0606   -3.5305   -0.4209 H   0  0  0  0  0  0  0  0  0  0  0  0
   -0.5814   -2.7752    1.0463 H   0  0  0  0  0  0  0  0  0  0  0  0
   -1.6779   -3.2354   -0.2581 H   0  0  0  0  0  0  0  0  0  0  0  0
   -1.2459   -0.1256    0.7547 H   0  0  0  0  0  0  0  0  0  0  0  0
   -2.9470    1.1439    0.6102 H   0  0  0  0  0  0  0  0  0  0  0  0
   -5.4707   -1.0095   -1.1746 H   0  0  0  0  0  0  0  0  0  0  0  0
   -7.8533   -0.3896   -1.1655 H   0  0  0  0  0  0  0  0  0  0  0  0
   -7.1709    2.9519    1.1379 H   0  0  0  0  0  0  0  0  0  0  0  0
   -4.7360    2.5044    1.2431 H   0  0  0  0  0  0  0  0  0  0  0  0
    1.4222   -0.1997   -3.2361 H   0  0  0  0  0  0  0  0  0  0  0  0
    1.7167   -1.9256   -2.9382 H   0  0  0  0  0  0  0  0  0  0  0  0
    3.0782   -0.8041   -3.0571 H   0  0  0  0  0  0  0  0  0  0  0  0
    4.7735    0.2943   -1.5064 H   0  0  0  0  0  0  0  0  0  0  0  0
  1  2  1  0
  2  3  1  0
  3  4  2  0
  4  5  1  0
  5  6  2  0
  6  7  1  0
  7  8  1  0
  8  9  1  0
  9 10  1  0
  9 11  1  0
 11 12  1  0
 12 13  2  0
 12 14  1  0
 14 15  1  0
 15 16  2  0
 16 17  1  0
 17 18  2  0
 18 19  1  0
 19 20  2  0
  8 21  2  0
 21 22  1  0
 21 23  1  0
 23 24  2  0
 24  3  1  0
 23  6  1  0
 20 15  1  0
  1 25  1  0
  1 26  1  0
  1 27  1  0
  4 28  1  0
  5 29  1  0
  9 30  1  0
 10 31  1  0
 10 32  1  0
 10 33  1  0
 11 34  1  0
 14 35  1  0
 16 36  1  0
 17 37  1  0
 19 38  1  0
 20 39  1  0
 22 40  1  0
 22 41  1  0
 22 42  1  0
 24 43  1  0
M  END
$$$$
OCNT-2316392
     RDKit          3D

 39 42  0  0  0  0  0  0  0  0999 V2000
   -4.0471   -1.0184    0.5434 C   0  0  0  0  0  0  0  0  0  0  0  0
   -3.3611   -0.1961   -0.4899 C   0  0  0  0  0  0  0  0  0  0  0  0
   -2.2109   -0.4573   -1.1467 C   0  0  0  0  0  0  0  0  0  0  0  0
   -1.4044   -1.6915   -1.0036 C   0  0  0  0  0  0  0  0  0  0  0  0
   -1.9204   -2.7824   -1.2417 O   0  0  0  0  0  0  0  0  0  0  0  0
   -0.1112   -1.5629   -0.5539 N   0  0  0  0  0  0  0  0  0  0  0  0
    0.7280   -2.7317   -0.3753 C   0  0  0  0  0  0  0  0  0  0  0  0
    2.1032   -2.1686   -0.0505 C   0  0  0  0  0  0  0  0  0  0  0  0
    1.7785   -0.8736    0.7132 C   0  0  0  0  0  0  0  0  0  0  0  0
    2.9014    0.1292    0.8691 C   0  0  0  0  0  0  0  0  0  0  0  0
    2.6158    1.4605    1.2254 C   0  0  0  0  0  0  0  0  0  0  0  0
    3.6377    2.4000    1.4002 C   0  0  0  0  0  0  0  0  0  0  0  0
    4.9662    2.0211    1.2365 C   0  0  0  0  0  0  0  0  0  0  0  0
    5.2596    0.7056    0.9074 C   0  0  0  0  0  0  0  0  0  0  0  0
    6.5379    0.3322    0.7621 F   0  0  0  0  0  0  0  0  0  0  0  0
    4.2486   -0.2370    0.7304 C   0  0  0  0  0  0  0  0  0  0  0  0
    0.5618   -0.3596   -0.0786 C   0  0  0  0  0  0  0  0  0  0  0  0
   -1.7582    0.7707   -2.3349 S   0  0  0  0  0  0  0  0  0  0  0  0
   -3.1689    1.6656   -1.8748 C   0  0  0  0  0  0  0  0  0  0  0  0
   -3.6855    2.8084   -2.2308 N   0  0  0  0  0  0  0  0  0  0  0  0
   -4.8248    2.8938   -1.4549 C   0  0  0  0  0  0  0  0  0  0  0  0
   -4.9672    1.7902   -0.6297 C   0  0  0  0  0  0  0  0  0  0  0  0
   -3.8828    1.0131   -0.9134 N   0  0  0  0  0  0  0  0  0  0  0  0
   -4.1881   -0.4395    1.4624 H   0  0  0  0  0  0  0  0  0  0  0  0
   -5.0298   -1.3422    0.1852 H   0  0  0  0  0  0  0  0  0  0  0  0
   -3.4771   -1.9136    0.8084 H   0  0  0  0  0  0  0  0  0  0  0  0
    0.3264   -3.3128    0.4625 H   0  0  0  0  0  0  0  0  0  0  0  0
    0.7242   -3.3559   -1.2740 H   0  0  0  0  0  0  0  0  0  0  0  0
    2.7070   -2.8720    0.5311 H   0  0  0  0  0  0  0  0  0  0  0  0
    2.6391   -1.9465   -0.9824 H   0  0  0  0  0  0  0  0  0  0  0  0
    1.4479   -1.1541    1.7239 H   0  0  0  0  0  0  0  0  0  0  0  0
    1.5889    1.7873    1.3781 H   0  0  0  0  0  0  0  0  0  0  0  0
    3.3942    3.4252    1.6683 H   0  0  0  0  0  0  0  0  0  0  0  0
    5.7711    2.7363    1.3695 H   0  0  0  0  0  0  0  0  0  0  0  0
    4.5445   -1.2526    0.4863 H   0  0  0  0  0  0  0  0  0  0  0  0
    0.8722    0.2208   -0.9546 H   0  0  0  0  0  0  0  0  0  0  0  0
   -0.1139    0.2441    0.5351 H   0  0  0  0  0  0  0  0  0  0  0  0
   -5.4856    3.7488   -1.5313 H   0  0  0  0  0  0  0  0  0  0  0  0
   -5.7174    1.5153    0.0969 H   0  0  0  0  0  0  0  0  0  0  0  0
  1  2  1  0
  2  3  2  0
  3  4  1  0
  4  5  2  0
  4  6  1  0
  6  7  1  0
  7  8  1  0
  8  9  1  0
  9 10  1  0
 10 11  2  0
 11 12  1  0
 12 13  2  0
 13 14  1  0
 14 15  1  0
 14 16  2  0
  9 17  1  0
  3 18  1  0
 18 19  1  0
 19 20  2  0
 20 21  1  0
 21 22  2  0
 22 23  1  0
 23  2  1  0
 17  6  1  0
 23 19  1  0
 16 10  1  0
  1 24  1  0
  1 25  1  0
  1 26  1  0
  7 27  1  0
  7 28  1  0
  8 29  1  0
  8 30  1  0
  9 31  1  0
 11 32  1  0
 12 33  1  0
 13 34  1  0
 16 35  1  0
 17 36  1  0
 17 37  1  0
 21 38  1  0
 22 39  1  0
M  END
$$$$
OCNT-2316397
     RDKit          3D

 47 48  0  0  0  0  0  0  0  0999 V2000
   -2.2767   -2.5795    0.4269 C   0  0  0  0  0  0  0  0  0  0  0  0
   -1.3727   -1.6814   -0.4592 C   0  0  0  0  0  0  0  0  0  0  0  0
   -0.6630   -2.6346   -1.4405 C   0  0  0  0  0  0  0  0  0  0  0  0
   -2.2645   -0.6910   -1.2528 C   0  0  0  0  0  0  0  0  0  0  0  0
   -3.0165    0.3457   -0.4483 C   0  0  0  0  0  0  0  0  0  0  0  0
   -2.4154    1.5690   -0.1193 C   0  0  0  0  0  0  0  0  0  0  0  0
   -3.1135    2.5269    0.6177 C   0  0  0  0  0  0  0  0  0  0  0  0
   -4.4143    2.2669    1.0280 C   0  0  0  0  0  0  0  0  0  0  0  0
   -5.0588    3.2295    1.7471 O   0  0  0  0  0  0  0  0  0  0  0  0
   -5.0326    1.0630    0.7106 C   0  0  0  0  0  0  0  0  0  0  0  0
   -4.3338    0.1057   -0.0291 C   0  0  0  0  0  0  0  0  0  0  0  0
   -0.3501   -0.9734    0.4692 C   0  0  0  0  0  0  0  0  0  0  0  0
   -0.4786   -1.0533    1.6967 O   0  0  0  0  0  0  0  0  0  0  0  0
    0.7007   -0.2384   -0.0394 N   0  0  0  0  0  0  0  0  0  0  0  0
    1.1322   -0.0322   -1.4123 C   0  0  0  0  0  0  0  0  0  0  0  0
    2.1629    1.0872   -1.3364 C   0  0  0  0  0  0  0  0  0  0  0  0
    2.7995    0.8925    0.0371 C   0  0  0  0  0  0  0  0  0  0  0  0
    3.8324   -0.1700   -0.0590 N   0  0  0  0  0  0  0  0  0  0  0  0
    5.0367   -0.1877    1.1194 S   0  0  0  0  0  0  0  0  0  0  0  0
    6.2731    0.8500    0.3705 C   0  0  0  0  0  0  0  0  0  0  0  0
    5.5369   -1.5430    1.1439 O   0  0  0  0  0  0  0  0  0  0  0  0
    4.5218    0.4634    2.3012 O   0  0  0  0  0  0  0  0  0  0  0  0
    1.6091    0.4400    0.8902 C   0  0  0  0  0  0  0  0  0  0  0  0
   -3.0483   -3.0811   -0.1684 H   0  0  0  0  0  0  0  0  0  0  0  0
   -1.6861   -3.3572    0.9267 H   0  0  0  0  0  0  0  0  0  0  0  0
   -2.7820   -2.0095    1.2140 H   0  0  0  0  0  0  0  0  0  0  0  0
   -1.3613   -3.3730   -1.8522 H   0  0  0  0  0  0  0  0  0  0  0  0
    0.1492   -3.1806   -0.9476 H   0  0  0  0  0  0  0  0  0  0  0  0
   -0.2404   -2.1074   -2.2997 H   0  0  0  0  0  0  0  0  0  0  0  0
   -2.9978   -1.2642   -1.8389 H   0  0  0  0  0  0  0  0  0  0  0  0
   -1.6856   -0.1593   -2.0137 H   0  0  0  0  0  0  0  0  0  0  0  0
   -1.3980    1.7883   -0.4307 H   0  0  0  0  0  0  0  0  0  0  0  0
   -2.6420    3.4706    0.8754 H   0  0  0  0  0  0  0  0  0  0  0  0
   -5.9256    2.8830    2.0147 H   0  0  0  0  0  0  0  0  0  0  0  0
   -6.0488    0.8510    1.0267 H   0  0  0  0  0  0  0  0  0  0  0  0
   -4.8245   -0.8342   -0.2723 H   0  0  0  0  0  0  0  0  0  0  0  0
    0.3072    0.2297   -2.0715 H   0  0  0  0  0  0  0  0  0  0  0  0
    1.5987   -0.9581   -1.7632 H   0  0  0  0  0  0  0  0  0  0  0  0
    2.8751    1.0504   -2.1663 H   0  0  0  0  0  0  0  0  0  0  0  0
    1.6504    2.0569   -1.3666 H   0  0  0  0  0  0  0  0  0  0  0  0
    3.2484    1.8249    0.3933 H   0  0  0  0  0  0  0  0  0  0  0  0
    3.4752   -1.1191   -0.2001 H   0  0  0  0  0  0  0  0  0  0  0  0
    7.1331    0.8860    1.0428 H   0  0  0  0  0  0  0  0  0  0  0  0
    5.8639    1.8531    0.2382 H   0  0  0  0  0  0  0  0  0  0  0  0
    6.5680    0.4158   -0.5865 H   0  0  0  0  0  0  0  0  0  0  0  0
    1.8870   -0.2251    1.7138 H   0  0  0  0  0  0  0  0  0  0  0  0
    1.0692    1.3036    1.2954 H   0  0  0  0  0  0  0  0  0  0  0  0
  1  2  1  0
  2  3  1  0
  2  4  1  0
  4  5  1  0
  5  6  1  0
  6  7  2  0
  7  8  1  0
  8  9  1  0
  8 10  2  0
 10 11  1  0
  2 12  1  0
 12 13  2  0
 12 14  1  0
 14 15  1  0
 15 16  1  0
 16 17  1  0
 17 18  1  0
 18 19  1  0
 19 20  1  0
 19 21  2  0
 19 22  2  0
 17 23  1  0
 11  5  2  0
 23 14  1  0
  1 24  1  0
  1 25  1  0
  1 26  1  0
  3 27  1  0
  3 28  1  0
  3 29  1  0
  4 30  1  0
  4 31  1  0
  6 32  1  0
  7 33  1  0
  9 34  1  0
 10 35  1  0
 11 36  1  0
 15 37  1  0
 15 38  1  0
 16 39  1  0
 16 40  1  0
 17 41  1  0
 18 42  1  0
 20 43  1  0
 20 44  1  0
 20 45  1  0
 23 46  1  0
 23 47  1  0
M  END
$$$$
OCNT-2316400
     RDKit          3D

 54 59  0  0  0  0  0  0  0  0999 V2000
   -1.4192   -2.0421   -1.7613 O   0  0  0  0  0  0  0  0  0  0  0  0
   -1.3297   -1.2167   -0.8490 C   0  0  0  0  0  0  0  0  0  0  0  0
   -0.0121   -0.7046   -0.4111 C   0  0  0  0  0  0  0  0  0  0  0  0
    1.2300   -1.0277   -0.9517 C   0  0  0  0  0  0  0  0  0  0  0  0
    1.6102   -1.9104   -2.0893 C   0  0  0  0  0  0  0  0  0  0  0  0
    2.2872   -3.1974   -1.6221 C   0  0  0  0  0  0  0  0  0  0  0  0
    3.4855   -3.0025   -0.6857 C   0  0  0  0  0  0  0  0  0  0  0  0
    4.2332   -1.6926   -0.9170 C   0  0  0  0  0  0  0  0  0  0  0  0
    3.6036   -0.4810   -0.2160 C   0  0  0  0  0  0  0  0  0  0  0  0
    2.1565   -0.3513   -0.1871 N   0  0  0  0  0  0  0  0  0  0  0  0
    1.4634    0.4337    0.7162 C   0  0  0  0  0  0  0  0  0  0  0  0
    2.0608    1.3541    1.6844 C   0  0  0  0  0  0  0  0  0  0  0  0
    1.7660    1.2084    3.0460 C   0  0  0  0  0  0  0  0  0  0  0  0
    2.3216    2.0757    3.9887 C   0  0  0  0  0  0  0  0  0  0  0  0
    3.1672    3.1038    3.5757 C   0  0  0  0  0  0  0  0  0  0  0  0
    3.4511    3.2709    2.2212 C   0  0  0  0  0  0  0  0  0  0  0  0
    2.8962    2.4025    1.2780 C   0  0  0  0  0  0  0  0  0  0  0  0
    0.1720    0.1985    0.6188 N   0  0  0  0  0  0  0  0  0  0  0  0
   -2.4799   -0.7702   -0.2107 N   0  0  0  0  0  0  0  0  0  0  0  0
   -2.6430    0.3328    0.7559 C   0  0  0  0  0  0  0  0  0  0  0  0
   -4.0287    0.0064    1.3656 C   0  0  0  0  0  0  0  0  0  0  0  0
   -4.7132   -0.9451    0.3586 C   0  0  0  0  0  0  0  0  0  0  0  0
   -3.7812   -0.9537   -0.8564 C   0  0  0  0  0  0  0  0  0  0  0  0
   -3.9897    0.2963   -1.6689 C   0  0  0  0  0  0  0  0  0  0  0  0
   -3.4900    1.5157   -1.2514 C   0  0  0  0  0  0  0  0  0  0  0  0
   -2.6683    1.7039   -0.0139 C   0  0  0  0  0  0  0  0  0  0  0  0
   -3.8452    2.4279   -2.1901 N   0  0  0  0  0  0  0  0  0  0  0  0
   -4.5763    1.8846   -3.1866 N   0  0  0  0  0  0  0  0  0  0  0  0
   -4.6468    0.5833   -2.8726 C   0  0  0  0  0  0  0  0  0  0  0  0
    0.7419   -2.1746   -2.6991 H   0  0  0  0  0  0  0  0  0  0  0  0
    2.2655   -1.3570   -2.7729 H   0  0  0  0  0  0  0  0  0  0  0  0
    1.5568   -3.8491   -1.1257 H   0  0  0  0  0  0  0  0  0  0  0  0
    2.6239   -3.7424   -2.5135 H   0  0  0  0  0  0  0  0  0  0  0  0
    3.1557   -3.0627    0.3591 H   0  0  0  0  0  0  0  0  0  0  0  0
    4.1734   -3.8443   -0.8337 H   0  0  0  0  0  0  0  0  0  0  0  0
    5.2567   -1.7979   -0.5352 H   0  0  0  0  0  0  0  0  0  0  0  0
    4.3434   -1.4982   -1.9904 H   0  0  0  0  0  0  0  0  0  0  0  0
    3.9313   -0.5037    0.8310 H   0  0  0  0  0  0  0  0  0  0  0  0
    3.9952    0.4361   -0.6698 H   0  0  0  0  0  0  0  0  0  0  0  0
    1.0984    0.4138    3.3733 H   0  0  0  0  0  0  0  0  0  0  0  0
    2.0891    1.9511    5.0430 H   0  0  0  0  0  0  0  0  0  0  0  0
    3.5961    3.7820    4.3094 H   0  0  0  0  0  0  0  0  0  0  0  0
    4.0964    4.0841    1.8982 H   0  0  0  0  0  0  0  0  0  0  0  0
    3.1049    2.5642    0.2234 H   0  0  0  0  0  0  0  0  0  0  0  0
   -1.8895    0.3334    1.5444 H   0  0  0  0  0  0  0  0  0  0  0  0
   -4.6271    0.9031    1.5573 H   0  0  0  0  0  0  0  0  0  0  0  0
   -3.9077   -0.5150    2.3227 H   0  0  0  0  0  0  0  0  0  0  0  0
   -5.7357   -0.6303    0.1253 H   0  0  0  0  0  0  0  0  0  0  0  0
   -4.7621   -1.9491    0.7978 H   0  0  0  0  0  0  0  0  0  0  0  0
   -3.8464   -1.8627   -1.4598 H   0  0  0  0  0  0  0  0  0  0  0  0
   -3.0771    2.4980    0.6192 H   0  0  0  0  0  0  0  0  0  0  0  0
   -1.6516    1.9864   -0.3076 H   0  0  0  0  0  0  0  0  0  0  0  0
   -3.6348    3.4200   -2.2295 H   0  0  0  0  0  0  0  0  0  0  0  0
   -5.1777   -0.0883   -3.5350 H   0  0  0  0  0  0  0  0  0  0  0  0
  1  2  2  0
  2  3  1  0
  3  4  2  0
  4  5  1  0
  5  6  1  0
  6  7  1  0
  7  8  1  0
  8  9  1  0
  9 10  1  0
 10 11  1  0
 11 12  1  0
 12 13  2  0
 13 14  1  0
 14 15  2  0
 15 16  1  0
 16 17  2  0
 11 18  2  0
  2 19  1  0
 19 20  1  0
 20 21  1  0
 21 22  1  0
 22 23  1  0
 23 24  1  0
 24 25  2  0
 25 26  1  0
 25 27  1  0
 27 28  1  0
 28 29  2  0
 18  3  1  0
 23 19  1  0
 29 24  1  0
 10  4  1  0
 17 12  1  0
 26 20  1  0
  5 30  1  0
  5 31  1  0
  6 32  1  0
  6 33  1  0
  7 34  1  0
  7 35  1  0
  8 36  1  0
  8 37  1  0
  9 38  1  0
  9 39  1  0
 13 40  1  0
 14 41  1  0
 15 42  1  0
 16 43  1  0
 17 44  1  0
 20 45  1  0
 21 46  1  0
 21 47  1  0
 22 48  1  0
 22 49  1  0
 23 50  1  0
 26 51  1  0
 26 52  1  0
 27 53  1  0
 29 54  1  0
M  END
$$$$
OCNT-2316408
     RDKit          3D

 50 53  0  0  0  0  0  0  0  0999 V2000
   -3.6412   -2.6236   -0.5878 C   0  0  0  0  0  0  0  0  0  0  0  0
   -3.6558   -1.1489   -0.3418 N   0  0  0  0  0  0  0  0  0  0  0  0
   -4.3433   -0.7638    0.8819 C   0  0  0  0  0  0  0  0  0  0  0  0
   -5.7137   -1.0432    1.0202 C   0  0  0  0  0  0  0  0  0  0  0  0
   -6.4048   -0.6876    2.1781 C   0  0  0  0  0  0  0  0  0  0  0  0
   -5.7354   -0.0516    3.2159 C   0  0  0  0  0  0  0  0  0  0  0  0
   -4.3735    0.2278    3.0951 C   0  0  0  0  0  0  0  0  0  0  0  0
   -3.6548   -0.1240    1.9356 C   0  0  0  0  0  0  0  0  0  0  0  0
   -2.1930    0.2388    1.9263 C   0  0  0  0  0  0  0  0  0  0  0  0
   -1.7661    0.9531    2.8280 O   0  0  0  0  0  0  0  0  0  0  0  0
   -1.4433   -0.2584    0.8803 N   0  0  0  0  0  0  0  0  0  0  0  0
   -0.0799   -0.0456    0.6018 C   0  0  0  0  0  0  0  0  0  0  0  0
    0.4210   -0.6007   -0.5815 C   0  0  0  0  0  0  0  0  0  0  0  0
    1.7656   -0.4362   -0.9414 C   0  0  0  0  0  0  0  0  0  0  0  0
    2.6411    0.2860   -0.1215 C   0  0  0  0  0  0  0  0  0  0  0  0
    4.0579    0.4856   -0.4506 C   0  0  0  0  0  0  0  0  0  0  0  0
    4.8924    1.2912    0.1850 N   0  0  0  0  0  0  0  0  0  0  0  0
    6.1061    1.1645   -0.4420 C   0  0  0  0  0  0  0  0  0  0  0  0
    7.3282    1.7957   -0.1712 C   0  0  0  0  0  0  0  0  0  0  0  0
    8.4358    1.4836   -0.9703 C   0  0  0  0  0  0  0  0  0  0  0  0
    8.3273    0.5625   -2.0156 C   0  0  0  0  0  0  0  0  0  0  0  0
    7.1145   -0.0766   -2.2998 C   0  0  0  0  0  0  0  0  0  0  0  0
    6.0284    0.2555   -1.4874 C   0  0  0  0  0  0  0  0  0  0  0  0
    4.7227   -0.1605   -1.4703 N   0  0  0  0  0  0  0  0  0  0  0  0
    2.1281    0.8420    1.0587 C   0  0  0  0  0  0  0  0  0  0  0  0
    0.7837    0.6785    1.4191 C   0  0  0  0  0  0  0  0  0  0  0  0
   -4.0910   -0.2651   -1.7576 S   0  0  0  0  0  0  0  0  0  0  0  0
   -3.7413    1.4245   -1.3032 C   0  0  0  0  0  0  0  0  0  0  0  0
   -5.5132   -0.4133   -1.9788 O   0  0  0  0  0  0  0  0  0  0  0  0
   -3.1407   -0.6530   -2.7808 O   0  0  0  0  0  0  0  0  0  0  0  0
   -2.8752   -2.8689   -1.3297 H   0  0  0  0  0  0  0  0  0  0  0  0
   -4.6140   -2.9835   -0.9352 H   0  0  0  0  0  0  0  0  0  0  0  0
   -3.3774   -3.1550    0.3332 H   0  0  0  0  0  0  0  0  0  0  0  0
   -6.2650   -1.5347    0.2207 H   0  0  0  0  0  0  0  0  0  0  0  0
   -7.4669   -0.9049    2.2659 H   0  0  0  0  0  0  0  0  0  0  0  0
   -6.2693    0.2300    4.1210 H   0  0  0  0  0  0  0  0  0  0  0  0
   -3.8692    0.7268    3.9227 H   0  0  0  0  0  0  0  0  0  0  0  0
   -1.9473   -0.8235    0.2051 H   0  0  0  0  0  0  0  0  0  0  0  0
   -0.2296   -1.1603   -1.2504 H   0  0  0  0  0  0  0  0  0  0  0  0
    2.0964   -0.8743   -1.8779 H   0  0  0  0  0  0  0  0  0  0  0  0
    7.4036    2.5085    0.6422 H   0  0  0  0  0  0  0  0  0  0  0  0
    9.3901    1.9653   -0.7714 H   0  0  0  0  0  0  0  0  0  0  0  0
    9.2034    0.3372   -2.6209 H   0  0  0  0  0  0  0  0  0  0  0  0
    7.0314   -0.7913   -3.1111 H   0  0  0  0  0  0  0  0  0  0  0  0
    4.3210   -0.8406   -2.0953 H   0  0  0  0  0  0  0  0  0  0  0  0
    2.7819    1.4139    1.7168 H   0  0  0  0  0  0  0  0  0  0  0  0
    0.4515    1.1296    2.3485 H   0  0  0  0  0  0  0  0  0  0  0  0
   -4.4029    1.7313   -0.4926 H   0  0  0  0  0  0  0  0  0  0  0  0
   -3.9326    2.0467   -2.1809 H   0  0  0  0  0  0  0  0  0  0  0  0
   -2.6918    1.5101   -1.0201 H   0  0  0  0  0  0  0  0  0  0  0  0
  1  2  1  0
  2  3  1  0
  3  4  2  0
  4  5  1  0
  5  6  2  0
  6  7  1  0
  7  8  2  0
  8  9  1  0
  9 10  2  0
  9 11  1  0
 11 12  1  0
 12 13  1  0
 13 14  2  0
 14 15  1  0
 15 16  1  0
 16 17  2  0
 17 18  1  0
 18 19  2  0
 19 20  1  0
 20 21  2  0
 21 22  1  0
 22 23  2  0
 23 24  1  0
 15 25  2  0
 25 26  1  0
  2 27  1  0
 27 28  1  0
 27 29  2  0
 27 30  2  0
  8  3  1  0
 26 12  2  0
 24 16  1  0
 23 18  1  0
  1 31  1  0
  1 32  1  0
  1 33  1  0
  4 34  1  0
  5 35  1  0
  6 36  1  0
  7 37  1  0
 11 38  1  0
 13 39  1  0
 14 40  1  0
 19 41  1  0
 20 42  1  0
 21 43  1  0
 22 44  1  0
 24 45  1  0
 25 46  1  0
 26 47  1  0
 28 48  1  0
 28 49  1  0
 28 50  1  0
M  END
$$$$
OCNT-2316436
     RDKit          3D

 43 46  0  0  0  0  0  0  0  0999 V2000
    3.3821    2.8934   -0.5044 C   0  0  0  0  0  0  0  0  0  0  0  0
    3.7012    1.4263   -0.4197 C   0  0  0  0  0  0  0  0  0  0  0  0
    5.0707    1.0865   -0.5504 C   0  0  0  0  0  0  0  0  0  0  0  0
    5.4814   -0.2573   -0.5956 C   0  0  0  0  0  0  0  0  0  0  0  0
    4.5094   -1.2463   -0.5104 C   0  0  0  0  0  0  0  0  0  0  0  0
    3.1502   -0.9472   -0.3588 C   0  0  0  0  0  0  0  0  0  0  0  0
    2.7481    0.4037   -0.2690 C   0  0  0  0  0  0  0  0  0  0  0  0
    1.3622    0.5715   -0.0631 N   0  0  0  0  0  0  0  0  0  0  0  0
    0.6693    1.6040    0.5325 C   0  0  0  0  0  0  0  0  0  0  0  0
    1.1205    2.6213    1.0389 O   0  0  0  0  0  0  0  0  0  0  0  0
   -0.7630    1.3199    0.5612 C   0  0  0  0  0  0  0  0  0  0  0  0
   -1.7529    2.1332    1.0595 C   0  0  0  0  0  0  0  0  0  0  0  0
   -2.9463    1.4985    0.9010 O   0  0  0  0  0  0  0  0  0  0  0  0
   -2.6196    0.3079    0.3070 C   0  0  0  0  0  0  0  0  0  0  0  0
   -3.7405   -0.6262   -0.0005 C   0  0  0  0  0  0  0  0  0  0  0  0
   -4.3952   -1.1602    1.2818 C   0  0  0  0  0  0  0  0  0  0  0  0
   -5.8623   -1.5114    1.0631 C   0  0  0  0  0  0  0  0  0  0  0  0
   -6.0508   -1.9956   -0.2613 O   0  0  0  0  0  0  0  0  0  0  0  0
   -5.8917   -0.9752   -1.2487 C   0  0  0  0  0  0  0  0  0  0  0  0
   -4.7827    0.0193   -0.9126 C   0  0  0  0  0  0  0  0  0  0  0  0
   -1.3300    0.1452    0.0831 N   0  0  0  0  0  0  0  0  0  0  0  0
    5.1549   -2.4594   -0.5913 N   0  0  0  0  0  0  0  0  0  0  0  0
    6.5048   -2.2669   -0.7243 C   0  0  0  0  0  0  0  0  0  0  0  0
    6.7367   -0.9102   -0.7310 C   0  0  0  0  0  0  0  0  0  0  0  0
    4.1402    3.4227   -1.0942 H   0  0  0  0  0  0  0  0  0  0  0  0
    2.4360    3.0669   -1.0251 H   0  0  0  0  0  0  0  0  0  0  0  0
    3.3704    3.3422    0.4925 H   0  0  0  0  0  0  0  0  0  0  0  0
    5.8211    1.8681   -0.6432 H   0  0  0  0  0  0  0  0  0  0  0  0
    2.4283   -1.7538   -0.2732 H   0  0  0  0  0  0  0  0  0  0  0  0
    0.7796   -0.2492   -0.2112 H   0  0  0  0  0  0  0  0  0  0  0  0
   -1.7736    3.1097    1.5212 H   0  0  0  0  0  0  0  0  0  0  0  0
   -3.3122   -1.4818   -0.5418 H   0  0  0  0  0  0  0  0  0  0  0  0
   -4.3195   -0.4587    2.1216 H   0  0  0  0  0  0  0  0  0  0  0  0
   -3.8489   -2.0601    1.5937 H   0  0  0  0  0  0  0  0  0  0  0  0
   -6.5122   -0.6445    1.2341 H   0  0  0  0  0  0  0  0  0  0  0  0
   -6.1702   -2.2924    1.7657 H   0  0  0  0  0  0  0  0  0  0  0  0
   -5.6656   -1.4817   -2.1930 H   0  0  0  0  0  0  0  0  0  0  0  0
   -6.8469   -0.4555   -1.3818 H   0  0  0  0  0  0  0  0  0  0  0  0
   -5.2285    0.8877   -0.4084 H   0  0  0  0  0  0  0  0  0  0  0  0
   -4.3349    0.4074   -1.8355 H   0  0  0  0  0  0  0  0  0  0  0  0
    4.6957   -3.3588   -0.5535 H   0  0  0  0  0  0  0  0  0  0  0  0
    7.1807   -3.1076   -0.8028 H   0  0  0  0  0  0  0  0  0  0  0  0
    7.7043   -0.4352   -0.8249 H   0  0  0  0  0  0  0  0  0  0  0  0
  1  2  1  0
  2  3  1  0
  3  4  2  0
  4  5  1  0
  5  6  2  0
  6  7  1  0
  7  8  1  0
  8  9  1  0
  9 10  2  0
  9 11  1  0
 11 12  2  0
 12 13  1  0
 13 14  1  0
 14 15  1  0
 15 16  1  0
 16 17  1  0
 17 18  1  0
 18 19  1  0
 19 20  1  0
 14 21  2  0
  5 22  1  0
 22 23  1  0
 23 24  2  0
  7  2  2  0
 21 11  1  0
 24  4  1  0
 20 15  1  0
  1 25  1  0
  1 26  1  0
  1 27  1  0
  3 28  1  0
  6 29  1  0
  8 30  1  0
 12 31  1  0
 15 32  1  0
 16 33  1  0
 16 34  1  0
 17 35  1  0
 17 36  1  0
 19 37  1  0
 19 38  1  0
 20 39  1  0
 20 40  1  0
 22 41  1  0
 23 42  1  0
 24 43  1  0
M  END
$$$$
OCNT-2316441
     RDKit          3D

 46 50  0  0  0  0  0  0  0  0999 V2000
   -4.9004    1.2320   -1.2584 C   0  0  0  0  0  0  0  0  0  0  0  0
   -3.5384    0.7696   -1.7023 C   0  0  0  0  0  0  0  0  0  0  0  0
   -3.2926    0.8400   -3.0868 C   0  0  0  0  0  0  0  0  0  0  0  0
   -2.0416    0.5542   -3.6053 C   0  0  0  0  0  0  0  0  0  0  0  0
   -1.0020    0.2280   -2.7438 C   0  0  0  0  0  0  0  0  0  0  0  0
   -1.2034    0.1201   -1.3552 C   0  0  0  0  0  0  0  0  0  0  0  0
   -2.5200    0.3178   -0.8120 C   0  0  0  0  0  0  0  0  0  0  0  0
   -2.8012    0.0872    0.5884 N   0  0  0  0  0  0  0  0  0  0  0  0
   -4.0840   -0.5893    0.9482 C   0  0  0  0  0  0  0  0  0  0  0  0
   -5.1665    0.1497    1.6951 C   0  0  0  0  0  0  0  0  0  0  0  0
   -4.4417   -0.9668    2.3690 C   0  0  0  0  0  0  0  0  0  0  0  0
   -1.6537   -0.4615    1.3304 C   0  0  0  0  0  0  0  0  0  0  0  0
   -0.3401    0.1705    0.9218 C   0  0  0  0  0  0  0  0  0  0  0  0
   -0.0729   -0.0908   -0.4862 N   0  0  0  0  0  0  0  0  0  0  0  0
    1.1893   -0.5144   -0.9382 C   0  0  0  0  0  0  0  0  0  0  0  0
    1.3434   -1.1981   -1.9526 O   0  0  0  0  0  0  0  0  0  0  0  0
    2.3935   -0.1420   -0.1518 C   0  0  0  0  0  0  0  0  0  0  0  0
    2.4427    0.8572    0.7534 N   0  0  0  0  0  0  0  0  0  0  0  0
    3.7230    0.8718    1.1652 N   0  0  0  0  0  0  0  0  0  0  0  0
    4.5084   -0.0718    0.5720 C   0  0  0  0  0  0  0  0  0  0  0  0
    5.8914   -0.2128    0.8782 C   0  0  0  0  0  0  0  0  0  0  0  0
    6.8190   -1.0964    0.3538 C   0  0  0  0  0  0  0  0  0  0  0  0
    8.0563   -0.8311    0.9895 C   0  0  0  0  0  0  0  0  0  0  0  0
    7.8177    0.1979    1.8662 C   0  0  0  0  0  0  0  0  0  0  0  0
    6.5167    0.5781    1.8081 O   0  0  0  0  0  0  0  0  0  0  0  0
    3.6806   -0.7402   -0.2976 C   0  0  0  0  0  0  0  0  0  0  0  0
   -5.5706    0.3816   -1.1096 H   0  0  0  0  0  0  0  0  0  0  0  0
   -4.8267    1.8422   -0.3543 H   0  0  0  0  0  0  0  0  0  0  0  0
   -5.3622    1.8811   -2.0120 H   0  0  0  0  0  0  0  0  0  0  0  0
   -4.0818    1.1485   -3.7700 H   0  0  0  0  0  0  0  0  0  0  0  0
   -1.8595    0.6300   -4.6737 H   0  0  0  0  0  0  0  0  0  0  0  0
   -0.0227    0.0976   -3.1933 H   0  0  0  0  0  0  0  0  0  0  0  0
   -4.3827   -1.3259    0.2032 H   0  0  0  0  0  0  0  0  0  0  0  0
   -4.9556    1.1604    2.0246 H   0  0  0  0  0  0  0  0  0  0  0  0
   -6.1934   -0.0174    1.3940 H   0  0  0  0  0  0  0  0  0  0  0  0
   -4.9745   -1.8989    2.5200 H   0  0  0  0  0  0  0  0  0  0  0  0
   -3.7937   -0.6969    3.1920 H   0  0  0  0  0  0  0  0  0  0  0  0
   -1.6071   -1.5498    1.1866 H   0  0  0  0  0  0  0  0  0  0  0  0
   -1.7896   -0.2756    2.4012 H   0  0  0  0  0  0  0  0  0  0  0  0
   -0.3489    1.2562    1.0768 H   0  0  0  0  0  0  0  0  0  0  0  0
    0.4347   -0.2723    1.5539 H   0  0  0  0  0  0  0  0  0  0  0  0
    4.0095    1.5577    1.8562 H   0  0  0  0  0  0  0  0  0  0  0  0
    6.6241   -1.8448   -0.4019 H   0  0  0  0  0  0  0  0  0  0  0  0
    9.0025   -1.3279    0.8272 H   0  0  0  0  0  0  0  0  0  0  0  0
    8.4347    0.7446    2.5659 H   0  0  0  0  0  0  0  0  0  0  0  0
    3.9402   -1.5494   -0.9666 H   0  0  0  0  0  0  0  0  0  0  0  0
  1  2  1  0
  2  3  2  0
  3  4  1  0
  4  5  2  0
  5  6  1  0
  6  7  2  0
  7  8  1  0
  8  9  1  0
  9 10  1  0
 10 11  1  0
  8 12  1  0
 12 13  1  0
 13 14  1  0
 14 15  1  0
 15 16  2  0
 15 17  1  0
 17 18  2  0
 18 19  1  0
 19 20  1  0
 20 21  1  0
 21 22  2  0
 22 23  1  0
 23 24  2  0
 24 25  1  0
 20 26  2  0
  7  2  1  0
 11  9  1  0
 26 17  1  0
 14  6  1  0
 25 21  1  0
  1 27  1  0
  1 28  1  0
  1 29  1  0
  3 30  1  0
  4 31  1  0
  5 32  1  0
  9 33  1  0
 10 34  1  0
 10 35  1  0
 11 36  1  0
 11 37  1  0
 12 38  1  0
 12 39  1  0
 13 40  1  0
 13 41  1  0
 19 42  1  0
 22 43  1  0
 23 44  1  0
 24 45  1  0
 26 46  1  0
M  END
$$$$
OCNT-2316464
     RDKit          3D

 44 47  0  0  0  0  0  0  0  0999 V2000
    4.3638    2.5230    1.7853 C   0  0  0  0  0  0  0  0  0  0  0  0
    4.7682    1.3667    0.8884 C   0  0  0  0  0  0  0  0  0  0  0  0
    3.6369    0.5316    0.5319 N   0  0  0  0  0  0  0  0  0  0  0  0
    3.3175   -0.5170    1.3214 N   0  0  0  0  0  0  0  0  0  0  0  0
    2.2514   -1.0610    0.7240 C   0  0  0  0  0  0  0  0  0  0  0  0
    1.8713   -0.3594   -0.4347 C   0  0  0  0  0  0  0  0  0  0  0  0
    2.7985    0.6584   -0.5399 C   0  0  0  0  0  0  0  0  0  0  0  0
    2.8367    1.6937   -1.6065 C   0  0  0  0  0  0  0  0  0  0  0  0
    1.9572    1.2427   -2.7908 C   0  0  0  0  0  0  0  0  0  0  0  0
    0.6052    0.6626   -2.3300 C   0  0  0  0  0  0  0  0  0  0  0  0
    0.7784   -0.5852   -1.4252 C   0  0  0  0  0  0  0  0  0  0  0  0
   -0.4415   -0.8798   -0.7102 N   0  0  0  0  0  0  0  0  0  0  0  0
   -1.5112   -1.5042   -1.3012 C   0  0  0  0  0  0  0  0  0  0  0  0
   -1.4703   -1.9455   -2.4457 O   0  0  0  0  0  0  0  0  0  0  0  0
   -2.7620   -1.6474   -0.4893 C   0  0  0  0  0  0  0  0  0  0  0  0
   -3.7325   -2.5359   -0.9973 C   0  0  0  0  0  0  0  0  0  0  0  0
   -4.9230   -2.7416   -0.3142 C   0  0  0  0  0  0  0  0  0  0  0  0
   -5.1425   -2.0560    0.8711 C   0  0  0  0  0  0  0  0  0  0  0  0
   -6.2991   -2.2622    1.5201 F   0  0  0  0  0  0  0  0  0  0  0  0
   -4.1933   -1.1659    1.3932 C   0  0  0  0  0  0  0  0  0  0  0  0
   -4.4351   -0.4792    2.5949 C   0  0  0  0  0  0  0  0  0  0  0  0
   -3.4906    0.4006    3.1011 C   0  0  0  0  0  0  0  0  0  0  0  0
   -2.3254    0.5652    2.3869 C   0  0  0  0  0  0  0  0  0  0  0  0
   -2.0585   -0.0789    1.2275 N   0  0  0  0  0  0  0  0  0  0  0  0
   -2.9736   -0.9452    0.7143 C   0  0  0  0  0  0  0  0  0  0  0  0
    3.6402    3.1766    1.2856 H   0  0  0  0  0  0  0  0  0  0  0  0
    3.9025    2.1618    2.7113 H   0  0  0  0  0  0  0  0  0  0  0  0
    5.2390    3.1239    2.0511 H   0  0  0  0  0  0  0  0  0  0  0  0
    5.5060    0.7302    1.3896 H   0  0  0  0  0  0  0  0  0  0  0  0
    5.2250    1.7345   -0.0362 H   0  0  0  0  0  0  0  0  0  0  0  0
    1.7950   -1.9414    1.1594 H   0  0  0  0  0  0  0  0  0  0  0  0
    3.8581    1.8667   -1.9611 H   0  0  0  0  0  0  0  0  0  0  0  0
    2.4551    2.6391   -1.2031 H   0  0  0  0  0  0  0  0  0  0  0  0
    2.4910    0.4763   -3.3665 H   0  0  0  0  0  0  0  0  0  0  0  0
    1.7902    2.0919   -3.4639 H   0  0  0  0  0  0  0  0  0  0  0  0
    0.0546    1.4456   -1.7898 H   0  0  0  0  0  0  0  0  0  0  0  0
   -0.0037    0.4033   -3.2047 H   0  0  0  0  0  0  0  0  0  0  0  0
    1.0388   -1.4477   -2.0520 H   0  0  0  0  0  0  0  0  0  0  0  0
   -0.6167   -0.3946    0.1688 H   0  0  0  0  0  0  0  0  0  0  0  0
   -3.5542   -3.0691   -1.9300 H   0  0  0  0  0  0  0  0  0  0  0  0
   -5.6751   -3.4241   -0.6965 H   0  0  0  0  0  0  0  0  0  0  0  0
   -5.3658   -0.6317    3.1379 H   0  0  0  0  0  0  0  0  0  0  0  0
   -3.6611    0.9399    4.0272 H   0  0  0  0  0  0  0  0  0  0  0  0
   -1.5453    1.2389    2.7348 H   0  0  0  0  0  0  0  0  0  0  0  0
  1  2  1  0
  2  3  1  0
  3  4  1  0
  4  5  2  0
  5  6  1  0
  6  7  2  0
  7  8  1  0
  8  9  1  0
  9 10  1  0
 10 11  1  0
 11 12  1  0
 12 13  1  0
 13 14  2  0
 13 15  1  0
 15 16  1  0
 16 17  2  0
 17 18  1  0
 18 19  1  0
 18 20  2  0
 20 21  1  0
 21 22  2  0
 22 23  1  0
 23 24  2  0
 24 25  1  0
  7  3  1  0
 25 15  2  0
 11  6  1  0
 25 20  1  0
  1 26  1  0
  1 27  1  0
  1 28  1  0
  2 29  1  0
  2 30  1  0
  5 31  1  0
  8 32  1  0
  8 33  1  0
  9 34  1  0
  9 35  1  0
 10 36  1  0
 10 37  1  0
 11 38  1  0
 12 39  1  0
 16 40  1  0
 17 41  1  0
 21 42  1  0
 22 43  1  0
 23 44  1  0
M  END
$$$$
OCNT-2316475
     RDKit          3D

 38 39  0  0  0  0  0  0  0  0999 V2000
    6.3547    2.6057    2.3518 C   0  0  0  0  0  0  0  0  0  0  0  0
    5.0301    2.4440    1.6382 C   0  0  0  0  0  0  0  0  0  0  0  0
    5.2568    2.3720    0.3038 F   0  0  0  0  0  0  0  0  0  0  0  0
    4.2747    3.5501    1.8470 F   0  0  0  0  0  0  0  0  0  0  0  0
    4.2598    1.2230    2.0928 C   0  0  0  0  0  0  0  0  0  0  0  0
    2.9679    1.0687    1.2996 C   0  0  0  0  0  0  0  0  0  0  0  0
    2.0655   -0.3666    1.8601 S   0  0  0  0  0  0  0  0  0  0  0  0
    2.8632   -1.5471    1.6169 O   0  0  0  0  0  0  0  0  0  0  0  0
    1.5143   -0.0767    3.1646 O   0  0  0  0  0  0  0  0  0  0  0  0
    0.7654   -0.3940    0.8131 N   0  0  0  0  0  0  0  0  0  0  0  0
    0.8716   -1.2944   -0.3540 C   0  0  0  0  0  0  0  0  0  0  0  0
   -0.4361   -1.3459   -1.0608 C   0  0  0  0  0  0  0  0  0  0  0  0
   -1.6453   -1.0683   -0.6233 N   0  0  0  0  0  0  0  0  0  0  0  0
   -2.4322   -1.3628   -1.7205 C   0  0  0  0  0  0  0  0  0  0  0  0
   -3.8844   -1.2172   -1.6949 C   0  0  0  0  0  0  0  0  0  0  0  0
   -4.6819   -1.7165   -2.7388 C   0  0  0  0  0  0  0  0  0  0  0  0
   -6.0734   -1.5806   -2.6988 C   0  0  0  0  0  0  0  0  0  0  0  0
   -6.6792   -0.9443   -1.6181 C   0  0  0  0  0  0  0  0  0  0  0  0
   -5.8956   -0.4505   -0.5826 C   0  0  0  0  0  0  0  0  0  0  0  0
   -6.5310    0.1742    0.4515 O   0  0  0  0  0  0  0  0  0  0  0  0
   -4.5086   -0.5827   -0.6084 C   0  0  0  0  0  0  0  0  0  0  0  0
   -1.7389   -1.8122   -2.7799 N   0  0  0  0  0  0  0  0  0  0  0  0
   -0.4134   -1.7877   -2.3500 O   0  0  0  0  0  0  0  0  0  0  0  0
    6.8817    3.4898    1.9760 H   0  0  0  0  0  0  0  0  0  0  0  0
    7.0014    1.7407    2.1704 H   0  0  0  0  0  0  0  0  0  0  0  0
    6.2084    2.7267    3.4281 H   0  0  0  0  0  0  0  0  0  0  0  0
    4.8759    0.3251    1.9606 H   0  0  0  0  0  0  0  0  0  0  0  0
    4.0266    1.3098    3.1600 H   0  0  0  0  0  0  0  0  0  0  0  0
    2.3169    1.9364    1.4294 H   0  0  0  0  0  0  0  0  0  0  0  0
    3.1839    0.9370    0.2362 H   0  0  0  0  0  0  0  0  0  0  0  0
   -0.1286   -0.4588    1.3142 H   0  0  0  0  0  0  0  0  0  0  0  0
    1.6560   -0.9306   -1.0256 H   0  0  0  0  0  0  0  0  0  0  0  0
    1.1067   -2.3138   -0.0256 H   0  0  0  0  0  0  0  0  0  0  0  0
   -4.2279   -2.2137   -3.5938 H   0  0  0  0  0  0  0  0  0  0  0  0
   -6.6845   -1.9780   -3.5075 H   0  0  0  0  0  0  0  0  0  0  0  0
   -7.7605   -0.8342   -1.5798 H   0  0  0  0  0  0  0  0  0  0  0  0
   -5.8553    0.5726    1.0372 H   0  0  0  0  0  0  0  0  0  0  0  0
   -3.9047   -0.1991    0.2094 H   0  0  0  0  0  0  0  0  0  0  0  0
  1  2  1  0
  2  3  1  0
  2  4  1  0
  2  5  1  0
  5  6  1  0
  6  7  1  0
  7  8  2  0
  7  9  2  0
  7 10  1  0
 10 11  1  0
 11 12  1  0
 12 13  2  0
 13 14  1  0
 14 15  1  0
 15 16  2  0
 16 17  1  0
 17 18  2  0
 18 19  1  0
 19 20  1  0
 19 21  2  0
 14 22  2  0
 22 23  1  0
 23 12  1  0
 21 15  1  0
  1 24  1  0
  1 25  1  0
  1 26  1  0
  5 27  1  0
  5 28  1  0
  6 29  1  0
  6 30  1  0
 10 31  1  0
 11 32  1  0
 11 33  1  0
 16 34  1  0
 17 35  1  0
 18 36  1  0
 20 37  1  0
 21 38  1  0
M  END
$$$$
OCNT-2316476
     RDKit          3D

 37 39  0  0  0  0  0  0  0  0999 V2000
    6.8052   -0.8593   -0.6316 C   0  0  0  0  0  0  0  0  0  0  0  0
    5.3510   -0.8441   -1.0673 C   0  0  0  0  0  0  0  0  0  0  0  0
    4.4122   -0.5402    0.0964 C   0  0  0  0  0  0  0  0  0  0  0  0
    3.0759   -0.5476   -0.4075 O   0  0  0  0  0  0  0  0  0  0  0  0
    2.0708   -0.2842    0.4822 C   0  0  0  0  0  0  0  0  0  0  0  0
    2.2277   -0.0243    1.8440 C   0  0  0  0  0  0  0  0  0  0  0  0
    1.1112    0.2426    2.6402 C   0  0  0  0  0  0  0  0  0  0  0  0
   -0.1660    0.2421    2.0799 C   0  0  0  0  0  0  0  0  0  0  0  0
   -0.3353   -0.0339    0.7187 C   0  0  0  0  0  0  0  0  0  0  0  0
   -1.7116   -0.0310    0.1549 C   0  0  0  0  0  0  0  0  0  0  0  0
   -2.6475    0.6831    0.6960 N   0  0  0  0  0  0  0  0  0  0  0  0
   -3.9298    0.6523    0.1231 C   0  0  0  0  0  0  0  0  0  0  0  0
   -4.9308    1.4463    0.6933 C   0  0  0  0  0  0  0  0  0  0  0  0
   -6.2241    1.4545    0.1646 C   0  0  0  0  0  0  0  0  0  0  0  0
   -6.5233    0.6638   -0.9432 C   0  0  0  0  0  0  0  0  0  0  0  0
   -5.5314   -0.1293   -1.5158 C   0  0  0  0  0  0  0  0  0  0  0  0
   -5.8564   -0.8750   -2.5806 F   0  0  0  0  0  0  0  0  0  0  0  0
   -4.2429   -0.1356   -0.9876 C   0  0  0  0  0  0  0  0  0  0  0  0
   -3.1647   -0.9581   -1.5532 C   0  0  0  0  0  0  0  0  0  0  0  0
   -3.3209   -1.7231   -2.4959 O   0  0  0  0  0  0  0  0  0  0  0  0
   -1.9403   -0.8291   -0.9431 N   0  0  0  0  0  0  0  0  0  0  0  0
    0.7887   -0.2849   -0.0776 C   0  0  0  0  0  0  0  0  0  0  0  0
    6.9777   -1.6237    0.1327 H   0  0  0  0  0  0  0  0  0  0  0  0
    7.1016    0.1110   -0.2205 H   0  0  0  0  0  0  0  0  0  0  0  0
    7.4546   -1.0794   -1.4847 H   0  0  0  0  0  0  0  0  0  0  0  0
    5.0852   -1.8112   -1.5109 H   0  0  0  0  0  0  0  0  0  0  0  0
    5.2074   -0.0994   -1.8594 H   0  0  0  0  0  0  0  0  0  0  0  0
    4.5267   -1.3105    0.8686 H   0  0  0  0  0  0  0  0  0  0  0  0
    4.6524    0.4462    0.5112 H   0  0  0  0  0  0  0  0  0  0  0  0
    3.2043   -0.0146    2.3171 H   0  0  0  0  0  0  0  0  0  0  0  0
    1.2368    0.4530    3.6997 H   0  0  0  0  0  0  0  0  0  0  0  0
   -1.0277    0.4530    2.7102 H   0  0  0  0  0  0  0  0  0  0  0  0
   -4.6942    2.0632    1.5573 H   0  0  0  0  0  0  0  0  0  0  0  0
   -6.9927    2.0765    0.6169 H   0  0  0  0  0  0  0  0  0  0  0  0
   -7.5232    0.6583   -1.3672 H   0  0  0  0  0  0  0  0  0  0  0  0
   -1.2236   -1.4352   -1.3147 H   0  0  0  0  0  0  0  0  0  0  0  0
    0.6969   -0.4556   -1.1463 H   0  0  0  0  0  0  0  0  0  0  0  0
  1  2  1  0
  2  3  1  0
  3  4  1  0
  4  5  1  0
  5  6  1  0
  6  7  2  0
  7  8  1  0
  8  9  2  0
  9 10  1  0
 10 11  2  0
 11 12  1  0
 12 13  2  0
 13 14  1  0
 14 15  2  0
 15 16  1  0
 16 17  1  0
 16 18  2  0
 18 19  1  0
 19 20  2  0
 19 21  1  0
  9 22  1  0
 22  5  2  0
 21 10  1  0
 18 12  1  0
  1 23  1  0
  1 24  1  0
  1 25  1  0
  2 26  1  0
  2 27  1  0
  3 28  1  0
  3 29  1  0
  6 30  1  0
  7 31  1  0
  8 32  1  0
 13 33  1  0
 14 34  1  0
 15 35  1  0
 21 36  1  0
 22 37  1  0
M  END
$$$$
OCNT-2316494
     RDKit          3D

 39 41  0  0  0  0  0  0  0  0999 V2000
    7.0999    0.5279    0.4783 C   0  0  0  0  0  0  0  0  0  0  0  0
    5.8882    0.0142   -0.2606 C   0  0  0  0  0  0  0  0  0  0  0  0
    5.9782   -0.3187   -1.4366 O   0  0  0  0  0  0  0  0  0  0  0  0
    4.7735   -0.0396    0.5422 N   0  0  0  0  0  0  0  0  0  0  0  0
    3.5201   -0.4695    0.1938 C   0  0  0  0  0  0  0  0  0  0  0  0
    2.5468   -0.4694    1.0728 N   0  0  0  0  0  0  0  0  0  0  0  0
    1.3735   -0.9473    0.4888 C   0  0  0  0  0  0  0  0  0  0  0  0
    0.1424   -1.1079    1.2669 C   0  0  0  0  0  0  0  0  0  0  0  0
    0.1509   -1.7475    2.3199 O   0  0  0  0  0  0  0  0  0  0  0  0
   -1.0440   -0.6089    0.7428 N   0  0  0  0  0  0  0  0  0  0  0  0
   -2.3310   -1.0488    1.2951 C   0  0  0  0  0  0  0  0  0  0  0  0
   -3.4303   -0.5189    0.3444 C   0  0  0  0  0  0  0  0  0  0  0  0
   -4.6161    0.0408    1.1333 C   0  0  0  0  0  0  0  0  0  0  0  0
   -3.8959   -1.6146   -0.6224 C   0  0  0  0  0  0  0  0  0  0  0  0
   -2.6613    0.5496   -0.4030 C   0  0  0  0  0  0  0  0  0  0  0  0
   -3.1714    1.5244   -1.2547 C   0  0  0  0  0  0  0  0  0  0  0  0
   -2.2829    2.4268   -1.8360 C   0  0  0  0  0  0  0  0  0  0  0  0
   -0.9183    2.3436   -1.5499 C   0  0  0  0  0  0  0  0  0  0  0  0
   -0.0834    3.2368   -2.0981 F   0  0  0  0  0  0  0  0  0  0  0  0
   -0.4033    1.3649   -0.7018 C   0  0  0  0  0  0  0  0  0  0  0  0
   -1.2846    0.4518   -0.1494 C   0  0  0  0  0  0  0  0  0  0  0  0
    1.5142   -1.3177   -0.8389 C   0  0  0  0  0  0  0  0  0  0  0  0
    3.1171   -1.0235   -1.3630 S   0  0  0  0  0  0  0  0  0  0  0  0
    7.6697   -0.3201    0.8670 H   0  0  0  0  0  0  0  0  0  0  0  0
    7.7242    1.1041   -0.2108 H   0  0  0  0  0  0  0  0  0  0  0  0
    6.8167    1.1849    1.3056 H   0  0  0  0  0  0  0  0  0  0  0  0
    4.8348    0.2417    1.5107 H   0  0  0  0  0  0  0  0  0  0  0  0
   -2.3407   -2.1402    1.3979 H   0  0  0  0  0  0  0  0  0  0  0  0
   -2.4114   -0.6194    2.3025 H   0  0  0  0  0  0  0  0  0  0  0  0
   -5.0756   -0.7377    1.7526 H   0  0  0  0  0  0  0  0  0  0  0  0
   -5.3910    0.4365    0.4672 H   0  0  0  0  0  0  0  0  0  0  0  0
   -4.3082    0.8582    1.7959 H   0  0  0  0  0  0  0  0  0  0  0  0
   -3.0577   -2.0397   -1.1873 H   0  0  0  0  0  0  0  0  0  0  0  0
   -4.3818   -2.4340   -0.0810 H   0  0  0  0  0  0  0  0  0  0  0  0
   -4.6149   -1.2232   -1.3515 H   0  0  0  0  0  0  0  0  0  0  0  0
   -4.2345    1.5905   -1.4652 H   0  0  0  0  0  0  0  0  0  0  0  0
   -2.6408    3.2055   -2.5030 H   0  0  0  0  0  0  0  0  0  0  0  0
    0.6563    1.3817   -0.4862 H   0  0  0  0  0  0  0  0  0  0  0  0
    0.7726   -1.7373   -1.5039 H   0  0  0  0  0  0  0  0  0  0  0  0
  1  2  1  0
  2  3  2  0
  2  4  1  0
  4  5  1  0
  5  6  2  0
  6  7  1  0
  7  8  1  0
  8  9  2  0
  8 10  1  0
 10 11  1  0
 11 12  1  0
 12 13  1  0
 12 14  1  0
 12 15  1  0
 15 16  1  0
 16 17  2  0
 17 18  1  0
 18 19  1  0
 18 20  2  0
 20 21  1  0
  7 22  2  0
 22 23  1  0
 23  5  1  0
 21 10  1  0
 21 15  2  0
  1 24  1  0
  1 25  1  0
  1 26  1  0
  4 27  1  0
 11 28  1  0
 11 29  1  0
 13 30  1  0
 13 31  1  0
 13 32  1  0
 14 33  1  0
 14 34  1  0
 14 35  1  0
 16 36  1  0
 17 37  1  0
 20 38  1  0
 22 39  1  0
M  END
$$$$
OCNT-2316507
     RDKit          3D

 47 50  0  0  0  0  0  0  0  0999 V2000
    6.9419   -1.3567   -0.3770 C   0  0  0  0  0  0  0  0  0  0  0  0
    6.2901   -0.5427    0.7288 C   0  0  0  0  0  0  0  0  0  0  0  0
    4.9894    0.0167    0.2981 C   0  0  0  0  0  0  0  0  0  0  0  0
    3.6827   -0.3852    0.4203 C   0  0  0  0  0  0  0  0  0  0  0  0
    2.9320    0.6253   -0.2306 C   0  0  0  0  0  0  0  0  0  0  0  0
    1.5558    0.5987   -0.3257 N   0  0  0  0  0  0  0  0  0  0  0  0
    0.7897    1.5029   -1.0212 C   0  0  0  0  0  0  0  0  0  0  0  0
    1.2061    2.4324   -1.7053 O   0  0  0  0  0  0  0  0  0  0  0  0
   -0.5717    1.2715   -0.9025 N   0  0  0  0  0  0  0  0  0  0  0  0
   -1.5820    2.2926   -1.1901 C   0  0  0  0  0  0  0  0  0  0  0  0
   -2.5725    1.4388   -0.3619 C   0  0  0  0  0  0  0  0  0  0  0  0
   -3.4155    2.1869    0.6868 C   0  0  0  0  0  0  0  0  0  0  0  0
   -4.8613    1.9621    0.2549 C   0  0  0  0  0  0  0  0  0  0  0  0
   -4.8270    0.5828   -0.3804 C   0  0  0  0  0  0  0  0  0  0  0  0
   -3.5626    0.6402   -1.2286 C   0  0  0  0  0  0  0  0  0  0  0  0
   -1.3120    0.7360    0.2485 C   0  0  0  0  0  0  0  0  0  0  0  0
   -1.3246   -0.8377    0.4731 C   0  0  0  0  0  0  0  0  0  0  0  0
   -1.6422   -1.3843    1.7332 C   0  0  0  0  0  0  0  0  0  0  0  0
   -1.6432   -2.7624    1.9677 C   0  0  0  0  0  0  0  0  0  0  0  0
   -1.3251   -3.6427    0.9399 C   0  0  0  0  0  0  0  0  0  0  0  0
   -1.0101   -3.1445   -0.3189 C   0  0  0  0  0  0  0  0  0  0  0  0
   -1.0119   -1.7652   -0.5440 C   0  0  0  0  0  0  0  0  0  0  0  0
    3.7414    1.5767   -0.7039 N   0  0  0  0  0  0  0  0  0  0  0  0
    5.0266    1.1953   -0.3759 O   0  0  0  0  0  0  0  0  0  0  0  0
    7.9005   -1.7608   -0.0365 H   0  0  0  0  0  0  0  0  0  0  0  0
    6.3064   -2.1967   -0.6779 H   0  0  0  0  0  0  0  0  0  0  0  0
    7.1280   -0.7422   -1.2647 H   0  0  0  0  0  0  0  0  0  0  0  0
    6.1441   -1.1784    1.6097 H   0  0  0  0  0  0  0  0  0  0  0  0
    6.9619    0.2691    1.0307 H   0  0  0  0  0  0  0  0  0  0  0  0
    3.3233   -1.2794    0.9057 H   0  0  0  0  0  0  0  0  0  0  0  0
    1.0950   -0.2025    0.0703 H   0  0  0  0  0  0  0  0  0  0  0  0
   -1.3250    3.2704   -0.7687 H   0  0  0  0  0  0  0  0  0  0  0  0
   -1.7953    2.3947   -2.2575 H   0  0  0  0  0  0  0  0  0  0  0  0
   -3.1774    3.2532    0.7474 H   0  0  0  0  0  0  0  0  0  0  0  0
   -3.2674    1.7510    1.6821 H   0  0  0  0  0  0  0  0  0  0  0  0
   -5.1540    2.7131   -0.4887 H   0  0  0  0  0  0  0  0  0  0  0  0
   -5.5586    2.0222    1.0952 H   0  0  0  0  0  0  0  0  0  0  0  0
   -5.7183    0.3732   -0.9781 H   0  0  0  0  0  0  0  0  0  0  0  0
   -4.7357   -0.1900    0.3920 H   0  0  0  0  0  0  0  0  0  0  0  0
   -3.7851    1.1835   -2.1557 H   0  0  0  0  0  0  0  0  0  0  0  0
   -3.2140   -0.3549   -1.5101 H   0  0  0  0  0  0  0  0  0  0  0  0
   -0.9543    1.2417    1.1608 H   0  0  0  0  0  0  0  0  0  0  0  0
   -1.8977   -0.7157    2.5545 H   0  0  0  0  0  0  0  0  0  0  0  0
   -1.8968   -3.1456    2.9531 H   0  0  0  0  0  0  0  0  0  0  0  0
   -1.3299   -4.7149    1.1174 H   0  0  0  0  0  0  0  0  0  0  0  0
   -0.7700   -3.8266   -1.1309 H   0  0  0  0  0  0  0  0  0  0  0  0
   -0.7732   -1.4019   -1.5438 H   0  0  0  0  0  0  0  0  0  0  0  0
  1  2  1  0
  2  3  1  0
  3  4  2  0
  4  5  1  0
  5  6  1  0
  6  7  1  0
  7  8  2  0
  7  9  1  0
  9 10  1  0
 10 11  1  0
 11 12  1  0
 12 13  1  0
 13 14  1  0
 14 15  1  0
 11 16  1  0
 16 17  1  0
 17 18  2  0
 18 19  1  0
 19 20  2  0
 20 21  1  0
 21 22  2  0
  5 23  2  0
 23 24  1  0
 24  3  1  0
 16  9  1  0
 22 17  1  0
 15 11  1  0
  1 25  1  0
  1 26  1  0
  1 27  1  0
  2 28  1  0
  2 29  1  0
  4 30  1  0
  6 31  1  0
 10 32  1  0
 10 33  1  0
 12 34  1  0
 12 35  1  0
 13 36  1  0
 13 37  1  0
 14 38  1  0
 14 39  1  0
 15 40  1  0
 15 41  1  0
 16 42  1  0
 18 43  1  0
 19 44  1  0
 20 45  1  0
 21 46  1  0
 22 47  1  0
M  END
$$$$
OCNT-2316515
     RDKit          3D

 45 48  0  0  0  0  0  0  0  0999 V2000
   -0.6073    0.6437    1.6710 O   0  0  0  0  0  0  0  0  0  0  0  0
   -0.7163    0.2821    0.5073 C   0  0  0  0  0  0  0  0  0  0  0  0
    0.2823   -0.1589   -0.3343 N   0  0  0  0  0  0  0  0  0  0  0  0
    1.6524   -0.1348   -0.0501 C   0  0  0  0  0  0  0  0  0  0  0  0
    2.4992   -0.8037   -0.9234 C   0  0  0  0  0  0  0  0  0  0  0  0
    3.8766   -0.7889   -0.6838 C   0  0  0  0  0  0  0  0  0  0  0  0
    4.4178   -0.1106    0.4166 C   0  0  0  0  0  0  0  0  0  0  0  0
    5.9683   -0.0400    0.7649 C   0  0  0  0  0  0  0  0  0  0  0  0
    6.8022    1.0857    0.0882 C   0  0  0  0  0  0  0  0  0  0  0  0
    7.3090    0.0382   -0.9191 C   0  0  0  0  0  0  0  0  0  0  0  0
    6.9672   -1.0425    0.1225 C   0  0  0  0  0  0  0  0  0  0  0  0
    3.4657    0.5322    1.2126 C   0  0  0  0  0  0  0  0  0  0  0  0
    2.1274    0.5395    1.0045 N   0  0  0  0  0  0  0  0  0  0  0  0
   -1.9455    0.2395   -0.1469 N   0  0  0  0  0  0  0  0  0  0  0  0
   -3.1406    0.6785    0.5140 C   0  0  0  0  0  0  0  0  0  0  0  0
   -3.9789   -0.2945    1.2988 C   0  0  0  0  0  0  0  0  0  0  0  0
   -4.5153    0.2848    0.0110 C   0  0  0  0  0  0  0  0  0  0  0  0
   -4.6551   -0.6285   -1.1890 C   0  0  0  0  0  0  0  0  0  0  0  0
   -6.0771   -1.1842   -1.2583 C   0  0  0  0  0  0  0  0  0  0  0  0
   -7.0365   -0.1204   -1.2796 O   0  0  0  0  0  0  0  0  0  0  0  0
   -6.9798    0.6515   -0.0732 C   0  0  0  0  0  0  0  0  0  0  0  0
   -5.6159    1.3235    0.0745 C   0  0  0  0  0  0  0  0  0  0  0  0
   -0.0143   -0.6953   -1.1308 H   0  0  0  0  0  0  0  0  0  0  0  0
    2.1157   -1.3395   -1.7843 H   0  0  0  0  0  0  0  0  0  0  0  0
    4.5307   -1.3168   -1.3733 H   0  0  0  0  0  0  0  0  0  0  0  0
    6.0918   -0.0254    1.8583 H   0  0  0  0  0  0  0  0  0  0  0  0
    6.2395    1.9170   -0.3456 H   0  0  0  0  0  0  0  0  0  0  0  0
    7.5895    1.4937    0.7332 H   0  0  0  0  0  0  0  0  0  0  0  0
    6.7105   -0.0205   -1.8349 H   0  0  0  0  0  0  0  0  0  0  0  0
    8.3645    0.1155   -1.1922 H   0  0  0  0  0  0  0  0  0  0  0  0
    6.5553   -1.9732   -0.2756 H   0  0  0  0  0  0  0  0  0  0  0  0
    7.8088   -1.2953    0.7793 H   0  0  0  0  0  0  0  0  0  0  0  0
    3.7762    1.0934    2.0919 H   0  0  0  0  0  0  0  0  0  0  0  0
   -1.8970    0.4332   -1.1376 H   0  0  0  0  0  0  0  0  0  0  0  0
   -3.0326    1.6737    0.9440 H   0  0  0  0  0  0  0  0  0  0  0  0
   -3.6602   -1.3306    1.3229 H   0  0  0  0  0  0  0  0  0  0  0  0
   -4.3820    0.0512    2.2445 H   0  0  0  0  0  0  0  0  0  0  0  0
   -4.4492   -0.0410   -2.0921 H   0  0  0  0  0  0  0  0  0  0  0  0
   -3.9383   -1.4566   -1.1589 H   0  0  0  0  0  0  0  0  0  0  0  0
   -6.2049   -1.7658   -2.1767 H   0  0  0  0  0  0  0  0  0  0  0  0
   -6.2899   -1.8464   -0.4107 H   0  0  0  0  0  0  0  0  0  0  0  0
   -7.7657    1.4114   -0.1272 H   0  0  0  0  0  0  0  0  0  0  0  0
   -7.2007    0.0017    0.7820 H   0  0  0  0  0  0  0  0  0  0  0  0
   -5.5811    1.8940    1.0094 H   0  0  0  0  0  0  0  0  0  0  0  0
   -5.4662    2.0295   -0.7515 H   0  0  0  0  0  0  0  0  0  0  0  0
  1  2  2  0
  2  3  1  0
  3  4  1  0
  4  5  2  0
  5  6  1  0
  6  7  2  0
  7  8  1  0
  8  9  1  0
  9 10  1  0
 10 11  1  0
  7 12  1  0
 12 13  2  0
  2 14  1  0
 14 15  1  0
 15 16  1  0
 16 17  1  0
 17 18  1  0
 18 19  1  0
 19 20  1  0
 20 21  1  0
 21 22  1  0
 13  4  1  0
 17 15  1  0
 11  8  1  0
 22 17  1  0
  3 23  1  0
  5 24  1  0
  6 25  1  0
  8 26  1  0
  9 27  1  0
  9 28  1  0
 10 29  1  0
 10 30  1  0
 11 31  1  0
 11 32  1  0
 12 33  1  0
 14 34  1  0
 15 35  1  0
 16 36  1  0
 16 37  1  0
 18 38  1  0
 18 39  1  0
 19 40  1  0
 19 41  1  0
 21 42  1  0
 21 43  1  0
 22 44  1  0
 22 45  1  0
M  END
$$$$
OCNT-2316516
     RDKit          3D

 38 41  0  0  0  0  0  0  0  0999 V2000
   -3.9353   -1.7948    0.5514 C   0  0  0  0  0  0  0  0  0  0  0  0
   -4.0527   -0.2903    0.3544 C   0  0  0  0  0  0  0  0  0  0  0  0
   -2.6756    0.3408   -0.0877 C   0  0  0  0  0  0  0  0  0  0  0  0
   -2.2620    0.3533   -1.3618 N   0  0  0  0  0  0  0  0  0  0  0  0
   -1.0087    0.9610   -1.2887 O   0  0  0  0  0  0  0  0  0  0  0  0
   -0.7940    1.2449    0.0285 C   0  0  0  0  0  0  0  0  0  0  0  0
    0.4863    1.9063    0.3728 C   0  0  0  0  0  0  0  0  0  0  0  0
    1.5447    0.9213    0.7582 C   0  0  0  0  0  0  0  0  0  0  0  0
    1.5555    0.1157    1.8806 C   0  0  0  0  0  0  0  0  0  0  0  0
    2.9697   -0.8433    1.9037 S   0  0  0  0  0  0  0  0  0  0  0  0
    3.4926   -0.1240    0.4258 C   0  0  0  0  0  0  0  0  0  0  0  0
    4.7553   -0.5029   -0.2276 C   0  0  0  0  0  0  0  0  0  0  0  0
    5.6968   -1.3878    0.3135 C   0  0  0  0  0  0  0  0  0  0  0  0
    6.8688   -1.6833   -0.3852 C   0  0  0  0  0  0  0  0  0  0  0  0
    7.0736   -1.0836   -1.6154 C   0  0  0  0  0  0  0  0  0  0  0  0
    6.2006   -0.2253   -2.1778 N   0  0  0  0  0  0  0  0  0  0  0  0
    5.0702    0.0417   -1.4732 C   0  0  0  0  0  0  0  0  0  0  0  0
    2.6597    0.7809   -0.0565 N   0  0  0  0  0  0  0  0  0  0  0  0
   -1.7884    0.8819    0.8097 N   0  0  0  0  0  0  0  0  0  0  0  0
   -5.2628    0.1709   -0.5155 C   0  0  0  0  0  0  0  0  0  0  0  0
   -5.4867    1.3161    0.4908 C   0  0  0  0  0  0  0  0  0  0  0  0
   -4.7346    0.4687    1.5349 C   0  0  0  0  0  0  0  0  0  0  0  0
   -3.6370   -2.2921   -0.3781 H   0  0  0  0  0  0  0  0  0  0  0  0
   -4.8879   -2.2336    0.8682 H   0  0  0  0  0  0  0  0  0  0  0  0
   -3.1909   -2.0337    1.3187 H   0  0  0  0  0  0  0  0  0  0  0  0
    0.8321    2.5110   -0.4740 H   0  0  0  0  0  0  0  0  0  0  0  0
    0.3224    2.6003    1.2056 H   0  0  0  0  0  0  0  0  0  0  0  0
    0.8110    0.0422    2.6618 H   0  0  0  0  0  0  0  0  0  0  0  0
    5.5441   -1.8596    1.2800 H   0  0  0  0  0  0  0  0  0  0  0  0
    7.6046   -2.3670    0.0240 H   0  0  0  0  0  0  0  0  0  0  0  0
    7.9699   -1.2826   -2.1959 H   0  0  0  0  0  0  0  0  0  0  0  0
    4.3944    0.7384   -1.9660 H   0  0  0  0  0  0  0  0  0  0  0  0
   -6.0936   -0.5452   -0.5449 H   0  0  0  0  0  0  0  0  0  0  0  0
   -5.0529    0.4876   -1.5413 H   0  0  0  0  0  0  0  0  0  0  0  0
   -4.9733    2.2467    0.2233 H   0  0  0  0  0  0  0  0  0  0  0  0
   -6.5296    1.5433    0.7255 H   0  0  0  0  0  0  0  0  0  0  0  0
   -4.0853    1.0308    2.2122 H   0  0  0  0  0  0  0  0  0  0  0  0
   -5.4012   -0.1544    2.1445 H   0  0  0  0  0  0  0  0  0  0  0  0
  1  2  1  0
  2  3  1  0
  3  4  2  0
  4  5  1  0
  5  6  1  0
  6  7  1  0
  7  8  1  0
  8  9  2  0
  9 10  1  0
 10 11  1  0
 11 12  1  0
 12 13  1  0
 13 14  2  0
 14 15  1  0
 15 16  2  0
 16 17  1  0
 11 18  2  0
  6 19  2  0
  2 20  1  0
 20 21  1  0
 21 22  1  0
 22  2  1  0
 19  3  1  0
 18  8  1  0
 17 12  2  0
  1 23  1  0
  1 24  1  0
  1 25  1  0
  7 26  1  0
  7 27  1  0
  9 28  1  0
 13 29  1  0
 14 30  1  0
 15 31  1  0
 17 32  1  0
 20 33  1  0
 20 34  1  0
 21 35  1  0
 21 36  1  0
 22 37  1  0
 22 38  1  0
M  END
$$$$
OCNT-2316534
     RDKit          3D

 36 39  0  0  0  0  0  0  0  0999 V2000
   -2.4957   -1.7777   -2.9273 C   0  0  0  0  0  0  0  0  0  0  0  0
   -2.8718   -1.1748   -1.6687 N   0  0  0  0  0  0  0  0  0  0  0  0
   -4.1811   -1.1674   -1.3318 N   0  0  0  0  0  0  0  0  0  0  0  0
   -4.2254   -0.5570   -0.1384 C   0  0  0  0  0  0  0  0  0  0  0  0
   -5.3336   -0.2776    0.6793 C   0  0  0  0  0  0  0  0  0  0  0  0
   -5.0080    0.3837    1.8823 C   0  0  0  0  0  0  0  0  0  0  0  0
   -3.6747    0.7416    2.2461 C   0  0  0  0  0  0  0  0  0  0  0  0
   -2.5437    0.4751    1.4466 C   0  0  0  0  0  0  0  0  0  0  0  0
   -2.8887   -0.1786    0.2622 C   0  0  0  0  0  0  0  0  0  0  0  0
   -2.0459   -0.5883   -0.7427 C   0  0  0  0  0  0  0  0  0  0  0  0
   -0.5049   -0.4413   -0.8481 C   0  0  0  0  0  0  0  0  0  0  0  0
    0.1998   -0.8922   -1.8880 N   0  0  0  0  0  0  0  0  0  0  0  0
    1.5053   -0.5508   -1.5720 O   0  0  0  0  0  0  0  0  0  0  0  0
    1.4998    0.0803   -0.3423 C   0  0  0  0  0  0  0  0  0  0  0  0
    2.6832    0.5901    0.3045 C   0  0  0  0  0  0  0  0  0  0  0  0
    2.5113    1.5659    1.2180 C   0  0  0  0  0  0  0  0  0  0  0  0
    3.6300    2.1503    1.9069 C   0  0  0  0  0  0  0  0  0  0  0  0
    4.8721    1.7355    1.6456 C   0  0  0  0  0  0  0  0  0  0  0  0
    5.1064    0.6594    0.6500 C   0  0  0  0  0  0  0  0  0  0  0  0
    6.2638    0.3076    0.4354 O   0  0  0  0  0  0  0  0  0  0  0  0
    3.9759    0.1191    0.0272 N   0  0  0  0  0  0  0  0  0  0  0  0
    4.2053   -0.9671   -0.9163 C   0  0  0  0  0  0  0  0  0  0  0  0
    0.2574    0.1649    0.1138 N   0  0  0  0  0  0  0  0  0  0  0  0
   -3.3896   -2.1549   -3.4322 H   0  0  0  0  0  0  0  0  0  0  0  0
   -2.0227   -1.0159   -3.5514 H   0  0  0  0  0  0  0  0  0  0  0  0
   -1.8163   -2.6093   -2.7265 H   0  0  0  0  0  0  0  0  0  0  0  0
   -6.3434   -0.5487    0.4053 H   0  0  0  0  0  0  0  0  0  0  0  0
   -5.8157    0.6340    2.5702 H   0  0  0  0  0  0  0  0  0  0  0  0
   -3.5240    1.2503    3.1992 H   0  0  0  0  0  0  0  0  0  0  0  0
   -1.5440    0.7555    1.7472 H   0  0  0  0  0  0  0  0  0  0  0  0
    1.5261    1.9565    1.4639 H   0  0  0  0  0  0  0  0  0  0  0  0
    3.4424    2.9339    2.6338 H   0  0  0  0  0  0  0  0  0  0  0  0
    5.7458    2.1469    2.1344 H   0  0  0  0  0  0  0  0  0  0  0  0
    5.2386   -1.3251   -0.8857 H   0  0  0  0  0  0  0  0  0  0  0  0
    3.5594   -1.8157   -0.6705 H   0  0  0  0  0  0  0  0  0  0  0  0
    4.0065   -0.6081   -1.9306 H   0  0  0  0  0  0  0  0  0  0  0  0
  1  2  1  0
  2  3  1  0
  3  4  2  0
  4  5  1  0
  5  6  2  0
  6  7  1  0
  7  8  2  0
  8  9  1  0
  9 10  2  0
 10 11  1  0
 11 12  2  0
 12 13  1  0
 13 14  1  0
 14 15  1  0
 15 16  2  0
 16 17  1  0
 17 18  2  0
 18 19  1  0
 19 20  2  0
 19 21  1  0
 21 22  1  0
 14 23  2  0
 10  2  1  0
 23 11  1  0
  9  4  1  0
 21 15  1  0
  1 24  1  0
  1 25  1  0
  1 26  1  0
  5 27  1  0
  6 28  1  0
  7 29  1  0
  8 30  1  0
 16 31  1  0
 17 32  1  0
 18 33  1  0
 22 34  1  0
 22 35  1  0
 22 36  1  0
M  END
$$$$
OCNT-2316543
     RDKit          3D

 42 45  0  0  0  0  0  0  0  0999 V2000
   -3.8318    1.8463    3.4616 F   0  0  0  0  0  0  0  0  0  0  0  0
   -3.1249    1.8595    2.3240 C   0  0  0  0  0  0  0  0  0  0  0  0
   -2.7051    3.0699    1.7972 C   0  0  0  0  0  0  0  0  0  0  0  0
   -1.9654    3.0590    0.6267 C   0  0  0  0  0  0  0  0  0  0  0  0
   -1.5389    4.2166    0.1053 F   0  0  0  0  0  0  0  0  0  0  0  0
   -1.6529    1.8631   -0.0202 C   0  0  0  0  0  0  0  0  0  0  0  0
   -2.0926    0.6276    0.4943 C   0  0  0  0  0  0  0  0  0  0  0  0
   -1.7210   -0.6840   -0.2054 C   0  0  0  0  0  0  0  0  0  0  0  0
   -0.3012   -1.0592    0.1422 C   0  0  0  0  0  0  0  0  0  0  0  0
    0.7937   -0.9853   -0.5845 N   0  0  0  0  0  0  0  0  0  0  0  0
    1.7556   -1.4207    0.2954 C   0  0  0  0  0  0  0  0  0  0  0  0
    3.1907   -1.5097   -0.0683 C   0  0  0  0  0  0  0  0  0  0  0  0
    3.7676   -0.1434    0.1784 C   0  0  0  0  0  0  0  0  0  0  0  0
    3.7979    0.8329   -0.8235 C   0  0  0  0  0  0  0  0  0  0  0  0
    4.3355    2.0871   -0.5505 C   0  0  0  0  0  0  0  0  0  0  0  0
    4.8284    2.3267    0.7210 C   0  0  0  0  0  0  0  0  0  0  0  0
    4.8156    1.4137    1.7150 N   0  0  0  0  0  0  0  0  0  0  0  0
    4.2806    0.2062    1.4254 C   0  0  0  0  0  0  0  0  0  0  0  0
    1.2908   -1.7942    1.4958 N   0  0  0  0  0  0  0  0  0  0  0  0
   -0.0764   -1.5358    1.4043 O   0  0  0  0  0  0  0  0  0  0  0  0
   -1.9045   -0.5903   -1.7427 C   0  0  0  0  0  0  0  0  0  0  0  0
   -2.0294   -2.0298   -2.2430 C   0  0  0  0  0  0  0  0  0  0  0  0
   -2.4768   -2.8567   -1.0434 C   0  0  0  0  0  0  0  0  0  0  0  0
   -2.6867   -1.8581    0.0921 C   0  0  0  0  0  0  0  0  0  0  0  0
   -2.8241    0.6500    1.6951 C   0  0  0  0  0  0  0  0  0  0  0  0
   -2.9415    4.0024    2.2946 H   0  0  0  0  0  0  0  0  0  0  0  0
   -1.0497    1.9172   -0.9235 H   0  0  0  0  0  0  0  0  0  0  0  0
    3.3073   -1.7950   -1.1199 H   0  0  0  0  0  0  0  0  0  0  0  0
    3.7128   -2.2660    0.5290 H   0  0  0  0  0  0  0  0  0  0  0  0
    3.3957    0.6242   -1.8121 H   0  0  0  0  0  0  0  0  0  0  0  0
    4.3660    2.8604   -1.3096 H   0  0  0  0  0  0  0  0  0  0  0  0
    5.2574    3.2896    0.9828 H   0  0  0  0  0  0  0  0  0  0  0  0
    4.2751   -0.4955    2.2563 H   0  0  0  0  0  0  0  0  0  0  0  0
   -1.0913   -0.0659   -2.2573 H   0  0  0  0  0  0  0  0  0  0  0  0
   -2.8340   -0.0563   -1.9844 H   0  0  0  0  0  0  0  0  0  0  0  0
   -1.0659   -2.3969   -2.6143 H   0  0  0  0  0  0  0  0  0  0  0  0
   -2.7440   -2.0965   -3.0699 H   0  0  0  0  0  0  0  0  0  0  0  0
   -1.6980   -3.5809   -0.7773 H   0  0  0  0  0  0  0  0  0  0  0  0
   -3.3902   -3.4219   -1.2538 H   0  0  0  0  0  0  0  0  0  0  0  0
   -2.5265   -2.3308    1.0674 H   0  0  0  0  0  0  0  0  0  0  0  0
   -3.7303   -1.5158    0.0638 H   0  0  0  0  0  0  0  0  0  0  0  0
   -3.1676   -0.2631    2.1738 H   0  0  0  0  0  0  0  0  0  0  0  0
  1  2  1  0
  2  3  1  0
  3  4  2  0
  4  5  1  0
  4  6  1  0
  6  7  2  0
  7  8  1  0
  8  9  1  0
  9 10  2  0
 10 11  1  0
 11 12  1  0
 12 13  1  0
 13 14  1  0
 14 15  2  0
 15 16  1  0
 16 17  2  0
 17 18  1  0
 11 19  2  0
 19 20  1  0
  8 21  1  0
 21 22  1  0
 22 23  1  0
 23 24  1  0
  7 25  1  0
 25  2  2  0
 24  8  1  0
 20  9  1  0
 18 13  2  0
  3 26  1  0
  6 27  1  0
 12 28  1  0
 12 29  1  0
 14 30  1  0
 15 31  1  0
 16 32  1  0
 18 33  1  0
 21 34  1  0
 21 35  1  0
 22 36  1  0
 22 37  1  0
 23 38  1  0
 23 39  1  0
 24 40  1  0
 24 41  1  0
 25 42  1  0
M  END
$$$$
OCNT-2316547
     RDKit          3D

 33 35  0  0  0  0  0  0  0  0999 V2000
   -0.6321   -0.2839   -2.8771 O   0  0  0  0  0  0  0  0  0  0  0  0
   -0.5960    0.4573   -1.9003 C   0  0  0  0  0  0  0  0  0  0  0  0
   -1.5938    1.5965   -1.7603 C   0  0  0  0  0  0  0  0  0  0  0  0
   -2.8691    1.1614   -1.0828 C   0  0  0  0  0  0  0  0  0  0  0  0
   -3.8972    0.6081   -1.8631 C   0  0  0  0  0  0  0  0  0  0  0  0
   -5.0719    0.2002   -1.2484 C   0  0  0  0  0  0  0  0  0  0  0  0
   -5.2920    0.3007    0.0785 N   0  0  0  0  0  0  0  0  0  0  0  0
   -4.2839    0.8155    0.8217 C   0  0  0  0  0  0  0  0  0  0  0  0
   -3.0697    1.2483    0.2992 C   0  0  0  0  0  0  0  0  0  0  0  0
   -1.8712    1.8612    1.3760 Cl  0  0  0  0  0  0  0  0  0  0  0  0
    0.2894    0.3767   -0.8408 N   0  0  0  0  0  0  0  0  0  0  0  0
    1.3519   -0.5519   -0.6693 C   0  0  0  0  0  0  0  0  0  0  0  0
    1.6504   -1.5370   -1.6131 C   0  0  0  0  0  0  0  0  0  0  0  0
    2.6481   -2.4441   -1.4938 N   0  0  0  0  0  0  0  0  0  0  0  0
    3.3936   -2.3732   -0.3754 C   0  0  0  0  0  0  0  0  0  0  0  0
    3.2115   -1.4369    0.6400 C   0  0  0  0  0  0  0  0  0  0  0  0
    4.0522   -1.4318    1.7688 C   0  0  0  0  0  0  0  0  0  0  0  0
    3.8805   -0.4923    2.7807 C   0  0  0  0  0  0  0  0  0  0  0  0
    2.8659    0.4476    2.6766 C   0  0  0  0  0  0  0  0  0  0  0  0
    2.0222    0.4486    1.5593 C   0  0  0  0  0  0  0  0  0  0  0  0
    2.1659   -0.4917    0.5040 C   0  0  0  0  0  0  0  0  0  0  0  0
   -1.1347    2.4480   -1.2453 H   0  0  0  0  0  0  0  0  0  0  0  0
   -1.8160    1.9716   -2.7679 H   0  0  0  0  0  0  0  0  0  0  0  0
   -3.7867    0.4871   -2.9373 H   0  0  0  0  0  0  0  0  0  0  0  0
   -5.8863   -0.2316   -1.8260 H   0  0  0  0  0  0  0  0  0  0  0  0
   -4.4895    0.8661    1.8880 H   0  0  0  0  0  0  0  0  0  0  0  0
    0.1267    1.0191   -0.0790 H   0  0  0  0  0  0  0  0  0  0  0  0
    1.0870   -1.6559   -2.5321 H   0  0  0  0  0  0  0  0  0  0  0  0
    4.1800   -3.1218   -0.3183 H   0  0  0  0  0  0  0  0  0  0  0  0
    4.8523   -2.1634    1.8633 H   0  0  0  0  0  0  0  0  0  0  0  0
    4.5356   -0.4959    3.6467 H   0  0  0  0  0  0  0  0  0  0  0  0
    2.7255    1.1852    3.4639 H   0  0  0  0  0  0  0  0  0  0  0  0
    1.2514    1.2122    1.5384 H   0  0  0  0  0  0  0  0  0  0  0  0
  1  2  2  0
  2  3  1  0
  3  4  1  0
  4  5  2  0
  5  6  1  0
  6  7  2  0
  7  8  1  0
  8  9  2  0
  9 10  1  0
  2 11  1  0
 11 12  1  0
 12 13  1  0
 13 14  2  0
 14 15  1  0
 15 16  2  0
 16 17  1  0
 17 18  2  0
 18 19  1  0
 19 20  2  0
 20 21  1  0
  9  4  1  0
 21 12  2  0
 21 16  1  0
  3 22  1  0
  3 23  1  0
  5 24  1  0
  6 25  1  0
  8 26  1  0
 11 27  1  0
 13 28  1  0
 15 29  1  0
 17 30  1  0
 18 31  1  0
 19 32  1  0
 20 33  1  0
M  END
$$$$
OCNT-2316548
     RDKit          3D

 37 40  0  0  0  0  0  0  0  0999 V2000
    6.5045   -2.3653   -0.0133 C   0  0  0  0  0  0  0  0  0  0  0  0
    5.4139   -2.1542   -0.9012 O   0  0  0  0  0  0  0  0  0  0  0  0
    4.3174   -1.5148   -0.3945 C   0  0  0  0  0  0  0  0  0  0  0  0
    3.2819   -1.3172   -1.3091 C   0  0  0  0  0  0  0  0  0  0  0  0
    2.1011   -0.6755   -0.9227 C   0  0  0  0  0  0  0  0  0  0  0  0
    1.9321   -0.2185    0.3911 C   0  0  0  0  0  0  0  0  0  0  0  0
    0.6893    0.4438    0.7677 C   0  0  0  0  0  0  0  0  0  0  0  0
   -0.3673    0.7264    0.0381 N   0  0  0  0  0  0  0  0  0  0  0  0
   -1.2069    1.3411    0.9458 C   0  0  0  0  0  0  0  0  0  0  0  0
   -2.5127    1.8720    0.5614 C   0  0  0  0  0  0  0  0  0  0  0  0
   -2.6731    3.1931    0.8818 N   0  0  0  0  0  0  0  0  0  0  0  0
   -3.7589    3.8373    0.4085 C   0  0  0  0  0  0  0  0  0  0  0  0
   -4.7094    3.2385   -0.3918 C   0  0  0  0  0  0  0  0  0  0  0  0
   -4.5522    1.8906   -0.6986 C   0  0  0  0  0  0  0  0  0  0  0  0
   -3.4528    1.1694   -0.1960 C   0  0  0  0  0  0  0  0  0  0  0  0
   -3.3944   -0.2264   -0.4625 N   0  0  0  0  0  0  0  0  0  0  0  0
   -2.7256   -1.2272    0.2139 C   0  0  0  0  0  0  0  0  0  0  0  0
   -2.9870   -2.4112   -0.4336 C   0  0  0  0  0  0  0  0  0  0  0  0
   -3.8740   -2.0604   -1.4564 C   0  0  0  0  0  0  0  0  0  0  0  0
   -4.1598   -0.7591   -1.4586 N   0  0  0  0  0  0  0  0  0  0  0  0
   -0.7043    1.4155    2.1901 N   0  0  0  0  0  0  0  0  0  0  0  0
    0.5522    0.8241    2.0722 O   0  0  0  0  0  0  0  0  0  0  0  0
    2.9774   -0.4207    1.3042 C   0  0  0  0  0  0  0  0  0  0  0  0
    4.1611   -1.0638    0.9152 C   0  0  0  0  0  0  0  0  0  0  0  0
    6.9114   -1.4142    0.3457 H   0  0  0  0  0  0  0  0  0  0  0  0
    6.2140   -3.0119    0.8213 H   0  0  0  0  0  0  0  0  0  0  0  0
    7.2953   -2.8765   -0.5707 H   0  0  0  0  0  0  0  0  0  0  0  0
    3.3943   -1.6644   -2.3337 H   0  0  0  0  0  0  0  0  0  0  0  0
    1.3113   -0.5346   -1.6594 H   0  0  0  0  0  0  0  0  0  0  0  0
   -3.8382    4.8836    0.6899 H   0  0  0  0  0  0  0  0  0  0  0  0
   -5.5609    3.7998   -0.7605 H   0  0  0  0  0  0  0  0  0  0  0  0
   -5.3115    1.4036   -1.3092 H   0  0  0  0  0  0  0  0  0  0  0  0
   -2.1429   -1.0405    1.1018 H   0  0  0  0  0  0  0  0  0  0  0  0
   -2.6109   -3.3917   -0.1790 H   0  0  0  0  0  0  0  0  0  0  0  0
   -4.3417   -2.7010   -2.1933 H   0  0  0  0  0  0  0  0  0  0  0  0
    2.8890   -0.0793    2.3342 H   0  0  0  0  0  0  0  0  0  0  0  0
    4.9383   -1.1941    1.6613 H   0  0  0  0  0  0  0  0  0  0  0  0
  1  2  1  0
  2  3  1  0
  3  4  1  0
  4  5  2  0
  5  6  1  0
  6  7  1  0
  7  8  2  0
  8  9  1  0
  9 10  1  0
 10 11  1  0
 11 12  2  0
 12 13  1  0
 13 14  2  0
 14 15  1  0
 15 16  1  0
 16 17  1  0
 17 18  2  0
 18 19  1  0
 19 20  2  0
  9 21  2  0
 21 22  1  0
  6 23  2  0
 23 24  1  0
 24  3  2  0
 22  7  1  0
 15 10  2  0
 20 16  1  0
  1 25  1  0
  1 26  1  0
  1 27  1  0
  4 28  1  0
  5 29  1  0
 12 30  1  0
 13 31  1  0
 14 32  1  0
 17 33  1  0
 18 34  1  0
 19 35  1  0
 23 36  1  0
 24 37  1  0
M  END
$$$$
OCNT-2316559
     RDKit          3D

 39 41  0  0  0  0  0  0  0  0999 V2000
    1.7292    2.6853    0.4610 C   0  0  0  0  0  0  0  0  0  0  0  0
    1.2435    1.5992    1.4152 C   0  0  0  0  0  0  0  0  0  0  0  0
    1.0042    0.2190    0.7587 C   0  0  0  0  0  0  0  0  0  0  0  0
    2.2226   -0.3571    0.0359 C   0  0  0  0  0  0  0  0  0  0  0  0
    3.4417   -0.5010    0.7325 C   0  0  0  0  0  0  0  0  0  0  0  0
    4.5755   -1.0347    0.1122 C   0  0  0  0  0  0  0  0  0  0  0  0
    4.5101   -1.4390   -1.2161 C   0  0  0  0  0  0  0  0  0  0  0  0
    5.9025   -2.0952   -1.9822 Cl  0  0  0  0  0  0  0  0  0  0  0  0
    3.3205   -1.3153   -1.9253 C   0  0  0  0  0  0  0  0  0  0  0  0
    2.1853   -0.7813   -1.3038 C   0  0  0  0  0  0  0  0  0  0  0  0
    0.5866   -0.7250    1.7737 N   0  0  0  0  0  0  0  0  0  0  0  0
   -0.7075   -1.1526    1.6191 C   0  0  0  0  0  0  0  0  0  0  0  0
   -1.1941   -2.0074    2.3419 O   0  0  0  0  0  0  0  0  0  0  0  0
   -1.2815   -0.4697    0.5805 N   0  0  0  0  0  0  0  0  0  0  0  0
   -2.5949   -0.6973    0.0866 C   0  0  0  0  0  0  0  0  0  0  0  0
   -3.1295   -1.9934    0.1324 C   0  0  0  0  0  0  0  0  0  0  0  0
   -4.3247   -2.3632   -0.3855 N   0  0  0  0  0  0  0  0  0  0  0  0
   -5.0421   -1.3918   -0.9820 C   0  0  0  0  0  0  0  0  0  0  0  0
   -4.6378   -0.0648   -1.0518 C   0  0  0  0  0  0  0  0  0  0  0  0
   -5.7974    1.1573   -1.9286 Br  0  0  0  0  0  0  0  0  0  0  0  0
   -3.4086    0.3162   -0.4750 C   0  0  0  0  0  0  0  0  0  0  0  0
   -3.0408    1.7776   -0.4165 C   0  0  0  0  0  0  0  0  0  0  0  0
   -0.3135    0.2770   -0.0605 C   0  0  0  0  0  0  0  0  0  0  0  0
   -0.4326    0.8769   -1.1246 O   0  0  0  0  0  0  0  0  0  0  0  0
    1.8703    3.6229    1.0090 H   0  0  0  0  0  0  0  0  0  0  0  0
    2.6877    2.4243    0.0033 H   0  0  0  0  0  0  0  0  0  0  0  0
    1.0051    2.8765   -0.3356 H   0  0  0  0  0  0  0  0  0  0  0  0
    1.9695    1.5090    2.2333 H   0  0  0  0  0  0  0  0  0  0  0  0
    0.3144    1.9515    1.8842 H   0  0  0  0  0  0  0  0  0  0  0  0
    3.5244   -0.1978    1.7747 H   0  0  0  0  0  0  0  0  0  0  0  0
    5.5026   -1.1319    0.6713 H   0  0  0  0  0  0  0  0  0  0  0  0
    3.2648   -1.6306   -2.9644 H   0  0  0  0  0  0  0  0  0  0  0  0
    1.2805   -0.7043   -1.9039 H   0  0  0  0  0  0  0  0  0  0  0  0
    1.1965   -1.1826    2.4384 H   0  0  0  0  0  0  0  0  0  0  0  0
   -2.5790   -2.8275    0.5619 H   0  0  0  0  0  0  0  0  0  0  0  0
   -5.9859   -1.7223   -1.4076 H   0  0  0  0  0  0  0  0  0  0  0  0
   -2.6850    2.1252   -1.3909 H   0  0  0  0  0  0  0  0  0  0  0  0
   -2.2810    1.9843    0.3425 H   0  0  0  0  0  0  0  0  0  0  0  0
   -3.9015    2.3837   -0.1139 H   0  0  0  0  0  0  0  0  0  0  0  0
  1  2  1  0
  2  3  1  0
  3  4  1  0
  4  5  1  0
  5  6  2  0
  6  7  1  0
  7  8  1  0
  7  9  2  0
  9 10  1  0
  3 11  1  0
 11 12  1  0
 12 13  2  0
 12 14  1  0
 14 15  1  0
 15 16  2  0
 16 17  1  0
 17 18  2  0
 18 19  1  0
 19 20  1  0
 19 21  2  0
 21 22  1  0
 14 23  1  0
 23 24  2  0
 23  3  1  0
 10  4  2  0
 21 15  1  0
  1 25  1  0
  1 26  1  0
  1 27  1  0
  2 28  1  0
  2 29  1  0
  5 30  1  0
  6 31  1  0
  9 32  1  0
 10 33  1  0
 11 34  1  0
 16 35  1  0
 18 36  1  0
 22 37  1  0
 22 38  1  0
 22 39  1  0
M  END
$$$$
OCNT-2316564
     RDKit          3D

 34 37  0  0  0  0  0  0  0  0999 V2000
    0.6618   -1.8591   -0.6055 O   0  0  0  0  0  0  0  0  0  0  0  0
    0.5909   -0.7602   -0.0676 C   0  0  0  0  0  0  0  0  0  0  0  0
   -0.5760   -0.0403    0.1295 N   0  0  0  0  0  0  0  0  0  0  0  0
   -1.8956   -0.4383   -0.1731 C   0  0  0  0  0  0  0  0  0  0  0  0
   -2.2455   -1.7065   -0.6529 C   0  0  0  0  0  0  0  0  0  0  0  0
   -3.5891   -2.0459   -0.9038 C   0  0  0  0  0  0  0  0  0  0  0  0
   -4.6084   -1.1235   -0.6811 C   0  0  0  0  0  0  0  0  0  0  0  0
   -4.2498    0.1246   -0.2212 C   0  0  0  0  0  0  0  0  0  0  0  0
   -2.9273    0.4723    0.0315 C   0  0  0  0  0  0  0  0  0  0  0  0
   -2.9063    1.8514    0.5785 C   0  0  0  0  0  0  0  0  0  0  0  0
   -4.3213    2.2934    0.2086 C   0  0  0  0  0  0  0  0  0  0  0  0
   -5.1509    1.1230    0.0483 O   0  0  0  0  0  0  0  0  0  0  0  0
    1.7923   -0.0778    0.4075 C   0  0  0  0  0  0  0  0  0  0  0  0
    3.1018   -0.3781    0.0706 C   0  0  0  0  0  0  0  0  0  0  0  0
    3.7329   -1.3425   -0.7736 C   0  0  0  0  0  0  0  0  0  0  0  0
    5.0745   -1.3561   -0.8873 C   0  0  0  0  0  0  0  0  0  0  0  0
    5.9085   -0.4092   -0.1695 C   0  0  0  0  0  0  0  0  0  0  0  0
    5.3179    0.4969    0.6258 C   0  0  0  0  0  0  0  0  0  0  0  0
    3.9276    0.5206    0.7523 N   0  0  0  0  0  0  0  0  0  0  0  0
    3.1940    1.3735    1.5113 N   0  0  0  0  0  0  0  0  0  0  0  0
    1.9317    0.9972    1.3135 C   0  0  0  0  0  0  0  0  0  0  0  0
   -0.4793    0.8999    0.4804 H   0  0  0  0  0  0  0  0  0  0  0  0
   -1.4988   -2.4741   -0.8344 H   0  0  0  0  0  0  0  0  0  0  0  0
   -3.8297   -3.0414   -1.2698 H   0  0  0  0  0  0  0  0  0  0  0  0
   -5.6468   -1.3746   -0.8646 H   0  0  0  0  0  0  0  0  0  0  0  0
   -2.7728    1.8236    1.6648 H   0  0  0  0  0  0  0  0  0  0  0  0
   -2.1530    2.5002    0.1242 H   0  0  0  0  0  0  0  0  0  0  0  0
   -4.7536    2.9434    0.9763 H   0  0  0  0  0  0  0  0  0  0  0  0
   -4.3283    2.8423   -0.7419 H   0  0  0  0  0  0  0  0  0  0  0  0
    3.1253   -2.0622   -1.3160 H   0  0  0  0  0  0  0  0  0  0  0  0
    5.5669   -2.0859   -1.5235 H   0  0  0  0  0  0  0  0  0  0  0  0
    6.9852   -0.4547   -0.2889 H   0  0  0  0  0  0  0  0  0  0  0  0
    5.8604    1.2374    1.1975 H   0  0  0  0  0  0  0  0  0  0  0  0
    1.1610    1.5306    1.8544 H   0  0  0  0  0  0  0  0  0  0  0  0
  1  2  2  0
  2  3  1  0
  3  4  1  0
  4  5  2  0
  5  6  1  0
  6  7  2  0
  7  8  1  0
  8  9  2  0
  9 10  1  0
 10 11  1  0
 11 12  1  0
  2 13  1  0
 13 14  2  0
 14 15  1  0
 15 16  2  0
 16 17  1  0
 17 18  2  0
 18 19  1  0
 19 20  1  0
 20 21  2  0
  9  4  1  0
 21 13  1  0
 12  8  1  0
 19 14  1  0
  3 22  1  0
  5 23  1  0
  6 24  1  0
  7 25  1  0
 10 26  1  0
 10 27  1  0
 11 28  1  0
 11 29  1  0
 15 30  1  0
 16 31  1  0
 17 32  1  0
 18 33  1  0
 21 34  1  0
M  END
$$$$
OCNT-2316568
     RDKit          3D

 46 49  0  0  0  0  0  0  0  0999 V2000
   -6.1944    1.3300   -0.1724 C   0  0  0  0  0  0  0  0  0  0  0  0
   -5.3143    0.2304   -0.7745 C   0  0  0  0  0  0  0  0  0  0  0  0
   -5.4003   -1.0715    0.0443 C   0  0  0  0  0  0  0  0  0  0  0  0
   -4.1431   -1.3827    0.8593 C   0  0  0  0  0  0  0  0  0  0  0  0
   -3.5373   -0.1236    1.4681 C   0  0  0  0  0  0  0  0  0  0  0  0
   -3.1309    0.9064    0.3975 C   0  0  0  0  0  0  0  0  0  0  0  0
   -1.6557    0.8895    0.1721 C   0  0  0  0  0  0  0  0  0  0  0  0
   -0.8607   -0.1150   -0.1153 N   0  0  0  0  0  0  0  0  0  0  0  0
    0.3737    0.4942   -0.2032 C   0  0  0  0  0  0  0  0  0  0  0  0
    1.5904   -0.2519   -0.5093 C   0  0  0  0  0  0  0  0  0  0  0  0
    1.5331   -1.6341   -0.7331 C   0  0  0  0  0  0  0  0  0  0  0  0
    2.6919   -2.3567   -1.0224 C   0  0  0  0  0  0  0  0  0  0  0  0
    3.9232   -1.7061   -1.0941 C   0  0  0  0  0  0  0  0  0  0  0  0
    4.0092   -0.3237   -0.8802 C   0  0  0  0  0  0  0  0  0  0  0  0
    5.3395    0.3828   -0.9405 C   0  0  0  0  0  0  0  0  0  0  0  0
    6.0214    0.3430    0.3400 N   0  0  0  0  0  0  0  0  0  0  0  0
    5.8852    1.2400    1.3638 C   0  0  0  0  0  0  0  0  0  0  0  0
    6.7644    0.8097    2.3301 C   0  0  0  0  0  0  0  0  0  0  0  0
    7.4369   -0.3102    1.9131 N   0  0  0  0  0  0  0  0  0  0  0  0
    6.9691   -0.5677    0.7124 C   0  0  0  0  0  0  0  0  0  0  0  0
    2.8362    0.3924   -0.5840 C   0  0  0  0  0  0  0  0  0  0  0  0
    0.3398    1.8205    0.0133 N   0  0  0  0  0  0  0  0  0  0  0  0
   -1.0048    2.0832    0.2627 O   0  0  0  0  0  0  0  0  0  0  0  0
   -3.8635    0.6984   -0.9415 C   0  0  0  0  0  0  0  0  0  0  0  0
   -5.9071    1.5729    0.8549 H   0  0  0  0  0  0  0  0  0  0  0  0
   -7.2441    1.0169   -0.1597 H   0  0  0  0  0  0  0  0  0  0  0  0
   -6.1300    2.2469   -0.7678 H   0  0  0  0  0  0  0  0  0  0  0  0
   -5.7179    0.0245   -1.7749 H   0  0  0  0  0  0  0  0  0  0  0  0
   -5.5794   -1.9136   -0.6362 H   0  0  0  0  0  0  0  0  0  0  0  0
   -6.2688   -1.0423    0.7141 H   0  0  0  0  0  0  0  0  0  0  0  0
   -3.4004   -1.8735    0.2180 H   0  0  0  0  0  0  0  0  0  0  0  0
   -4.3918   -2.0996    1.6503 H   0  0  0  0  0  0  0  0  0  0  0  0
   -4.2843    0.3296    2.1327 H   0  0  0  0  0  0  0  0  0  0  0  0
   -2.6896   -0.3926    2.1105 H   0  0  0  0  0  0  0  0  0  0  0  0
   -3.3962    1.8989    0.7865 H   0  0  0  0  0  0  0  0  0  0  0  0
    0.5815   -2.1601   -0.6787 H   0  0  0  0  0  0  0  0  0  0  0  0
    2.6327   -3.4300   -1.1870 H   0  0  0  0  0  0  0  0  0  0  0  0
    4.8151   -2.2897   -1.3135 H   0  0  0  0  0  0  0  0  0  0  0  0
    5.9922   -0.0769   -1.6921 H   0  0  0  0  0  0  0  0  0  0  0  0
    5.2167    1.4349   -1.2240 H   0  0  0  0  0  0  0  0  0  0  0  0
    5.1981    2.0735    1.3280 H   0  0  0  0  0  0  0  0  0  0  0  0
    6.9513    1.2483    3.3017 H   0  0  0  0  0  0  0  0  0  0  0  0
    7.2802   -1.3892    0.0804 H   0  0  0  0  0  0  0  0  0  0  0  0
    2.8967    1.4655   -0.4049 H   0  0  0  0  0  0  0  0  0  0  0  0
   -3.8289    1.6274   -1.5257 H   0  0  0  0  0  0  0  0  0  0  0  0
   -3.3347   -0.0492   -1.5499 H   0  0  0  0  0  0  0  0  0  0  0  0
  1  2  1  0
  2  3  1  0
  3  4  1  0
  4  5  1  0
  5  6  1  0
  6  7  1  0
  7  8  2  0
  8  9  1  0
  9 10  1  0
 10 11  1  0
 11 12  2  0
 12 13  1  0
 13 14  2  0
 14 15  1  0
 15 16  1  0
 16 17  1  0
 17 18  2  0
 18 19  1  0
 19 20  2  0
 14 21  1  0
  9 22  2  0
 22 23  1  0
  6 24  1  0
 24  2  1  0
 23  7  1  0
 21 10  2  0
 20 16  1  0
  1 25  1  0
  1 26  1  0
  1 27  1  0
  2 28  1  0
  3 29  1  0
  3 30  1  0
  4 31  1  0
  4 32  1  0
  5 33  1  0
  5 34  1  0
  6 35  1  0
 11 36  1  0
 12 37  1  0
 13 38  1  0
 15 39  1  0
 15 40  1  0
 17 41  1  0
 18 42  1  0
 20 43  1  0
 21 44  1  0
 24 45  1  0
 24 46  1  0
M  END
$$$$
OCNT-2316573
     RDKit          3D

 45 47  0  0  0  0  0  0  0  0999 V2000
    1.9034    0.7744    2.4730 C   0  0  0  0  0  0  0  0  0  0  0  0
    2.7011    0.1316    1.3977 C   0  0  0  0  0  0  0  0  0  0  0  0
    2.3636   -0.8112    0.4491 C   0  0  0  0  0  0  0  0  0  0  0  0
    0.7890   -1.5514    0.2620 S   0  0  0  0  0  0  0  0  0  0  0  0
    0.1968   -0.6995   -1.2380 C   0  0  0  0  0  0  0  0  0  0  0  0
   -0.1105    0.7980   -1.0553 C   0  0  0  0  0  0  0  0  0  0  0  0
   -1.0615    1.1762   -0.0041 N   0  0  0  0  0  0  0  0  0  0  0  0
   -2.3957    0.5562   -0.0693 C   0  0  0  0  0  0  0  0  0  0  0  0
   -3.0684    0.8667    1.2826 C   0  0  0  0  0  0  0  0  0  0  0  0
   -4.2055   -0.0728    1.6838 C   0  0  0  0  0  0  0  0  0  0  0  0
   -5.0907   -0.5854    0.5611 C   0  0  0  0  0  0  0  0  0  0  0  0
   -5.4033    0.4405   -0.3713 O   0  0  0  0  0  0  0  0  0  0  0  0
   -4.5409    0.4419   -1.5016 C   0  0  0  0  0  0  0  0  0  0  0  0
   -3.2082    1.1346   -1.2425 C   0  0  0  0  0  0  0  0  0  0  0  0
    3.5149   -1.0897   -0.3422 C   0  0  0  0  0  0  0  0  0  0  0  0
    3.7995   -1.9525   -1.4225 C   0  0  0  0  0  0  0  0  0  0  0  0
    5.0826   -1.9612   -1.9814 C   0  0  0  0  0  0  0  0  0  0  0  0
    6.0798   -1.1288   -1.4797 C   0  0  0  0  0  0  0  0  0  0  0  0
    5.8278   -0.2687   -0.4070 C   0  0  0  0  0  0  0  0  0  0  0  0
    4.5390   -0.2732    0.1406 C   0  0  0  0  0  0  0  0  0  0  0  0
    4.0212    0.4510    1.1909 N   0  0  0  0  0  0  0  0  0  0  0  0
    1.2861    0.0373    2.9962 H   0  0  0  0  0  0  0  0  0  0  0  0
    1.2461    1.5411    2.0517 H   0  0  0  0  0  0  0  0  0  0  0  0
    2.5490    1.2529    3.2168 H   0  0  0  0  0  0  0  0  0  0  0  0
    0.9420   -0.8191   -2.0321 H   0  0  0  0  0  0  0  0  0  0  0  0
   -0.6995   -1.2255   -1.5828 H   0  0  0  0  0  0  0  0  0  0  0  0
    0.8290    1.3234   -0.8456 H   0  0  0  0  0  0  0  0  0  0  0  0
   -0.4483    1.2000   -2.0173 H   0  0  0  0  0  0  0  0  0  0  0  0
   -1.1498    2.1916    0.0280 H   0  0  0  0  0  0  0  0  0  0  0  0
   -2.2972   -0.5296   -0.1668 H   0  0  0  0  0  0  0  0  0  0  0  0
   -2.3280    0.8251    2.0941 H   0  0  0  0  0  0  0  0  0  0  0  0
   -3.4419    1.8999    1.2804 H   0  0  0  0  0  0  0  0  0  0  0  0
   -4.8299    0.4616    2.4114 H   0  0  0  0  0  0  0  0  0  0  0  0
   -3.7947   -0.9371    2.2202 H   0  0  0  0  0  0  0  0  0  0  0  0
   -6.0356   -0.9365    0.9909 H   0  0  0  0  0  0  0  0  0  0  0  0
   -4.6371   -1.4540    0.0685 H   0  0  0  0  0  0  0  0  0  0  0  0
   -4.3913   -0.5767   -1.8798 H   0  0  0  0  0  0  0  0  0  0  0  0
   -5.0631    0.9892   -2.2946 H   0  0  0  0  0  0  0  0  0  0  0  0
   -3.3972    2.2004   -1.0570 H   0  0  0  0  0  0  0  0  0  0  0  0
   -2.6340    1.0767   -2.1738 H   0  0  0  0  0  0  0  0  0  0  0  0
    3.0308   -2.6114   -1.8154 H   0  0  0  0  0  0  0  0  0  0  0  0
    5.3012   -2.6279   -2.8117 H   0  0  0  0  0  0  0  0  0  0  0  0
    7.0718   -1.1510   -1.9252 H   0  0  0  0  0  0  0  0  0  0  0  0
    6.6093    0.3737   -0.0148 H   0  0  0  0  0  0  0  0  0  0  0  0
    4.5484    1.1193    1.7352 H   0  0  0  0  0  0  0  0  0  0  0  0
  1  2  1  0
  2  3  2  0
  3  4  1  0
  4  5  1  0
  5  6  1  0
  6  7  1  0
  7  8  1  0
  8  9  1  0
  9 10  1  0
 10 11  1  0
 11 12  1  0
 12 13  1  0
 13 14  1  0
  3 15  1  0
 15 16  2  0
 16 17  1  0
 17 18  2  0
 18 19  1  0
 19 20  2  0
 20 21  1  0
 21  2  1  0
 14  8  1  0
 20 15  1  0
  1 22  1  0
  1 23  1  0
  1 24  1  0
  5 25  1  0
  5 26  1  0
  6 27  1  0
  6 28  1  0
  7 29  1  0
  8 30  1  0
  9 31  1  0
  9 32  1  0
 10 33  1  0
 10 34  1  0
 11 35  1  0
 11 36  1  0
 13 37  1  0
 13 38  1  0
 14 39  1  0
 14 40  1  0
 16 41  1  0
 17 42  1  0
 18 43  1  0
 19 44  1  0
 21 45  1  0
M  END
$$$$
OCNT-2316582
     RDKit          3D

 49 54  0  0  0  0  0  0  0  0999 V2000
    5.9947    1.0615    1.7469 C   0  0  0  0  0  0  0  0  0  0  0  0
    5.0366    0.5956    0.7772 N   0  0  0  0  0  0  0  0  0  0  0  0
    3.6708    0.5959    0.9334 C   0  0  0  0  0  0  0  0  0  0  0  0
    2.8243    0.9956    1.9685 C   0  0  0  0  0  0  0  0  0  0  0  0
    1.4470    0.8323    1.7558 C   0  0  0  0  0  0  0  0  0  0  0  0
    0.9139    0.3027    0.5634 C   0  0  0  0  0  0  0  0  0  0  0  0
   -0.4875    0.1636    0.4768 N   0  0  0  0  0  0  0  0  0  0  0  0
   -1.2701   -0.4865   -0.4600 C   0  0  0  0  0  0  0  0  0  0  0  0
   -0.7635   -1.2535   -1.3955 N   0  0  0  0  0  0  0  0  0  0  0  0
   -1.5858   -1.8879   -2.2986 C   0  0  0  0  0  0  0  0  0  0  0  0
   -2.9191   -1.7803   -2.2899 C   0  0  0  0  0  0  0  0  0  0  0  0
   -3.5080   -0.9899   -1.3252 N   0  0  0  0  0  0  0  0  0  0  0  0
   -4.8248   -0.7393   -1.1281 N   0  0  0  0  0  0  0  0  0  0  0  0
   -4.8543    0.0791   -0.0749 C   0  0  0  0  0  0  0  0  0  0  0  0
   -6.1629    0.6591    0.5371 C   0  0  0  0  0  0  0  0  0  0  0  0
   -7.0279    1.5017   -0.4330 C   0  0  0  0  0  0  0  0  0  0  0  0
   -8.2639    0.8782    0.2495 C   0  0  0  0  0  0  0  0  0  0  0  0
   -7.3626   -0.3174    0.6245 C   0  0  0  0  0  0  0  0  0  0  0  0
   -3.5709    0.3706    0.4221 C   0  0  0  0  0  0  0  0  0  0  0  0
   -2.7200   -0.3340   -0.4008 C   0  0  0  0  0  0  0  0  0  0  0  0
    1.8067   -0.0905   -0.4439 C   0  0  0  0  0  0  0  0  0  0  0  0
    3.1926    0.0630   -0.2589 C   0  0  0  0  0  0  0  0  0  0  0  0
    4.2256   -0.2386   -1.1115 N   0  0  0  0  0  0  0  0  0  0  0  0
    5.3217    0.0869   -0.4635 C   0  0  0  0  0  0  0  0  0  0  0  0
    6.7424   -0.0848   -1.0771 C   0  0  0  0  0  0  0  0  0  0  0  0
    7.5855   -1.2557   -0.6432 C   0  0  0  0  0  0  0  0  0  0  0  0
    6.9933   -1.2318   -2.0213 C   0  0  0  0  0  0  0  0  0  0  0  0
    6.0518    2.1505    1.6742 H   0  0  0  0  0  0  0  0  0  0  0  0
    5.6675    0.7632    2.7463 H   0  0  0  0  0  0  0  0  0  0  0  0
    6.9736    0.6201    1.5497 H   0  0  0  0  0  0  0  0  0  0  0  0
    3.2016    1.4067    2.8979 H   0  0  0  0  0  0  0  0  0  0  0  0
    0.7774    1.1275    2.5621 H   0  0  0  0  0  0  0  0  0  0  0  0
   -0.9873    0.6658    1.1946 H   0  0  0  0  0  0  0  0  0  0  0  0
   -1.0862   -2.5009   -3.0438 H   0  0  0  0  0  0  0  0  0  0  0  0
   -3.5752   -2.2732   -2.9920 H   0  0  0  0  0  0  0  0  0  0  0  0
   -5.9799    1.1762    1.4896 H   0  0  0  0  0  0  0  0  0  0  0  0
   -6.9365    1.2374   -1.4932 H   0  0  0  0  0  0  0  0  0  0  0  0
   -6.9340    2.5862   -0.3309 H   0  0  0  0  0  0  0  0  0  0  0  0
   -9.1072    0.6516   -0.4074 H   0  0  0  0  0  0  0  0  0  0  0  0
   -8.6252    1.4465    1.1142 H   0  0  0  0  0  0  0  0  0  0  0  0
   -7.3769   -1.1198   -0.1220 H   0  0  0  0  0  0  0  0  0  0  0  0
   -7.5474   -0.7524    1.6102 H   0  0  0  0  0  0  0  0  0  0  0  0
   -3.3144    1.0051    1.2572 H   0  0  0  0  0  0  0  0  0  0  0  0
    1.4724   -0.5031   -1.3871 H   0  0  0  0  0  0  0  0  0  0  0  0
    7.2451    0.8486   -1.3054 H   0  0  0  0  0  0  0  0  0  0  0  0
    8.6540   -1.1048   -0.5489 H   0  0  0  0  0  0  0  0  0  0  0  0
    7.1701   -1.9654    0.0634 H   0  0  0  0  0  0  0  0  0  0  0  0
    6.1698   -1.9043   -2.2377 H   0  0  0  0  0  0  0  0  0  0  0  0
    7.6528   -1.0571   -2.8625 H   0  0  0  0  0  0  0  0  0  0  0  0
  1  2  1  0
  2  3  1  0
  3  4  2  0
  4  5  1  0
  5  6  2  0
  6  7  1  0
  7  8  1  0
  8  9  2  0
  9 10  1  0
 10 11  2  0
 11 12  1  0
 12 13  1  0
 13 14  2  0
 14 15  1  0
 15 16  1  0
 16 17  1  0
 17 18  1  0
 14 19  1  0
 19 20  2  0
  6 21  1  0
 21 22  2  0
 22 23  1  0
 23 24  2  0
 24 25  1  0
 25 26  1  0
 26 27  1  0
 24  2  1  0
 27 25  1  0
 22  3  1  0
 20  8  1  0
 20 12  1  0
 18 15  1  0
  1 28  1  0
  1 29  1  0
  1 30  1  0
  4 31  1  0
  5 32  1  0
  7 33  1  0
 10 34  1  0
 11 35  1  0
 15 36  1  0
 16 37  1  0
 16 38  1  0
 17 39  1  0
 17 40  1  0
 18 41  1  0
 18 42  1  0
 19 43  1  0
 21 44  1  0
 25 45  1  0
 26 46  1  0
 26 47  1  0
 27 48  1  0
 27 49  1  0
M  END
$$$$
OCNT-2316585
     RDKit          3D

 45 48  0  0  0  0  0  0  0  0999 V2000
   -4.8123   -2.6585   -0.9663 C   0  0  0  0  0  0  0  0  0  0  0  0
   -4.2586   -1.3535   -0.4673 C   0  0  0  0  0  0  0  0  0  0  0  0
   -2.9996   -0.9416   -0.8998 C   0  0  0  0  0  0  0  0  0  0  0  0
   -2.4877    0.2742   -0.4343 C   0  0  0  0  0  0  0  0  0  0  0  0
   -1.1665    0.7420   -0.8711 C   0  0  0  0  0  0  0  0  0  0  0  0
   -1.0967    1.7642   -1.5457 O   0  0  0  0  0  0  0  0  0  0  0  0
   -0.0658    0.0064   -0.4912 N   0  0  0  0  0  0  0  0  0  0  0  0
   -0.0153   -1.1205    0.4238 C   0  0  0  0  0  0  0  0  0  0  0  0
    1.4514   -1.2171    0.8282 C   0  0  0  0  0  0  0  0  0  0  0  0
    2.2034   -0.7555   -0.4335 C   0  0  0  0  0  0  0  0  0  0  0  0
    2.1811   -1.8466   -1.3689 O   0  0  0  0  0  0  0  0  0  0  0  0
    3.6529   -0.3489   -0.2196 C   0  0  0  0  0  0  0  0  0  0  0  0
    4.4521   -1.0043    0.7364 C   0  0  0  0  0  0  0  0  0  0  0  0
    5.7932   -0.6549    0.9140 C   0  0  0  0  0  0  0  0  0  0  0  0
    6.3521    0.3421    0.1277 C   0  0  0  0  0  0  0  0  0  0  0  0
    7.6382    0.6746    0.2962 F   0  0  0  0  0  0  0  0  0  0  0  0
    5.5972    0.9907   -0.8389 C   0  0  0  0  0  0  0  0  0  0  0  0
    4.2559    0.6421   -1.0180 C   0  0  0  0  0  0  0  0  0  0  0  0
    1.2705    0.3728   -0.9393 C   0  0  0  0  0  0  0  0  0  0  0  0
   -3.2735    1.0491    0.4275 C   0  0  0  0  0  0  0  0  0  0  0  0
   -3.2095    2.2899    1.1188 C   0  0  0  0  0  0  0  0  0  0  0  0
   -2.1159    3.2939    1.1035 C   0  0  0  0  0  0  0  0  0  0  0  0
   -4.3105    2.5105    1.8564 N   0  0  0  0  0  0  0  0  0  0  0  0
   -5.0763    1.4273    1.6184 N   0  0  0  0  0  0  0  0  0  0  0  0
   -4.5031    0.5187    0.7800 C   0  0  0  0  0  0  0  0  0  0  0  0
   -5.0415   -0.6506    0.3871 N   0  0  0  0  0  0  0  0  0  0  0  0
   -4.9093   -2.6354   -2.0562 H   0  0  0  0  0  0  0  0  0  0  0  0
   -5.8021   -2.8507   -0.5398 H   0  0  0  0  0  0  0  0  0  0  0  0
   -4.1520   -3.4830   -0.6799 H   0  0  0  0  0  0  0  0  0  0  0  0
   -2.4258   -1.5470   -1.5952 H   0  0  0  0  0  0  0  0  0  0  0  0
   -0.6759   -0.9662    1.2817 H   0  0  0  0  0  0  0  0  0  0  0  0
   -0.3340   -2.0159   -0.1203 H   0  0  0  0  0  0  0  0  0  0  0  0
    1.6453   -0.5364    1.6671 H   0  0  0  0  0  0  0  0  0  0  0  0
    1.6983   -2.2375    1.1390 H   0  0  0  0  0  0  0  0  0  0  0  0
    3.0413   -1.8734   -1.8230 H   0  0  0  0  0  0  0  0  0  0  0  0
    4.0431   -1.8032    1.3517 H   0  0  0  0  0  0  0  0  0  0  0  0
    6.4044   -1.1587    1.6563 H   0  0  0  0  0  0  0  0  0  0  0  0
    6.0568    1.7608   -1.4509 H   0  0  0  0  0  0  0  0  0  0  0  0
    3.6937    1.1565   -1.7955 H   0  0  0  0  0  0  0  0  0  0  0  0
    1.2697    0.4710   -2.0303 H   0  0  0  0  0  0  0  0  0  0  0  0
    1.5042    1.3436   -0.4861 H   0  0  0  0  0  0  0  0  0  0  0  0
   -2.0709    3.7929    0.1307 H   0  0  0  0  0  0  0  0  0  0  0  0
   -2.2672    4.0619    1.8694 H   0  0  0  0  0  0  0  0  0  0  0  0
   -1.1503    2.8169    1.2984 H   0  0  0  0  0  0  0  0  0  0  0  0
   -5.9847    1.3573    2.0587 H   0  0  0  0  0  0  0  0  0  0  0  0
  1  2  1  0
  2  3  1  0
  3  4  2  0
  4  5  1  0
  5  6  2  0
  5  7  1  0
  7  8  1  0
  8  9  1  0
  9 10  1  0
 10 11  1  0
 10 12  1  0
 12 13  1  0
 13 14  2  0
 14 15  1  0
 15 16  1  0
 15 17  2  0
 17 18  1  0
 10 19  1  0
  4 20  1  0
 20 21  1  0
 21 22  1  0
 21 23  2  0
 23 24  1  0
 24 25  1  0
 25 26  1  0
 26  2  2  0
 19  7  1  0
 25 20  2  0
 18 12  2  0
  1 27  1  0
  1 28  1  0
  1 29  1  0
  3 30  1  0
  8 31  1  0
  8 32  1  0
  9 33  1  0
  9 34  1  0
 11 35  1  0
 13 36  1  0
 14 37  1  0
 17 38  1  0
 18 39  1  0
 19 40  1  0
 19 41  1  0
 22 42  1  0
 22 43  1  0
 22 44  1  0
 24 45  1  0
M  END
$$$$
OCNT-2316589
     RDKit          3D

 37 39  0  0  0  0  0  0  0  0999 V2000
   -5.6654   -1.7240    1.3087 C   0  0  0  0  0  0  0  0  0  0  0  0
   -4.6771   -0.7684    0.8695 N   0  0  0  0  0  0  0  0  0  0  0  0
   -4.9460    0.6464    0.8068 C   0  0  0  0  0  0  0  0  0  0  0  0
   -3.5771    1.2510    0.5472 C   0  0  0  0  0  0  0  0  0  0  0  0
   -2.8951    0.1973   -0.3240 C   0  0  0  0  0  0  0  0  0  0  0  0
   -1.4508    0.1509   -0.2119 N   0  0  0  0  0  0  0  0  0  0  0  0
   -0.6821    1.1709   -0.7255 C   0  0  0  0  0  0  0  0  0  0  0  0
   -1.1833    2.1956   -1.1775 O   0  0  0  0  0  0  0  0  0  0  0  0
    0.7436    0.9262   -0.7069 C   0  0  0  0  0  0  0  0  0  0  0  0
    1.7284    1.6170   -1.3943 C   0  0  0  0  0  0  0  0  0  0  0  0
    2.9901    1.0484   -1.0772 C   0  0  0  0  0  0  0  0  0  0  0  0
    4.3129    1.3172   -1.4724 C   0  0  0  0  0  0  0  0  0  0  0  0
    5.3556    0.5432   -0.9469 C   0  0  0  0  0  0  0  0  0  0  0  0
    5.1045   -0.4871   -0.0289 C   0  0  0  0  0  0  0  0  0  0  0  0
    6.2451   -1.3199    0.5073 C   0  0  0  0  0  0  0  0  0  0  0  0
    7.4129   -0.6258    0.6135 F   0  0  0  0  0  0  0  0  0  0  0  0
    6.0012   -1.8248    1.7498 F   0  0  0  0  0  0  0  0  0  0  0  0
    6.5191   -2.3939   -0.2838 F   0  0  0  0  0  0  0  0  0  0  0  0
    3.7827   -0.7672    0.3655 C   0  0  0  0  0  0  0  0  0  0  0  0
    2.7547    0.0167   -0.1733 C   0  0  0  0  0  0  0  0  0  0  0  0
    1.3962   -0.0283    0.0426 N   0  0  0  0  0  0  0  0  0  0  0  0
   -3.5087   -1.1013    0.2000 C   0  0  0  0  0  0  0  0  0  0  0  0
   -3.0416   -2.2178    0.0320 O   0  0  0  0  0  0  0  0  0  0  0  0
   -6.0041   -1.4505    2.3113 H   0  0  0  0  0  0  0  0  0  0  0  0
   -5.2421   -2.7317    1.3255 H   0  0  0  0  0  0  0  0  0  0  0  0
   -6.5091   -1.7008    0.6135 H   0  0  0  0  0  0  0  0  0  0  0  0
   -5.3815    0.9976    1.7464 H   0  0  0  0  0  0  0  0  0  0  0  0
   -5.6380    0.8342   -0.0209 H   0  0  0  0  0  0  0  0  0  0  0  0
   -3.0359    1.3748    1.4942 H   0  0  0  0  0  0  0  0  0  0  0  0
   -3.6389    2.2320    0.0672 H   0  0  0  0  0  0  0  0  0  0  0  0
   -3.1746    0.3102   -1.3784 H   0  0  0  0  0  0  0  0  0  0  0  0
   -1.0568   -0.7815   -0.2047 H   0  0  0  0  0  0  0  0  0  0  0  0
    1.5454    2.4483   -2.0646 H   0  0  0  0  0  0  0  0  0  0  0  0
    4.5252    2.1156   -2.1781 H   0  0  0  0  0  0  0  0  0  0  0  0
    6.3769    0.7562   -1.2616 H   0  0  0  0  0  0  0  0  0  0  0  0
    3.5678   -1.5674    1.0695 H   0  0  0  0  0  0  0  0  0  0  0  0
    0.9458   -0.6591    0.6901 H   0  0  0  0  0  0  0  0  0  0  0  0
  1  2  1  0
  2  3  1  0
  3  4  1  0
  4  5  1  0
  5  6  1  0
  6  7  1  0
  7  8  2  0
  7  9  1  0
  9 10  2  0
 10 11  1  0
 11 12  2  0
 12 13  1  0
 13 14  2  0
 14 15  1  0
 15 16  1  0
 15 17  1  0
 15 18  1  0
 14 19  1  0
 19 20  2  0
 20 21  1  0
  5 22  1  0
 22 23  2  0
 22  2  1  0
 21  9  1  0
 20 11  1  0
  1 24  1  0
  1 25  1  0
  1 26  1  0
  3 27  1  0
  3 28  1  0
  4 29  1  0
  4 30  1  0
  5 31  1  0
  6 32  1  0
 10 33  1  0
 12 34  1  0
 13 35  1  0
 19 36  1  0
 21 37  1  0
M  END
$$$$
OCNT-2316591
     RDKit          3D

 43 45  0  0  0  0  0  0  0  0999 V2000
    3.8952    3.5496    0.6625 C   0  0  0  0  0  0  0  0  0  0  0  0
    4.1752    2.1630    0.9367 N   0  0  0  0  0  0  0  0  0  0  0  0
    3.2338    1.1884    0.6821 C   0  0  0  0  0  0  0  0  0  0  0  0
    2.1006    1.4527    0.2834 O   0  0  0  0  0  0  0  0  0  0  0  0
    3.6777   -0.1957    0.8906 C   0  0  0  0  0  0  0  0  0  0  0  0
    2.9033   -1.2842    0.5037 C   0  0  0  0  0  0  0  0  0  0  0  0
    1.6429   -1.2181   -0.0710 N   0  0  0  0  0  0  0  0  0  0  0  0
    0.9471   -2.2304   -0.6897 C   0  0  0  0  0  0  0  0  0  0  0  0
    1.3903   -3.3425   -0.9636 O   0  0  0  0  0  0  0  0  0  0  0  0
   -0.3592   -1.8883   -1.0270 N   0  0  0  0  0  0  0  0  0  0  0  0
   -1.1515   -2.8350   -1.8106 C   0  0  0  0  0  0  0  0  0  0  0  0
   -2.2769   -2.1139   -2.5535 C   0  0  0  0  0  0  0  0  0  0  0  0
   -3.1916   -1.4304   -1.6875 O   0  0  0  0  0  0  0  0  0  0  0  0
   -2.6096   -0.9745   -0.4509 C   0  0  0  0  0  0  0  0  0  0  0  0
   -3.3431    0.2658    0.0203 C   0  0  0  0  0  0  0  0  0  0  0  0
   -3.5755    0.4661    1.3902 C   0  0  0  0  0  0  0  0  0  0  0  0
   -4.2203    1.6197    1.8407 C   0  0  0  0  0  0  0  0  0  0  0  0
   -4.6369    2.5878    0.9295 C   0  0  0  0  0  0  0  0  0  0  0  0
   -4.4096    2.4043   -0.4326 C   0  0  0  0  0  0  0  0  0  0  0  0
   -3.7646    1.2519   -0.8848 C   0  0  0  0  0  0  0  0  0  0  0  0
   -1.0902   -0.7052   -0.5479 C   0  0  0  0  0  0  0  0  0  0  0  0
    3.6297   -2.7742    0.8714 S   0  0  0  0  0  0  0  0  0  0  0  0
    5.0016   -2.0209    1.5429 C   0  0  0  0  0  0  0  0  0  0  0  0
    4.9022   -0.6483    1.5012 C   0  0  0  0  0  0  0  0  0  0  0  0
    4.6326    4.1632    1.1849 H   0  0  0  0  0  0  0  0  0  0  0  0
    3.9714    3.7159   -0.4153 H   0  0  0  0  0  0  0  0  0  0  0  0
    2.8881    3.8080    1.0007 H   0  0  0  0  0  0  0  0  0  0  0  0
    5.1402    1.8916    1.0505 H   0  0  0  0  0  0  0  0  0  0  0  0
    1.3069   -0.2724   -0.2246 H   0  0  0  0  0  0  0  0  0  0  0  0
   -0.5078   -3.3672   -2.5188 H   0  0  0  0  0  0  0  0  0  0  0  0
   -1.5652   -3.5647   -1.1048 H   0  0  0  0  0  0  0  0  0  0  0  0
   -1.8627   -1.3730   -3.2473 H   0  0  0  0  0  0  0  0  0  0  0  0
   -2.8576   -2.8279   -3.1458 H   0  0  0  0  0  0  0  0  0  0  0  0
   -2.7844   -1.7822    0.2723 H   0  0  0  0  0  0  0  0  0  0  0  0
   -3.2568   -0.2774    2.1177 H   0  0  0  0  0  0  0  0  0  0  0  0
   -4.3985    1.7622    2.9033 H   0  0  0  0  0  0  0  0  0  0  0  0
   -5.1409    3.4844    1.2805 H   0  0  0  0  0  0  0  0  0  0  0  0
   -4.7369    3.1568   -1.1452 H   0  0  0  0  0  0  0  0  0  0  0  0
   -3.5985    1.1206   -1.9522 H   0  0  0  0  0  0  0  0  0  0  0  0
   -0.8843    0.0940   -1.2707 H   0  0  0  0  0  0  0  0  0  0  0  0
   -0.6995   -0.3923    0.4264 H   0  0  0  0  0  0  0  0  0  0  0  0
    5.8082   -2.6186    1.9451 H   0  0  0  0  0  0  0  0  0  0  0  0
    5.6748   -0.0083    1.9069 H   0  0  0  0  0  0  0  0  0  0  0  0
  1  2  1  0
  2  3  1  0
  3  4  2  0
  3  5  1  0
  5  6  2  0
  6  7  1  0
  7  8  1  0
  8  9  2  0
  8 10  1  0
 10 11  1  0
 11 12  1  0
 12 13  1  0
 13 14  1  0
 14 15  1  0
 15 16  2  0
 16 17  1  0
 17 18  2  0
 18 19  1  0
 19 20  2  0
 14 21  1  0
  6 22  1  0
 22 23  1  0
 23 24  2  0
 24  5  1  0
 21 10  1  0
 20 15  1  0
  1 25  1  0
  1 26  1  0
  1 27  1  0
  2 28  1  0
  7 29  1  0
 11 30  1  0
 11 31  1  0
 12 32  1  0
 12 33  1  0
 14 34  1  0
 16 35  1  0
 17 36  1  0
 18 37  1  0
 19 38  1  0
 20 39  1  0
 21 40  1  0
 21 41  1  0
 23 42  1  0
 24 43  1  0
M  END
$$$$
OCNT-2316595
     RDKit          3D

 51 54  0  0  0  0  0  0  0  0999 V2000
   -0.3689   -2.4449    0.8108 O   0  0  0  0  0  0  0  0  0  0  0  0
   -0.4754   -1.3264    0.3269 C   0  0  0  0  0  0  0  0  0  0  0  0
   -1.6158   -0.7436   -0.1769 N   0  0  0  0  0  0  0  0  0  0  0  0
   -2.8951   -1.3165   -0.3080 C   0  0  0  0  0  0  0  0  0  0  0  0
   -3.1852   -2.6495   -0.0204 C   0  0  0  0  0  0  0  0  0  0  0  0
   -4.4836   -3.1422   -0.1795 C   0  0  0  0  0  0  0  0  0  0  0  0
   -5.5050   -2.3076   -0.6300 C   0  0  0  0  0  0  0  0  0  0  0  0
   -5.2366   -0.9664   -0.9270 C   0  0  0  0  0  0  0  0  0  0  0  0
   -6.3307   -0.0533   -1.4204 C   0  0  0  0  0  0  0  0  0  0  0  0
   -6.6174    1.0040   -0.4691 N   0  0  0  0  0  0  0  0  0  0  0  0
   -7.3227    0.9103    0.6905 C   0  0  0  0  0  0  0  0  0  0  0  0
   -7.4039    2.0945    1.2512 N   0  0  0  0  0  0  0  0  0  0  0  0
   -6.7164    2.8935    0.3823 C   0  0  0  0  0  0  0  0  0  0  0  0
   -6.2205    2.2736   -0.6922 N   0  0  0  0  0  0  0  0  0  0  0  0
   -3.9250   -0.4840   -0.7659 C   0  0  0  0  0  0  0  0  0  0  0  0
    0.5901   -0.4559    0.2418 N   0  0  0  0  0  0  0  0  0  0  0  0
    1.9329   -0.8912    0.6213 C   0  0  0  0  0  0  0  0  0  0  0  0
    2.1083   -0.9453    2.1327 C   0  0  0  0  0  0  0  0  0  0  0  0
    3.5526   -1.2934    2.4495 C   0  0  0  0  0  0  0  0  0  0  0  0
    4.4621   -0.2070    1.9019 C   0  0  0  0  0  0  0  0  0  0  0  0
    4.2241    0.1005    0.4879 N   0  0  0  0  0  0  0  0  0  0  0  0
    5.1753    0.9995   -0.0826 C   0  0  0  0  0  0  0  0  0  0  0  0
    6.3563    0.4409   -0.5893 C   0  0  0  0  0  0  0  0  0  0  0  0
    7.3300    1.2546   -1.1713 C   0  0  0  0  0  0  0  0  0  0  0  0
    7.1363    2.6329   -1.2423 C   0  0  0  0  0  0  0  0  0  0  0  0
    5.9734    3.2023   -0.7214 C   0  0  0  0  0  0  0  0  0  0  0  0
    4.9931    2.3936   -0.1375 C   0  0  0  0  0  0  0  0  0  0  0  0
    3.6333    3.1831    0.5860 Cl  0  0  0  0  0  0  0  0  0  0  0  0
    2.9402    0.0532   -0.0638 C   0  0  0  0  0  0  0  0  0  0  0  0
    2.6250    0.6123   -1.1210 O   0  0  0  0  0  0  0  0  0  0  0  0
   -1.5382    0.2426   -0.3779 H   0  0  0  0  0  0  0  0  0  0  0  0
   -2.4199   -3.3349    0.3296 H   0  0  0  0  0  0  0  0  0  0  0  0
   -4.6918   -4.1842    0.0513 H   0  0  0  0  0  0  0  0  0  0  0  0
   -6.5060   -2.7177   -0.7472 H   0  0  0  0  0  0  0  0  0  0  0  0
   -7.2674   -0.5978   -1.5868 H   0  0  0  0  0  0  0  0  0  0  0  0
   -6.0424    0.4038   -2.3741 H   0  0  0  0  0  0  0  0  0  0  0  0
   -7.7383   -0.0133    1.0680 H   0  0  0  0  0  0  0  0  0  0  0  0
   -6.5764    3.9556    0.5371 H   0  0  0  0  0  0  0  0  0  0  0  0
   -3.7159    0.5595   -0.9985 H   0  0  0  0  0  0  0  0  0  0  0  0
    0.5830    0.1463   -0.5753 H   0  0  0  0  0  0  0  0  0  0  0  0
    2.0985   -1.8870    0.1895 H   0  0  0  0  0  0  0  0  0  0  0  0
    1.8446    0.0187    2.5860 H   0  0  0  0  0  0  0  0  0  0  0  0
    1.4443   -1.6955    2.5757 H   0  0  0  0  0  0  0  0  0  0  0  0
    3.6917   -1.3847    3.5322 H   0  0  0  0  0  0  0  0  0  0  0  0
    3.8113   -2.2615    2.0038 H   0  0  0  0  0  0  0  0  0  0  0  0
    4.3045    0.7157    2.4744 H   0  0  0  0  0  0  0  0  0  0  0  0
    5.5076   -0.5107    2.0315 H   0  0  0  0  0  0  0  0  0  0  0  0
    6.5110   -0.6347   -0.5560 H   0  0  0  0  0  0  0  0  0  0  0  0
    8.2360    0.8111   -1.5777 H   0  0  0  0  0  0  0  0  0  0  0  0
    7.8932    3.2666   -1.6992 H   0  0  0  0  0  0  0  0  0  0  0  0
    5.8397    4.2804   -0.7656 H   0  0  0  0  0  0  0  0  0  0  0  0
  1  2  2  0
  2  3  1  0
  3  4  1  0
  4  5  1  0
  5  6  2  0
  6  7  1  0
  7  8  2  0
  8  9  1  0
  9 10  1  0
 10 11  1  0
 11 12  2  0
 12 13  1  0
 13 14  2  0
  8 15  1  0
  2 16  1  0
 16 17  1  0
 17 18  1  0
 18 19  1  0
 19 20  1  0
 20 21  1  0
 21 22  1  0
 22 23  2  0
 23 24  1  0
 24 25  2  0
 25 26  1  0
 26 27  2  0
 27 28  1  0
 21 29  1  0
 29 30  2  0
 15  4  2  0
 29 17  1  0
 14 10  1  0
 27 22  1  0
  3 31  1  0
  5 32  1  0
  6 33  1  0
  7 34  1  0
  9 35  1  0
  9 36  1  0
 11 37  1  0
 13 38  1  0
 15 39  1  0
 16 40  1  0
 17 41  1  0
 18 42  1  0
 18 43  1  0
 19 44  1  0
 19 45  1  0
 20 46  1  0
 20 47  1  0
 23 48  1  0
 24 49  1  0
 25 50  1  0
 26 51  1  0
M  END
$$$$
OCNT-2316606
     RDKit          3D

 40 42  0  0  0  0  0  0  0  0999 V2000
    1.3366   -2.7610    0.5000 O   0  0  0  0  0  0  0  0  0  0  0  0
    0.7817   -1.6837    0.3016 C   0  0  0  0  0  0  0  0  0  0  0  0
   -0.2784   -1.6329   -0.5567 N   0  0  0  0  0  0  0  0  0  0  0  0
   -0.7667   -0.3815   -1.0642 C   0  0  0  0  0  0  0  0  0  0  0  0
   -0.9182    0.6161    0.0665 C   0  0  0  0  0  0  0  0  0  0  0  0
   -2.0161    0.2639    1.0817 C   0  0  0  0  0  0  0  0  0  0  0  0
   -3.4057    0.3102    0.4943 C   0  0  0  0  0  0  0  0  0  0  0  0
   -4.1042   -0.8748    0.2266 C   0  0  0  0  0  0  0  0  0  0  0  0
   -5.3829   -0.8307   -0.3308 C   0  0  0  0  0  0  0  0  0  0  0  0
   -5.9749    0.3961   -0.6245 C   0  0  0  0  0  0  0  0  0  0  0  0
   -5.2900    1.5804   -0.3593 C   0  0  0  0  0  0  0  0  0  0  0  0
   -4.0113    1.5389    0.1980 C   0  0  0  0  0  0  0  0  0  0  0  0
    0.4068    0.6952    0.7956 C   0  0  0  0  0  0  0  0  0  0  0  0
    0.7477    1.7560    1.3245 O   0  0  0  0  0  0  0  0  0  0  0  0
    1.1387   -0.4842    0.8963 N   0  0  0  0  0  0  0  0  0  0  0  0
    2.3670   -0.4618    1.6783 C   0  0  0  0  0  0  0  0  0  0  0  0
    3.5736   -0.1314    0.8250 C   0  0  0  0  0  0  0  0  0  0  0  0
    3.9712    1.2001    0.6362 C   0  0  0  0  0  0  0  0  0  0  0  0
    5.0714    1.5044   -0.1670 C   0  0  0  0  0  0  0  0  0  0  0  0
    5.7823    0.4828   -0.7936 C   0  0  0  0  0  0  0  0  0  0  0  0
    5.3924   -0.8438   -0.6203 C   0  0  0  0  0  0  0  0  0  0  0  0
    4.2924   -1.1501    0.1825 C   0  0  0  0  0  0  0  0  0  0  0  0
   -0.4246   -2.4874   -1.0824 H   0  0  0  0  0  0  0  0  0  0  0  0
   -0.0342   -0.0231   -1.7977 H   0  0  0  0  0  0  0  0  0  0  0  0
   -1.7058   -0.5668   -1.5928 H   0  0  0  0  0  0  0  0  0  0  0  0
   -1.1148    1.6022   -0.3735 H   0  0  0  0  0  0  0  0  0  0  0  0
   -1.9807    0.9675    1.9251 H   0  0  0  0  0  0  0  0  0  0  0  0
   -1.8339   -0.7204    1.5326 H   0  0  0  0  0  0  0  0  0  0  0  0
   -3.6573   -1.8411    0.4507 H   0  0  0  0  0  0  0  0  0  0  0  0
   -5.9189   -1.7544   -0.5335 H   0  0  0  0  0  0  0  0  0  0  0  0
   -6.9718    0.4296   -1.0560 H   0  0  0  0  0  0  0  0  0  0  0  0
   -5.7537    2.5377   -0.5833 H   0  0  0  0  0  0  0  0  0  0  0  0
   -3.4924    2.4728    0.4045 H   0  0  0  0  0  0  0  0  0  0  0  0
    2.2828    0.2698    2.4915 H   0  0  0  0  0  0  0  0  0  0  0  0
    2.5205   -1.4326    2.1660 H   0  0  0  0  0  0  0  0  0  0  0  0
    3.4219    2.0104    1.1133 H   0  0  0  0  0  0  0  0  0  0  0  0
    5.3717    2.5399   -0.3044 H   0  0  0  0  0  0  0  0  0  0  0  0
    6.6387    0.7205   -1.4188 H   0  0  0  0  0  0  0  0  0  0  0  0
    5.9432   -1.6416   -1.1117 H   0  0  0  0  0  0  0  0  0  0  0  0
    3.9961   -2.1912    0.3021 H   0  0  0  0  0  0  0  0  0  0  0  0
  1  2  2  0
  2  3  1  0
  3  4  1  0
  4  5  1  0
  5  6  1  0
  6  7  1  0
  7  8  2  0
  8  9  1  0
  9 10  2  0
 10 11  1  0
 11 12  2  0
  5 13  1  0
 13 14  2  0
 13 15  1  0
 15 16  1  0
 16 17  1  0
 17 18  2  0
 18 19  1  0
 19 20  2  0
 20 21  1  0
 21 22  2  0
 15  2  1  0
 22 17  1  0
 12  7  1  0
  3 23  1  0
  4 24  1  0
  4 25  1  0
  5 26  1  0
  6 27  1  0
  6 28  1  0
  8 29  1  0
  9 30  1  0
 10 31  1  0
 11 32  1  0
 12 33  1  0
 16 34  1  0
 16 35  1  0
 18 36  1  0
 19 37  1  0
 20 38  1  0
 21 39  1  0
 22 40  1  0
M  END
$$$$
OCNT-2316612
     RDKit          3D

 43 45  0  0  0  0  0  0  0  0999 V2000
    5.3659   -0.5143    0.0943 C   0  0  0  0  0  0  0  0  0  0  0  0
    4.0306   -0.9972    0.0126 O   0  0  0  0  0  0  0  0  0  0  0  0
    3.2071   -0.5730    1.1012 C   0  0  0  0  0  0  0  0  0  0  0  0
    2.8140    0.9068    1.0150 C   0  0  0  0  0  0  0  0  0  0  0  0
    2.3954    1.4397   -0.3553 C   0  0  0  0  0  0  0  0  0  0  0  0
    1.6116    0.5003   -1.2670 C   0  0  0  0  0  0  0  0  0  0  0  0
    0.6262   -0.2862   -0.5027 N   0  0  0  0  0  0  0  0  0  0  0  0
   -0.6017   -0.4488   -1.2093 C   0  0  0  0  0  0  0  0  0  0  0  0
   -0.6405   -1.0089   -2.4890 C   0  0  0  0  0  0  0  0  0  0  0  0
   -1.8661   -1.1581   -3.1064 C   0  0  0  0  0  0  0  0  0  0  0  0
   -3.0400   -0.8003   -2.5478 N   0  0  0  0  0  0  0  0  0  0  0  0
   -3.0154   -0.2664   -1.3149 C   0  0  0  0  0  0  0  0  0  0  0  0
   -4.2181    0.0992   -0.7240 C   0  0  0  0  0  0  0  0  0  0  0  0
   -4.2876    0.6586    0.5578 C   0  0  0  0  0  0  0  0  0  0  0  0
   -5.5532    0.9503    0.9806 O   0  0  0  0  0  0  0  0  0  0  0  0
   -5.7086    1.4918    2.2809 C   0  0  0  0  0  0  0  0  0  0  0  0
   -5.0834    2.6834    2.3907 F   0  0  0  0  0  0  0  0  0  0  0  0
   -5.2368    0.6461    3.2224 F   0  0  0  0  0  0  0  0  0  0  0  0
   -7.0251    1.6868    2.5154 F   0  0  0  0  0  0  0  0  0  0  0  0
   -3.1107    0.8647    1.2674 C   0  0  0  0  0  0  0  0  0  0  0  0
   -1.8889    0.5050    0.6951 C   0  0  0  0  0  0  0  0  0  0  0  0
   -1.8206   -0.0651   -0.5945 C   0  0  0  0  0  0  0  0  0  0  0  0
    1.1425   -1.6040   -0.0732 C   0  0  0  0  0  0  0  0  0  0  0  0
    1.9799   -1.4866    1.1957 C   0  0  0  0  0  0  0  0  0  0  0  0
    5.8331   -0.8264    1.0342 H   0  0  0  0  0  0  0  0  0  0  0  0
    5.3949    0.5750    0.0007 H   0  0  0  0  0  0  0  0  0  0  0  0
    5.9347   -0.9451   -0.7347 H   0  0  0  0  0  0  0  0  0  0  0  0
    3.7632   -0.7183    2.0375 H   0  0  0  0  0  0  0  0  0  0  0  0
    2.0136    1.1085    1.7396 H   0  0  0  0  0  0  0  0  0  0  0  0
    3.6614    1.5177    1.3526 H   0  0  0  0  0  0  0  0  0  0  0  0
    3.2874    1.7743   -0.9005 H   0  0  0  0  0  0  0  0  0  0  0  0
    1.7989    2.3465   -0.1873 H   0  0  0  0  0  0  0  0  0  0  0  0
    2.2978   -0.1526   -1.8206 H   0  0  0  0  0  0  0  0  0  0  0  0
    1.1221    1.1299   -2.0232 H   0  0  0  0  0  0  0  0  0  0  0  0
    0.2622   -1.3301   -2.9944 H   0  0  0  0  0  0  0  0  0  0  0  0
   -1.9411   -1.5879   -4.1011 H   0  0  0  0  0  0  0  0  0  0  0  0
   -5.1362   -0.0620   -1.2862 H   0  0  0  0  0  0  0  0  0  0  0  0
   -3.0929    1.2992    2.2621 H   0  0  0  0  0  0  0  0  0  0  0  0
   -0.9723    0.6714    1.2582 H   0  0  0  0  0  0  0  0  0  0  0  0
    0.3102   -2.2826    0.1604 H   0  0  0  0  0  0  0  0  0  0  0  0
    1.7185   -2.0867   -0.8733 H   0  0  0  0  0  0  0  0  0  0  0  0
    2.3253   -2.4977    1.4478 H   0  0  0  0  0  0  0  0  0  0  0  0
    1.3427   -1.1568    2.0264 H   0  0  0  0  0  0  0  0  0  0  0  0
  1  2  1  0
  2  3  1  0
  3  4  1  0
  4  5  1  0
  5  6  1  0
  6  7  1  0
  7  8  1  0
  8  9  2  0
  9 10  1  0
 10 11  2  0
 11 12  1  0
 12 13  2  0
 13 14  1  0
 14 15  1  0
 15 16  1  0
 16 17  1  0
 16 18  1  0
 16 19  1  0
 14 20  2  0
 20 21  1  0
 21 22  2  0
  7 23  1  0
 23 24  1  0
 24  3  1  0
 22  8  1  0
 22 12  1  0
  1 25  1  0
  1 26  1  0
  1 27  1  0
  3 28  1  0
  4 29  1  0
  4 30  1  0
  5 31  1  0
  5 32  1  0
  6 33  1  0
  6 34  1  0
  9 35  1  0
 10 36  1  0
 13 37  1  0
 20 38  1  0
 21 39  1  0
 23 40  1  0
 23 41  1  0
 24 42  1  0
 24 43  1  0
M  END
$$$$
OCNT-2316635
     RDKit          3D

 40 43  0  0  0  0  0  0  0  0999 V2000
   -2.4147    0.4694   -2.1642 C   0  0  0  0  0  0  0  0  0  0  0  0
   -2.9491    0.6435   -0.7911 C   0  0  0  0  0  0  0  0  0  0  0  0
   -4.1839    1.1331   -0.5984 N   0  0  0  0  0  0  0  0  0  0  0  0
   -4.3251    1.1501    0.7404 N   0  0  0  0  0  0  0  0  0  0  0  0
   -5.5563    1.6458    1.3139 C   0  0  0  0  0  0  0  0  0  0  0  0
   -6.6722    0.6481    1.1395 C   0  0  0  0  0  0  0  0  0  0  0  0
   -7.8468    1.2273    1.5095 F   0  0  0  0  0  0  0  0  0  0  0  0
   -6.4895   -0.3976    1.9897 F   0  0  0  0  0  0  0  0  0  0  0  0
   -3.2284    0.6952    1.4105 C   0  0  0  0  0  0  0  0  0  0  0  0
   -2.3168    0.3555    0.4388 C   0  0  0  0  0  0  0  0  0  0  0  0
   -0.9002   -0.2186    0.6877 C   0  0  0  0  0  0  0  0  0  0  0  0
   -0.0551   -0.5327   -0.2716 N   0  0  0  0  0  0  0  0  0  0  0  0
    1.0460   -0.9774    0.4245 C   0  0  0  0  0  0  0  0  0  0  0  0
    2.2699   -1.4450   -0.2779 C   0  0  0  0  0  0  0  0  0  0  0  0
    3.0400   -2.5880    0.4098 C   0  0  0  0  0  0  0  0  0  0  0  0
    4.5232   -2.3600    0.0910 C   0  0  0  0  0  0  0  0  0  0  0  0
    4.5737   -0.8700   -0.0490 C   0  0  0  0  0  0  0  0  0  0  0  0
    5.6998   -0.0628   -0.0450 C   0  0  0  0  0  0  0  0  0  0  0  0
    5.5346    1.3072   -0.2531 C   0  0  0  0  0  0  0  0  0  0  0  0
    4.2597    1.8461   -0.4795 C   0  0  0  0  0  0  0  0  0  0  0  0
    3.1310    1.0231   -0.4955 C   0  0  0  0  0  0  0  0  0  0  0  0
    3.2934   -0.3363   -0.2598 C   0  0  0  0  0  0  0  0  0  0  0  0
    0.8991   -0.9622    1.7571 N   0  0  0  0  0  0  0  0  0  0  0  0
   -0.3867   -0.4561    1.9349 O   0  0  0  0  0  0  0  0  0  0  0  0
   -1.5073    1.0664   -2.3004 H   0  0  0  0  0  0  0  0  0  0  0  0
   -3.1409    0.7849   -2.9206 H   0  0  0  0  0  0  0  0  0  0  0  0
   -2.1717   -0.5816   -2.3499 H   0  0  0  0  0  0  0  0  0  0  0  0
   -5.7941    2.5960    0.8238 H   0  0  0  0  0  0  0  0  0  0  0  0
   -5.3813    1.8501    2.3755 H   0  0  0  0  0  0  0  0  0  0  0  0
   -6.7776    0.2636    0.1211 H   0  0  0  0  0  0  0  0  0  0  0  0
   -3.1888    0.6483    2.4903 H   0  0  0  0  0  0  0  0  0  0  0  0
    2.0487   -1.7101   -1.3189 H   0  0  0  0  0  0  0  0  0  0  0  0
    2.9121   -2.5647    1.5006 H   0  0  0  0  0  0  0  0  0  0  0  0
    2.6953   -3.5735    0.0781 H   0  0  0  0  0  0  0  0  0  0  0  0
    5.1655   -2.7260    0.8969 H   0  0  0  0  0  0  0  0  0  0  0  0
    4.8018   -2.8357   -0.8550 H   0  0  0  0  0  0  0  0  0  0  0  0
    6.6891   -0.4810    0.1113 H   0  0  0  0  0  0  0  0  0  0  0  0
    6.4023    1.9624   -0.2500 H   0  0  0  0  0  0  0  0  0  0  0  0
    4.1505    2.9142   -0.6514 H   0  0  0  0  0  0  0  0  0  0  0  0
    2.1511    1.4491   -0.6910 H   0  0  0  0  0  0  0  0  0  0  0  0
  1  2  1  0
  2  3  2  0
  3  4  1  0
  4  5  1  0
  5  6  1  0
  6  7  1  0
  6  8  1  0
  4  9  1  0
  9 10  2  0
 10 11  1  0
 11 12  2  0
 12 13  1  0
 13 14  1  0
 14 15  1  0
 15 16  1  0
 16 17  1  0
 17 18  2  0
 18 19  1  0
 19 20  2  0
 20 21  1  0
 21 22  2  0
 13 23  2  0
 23 24  1  0
 10  2  1  0
 24 11  1  0
 22 14  1  0
 22 17  1  0
  1 25  1  0
  1 26  1  0
  1 27  1  0
  5 28  1  0
  5 29  1  0
  6 30  1  0
  9 31  1  0
 14 32  1  0
 15 33  1  0
 15 34  1  0
 16 35  1  0
 16 36  1  0
 18 37  1  0
 19 38  1  0
 20 39  1  0
 21 40  1  0
M  END
$$$$
OCNT-2316636
     RDKit          3D

 31 32  0  0  0  0  0  0  0  0999 V2000
    0.8296    1.6896   -1.4644 O   0  0  0  0  0  0  0  0  0  0  0  0
    0.1429    1.0599   -0.6665 C   0  0  0  0  0  0  0  0  0  0  0  0
    0.5761    0.0092    0.1144 N   0  0  0  0  0  0  0  0  0  0  0  0
    1.8576   -0.5881    0.1589 C   0  0  0  0  0  0  0  0  0  0  0  0
    2.9304   -0.1634   -0.6308 C   0  0  0  0  0  0  0  0  0  0  0  0
    4.1760   -0.7963   -0.5426 C   0  0  0  0  0  0  0  0  0  0  0  0
    4.3499   -1.8573    0.3383 C   0  0  0  0  0  0  0  0  0  0  0  0
    5.5479   -2.4972    0.4511 O   0  0  0  0  0  0  0  0  0  0  0  0
    3.3023   -2.2992    1.1339 C   0  0  0  0  0  0  0  0  0  0  0  0
    2.0616   -1.6663    1.0435 C   0  0  0  0  0  0  0  0  0  0  0  0
    0.7767   -2.2445    2.0532 Cl  0  0  0  0  0  0  0  0  0  0  0  0
   -1.2873    1.4756   -0.4743 C   0  0  0  0  0  0  0  0  0  0  0  0
   -1.5863    2.8176   -0.7732 C   0  0  0  0  0  0  0  0  0  0  0  0
   -2.8801    3.3115   -0.6242 C   0  0  0  0  0  0  0  0  0  0  0  0
   -3.8897    2.4684   -0.1767 C   0  0  0  0  0  0  0  0  0  0  0  0
   -3.6124    1.1293    0.1133 C   0  0  0  0  0  0  0  0  0  0  0  0
   -2.3175    0.6124   -0.0420 C   0  0  0  0  0  0  0  0  0  0  0  0
   -1.9841   -0.6918    0.2108 O   0  0  0  0  0  0  0  0  0  0  0  0
   -3.0300   -1.6464    0.3315 C   0  0  0  0  0  0  0  0  0  0  0  0
   -3.8618   -1.6007   -0.7291 F   0  0  0  0  0  0  0  0  0  0  0  0
   -3.7293   -1.4440    1.4675 F   0  0  0  0  0  0  0  0  0  0  0  0
   -2.4820   -2.8786    0.3877 F   0  0  0  0  0  0  0  0  0  0  0  0
   -0.1070   -0.4122    0.7368 H   0  0  0  0  0  0  0  0  0  0  0  0
    2.8312    0.6610   -1.3303 H   0  0  0  0  0  0  0  0  0  0  0  0
    4.9897   -0.4434   -1.1695 H   0  0  0  0  0  0  0  0  0  0  0  0
    6.1818   -2.0874   -0.1611 H   0  0  0  0  0  0  0  0  0  0  0  0
    3.4561   -3.1297    1.8164 H   0  0  0  0  0  0  0  0  0  0  0  0
   -0.8017    3.4879   -1.1225 H   0  0  0  0  0  0  0  0  0  0  0  0
   -3.0961    4.3517   -0.8561 H   0  0  0  0  0  0  0  0  0  0  0  0
   -4.9008    2.8515   -0.0549 H   0  0  0  0  0  0  0  0  0  0  0  0
   -4.4435    0.5210    0.4610 H   0  0  0  0  0  0  0  0  0  0  0  0
  1  2  2  0
  2  3  1  0
  3  4  1  0
  4  5  1  0
  5  6  2  0
  6  7  1  0
  7  8  1  0
  7  9  2  0
  9 10  1  0
 10 11  1  0
  2 12  1  0
 12 13  2  0
 13 14  1  0
 14 15  2  0
 15 16  1  0
 16 17  2  0
 17 18  1  0
 18 19  1  0
 19 20  1  0
 19 21  1  0
 19 22  1  0
 10  4  2  0
 17 12  1  0
  3 23  1  0
  5 24  1  0
  6 25  1  0
  8 26  1  0
  9 27  1  0
 13 28  1  0
 14 29  1  0
 15 30  1  0
 16 31  1  0
M  END
$$$$
OCNT-2316641
     RDKit          3D

 45 46  0  0  0  0  0  0  0  0999 V2000
    4.8617    0.9321    1.5597 C   0  0  0  0  0  0  0  0  0  0  0  0
    3.9791    0.2414    0.5103 C   0  0  0  0  0  0  0  0  0  0  0  0
    3.5312    1.2958   -0.5104 C   0  0  0  0  0  0  0  0  0  0  0  0
    2.7655   -0.4298    1.2281 C   0  0  0  0  0  0  0  0  0  0  0  0
    2.0323   -1.4412    0.4582 N   0  0  0  0  0  0  0  0  0  0  0  0
    0.6128   -1.1812    0.2333 C   0  0  0  0  0  0  0  0  0  0  0  0
    0.2562   -0.0014   -0.6896 C   0  0  0  0  0  0  0  0  0  0  0  0
   -1.1798    0.1418   -0.8631 N   0  0  0  0  0  0  0  0  0  0  0  0
   -1.9524    0.7673    0.0872 C   0  0  0  0  0  0  0  0  0  0  0  0
   -1.5038    1.3233    1.0814 O   0  0  0  0  0  0  0  0  0  0  0  0
   -3.4129    0.7980   -0.1678 C   0  0  0  0  0  0  0  0  0  0  0  0
   -4.0350    2.0513   -0.0502 C   0  0  0  0  0  0  0  0  0  0  0  0
   -5.3999    2.1642   -0.2795 C   0  0  0  0  0  0  0  0  0  0  0  0
   -6.0415    3.3619   -0.1825 O   0  0  0  0  0  0  0  0  0  0  0  0
   -6.1569    1.0507   -0.6174 C   0  0  0  0  0  0  0  0  0  0  0  0
   -5.5461   -0.2013   -0.7109 C   0  0  0  0  0  0  0  0  0  0  0  0
   -4.1662   -0.3501   -0.4741 C   0  0  0  0  0  0  0  0  0  0  0  0
   -3.5392   -1.7162   -0.5414 C   0  0  0  0  0  0  0  0  0  0  0  0
   -4.4508   -2.7267   -0.6150 F   0  0  0  0  0  0  0  0  0  0  0  0
   -2.7517   -1.8585   -1.6468 F   0  0  0  0  0  0  0  0  0  0  0  0
   -2.7533   -2.0090    0.5278 F   0  0  0  0  0  0  0  0  0  0  0  0
    2.7800   -1.9621   -0.6829 C   0  0  0  0  0  0  0  0  0  0  0  0
    4.2800   -1.9935   -0.3652 C   0  0  0  0  0  0  0  0  0  0  0  0
    4.8340   -0.6858   -0.1894 O   0  0  0  0  0  0  0  0  0  0  0  0
    4.3053    1.6903    2.1204 H   0  0  0  0  0  0  0  0  0  0  0  0
    5.7285    1.4122    1.0907 H   0  0  0  0  0  0  0  0  0  0  0  0
    5.2643    0.2003    2.2695 H   0  0  0  0  0  0  0  0  0  0  0  0
    2.9849    0.8511   -1.3459 H   0  0  0  0  0  0  0  0  0  0  0  0
    2.8989    2.0605   -0.0477 H   0  0  0  0  0  0  0  0  0  0  0  0
    4.3994    1.7952   -0.9570 H   0  0  0  0  0  0  0  0  0  0  0  0
    2.0949    0.3409    1.6293 H   0  0  0  0  0  0  0  0  0  0  0  0
    3.1501   -0.9636    2.1078 H   0  0  0  0  0  0  0  0  0  0  0  0
    0.1278   -1.0355    1.2074 H   0  0  0  0  0  0  0  0  0  0  0  0
    0.1503   -2.0923   -0.1694 H   0  0  0  0  0  0  0  0  0  0  0  0
    0.6457    0.9369   -0.2828 H   0  0  0  0  0  0  0  0  0  0  0  0
    0.6757   -0.1454   -1.6897 H   0  0  0  0  0  0  0  0  0  0  0  0
   -1.5982   -0.2880   -1.6806 H   0  0  0  0  0  0  0  0  0  0  0  0
   -3.4395    2.9212    0.2163 H   0  0  0  0  0  0  0  0  0  0  0  0
   -5.4109    4.0363    0.1222 H   0  0  0  0  0  0  0  0  0  0  0  0
   -7.2247    1.1547   -0.7948 H   0  0  0  0  0  0  0  0  0  0  0  0
   -6.1608   -1.0669   -0.9581 H   0  0  0  0  0  0  0  0  0  0  0  0
    2.4376   -2.9781   -0.9082 H   0  0  0  0  0  0  0  0  0  0  0  0
    2.6202   -1.3502   -1.5762 H   0  0  0  0  0  0  0  0  0  0  0  0
    4.8243   -2.4681   -1.1882 H   0  0  0  0  0  0  0  0  0  0  0  0
    4.4828   -2.5824    0.5375 H   0  0  0  0  0  0  0  0  0  0  0  0
  1  2  1  0
  2  3  1  0
  2  4  1  0
  4  5  1  0
  5  6  1  0
  6  7  1  0
  7  8  1  0
  8  9  1  0
  9 10  2  0
  9 11  1  0
 11 12  1  0
 12 13  2  0
 13 14  1  0
 13 15  1  0
 15 16  2  0
 16 17  1  0
 17 18  1  0
 18 19  1  0
 18 20  1  0
 18 21  1  0
  5 22  1  0
 22 23  1  0
 23 24  1  0
 24  2  1  0
 17 11  2  0
  1 25  1  0
  1 26  1  0
  1 27  1  0
  3 28  1  0
  3 29  1  0
  3 30  1  0
  4 31  1  0
  4 32  1  0
  6 33  1  0
  6 34  1  0
  7 35  1  0
  7 36  1  0
  8 37  1  0
 12 38  1  0
 14 39  1  0
 15 40  1  0
 16 41  1  0
 22 42  1  0
 22 43  1  0
 23 44  1  0
 23 45  1  0
M  END
$$$$
OCNT-2316654
     RDKit          3D

 39 42  0  0  0  0  0  0  0  0999 V2000
    3.0076   -2.5253    1.8465 C   0  0  0  0  0  0  0  0  0  0  0  0
    3.1125   -1.3119    0.9925 C   0  0  0  0  0  0  0  0  0  0  0  0
    2.1424   -0.6332    0.2638 C   0  0  0  0  0  0  0  0  0  0  0  0
    0.7265   -1.0148    0.2155 C   0  0  0  0  0  0  0  0  0  0  0  0
    0.3828   -2.1905    0.2439 O   0  0  0  0  0  0  0  0  0  0  0  0
   -0.1234    0.0759    0.1987 N   0  0  0  0  0  0  0  0  0  0  0  0
   -1.5304    0.0817    0.1220 C   0  0  0  0  0  0  0  0  0  0  0  0
   -2.3029   -1.0698   -0.0555 C   0  0  0  0  0  0  0  0  0  0  0  0
   -3.7178   -1.0285   -0.1294 C   0  0  0  0  0  0  0  0  0  0  0  0
   -4.4931   -2.3012   -0.3473 C   0  0  0  0  0  0  0  0  0  0  0  0
   -5.7424   -2.2657    0.1967 F   0  0  0  0  0  0  0  0  0  0  0  0
   -4.6725   -2.5756   -1.6687 F   0  0  0  0  0  0  0  0  0  0  0  0
   -3.8932   -3.4004    0.1870 F   0  0  0  0  0  0  0  0  0  0  0  0
   -4.3346    0.2369   -0.0392 C   0  0  0  0  0  0  0  0  0  0  0  0
   -5.6606    0.7317   -0.0791 C   0  0  0  0  0  0  0  0  0  0  0  0
   -5.7214    2.0583    0.0547 N   0  0  0  0  0  0  0  0  0  0  0  0
   -4.4347    2.4199    0.1840 N   0  0  0  0  0  0  0  0  0  0  0  0
   -3.5519    1.3723    0.1316 C   0  0  0  0  0  0  0  0  0  0  0  0
   -2.1562    1.3331    0.2173 C   0  0  0  0  0  0  0  0  0  0  0  0
    2.8108    0.4503   -0.4079 C   0  0  0  0  0  0  0  0  0  0  0  0
    2.4124    1.4460   -1.3291 C   0  0  0  0  0  0  0  0  0  0  0  0
    3.3469    2.3808   -1.7906 C   0  0  0  0  0  0  0  0  0  0  0  0
    4.6688    2.3334   -1.3592 C   0  0  0  0  0  0  0  0  0  0  0  0
    5.0974    1.3468   -0.4683 C   0  0  0  0  0  0  0  0  0  0  0  0
    4.1502    0.4187   -0.0184 C   0  0  0  0  0  0  0  0  0  0  0  0
    4.3052   -0.6580    0.8209 N   0  0  0  0  0  0  0  0  0  0  0  0
    2.1778   -2.4274    2.5538 H   0  0  0  0  0  0  0  0  0  0  0  0
    2.8346   -3.4112    1.2275 H   0  0  0  0  0  0  0  0  0  0  0  0
    3.9223   -2.6895    2.4255 H   0  0  0  0  0  0  0  0  0  0  0  0
    0.3249    0.9739    0.3264 H   0  0  0  0  0  0  0  0  0  0  0  0
   -1.8287   -2.0456   -0.1475 H   0  0  0  0  0  0  0  0  0  0  0  0
   -6.5833    0.1769   -0.1989 H   0  0  0  0  0  0  0  0  0  0  0  0
   -4.2237    3.4042    0.3034 H   0  0  0  0  0  0  0  0  0  0  0  0
   -1.5863    2.2468    0.3519 H   0  0  0  0  0  0  0  0  0  0  0  0
    1.3941    1.4854   -1.7054 H   0  0  0  0  0  0  0  0  0  0  0  0
    3.0388    3.1437   -2.5017 H   0  0  0  0  0  0  0  0  0  0  0  0
    5.3830    3.0645   -1.7317 H   0  0  0  0  0  0  0  0  0  0  0  0
    6.1336    1.3006   -0.1485 H   0  0  0  0  0  0  0  0  0  0  0  0
    5.1844   -0.9331    1.2374 H   0  0  0  0  0  0  0  0  0  0  0  0
  1  2  1  0
  2  3  2  0
  3  4  1  0
  4  5  2  0
  4  6  1  0
  6  7  1  0
  7  8  2  0
  8  9  1  0
  9 10  1  0
 10 11  1  0
 10 12  1  0
 10 13  1  0
  9 14  2  0
 14 15  1  0
 15 16  2  0
 16 17  1  0
 17 18  1  0
 18 19  2  0
  3 20  1  0
 20 21  2  0
 21 22  1  0
 22 23  2  0
 23 24  1  0
 24 25  2  0
 25 26  1  0
 26  2  1  0
 19  7  1  0
 25 20  1  0
 18 14  1  0
  1 27  1  0
  1 28  1  0
  1 29  1  0
  6 30  1  0
  8 31  1  0
 15 32  1  0
 17 33  1  0
 19 34  1  0
 21 35  1  0
 22 36  1  0
 23 37  1  0
 24 38  1  0
 26 39  1  0
M  END
$$$$
OCNT-2316664
     RDKit          3D

 45 48  0  0  0  0  0  0  0  0999 V2000
    5.2215    2.7288    0.8291 C   0  0  0  0  0  0  0  0  0  0  0  0
    4.7917    1.3318    1.1738 C   0  0  0  0  0  0  0  0  0  0  0  0
    5.5363    0.5515    2.0545 C   0  0  0  0  0  0  0  0  0  0  0  0
    5.1113   -0.7348    2.3568 C   0  0  0  0  0  0  0  0  0  0  0  0
    3.9344   -1.2423    1.7905 C   0  0  0  0  0  0  0  0  0  0  0  0
    3.1360   -0.4809    0.9144 C   0  0  0  0  0  0  0  0  0  0  0  0
    1.9185   -1.0351    0.3277 N   0  0  0  0  0  0  0  0  0  0  0  0
    1.6833   -2.4721    0.5465 C   0  0  0  0  0  0  0  0  0  0  0  0
    0.3703   -3.0308    0.0321 C   0  0  0  0  0  0  0  0  0  0  0  0
    0.0851   -2.4847   -1.3461 C   0  0  0  0  0  0  0  0  0  0  0  0
   -0.0017   -0.9650   -1.3075 C   0  0  0  0  0  0  0  0  0  0  0  0
   -1.3378   -0.4710   -0.9981 N   0  0  0  0  0  0  0  0  0  0  0  0
   -2.1113    0.3658   -1.7526 C   0  0  0  0  0  0  0  0  0  0  0  0
   -3.2792    0.4660   -1.0376 C   0  0  0  0  0  0  0  0  0  0  0  0
   -4.5141    1.3007   -1.4226 C   0  0  0  0  0  0  0  0  0  0  0  0
   -4.6836    2.0966   -2.5335 C   0  0  0  0  0  0  0  0  0  0  0  0
   -5.9277    2.6776   -2.5353 N   0  0  0  0  0  0  0  0  0  0  0  0
   -6.5069    2.2493   -1.4355 C   0  0  0  0  0  0  0  0  0  0  0  0
   -5.6883    1.4147   -0.7274 N   0  0  0  0  0  0  0  0  0  0  0  0
   -6.0197    0.7796    0.5229 C   0  0  0  0  0  0  0  0  0  0  0  0
   -3.1931   -0.3040    0.0879 N   0  0  0  0  0  0  0  0  0  0  0  0
   -1.9978   -0.8778    0.1037 N   0  0  0  0  0  0  0  0  0  0  0  0
    1.0324   -0.2547   -0.4362 C   0  0  0  0  0  0  0  0  0  0  0  0
    1.0452    0.9800   -0.4809 O   0  0  0  0  0  0  0  0  0  0  0  0
    3.6069    0.8095    0.6162 C   0  0  0  0  0  0  0  0  0  0  0  0
    5.2648    2.8555   -0.2578 H   0  0  0  0  0  0  0  0  0  0  0  0
    4.5158    3.4526    1.2489 H   0  0  0  0  0  0  0  0  0  0  0  0
    6.2161    2.9524    1.2284 H   0  0  0  0  0  0  0  0  0  0  0  0
    6.4477    0.9365    2.5047 H   0  0  0  0  0  0  0  0  0  0  0  0
    5.6926   -1.3507    3.0390 H   0  0  0  0  0  0  0  0  0  0  0  0
    3.6745   -2.2549    2.0794 H   0  0  0  0  0  0  0  0  0  0  0  0
    1.7036   -2.6747    1.6232 H   0  0  0  0  0  0  0  0  0  0  0  0
    2.5102   -3.0118    0.0678 H   0  0  0  0  0  0  0  0  0  0  0  0
   -0.4356   -2.7818    0.7292 H   0  0  0  0  0  0  0  0  0  0  0  0
    0.4231   -4.1252    0.0036 H   0  0  0  0  0  0  0  0  0  0  0  0
   -0.8351   -2.9254   -1.7471 H   0  0  0  0  0  0  0  0  0  0  0  0
    0.8984   -2.7838   -2.0200 H   0  0  0  0  0  0  0  0  0  0  0  0
    0.1984   -0.6222   -2.3330 H   0  0  0  0  0  0  0  0  0  0  0  0
   -1.7716    0.8049   -2.6778 H   0  0  0  0  0  0  0  0  0  0  0  0
   -3.9820    2.2847   -3.3350 H   0  0  0  0  0  0  0  0  0  0  0  0
   -7.5050    2.5118   -1.1092 H   0  0  0  0  0  0  0  0  0  0  0  0
   -5.9734   -0.3039    0.3873 H   0  0  0  0  0  0  0  0  0  0  0  0
   -5.3076    1.1104    1.2830 H   0  0  0  0  0  0  0  0  0  0  0  0
   -7.0313    1.0666    0.8216 H   0  0  0  0  0  0  0  0  0  0  0  0
    3.0848    1.4606   -0.0770 H   0  0  0  0  0  0  0  0  0  0  0  0
  1  2  1  0
  2  3  2  0
  3  4  1  0
  4  5  2  0
  5  6  1  0
  6  7  1  0
  7  8  1  0
  8  9  1  0
  9 10  1  0
 10 11  1  0
 11 12  1  0
 12 13  1  0
 13 14  2  0
 14 15  1  0
 15 16  2  0
 16 17  1  0
 17 18  2  0
 18 19  1  0
 19 20  1  0
 14 21  1  0
 21 22  2  0
 11 23  1  0
 23 24  2  0
  6 25  2  0
 25  2  1  0
 23  7  1  0
 22 12  1  0
 19 15  1  0
  1 26  1  0
  1 27  1  0
  1 28  1  0
  3 29  1  0
  4 30  1  0
  5 31  1  0
  8 32  1  0
  8 33  1  0
  9 34  1  0
  9 35  1  0
 10 36  1  0
 10 37  1  0
 11 38  1  0
 13 39  1  0
 16 40  1  0
 18 41  1  0
 20 42  1  0
 20 43  1  0
 20 44  1  0
 25 45  1  0
M  END
$$$$
OCNT-2316669
     RDKit          3D

 33 36  0  0  0  0  0  0  0  0999 V2000
    5.7326    2.1794   -2.6741 Br  0  0  0  0  0  0  0  0  0  0  0  0
    5.2456    0.6435   -1.6938 C   0  0  0  0  0  0  0  0  0  0  0  0
    6.0452   -0.4880   -1.7092 C   0  0  0  0  0  0  0  0  0  0  0  0
    5.7499   -1.6184   -1.0290 N   0  0  0  0  0  0  0  0  0  0  0  0
    4.6015   -1.6071   -0.3041 C   0  0  0  0  0  0  0  0  0  0  0  0
    3.7297   -0.5213   -0.2207 C   0  0  0  0  0  0  0  0  0  0  0  0
    2.5289   -0.6131    0.5834 C   0  0  0  0  0  0  0  0  0  0  0  0
    1.5925    0.3714    0.8077 C   0  0  0  0  0  0  0  0  0  0  0  0
    0.6615   -0.2314    1.6082 N   0  0  0  0  0  0  0  0  0  0  0  0
   -0.5221    0.3527    2.2046 C   0  0  0  0  0  0  0  0  0  0  0  0
   -1.4980    0.7195    1.1545 C   0  0  0  0  0  0  0  0  0  0  0  0
   -1.5792    1.8372    0.4550 N   0  0  0  0  0  0  0  0  0  0  0  0
   -2.6653    1.6324   -0.3597 C   0  0  0  0  0  0  0  0  0  0  0  0
   -3.2099    0.3947   -0.1135 C   0  0  0  0  0  0  0  0  0  0  0  0
   -4.4352   -0.2331   -0.8139 C   0  0  0  0  0  0  0  0  0  0  0  0
   -5.3836   -1.0755   -0.0022 C   0  0  0  0  0  0  0  0  0  0  0  0
   -5.8109    0.2813   -0.4812 C   0  0  0  0  0  0  0  0  0  0  0  0
   -2.4680   -0.2018    0.8637 O   0  0  0  0  0  0  0  0  0  0  0  0
    1.0174   -1.4962    1.8980 N   0  0  0  0  0  0  0  0  0  0  0  0
    2.1551   -1.7445    1.2642 N   0  0  0  0  0  0  0  0  0  0  0  0
    4.0732    0.6282   -0.9410 C   0  0  0  0  0  0  0  0  0  0  0  0
    6.9685   -0.5260   -2.2801 H   0  0  0  0  0  0  0  0  0  0  0  0
    4.3998   -2.5355    0.2273 H   0  0  0  0  0  0  0  0  0  0  0  0
    1.4910    1.3962    0.4812 H   0  0  0  0  0  0  0  0  0  0  0  0
   -0.2001    1.2371    2.7641 H   0  0  0  0  0  0  0  0  0  0  0  0
   -0.9488   -0.3653    2.9126 H   0  0  0  0  0  0  0  0  0  0  0  0
   -2.9948    2.3777   -1.0701 H   0  0  0  0  0  0  0  0  0  0  0  0
   -4.2531   -0.5500   -1.8359 H   0  0  0  0  0  0  0  0  0  0  0  0
   -5.1889   -1.2040    1.0567 H   0  0  0  0  0  0  0  0  0  0  0  0
   -5.8192   -1.9462   -0.4787 H   0  0  0  0  0  0  0  0  0  0  0  0
   -6.5406    0.3302   -1.2813 H   0  0  0  0  0  0  0  0  0  0  0  0
   -5.9125    1.0672    0.2588 H   0  0  0  0  0  0  0  0  0  0  0  0
    3.4381    1.5086   -0.9243 H   0  0  0  0  0  0  0  0  0  0  0  0
  1  2  1  0
  2  3  1  0
  3  4  2  0
  4  5  1  0
  5  6  2  0
  6  7  1  0
  7  8  2  0
  8  9  1  0
  9 10  1  0
 10 11  1  0
 11 12  2  0
 12 13  1  0
 13 14  2  0
 14 15  1  0
 15 16  1  0
 16 17  1  0
 14 18  1  0
  9 19  1  0
 19 20  2  0
  6 21  1  0
 21  2  2  0
 20  7  1  0
 18 11  1  0
 17 15  1  0
  3 22  1  0
  5 23  1  0
  8 24  1  0
 10 25  1  0
 10 26  1  0
 13 27  1  0
 15 28  1  0
 16 29  1  0
 16 30  1  0
 17 31  1  0
 17 32  1  0
 21 33  1  0
M  END
$$$$
OCNT-2316676
     RDKit          3D

 44 47  0  0  0  0  0  0  0  0999 V2000
   -5.9039   -2.3370   -0.0332 C   0  0  0  0  0  0  0  0  0  0  0  0
   -5.8737   -1.1492    0.9212 C   0  0  0  0  0  0  0  0  0  0  0  0
   -4.9472   -0.0033    0.4946 C   0  0  0  0  0  0  0  0  0  0  0  0
   -3.4584   -0.3666    0.5676 C   0  0  0  0  0  0  0  0  0  0  0  0
   -2.6128    0.5076   -0.3729 C   0  0  0  0  0  0  0  0  0  0  0  0
   -1.2235    0.6673    0.1338 C   0  0  0  0  0  0  0  0  0  0  0  0
   -0.0979    0.2186   -0.3700 N   0  0  0  0  0  0  0  0  0  0  0  0
    0.8405    0.6791    0.5306 C   0  0  0  0  0  0  0  0  0  0  0  0
    2.2667    0.4129    0.3726 C   0  0  0  0  0  0  0  0  0  0  0  0
    3.2023    0.8921    1.2978 C   0  0  0  0  0  0  0  0  0  0  0  0
    4.5705    0.6321    1.1388 C   0  0  0  0  0  0  0  0  0  0  0  0
    5.0307   -0.1159    0.0460 C   0  0  0  0  0  0  0  0  0  0  0  0
    6.4225   -0.3809   -0.1167 N   0  0  0  0  0  0  0  0  0  0  0  0
    7.4553    0.0215    0.7051 C   0  0  0  0  0  0  0  0  0  0  0  0
    8.6098   -0.4696    0.1431 C   0  0  0  0  0  0  0  0  0  0  0  0
    8.3351   -1.1628   -0.9981 N   0  0  0  0  0  0  0  0  0  0  0  0
    7.0281   -1.0953   -1.1303 C   0  0  0  0  0  0  0  0  0  0  0  0
    4.0973   -0.5976   -0.8825 C   0  0  0  0  0  0  0  0  0  0  0  0
    2.7307   -0.3338   -0.7173 C   0  0  0  0  0  0  0  0  0  0  0  0
    0.3147    1.3838    1.5470 N   0  0  0  0  0  0  0  0  0  0  0  0
   -1.0523    1.3768    1.2856 O   0  0  0  0  0  0  0  0  0  0  0  0
   -3.2867    1.8562   -0.6176 C   0  0  0  0  0  0  0  0  0  0  0  0
   -4.6869    1.6584   -1.1921 C   0  0  0  0  0  0  0  0  0  0  0  0
   -5.2723    0.4063   -0.8326 O   0  0  0  0  0  0  0  0  0  0  0  0
   -6.1994   -2.0324   -1.0418 H   0  0  0  0  0  0  0  0  0  0  0  0
   -4.9327   -2.8351   -0.0933 H   0  0  0  0  0  0  0  0  0  0  0  0
   -6.6317   -3.0763    0.3174 H   0  0  0  0  0  0  0  0  0  0  0  0
   -5.6010   -1.4926    1.9257 H   0  0  0  0  0  0  0  0  0  0  0  0
   -6.8968   -0.7571    0.9824 H   0  0  0  0  0  0  0  0  0  0  0  0
   -5.1441    0.8383    1.1732 H   0  0  0  0  0  0  0  0  0  0  0  0
   -3.1327   -0.2865    1.6128 H   0  0  0  0  0  0  0  0  0  0  0  0
   -3.2868   -1.4127    0.2891 H   0  0  0  0  0  0  0  0  0  0  0  0
   -2.5489   -0.0085   -1.3416 H   0  0  0  0  0  0  0  0  0  0  0  0
    2.8771    1.4763    2.1576 H   0  0  0  0  0  0  0  0  0  0  0  0
    5.2422    1.0327    1.8921 H   0  0  0  0  0  0  0  0  0  0  0  0
    7.3100    0.6065    1.5994 H   0  0  0  0  0  0  0  0  0  0  0  0
    9.6238   -0.3572    0.5051 H   0  0  0  0  0  0  0  0  0  0  0  0
    6.4827   -1.5495   -1.9446 H   0  0  0  0  0  0  0  0  0  0  0  0
    4.3856   -1.1829   -1.7506 H   0  0  0  0  0  0  0  0  0  0  0  0
    2.0272   -0.7204   -1.4539 H   0  0  0  0  0  0  0  0  0  0  0  0
   -2.6950    2.4944   -1.2851 H   0  0  0  0  0  0  0  0  0  0  0  0
   -3.3667    2.4073    0.3294 H   0  0  0  0  0  0  0  0  0  0  0  0
   -4.6495    1.6872   -2.2862 H   0  0  0  0  0  0  0  0  0  0  0  0
   -5.3518    2.4678   -0.8707 H   0  0  0  0  0  0  0  0  0  0  0  0
  1  2  1  0
  2  3  1  0
  3  4  1  0
  4  5  1  0
  5  6  1  0
  6  7  2  0
  7  8  1  0
  8  9  1  0
  9 10  1  0
 10 11  2  0
 11 12  1  0
 12 13  1  0
 13 14  1  0
 14 15  2  0
 15 16  1  0
 16 17  2  0
 12 18  2  0
 18 19  1  0
  8 20  2  0
 20 21  1  0
  5 22  1  0
 22 23  1  0
 23 24  1  0
 24  3  1  0
 21  6  1  0
 19  9  2  0
 17 13  1  0
  1 25  1  0
  1 26  1  0
  1 27  1  0
  2 28  1  0
  2 29  1  0
  3 30  1  0
  4 31  1  0
  4 32  1  0
  5 33  1  0
 10 34  1  0
 11 35  1  0
 14 36  1  0
 15 37  1  0
 17 38  1  0
 18 39  1  0
 19 40  1  0
 22 41  1  0
 22 42  1  0
 23 43  1  0
 23 44  1  0
M  END
$$$$
OCNT-2316683
     RDKit          3D

 38 40  0  0  0  0  0  0  0  0999 V2000
    2.3006   -0.5679    2.3115 O   0  0  0  0  0  0  0  0  0  0  0  0
    1.8225   -0.3906    1.1948 C   0  0  0  0  0  0  0  0  0  0  0  0
    2.5320   -0.5045    0.0210 N   0  0  0  0  0  0  0  0  0  0  0  0
    3.8584   -0.9632   -0.1237 C   0  0  0  0  0  0  0  0  0  0  0  0
    4.4561   -0.8386   -1.3807 C   0  0  0  0  0  0  0  0  0  0  0  0
    5.7603   -1.2885   -1.5812 C   0  0  0  0  0  0  0  0  0  0  0  0
    6.4301   -1.8584   -0.5130 C   0  0  0  0  0  0  0  0  0  0  0  0
    5.8891   -2.0050    0.7128 N   0  0  0  0  0  0  0  0  0  0  0  0
    4.6174   -1.5552    0.8824 C   0  0  0  0  0  0  0  0  0  0  0  0
    0.4914   -0.0313    1.0270 N   0  0  0  0  0  0  0  0  0  0  0  0
   -0.2497   -0.0559   -0.2384 C   0  0  0  0  0  0  0  0  0  0  0  0
   -1.7640   -0.2728   -0.0445 C   0  0  0  0  0  0  0  0  0  0  0  0
   -2.4181    0.6420    0.9058 N   0  0  0  0  0  0  0  0  0  0  0  0
   -3.1818    1.7279    0.2754 C   0  0  0  0  0  0  0  0  0  0  0  0
   -4.4637    1.2122   -0.3200 C   0  0  0  0  0  0  0  0  0  0  0  0
   -4.7275    1.0174   -1.6655 C   0  0  0  0  0  0  0  0  0  0  0  0
   -6.3204    0.4224   -1.8822 S   0  0  0  0  0  0  0  0  0  0  0  0
   -6.5526    0.4881   -0.1862 C   0  0  0  0  0  0  0  0  0  0  0  0
   -5.5350    0.9249    0.5204 N   0  0  0  0  0  0  0  0  0  0  0  0
   -1.4819    1.1793    1.9122 C   0  0  0  0  0  0  0  0  0  0  0  0
   -0.3083    0.2377    2.2256 C   0  0  0  0  0  0  0  0  0  0  0  0
    2.1243   -0.0651   -0.7870 H   0  0  0  0  0  0  0  0  0  0  0  0
    3.9217   -0.3925   -2.2139 H   0  0  0  0  0  0  0  0  0  0  0  0
    6.2418   -1.1971   -2.5482 H   0  0  0  0  0  0  0  0  0  0  0  0
    7.4475   -2.2242   -0.6172 H   0  0  0  0  0  0  0  0  0  0  0  0
    4.2348   -1.7104    1.8857 H   0  0  0  0  0  0  0  0  0  0  0  0
   -0.0682    0.9042   -0.7355 H   0  0  0  0  0  0  0  0  0  0  0  0
    0.1464   -0.8505   -0.8797 H   0  0  0  0  0  0  0  0  0  0  0  0
   -1.9063   -1.2876    0.3502 H   0  0  0  0  0  0  0  0  0  0  0  0
   -2.2510   -0.2725   -1.0255 H   0  0  0  0  0  0  0  0  0  0  0  0
   -3.4648    2.4760    1.0282 H   0  0  0  0  0  0  0  0  0  0  0  0
   -2.5799    2.2487   -0.4799 H   0  0  0  0  0  0  0  0  0  0  0  0
   -4.0742    1.1836   -2.5092 H   0  0  0  0  0  0  0  0  0  0  0  0
   -7.4871    0.1905    0.2710 H   0  0  0  0  0  0  0  0  0  0  0  0
   -1.0587    2.1314    1.5629 H   0  0  0  0  0  0  0  0  0  0  0  0
   -2.0352    1.3864    2.8352 H   0  0  0  0  0  0  0  0  0  0  0  0
   -0.6710   -0.7246    2.6068 H   0  0  0  0  0  0  0  0  0  0  0  0
    0.3247    0.6838    3.0009 H   0  0  0  0  0  0  0  0  0  0  0  0
  1  2  2  0
  2  3  1  0
  3  4  1  0
  4  5  1  0
  5  6  2  0
  6  7  1  0
  7  8  2  0
  8  9  1  0
  2 10  1  0
 10 11  1  0
 11 12  1  0
 12 13  1  0
 13 14  1  0
 14 15  1  0
 15 16  2  0
 16 17  1  0
 17 18  1  0
 18 19  2  0
 13 20  1  0
 20 21  1  0
  9  4  2  0
 21 10  1  0
 19 15  1  0
  3 22  1  0
  5 23  1  0
  6 24  1  0
  7 25  1  0
  9 26  1  0
 11 27  1  0
 11 28  1  0
 12 29  1  0
 12 30  1  0
 14 31  1  0
 14 32  1  0
 16 33  1  0
 18 34  1  0
 20 35  1  0
 20 36  1  0
 21 37  1  0
 21 38  1  0
M  END
$$$$
OCNT-2316687
     RDKit          3D

 36 39  0  0  0  0  0  0  0  0999 V2000
    0.5419    1.5032   -0.5208 O   0  0  0  0  0  0  0  0  0  0  0  0
    0.2495    0.3935   -0.0966 C   0  0  0  0  0  0  0  0  0  0  0  0
   -1.0481   -0.0730    0.0530 N   0  0  0  0  0  0  0  0  0  0  0  0
   -2.2604    0.5980   -0.2238 C   0  0  0  0  0  0  0  0  0  0  0  0
   -2.3417    1.9075   -0.7010 C   0  0  0  0  0  0  0  0  0  0  0  0
   -3.5874    2.4930   -0.9536 C   0  0  0  0  0  0  0  0  0  0  0  0
   -4.7623    1.7800   -0.7199 C   0  0  0  0  0  0  0  0  0  0  0  0
   -4.6948    0.4791   -0.2299 C   0  0  0  0  0  0  0  0  0  0  0  0
   -3.4496   -0.1209   -0.0022 C   0  0  0  0  0  0  0  0  0  0  0  0
   -3.3235   -1.4197    0.4504 O   0  0  0  0  0  0  0  0  0  0  0  0
   -4.5499   -2.1453    0.2999 C   0  0  0  0  0  0  0  0  0  0  0  0
   -5.7236   -1.3222    0.8007 C   0  0  0  0  0  0  0  0  0  0  0  0
   -5.8919   -0.1510   -0.0032 O   0  0  0  0  0  0  0  0  0  0  0  0
    1.1530   -0.5717    0.3012 N   0  0  0  0  0  0  0  0  0  0  0  0
    2.5070   -0.3864    0.2530 C   0  0  0  0  0  0  0  0  0  0  0  0
    3.1961    0.6423   -0.1592 N   0  0  0  0  0  0  0  0  0  0  0  0
    4.5476    0.3799   -0.0229 C   0  0  0  0  0  0  0  0  0  0  0  0
    5.5989    1.2547   -0.3629 C   0  0  0  0  0  0  0  0  0  0  0  0
    6.9257    0.8559   -0.1709 C   0  0  0  0  0  0  0  0  0  0  0  0
    7.2154   -0.3999    0.3541 C   0  0  0  0  0  0  0  0  0  0  0  0
    6.1911   -1.2873    0.6998 C   0  0  0  0  0  0  0  0  0  0  0  0
    4.8624   -0.8761    0.5027 C   0  0  0  0  0  0  0  0  0  0  0  0
    3.3973   -1.7256    0.8236 S   0  0  0  0  0  0  0  0  0  0  0  0
   -1.1812   -1.0174    0.3871 H   0  0  0  0  0  0  0  0  0  0  0  0
   -1.4532    2.5022   -0.8911 H   0  0  0  0  0  0  0  0  0  0  0  0
   -3.6354    3.5123   -1.3296 H   0  0  0  0  0  0  0  0  0  0  0  0
   -5.7270    2.2425   -0.9091 H   0  0  0  0  0  0  0  0  0  0  0  0
   -4.4603   -3.0689    0.8803 H   0  0  0  0  0  0  0  0  0  0  0  0
   -4.6681   -2.4156   -0.7568 H   0  0  0  0  0  0  0  0  0  0  0  0
   -6.6486   -1.9038    0.7380 H   0  0  0  0  0  0  0  0  0  0  0  0
   -5.5830   -1.0135    1.8440 H   0  0  0  0  0  0  0  0  0  0  0  0
    0.8334   -1.4512    0.6654 H   0  0  0  0  0  0  0  0  0  0  0  0
    5.3655    2.2330   -0.7720 H   0  0  0  0  0  0  0  0  0  0  0  0
    7.7331    1.5351   -0.4350 H   0  0  0  0  0  0  0  0  0  0  0  0
    8.2525   -0.6964    0.4979 H   0  0  0  0  0  0  0  0  0  0  0  0
    6.4196   -2.2664    1.1092 H   0  0  0  0  0  0  0  0  0  0  0  0
  1  2  2  0
  2  3  1  0
  3  4  1  0
  4  5  2  0
  5  6  1  0
  6  7  2  0
  7  8  1  0
  8  9  2  0
  9 10  1  0
 10 11  1  0
 11 12  1  0
 12 13  1  0
  2 14  1  0
 14 15  1  0
 15 16  2  0
 16 17  1  0
 17 18  2  0
 18 19  1  0
 19 20  2  0
 20 21  1  0
 21 22  2  0
 22 23  1  0
  9  4  1  0
 23 15  1  0
 13  8  1  0
 22 17  1  0
  3 24  1  0
  5 25  1  0
  6 26  1  0
  7 27  1  0
 11 28  1  0
 11 29  1  0
 12 30  1  0
 12 31  1  0
 14 32  1  0
 18 33  1  0
 19 34  1  0
 20 35  1  0
 21 36  1  0
M  END
$$$$
OCNT-2316693
     RDKit          3D

 40 42  0  0  0  0  0  0  0  0999 V2000
   -0.6006    2.3786    0.3279 C   0  0  0  0  0  0  0  0  0  0  0  0
   -0.6742    0.9792   -0.2851 C   0  0  0  0  0  0  0  0  0  0  0  0
   -1.9569    0.2436    0.1383 C   0  0  0  0  0  0  0  0  0  0  0  0
   -3.1079    0.9656   -0.3013 O   0  0  0  0  0  0  0  0  0  0  0  0
   -4.3304    0.3489    0.0769 C   0  0  0  0  0  0  0  0  0  0  0  0
   -4.6665   -0.8847   -0.7308 C   0  0  0  0  0  0  0  0  0  0  0  0
   -6.1688   -0.9667   -0.5719 C   0  0  0  0  0  0  0  0  0  0  0  0
   -6.6525    0.3760   -0.4251 O   0  0  0  0  0  0  0  0  0  0  0  0
   -5.5187    1.2404   -0.2534 C   0  0  0  0  0  0  0  0  0  0  0  0
    0.5042    0.2080    0.0810 N   0  0  0  0  0  0  0  0  0  0  0  0
    1.6992    0.2974   -0.6030 C   0  0  0  0  0  0  0  0  0  0  0  0
    1.8328    0.8932   -1.6666 O   0  0  0  0  0  0  0  0  0  0  0  0
    2.8059   -0.3881    0.0855 C   0  0  0  0  0  0  0  0  0  0  0  0
    2.6232   -0.9868    1.2845 N   0  0  0  0  0  0  0  0  0  0  0  0
    3.8351   -1.4863    1.5825 N   0  0  0  0  0  0  0  0  0  0  0  0
    4.7969   -1.2395    0.6418 C   0  0  0  0  0  0  0  0  0  0  0  0
    6.1513   -1.5849    0.5896 C   0  0  0  0  0  0  0  0  0  0  0  0
    6.8702   -1.1692   -0.5365 C   0  0  0  0  0  0  0  0  0  0  0  0
    6.2514   -0.4433   -1.5541 C   0  0  0  0  0  0  0  0  0  0  0  0
    7.1747    0.0483   -2.9228 Cl  0  0  0  0  0  0  0  0  0  0  0  0
    4.8958   -0.1072   -1.4846 C   0  0  0  0  0  0  0  0  0  0  0  0
    4.1552   -0.5173   -0.3585 C   0  0  0  0  0  0  0  0  0  0  0  0
   -1.4549    2.9919    0.0243 H   0  0  0  0  0  0  0  0  0  0  0  0
   -0.5865    2.3284    1.4224 H   0  0  0  0  0  0  0  0  0  0  0  0
    0.3112    2.8968    0.0113 H   0  0  0  0  0  0  0  0  0  0  0  0
   -0.6846    1.0992   -1.3757 H   0  0  0  0  0  0  0  0  0  0  0  0
   -1.9605   -0.7592   -0.3045 H   0  0  0  0  0  0  0  0  0  0  0  0
   -1.9866    0.1344    1.2296 H   0  0  0  0  0  0  0  0  0  0  0  0
   -4.3332    0.1226    1.1511 H   0  0  0  0  0  0  0  0  0  0  0  0
   -4.3938   -0.7373   -1.7830 H   0  0  0  0  0  0  0  0  0  0  0  0
   -4.1570   -1.7886   -0.3850 H   0  0  0  0  0  0  0  0  0  0  0  0
   -6.6552   -1.4417   -1.4285 H   0  0  0  0  0  0  0  0  0  0  0  0
   -6.4413   -1.5191    0.3337 H   0  0  0  0  0  0  0  0  0  0  0  0
   -5.7252    1.9629    0.5420 H   0  0  0  0  0  0  0  0  0  0  0  0
   -5.3644    1.8011   -1.1824 H   0  0  0  0  0  0  0  0  0  0  0  0
    0.5883   -0.1963    1.0109 H   0  0  0  0  0  0  0  0  0  0  0  0
    3.9459   -1.9918    2.4546 H   0  0  0  0  0  0  0  0  0  0  0  0
    6.6320   -2.1494    1.3821 H   0  0  0  0  0  0  0  0  0  0  0  0
    7.9264   -1.4184   -0.6137 H   0  0  0  0  0  0  0  0  0  0  0  0
    4.4201    0.4590   -2.2813 H   0  0  0  0  0  0  0  0  0  0  0  0
  1  2  1  0
  2  3  1  0
  3  4  1  0
  4  5  1  0
  5  6  1  0
  6  7  1  0
  7  8  1  0
  8  9  1  0
  2 10  1  0
 10 11  1  0
 11 12  2  0
 11 13  1  0
 13 14  2  0
 14 15  1  0
 15 16  1  0
 16 17  2  0
 17 18  1  0
 18 19  2  0
 19 20  1  0
 19 21  1  0
 21 22  2  0
  9  5  1  0
 22 13  1  0
 22 16  1  0
  1 23  1  0
  1 24  1  0
  1 25  1  0
  2 26  1  0
  3 27  1  0
  3 28  1  0
  5 29  1  0
  6 30  1  0
  6 31  1  0
  7 32  1  0
  7 33  1  0
  9 34  1  0
  9 35  1  0
 10 36  1  0
 15 37  1  0
 17 38  1  0
 18 39  1  0
 21 40  1  0
M  END
$$$$
OCNT-2316696
     RDKit          3D

 48 51  0  0  0  0  0  0  0  0999 V2000
    4.0592    0.0334   -3.8155 C   0  0  0  0  0  0  0  0  0  0  0  0
    3.0969    0.3898   -2.8306 O   0  0  0  0  0  0  0  0  0  0  0  0
    3.3721    0.0290   -1.5405 C   0  0  0  0  0  0  0  0  0  0  0  0
    4.5203   -0.6151   -1.0969 C   0  0  0  0  0  0  0  0  0  0  0  0
    4.6709   -0.8944    0.2609 C   0  0  0  0  0  0  0  0  0  0  0  0
    3.6796   -0.5352    1.1817 C   0  0  0  0  0  0  0  0  0  0  0  0
    4.0003   -0.8128    2.4849 O   0  0  0  0  0  0  0  0  0  0  0  0
    3.7733    0.3025    3.3437 C   0  0  0  0  0  0  0  0  0  0  0  0
    2.4135    0.1802    4.0047 C   0  0  0  0  0  0  0  0  0  0  0  0
    1.3248   -0.3220    3.0591 C   0  0  0  0  0  0  0  0  0  0  0  0
    1.3079    0.3871    1.6900 C   0  0  0  0  0  0  0  0  0  0  0  0
    0.0049    0.0061    1.1106 N   0  0  0  0  0  0  0  0  0  0  0  0
   -0.8185    1.1559    0.7557 C   0  0  0  0  0  0  0  0  0  0  0  0
   -2.1030    0.7074    0.0988 C   0  0  0  0  0  0  0  0  0  0  0  0
   -2.3287    0.9373   -1.2640 C   0  0  0  0  0  0  0  0  0  0  0  0
   -3.5145    0.5107   -1.8683 C   0  0  0  0  0  0  0  0  0  0  0  0
   -4.4906   -0.1608   -1.1184 C   0  0  0  0  0  0  0  0  0  0  0  0
   -5.6834   -0.5910   -1.7544 N   0  0  0  0  0  0  0  0  0  0  0  0
   -6.7544   -1.2675   -1.2198 C   0  0  0  0  0  0  0  0  0  0  0  0
   -7.6709   -1.4836   -2.1364 N   0  0  0  0  0  0  0  0  0  0  0  0
   -7.1200   -0.9185   -3.2441 C   0  0  0  0  0  0  0  0  0  0  0  0
   -5.9210   -0.3628   -3.0721 N   0  0  0  0  0  0  0  0  0  0  0  0
   -4.2689   -0.3995    0.2436 C   0  0  0  0  0  0  0  0  0  0  0  0
   -3.0816    0.0331    0.8431 C   0  0  0  0  0  0  0  0  0  0  0  0
    2.4740    0.0474    0.7583 C   0  0  0  0  0  0  0  0  0  0  0  0
    2.3716    0.3581   -0.6170 C   0  0  0  0  0  0  0  0  0  0  0  0
    3.6867    0.3762   -4.7859 H   0  0  0  0  0  0  0  0  0  0  0  0
    4.1843   -1.0535   -3.8707 H   0  0  0  0  0  0  0  0  0  0  0  0
    5.0162    0.5330   -3.6317 H   0  0  0  0  0  0  0  0  0  0  0  0
    5.3205   -0.9003   -1.7702 H   0  0  0  0  0  0  0  0  0  0  0  0
    5.5793   -1.3777    0.6132 H   0  0  0  0  0  0  0  0  0  0  0  0
    3.8830    1.2608    2.8168 H   0  0  0  0  0  0  0  0  0  0  0  0
    4.5535    0.2910    4.1136 H   0  0  0  0  0  0  0  0  0  0  0  0
    2.4802   -0.5258    4.8416 H   0  0  0  0  0  0  0  0  0  0  0  0
    2.1323    1.1483    4.4354 H   0  0  0  0  0  0  0  0  0  0  0  0
    1.4301   -1.4077    2.9226 H   0  0  0  0  0  0  0  0  0  0  0  0
    0.3650   -0.1747    3.5746 H   0  0  0  0  0  0  0  0  0  0  0  0
    1.3509    1.4704    1.8696 H   0  0  0  0  0  0  0  0  0  0  0  0
    0.1358   -0.6024    0.3036 H   0  0  0  0  0  0  0  0  0  0  0  0
   -1.0738    1.7326    1.6536 H   0  0  0  0  0  0  0  0  0  0  0  0
   -0.2822    1.8367    0.0849 H   0  0  0  0  0  0  0  0  0  0  0  0
   -1.5825    1.4476   -1.8689 H   0  0  0  0  0  0  0  0  0  0  0  0
   -3.6590    0.7055   -2.9292 H   0  0  0  0  0  0  0  0  0  0  0  0
   -6.8172   -1.5718   -0.1870 H   0  0  0  0  0  0  0  0  0  0  0  0
   -7.6085   -0.9101   -4.2103 H   0  0  0  0  0  0  0  0  0  0  0  0
   -4.9861   -0.9209    0.8692 H   0  0  0  0  0  0  0  0  0  0  0  0
   -2.9092   -0.1686    1.8991 H   0  0  0  0  0  0  0  0  0  0  0  0
    1.4869    0.8599   -1.0010 H   0  0  0  0  0  0  0  0  0  0  0  0
  1  2  1  0
  2  3  1  0
  3  4  1  0
  4  5  2  0
  5  6  1  0
  6  7  1  0
  7  8  1  0
  8  9  1  0
  9 10  1  0
 10 11  1  0
 11 12  1  0
 12 13  1  0
 13 14  1  0
 14 15  1  0
 15 16  2  0
 16 17  1  0
 17 18  1  0
 18 19  1  0
 19 20  2  0
 20 21  1  0
 21 22  2  0
 17 23  2  0
 23 24  1  0
 11 25  1  0
 25 26  1  0
 26  3  2  0
 25  6  2  0
 24 14  2  0
 22 18  1  0
  1 27  1  0
  1 28  1  0
  1 29  1  0
  4 30  1  0
  5 31  1  0
  8 32  1  0
  8 33  1  0
  9 34  1  0
  9 35  1  0
 10 36  1  0
 10 37  1  0
 11 38  1  0
 12 39  1  0
 13 40  1  0
 13 41  1  0
 15 42  1  0
 16 43  1  0
 19 44  1  0
 21 45  1  0
 23 46  1  0
 24 47  1  0
 26 48  1  0
M  END
$$$$
OCNT-2316700
     RDKit          3D

 37 39  0  0  0  0  0  0  0  0999 V2000
    7.4081   -1.5043    0.0171 C   0  0  0  0  0  0  0  0  0  0  0  0
    6.1470   -1.0286   -0.6609 C   0  0  0  0  0  0  0  0  0  0  0  0
    6.1098   -0.8738   -1.8759 O   0  0  0  0  0  0  0  0  0  0  0  0
    5.1082   -0.8438    0.2344 N   0  0  0  0  0  0  0  0  0  0  0  0
    3.8009   -0.3983   -0.0496 C   0  0  0  0  0  0  0  0  0  0  0  0
    2.9027   -0.3258    1.0247 C   0  0  0  0  0  0  0  0  0  0  0  0
    1.5853    0.1057    0.8311 C   0  0  0  0  0  0  0  0  0  0  0  0
    1.1516    0.4669   -0.4485 C   0  0  0  0  0  0  0  0  0  0  0  0
   -0.2391    0.9374   -0.6997 C   0  0  0  0  0  0  0  0  0  0  0  0
   -0.4099    1.8347   -1.5147 O   0  0  0  0  0  0  0  0  0  0  0  0
   -1.2142    0.2616    0.0124 N   0  0  0  0  0  0  0  0  0  0  0  0
   -2.6044    0.5119    0.0129 C   0  0  0  0  0  0  0  0  0  0  0  0
   -3.2006    1.6011   -0.6668 C   0  0  0  0  0  0  0  0  0  0  0  0
   -4.5865    1.8199   -0.6363 C   0  0  0  0  0  0  0  0  0  0  0  0
   -5.3373    0.9289    0.0869 C   0  0  0  0  0  0  0  0  0  0  0  0
   -6.7098    0.8849    0.3005 N   0  0  0  0  0  0  0  0  0  0  0  0
   -7.0037   -0.2194    1.1127 C   0  0  0  0  0  0  0  0  0  0  0  0
   -8.1039   -0.5667    1.5021 O   0  0  0  0  0  0  0  0  0  0  0  0
   -5.7812   -0.8488    1.3920 N   0  0  0  0  0  0  0  0  0  0  0  0
   -4.7618   -0.1428    0.7616 C   0  0  0  0  0  0  0  0  0  0  0  0
   -3.4061   -0.3788    0.7471 C   0  0  0  0  0  0  0  0  0  0  0  0
    2.0484    0.4181   -1.5189 C   0  0  0  0  0  0  0  0  0  0  0  0
    3.3636   -0.0191   -1.3203 C   0  0  0  0  0  0  0  0  0  0  0  0
    7.3710   -2.5911    0.1286 H   0  0  0  0  0  0  0  0  0  0  0  0
    7.5254   -1.0374    0.9993 H   0  0  0  0  0  0  0  0  0  0  0  0
    8.2735   -1.2301   -0.5930 H   0  0  0  0  0  0  0  0  0  0  0  0
    5.3021   -1.0655    1.2027 H   0  0  0  0  0  0  0  0  0  0  0  0
    3.2177   -0.5950    2.0301 H   0  0  0  0  0  0  0  0  0  0  0  0
    0.9244    0.1849    1.6901 H   0  0  0  0  0  0  0  0  0  0  0  0
   -0.9136   -0.5501    0.5361 H   0  0  0  0  0  0  0  0  0  0  0  0
   -2.5979    2.3068   -1.2325 H   0  0  0  0  0  0  0  0  0  0  0  0
   -5.0302    2.6565   -1.1620 H   0  0  0  0  0  0  0  0  0  0  0  0
   -7.4040    1.5213   -0.0552 H   0  0  0  0  0  0  0  0  0  0  0  0
   -5.6985   -1.6768    1.9580 H   0  0  0  0  0  0  0  0  0  0  0  0
   -2.9888   -1.2227    1.2817 H   0  0  0  0  0  0  0  0  0  0  0  0
    1.7294    0.7195   -2.5153 H   0  0  0  0  0  0  0  0  0  0  0  0
    4.0226   -0.0412   -2.1833 H   0  0  0  0  0  0  0  0  0  0  0  0
  1  2  1  0
  2  3  2  0
  2  4  1  0
  4  5  1  0
  5  6  1  0
  6  7  2  0
  7  8  1  0
  8  9  1  0
  9 10  2  0
  9 11  1  0
 11 12  1  0
 12 13  1  0
 13 14  2  0
 14 15  1  0
 15 16  1  0
 16 17  1  0
 17 18  2  0
 17 19  1  0
 19 20  1  0
 20 21  1  0
  8 22  2  0
 22 23  1  0
 23  5  2  0
 21 12  2  0
 20 15  2  0
  1 24  1  0
  1 25  1  0
  1 26  1  0
  4 27  1  0
  6 28  1  0
  7 29  1  0
 11 30  1  0
 13 31  1  0
 14 32  1  0
 16 33  1  0
 19 34  1  0
 21 35  1  0
 22 36  1  0
 23 37  1  0
M  END
$$$$
OCNT-2316703
     RDKit          3D

 45 49  0  0  0  0  0  0  0  0999 V2000
   -1.8830   -2.9172    0.0398 F   0  0  0  0  0  0  0  0  0  0  0  0
   -3.1371   -2.5094   -0.1968 C   0  0  0  0  0  0  0  0  0  0  0  0
   -4.0776   -3.5080   -0.4604 C   0  0  0  0  0  0  0  0  0  0  0  0
   -5.4074   -3.1726   -0.6992 C   0  0  0  0  0  0  0  0  0  0  0  0
   -5.7860   -1.8341   -0.6741 C   0  0  0  0  0  0  0  0  0  0  0  0
   -7.4264   -1.4088   -0.9766 Cl  0  0  0  0  0  0  0  0  0  0  0  0
   -4.8500   -0.8282   -0.4106 C   0  0  0  0  0  0  0  0  0  0  0  0
   -3.5076   -1.1566   -0.1642 C   0  0  0  0  0  0  0  0  0  0  0  0
   -2.5415   -0.1473    0.1013 N   0  0  0  0  0  0  0  0  0  0  0  0
   -1.2099   -0.4443    0.1799 N   0  0  0  0  0  0  0  0  0  0  0  0
   -0.5713    0.7178    0.4001 C   0  0  0  0  0  0  0  0  0  0  0  0
    0.9868    0.8466    0.5480 C   0  0  0  0  0  0  0  0  0  0  0  0
    1.8380   -0.1537    0.4767 N   0  0  0  0  0  0  0  0  0  0  0  0
    3.0524    0.4475    0.6586 C   0  0  0  0  0  0  0  0  0  0  0  0
    4.1793   -0.3143    0.6504 N   0  0  0  0  0  0  0  0  0  0  0  0
    5.4618    0.3496    0.3688 C   0  0  0  0  0  0  0  0  0  0  0  0
    5.7321    0.3686   -1.1552 C   0  0  0  0  0  0  0  0  0  0  0  0
    5.6811   -0.9740   -1.7794 N   0  0  0  0  0  0  0  0  0  0  0  0
    4.3874   -1.6178   -1.4455 C   0  0  0  0  0  0  0  0  0  0  0  0
    4.1061   -1.6681    0.0749 C   0  0  0  0  0  0  0  0  0  0  0  0
    2.9765    1.7743    0.8341 N   0  0  0  0  0  0  0  0  0  0  0  0
    1.6153    2.0429    0.7640 O   0  0  0  0  0  0  0  0  0  0  0  0
   -1.4818    1.7650    0.4778 C   0  0  0  0  0  0  0  0  0  0  0  0
   -2.7118    1.1995    0.2966 C   0  0  0  0  0  0  0  0  0  0  0  0
   -3.8256    2.1624    0.3842 C   0  0  0  0  0  0  0  0  0  0  0  0
   -3.0844    3.4215    0.9532 C   0  0  0  0  0  0  0  0  0  0  0  0
   -1.5542    3.2179    0.6962 C   0  0  0  0  0  0  0  0  0  0  0  0
   -3.7575   -4.5462   -0.4736 H   0  0  0  0  0  0  0  0  0  0  0  0
   -6.1353   -3.9530   -0.9041 H   0  0  0  0  0  0  0  0  0  0  0  0
   -5.1988    0.1963   -0.4270 H   0  0  0  0  0  0  0  0  0  0  0  0
    6.2617   -0.2110    0.8696 H   0  0  0  0  0  0  0  0  0  0  0  0
    5.5042    1.3673    0.7744 H   0  0  0  0  0  0  0  0  0  0  0  0
    6.7225    0.7989   -1.3396 H   0  0  0  0  0  0  0  0  0  0  0  0
    5.0059    1.0198   -1.6569 H   0  0  0  0  0  0  0  0  0  0  0  0
    6.4254   -1.5396   -1.3708 H   0  0  0  0  0  0  0  0  0  0  0  0
    3.5809   -1.0821   -1.9609 H   0  0  0  0  0  0  0  0  0  0  0  0
    4.3959   -2.6380   -1.8445 H   0  0  0  0  0  0  0  0  0  0  0  0
    4.8674   -2.2925    0.5605 H   0  0  0  0  0  0  0  0  0  0  0  0
    3.1463   -2.1603    0.2702 H   0  0  0  0  0  0  0  0  0  0  0  0
   -4.6223    1.8518    1.0649 H   0  0  0  0  0  0  0  0  0  0  0  0
   -4.2378    2.3835   -0.6052 H   0  0  0  0  0  0  0  0  0  0  0  0
   -3.2586    3.4764    2.0360 H   0  0  0  0  0  0  0  0  0  0  0  0
   -3.4570    4.3528    0.5150 H   0  0  0  0  0  0  0  0  0  0  0  0
   -1.2413    3.7626   -0.2004 H   0  0  0  0  0  0  0  0  0  0  0  0
   -0.9626    3.5541    1.5520 H   0  0  0  0  0  0  0  0  0  0  0  0
  1  2  1  0
  2  3  1  0
  3  4  2  0
  4  5  1  0
  5  6  1  0
  5  7  2  0
  7  8  1  0
  8  9  1  0
  9 10  1  0
 10 11  2  0
 11 12  1  0
 12 13  2  0
 13 14  1  0
 14 15  1  0
 15 16  1  0
 16 17  1  0
 17 18  1  0
 18 19  1  0
 19 20  1  0
 14 21  2  0
 21 22  1  0
 11 23  1  0
 23 24  2  0
 24 25  1  0
 25 26  1  0
 26 27  1  0
  8  2  2  0
 24  9  1  0
 22 12  1  0
 27 23  1  0
 20 15  1  0
  3 28  1  0
  4 29  1  0
  7 30  1  0
 16 31  1  0
 16 32  1  0
 17 33  1  0
 17 34  1  0
 18 35  1  0
 19 36  1  0
 19 37  1  0
 20 38  1  0
 20 39  1  0
 25 40  1  0
 25 41  1  0
 26 42  1  0
 26 43  1  0
 27 44  1  0
 27 45  1  0
M  END
$$$$
OCNT-2316705
     RDKit          3D

 38 41  0  0  0  0  0  0  0  0999 V2000
   -1.8226   -0.1021    3.0263 O   0  0  0  0  0  0  0  0  0  0  0  0
   -2.2746    0.2624    1.9550 C   0  0  0  0  0  0  0  0  0  0  0  0
   -3.5348   -0.0536    1.5028 N   0  0  0  0  0  0  0  0  0  0  0  0
   -3.7676    0.4312    0.1587 C   0  0  0  0  0  0  0  0  0  0  0  0
   -3.9147   -0.7007   -0.8523 C   0  0  0  0  0  0  0  0  0  0  0  0
   -5.3145   -1.2674   -0.6772 C   0  0  0  0  0  0  0  0  0  0  0  0
   -6.3718    0.1525   -0.2682 S   0  0  0  0  0  0  0  0  0  0  0  0
   -4.9984    1.3144    0.0256 C   0  0  0  0  0  0  0  0  0  0  0  0
   -2.4732    1.2166   -0.0676 C   0  0  0  0  0  0  0  0  0  0  0  0
   -2.2100    1.8762   -1.0636 O   0  0  0  0  0  0  0  0  0  0  0  0
   -1.6672    1.0399    1.0208 N   0  0  0  0  0  0  0  0  0  0  0  0
   -0.2969    1.4841    1.1038 C   0  0  0  0  0  0  0  0  0  0  0  0
    0.6060    0.4563    0.5070 C   0  0  0  0  0  0  0  0  0  0  0  0
    0.3074   -0.6603   -0.1323 N   0  0  0  0  0  0  0  0  0  0  0  0
    1.5333   -1.1900   -0.4487 C   0  0  0  0  0  0  0  0  0  0  0  0
    2.5460   -0.3731    0.0067 C   0  0  0  0  0  0  0  0  0  0  0  0
    4.0025   -0.3971   -0.0262 C   0  0  0  0  0  0  0  0  0  0  0  0
    4.6829   -1.4545   -0.6515 C   0  0  0  0  0  0  0  0  0  0  0  0
    6.0804   -1.4880   -0.6900 C   0  0  0  0  0  0  0  0  0  0  0  0
    6.8192   -0.4636   -0.1031 C   0  0  0  0  0  0  0  0  0  0  0  0
    6.1556    0.5897    0.5198 C   0  0  0  0  0  0  0  0  0  0  0  0
    7.1544    1.9834    1.3174 Br  0  0  0  0  0  0  0  0  0  0  0  0
    4.7605    0.6277    0.5610 C   0  0  0  0  0  0  0  0  0  0  0  0
    1.9488    0.6955    0.6255 O   0  0  0  0  0  0  0  0  0  0  0  0
   -4.1492   -0.6546    2.0386 H   0  0  0  0  0  0  0  0  0  0  0  0
   -3.1595   -1.4842   -0.7181 H   0  0  0  0  0  0  0  0  0  0  0  0
   -3.7937   -0.3200   -1.8754 H   0  0  0  0  0  0  0  0  0  0  0  0
   -5.6665   -1.7685   -1.5830 H   0  0  0  0  0  0  0  0  0  0  0  0
   -5.3506   -1.9812    0.1515 H   0  0  0  0  0  0  0  0  0  0  0  0
   -5.1942    1.9109    0.9220 H   0  0  0  0  0  0  0  0  0  0  0  0
   -4.9314    1.9905   -0.8329 H   0  0  0  0  0  0  0  0  0  0  0  0
   -0.1889    2.4267    0.5573 H   0  0  0  0  0  0  0  0  0  0  0  0
   -0.0309    1.6444    2.1538 H   0  0  0  0  0  0  0  0  0  0  0  0
    1.6188   -2.1246   -0.9846 H   0  0  0  0  0  0  0  0  0  0  0  0
    4.1353   -2.2697   -1.1193 H   0  0  0  0  0  0  0  0  0  0  0  0
    6.5909   -2.3147   -1.1785 H   0  0  0  0  0  0  0  0  0  0  0  0
    7.9050   -0.4951   -0.1363 H   0  0  0  0  0  0  0  0  0  0  0  0
    4.2644    1.4607    1.0538 H   0  0  0  0  0  0  0  0  0  0  0  0
  1  2  2  0
  2  3  1  0
  3  4  1  0
  4  5  1  0
  5  6  1  0
  6  7  1  0
  7  8  1  0
  4  9  1  0
  9 10  2  0
  9 11  1  0
 11 12  1  0
 12 13  1  0
 13 14  2  0
 14 15  1  0
 15 16  2  0
 16 17  1  0
 17 18  2  0
 18 19  1  0
 19 20  2  0
 20 21  1  0
 21 22  1  0
 21 23  2  0
 16 24  1  0
 11  2  1  0
 24 13  1  0
  8  4  1  0
 23 17  1  0
  3 25  1  0
  5 26  1  0
  5 27  1  0
  6 28  1  0
  6 29  1  0
  8 30  1  0
  8 31  1  0
 12 32  1  0
 12 33  1  0
 15 34  1  0
 18 35  1  0
 19 36  1  0
 20 37  1  0
 23 38  1  0
M  END
$$$$
OCNT-2316709
     RDKit          3D

 48 52  0  0  0  0  0  0  0  0999 V2000
    1.0704    0.9869   -1.1765 O   0  0  0  0  0  0  0  0  0  0  0  0
    0.9296    0.7417    0.0207 C   0  0  0  0  0  0  0  0  0  0  0  0
    2.0788    0.8435    1.0289 C   0  0  0  0  0  0  0  0  0  0  0  0
    2.3042   -0.5058    1.7674 C   0  0  0  0  0  0  0  0  0  0  0  0
    2.8259   -1.6269    0.8421 C   0  0  0  0  0  0  0  0  0  0  0  0
    3.9251   -1.1166   -0.0098 C   0  0  0  0  0  0  0  0  0  0  0  0
    4.1441    0.2232   -0.2273 C   0  0  0  0  0  0  0  0  0  0  0  0
    3.3804    1.3564    0.3546 C   0  0  0  0  0  0  0  0  0  0  0  0
    5.1962    0.3095   -1.0864 N   0  0  0  0  0  0  0  0  0  0  0  0
    5.7075   -0.8948   -1.4091 N   0  0  0  0  0  0  0  0  0  0  0  0
    4.9159   -1.7624   -0.7677 C   0  0  0  0  0  0  0  0  0  0  0  0
   -0.2876    0.3731    0.5491 N   0  0  0  0  0  0  0  0  0  0  0  0
   -0.9023    0.7584    1.8211 C   0  0  0  0  0  0  0  0  0  0  0  0
   -2.1369    1.0495    1.0164 C   0  0  0  0  0  0  0  0  0  0  0  0
   -2.5455    2.5018    0.8357 C   0  0  0  0  0  0  0  0  0  0  0  0
   -4.0096    1.9995    0.8723 C   0  0  0  0  0  0  0  0  0  0  0  0
   -3.4979    0.7195    1.5795 C   0  0  0  0  0  0  0  0  0  0  0  0
   -1.5708    0.3296   -0.1921 C   0  0  0  0  0  0  0  0  0  0  0  0
   -1.9869   -1.1220   -0.4770 C   0  0  0  0  0  0  0  0  0  0  0  0
   -3.1610   -1.1832   -1.4414 C   0  0  0  0  0  0  0  0  0  0  0  0
   -2.4811   -1.2100   -2.7892 C   0  0  0  0  0  0  0  0  0  0  0  0
   -1.2331   -2.0166   -2.5073 C   0  0  0  0  0  0  0  0  0  0  0  0
   -0.9079   -1.8248   -1.1251 O   0  0  0  0  0  0  0  0  0  0  0  0
    1.7815    1.6044    1.7614 H   0  0  0  0  0  0  0  0  0  0  0  0
    1.3896   -0.8520    2.2597 H   0  0  0  0  0  0  0  0  0  0  0  0
    3.0387   -0.3371    2.5668 H   0  0  0  0  0  0  0  0  0  0  0  0
    2.0116   -1.9894    0.2038 H   0  0  0  0  0  0  0  0  0  0  0  0
    3.1696   -2.4721    1.4487 H   0  0  0  0  0  0  0  0  0  0  0  0
    3.1699    2.1175   -0.4048 H   0  0  0  0  0  0  0  0  0  0  0  0
    4.0075    1.8307    1.1204 H   0  0  0  0  0  0  0  0  0  0  0  0
    5.6220    1.1385   -1.4869 H   0  0  0  0  0  0  0  0  0  0  0  0
    5.0984   -2.8229   -0.8825 H   0  0  0  0  0  0  0  0  0  0  0  0
   -0.4406    1.6162    2.3150 H   0  0  0  0  0  0  0  0  0  0  0  0
   -0.9717   -0.0844    2.5148 H   0  0  0  0  0  0  0  0  0  0  0  0
   -2.2926    3.1538    1.6800 H   0  0  0  0  0  0  0  0  0  0  0  0
   -2.2447    2.9961   -0.0919 H   0  0  0  0  0  0  0  0  0  0  0  0
   -4.4344    1.8145   -0.1208 H   0  0  0  0  0  0  0  0  0  0  0  0
   -4.7068    2.6126    1.4491 H   0  0  0  0  0  0  0  0  0  0  0  0
   -3.5554    0.7810    2.6730 H   0  0  0  0  0  0  0  0  0  0  0  0
   -3.9771   -0.2087    1.2617 H   0  0  0  0  0  0  0  0  0  0  0  0
   -1.5299    0.9439   -1.1002 H   0  0  0  0  0  0  0  0  0  0  0  0
   -2.2104   -1.6511    0.4559 H   0  0  0  0  0  0  0  0  0  0  0  0
   -3.7046   -2.1249   -1.2972 H   0  0  0  0  0  0  0  0  0  0  0  0
   -3.8726   -0.3602   -1.3375 H   0  0  0  0  0  0  0  0  0  0  0  0
   -2.2092   -0.1931   -3.0947 H   0  0  0  0  0  0  0  0  0  0  0  0
   -3.0971   -1.6442   -3.5812 H   0  0  0  0  0  0  0  0  0  0  0  0
   -0.3874   -1.7123   -3.1303 H   0  0  0  0  0  0  0  0  0  0  0  0
   -1.4114   -3.0860   -2.6611 H   0  0  0  0  0  0  0  0  0  0  0  0
  1  2  2  0
  2  3  1  0
  3  4  1  0
  4  5  1  0
  5  6  1  0
  6  7  2  0
  7  8  1  0
  7  9  1  0
  9 10  1  0
 10 11  2  0
  2 12  1  0
 12 13  1  0
 13 14  1  0
 14 15  1  0
 15 16  1  0
 16 17  1  0
 14 18  1  0
 18 19  1  0
 19 20  1  0
 20 21  1  0
 21 22  1  0
 22 23  1  0
  8  3  1  0
 18 12  1  0
 23 19  1  0
 11  6  1  0
 17 14  1  0
  3 24  1  0
  4 25  1  0
  4 26  1  0
  5 27  1  0
  5 28  1  0
  8 29  1  0
  8 30  1  0
  9 31  1  0
 11 32  1  0
 13 33  1  0
 13 34  1  0
 15 35  1  0
 15 36  1  0
 16 37  1  0
 16 38  1  0
 17 39  1  0
 17 40  1  0
 18 41  1  0
 19 42  1  0
 20 43  1  0
 20 44  1  0
 21 45  1  0
 21 46  1  0
 22 47  1  0
 22 48  1  0
M  END
$$$$
OCNT-2316721
     RDKit          3D

 50 53  0  0  0  0  0  0  0  0999 V2000
    1.7344   -2.3791   -2.5359 C   0  0  0  0  0  0  0  0  0  0  0  0
    1.3599   -2.0971   -1.1846 O   0  0  0  0  0  0  0  0  0  0  0  0
    2.4134   -1.5786   -0.4625 C   0  0  0  0  0  0  0  0  0  0  0  0
    3.5866   -2.3171   -0.2737 C   0  0  0  0  0  0  0  0  0  0  0  0
    4.6313   -1.7667    0.4921 C   0  0  0  0  0  0  0  0  0  0  0  0
    4.4550   -0.5063    1.0665 C   0  0  0  0  0  0  0  0  0  0  0  0
    3.2723    0.2367    0.8977 C   0  0  0  0  0  0  0  0  0  0  0  0
    2.2452   -0.3143    0.1238 C   0  0  0  0  0  0  0  0  0  0  0  0
    1.0085    0.3316   -0.0894 N   0  0  0  0  0  0  0  0  0  0  0  0
    0.6903    1.6463    0.1484 C   0  0  0  0  0  0  0  0  0  0  0  0
    1.5028    2.5107    0.4712 O   0  0  0  0  0  0  0  0  0  0  0  0
   -0.6575    1.9506   -0.0328 N   0  0  0  0  0  0  0  0  0  0  0  0
   -1.0535    3.3567    0.0015 C   0  0  0  0  0  0  0  0  0  0  0  0
   -2.3113    3.6060   -0.8214 C   0  0  0  0  0  0  0  0  0  0  0  0
   -3.4977    2.7609   -0.3501 C   0  0  0  0  0  0  0  0  0  0  0  0
   -3.0696    1.4828    0.3932 C   0  0  0  0  0  0  0  0  0  0  0  0
   -4.1635    0.4379    0.3481 C   0  0  0  0  0  0  0  0  0  0  0  0
   -5.1594    0.4300    1.3051 C   0  0  0  0  0  0  0  0  0  0  0  0
   -6.1222   -0.5406    1.1635 C   0  0  0  0  0  0  0  0  0  0  0  0
   -6.1294   -1.4384    0.1625 N   0  0  0  0  0  0  0  0  0  0  0  0
   -5.1417   -1.3396   -0.7276 C   0  0  0  0  0  0  0  0  0  0  0  0
   -5.1082   -2.2674   -1.7492 N   0  0  0  0  0  0  0  0  0  0  0  0
   -4.1460   -0.4481   -0.6722 N   0  0  0  0  0  0  0  0  0  0  0  0
   -1.7332    0.9544   -0.1483 C   0  0  0  0  0  0  0  0  0  0  0  0
    5.8710   -0.0963    1.9564 S   0  0  0  0  0  0  0  0  0  0  0  0
    6.5855   -1.5910    1.5089 C   0  0  0  0  0  0  0  0  0  0  0  0
    7.9521   -1.9316    1.9873 C   0  0  0  0  0  0  0  0  0  0  0  0
    5.8502   -2.3736    0.7507 N   0  0  0  0  0  0  0  0  0  0  0  0
    2.4066   -3.2465   -2.5988 H   0  0  0  0  0  0  0  0  0  0  0  0
    0.8185   -2.6263   -3.0849 H   0  0  0  0  0  0  0  0  0  0  0  0
    2.1901   -1.4983   -3.0138 H   0  0  0  0  0  0  0  0  0  0  0  0
    3.7081   -3.3115   -0.6858 H   0  0  0  0  0  0  0  0  0  0  0  0
    3.1764    1.2039    1.3777 H   0  0  0  0  0  0  0  0  0  0  0  0
    0.3632   -0.2002   -0.6590 H   0  0  0  0  0  0  0  0  0  0  0  0
   -1.2181    3.6294    1.0512 H   0  0  0  0  0  0  0  0  0  0  0  0
   -0.2374    3.9822   -0.3760 H   0  0  0  0  0  0  0  0  0  0  0  0
   -2.5776    4.6685   -0.7981 H   0  0  0  0  0  0  0  0  0  0  0  0
   -2.0996    3.3608   -1.8702 H   0  0  0  0  0  0  0  0  0  0  0  0
   -4.1305    3.3601    0.3180 H   0  0  0  0  0  0  0  0  0  0  0  0
   -4.1230    2.5243   -1.2229 H   0  0  0  0  0  0  0  0  0  0  0  0
   -2.9022    1.7495    1.4480 H   0  0  0  0  0  0  0  0  0  0  0  0
   -5.1903    1.1378    2.1228 H   0  0  0  0  0  0  0  0  0  0  0  0
   -6.9415   -0.6293    1.8704 H   0  0  0  0  0  0  0  0  0  0  0  0
   -5.6208   -3.0892   -1.4563 H   0  0  0  0  0  0  0  0  0  0  0  0
   -4.1511   -2.4065   -2.0411 H   0  0  0  0  0  0  0  0  0  0  0  0
   -1.4491    0.0416    0.3880 H   0  0  0  0  0  0  0  0  0  0  0  0
   -1.8107    0.7047   -1.2143 H   0  0  0  0  0  0  0  0  0  0  0  0
    8.6841   -1.2107    1.6103 H   0  0  0  0  0  0  0  0  0  0  0  0
    8.2458   -2.9284    1.6391 H   0  0  0  0  0  0  0  0  0  0  0  0
    7.9936   -1.9344    3.0812 H   0  0  0  0  0  0  0  0  0  0  0  0
  1  2  1  0
  2  3  1  0
  3  4  1  0
  4  5  2  0
  5  6  1  0
  6  7  2  0
  7  8  1  0
  8  9  1  0
  9 10  1  0
 10 11  2  0
 10 12  1  0
 12 13  1  0
 13 14  1  0
 14 15  1  0
 15 16  1  0
 16 17  1  0
 17 18  1  0
 18 19  2  0
 19 20  1  0
 20 21  2  0
 21 22  1  0
 21 23  1  0
 16 24  1  0
  6 25  1  0
 25 26  1  0
 26 27  1  0
 26 28  2  0
  8  3  2  0
 24 12  1  0
 28  5  1  0
 23 17  2  0
  1 29  1  0
  1 30  1  0
  1 31  1  0
  4 32  1  0
  7 33  1  0
  9 34  1  0
 13 35  1  0
 13 36  1  0
 14 37  1  0
 14 38  1  0
 15 39  1  0
 15 40  1  0
 16 41  1  0
 18 42  1  0
 19 43  1  0
 22 44  1  0
 22 45  1  0
 24 46  1  0
 24 47  1  0
 27 48  1  0
 27 49  1  0
 27 50  1  0
M  END
$$$$
OCNT-2316726
     RDKit          3D

 36 38  0  0  0  0  0  0  0  0999 V2000
    5.8584   -1.6014   -1.6228 O   0  0  0  0  0  0  0  0  0  0  0  0
    5.7762   -2.0274   -0.4833 C   0  0  0  0  0  0  0  0  0  0  0  0
    6.3477   -3.2146   -0.1741 O   0  0  0  0  0  0  0  0  0  0  0  0
    5.1550   -1.3752    0.7163 C   0  0  0  0  0  0  0  0  0  0  0  0
    4.2924   -0.2681    0.3520 N   0  0  0  0  0  0  0  0  0  0  0  0
    4.6779    1.0063    0.0546 C   0  0  0  0  0  0  0  0  0  0  0  0
    3.5145    1.7094   -0.1531 C   0  0  0  0  0  0  0  0  0  0  0  0
    2.4734    0.7814    0.0666 C   0  0  0  0  0  0  0  0  0  0  0  0
    1.1187    0.9581   -0.0053 N   0  0  0  0  0  0  0  0  0  0  0  0
    0.4651    2.1226   -0.3205 C   0  0  0  0  0  0  0  0  0  0  0  0
    0.9860    3.2021   -0.5828 O   0  0  0  0  0  0  0  0  0  0  0  0
   -0.9994    1.9545   -0.3136 C   0  0  0  0  0  0  0  0  0  0  0  0
   -1.5824    0.7762   -0.0197 N   0  0  0  0  0  0  0  0  0  0  0  0
   -2.9192    1.0045   -0.1146 N   0  0  0  0  0  0  0  0  0  0  0  0
   -3.8530   -0.0406    0.1342 C   0  0  0  0  0  0  0  0  0  0  0  0
   -5.2366    0.1798    0.0404 C   0  0  0  0  0  0  0  0  0  0  0  0
   -6.1341   -0.8648    0.2902 C   0  0  0  0  0  0  0  0  0  0  0  0
   -5.6579   -2.1285    0.6332 C   0  0  0  0  0  0  0  0  0  0  0  0
   -4.2881   -2.3419    0.7247 C   0  0  0  0  0  0  0  0  0  0  0  0
   -3.8336   -3.5579    1.0548 F   0  0  0  0  0  0  0  0  0  0  0  0
   -3.3818   -1.3159    0.4799 C   0  0  0  0  0  0  0  0  0  0  0  0
   -3.1801    2.3108   -0.4625 C   0  0  0  0  0  0  0  0  0  0  0  0
   -1.9683    2.9431   -0.5966 C   0  0  0  0  0  0  0  0  0  0  0  0
    2.9538   -0.4213    0.3952 N   0  0  0  0  0  0  0  0  0  0  0  0
    6.7117   -3.5334   -1.0283 H   0  0  0  0  0  0  0  0  0  0  0  0
    5.9415   -0.9849    1.3694 H   0  0  0  0  0  0  0  0  0  0  0  0
    4.5504   -2.1055    1.2639 H   0  0  0  0  0  0  0  0  0  0  0  0
    5.7173    1.2983   -0.0009 H   0  0  0  0  0  0  0  0  0  0  0  0
    3.4345    2.7523   -0.4253 H   0  0  0  0  0  0  0  0  0  0  0  0
    0.5544    0.1401    0.1909 H   0  0  0  0  0  0  0  0  0  0  0  0
   -5.6518    1.1478   -0.2238 H   0  0  0  0  0  0  0  0  0  0  0  0
   -7.2053   -0.6913    0.2168 H   0  0  0  0  0  0  0  0  0  0  0  0
   -6.3430   -2.9472    0.8294 H   0  0  0  0  0  0  0  0  0  0  0  0
   -2.3206   -1.5332    0.5642 H   0  0  0  0  0  0  0  0  0  0  0  0
   -4.1826    2.6891   -0.5874 H   0  0  0  0  0  0  0  0  0  0  0  0
   -1.7911    3.9766   -0.8626 H   0  0  0  0  0  0  0  0  0  0  0  0
  1  2  2  0
  2  3  1  0
  2  4  1  0
  4  5  1  0
  5  6  1  0
  6  7  2  0
  7  8  1  0
  8  9  1  0
  9 10  1  0
 10 11  2  0
 10 12  1  0
 12 13  2  0
 13 14  1  0
 14 15  1  0
 15 16  2  0
 16 17  1  0
 17 18  2  0
 18 19  1  0
 19 20  1  0
 19 21  2  0
 14 22  1  0
 22 23  2  0
  8 24  2  0
 24  5  1  0
 23 12  1  0
 21 15  1  0
  3 25  1  0
  4 26  1  0
  4 27  1  0
  6 28  1  0
  7 29  1  0
  9 30  1  0
 16 31  1  0
 17 32  1  0
 18 33  1  0
 21 34  1  0
 22 35  1  0
 23 36  1  0
M  END
$$$$
OCNT-2316738
     RDKit          3D

 45 48  0  0  0  0  0  0  0  0999 V2000
   -6.1287    2.7720    1.4661 C   0  0  0  0  0  0  0  0  0  0  0  0
   -6.0199    1.4293    1.0122 O   0  0  0  0  0  0  0  0  0  0  0  0
   -4.7631    0.9496    0.7229 C   0  0  0  0  0  0  0  0  0  0  0  0
   -3.5963    1.6864    0.9063 C   0  0  0  0  0  0  0  0  0  0  0  0
   -2.3555    1.1323    0.5966 C   0  0  0  0  0  0  0  0  0  0  0  0
   -2.2452   -0.1667    0.0915 C   0  0  0  0  0  0  0  0  0  0  0  0
   -0.9735   -0.7273   -0.2048 N   0  0  0  0  0  0  0  0  0  0  0  0
    0.2642   -0.0986   -0.2341 C   0  0  0  0  0  0  0  0  0  0  0  0
    0.4532    1.1028   -0.0878 O   0  0  0  0  0  0  0  0  0  0  0  0
    1.2655   -1.0198   -0.4656 N   0  0  0  0  0  0  0  0  0  0  0  0
    2.6028   -0.7359   -0.5951 C   0  0  0  0  0  0  0  0  0  0  0  0
    3.4542   -1.7565   -0.7458 N   0  0  0  0  0  0  0  0  0  0  0  0
    4.6600   -1.1633   -0.8556 N   0  0  0  0  0  0  0  0  0  0  0  0
    5.8370   -1.9750   -1.0436 C   0  0  0  0  0  0  0  0  0  0  0  0
    4.6001    0.1949   -0.7557 C   0  0  0  0  0  0  0  0  0  0  0  0
    5.7737    1.1999   -0.8284 C   0  0  0  0  0  0  0  0  0  0  0  0
    6.8414    1.1481    0.2321 C   0  0  0  0  0  0  0  0  0  0  0  0
    5.8714    2.2915    0.2040 C   0  0  0  0  0  0  0  0  0  0  0  0
    3.2708    0.5076   -0.6051 C   0  0  0  0  0  0  0  0  0  0  0  0
   -3.4289   -0.9488   -0.1021 C   0  0  0  0  0  0  0  0  0  0  0  0
   -3.4349   -2.2790   -0.6076 C   0  0  0  0  0  0  0  0  0  0  0  0
   -4.6123   -3.0106   -0.7853 C   0  0  0  0  0  0  0  0  0  0  0  0
   -5.8302   -2.4400   -0.4647 C   0  0  0  0  0  0  0  0  0  0  0  0
   -5.8661   -1.1392    0.0308 C   0  0  0  0  0  0  0  0  0  0  0  0
   -4.6924   -0.3730    0.2207 C   0  0  0  0  0  0  0  0  0  0  0  0
   -5.7591    3.4752    0.7127 H   0  0  0  0  0  0  0  0  0  0  0  0
   -5.6152    2.9084    2.4232 H   0  0  0  0  0  0  0  0  0  0  0  0
   -7.1897    2.9849    1.6272 H   0  0  0  0  0  0  0  0  0  0  0  0
   -3.6067    2.6991    1.2947 H   0  0  0  0  0  0  0  0  0  0  0  0
   -1.4830    1.7515    0.7791 H   0  0  0  0  0  0  0  0  0  0  0  0
   -0.9647   -1.6762   -0.5326 H   0  0  0  0  0  0  0  0  0  0  0  0
    1.0789   -2.0078   -0.4515 H   0  0  0  0  0  0  0  0  0  0  0  0
    5.5634   -2.8791   -1.5934 H   0  0  0  0  0  0  0  0  0  0  0  0
    6.2314   -2.2342   -0.0584 H   0  0  0  0  0  0  0  0  0  0  0  0
    6.5776   -1.4128   -1.6167 H   0  0  0  0  0  0  0  0  0  0  0  0
    6.0858    1.4536   -1.8372 H   0  0  0  0  0  0  0  0  0  0  0  0
    6.7460    0.4349    1.0426 H   0  0  0  0  0  0  0  0  0  0  0  0
    7.8641    1.3454   -0.0680 H   0  0  0  0  0  0  0  0  0  0  0  0
    5.1260    2.3404    0.9898 H   0  0  0  0  0  0  0  0  0  0  0  0
    6.2331    3.2603   -0.1194 H   0  0  0  0  0  0  0  0  0  0  0  0
    2.8448    1.4957   -0.5071 H   0  0  0  0  0  0  0  0  0  0  0  0
   -2.5163   -2.7850   -0.8842 H   0  0  0  0  0  0  0  0  0  0  0  0
   -4.5715   -4.0243   -1.1749 H   0  0  0  0  0  0  0  0  0  0  0  0
   -6.7530   -2.9977   -0.5979 H   0  0  0  0  0  0  0  0  0  0  0  0
   -6.8392   -0.7131    0.2726 H   0  0  0  0  0  0  0  0  0  0  0  0
  1  2  1  0
  2  3  1  0
  3  4  2  0
  4  5  1  0
  5  6  2  0
  6  7  1  0
  7  8  1  0
  8  9  2  0
  8 10  1  0
 10 11  1  0
 11 12  2  0
 12 13  1  0
 13 14  1  0
 13 15  1  0
 15 16  1  0
 16 17  1  0
 17 18  1  0
 15 19  2  0
  6 20  1  0
 20 21  2  0
 21 22  1  0
 22 23  2  0
 23 24  1  0
 24 25  2  0
 25  3  1  0
 19 11  1  0
 25 20  1  0
 18 16  1  0
  1 26  1  0
  1 27  1  0
  1 28  1  0
  4 29  1  0
  5 30  1  0
  7 31  1  0
 10 32  1  0
 14 33  1  0
 14 34  1  0
 14 35  1  0
 16 36  1  0
 17 37  1  0
 17 38  1  0
 18 39  1  0
 18 40  1  0
 19 41  1  0
 21 42  1  0
 22 43  1  0
 23 44  1  0
 24 45  1  0
M  END
$$$$
OCNT-2316769
     RDKit          3D

 57 59  0  0  0  0  0  0  0  0999 V2000
   -5.1150    1.6895    0.1549 C   0  0  0  0  0  0  0  0  0  0  0  0
   -5.6528    0.2851    0.0767 C   0  0  0  0  0  0  0  0  0  0  0  0
   -7.0085    0.0661    0.3720 C   0  0  0  0  0  0  0  0  0  0  0  0
   -7.5458   -1.2140    0.3071 C   0  0  0  0  0  0  0  0  0  0  0  0
   -8.8419   -1.4012    0.5895 F   0  0  0  0  0  0  0  0  0  0  0  0
   -6.7604   -2.2997   -0.0467 C   0  0  0  0  0  0  0  0  0  0  0  0
   -5.4113   -2.1022   -0.3362 C   0  0  0  0  0  0  0  0  0  0  0  0
   -4.8390   -0.8164   -0.2731 C   0  0  0  0  0  0  0  0  0  0  0  0
   -3.3618   -0.6660   -0.5797 C   0  0  0  0  0  0  0  0  0  0  0  0
   -2.4561   -0.5966    0.6708 C   0  0  0  0  0  0  0  0  0  0  0  0
   -2.4072   -1.9263    1.4240 C   0  0  0  0  0  0  0  0  0  0  0  0
   -1.0913   -0.2151    0.3040 N   0  0  0  0  0  0  0  0  0  0  0  0
   -0.7836    1.0879   -0.0023 C   0  0  0  0  0  0  0  0  0  0  0  0
   -1.6209    1.9849    0.0339 O   0  0  0  0  0  0  0  0  0  0  0  0
    0.5430    1.2886   -0.3786 N   0  0  0  0  0  0  0  0  0  0  0  0
    0.9058    2.6609   -0.7218 C   0  0  0  0  0  0  0  0  0  0  0  0
    2.1363    2.7174   -1.6180 C   0  0  0  0  0  0  0  0  0  0  0  0
    3.3012    1.9304   -1.0233 C   0  0  0  0  0  0  0  0  0  0  0  0
    2.8777    0.4815   -0.7269 C   0  0  0  0  0  0  0  0  0  0  0  0
    4.0036   -0.3657   -0.0940 C   0  0  0  0  0  0  0  0  0  0  0  0
    5.2124   -0.5434   -1.0178 C   0  0  0  0  0  0  0  0  0  0  0  0
    6.2275   -1.4991   -0.3895 C   0  0  0  0  0  0  0  0  0  0  0  0
    6.1902   -1.4488    1.1365 C   0  0  0  0  0  0  0  0  0  0  0  0
    5.6943   -0.0952    1.6205 C   0  0  0  0  0  0  0  0  0  0  0  0
    4.3768    0.2137    1.1623 O   0  0  0  0  0  0  0  0  0  0  0  0
    1.6373    0.4857    0.1843 C   0  0  0  0  0  0  0  0  0  0  0  0
   -4.4235    1.7886    0.9958 H   0  0  0  0  0  0  0  0  0  0  0  0
   -4.6099    1.9645   -0.7757 H   0  0  0  0  0  0  0  0  0  0  0  0
   -5.9211    2.4163    0.3045 H   0  0  0  0  0  0  0  0  0  0  0  0
   -7.6601    0.8891    0.6518 H   0  0  0  0  0  0  0  0  0  0  0  0
   -7.2007   -3.2901   -0.0934 H   0  0  0  0  0  0  0  0  0  0  0  0
   -4.8029   -2.9618   -0.6097 H   0  0  0  0  0  0  0  0  0  0  0  0
   -3.0337   -1.4968   -1.2201 H   0  0  0  0  0  0  0  0  0  0  0  0
   -3.2243    0.2219   -1.2082 H   0  0  0  0  0  0  0  0  0  0  0  0
   -2.8303    0.1688    1.3601 H   0  0  0  0  0  0  0  0  0  0  0  0
   -1.7156   -1.8636    2.2718 H   0  0  0  0  0  0  0  0  0  0  0  0
   -3.3894   -2.2001    1.8202 H   0  0  0  0  0  0  0  0  0  0  0  0
   -2.0575   -2.7374    0.7757 H   0  0  0  0  0  0  0  0  0  0  0  0
   -0.5763   -0.8877   -0.2430 H   0  0  0  0  0  0  0  0  0  0  0  0
    0.0699    3.1541   -1.2309 H   0  0  0  0  0  0  0  0  0  0  0  0
    1.0840    3.2030    0.2152 H   0  0  0  0  0  0  0  0  0  0  0  0
    2.4330    3.7601   -1.7764 H   0  0  0  0  0  0  0  0  0  0  0  0
    1.8880    2.3002   -2.6021 H   0  0  0  0  0  0  0  0  0  0  0  0
    4.1346    1.9516   -1.7333 H   0  0  0  0  0  0  0  0  0  0  0  0
    3.6443    2.4252   -0.1066 H   0  0  0  0  0  0  0  0  0  0  0  0
    2.5935    0.0116   -1.6790 H   0  0  0  0  0  0  0  0  0  0  0  0
    3.5886   -1.3594    0.1235 H   0  0  0  0  0  0  0  0  0  0  0  0
    5.7109    0.4212   -1.1716 H   0  0  0  0  0  0  0  0  0  0  0  0
    4.9109   -0.9167   -2.0026 H   0  0  0  0  0  0  0  0  0  0  0  0
    6.0323   -2.5268   -0.7184 H   0  0  0  0  0  0  0  0  0  0  0  0
    7.2305   -1.2437   -0.7517 H   0  0  0  0  0  0  0  0  0  0  0  0
    5.5076   -2.2284    1.4975 H   0  0  0  0  0  0  0  0  0  0  0  0
    7.1810   -1.6714    1.5462 H   0  0  0  0  0  0  0  0  0  0  0  0
    6.3665    0.7044    1.2884 H   0  0  0  0  0  0  0  0  0  0  0  0
    5.6762   -0.0668    2.7146 H   0  0  0  0  0  0  0  0  0  0  0  0
    1.8662    0.9129    1.1690 H   0  0  0  0  0  0  0  0  0  0  0  0
    1.3166   -0.5448    0.3601 H   0  0  0  0  0  0  0  0  0  0  0  0
  1  2  1  0
  2  3  1  0
  3  4  2  0
  4  5  1  0
  4  6  1  0
  6  7  2  0
  7  8  1  0
  8  9  1  0
  9 10  1  0
 10 11  1  0
 10 12  1  0
 12 13  1  0
 13 14  2  0
 13 15  1  0
 15 16  1  0
 16 17  1  0
 17 18  1  0
 18 19  1  0
 19 20  1  0
 20 21  1  0
 21 22  1  0
 22 23  1  0
 23 24  1  0
 24 25  1  0
 19 26  1  0
  8  2  2  0
 26 15  1  0
 25 20  1  0
  1 27  1  0
  1 28  1  0
  1 29  1  0
  3 30  1  0
  6 31  1  0
  7 32  1  0
  9 33  1  0
  9 34  1  0
 10 35  1  0
 11 36  1  0
 11 37  1  0
 11 38  1  0
 12 39  1  0
 16 40  1  0
 16 41  1  0
 17 42  1  0
 17 43  1  0
 18 44  1  0
 18 45  1  0
 19 46  1  0
 20 47  1  0
 21 48  1  0
 21 49  1  0
 22 50  1  0
 22 51  1  0
 23 52  1  0
 23 53  1  0
 24 54  1  0
 24 55  1  0
 26 56  1  0
 26 57  1  0
M  END
$$$$
OCNT-2316772
     RDKit          3D

 40 42  0  0  0  0  0  0  0  0999 V2000
   -4.0739    3.7966    1.3693 C   0  0  0  0  0  0  0  0  0  0  0  0
   -2.7624    3.1279    1.0598 C   0  0  0  0  0  0  0  0  0  0  0  0
   -1.6855    3.6922    1.2131 O   0  0  0  0  0  0  0  0  0  0  0  0
   -2.8840    1.8293    0.6249 N   0  0  0  0  0  0  0  0  0  0  0  0
   -1.7093    0.9995    0.3437 C   0  0  0  0  0  0  0  0  0  0  0  0
   -1.0367    0.5230    1.6487 C   0  0  0  0  0  0  0  0  0  0  0  0
    0.2170   -0.2208    1.3831 C   0  0  0  0  0  0  0  0  0  0  0  0
    1.4005    0.2230    1.0327 N   0  0  0  0  0  0  0  0  0  0  0  0
    2.1305   -0.9384    0.8995 C   0  0  0  0  0  0  0  0  0  0  0  0
    3.5338   -0.9320    0.5003 C   0  0  0  0  0  0  0  0  0  0  0  0
    4.1794    0.2839    0.2078 C   0  0  0  0  0  0  0  0  0  0  0  0
    5.5231    0.3050   -0.1798 C   0  0  0  0  0  0  0  0  0  0  0  0
    6.2251   -0.8904   -0.2772 C   0  0  0  0  0  0  0  0  0  0  0  0
    7.5125   -0.8689   -0.6481 F   0  0  0  0  0  0  0  0  0  0  0  0
    5.5985   -2.0968    0.0102 C   0  0  0  0  0  0  0  0  0  0  0  0
    6.2792   -3.2476   -0.0849 F   0  0  0  0  0  0  0  0  0  0  0  0
    4.2614   -2.1273    0.3979 C   0  0  0  0  0  0  0  0  0  0  0  0
    1.4279   -2.0534    1.1625 N   0  0  0  0  0  0  0  0  0  0  0  0
    0.1601   -1.5786    1.4869 O   0  0  0  0  0  0  0  0  0  0  0  0
   -2.0999   -0.1501   -0.5623 C   0  0  0  0  0  0  0  0  0  0  0  0
   -3.1091   -1.0543   -0.2194 C   0  0  0  0  0  0  0  0  0  0  0  0
   -3.7860   -0.8886    0.9265 F   0  0  0  0  0  0  0  0  0  0  0  0
   -3.4445   -2.1280   -1.0424 C   0  0  0  0  0  0  0  0  0  0  0  0
   -2.7615   -2.3196   -2.2414 C   0  0  0  0  0  0  0  0  0  0  0  0
   -1.7495   -1.4332   -2.6048 C   0  0  0  0  0  0  0  0  0  0  0  0
   -1.4285   -0.3644   -1.7688 C   0  0  0  0  0  0  0  0  0  0  0  0
   -0.4421    0.4623   -2.1425 F   0  0  0  0  0  0  0  0  0  0  0  0
   -4.8954    3.3322    0.8161 H   0  0  0  0  0  0  0  0  0  0  0  0
   -4.2715    3.7213    2.4419 H   0  0  0  0  0  0  0  0  0  0  0  0
   -4.0186    4.8492    1.0772 H   0  0  0  0  0  0  0  0  0  0  0  0
   -3.7795    1.3673    0.7345 H   0  0  0  0  0  0  0  0  0  0  0  0
   -0.9998    1.6486   -0.1871 H   0  0  0  0  0  0  0  0  0  0  0  0
   -0.7958    1.3841    2.2838 H   0  0  0  0  0  0  0  0  0  0  0  0
   -1.7246   -0.0985    2.2354 H   0  0  0  0  0  0  0  0  0  0  0  0
    3.6350    1.2254    0.2781 H   0  0  0  0  0  0  0  0  0  0  0  0
    6.0202    1.2434   -0.4058 H   0  0  0  0  0  0  0  0  0  0  0  0
    3.8037   -3.0887    0.6160 H   0  0  0  0  0  0  0  0  0  0  0  0
   -4.2348   -2.8099   -0.7418 H   0  0  0  0  0  0  0  0  0  0  0  0
   -3.0134   -3.1566   -2.8880 H   0  0  0  0  0  0  0  0  0  0  0  0
   -1.2017   -1.5682   -3.5332 H   0  0  0  0  0  0  0  0  0  0  0  0
  1  2  1  0
  2  3  2  0
  2  4  1  0
  4  5  1  0
  5  6  1  0
  6  7  1  0
  7  8  2  0
  8  9  1  0
  9 10  1  0
 10 11  1  0
 11 12  2  0
 12 13  1  0
 13 14  1  0
 13 15  2  0
 15 16  1  0
 15 17  1  0
  9 18  2  0
 18 19  1  0
  5 20  1  0
 20 21  2  0
 21 22  1  0
 21 23  1  0
 23 24  2  0
 24 25  1  0
 25 26  2  0
 26 27  1  0
 19  7  1  0
 26 20  1  0
 17 10  2  0
  1 28  1  0
  1 29  1  0
  1 30  1  0
  4 31  1  0
  5 32  1  0
  6 33  1  0
  6 34  1  0
 11 35  1  0
 12 36  1  0
 17 37  1  0
 23 38  1  0
 24 39  1  0
 25 40  1  0
M  END
$$$$
OCNT-2316774
     RDKit          3D

 37 39  0  0  0  0  0  0  0  0999 V2000
   -0.5488    0.3311    1.3466 O   0  0  0  0  0  0  0  0  0  0  0  0
   -0.7047    0.7290    0.1957 C   0  0  0  0  0  0  0  0  0  0  0  0
    0.3539    1.1292   -0.5942 N   0  0  0  0  0  0  0  0  0  0  0  0
    1.7356    0.8629   -0.2073 C   0  0  0  0  0  0  0  0  0  0  0  0
    2.2451   -0.5311   -0.6462 C   0  0  0  0  0  0  0  0  0  0  0  0
    1.4598   -1.5020   -0.1000 F   0  0  0  0  0  0  0  0  0  0  0  0
    2.0221   -0.6251   -1.9991 F   0  0  0  0  0  0  0  0  0  0  0  0
    3.7053   -0.7340   -0.3152 C   0  0  0  0  0  0  0  0  0  0  0  0
    4.6750   -0.8352   -1.3270 C   0  0  0  0  0  0  0  0  0  0  0  0
    6.0185   -1.0303   -0.9985 C   0  0  0  0  0  0  0  0  0  0  0  0
    6.3938   -1.1271    0.3374 C   0  0  0  0  0  0  0  0  0  0  0  0
    7.6832   -1.3129    0.6471 F   0  0  0  0  0  0  0  0  0  0  0  0
    5.4532   -1.0334    1.3522 C   0  0  0  0  0  0  0  0  0  0  0  0
    4.1180   -0.8398    1.0165 C   0  0  0  0  0  0  0  0  0  0  0  0
    3.2176   -0.7413    2.0027 F   0  0  0  0  0  0  0  0  0  0  0  0
   -1.9933    0.8220   -0.4595 C   0  0  0  0  0  0  0  0  0  0  0  0
   -3.2716    0.5435   -0.0205 C   0  0  0  0  0  0  0  0  0  0  0  0
   -3.7876    0.0661    1.2899 C   0  0  0  0  0  0  0  0  0  0  0  0
   -5.2214   -0.4690    1.1064 C   0  0  0  0  0  0  0  0  0  0  0  0
   -6.0473    0.4645    0.3822 O   0  0  0  0  0  0  0  0  0  0  0  0
   -5.6232    0.6265   -0.9898 C   0  0  0  0  0  0  0  0  0  0  0  0
   -4.1550    0.8256   -1.0978 C   0  0  0  0  0  0  0  0  0  0  0  0
   -3.3661    1.2547   -2.1363 C   0  0  0  0  0  0  0  0  0  0  0  0
   -2.0563    1.2555   -1.7652 O   0  0  0  0  0  0  0  0  0  0  0  0
    0.1380    1.2969   -1.5719 H   0  0  0  0  0  0  0  0  0  0  0  0
    1.8185    0.9834    0.8779 H   0  0  0  0  0  0  0  0  0  0  0  0
    2.3365    1.6444   -0.6854 H   0  0  0  0  0  0  0  0  0  0  0  0
    4.3875   -0.7711   -2.3757 H   0  0  0  0  0  0  0  0  0  0  0  0
    6.7737   -1.1122   -1.7750 H   0  0  0  0  0  0  0  0  0  0  0  0
    5.7539   -1.1116    2.3906 H   0  0  0  0  0  0  0  0  0  0  0  0
   -3.8029    0.9146    1.9842 H   0  0  0  0  0  0  0  0  0  0  0  0
   -3.1492   -0.7151    1.7139 H   0  0  0  0  0  0  0  0  0  0  0  0
   -5.2239   -1.4303    0.5773 H   0  0  0  0  0  0  0  0  0  0  0  0
   -5.6818   -0.6297    2.0865 H   0  0  0  0  0  0  0  0  0  0  0  0
   -6.1611    1.4882   -1.3973 H   0  0  0  0  0  0  0  0  0  0  0  0
   -5.9304   -0.2632   -1.5508 H   0  0  0  0  0  0  0  0  0  0  0  0
   -3.5644    1.5765   -3.1495 H   0  0  0  0  0  0  0  0  0  0  0  0
  1  2  2  0
  2  3  1  0
  3  4  1  0
  4  5  1  0
  5  6  1  0
  5  7  1  0
  5  8  1  0
  8  9  1  0
  9 10  2  0
 10 11  1  0
 11 12  1  0
 11 13  2  0
 13 14  1  0
 14 15  1  0
  2 16  1  0
 16 17  2  0
 17 18  1  0
 18 19  1  0
 19 20  1  0
 20 21  1  0
 21 22  1  0
 22 23  2  0
 23 24  1  0
 14  8  2  0
 24 16  1  0
 22 17  1  0
  3 25  1  0
  4 26  1  0
  4 27  1  0
  9 28  1  0
 10 29  1  0
 13 30  1  0
 18 31  1  0
 18 32  1  0
 19 33  1  0
 19 34  1  0
 21 35  1  0
 21 36  1  0
 23 37  1  0
M  END
$$$$
OCNT-2316781
     RDKit          3D

 45 48  0  0  0  0  0  0  0  0999 V2000
    0.3866   -2.0416    1.9382 O   0  0  0  0  0  0  0  0  0  0  0  0
    0.4962   -1.4931    0.8494 C   0  0  0  0  0  0  0  0  0  0  0  0
   -0.4517   -0.6978    0.2325 N   0  0  0  0  0  0  0  0  0  0  0  0
   -1.6948   -0.3019    0.7730 C   0  0  0  0  0  0  0  0  0  0  0  0
   -2.1333   -0.5800    2.0654 C   0  0  0  0  0  0  0  0  0  0  0  0
   -3.3287   -0.1768    2.5709 N   0  0  0  0  0  0  0  0  0  0  0  0
   -4.1342    0.5296    1.7513 C   0  0  0  0  0  0  0  0  0  0  0  0
   -5.4526    1.0212    2.2861 C   0  0  0  0  0  0  0  0  0  0  0  0
   -6.5644    0.8048    1.2597 C   0  0  0  0  0  0  0  0  0  0  0  0
   -6.1943    1.2038   -0.1785 C   0  0  0  0  0  0  0  0  0  0  0  0
   -4.7509    1.6801   -0.3685 C   0  0  0  0  0  0  0  0  0  0  0  0
   -3.7916    0.8555    0.4393 C   0  0  0  0  0  0  0  0  0  0  0  0
   -2.5502    0.4403   -0.0460 C   0  0  0  0  0  0  0  0  0  0  0  0
    1.7415   -1.7157    0.0614 C   0  0  0  0  0  0  0  0  0  0  0  0
    2.3674   -2.9637    0.1476 C   0  0  0  0  0  0  0  0  0  0  0  0
    3.5359   -3.2105   -0.5711 C   0  0  0  0  0  0  0  0  0  0  0  0
    4.0891   -2.2096   -1.3711 C   0  0  0  0  0  0  0  0  0  0  0  0
    3.4848   -0.9455   -1.4574 C   0  0  0  0  0  0  0  0  0  0  0  0
    4.1090    0.1413   -2.2974 C   0  0  0  0  0  0  0  0  0  0  0  0
    5.2136    0.7838   -1.6098 N   0  0  0  0  0  0  0  0  0  0  0  0
    6.5451    0.5398   -1.8057 C   0  0  0  0  0  0  0  0  0  0  0  0
    7.1924    1.4286   -0.9789 C   0  0  0  0  0  0  0  0  0  0  0  0
    6.2911    2.2091   -0.3023 N   0  0  0  0  0  0  0  0  0  0  0  0
    5.1086    1.7971   -0.6994 C   0  0  0  0  0  0  0  0  0  0  0  0
    2.3082   -0.7034   -0.7280 C   0  0  0  0  0  0  0  0  0  0  0  0
   -0.2820   -0.4285   -0.7268 H   0  0  0  0  0  0  0  0  0  0  0  0
   -1.5350   -1.1416    2.7750 H   0  0  0  0  0  0  0  0  0  0  0  0
   -5.3583    2.0883    2.5208 H   0  0  0  0  0  0  0  0  0  0  0  0
   -5.7040    0.5032    3.2184 H   0  0  0  0  0  0  0  0  0  0  0  0
   -6.8378   -0.2593    1.2570 H   0  0  0  0  0  0  0  0  0  0  0  0
   -7.4656    1.3436    1.5756 H   0  0  0  0  0  0  0  0  0  0  0  0
   -6.3661    0.3325   -0.8255 H   0  0  0  0  0  0  0  0  0  0  0  0
   -6.8812    1.9797   -0.5384 H   0  0  0  0  0  0  0  0  0  0  0  0
   -4.4977    1.6422   -1.4343 H   0  0  0  0  0  0  0  0  0  0  0  0
   -4.6589    2.7270   -0.0533 H   0  0  0  0  0  0  0  0  0  0  0  0
   -2.2630    0.6972   -1.0614 H   0  0  0  0  0  0  0  0  0  0  0  0
    1.9465   -3.7445    0.7789 H   0  0  0  0  0  0  0  0  0  0  0  0
    4.0212   -4.1812   -0.4985 H   0  0  0  0  0  0  0  0  0  0  0  0
    5.0094   -2.4201   -1.9138 H   0  0  0  0  0  0  0  0  0  0  0  0
    4.4829   -0.2698   -3.2425 H   0  0  0  0  0  0  0  0  0  0  0  0
    3.3777    0.9177   -2.5523 H   0  0  0  0  0  0  0  0  0  0  0  0
    6.9126   -0.2152   -2.4864 H   0  0  0  0  0  0  0  0  0  0  0  0
    8.2583    1.5516   -0.8380 H   0  0  0  0  0  0  0  0  0  0  0  0
    4.1605    2.1958   -0.3627 H   0  0  0  0  0  0  0  0  0  0  0  0
    1.8575    0.2860   -0.7502 H   0  0  0  0  0  0  0  0  0  0  0  0
  1  2  2  0
  2  3  1  0
  3  4  1  0
  4  5  1  0
  5  6  2  0
  6  7  1  0
  7  8  1  0
  8  9  1  0
  9 10  1  0
 10 11  1  0
 11 12  1  0
 12 13  1  0
  2 14  1  0
 14 15  1  0
 15 16  2  0
 16 17  1  0
 17 18  2  0
 18 19  1  0
 19 20  1  0
 20 21  1  0
 21 22  2  0
 22 23  1  0
 23 24  2  0
 18 25  1  0
 13  4  2  0
 25 14  2  0
 12  7  2  0
 24 20  1  0
  3 26  1  0
  5 27  1  0
  8 28  1  0
  8 29  1  0
  9 30  1  0
  9 31  1  0
 10 32  1  0
 10 33  1  0
 11 34  1  0
 11 35  1  0
 13 36  1  0
 15 37  1  0
 16 38  1  0
 17 39  1  0
 19 40  1  0
 19 41  1  0
 21 42  1  0
 22 43  1  0
 24 44  1  0
 25 45  1  0
M  END
$$$$
OCNT-2316783
     RDKit          3D

  0  0  0  0  0  0  0  0  0  0999 V3000
M  V30 BEGIN CTAB
M  V30 COUNTS 34 36 0 0 0
M  V30 BEGIN ATOM
M  V30 1 O -2.246984 -1.857743 -1.968655 0
M  V30 2 C -2.305920 -0.840791 -1.287461 0
M  V30 3 N -1.499627 0.262559 -1.467095 0
M  V30 4 C -0.424716 0.297837 -2.422475 0
M  V30 5 C 0.854388 -0.108158 -1.763014 0 CFG=1
M  V30 6 C 2.161505 0.245315 -2.412752 0
M  V30 7 C 1.767786 0.917053 -1.112758 0 CFG=2
M  V30 8 C 2.481514 0.575532 0.184012 0
M  V30 9 C 3.872409 0.348617 0.197269 0
M  V30 10 C 4.558372 0.038330 1.375648 0
M  V30 11 C 3.864104 -0.040313 2.576853 0
M  V30 12 Cl 4.705254 -0.419813 4.028128 0
M  V30 13 C 2.495764 0.197030 2.611370 0
M  V30 14 C 1.817462 0.507737 1.427647 0
M  V30 15 Cl 0.124312 0.838980 1.550443 0
M  V30 16 C -3.279809 -0.718133 -0.166750 0
M  V30 17 C -4.118182 -1.777696 0.145127 0
M  V30 18 N -5.015827 -1.714656 1.162974 0
M  V30 19 C -5.030647 -0.547760 1.848657 0
M  V30 20 C -4.192752 0.512504 1.535439 0
M  V30 21 N -3.298388 0.461216 0.521570 0
M  V30 22 H -1.569683 0.990084 -0.759546 0
M  V30 23 H -0.371509 1.319278 -2.813504 0
M  V30 24 H -0.644681 -0.377836 -3.255565 0
M  V30 25 H 0.782019 -1.099572 -1.326639 0
M  V30 26 H 2.150202 0.849423 -3.313618 0
M  V30 27 H 2.926484 -0.523034 -2.418562 0
M  V30 28 H 1.466638 1.960290 -1.199093 0
M  V30 29 H 4.438198 0.415611 -0.730469 0
M  V30 30 H 5.630800 -0.137017 1.344542 0
M  V30 31 H 1.957345 0.147458 3.553781 0
M  V30 32 H -4.093731 -2.709204 -0.410376 0
M  V30 33 H -5.741274 -0.486245 2.665597 0
M  V30 34 H -4.220828 1.438496 2.099276 0
M  V30 END ATOM
M  V30 BEGIN BOND
M  V30 1 2 1 2
M  V30 2 1 2 3
M  V30 3 1 3 4
M  V30 4 1 4 5
M  V30 5 1 5 6
M  V30 6 1 6 7
M  V30 7 1 7 8
M  V30 8 1 8 9
M  V30 9 2 9 10
M  V30 10 1 10 11
M  V30 11 1 11 12
M  V30 12 2 11 13
M  V30 13 1 13 14
M  V30 14 1 14 15
M  V30 15 1 2 16
M  V30 16 2 16 17
M  V30 17 1 17 18
M  V30 18 2 18 19
M  V30 19 1 19 20
M  V30 20 2 20 21
M  V30 21 1 7 5
M  V30 22 2 14 8
M  V30 23 1 21 16
M  V30 24 1 3 22
M  V30 25 1 4 23
M  V30 26 1 4 24
M  V30 27 1 5 25 CFG=1
M  V30 28 1 6 26
M  V30 29 1 6 27
M  V30 30 1 7 28 CFG=3
M  V30 31 1 9 29
M  V30 32 1 10 30
M  V30 33 1 13 31
M  V30 34 1 17 32
M  V30 35 1 19 33
M  V30 36 1 20 34
M  V30 END BOND
M  V30 BEGIN COLLECTION
M  V30 MDLV30/STERAC1 ATOMS=(2 5 7)
M  V30 END COLLECTION
M  V30 END CTAB
M  END
>  <_CXSMILES_Data>  (1158) 
|&1:4,6|

$$$$
OCNT-2316796
     RDKit          3D

 38 40  0  0  0  0  0  0  0  0999 V2000
    4.0807    1.5352   -0.2988 C   0  0  0  0  0  0  0  0  0  0  0  0
    4.0606    0.0454   -0.0656 C   0  0  0  0  0  0  0  0  0  0  0  0
    5.2617   -0.6958   -0.1111 C   0  0  0  0  0  0  0  0  0  0  0  0
    6.9487    0.1201   -0.4520 Br  0  0  0  0  0  0  0  0  0  0  0  0
    5.2700   -2.0773    0.1055 C   0  0  0  0  0  0  0  0  0  0  0  0
    4.0843   -2.7463    0.3822 C   0  0  0  0  0  0  0  0  0  0  0  0
    2.8918   -2.0330    0.4549 C   0  0  0  0  0  0  0  0  0  0  0  0
    2.8617   -0.6400    0.2485 C   0  0  0  0  0  0  0  0  0  0  0  0
    1.5152    0.0458    0.3560 C   0  0  0  0  0  0  0  0  0  0  0  0
    0.8048    0.1239   -0.9977 C   0  0  0  0  0  0  0  0  0  0  0  0
   -0.4661    0.8077   -0.9065 N   0  0  0  0  0  0  0  0  0  0  0  0
   -1.6051    0.2032   -0.4221 C   0  0  0  0  0  0  0  0  0  0  0  0
   -1.6490   -0.9688   -0.0634 O   0  0  0  0  0  0  0  0  0  0  0  0
   -2.7433    1.1126   -0.3788 C   0  0  0  0  0  0  0  0  0  0  0  0
   -4.0267    0.8436    0.0549 C   0  0  0  0  0  0  0  0  0  0  0  0
   -4.5740   -0.4956    0.6078 C   0  0  0  0  0  0  0  0  0  0  0  0
   -4.4412   -0.7734    2.0822 C   0  0  0  0  0  0  0  0  0  0  0  0
   -5.7915   -0.4851    1.4942 C   0  0  0  0  0  0  0  0  0  0  0  0
   -4.7655    1.9858   -0.0870 O   0  0  0  0  0  0  0  0  0  0  0  0
   -3.8871    2.8897   -0.5940 C   0  0  0  0  0  0  0  0  0  0  0  0
   -2.6680    2.4414   -0.7905 N   0  0  0  0  0  0  0  0  0  0  0  0
    4.6778    1.7849   -1.1818 H   0  0  0  0  0  0  0  0  0  0  0  0
    4.4916    2.0458    0.5778 H   0  0  0  0  0  0  0  0  0  0  0  0
    3.0897    1.9493   -0.4973 H   0  0  0  0  0  0  0  0  0  0  0  0
    6.1991   -2.6400    0.0631 H   0  0  0  0  0  0  0  0  0  0  0  0
    4.0883   -3.8202    0.5489 H   0  0  0  0  0  0  0  0  0  0  0  0
    1.9719   -2.5721    0.6805 H   0  0  0  0  0  0  0  0  0  0  0  0
    0.8882   -0.4999    1.0740 H   0  0  0  0  0  0  0  0  0  0  0  0
    1.6252    1.0422    0.7999 H   0  0  0  0  0  0  0  0  0  0  0  0
    0.6292   -0.8829   -1.3951 H   0  0  0  0  0  0  0  0  0  0  0  0
    1.4092    0.6686   -1.7306 H   0  0  0  0  0  0  0  0  0  0  0  0
   -0.5408    1.7951   -1.1352 H   0  0  0  0  0  0  0  0  0  0  0  0
   -4.4636   -1.3397   -0.0663 H   0  0  0  0  0  0  0  0  0  0  0  0
   -3.9909   -0.0183    2.7161 H   0  0  0  0  0  0  0  0  0  0  0  0
   -4.2167   -1.7912    2.3802 H   0  0  0  0  0  0  0  0  0  0  0  0
   -6.4912   -1.3073    1.3993 H   0  0  0  0  0  0  0  0  0  0  0  0
   -6.2559    0.4653    1.7311 H   0  0  0  0  0  0  0  0  0  0  0  0
   -4.2729    3.8814   -0.7846 H   0  0  0  0  0  0  0  0  0  0  0  0
  1  2  1  0
  2  3  2  0
  3  4  1  0
  3  5  1  0
  5  6  2  0
  6  7  1  0
  7  8  2  0
  8  9  1  0
  9 10  1  0
 10 11  1  0
 11 12  1  0
 12 13  2  0
 12 14  1  0
 14 15  2  0
 15 16  1  0
 16 17  1  0
 17 18  1  0
 15 19  1  0
 19 20  1  0
 20 21  2  0
  8  2  1  0
 21 14  1  0
 18 16  1  0
  1 22  1  0
  1 23  1  0
  1 24  1  0
  5 25  1  0
  6 26  1  0
  7 27  1  0
  9 28  1  0
  9 29  1  0
 10 30  1  0
 10 31  1  0
 11 32  1  0
 16 33  1  0
 17 34  1  0
 17 35  1  0
 18 36  1  0
 18 37  1  0
 20 38  1  0
M  END
$$$$
OCNT-2316803
     RDKit          3D

 36 37  0  0  0  0  0  0  0  0999 V2000
   -0.5086    2.4027    0.8678 O   0  0  0  0  0  0  0  0  0  0  0  0
   -1.0277    1.2883    0.7820 C   0  0  0  0  0  0  0  0  0  0  0  0
   -0.2006    0.1121    0.6173 C   0  0  0  0  0  0  0  0  0  0  0  0
   -0.3642   -1.2135    0.9771 C   0  0  0  0  0  0  0  0  0  0  0  0
    0.7987   -1.9228    0.5874 C   0  0  0  0  0  0  0  0  0  0  0  0
    1.6823   -1.0242    0.0176 C   0  0  0  0  0  0  0  0  0  0  0  0
    3.0285   -1.2185   -0.5259 C   0  0  0  0  0  0  0  0  0  0  0  0
    3.5013   -0.4360   -1.5893 C   0  0  0  0  0  0  0  0  0  0  0  0
    4.7883   -0.6286   -2.1003 C   0  0  0  0  0  0  0  0  0  0  0  0
    5.6172   -1.6062   -1.5552 C   0  0  0  0  0  0  0  0  0  0  0  0
    5.1596   -2.3937   -0.5017 C   0  0  0  0  0  0  0  0  0  0  0  0
    3.8725   -2.2019    0.0080 C   0  0  0  0  0  0  0  0  0  0  0  0
    1.0722    0.2076    0.0910 N   0  0  0  0  0  0  0  0  0  0  0  0
   -2.4212    1.1680    0.8350 N   0  0  0  0  0  0  0  0  0  0  0  0
   -3.1711    0.1087    0.1283 C   0  0  0  0  0  0  0  0  0  0  0  0
   -4.1568   -0.6726    0.9967 C   0  0  0  0  0  0  0  0  0  0  0  0
   -3.4958   -1.3792    1.9471 F   0  0  0  0  0  0  0  0  0  0  0  0
   -4.8103   -1.5812    0.2273 F   0  0  0  0  0  0  0  0  0  0  0  0
   -3.1603    2.3946    1.1814 C   0  0  0  0  0  0  0  0  0  0  0  0
   -3.2557    3.4336    0.0626 C   0  0  0  0  0  0  0  0  0  0  0  0
   -4.0194    2.9356   -0.9478 F   0  0  0  0  0  0  0  0  0  0  0  0
   -3.9163    4.5271    0.5265 F   0  0  0  0  0  0  0  0  0  0  0  0
   -1.2199   -1.6403    1.4823 H   0  0  0  0  0  0  0  0  0  0  0  0
    0.9730   -2.9835    0.7174 H   0  0  0  0  0  0  0  0  0  0  0  0
    2.8699    0.3201   -2.0481 H   0  0  0  0  0  0  0  0  0  0  0  0
    5.1405   -0.0180   -2.9276 H   0  0  0  0  0  0  0  0  0  0  0  0
    6.6175   -1.7563   -1.9526 H   0  0  0  0  0  0  0  0  0  0  0  0
    5.8032   -3.1577   -0.0735 H   0  0  0  0  0  0  0  0  0  0  0  0
    3.5401   -2.8220    0.8370 H   0  0  0  0  0  0  0  0  0  0  0  0
    1.4951    1.0844   -0.1846 H   0  0  0  0  0  0  0  0  0  0  0  0
   -2.4897   -0.5908   -0.3602 H   0  0  0  0  0  0  0  0  0  0  0  0
   -3.7176    0.5819   -0.6950 H   0  0  0  0  0  0  0  0  0  0  0  0
   -4.8969   -0.0358    1.4868 H   0  0  0  0  0  0  0  0  0  0  0  0
   -4.1656    2.1151    1.5119 H   0  0  0  0  0  0  0  0  0  0  0  0
   -2.6703    2.8576    2.0468 H   0  0  0  0  0  0  0  0  0  0  0  0
   -2.2918    3.7453   -0.3452 H   0  0  0  0  0  0  0  0  0  0  0  0
  1  2  2  0
  2  3  1  0
  3  4  2  0
  4  5  1  0
  5  6  2  0
  6  7  1  0
  7  8  2  0
  8  9  1  0
  9 10  2  0
 10 11  1  0
 11 12  2  0
  6 13  1  0
  2 14  1  0
 14 15  1  0
 15 16  1  0
 16 17  1  0
 16 18  1  0
 14 19  1  0
 19 20  1  0
 20 21  1  0
 20 22  1  0
 13  3  1  0
 12  7  1  0
  4 23  1  0
  5 24  1  0
  8 25  1  0
  9 26  1  0
 10 27  1  0
 11 28  1  0
 12 29  1  0
 13 30  1  0
 15 31  1  0
 15 32  1  0
 16 33  1  0
 19 34  1  0
 19 35  1  0
 20 36  1  0
M  END
$$$$
OCNT-2316811
     RDKit          3D

  0  0  0  0  0  0  0  0  0  0999 V3000
M  V30 BEGIN CTAB
M  V30 COUNTS 46 48 0 0 0
M  V30 BEGIN ATOM
M  V30 1 C 6.356696 -0.637197 1.225677 0
M  V30 2 C 5.130616 -0.637839 0.682691 0
M  V30 3 C 4.788376 -0.651914 -0.788968 0 CFG=2
M  V30 4 O 6.002829 -0.657055 -1.574972 0
M  V30 5 C 6.120703 0.621038 -2.199778 0
M  V30 6 C 4.705592 1.050034 -2.482261 0
M  V30 7 C 3.957692 0.577172 -1.247352 0 CFG=1
M  V30 8 N 2.562440 0.293716 -1.581271 0
M  V30 9 C 1.669411 -0.077866 -0.608603 0
M  V30 10 O 1.955183 -0.265325 0.563059 0
M  V30 11 N 0.408114 -0.204676 -1.135520 0
M  V30 12 C -0.686400 -0.683348 -0.305219 0
M  V30 13 C -1.176057 0.361830 0.701715 0
M  V30 14 C -2.375893 -0.111022 1.461163 0
M  V30 15 C -2.368998 -0.723517 2.699184 0
M  V30 16 N -3.661579 -1.006705 3.046674 0
M  V30 17 C -4.521779 -0.594963 2.056015 0
M  V30 18 C -5.915387 -0.686871 1.976789 0
M  V30 19 C -6.536124 -0.174182 0.832602 0
M  V30 20 C -5.796596 0.421529 -0.193841 0
M  V30 21 C -6.486266 0.936268 -1.423385 0
M  V30 22 C -4.396251 0.486814 -0.094131 0
M  V30 23 C -3.745007 -0.023155 1.049337 0
M  V30 24 H 6.485335 -0.638888 2.303212 0
M  V30 25 H 7.252361 -0.648870 0.612392 0
M  V30 26 H 4.275349 -0.645917 1.356742 0
M  V30 27 H 4.264314 -1.588497 -1.012185 0
M  V30 28 H 6.724686 0.534610 -3.106943 0
M  V30 29 H 6.621337 1.306904 -1.507280 0
M  V30 30 H 4.337350 0.531974 -3.377022 0
M  V30 31 H 4.612136 2.125888 -2.656420 0
M  V30 32 H 3.960466 1.361260 -0.479036 0
M  V30 33 H 2.140675 0.899361 -2.271107 0
M  V30 34 H 0.408753 -0.532739 -2.090727 0
M  V30 35 H -1.497089 -0.960671 -0.988837 0
M  V30 36 H -0.360716 -1.595756 0.208713 0
M  V30 37 H -1.419659 1.294202 0.176696 0
M  V30 38 H -0.375733 0.615676 1.407233 0
M  V30 39 H -1.550814 -0.979804 3.359932 0
M  V30 40 H -3.948981 -1.455105 3.905247 0
M  V30 41 H -6.500804 -1.140386 2.769763 0
M  V30 42 H -7.619353 -0.243451 0.751627 0
M  V30 43 H -5.941729 1.785411 -1.849597 0
M  V30 44 H -7.497324 1.285123 -1.188100 0
M  V30 45 H -6.551229 0.143743 -2.175131 0
M  V30 46 H -3.810647 0.933169 -0.892574 0
M  V30 END ATOM
M  V30 BEGIN BOND
M  V30 1 2 1 2
M  V30 2 1 2 3
M  V30 3 1 3 4
M  V30 4 1 4 5
M  V30 5 1 5 6
M  V30 6 1 6 7
M  V30 7 1 7 8
M  V30 8 1 8 9
M  V30 9 2 9 10
M  V30 10 1 9 11
M  V30 11 1 11 12
M  V30 12 1 12 13
M  V30 13 1 13 14
M  V30 14 2 14 15
M  V30 15 1 15 16
M  V30 16 1 16 17
M  V30 17 2 17 18
M  V30 18 1 18 19
M  V30 19 2 19 20
M  V30 20 1 20 21
M  V30 21 1 20 22
M  V30 22 2 22 23
M  V30 23 1 7 3
M  V30 24 1 23 14
M  V30 25 1 23 17
M  V30 26 1 1 24
M  V30 27 1 1 25
M  V30 28 1 2 26
M  V30 29 1 3 27 CFG=1
M  V30 30 1 5 28
M  V30 31 1 5 29
M  V30 32 1 6 30
M  V30 33 1 6 31
M  V30 34 1 7 32 CFG=1
M  V30 35 1 8 33
M  V30 36 1 11 34
M  V30 37 1 12 35
M  V30 38 1 12 36
M  V30 39 1 13 37
M  V30 40 1 13 38
M  V30 41 1 15 39
M  V30 42 1 16 40
M  V30 43 1 18 41
M  V30 44 1 19 42
M  V30 45 1 21 43
M  V30 46 1 21 44
M  V30 47 1 21 45
M  V30 48 1 22 46
M  V30 END BOND
M  V30 BEGIN COLLECTION
M  V30 MDLV30/STERAC1 ATOMS=(2 3 7)
M  V30 END COLLECTION
M  V30 END CTAB
M  END
>  <_CXSMILES_Data>  (1161) 
|&1:2,6|

$$$$
OCNT-2316832
     RDKit          3D

  0  0  0  0  0  0  0  0  0  0999 V3000
M  V30 BEGIN CTAB
M  V30 COUNTS 44 46 0 0 0
M  V30 BEGIN ATOM
M  V30 1 C 1.265671 2.804114 -1.334623 0
M  V30 2 C 1.788585 1.700778 -2.238465 0
M  V30 3 O 1.033769 0.498221 -2.022297 0
M  V30 4 C 1.723434 -0.424604 -1.275552 0
M  V30 5 C 2.778105 -1.112336 -1.872140 0
M  V30 6 C 3.466670 -2.082071 -1.147389 0
M  V30 7 C 3.104324 -2.392140 0.172778 0
M  V30 8 C 3.821417 -3.375150 0.875772 0
M  V30 9 C 3.480411 -3.716656 2.182924 0
M  V30 10 C 2.413398 -3.081458 2.802905 0
M  V30 11 C 1.689954 -2.102814 2.116856 0
M  V30 12 C 2.014467 -1.722135 0.790359 0
M  V30 13 C 1.315682 -0.735504 0.034460 0
M  V30 14 C 0.160262 -0.001313 0.631488 0
M  V30 15 O 0.247766 0.503293 1.745625 0
M  V30 16 N -0.971053 0.073763 -0.160247 0
M  V30 17 C -2.091024 0.955825 0.177838 0 CFG=2
M  V30 18 C -2.828204 0.512133 1.441416 0
M  V30 19 C -3.939380 1.503469 1.781778 0
M  V30 20 O -4.438279 2.215171 0.644047 0
M  V30 21 C -4.503262 1.401378 -0.524494 0
M  V30 22 C -3.094671 1.008037 -0.998983 0 CFG=1
M  V30 23 O -2.588713 1.926117 -1.981747 0
M  V30 24 H 0.185069 2.938346 -1.474647 0
M  V30 25 H 1.425565 2.554316 -0.278361 0
M  V30 26 H 1.771274 3.750432 -1.546280 0
M  V30 27 H 2.871451 1.566951 -2.093066 0
M  V30 28 H 1.637301 1.987104 -3.287378 0
M  V30 29 H 3.061721 -0.900894 -2.899112 0
M  V30 30 H 4.293547 -2.602410 -1.628664 0
M  V30 31 H 4.659814 -3.888825 0.405910 0
M  V30 32 H 4.045265 -4.478923 2.712696 0
M  V30 33 H 2.139870 -3.337730 3.823049 0
M  V30 34 H 0.861937 -1.629315 2.642903 0
M  V30 35 H -0.783040 -0.022409 -1.155369 0
M  V30 36 H -1.654596 1.950951 0.340217 0
M  V30 37 H -3.267631 -0.480526 1.270509 0
M  V30 38 H -2.168546 0.394694 2.305984 0
M  V30 39 H -4.773762 0.987432 2.270674 0
M  V30 40 H -3.570852 2.259742 2.484624 0
M  V30 41 H -5.099675 0.508557 -0.295996 0
M  V30 42 H -5.034667 1.968270 -1.296043 0
M  V30 43 H -3.159685 0.036157 -1.505279 0
M  V30 44 H -3.289689 2.081962 -2.638682 0
M  V30 END ATOM
M  V30 BEGIN BOND
M  V30 1 1 1 2
M  V30 2 1 2 3
M  V30 3 1 3 4
M  V30 4 1 4 5
M  V30 5 2 5 6
M  V30 6 1 6 7
M  V30 7 2 7 8
M  V30 8 1 8 9
M  V30 9 2 9 10
M  V30 10 1 10 11
M  V30 11 2 11 12
M  V30 12 1 12 13
M  V30 13 1 13 14
M  V30 14 2 14 15
M  V30 15 1 14 16
M  V30 16 1 16 17
M  V30 17 1 17 18
M  V30 18 1 18 19
M  V30 19 1 19 20
M  V30 20 1 20 21
M  V30 21 1 21 22
M  V30 22 1 22 23
M  V30 23 2 13 4
M  V30 24 1 22 17
M  V30 25 1 12 7
M  V30 26 1 1 24
M  V30 27 1 1 25
M  V30 28 1 1 26
M  V30 29 1 2 27
M  V30 30 1 2 28
M  V30 31 1 5 29
M  V30 32 1 6 30
M  V30 33 1 8 31
M  V30 34 1 9 32
M  V30 35 1 10 33
M  V30 36 1 11 34
M  V30 37 1 16 35
M  V30 38 1 17 36 CFG=1
M  V30 39 1 18 37
M  V30 40 1 18 38
M  V30 41 1 19 39
M  V30 42 1 19 40
M  V30 43 1 21 41
M  V30 44 1 21 42
M  V30 45 1 22 43 CFG=3
M  V30 46 1 23 44
M  V30 END BOND
M  V30 BEGIN COLLECTION
M  V30 MDLV30/STERAC1 ATOMS=(2 17 22)
M  V30 END COLLECTION
M  V30 END CTAB
M  END
>  <_CXSMILES_Data>  (1162) 
|&1:16,21|

$$$$
OCNT-2316836
     RDKit          3D

 43 46  0  0  0  0  0  0  0  0999 V2000
    0.6574    2.7094   -0.1098 O   0  0  0  0  0  0  0  0  0  0  0  0
    0.5772    1.5611    0.3233 C   0  0  0  0  0  0  0  0  0  0  0  0
    1.7833    0.7948    0.5819 C   0  0  0  0  0  0  0  0  0  0  0  0
    2.9390    0.8539   -0.1750 C   0  0  0  0  0  0  0  0  0  0  0  0
    3.8650    0.0138    0.4006 N   0  0  0  0  0  0  0  0  0  0  0  0
    5.1905   -0.2649   -0.0371 C   0  0  0  0  0  0  0  0  0  0  0  0
    5.7203    0.3408   -1.1852 C   0  0  0  0  0  0  0  0  0  0  0  0
    7.0255    0.0473   -1.5923 C   0  0  0  0  0  0  0  0  0  0  0  0
    7.8060   -0.8468   -0.8613 C   0  0  0  0  0  0  0  0  0  0  0  0
    7.2861   -1.4518    0.2807 C   0  0  0  0  0  0  0  0  0  0  0  0
    5.9835   -1.1637    0.6937 C   0  0  0  0  0  0  0  0  0  0  0  0
    3.3578   -0.5753    1.5160 N   0  0  0  0  0  0  0  0  0  0  0  0
    2.1281   -0.0731    1.6322 C   0  0  0  0  0  0  0  0  0  0  0  0
   -0.6502    0.9560    0.5428 N   0  0  0  0  0  0  0  0  0  0  0  0
   -0.9220   -0.4635    0.7146 C   0  0  0  0  0  0  0  0  0  0  0  0
   -2.4325   -0.5504    0.8521 C   0  0  0  0  0  0  0  0  0  0  0  0
   -2.9308    0.5868   -0.0399 C   0  0  0  0  0  0  0  0  0  0  0  0
   -4.2121    1.0635    0.3599 O   0  0  0  0  0  0  0  0  0  0  0  0
   -5.2718    0.3197   -0.1176 C   0  0  0  0  0  0  0  0  0  0  0  0
   -6.5377    0.7742    0.2174 C   0  0  0  0  0  0  0  0  0  0  0  0
   -7.6396    0.0557   -0.2357 C   0  0  0  0  0  0  0  0  0  0  0  0
   -7.4362   -1.0860   -1.0025 C   0  0  0  0  0  0  0  0  0  0  0  0
   -6.1324   -1.4624   -1.2839 C   0  0  0  0  0  0  0  0  0  0  0  0
   -5.0435   -0.7858   -0.8573 N   0  0  0  0  0  0  0  0  0  0  0  0
   -1.8766    1.6705    0.2135 C   0  0  0  0  0  0  0  0  0  0  0  0
    3.1520    1.4299   -1.0626 H   0  0  0  0  0  0  0  0  0  0  0  0
    5.1507    1.0443   -1.7843 H   0  0  0  0  0  0  0  0  0  0  0  0
    7.4345    0.5193   -2.4825 H   0  0  0  0  0  0  0  0  0  0  0  0
    8.8204   -1.0713   -1.1811 H   0  0  0  0  0  0  0  0  0  0  0  0
    7.8933   -2.1484    0.8530 H   0  0  0  0  0  0  0  0  0  0  0  0
    5.5995   -1.6480    1.5899 H   0  0  0  0  0  0  0  0  0  0  0  0
    1.5406   -0.3579    2.4950 H   0  0  0  0  0  0  0  0  0  0  0  0
   -0.4245   -0.8655    1.5975 H   0  0  0  0  0  0  0  0  0  0  0  0
   -0.5660   -0.9919   -0.1765 H   0  0  0  0  0  0  0  0  0  0  0  0
   -2.8177   -1.5307    0.5576 H   0  0  0  0  0  0  0  0  0  0  0  0
   -2.7387   -0.3790    1.8920 H   0  0  0  0  0  0  0  0  0  0  0  0
   -2.8924    0.3154   -1.1042 H   0  0  0  0  0  0  0  0  0  0  0  0
   -6.6611    1.6685    0.8174 H   0  0  0  0  0  0  0  0  0  0  0  0
   -8.6459    0.3843    0.0072 H   0  0  0  0  0  0  0  0  0  0  0  0
   -8.2727   -1.6686   -1.3721 H   0  0  0  0  0  0  0  0  0  0  0  0
   -5.9237   -2.3469   -1.8793 H   0  0  0  0  0  0  0  0  0  0  0  0
   -1.7452    2.3131   -0.6636 H   0  0  0  0  0  0  0  0  0  0  0  0
   -2.1372    2.3095    1.0653 H   0  0  0  0  0  0  0  0  0  0  0  0
  1  2  2  0
  2  3  1  0
  3  4  2  0
  4  5  1  0
  5  6  1  0
  6  7  2  0
  7  8  1  0
  8  9  2  0
  9 10  1  0
 10 11  2  0
  5 12  1  0
 12 13  2  0
  2 14  1  0
 14 15  1  0
 15 16  1  0
 16 17  1  0
 17 18  1  0
 18 19  1  0
 19 20  2  0
 20 21  1  0
 21 22  2  0
 22 23  1  0
 23 24  2  0
 17 25  1  0
 13  3  1  0
 25 14  1  0
 11  6  1  0
 24 19  1  0
  4 26  1  0
  7 27  1  0
  8 28  1  0
  9 29  1  0
 10 30  1  0
 11 31  1  0
 13 32  1  0
 15 33  1  0
 15 34  1  0
 16 35  1  0
 16 36  1  0
 17 37  1  0
 20 38  1  0
 21 39  1  0
 22 40  1  0
 23 41  1  0
 25 42  1  0
 25 43  1  0
M  END
$$$$
OCNT-2316840
     RDKit          3D

 35 35  0  0  0  0  0  0  0  0999 V2000
    4.8020    1.0734   -2.1897 C   0  0  0  0  0  0  0  0  0  0  0  0
    4.5165    0.5434   -0.9001 O   0  0  0  0  0  0  0  0  0  0  0  0
    3.1689    0.4463   -0.6304 C   0  0  0  0  0  0  0  0  0  0  0  0
    2.2911    0.5994   -1.6504 N   0  0  0  0  0  0  0  0  0  0  0  0
    0.9704    0.4408   -1.3708 C   0  0  0  0  0  0  0  0  0  0  0  0
    0.4694    0.1184   -0.1120 C   0  0  0  0  0  0  0  0  0  0  0  0
   -0.8968   -0.0521    0.2095 N   0  0  0  0  0  0  0  0  0  0  0  0
   -1.9780    0.1236   -0.6404 C   0  0  0  0  0  0  0  0  0  0  0  0
   -1.8743    0.4556   -1.8188 O   0  0  0  0  0  0  0  0  0  0  0  0
   -3.3485   -0.1863   -0.0309 C   0  0  0  0  0  0  0  0  0  0  0  0
   -3.4157   -1.6672    0.3707 C   0  0  0  0  0  0  0  0  0  0  0  0
   -4.4598    0.0983   -1.0562 C   0  0  0  0  0  0  0  0  0  0  0  0
   -3.5422    0.7087    1.1772 C   0  0  0  0  0  0  0  0  0  0  0  0
   -4.7488    0.5040    1.7531 F   0  0  0  0  0  0  0  0  0  0  0  0
   -3.4549    2.0180    0.8692 F   0  0  0  0  0  0  0  0  0  0  0  0
   -2.6077    0.4493    2.1272 F   0  0  0  0  0  0  0  0  0  0  0  0
    1.3993   -0.0514    0.9157 C   0  0  0  0  0  0  0  0  0  0  0  0
    2.7667    0.1114    0.6554 C   0  0  0  0  0  0  0  0  0  0  0  0
    3.7391   -0.0438    1.7518 C   0  0  0  0  0  0  0  0  0  0  0  0
    3.6203   -1.1854    2.5000 N   0  0  0  0  0  0  0  0  0  0  0  0
    4.5880    0.7976    2.0040 O   0  0  0  0  0  0  0  0  0  0  0  0
    5.8875    1.1863   -2.2705 H   0  0  0  0  0  0  0  0  0  0  0  0
    4.4801    0.3858   -2.9793 H   0  0  0  0  0  0  0  0  0  0  0  0
    4.3536    2.0642   -2.3230 H   0  0  0  0  0  0  0  0  0  0  0  0
    0.3324    0.5889   -2.2359 H   0  0  0  0  0  0  0  0  0  0  0  0
   -1.0922   -0.2531    1.1871 H   0  0  0  0  0  0  0  0  0  0  0  0
   -2.6844   -1.9166    1.1472 H   0  0  0  0  0  0  0  0  0  0  0  0
   -4.4070   -1.9286    0.7575 H   0  0  0  0  0  0  0  0  0  0  0  0
   -3.2075   -2.3155   -0.4885 H   0  0  0  0  0  0  0  0  0  0  0  0
   -5.4516   -0.1007   -0.6349 H   0  0  0  0  0  0  0  0  0  0  0  0
   -4.4408    1.1436   -1.3858 H   0  0  0  0  0  0  0  0  0  0  0  0
   -4.3466   -0.5279   -1.9489 H   0  0  0  0  0  0  0  0  0  0  0  0
    1.0764   -0.2840    1.9269 H   0  0  0  0  0  0  0  0  0  0  0  0
    4.3701   -1.3499    3.1614 H   0  0  0  0  0  0  0  0  0  0  0  0
    3.1247   -1.9948    2.1526 H   0  0  0  0  0  0  0  0  0  0  0  0
  1  2  1  0
  2  3  1  0
  3  4  1  0
  4  5  2  0
  5  6  1  0
  6  7  1  0
  7  8  1  0
  8  9  2  0
  8 10  1  0
 10 11  1  0
 10 12  1  0
 10 13  1  0
 13 14  1  0
 13 15  1  0
 13 16  1  0
  6 17  2  0
 17 18  1  0
 18 19  1  0
 19 20  1  0
 19 21  2  0
 18  3  2  0
  1 22  1  0
  1 23  1  0
  1 24  1  0
  5 25  1  0
  7 26  1  0
 11 27  1  0
 11 28  1  0
 11 29  1  0
 12 30  1  0
 12 31  1  0
 12 32  1  0
 17 33  1  0
 20 34  1  0
 20 35  1  0
M  END
$$$$
OCNT-2316848
     RDKit          3D

 38 41  0  0  0  0  0  0  0  0999 V2000
    0.0488    1.2492   -2.8963 O   0  0  0  0  0  0  0  0  0  0  0  0
    0.2812    0.8547   -1.7575 C   0  0  0  0  0  0  0  0  0  0  0  0
   -0.6385    0.2688   -0.9124 N   0  0  0  0  0  0  0  0  0  0  0  0
   -2.0113    0.0047   -1.1451 C   0  0  0  0  0  0  0  0  0  0  0  0
   -2.6541    0.3295   -2.3412 C   0  0  0  0  0  0  0  0  0  0  0  0
   -4.0081    0.0541   -2.5045 C   0  0  0  0  0  0  0  0  0  0  0  0
   -4.6845   -0.5396   -1.4595 C   0  0  0  0  0  0  0  0  0  0  0  0
   -4.1057   -0.8712   -0.2880 N   0  0  0  0  0  0  0  0  0  0  0  0
   -2.7764   -0.6116   -0.1262 C   0  0  0  0  0  0  0  0  0  0  0  0
   -2.1706   -0.9998    1.2138 C   0  0  0  0  0  0  0  0  0  0  0  0
   -1.2378   -2.1883    1.3069 C   0  0  0  0  0  0  0  0  0  0  0  0
   -2.6083   -2.2727    1.9051 C   0  0  0  0  0  0  0  0  0  0  0  0
    1.6830    0.9956   -1.2279 C   0  0  0  0  0  0  0  0  0  0  0  0
    2.6705    1.3808   -2.1555 C   0  0  0  0  0  0  0  0  0  0  0  0
    4.0015    1.5450   -1.7683 C   0  0  0  0  0  0  0  0  0  0  0  0
    4.3693    1.3177   -0.4467 C   0  0  0  0  0  0  0  0  0  0  0  0
    3.4085    0.9282    0.4851 C   0  0  0  0  0  0  0  0  0  0  0  0
    2.0603    0.7868    0.1117 C   0  0  0  0  0  0  0  0  0  0  0  0
    1.0978    0.4401    1.0337 O   0  0  0  0  0  0  0  0  0  0  0  0
    1.5416    0.6417    2.3814 C   0  0  0  0  0  0  0  0  0  0  0  0
    2.9163    0.0327    2.5725 C   0  0  0  0  0  0  0  0  0  0  0  0
    3.8739    0.7137    1.7591 O   0  0  0  0  0  0  0  0  0  0  0  0
   -0.2859    0.0012    0.0010 H   0  0  0  0  0  0  0  0  0  0  0  0
   -2.1298    0.8005   -3.1653 H   0  0  0  0  0  0  0  0  0  0  0  0
   -4.5180    0.3024   -3.4284 H   0  0  0  0  0  0  0  0  0  0  0  0
   -5.7425   -0.7721   -1.5362 H   0  0  0  0  0  0  0  0  0  0  0  0
   -1.9673   -0.1612    1.8752 H   0  0  0  0  0  0  0  0  0  0  0  0
   -1.0463   -2.7712    0.4122 H   0  0  0  0  0  0  0  0  0  0  0  0
   -0.3941   -2.1234    1.9828 H   0  0  0  0  0  0  0  0  0  0  0  0
   -3.3433   -2.9003    1.4120 H   0  0  0  0  0  0  0  0  0  0  0  0
   -2.7032   -2.2517    2.9842 H   0  0  0  0  0  0  0  0  0  0  0  0
    2.4033    1.5583   -3.1969 H   0  0  0  0  0  0  0  0  0  0  0  0
    4.7476    1.8457   -2.4998 H   0  0  0  0  0  0  0  0  0  0  0  0
    5.4060    1.4364   -0.1419 H   0  0  0  0  0  0  0  0  0  0  0  0
    0.8161    0.1597    3.0439 H   0  0  0  0  0  0  0  0  0  0  0  0
    1.5392    1.7178    2.5946 H   0  0  0  0  0  0  0  0  0  0  0  0
    3.2346    0.1299    3.6150 H   0  0  0  0  0  0  0  0  0  0  0  0
    2.9263   -1.0317    2.3076 H   0  0  0  0  0  0  0  0  0  0  0  0
  1  2  2  0
  2  3  1  0
  3  4  1  0
  4  5  1  0
  5  6  2  0
  6  7  1  0
  7  8  2  0
  8  9  1  0
  9 10  1  0
 10 11  1  0
 11 12  1  0
  2 13  1  0
 13 14  2  0
 14 15  1  0
 15 16  2  0
 16 17  1  0
 17 18  2  0
 18 19  1  0
 19 20  1  0
 20 21  1  0
 21 22  1  0
  9  4  2  0
 12 10  1  0
 18 13  1  0
 22 17  1  0
  3 23  1  0
  5 24  1  0
  6 25  1  0
  7 26  1  0
 10 27  1  0
 11 28  1  0
 11 29  1  0
 12 30  1  0
 12 31  1  0
 14 32  1  0
 15 33  1  0
 16 34  1  0
 20 35  1  0
 20 36  1  0
 21 37  1  0
 21 38  1  0
M  END
$$$$
OCNT-2316854
     RDKit          3D

 37 39  0  0  0  0  0  0  0  0999 V2000
   -1.3657   -1.2359    1.3986 O   0  0  0  0  0  0  0  0  0  0  0  0
   -0.7445   -0.5692    0.5791 C   0  0  0  0  0  0  0  0  0  0  0  0
   -1.2587    0.7537    0.0477 C   0  0  0  0  0  0  0  0  0  0  0  0
   -2.5925    1.1586    0.6559 C   0  0  0  0  0  0  0  0  0  0  0  0
   -3.7819    0.3355    0.1848 C   0  0  0  0  0  0  0  0  0  0  0  0
   -4.9204    1.3006    0.4024 C   0  0  0  0  0  0  0  0  0  0  0  0
   -4.2962    2.6217    0.0082 C   0  0  0  0  0  0  0  0  0  0  0  0
   -2.8870    2.5175    0.2650 O   0  0  0  0  0  0  0  0  0  0  0  0
    0.4799   -0.8948    0.0094 N   0  0  0  0  0  0  0  0  0  0  0  0
    1.1933   -2.0345    0.3447 C   0  0  0  0  0  0  0  0  0  0  0  0
    0.9165   -3.0530    1.2326 C   0  0  0  0  0  0  0  0  0  0  0  0
    2.0051   -3.9349    1.1459 C   0  0  0  0  0  0  0  0  0  0  0  0
    2.9163   -3.5311    0.2615 N   0  0  0  0  0  0  0  0  0  0  0  0
    2.4208   -2.3601   -0.2028 N   0  0  0  0  0  0  0  0  0  0  0  0
    3.1580   -1.6722   -1.2603 C   0  0  0  0  0  0  0  0  0  0  0  0
    3.5452   -0.2669   -0.8983 C   0  0  0  0  0  0  0  0  0  0  0  0
    3.2300    0.9061   -1.5653 C   0  0  0  0  0  0  0  0  0  0  0  0
    3.7790    2.0586   -0.9264 C   0  0  0  0  0  0  0  0  0  0  0  0
    4.5042    1.7111    0.1830 C   0  0  0  0  0  0  0  0  0  0  0  0
    5.3367    2.7789    1.2378 Cl  0  0  0  0  0  0  0  0  0  0  0  0
    4.5432    0.0458    0.4673 S   0  0  0  0  0  0  0  0  0  0  0  0
   -1.3390    0.6984   -1.0449 H   0  0  0  0  0  0  0  0  0  0  0  0
   -0.5115    1.5265    0.2692 H   0  0  0  0  0  0  0  0  0  0  0  0
   -2.5360    1.1492    1.7519 H   0  0  0  0  0  0  0  0  0  0  0  0
   -3.9053   -0.6005    0.7359 H   0  0  0  0  0  0  0  0  0  0  0  0
   -3.6992    0.0992   -0.8829 H   0  0  0  0  0  0  0  0  0  0  0  0
   -5.1949    1.3187    1.4639 H   0  0  0  0  0  0  0  0  0  0  0  0
   -5.8164    1.0626   -0.1768 H   0  0  0  0  0  0  0  0  0  0  0  0
   -4.7109    3.4648    0.5680 H   0  0  0  0  0  0  0  0  0  0  0  0
   -4.4240    2.8167   -1.0617 H   0  0  0  0  0  0  0  0  0  0  0  0
    0.8894   -0.2330   -0.6362 H   0  0  0  0  0  0  0  0  0  0  0  0
    0.0467   -3.1540    1.8661 H   0  0  0  0  0  0  0  0  0  0  0  0
    2.1675   -4.8583    1.6869 H   0  0  0  0  0  0  0  0  0  0  0  0
    4.0523   -2.2617   -1.4951 H   0  0  0  0  0  0  0  0  0  0  0  0
    2.5090   -1.6856   -2.1437 H   0  0  0  0  0  0  0  0  0  0  0  0
    2.6361    0.9433   -2.4718 H   0  0  0  0  0  0  0  0  0  0  0  0
    3.6546    3.0782   -1.2702 H   0  0  0  0  0  0  0  0  0  0  0  0
  1  2  2  0
  2  3  1  0
  3  4  1  0
  4  5  1  0
  5  6  1  0
  6  7  1  0
  7  8  1  0
  2  9  1  0
  9 10  1  0
 10 11  2  0
 11 12  1  0
 12 13  2  0
 13 14  1  0
 14 15  1  0
 15 16  1  0
 16 17  2  0
 17 18  1  0
 18 19  2  0
 19 20  1  0
 19 21  1  0
  8  4  1  0
 14 10  1  0
 21 16  1  0
  3 22  1  0
  3 23  1  0
  4 24  1  0
  5 25  1  0
  5 26  1  0
  6 27  1  0
  6 28  1  0
  7 29  1  0
  7 30  1  0
  9 31  1  0
 11 32  1  0
 12 33  1  0
 15 34  1  0
 15 35  1  0
 17 36  1  0
 18 37  1  0
M  END
$$$$
OCNT-2316867
     RDKit          3D

 38 40  0  0  0  0  0  0  0  0999 V2000
   -2.4080   -1.7235    2.5224 C   0  0  0  0  0  0  0  0  0  0  0  0
   -1.9674   -0.2743    2.6523 C   0  0  0  0  0  0  0  0  0  0  0  0
   -1.4110    0.2575    1.4247 N   0  0  0  0  0  0  0  0  0  0  0  0
   -0.0842    0.2962    1.0789 C   0  0  0  0  0  0  0  0  0  0  0  0
    1.1957   -0.3763    2.0324 S   0  0  0  0  0  0  0  0  0  0  0  0
    2.6405   -0.0331    0.9755 C   0  0  0  0  0  0  0  0  0  0  0  0
    2.7232   -1.0034   -0.2042 C   0  0  0  0  0  0  0  0  0  0  0  0
    3.8655   -0.6591   -1.1273 C   0  0  0  0  0  0  0  0  0  0  0  0
    3.6743    0.2317   -2.1869 C   0  0  0  0  0  0  0  0  0  0  0  0
    4.7501    0.5243   -3.0104 C   0  0  0  0  0  0  0  0  0  0  0  0
    5.9856    0.0044   -2.8462 N   0  0  0  0  0  0  0  0  0  0  0  0
    6.1514   -0.8425   -1.8093 C   0  0  0  0  0  0  0  0  0  0  0  0
    5.1380   -1.2006   -0.9332 C   0  0  0  0  0  0  0  0  0  0  0  0
    0.0585    0.8974   -0.0760 N   0  0  0  0  0  0  0  0  0  0  0  0
   -1.1864    1.2431   -0.5192 N   0  0  0  0  0  0  0  0  0  0  0  0
   -2.0870    0.8521    0.3713 C   0  0  0  0  0  0  0  0  0  0  0  0
   -3.5285    1.0393    0.2095 C   0  0  0  0  0  0  0  0  0  0  0  0
   -4.0434    1.6910   -0.9094 C   0  0  0  0  0  0  0  0  0  0  0  0
   -5.3730    1.8855   -1.1088 N   0  0  0  0  0  0  0  0  0  0  0  0
   -6.1762    1.3989   -0.1403 C   0  0  0  0  0  0  0  0  0  0  0  0
   -5.6753    0.7506    0.9747 C   0  0  0  0  0  0  0  0  0  0  0  0
   -4.3496    0.5537    1.1738 N   0  0  0  0  0  0  0  0  0  0  0  0
   -1.5611   -2.3744    2.2783 H   0  0  0  0  0  0  0  0  0  0  0  0
   -3.1571   -1.8509    1.7356 H   0  0  0  0  0  0  0  0  0  0  0  0
   -2.8419   -2.0709    3.4659 H   0  0  0  0  0  0  0  0  0  0  0  0
   -1.2158   -0.1864    3.4440 H   0  0  0  0  0  0  0  0  0  0  0  0
   -2.7899    0.3689    2.9747 H   0  0  0  0  0  0  0  0  0  0  0  0
    2.6150    1.0114    0.6446 H   0  0  0  0  0  0  0  0  0  0  0  0
    3.5336   -0.1407    1.6011 H   0  0  0  0  0  0  0  0  0  0  0  0
    2.8521   -2.0321    0.1581 H   0  0  0  0  0  0  0  0  0  0  0  0
    1.7952   -1.0070   -0.7899 H   0  0  0  0  0  0  0  0  0  0  0  0
    2.7059    0.6878   -2.3716 H   0  0  0  0  0  0  0  0  0  0  0  0
    4.6409    1.2068   -3.8486 H   0  0  0  0  0  0  0  0  0  0  0  0
    7.1548   -1.2431   -1.6965 H   0  0  0  0  0  0  0  0  0  0  0  0
    5.3424   -1.8911   -0.1228 H   0  0  0  0  0  0  0  0  0  0  0  0
   -3.3945    2.0849   -1.6854 H   0  0  0  0  0  0  0  0  0  0  0  0
   -7.2396    1.5470   -0.2844 H   0  0  0  0  0  0  0  0  0  0  0  0
   -6.3326    0.3771    1.7514 H   0  0  0  0  0  0  0  0  0  0  0  0
  1  2  1  0
  2  3  1  0
  3  4  1  0
  4  5  1  0
  5  6  1  0
  6  7  1  0
  7  8  1  0
  8  9  2  0
  9 10  1  0
 10 11  2  0
 11 12  1  0
 12 13  2  0
  4 14  2  0
 14 15  1  0
 15 16  2  0
 16 17  1  0
 17 18  2  0
 18 19  1  0
 19 20  2  0
 20 21  1  0
 21 22  2  0
 16  3  1  0
 22 17  1  0
 13  8  1  0
  1 23  1  0
  1 24  1  0
  1 25  1  0
  2 26  1  0
  2 27  1  0
  6 28  1  0
  6 29  1  0
  7 30  1  0
  7 31  1  0
  9 32  1  0
 10 33  1  0
 12 34  1  0
 13 35  1  0
 18 36  1  0
 20 37  1  0
 21 38  1  0
M  END
$$$$
OCNT-2316872
     RDKit          3D

 36 38  0  0  0  0  0  0  0  0999 V2000
   -5.7767    0.1521    1.8979 C   0  0  0  0  0  0  0  0  0  0  0  0
   -5.6696   -0.6913    0.6369 C   0  0  0  0  0  0  0  0  0  0  0  0
   -6.0513   -1.9653    0.9574 F   0  0  0  0  0  0  0  0  0  0  0  0
   -6.6339   -0.2441   -0.2283 F   0  0  0  0  0  0  0  0  0  0  0  0
   -4.2895   -0.6663   -0.0025 C   0  0  0  0  0  0  0  0  0  0  0  0
   -4.1568   -1.1042   -1.3050 C   0  0  0  0  0  0  0  0  0  0  0  0
   -2.8872   -1.0778   -1.8202 C   0  0  0  0  0  0  0  0  0  0  0  0
   -1.8151   -0.6619   -1.1250 N   0  0  0  0  0  0  0  0  0  0  0  0
   -2.0095   -0.2585    0.1365 C   0  0  0  0  0  0  0  0  0  0  0  0
   -0.9672    0.1840    0.9444 N   0  0  0  0  0  0  0  0  0  0  0  0
    0.4102    0.3561    0.7542 C   0  0  0  0  0  0  0  0  0  0  0  0
    1.1779    0.8179    1.8365 C   0  0  0  0  0  0  0  0  0  0  0  0
    2.5625    1.0201    1.7498 C   0  0  0  0  0  0  0  0  0  0  0  0
    3.1736    0.7383    0.5273 C   0  0  0  0  0  0  0  0  0  0  0  0
    4.4894    0.8430    0.1422 N   0  0  0  0  0  0  0  0  0  0  0  0
    4.6560    0.4428   -1.1651 C   0  0  0  0  0  0  0  0  0  0  0  0
    5.9025    0.4253   -1.8878 C   0  0  0  0  0  0  0  0  0  0  0  0
    7.0307    0.4180   -1.1148 N   0  0  0  0  0  0  0  0  0  0  0  0
    6.0037    0.3837   -3.1085 O   0  0  0  0  0  0  0  0  0  0  0  0
    3.3949    0.1137   -1.6328 C   0  0  0  0  0  0  0  0  0  0  0  0
    2.4607    0.2803   -0.5752 C   0  0  0  0  0  0  0  0  0  0  0  0
    1.0673    0.0889   -0.4554 C   0  0  0  0  0  0  0  0  0  0  0  0
   -3.2195   -0.2505    0.7234 N   0  0  0  0  0  0  0  0  0  0  0  0
   -6.8005    0.1149    2.2849 H   0  0  0  0  0  0  0  0  0  0  0  0
   -5.5378    1.2015    1.6964 H   0  0  0  0  0  0  0  0  0  0  0  0
   -5.1147   -0.2191    2.6869 H   0  0  0  0  0  0  0  0  0  0  0  0
   -5.0014   -1.4486   -1.8885 H   0  0  0  0  0  0  0  0  0  0  0  0
   -2.6837   -1.4006   -2.8371 H   0  0  0  0  0  0  0  0  0  0  0  0
   -1.3355    0.4286    1.8507 H   0  0  0  0  0  0  0  0  0  0  0  0
    0.6937    1.0331    2.7872 H   0  0  0  0  0  0  0  0  0  0  0  0
    3.1264    1.3813    2.6031 H   0  0  0  0  0  0  0  0  0  0  0  0
    5.2285    1.2000    0.7297 H   0  0  0  0  0  0  0  0  0  0  0  0
    6.9969    0.0110   -0.1924 H   0  0  0  0  0  0  0  0  0  0  0  0
    7.8759    0.2421   -1.6441 H   0  0  0  0  0  0  0  0  0  0  0  0
    3.1750   -0.2224   -2.6390 H   0  0  0  0  0  0  0  0  0  0  0  0
    0.5243   -0.2664   -1.3237 H   0  0  0  0  0  0  0  0  0  0  0  0
  1  2  1  0
  2  3  1  0
  2  4  1  0
  2  5  1  0
  5  6  1  0
  6  7  2  0
  7  8  1  0
  8  9  2  0
  9 10  1  0
 10 11  1  0
 11 12  2  0
 12 13  1  0
 13 14  2  0
 14 15  1  0
 15 16  1  0
 16 17  1  0
 17 18  1  0
 17 19  2  0
 16 20  2  0
 20 21  1  0
 21 22  2  0
  9 23  1  0
 23  5  2  0
 22 11  1  0
 21 14  1  0
  1 24  1  0
  1 25  1  0
  1 26  1  0
  6 27  1  0
  7 28  1  0
 10 29  1  0
 12 30  1  0
 13 31  1  0
 15 32  1  0
 18 33  1  0
 18 34  1  0
 20 35  1  0
 22 36  1  0
M  END
$$$$
OCNT-2316877
     RDKit          3D

 47 49  0  0  0  0  0  0  0  0999 V2000
    1.1993   -0.3424    2.4728 C   0  0  0  0  0  0  0  0  0  0  0  0
    1.4898    0.3986    1.3941 C   0  0  0  0  0  0  0  0  0  0  0  0
    2.4704    0.0964    0.2940 C   0  0  0  0  0  0  0  0  0  0  0  0
    3.0867   -1.2317    0.3338 N   0  0  0  0  0  0  0  0  0  0  0  0
    4.3643   -1.4620    0.7916 C   0  0  0  0  0  0  0  0  0  0  0  0
    4.5792   -2.8199    0.8053 C   0  0  0  0  0  0  0  0  0  0  0  0
    3.4019   -3.4311    0.3208 C   0  0  0  0  0  0  0  0  0  0  0  0
    2.4994   -2.4348   -0.0207 C   0  0  0  0  0  0  0  0  0  0  0  0
    1.1728   -2.6265   -0.5631 C   0  0  0  0  0  0  0  0  0  0  0  0
    0.3394   -3.3696   -0.0569 O   0  0  0  0  0  0  0  0  0  0  0  0
    0.9519   -1.9410   -1.7327 N   0  0  0  0  0  0  0  0  0  0  0  0
   -0.3607   -1.8215   -2.3157 C   0  0  0  0  0  0  0  0  0  0  0  0
   -0.9222   -0.5172   -1.8622 C   0  0  0  0  0  0  0  0  0  0  0  0
   -1.6675   -0.2619   -0.7157 C   0  0  0  0  0  0  0  0  0  0  0  0
   -2.2150   -1.2494    0.2535 C   0  0  0  0  0  0  0  0  0  0  0  0
   -1.8345    1.1186   -0.6491 N   0  0  0  0  0  0  0  0  0  0  0  0
   -2.3339    1.9563    0.3980 C   0  0  0  0  0  0  0  0  0  0  0  0
   -2.4810    1.5105    1.7167 C   0  0  0  0  0  0  0  0  0  0  0  0
   -2.9595    2.3742    2.7090 C   0  0  0  0  0  0  0  0  0  0  0  0
   -3.2820    3.6926    2.3985 C   0  0  0  0  0  0  0  0  0  0  0  0
   -3.1206    4.1559    1.0966 C   0  0  0  0  0  0  0  0  0  0  0  0
   -2.6445    3.2965    0.1037 C   0  0  0  0  0  0  0  0  0  0  0  0
   -1.4049    1.7048   -1.8015 N   0  0  0  0  0  0  0  0  0  0  0  0
   -0.8200    0.7375   -2.5051 C   0  0  0  0  0  0  0  0  0  0  0  0
   -0.1677    1.0709   -3.7965 C   0  0  0  0  0  0  0  0  0  0  0  0
    0.4604   -0.0064    3.1936 H   0  0  0  0  0  0  0  0  0  0  0  0
    1.6773   -1.2984    2.6708 H   0  0  0  0  0  0  0  0  0  0  0  0
    0.9603    1.3441    1.2753 H   0  0  0  0  0  0  0  0  0  0  0  0
    1.9894    0.2106   -0.6800 H   0  0  0  0  0  0  0  0  0  0  0  0
    3.2820    0.8340    0.3284 H   0  0  0  0  0  0  0  0  0  0  0  0
    5.0042   -0.6441    1.1011 H   0  0  0  0  0  0  0  0  0  0  0  0
    5.4805   -3.3162    1.1410 H   0  0  0  0  0  0  0  0  0  0  0  0
    3.2220   -4.4928    0.2092 H   0  0  0  0  0  0  0  0  0  0  0  0
    1.7046   -1.3971   -2.1239 H   0  0  0  0  0  0  0  0  0  0  0  0
   -0.9954   -2.6623   -2.0234 H   0  0  0  0  0  0  0  0  0  0  0  0
   -0.2436   -1.8525   -3.4023 H   0  0  0  0  0  0  0  0  0  0  0  0
   -3.2076   -0.9566    0.6104 H   0  0  0  0  0  0  0  0  0  0  0  0
   -1.5384   -1.3818    1.1028 H   0  0  0  0  0  0  0  0  0  0  0  0
   -2.3430   -2.2287   -0.2181 H   0  0  0  0  0  0  0  0  0  0  0  0
   -2.1976    0.5141    2.0305 H   0  0  0  0  0  0  0  0  0  0  0  0
   -3.0678    2.0168    3.7310 H   0  0  0  0  0  0  0  0  0  0  0  0
   -3.6488    4.3606    3.1724 H   0  0  0  0  0  0  0  0  0  0  0  0
   -3.3626    5.1865    0.8499 H   0  0  0  0  0  0  0  0  0  0  0  0
   -2.5281    3.6882   -0.9056 H   0  0  0  0  0  0  0  0  0  0  0  0
   -0.6875    1.8921   -4.3005 H   0  0  0  0  0  0  0  0  0  0  0  0
    0.8715    1.3704   -3.6289 H   0  0  0  0  0  0  0  0  0  0  0  0
   -0.1729    0.2155   -4.4776 H   0  0  0  0  0  0  0  0  0  0  0  0
  1  2  2  0
  2  3  1  0
  3  4  1  0
  4  5  1  0
  5  6  2  0
  6  7  1  0
  7  8  2  0
  8  9  1  0
  9 10  2  0
  9 11  1  0
 11 12  1  0
 12 13  1  0
 13 14  2  0
 14 15  1  0
 14 16  1  0
 16 17  1  0
 17 18  2  0
 18 19  1  0
 19 20  2  0
 20 21  1  0
 21 22  2  0
 16 23  1  0
 23 24  2  0
 24 25  1  0
  8  4  1  0
 24 13  1  0
 22 17  1  0
  1 26  1  0
  1 27  1  0
  2 28  1  0
  3 29  1  0
  3 30  1  0
  5 31  1  0
  6 32  1  0
  7 33  1  0
 11 34  1  0
 12 35  1  0
 12 36  1  0
 15 37  1  0
 15 38  1  0
 15 39  1  0
 18 40  1  0
 19 41  1  0
 20 42  1  0
 21 43  1  0
 22 44  1  0
 25 45  1  0
 25 46  1  0
 25 47  1  0
M  END
$$$$
OCNT-2316881
     RDKit          3D

  0  0  0  0  0  0  0  0  0  0999 V3000
M  V30 BEGIN CTAB
M  V30 COUNTS 46 48 0 0 0
M  V30 BEGIN ATOM
M  V30 1 C 6.382050 0.075188 1.143473 0
M  V30 2 C 5.500791 0.492269 -0.049755 0
M  V30 3 C 6.389599 0.652064 -1.298509 0
M  V30 4 C 4.874281 1.864503 0.271943 0
M  V30 5 C 4.437400 -0.551807 -0.298867 0
M  V30 6 C 4.585225 -1.882864 -0.628611 0
M  V30 7 O 3.350717 -2.438930 -0.755758 0
M  V30 8 C 2.494384 -1.407113 -0.489893 0
M  V30 9 C 1.038979 -1.706525 -0.556402 0
M  V30 10 N 0.315866 -0.746491 0.254252 0
M  V30 11 C -1.050482 -0.799335 0.295348 0
M  V30 12 O -1.713627 -1.676278 -0.243379 0
M  V30 13 N -1.575313 0.247447 1.016784 0
M  V30 14 C -2.981981 0.341288 1.266412 0 CFG=1
M  V30 15 C -3.618195 1.654259 1.608498 0
M  V30 16 C -3.892439 1.024783 0.264532 0 CFG=2
M  V30 17 C -5.238242 0.415330 -0.048021 0
M  V30 18 C -5.339702 -0.906465 -0.520593 0
M  V30 19 C -6.579672 -1.473822 -0.826137 0
M  V30 20 C -7.735565 -0.719748 -0.669303 0
M  V30 21 F -8.923552 -1.264548 -0.960832 0
M  V30 22 C -7.676062 0.588883 -0.217943 0
M  V30 23 C -6.434637 1.141232 0.082661 0
M  V30 24 F -6.392349 2.412245 0.511480 0
M  V30 25 N 3.091131 -0.260566 -0.214977 0
M  V30 26 H 5.783135 -0.050931 2.053424 0
M  V30 27 H 7.151639 0.827428 1.351193 0
M  V30 28 H 6.893370 -0.875967 0.953815 0
M  V30 29 H 6.906192 -0.282170 -1.547833 0
M  V30 30 H 7.155546 1.421033 -1.145613 0
M  V30 31 H 5.795059 0.940849 -2.173380 0
M  V30 32 H 4.247591 2.220822 -0.554222 0
M  V30 33 H 4.243532 1.815668 1.167587 0
M  V30 34 H 5.646121 2.621614 0.452149 0
M  V30 35 H 5.427478 -2.537890 -0.796969 0
M  V30 36 H 0.820508 -2.713013 -0.184959 0
M  V30 37 H 0.686027 -1.629357 -1.590149 0
M  V30 38 H 0.731471 0.175339 0.298200 0
M  V30 39 H -0.954712 0.646200 1.708523 0
M  V30 40 H -3.370432 -0.530705 1.789445 0
M  V30 41 H -3.003027 2.546327 1.623450 0
M  V30 42 H -4.405386 1.654802 2.354237 0
M  V30 43 H -3.402238 1.497515 -0.584693 0
M  V30 44 H -4.435029 -1.500755 -0.652712 0
M  V30 45 H -6.645342 -2.495940 -1.186188 0
M  V30 46 H -8.580105 1.174133 -0.102624 0
M  V30 END ATOM
M  V30 BEGIN BOND
M  V30 1 1 1 2
M  V30 2 1 2 3
M  V30 3 1 2 4
M  V30 4 1 2 5
M  V30 5 2 5 6
M  V30 6 1 6 7
M  V30 7 1 7 8
M  V30 8 1 8 9
M  V30 9 1 9 10
M  V30 10 1 10 11
M  V30 11 2 11 12
M  V30 12 1 11 13
M  V30 13 1 13 14
M  V30 14 1 14 15
M  V30 15 1 15 16
M  V30 16 1 16 17
M  V30 17 1 17 18
M  V30 18 2 18 19
M  V30 19 1 19 20
M  V30 20 1 20 21
M  V30 21 2 20 22
M  V30 22 1 22 23
M  V30 23 1 23 24
M  V30 24 2 8 25
M  V30 25 1 25 5
M  V30 26 1 16 14
M  V30 27 2 23 17
M  V30 28 1 1 26
M  V30 29 1 1 27
M  V30 30 1 1 28
M  V30 31 1 3 29
M  V30 32 1 3 30
M  V30 33 1 3 31
M  V30 34 1 4 32
M  V30 35 1 4 33
M  V30 36 1 4 34
M  V30 37 1 6 35
M  V30 38 1 9 36
M  V30 39 1 9 37
M  V30 40 1 10 38
M  V30 41 1 13 39
M  V30 42 1 14 40 CFG=1
M  V30 43 1 15 41
M  V30 44 1 15 42
M  V30 45 1 16 43 CFG=3
M  V30 46 1 18 44
M  V30 47 1 19 45
M  V30 48 1 22 46
M  V30 END BOND
M  V30 BEGIN COLLECTION
M  V30 MDLV30/STERAC1 ATOMS=(2 14 16)
M  V30 END COLLECTION
M  V30 END CTAB
M  END
>  <_CXSMILES_Data>  (1170) 
|&1:13,15|

$$$$
OCNT-2316883
     RDKit          3D

 44 46  0  0  0  0  0  0  0  0999 V2000
    5.6688   -0.6539   -2.1629 C   0  0  0  0  0  0  0  0  0  0  0  0
    5.3220   -0.1791   -0.7819 C   0  0  0  0  0  0  0  0  0  0  0  0
    6.2691   -0.2455    0.2445 C   0  0  0  0  0  0  0  0  0  0  0  0
    5.9623    0.1592    1.5480 C   0  0  0  0  0  0  0  0  0  0  0  0
    4.6666    0.6247    1.7955 C   0  0  0  0  0  0  0  0  0  0  0  0
    4.0956    1.0758    2.9619 N   0  0  0  0  0  0  0  0  0  0  0  0
    2.7911    1.4286    2.7453 C   0  0  0  0  0  0  0  0  0  0  0  0
    2.4958    1.2045    1.4146 C   0  0  0  0  0  0  0  0  0  0  0  0
    1.1813    1.4474    0.7466 C   0  0  0  0  0  0  0  0  0  0  0  0
    0.3192    0.1879    0.6759 C   0  0  0  0  0  0  0  0  0  0  0  0
   -0.9389    0.4366   -0.0115 N   0  0  0  0  0  0  0  0  0  0  0  0
   -1.9433   -0.4963    0.0686 C   0  0  0  0  0  0  0  0  0  0  0  0
   -1.9048   -1.5095    0.7496 O   0  0  0  0  0  0  0  0  0  0  0  0
   -3.0081   -0.1309   -0.7201 N   0  0  0  0  0  0  0  0  0  0  0  0
   -4.2186   -0.9344   -0.7261 C   0  0  0  0  0  0  0  0  0  0  0  0
   -5.1503   -0.5555   -1.8907 C   0  0  0  0  0  0  0  0  0  0  0  0
   -6.4638   -0.1276   -1.2452 C   0  0  0  0  0  0  0  0  0  0  0  0
   -6.4621   -0.8816    0.0650 C   0  0  0  0  0  0  0  0  0  0  0  0
   -6.7828   -2.1781   -0.1449 F   0  0  0  0  0  0  0  0  0  0  0  0
   -7.3478   -0.3723    0.9388 F   0  0  0  0  0  0  0  0  0  0  0  0
   -5.0402   -0.7610    0.5553 C   0  0  0  0  0  0  0  0  0  0  0  0
    3.6880    0.6950    0.8051 C   0  0  0  0  0  0  0  0  0  0  0  0
    4.0235    0.2794   -0.5013 C   0  0  0  0  0  0  0  0  0  0  0  0
    5.0967   -0.1064   -2.9193 H   0  0  0  0  0  0  0  0  0  0  0  0
    6.7300   -0.4897   -2.3777 H   0  0  0  0  0  0  0  0  0  0  0  0
    5.4494   -1.7218   -2.2571 H   0  0  0  0  0  0  0  0  0  0  0  0
    7.2701   -0.6189    0.0362 H   0  0  0  0  0  0  0  0  0  0  0  0
    6.7071    0.1060    2.3352 H   0  0  0  0  0  0  0  0  0  0  0  0
    4.5754    1.1321    3.8494 H   0  0  0  0  0  0  0  0  0  0  0  0
    2.1819    1.8053    3.5565 H   0  0  0  0  0  0  0  0  0  0  0  0
    0.6352    2.2344    1.2828 H   0  0  0  0  0  0  0  0  0  0  0  0
    1.3520    1.8380   -0.2648 H   0  0  0  0  0  0  0  0  0  0  0  0
    0.8353   -0.6136    0.1338 H   0  0  0  0  0  0  0  0  0  0  0  0
    0.1028   -0.1875    1.6836 H   0  0  0  0  0  0  0  0  0  0  0  0
   -0.8642    0.8506   -0.9295 H   0  0  0  0  0  0  0  0  0  0  0  0
   -3.1097    0.8694   -0.8210 H   0  0  0  0  0  0  0  0  0  0  0  0
   -3.9212   -1.9857   -0.8326 H   0  0  0  0  0  0  0  0  0  0  0  0
   -5.3206   -1.4382   -2.5193 H   0  0  0  0  0  0  0  0  0  0  0  0
   -4.7485    0.2323   -2.5365 H   0  0  0  0  0  0  0  0  0  0  0  0
   -6.4749    0.9538   -1.0679 H   0  0  0  0  0  0  0  0  0  0  0  0
   -7.3237   -0.3815   -1.8717 H   0  0  0  0  0  0  0  0  0  0  0  0
   -4.8752    0.2199    1.0170 H   0  0  0  0  0  0  0  0  0  0  0  0
   -4.7952   -1.5274    1.2972 H   0  0  0  0  0  0  0  0  0  0  0  0
    3.2751    0.3153   -1.2875 H   0  0  0  0  0  0  0  0  0  0  0  0
  1  2  1  0
  2  3  2  0
  3  4  1  0
  4  5  2  0
  5  6  1  0
  6  7  1  0
  7  8  2  0
  8  9  1  0
  9 10  1  0
 10 11  1  0
 11 12  1  0
 12 13  2  0
 12 14  1  0
 14 15  1  0
 15 16  1  0
 16 17  1  0
 17 18  1  0
 18 19  1  0
 18 20  1  0
 18 21  1  0
  8 22  1  0
 22 23  2  0
 23  2  1  0
 22  5  1  0
 21 15  1  0
  1 24  1  0
  1 25  1  0
  1 26  1  0
  3 27  1  0
  4 28  1  0
  6 29  1  0
  7 30  1  0
  9 31  1  0
  9 32  1  0
 10 33  1  0
 10 34  1  0
 11 35  1  0
 14 36  1  0
 15 37  1  0
 16 38  1  0
 16 39  1  0
 17 40  1  0
 17 41  1  0
 21 42  1  0
 21 43  1  0
 23 44  1  0
M  END
$$$$
OCNT-2316906
     RDKit          3D

 35 37  0  0  0  0  0  0  0  0999 V2000
   -2.7838   -3.4035    1.5823 C   0  0  0  0  0  0  0  0  0  0  0  0
   -3.7207   -2.4317    0.9228 C   0  0  0  0  0  0  0  0  0  0  0  0
   -5.0372   -2.7587    1.0209 N   0  0  0  0  0  0  0  0  0  0  0  0
   -5.9316   -1.9264    0.4521 C   0  0  0  0  0  0  0  0  0  0  0  0
   -5.5777   -0.7741   -0.2198 C   0  0  0  0  0  0  0  0  0  0  0  0
   -4.2252   -0.4505   -0.3158 C   0  0  0  0  0  0  0  0  0  0  0  0
   -3.2591   -1.2772    0.2608 C   0  0  0  0  0  0  0  0  0  0  0  0
   -1.8686   -1.0086    0.1927 N   0  0  0  0  0  0  0  0  0  0  0  0
   -1.2418    0.1074   -0.3483 C   0  0  0  0  0  0  0  0  0  0  0  0
   -1.8226    1.0822   -0.8144 O   0  0  0  0  0  0  0  0  0  0  0  0
    0.2407    0.0367   -0.3010 C   0  0  0  0  0  0  0  0  0  0  0  0
    0.9920    1.1456   -0.4084 N   0  0  0  0  0  0  0  0  0  0  0  0
    2.2803    0.7394   -0.3402 N   0  0  0  0  0  0  0  0  0  0  0  0
    3.3450    1.6802   -0.4266 C   0  0  0  0  0  0  0  0  0  0  0  0
    3.0476    3.0435   -0.5927 C   0  0  0  0  0  0  0  0  0  0  0  0
    4.0742    3.9867   -0.6799 C   0  0  0  0  0  0  0  0  0  0  0  0
    5.4039    3.5778   -0.6020 C   0  0  0  0  0  0  0  0  0  0  0  0
    5.7012    2.2264   -0.4374 C   0  0  0  0  0  0  0  0  0  0  0  0
    7.3455    1.7236   -0.3412 Cl  0  0  0  0  0  0  0  0  0  0  0  0
    4.6837    1.2733   -0.3491 C   0  0  0  0  0  0  0  0  0  0  0  0
    2.3616   -0.6254   -0.1842 C   0  0  0  0  0  0  0  0  0  0  0  0
    1.0737   -1.1044   -0.1610 C   0  0  0  0  0  0  0  0  0  0  0  0
   -3.3375   -4.2294    2.0416 H   0  0  0  0  0  0  0  0  0  0  0  0
   -2.0974   -3.8322    0.8455 H   0  0  0  0  0  0  0  0  0  0  0  0
   -2.2119   -2.9066    2.3721 H   0  0  0  0  0  0  0  0  0  0  0  0
   -6.9722   -2.2206    0.5535 H   0  0  0  0  0  0  0  0  0  0  0  0
   -6.3335   -0.1355   -0.6636 H   0  0  0  0  0  0  0  0  0  0  0  0
   -3.9657    0.4556   -0.8533 H   0  0  0  0  0  0  0  0  0  0  0  0
   -1.2670   -1.6795    0.6450 H   0  0  0  0  0  0  0  0  0  0  0  0
    2.0153    3.3876   -0.6578 H   0  0  0  0  0  0  0  0  0  0  0  0
    3.8327    5.0392   -0.8092 H   0  0  0  0  0  0  0  0  0  0  0  0
    6.2000    4.3144   -0.6704 H   0  0  0  0  0  0  0  0  0  0  0  0
    4.9635    0.2332   -0.2214 H   0  0  0  0  0  0  0  0  0  0  0  0
    3.3046   -1.1455   -0.1156 H   0  0  0  0  0  0  0  0  0  0  0  0
    0.7878   -2.1431   -0.0773 H   0  0  0  0  0  0  0  0  0  0  0  0
  1  2  1  0
  2  3  1  0
  3  4  2  0
  4  5  1  0
  5  6  2  0
  6  7  1  0
  7  8  1  0
  8  9  1  0
  9 10  2  0
  9 11  1  0
 11 12  2  0
 12 13  1  0
 13 14  1  0
 14 15  2  0
 15 16  1  0
 16 17  2  0
 17 18  1  0
 18 19  1  0
 18 20  2  0
 13 21  1  0
 21 22  2  0
  7  2  2  0
 22 11  1  0
 20 14  1  0
  1 23  1  0
  1 24  1  0
  1 25  1  0
  4 26  1  0
  5 27  1  0
  6 28  1  0
  8 29  1  0
 15 30  1  0
 16 31  1  0
 17 32  1  0
 20 33  1  0
 21 34  1  0
 22 35  1  0
M  END
$$$$
OCNT-2316908
     RDKit          3D

 39 41  0  0  0  0  0  0  0  0999 V2000
   -5.9374    0.0935   -0.2633 C   0  0  0  0  0  0  0  0  0  0  0  0
   -4.4357    0.0586   -0.1684 C   0  0  0  0  0  0  0  0  0  0  0  0
   -3.8355   -0.3997    1.0150 C   0  0  0  0  0  0  0  0  0  0  0  0
   -2.4514   -0.4318    1.1022 C   0  0  0  0  0  0  0  0  0  0  0  0
   -1.6489   -0.0194    0.0418 C   0  0  0  0  0  0  0  0  0  0  0  0
   -2.2196    0.4361   -1.1344 C   0  0  0  0  0  0  0  0  0  0  0  0
   -3.6223    0.4794   -1.2507 C   0  0  0  0  0  0  0  0  0  0  0  0
   -4.2302    0.9770   -2.5352 C   0  0  0  0  0  0  0  0  0  0  0  0
   -0.2880   -0.1494    0.3816 N   0  0  0  0  0  0  0  0  0  0  0  0
    0.7898    0.1699   -0.4380 C   0  0  0  0  0  0  0  0  0  0  0  0
    0.6842    0.6132   -1.5817 O   0  0  0  0  0  0  0  0  0  0  0  0
    2.1710   -0.0729    0.1931 C   0  0  0  0  0  0  0  0  0  0  0  0
    3.2226    0.2752   -0.7002 O   0  0  0  0  0  0  0  0  0  0  0  0
    4.4988    0.1033   -0.2518 C   0  0  0  0  0  0  0  0  0  0  0  0
    5.5022    0.4541   -1.1518 C   0  0  0  0  0  0  0  0  0  0  0  0
    6.8404    0.3165   -0.7915 C   0  0  0  0  0  0  0  0  0  0  0  0
    7.1315   -0.1728    0.4705 C   0  0  0  0  0  0  0  0  0  0  0  0
    6.1901   -0.5243    1.3726 N   0  0  0  0  0  0  0  0  0  0  0  0
    4.8974   -0.3777    0.9893 C   0  0  0  0  0  0  0  0  0  0  0  0
   -0.2045   -0.6811    1.7534 C   0  0  0  0  0  0  0  0  0  0  0  0
   -1.6346   -0.8829    2.2675 C   0  0  0  0  0  0  0  0  0  0  0  0
   -6.2819   -0.5502   -1.0787 H   0  0  0  0  0  0  0  0  0  0  0  0
   -6.4067   -0.2642    0.6594 H   0  0  0  0  0  0  0  0  0  0  0  0
   -6.2840    1.1177   -0.4331 H   0  0  0  0  0  0  0  0  0  0  0  0
   -4.4416   -0.7265    1.8553 H   0  0  0  0  0  0  0  0  0  0  0  0
   -1.6011    0.7594   -1.9657 H   0  0  0  0  0  0  0  0  0  0  0  0
   -3.4614    1.2592   -3.2624 H   0  0  0  0  0  0  0  0  0  0  0  0
   -4.8443    0.1950   -2.9927 H   0  0  0  0  0  0  0  0  0  0  0  0
   -4.8452    1.8625   -2.3463 H   0  0  0  0  0  0  0  0  0  0  0  0
    2.2390    0.5479    1.0937 H   0  0  0  0  0  0  0  0  0  0  0  0
    2.2415   -1.1385    0.4395 H   0  0  0  0  0  0  0  0  0  0  0  0
    5.2388    0.8353   -2.1352 H   0  0  0  0  0  0  0  0  0  0  0  0
    7.6336    0.5848   -1.4799 H   0  0  0  0  0  0  0  0  0  0  0  0
    8.1593   -0.2985    0.7989 H   0  0  0  0  0  0  0  0  0  0  0  0
    4.1883   -0.6752    1.7531 H   0  0  0  0  0  0  0  0  0  0  0  0
    0.3467    0.0284    2.3804 H   0  0  0  0  0  0  0  0  0  0  0  0
    0.3496   -1.6262    1.7390 H   0  0  0  0  0  0  0  0  0  0  0  0
   -1.8241   -1.9346    2.5036 H   0  0  0  0  0  0  0  0  0  0  0  0
   -1.8267   -0.2667    3.1513 H   0  0  0  0  0  0  0  0  0  0  0  0
  1  2  1  0
  2  3  1  0
  3  4  2  0
  4  5  1  0
  5  6  2  0
  6  7  1  0
  7  8  1  0
  5  9  1  0
  9 10  1  0
 10 11  2  0
 10 12  1  0
 12 13  1  0
 13 14  1  0
 14 15  1  0
 15 16  2  0
 16 17  1  0
 17 18  2  0
 18 19  1  0
  9 20  1  0
 20 21  1  0
  7  2  2  0
 19 14  2  0
 21  4  1  0
  1 22  1  0
  1 23  1  0
  1 24  1  0
  3 25  1  0
  6 26  1  0
  8 27  1  0
  8 28  1  0
  8 29  1  0
 12 30  1  0
 12 31  1  0
 15 32  1  0
 16 33  1  0
 17 34  1  0
 19 35  1  0
 20 36  1  0
 20 37  1  0
 21 38  1  0
 21 39  1  0
M  END
$$$$
OCNT-2316913
     RDKit          3D

 43 44  0  0  0  0  0  0  0  0999 V2000
   -3.1464    0.6998    2.0407 C   0  0  0  0  0  0  0  0  0  0  0  0
   -3.3399    0.6810    0.5133 C   0  0  0  0  0  0  0  0  0  0  0  0
   -3.2524    2.1238   -0.0189 C   0  0  0  0  0  0  0  0  0  0  0  0
   -4.7606    0.1505    0.2171 C   0  0  0  0  0  0  0  0  0  0  0  0
   -2.2943   -0.2556   -0.1711 C   0  0  0  0  0  0  0  0  0  0  0  0
   -0.8115    0.1380    0.0787 C   0  0  0  0  0  0  0  0  0  0  0  0
    0.0835   -0.8137   -0.6246 N   0  0  0  0  0  0  0  0  0  0  0  0
    1.4491   -0.5725   -0.3783 C   0  0  0  0  0  0  0  0  0  0  0  0
    1.9463   -0.6851    0.9211 C   0  0  0  0  0  0  0  0  0  0  0  0
    3.3041   -0.4721    1.1879 C   0  0  0  0  0  0  0  0  0  0  0  0
    3.8136   -0.5650    2.5997 C   0  0  0  0  0  0  0  0  0  0  0  0
    5.2106   -0.8236    2.6182 O   0  0  0  0  0  0  0  0  0  0  0  0
    4.1342   -0.1335    0.1204 C   0  0  0  0  0  0  0  0  0  0  0  0
    3.5964   -0.0507   -1.1613 C   0  0  0  0  0  0  0  0  0  0  0  0
    4.5198    0.2786   -2.3245 C   0  0  0  0  0  0  0  0  0  0  0  0
    3.8736    0.5576   -3.4928 F   0  0  0  0  0  0  0  0  0  0  0  0
    5.3841   -0.7381   -2.6139 F   0  0  0  0  0  0  0  0  0  0  0  0
    5.3092    1.3668   -2.0769 F   0  0  0  0  0  0  0  0  0  0  0  0
    2.2730   -0.2761   -1.4042 N   0  0  0  0  0  0  0  0  0  0  0  0
   -0.2346   -0.8833   -2.0686 C   0  0  0  0  0  0  0  0  0  0  0  0
   -1.7150   -1.2379   -2.2513 C   0  0  0  0  0  0  0  0  0  0  0  0
   -2.5654   -0.2870   -1.5916 O   0  0  0  0  0  0  0  0  0  0  0  0
   -3.9551    1.2501    2.5343 H   0  0  0  0  0  0  0  0  0  0  0  0
   -2.2093    1.1868    2.3280 H   0  0  0  0  0  0  0  0  0  0  0  0
   -3.1394   -0.3163    2.4495 H   0  0  0  0  0  0  0  0  0  0  0  0
   -3.3705    2.1599   -1.1066 H   0  0  0  0  0  0  0  0  0  0  0  0
   -2.2945    2.5901    0.2324 H   0  0  0  0  0  0  0  0  0  0  0  0
   -4.0389    2.7505    0.4174 H   0  0  0  0  0  0  0  0  0  0  0  0
   -5.5232    0.7558    0.7231 H   0  0  0  0  0  0  0  0  0  0  0  0
   -4.9856    0.1742   -0.8545 H   0  0  0  0  0  0  0  0  0  0  0  0
   -4.8745   -0.8839    0.5620 H   0  0  0  0  0  0  0  0  0  0  0  0
   -2.4500   -1.2744    0.2133 H   0  0  0  0  0  0  0  0  0  0  0  0
   -0.6177    1.1490   -0.2992 H   0  0  0  0  0  0  0  0  0  0  0  0
   -0.6158    0.1247    1.1547 H   0  0  0  0  0  0  0  0  0  0  0  0
    1.2773   -0.9706    1.7274 H   0  0  0  0  0  0  0  0  0  0  0  0
    3.6258    0.3799    3.1201 H   0  0  0  0  0  0  0  0  0  0  0  0
    3.3135   -1.3803    3.1330 H   0  0  0  0  0  0  0  0  0  0  0  0
    5.4637   -0.9161    3.5520 H   0  0  0  0  0  0  0  0  0  0  0  0
    5.1941    0.0503    0.2817 H   0  0  0  0  0  0  0  0  0  0  0  0
    0.3712   -1.6507   -2.5639 H   0  0  0  0  0  0  0  0  0  0  0  0
   -0.0439    0.0869   -2.5443 H   0  0  0  0  0  0  0  0  0  0  0  0
   -1.9713   -1.2279   -3.3155 H   0  0  0  0  0  0  0  0  0  0  0  0
   -1.9335   -2.2401   -1.8639 H   0  0  0  0  0  0  0  0  0  0  0  0
  1  2  1  0
  2  3  1  0
  2  4  1  0
  2  5  1  0
  5  6  1  0
  6  7  1  0
  7  8  1  0
  8  9  1  0
  9 10  2  0
 10 11  1  0
 11 12  1  0
 10 13  1  0
 13 14  2  0
 14 15  1  0
 15 16  1  0
 15 17  1  0
 15 18  1  0
 14 19  1  0
  7 20  1  0
 20 21  1  0
 21 22  1  0
 22  5  1  0
 19  8  2  0
  1 23  1  0
  1 24  1  0
  1 25  1  0
  3 26  1  0
  3 27  1  0
  3 28  1  0
  4 29  1  0
  4 30  1  0
  4 31  1  0
  5 32  1  0
  6 33  1  0
  6 34  1  0
  9 35  1  0
 11 36  1  0
 11 37  1  0
 12 38  1  0
 13 39  1  0
 20 40  1  0
 20 41  1  0
 21 42  1  0
 21 43  1  0
M  END
$$$$
OCNT-2316922
     RDKit          3D

 38 40  0  0  0  0  0  0  0  0999 V2000
   -2.4651   -0.5578   -2.5019 C   0  0  0  0  0  0  0  0  0  0  0  0
   -2.0044   -0.8018   -1.0636 C   0  0  1  0  0  0  0  0  0  0  0  0
   -0.5958   -0.4665   -0.9105 N   0  0  0  0  0  0  0  0  0  0  0  0
    0.1737   -1.1094    0.0276 C   0  0  0  0  0  0  0  0  0  0  0  0
   -0.2606   -2.0275    0.7174 O   0  0  0  0  0  0  0  0  0  0  0  0
    1.4805   -0.6399    0.1196 N   0  0  0  0  0  0  0  0  0  0  0  0
    2.3513   -1.3224    1.1050 C   0  0  0  0  0  0  0  0  0  0  0  0
    3.4540   -0.4098    1.6826 C   0  0  0  0  0  0  0  0  0  0  0  0
    4.0835    0.3560    0.5850 C   0  0  0  0  0  0  0  0  0  0  0  0
    3.4578    0.5226   -0.6277 C   0  0  0  0  0  0  0  0  0  0  0  0
    2.1444   -0.0160   -1.0432 C   0  0  0  0  0  0  0  0  0  0  0  0
    4.2984    1.2733   -1.3914 N   0  0  0  0  0  0  0  0  0  0  0  0
    5.4345    1.6039   -0.7473 N   0  0  0  0  0  0  0  0  0  0  0  0
    5.2978    1.0460    0.4612 C   0  0  0  0  0  0  0  0  0  0  0  0
   -2.8842   -0.0753   -0.0554 C   0  0  0  0  0  0  0  0  0  0  0  0
   -3.7536   -0.8530    0.7365 C   0  0  0  0  0  0  0  0  0  0  0  0
   -4.6063   -0.2645    1.6730 C   0  0  0  0  0  0  0  0  0  0  0  0
   -4.6089    1.1155    1.8402 C   0  0  0  0  0  0  0  0  0  0  0  0
   -3.7540    1.9052    1.0742 C   0  0  0  0  0  0  0  0  0  0  0  0
   -2.8964    1.3186    0.1349 C   0  0  0  0  0  0  0  0  0  0  0  0
   -1.8592    2.3898   -0.7441 Cl  0  0  0  0  0  0  0  0  0  0  0  0
   -2.3498    0.4854   -2.8104 H   0  0  0  0  0  0  0  0  0  0  0  0
   -1.8741   -1.1635   -3.1984 H   0  0  0  0  0  0  0  0  0  0  0  0
   -3.5188   -0.8296   -2.6286 H   0  0  0  0  0  0  0  0  0  0  0  0
   -2.0922   -1.8826   -0.8914 H   0  0  0  0  0  0  0  0  0  0  0  0
   -0.4100    0.5243   -0.9632 H   0  0  0  0  0  0  0  0  0  0  0  0
    2.7975   -2.1830    0.5895 H   0  0  0  0  0  0  0  0  0  0  0  0
    1.7536   -1.7165    1.9346 H   0  0  0  0  0  0  0  0  0  0  0  0
    3.0071    0.2950    2.3941 H   0  0  0  0  0  0  0  0  0  0  0  0
    4.1927   -1.0108    2.2230 H   0  0  0  0  0  0  0  0  0  0  0  0
    1.5241    0.7851   -1.4543 H   0  0  0  0  0  0  0  0  0  0  0  0
    2.2672   -0.7891   -1.8102 H   0  0  0  0  0  0  0  0  0  0  0  0
    4.1769    1.5961   -2.3459 H   0  0  0  0  0  0  0  0  0  0  0  0
    6.0888    1.1699    1.1898 H   0  0  0  0  0  0  0  0  0  0  0  0
   -3.7630   -1.9377    0.6354 H   0  0  0  0  0  0  0  0  0  0  0  0
   -5.2629   -0.8882    2.2750 H   0  0  0  0  0  0  0  0  0  0  0  0
   -5.2689    1.5756    2.5709 H   0  0  0  0  0  0  0  0  0  0  0  0
   -3.7561    2.9831    1.2182 H   0  0  0  0  0  0  0  0  0  0  0  0
  1  2  1  0
  2  3  1  0
  3  4  1  0
  4  5  2  0
  4  6  1  0
  6  7  1  0
  7  8  1  0
  8  9  1  0
  9 10  2  0
 10 11  1  0
 10 12  1  0
 12 13  1  0
 13 14  2  0
  2 15  1  0
 15 16  2  0
 16 17  1  0
 17 18  2  0
 18 19  1  0
 19 20  2  0
 20 21  1  0
 11  6  1  0
 20 15  1  0
 14  9  1  0
  1 22  1  0
  1 23  1  0
  1 24  1  0
  2 25  1  1
  3 26  1  0
  7 27  1  0
  7 28  1  0
  8 29  1  0
  8 30  1  0
 11 31  1  0
 11 32  1  0
 12 33  1  0
 14 34  1  0
 16 35  1  0
 17 36  1  0
 18 37  1  0
 19 38  1  0
M  END
$$$$
OCNT-2316954
     RDKit          3D

 44 45  0  0  0  0  0  0  0  0999 V2000
   -6.1409   -0.6979    0.1377 C   0  0  0  0  0  0  0  0  0  0  0  0
   -5.0802   -0.9115   -0.9135 C   0  0  0  0  0  0  0  0  0  0  0  0
   -5.4010   -1.1929   -2.0686 O   0  0  0  0  0  0  0  0  0  0  0  0
   -3.7580   -0.7671   -0.5177 N   0  0  0  0  0  0  0  0  0  0  0  0
   -3.3376   -0.3245    0.8120 C   0  0  0  0  0  0  0  0  0  0  0  0
   -2.0066    0.4170    0.7589 C   0  0  0  0  0  0  0  0  0  0  0  0
   -0.8752   -0.4533    0.1756 C   0  0  0  0  0  0  0  0  0  0  0  0
    0.2255    0.4012   -0.4924 C   0  0  0  0  0  0  0  0  0  0  0  0
    0.8534    1.3095    0.4694 N   0  0  0  0  0  0  0  0  0  0  0  0
    1.8810    2.1772   -0.1334 C   0  0  0  0  0  0  0  0  0  0  0  0
    3.1298    1.5032   -0.7803 C   0  0  2  0  0  0  0  0  0  0  0  0
    2.8046    1.0061   -2.0838 O   0  0  0  0  0  0  0  0  0  0  0  0
    3.7824    0.4276    0.0733 C   0  0  0  0  0  0  0  0  0  0  0  0
    4.2679    0.7429    1.3534 C   0  0  0  0  0  0  0  0  0  0  0  0
    4.8622   -0.2359    2.1551 C   0  0  0  0  0  0  0  0  0  0  0  0
    4.9870   -1.5470    1.6891 C   0  0  0  0  0  0  0  0  0  0  0  0
    5.7258   -2.7050    2.7370 Cl  0  0  0  0  0  0  0  0  0  0  0  0
    4.5206   -1.8766    0.4131 C   0  0  0  0  0  0  0  0  0  0  0  0
    4.6417   -3.4748   -0.2338 Cl  0  0  0  0  0  0  0  0  0  0  0  0
    3.9275   -0.8935   -0.3867 C   0  0  0  0  0  0  0  0  0  0  0  0
   -1.4183   -1.5076   -0.8111 C   0  0  0  0  0  0  0  0  0  0  0  0
   -2.7064   -1.0574   -1.4908 C   0  0  0  0  0  0  0  0  0  0  0  0
   -7.0908   -1.1040   -0.2224 H   0  0  0  0  0  0  0  0  0  0  0  0
   -5.8870   -1.2228    1.0623 H   0  0  0  0  0  0  0  0  0  0  0  0
   -6.2661    0.3712    0.3255 H   0  0  0  0  0  0  0  0  0  0  0  0
   -3.2597   -1.2161    1.4454 H   0  0  0  0  0  0  0  0  0  0  0  0
   -4.0979    0.3292    1.2495 H   0  0  0  0  0  0  0  0  0  0  0  0
   -1.7335    0.7521    1.7667 H   0  0  0  0  0  0  0  0  0  0  0  0
   -2.1371    1.3211    0.1492 H   0  0  0  0  0  0  0  0  0  0  0  0
   -0.4071   -1.0058    1.0032 H   0  0  0  0  0  0  0  0  0  0  0  0
   -0.2030    0.9693   -1.3275 H   0  0  0  0  0  0  0  0  0  0  0  0
    0.9752   -0.2831   -0.9011 H   0  0  0  0  0  0  0  0  0  0  0  0
    0.1426    1.8997    0.8995 H   0  0  0  0  0  0  0  0  0  0  0  0
    1.3992    2.8282   -0.8740 H   0  0  0  0  0  0  0  0  0  0  0  0
    2.2346    2.8336    0.6714 H   0  0  0  0  0  0  0  0  0  0  0  0
    3.8875    2.2805   -0.9449 H   0  0  0  0  0  0  0  0  0  0  0  0
    2.4733    1.7569   -2.6028 H   0  0  0  0  0  0  0  0  0  0  0  0
    4.1785    1.7554    1.7447 H   0  0  0  0  0  0  0  0  0  0  0  0
    5.2207    0.0317    3.1472 H   0  0  0  0  0  0  0  0  0  0  0  0
    3.5650   -1.1627   -1.3780 H   0  0  0  0  0  0  0  0  0  0  0  0
   -0.6670   -1.7710   -1.5648 H   0  0  0  0  0  0  0  0  0  0  0  0
   -1.6265   -2.4299   -0.2514 H   0  0  0  0  0  0  0  0  0  0  0  0
   -3.0476   -1.8332   -2.1854 H   0  0  0  0  0  0  0  0  0  0  0  0
   -2.5380   -0.1445   -2.0748 H   0  0  0  0  0  0  0  0  0  0  0  0
  1  2  1  0
  2  3  2  0
  2  4  1  0
  4  5  1  0
  5  6  1  0
  6  7  1  0
  7  8  1  0
  8  9  1  0
  9 10  1  0
 10 11  1  0
 11 12  1  0
 11 13  1  0
 13 14  1  0
 14 15  2  0
 15 16  1  0
 16 17  1  0
 16 18  2  0
 18 19  1  0
 18 20  1  0
  7 21  1  0
 21 22  1  0
 22  4  1  0
 20 13  2  0
  1 23  1  0
  1 24  1  0
  1 25  1  0
  5 26  1  0
  5 27  1  0
  6 28  1  0
  6 29  1  0
  7 30  1  0
  8 31  1  0
  8 32  1  0
  9 33  1  0
 10 34  1  0
 10 35  1  0
 11 36  1  6
 12 37  1  0
 14 38  1  0
 15 39  1  0
 20 40  1  0
 21 41  1  0
 21 42  1  0
 22 43  1  0
 22 44  1  0
M  END
$$$$
OCNT-2316961
     RDKit          3D

 48 51  0  0  0  0  0  0  0  0999 V2000
   -0.7593   -2.5273    0.7331 O   0  0  0  0  0  0  0  0  0  0  0  0
   -0.7023   -1.7045   -0.1777 C   0  0  0  0  0  0  0  0  0  0  0  0
    0.3837   -0.9098   -0.4382 N   0  0  0  0  0  0  0  0  0  0  0  0
    1.6127   -1.0293    0.1667 C   0  0  0  0  0  0  0  0  0  0  0  0
    2.5126   -0.0622   -0.0084 N   0  0  0  0  0  0  0  0  0  0  0  0
    3.6049   -0.4553    0.6963 N   0  0  0  0  0  0  0  0  0  0  0  0
    4.7712    0.3601    0.7502 C   0  0  0  0  0  0  0  0  0  0  0  0
    4.7833    1.5913    0.0756 C   0  0  0  0  0  0  0  0  0  0  0  0
    5.9165    2.4066    0.1159 C   0  0  0  0  0  0  0  0  0  0  0  0
    7.0432    2.0009    0.8276 C   0  0  0  0  0  0  0  0  0  0  0  0
    7.0393    0.7802    1.5006 C   0  0  0  0  0  0  0  0  0  0  0  0
    5.9084   -0.0415    1.4652 C   0  0  0  0  0  0  0  0  0  0  0  0
    3.3984   -1.6807    1.2892 C   0  0  0  0  0  0  0  0  0  0  0  0
    2.1223   -2.0719    0.9610 C   0  0  0  0  0  0  0  0  0  0  0  0
   -1.7984   -1.4719   -1.0242 N   0  0  0  0  0  0  0  0  0  0  0  0
   -3.1026   -1.9760   -0.6079 C   0  0  0  0  0  0  0  0  0  0  0  0
   -4.1886   -0.8973   -0.5221 C   0  0  0  0  0  0  0  0  0  0  0  0
   -3.6454    0.4961   -0.1520 C   0  0  0  0  0  0  0  0  0  0  0  0
   -2.9705    0.6307    1.2578 C   0  0  0  0  0  0  0  0  0  0  0  0
   -4.3550    0.9688    1.8378 C   0  0  0  0  0  0  0  0  0  0  0  0
   -4.7637    1.4345    0.4295 C   0  0  0  0  0  0  0  0  0  0  0  0
   -2.6961    1.3506   -1.5017 S   0  0  0  0  0  0  0  0  0  0  0  0
   -3.5166    2.4148   -2.0548 O   0  0  0  0  0  0  0  0  0  0  0  0
   -1.3407    1.6390   -1.0616 O   0  0  0  0  0  0  0  0  0  0  0  0
   -2.5546    0.1455   -2.7881 C   0  0  0  0  0  0  0  0  0  0  0  0
   -1.6435   -0.9987   -2.4024 C   0  0  0  0  0  0  0  0  0  0  0  0
    0.2317    0.0089   -0.8379 H   0  0  0  0  0  0  0  0  0  0  0  0
    3.9143    1.9313   -0.4853 H   0  0  0  0  0  0  0  0  0  0  0  0
    5.9161    3.3588   -0.4084 H   0  0  0  0  0  0  0  0  0  0  0  0
    7.9241    2.6370    0.8586 H   0  0  0  0  0  0  0  0  0  0  0  0
    7.9199    0.4669    2.0562 H   0  0  0  0  0  0  0  0  0  0  0  0
    5.9506   -0.9823    2.0045 H   0  0  0  0  0  0  0  0  0  0  0  0
    4.1490   -2.1714    1.8879 H   0  0  0  0  0  0  0  0  0  0  0  0
    1.6305   -2.9859    1.2626 H   0  0  0  0  0  0  0  0  0  0  0  0
   -3.0252   -2.4425    0.3804 H   0  0  0  0  0  0  0  0  0  0  0  0
   -3.4056   -2.7707   -1.2993 H   0  0  0  0  0  0  0  0  0  0  0  0
   -4.7444   -0.8420   -1.4642 H   0  0  0  0  0  0  0  0  0  0  0  0
   -4.9331   -1.2353    0.2105 H   0  0  0  0  0  0  0  0  0  0  0  0
   -2.2590    1.4585    1.3583 H   0  0  0  0  0  0  0  0  0  0  0  0
   -2.5103   -0.2678    1.6760 H   0  0  0  0  0  0  0  0  0  0  0  0
   -4.9112    0.0968    2.1994 H   0  0  0  0  0  0  0  0  0  0  0  0
   -4.3677    1.7388    2.6136 H   0  0  0  0  0  0  0  0  0  0  0  0
   -4.6003    2.5091    0.2854 H   0  0  0  0  0  0  0  0  0  0  0  0
   -5.7925    1.2023    0.1394 H   0  0  0  0  0  0  0  0  0  0  0  0
   -2.1495    0.6574   -3.6682 H   0  0  0  0  0  0  0  0  0  0  0  0
   -3.5563   -0.1911   -3.0637 H   0  0  0  0  0  0  0  0  0  0  0  0
   -0.6060   -0.7139   -2.6003 H   0  0  0  0  0  0  0  0  0  0  0  0
   -1.8346   -1.8553   -3.0605 H   0  0  0  0  0  0  0  0  0  0  0  0
  1  2  2  0
  2  3  1  0
  3  4  1  0
  4  5  2  0
  5  6  1  0
  6  7  1  0
  7  8  2  0
  8  9  1  0
  9 10  2  0
 10 11  1  0
 11 12  2  0
  6 13  1  0
 13 14  2  0
  2 15  1  0
 15 16  1  0
 16 17  1  0
 17 18  1  0
 18 19  1  0
 19 20  1  0
 20 21  1  0
 18 22  1  0
 22 23  2  0
 22 24  2  0
 22 25  1  0
 25 26  1  0
 14  4  1  0
 26 15  1  0
 12  7  1  0
 21 18  1  0
  3 27  1  0
  8 28  1  0
  9 29  1  0
 10 30  1  0
 11 31  1  0
 12 32  1  0
 13 33  1  0
 14 34  1  0
 16 35  1  0
 16 36  1  0
 17 37  1  0
 17 38  1  0
 19 39  1  0
 19 40  1  0
 20 41  1  0
 20 42  1  0
 21 43  1  0
 21 44  1  0
 25 45  1  0
 25 46  1  0
 26 47  1  0
 26 48  1  0
M  END
$$$$
OCNT-2316966
     RDKit          3D

 44 46  0  0  0  0  0  0  0  0999 V2000
    4.9309   -1.9456   -1.7328 O   0  0  0  0  0  0  0  0  0  0  0  0
    4.9376   -0.9669   -0.9913 C   0  0  0  0  0  0  0  0  0  0  0  0
    5.8559   -0.9663    0.1817 C   0  0  0  0  0  0  0  0  0  0  0  0
    5.9691    0.1203    0.9547 C   0  0  0  0  0  0  0  0  0  0  0  0
    5.2066    1.3042    0.6602 C   0  0  0  0  0  0  0  0  0  0  0  0
    4.3437    1.3075   -0.3627 C   0  0  0  0  0  0  0  0  0  0  0  0
    4.1629    0.1875   -1.1613 N   0  0  0  0  0  0  0  0  0  0  0  0
    3.2141    0.2325   -2.2791 C   0  0  0  0  0  0  0  0  0  0  0  0
    1.7706    0.5574   -1.8853 C   0  0  0  0  0  0  0  0  0  0  0  0
    1.0881   -0.5601   -1.1142 C   0  0  0  0  0  0  0  0  0  0  0  0
    1.5659   -1.6907   -1.0497 O   0  0  0  0  0  0  0  0  0  0  0  0
   -0.1277   -0.2434   -0.5085 N   0  0  0  0  0  0  0  0  0  0  0  0
   -0.8124    1.0400   -0.6607 C   0  0  0  0  0  0  0  0  0  0  0  0
   -2.3026    0.9392   -0.3595 C   0  0  0  0  0  0  0  0  0  0  0  0
   -2.5474    0.4190    1.0671 C   0  0  0  0  0  0  0  0  0  0  0  0
   -3.9906   -0.0195    1.2424 C   0  0  0  0  0  0  0  0  0  0  0  0
   -4.8612    0.7349    2.0365 C   0  0  0  0  0  0  0  0  0  0  0  0
   -6.1768    0.3168    2.1748 C   0  0  0  0  0  0  0  0  0  0  0  0
   -6.6815   -0.7850    1.5828 N   0  0  0  0  0  0  0  0  0  0  0  0
   -5.8309   -1.5009    0.8188 C   0  0  0  0  0  0  0  0  0  0  0  0
   -4.4996   -1.1646    0.6199 C   0  0  0  0  0  0  0  0  0  0  0  0
   -1.5330   -0.6655    1.4836 C   0  0  0  0  0  0  0  0  0  0  0  0
   -0.7907   -1.2697    0.2957 C   0  0  0  0  0  0  0  0  0  0  0  0
    6.4146   -1.8760    0.3571 H   0  0  0  0  0  0  0  0  0  0  0  0
    6.6379    0.1306    1.8085 H   0  0  0  0  0  0  0  0  0  0  0  0
    5.3486    2.1823    1.2811 H   0  0  0  0  0  0  0  0  0  0  0  0
    3.7667    2.1947   -0.6009 H   0  0  0  0  0  0  0  0  0  0  0  0
    3.5793    1.0058   -2.9670 H   0  0  0  0  0  0  0  0  0  0  0  0
    3.2385   -0.7108   -2.8362 H   0  0  0  0  0  0  0  0  0  0  0  0
    1.7325    1.4810   -1.3008 H   0  0  0  0  0  0  0  0  0  0  0  0
    1.1953    0.7124   -2.8057 H   0  0  0  0  0  0  0  0  0  0  0  0
   -0.3312    1.7486    0.0235 H   0  0  0  0  0  0  0  0  0  0  0  0
   -0.6725    1.4132   -1.6797 H   0  0  0  0  0  0  0  0  0  0  0  0
   -2.7665    0.2776   -1.1028 H   0  0  0  0  0  0  0  0  0  0  0  0
   -2.7768    1.9206   -0.4839 H   0  0  0  0  0  0  0  0  0  0  0  0
   -2.3783    1.2639    1.7506 H   0  0  0  0  0  0  0  0  0  0  0  0
   -4.5310    1.6348    2.5449 H   0  0  0  0  0  0  0  0  0  0  0  0
   -6.8798    0.8767    2.7848 H   0  0  0  0  0  0  0  0  0  0  0  0
   -6.2596   -2.3832    0.3519 H   0  0  0  0  0  0  0  0  0  0  0  0
   -3.8828   -1.7921   -0.0139 H   0  0  0  0  0  0  0  0  0  0  0  0
   -2.0013   -1.4587    2.0783 H   0  0  0  0  0  0  0  0  0  0  0  0
   -0.7863   -0.1972    2.1401 H   0  0  0  0  0  0  0  0  0  0  0  0
   -1.4796   -1.8067   -0.3657 H   0  0  0  0  0  0  0  0  0  0  0  0
   -0.0587   -1.9987    0.6598 H   0  0  0  0  0  0  0  0  0  0  0  0
  1  2  2  0
  2  3  1  0
  3  4  2  0
  4  5  1  0
  5  6  2  0
  6  7  1  0
  7  8  1  0
  8  9  1  0
  9 10  1  0
 10 11  2  0
 10 12  1  0
 12 13  1  0
 13 14  1  0
 14 15  1  0
 15 16  1  0
 16 17  2  0
 17 18  1  0
 18 19  2  0
 19 20  1  0
 20 21  2  0
 15 22  1  0
 22 23  1  0
  7  2  1  0
 23 12  1  0
 21 16  1  0
  3 24  1  0
  4 25  1  0
  5 26  1  0
  6 27  1  0
  8 28  1  0
  8 29  1  0
  9 30  1  0
  9 31  1  0
 13 32  1  0
 13 33  1  0
 14 34  1  0
 14 35  1  0
 15 36  1  0
 17 37  1  0
 18 38  1  0
 20 39  1  0
 21 40  1  0
 22 41  1  0
 22 42  1  0
 23 43  1  0
 23 44  1  0
M  END
$$$$
OCNT-2316971
     RDKit          3D

  0  0  0  0  0  0  0  0  0  0999 V3000
M  V30 BEGIN CTAB
M  V30 COUNTS 40 43 0 0 0
M  V30 BEGIN ATOM
M  V30 1 C 8.386279 0.998350 -1.249043 0
M  V30 2 C 7.265980 0.624177 -1.032488 0
M  V30 3 C 5.933535 0.178908 -0.774741 0
M  V30 4 C 5.062451 0.937509 0.000715 0
M  V30 5 C 3.766561 0.471777 0.234781 0
M  V30 6 C 3.377605 -0.747333 -0.318774 0
M  V30 7 C 2.040073 -1.308597 -0.131509 0
M  V30 8 N 1.668915 -2.574078 -0.215467 0
M  V30 9 N 0.318113 -2.660225 0.032090 0
M  V30 10 C -0.131345 -1.445008 0.247218 0
M  V30 11 C -1.547111 -1.053395 0.549279 0 CFG=1
M  V30 12 C -1.741027 -0.776610 2.027875 0
M  V30 13 C -1.375784 0.687714 2.165400 0
M  V30 14 O -1.443147 1.283510 0.857845 0
M  V30 15 C -1.924553 0.291370 -0.082650 0 CFG=2
M  V30 16 C -3.411108 0.456091 -0.361968 0
M  V30 17 C -4.050852 -0.426864 -1.249435 0
M  V30 18 C -5.411291 -0.295398 -1.535803 0
M  V30 19 C -6.151567 0.727317 -0.949432 0
M  V30 20 C -5.530542 1.622838 -0.082832 0
M  V30 21 C -4.169709 1.491990 0.204476 0
M  V30 22 N 0.920275 -0.569008 0.155890 0
M  V30 23 N 4.214258 -1.495959 -1.075829 0
M  V30 24 C 5.466039 -1.022322 -1.284961 0
M  V30 25 H 9.380979 1.328014 -1.441864 0
M  V30 26 H 5.385080 1.883270 0.428689 0
M  V30 27 H 3.097998 1.057183 0.855415 0
M  V30 28 H -2.190610 -1.877255 0.220964 0
M  V30 29 H -1.155602 -1.415817 2.696528 0
M  V30 30 H -2.797327 -0.908733 2.293454 0
M  V30 31 H -2.052746 1.218949 2.841286 0
M  V30 32 H -0.354261 0.814623 2.537807 0
M  V30 33 H -1.403563 0.471735 -1.031362 0
M  V30 34 H -3.492319 -1.226992 -1.732629 0
M  V30 35 H -5.891509 -0.989600 -2.220935 0
M  V30 36 H -7.209830 0.831373 -1.173788 0
M  V30 37 H -6.104009 2.429243 0.367128 0
M  V30 38 H -3.708256 2.215256 0.873276 0
M  V30 39 H 0.866643 0.434877 0.250736 0
M  V30 40 H 6.097280 -1.662879 -1.895339 0
M  V30 END ATOM
M  V30 BEGIN BOND
M  V30 1 3 1 2
M  V30 2 1 2 3
M  V30 3 2 3 4
M  V30 4 1 4 5
M  V30 5 2 5 6
M  V30 6 1 6 7
M  V30 7 2 7 8
M  V30 8 1 8 9
M  V30 9 2 9 10
M  V30 10 1 10 11
M  V30 11 1 11 12
M  V30 12 1 12 13
M  V30 13 1 13 14
M  V30 14 1 14 15
M  V30 15 1 15 16
M  V30 16 2 16 17
M  V30 17 1 17 18
M  V30 18 2 18 19
M  V30 19 1 19 20
M  V30 20 2 20 21
M  V30 21 1 10 22
M  V30 22 1 6 23
M  V30 23 2 23 24
M  V30 24 1 24 3
M  V30 25 1 22 7
M  V30 26 1 15 11
M  V30 27 1 21 16
M  V30 28 1 1 25
M  V30 29 1 4 26
M  V30 30 1 5 27
M  V30 31 1 11 28 CFG=3
M  V30 32 1 12 29
M  V30 33 1 12 30
M  V30 34 1 13 31
M  V30 35 1 13 32
M  V30 36 1 15 33 CFG=3
M  V30 37 1 17 34
M  V30 38 1 18 35
M  V30 39 1 19 36
M  V30 40 1 20 37
M  V30 41 1 21 38
M  V30 42 1 22 39
M  V30 43 1 24 40
M  V30 END BOND
M  V30 BEGIN COLLECTION
M  V30 MDLV30/STERAC1 ATOMS=(2 11 15)
M  V30 END COLLECTION
M  V30 END CTAB
M  END
>  <_CXSMILES_Data>  (1179) 
|&1:10,14|

$$$$
OCNT-2316975
     RDKit          3D

 41 42  0  0  0  0  0  0  0  0999 V2000
    4.7648    0.8549   -2.0711 C   0  0  0  0  0  0  0  0  0  0  0  0
    3.3312    0.4017   -2.3003 C   0  0  0  0  0  0  0  0  0  0  0  0
    2.4544    0.6916   -1.1086 C   0  0  0  0  0  0  0  0  0  0  0  0
    1.7751    1.9147   -1.0061 C   0  0  0  0  0  0  0  0  0  0  0  0
    0.9836    2.2000    0.1091 C   0  0  0  0  0  0  0  0  0  0  0  0
    0.8612    1.2666    1.1365 C   0  0  0  0  0  0  0  0  0  0  0  0
    1.5315    0.0452    1.0368 C   0  0  0  0  0  0  0  0  0  0  0  0
    1.3871   -1.1508    2.3399 S   0  0  0  0  0  0  0  0  0  0  0  0
    0.7699   -0.5288    3.4897 O   0  0  0  0  0  0  0  0  0  0  0  0
    2.6462   -1.8556    2.4396 O   0  0  0  0  0  0  0  0  0  0  0  0
    0.2941   -2.2356    1.6864 N   0  0  0  0  0  0  0  0  0  0  0  0
   -1.1204   -1.8869    1.5985 C   0  0  0  0  0  0  0  0  0  0  0  0
   -1.6433   -2.3206    0.2298 C   0  0  0  0  0  0  0  0  0  0  0  0
   -3.0749   -1.8445   -0.0367 C   0  0  0  0  0  0  0  0  0  0  0  0
   -3.2031   -0.3499   -0.1647 C   0  0  0  0  0  0  0  0  0  0  0  0
   -2.5377    0.3609   -1.1679 C   0  0  0  0  0  0  0  0  0  0  0  0
   -2.6746    1.7437   -1.2440 C   0  0  0  0  0  0  0  0  0  0  0  0
   -3.4810    2.3749   -0.3131 C   0  0  0  0  0  0  0  0  0  0  0  0
   -4.1457    1.7252    0.6651 N   0  0  0  0  0  0  0  0  0  0  0  0
   -3.9956    0.3826    0.7148 C   0  0  0  0  0  0  0  0  0  0  0  0
    2.3348   -0.2429   -0.0716 C   0  0  0  0  0  0  0  0  0  0  0  0
    5.3767    0.6337   -2.9513 H   0  0  0  0  0  0  0  0  0  0  0  0
    4.8157    1.9330   -1.8845 H   0  0  0  0  0  0  0  0  0  0  0  0
    5.2103    0.3437   -1.2110 H   0  0  0  0  0  0  0  0  0  0  0  0
    2.9227    0.8989   -3.1885 H   0  0  0  0  0  0  0  0  0  0  0  0
    3.3120   -0.6730   -2.5190 H   0  0  0  0  0  0  0  0  0  0  0  0
    1.8675    2.6593   -1.7944 H   0  0  0  0  0  0  0  0  0  0  0  0
    0.4660    3.1536    0.1798 H   0  0  0  0  0  0  0  0  0  0  0  0
    0.2446    1.4967    2.0028 H   0  0  0  0  0  0  0  0  0  0  0  0
    0.5927   -3.2084    1.6928 H   0  0  0  0  0  0  0  0  0  0  0  0
   -1.2633   -0.8120    1.7380 H   0  0  0  0  0  0  0  0  0  0  0  0
   -1.6661   -2.4029    2.3954 H   0  0  0  0  0  0  0  0  0  0  0  0
   -0.9696   -1.9614   -0.5583 H   0  0  0  0  0  0  0  0  0  0  0  0
   -1.6200   -3.4165    0.1721 H   0  0  0  0  0  0  0  0  0  0  0  0
   -3.4368   -2.2964   -0.9690 H   0  0  0  0  0  0  0  0  0  0  0  0
   -3.7346   -2.2167    0.7572 H   0  0  0  0  0  0  0  0  0  0  0  0
   -1.9098   -0.1524   -1.8918 H   0  0  0  0  0  0  0  0  0  0  0  0
   -2.1636    2.3139   -2.0113 H   0  0  0  0  0  0  0  0  0  0  0  0
   -3.6202    3.4518   -0.3308 H   0  0  0  0  0  0  0  0  0  0  0  0
   -4.5486   -0.1003    1.5164 H   0  0  0  0  0  0  0  0  0  0  0  0
    2.8667   -1.1909   -0.1248 H   0  0  0  0  0  0  0  0  0  0  0  0
  1  2  1  0
  2  3  1  0
  3  4  1  0
  4  5  2  0
  5  6  1  0
  6  7  2  0
  7  8  1  0
  8  9  2  0
  8 10  2  0
  8 11  1  0
 11 12  1  0
 12 13  1  0
 13 14  1  0
 14 15  1  0
 15 16  1  0
 16 17  2  0
 17 18  1  0
 18 19  2  0
 19 20  1  0
  7 21  1  0
 21  3  2  0
 20 15  2  0
  1 22  1  0
  1 23  1  0
  1 24  1  0
  2 25  1  0
  2 26  1  0
  4 27  1  0
  5 28  1  0
  6 29  1  0
 11 30  1  0
 12 31  1  0
 12 32  1  0
 13 33  1  0
 13 34  1  0
 14 35  1  0
 14 36  1  0
 16 37  1  0
 17 38  1  0
 18 39  1  0
 20 40  1  0
 21 41  1  0
M  END
$$$$
OCNT-2316976
     RDKit          3D

 36 39  0  0  0  0  0  0  0  0999 V2000
   -0.2169    1.5698    1.0574 O   0  0  0  0  0  0  0  0  0  0  0  0
   -0.9793    0.7124    0.6228 C   0  0  0  0  0  0  0  0  0  0  0  0
   -0.6175   -0.3864   -0.1336 N   0  0  0  0  0  0  0  0  0  0  0  0
    0.6740   -0.7659   -0.5555 C   0  0  0  0  0  0  0  0  0  0  0  0
    0.7693   -1.9147   -1.3490 C   0  0  0  0  0  0  0  0  0  0  0  0
    2.0085   -2.3590   -1.8096 C   0  0  0  0  0  0  0  0  0  0  0  0
    3.1676   -1.6572   -1.4795 C   0  0  0  0  0  0  0  0  0  0  0  0
    3.0996   -0.5052   -0.6855 C   0  0  0  0  0  0  0  0  0  0  0  0
    4.3169    0.2164   -0.3440 C   0  0  0  0  0  0  0  0  0  0  0  0
    4.3858    1.5495    0.0041 C   0  0  0  0  0  0  0  0  0  0  0  0
    5.7022    1.8238    0.2355 N   0  0  0  0  0  0  0  0  0  0  0  0
    6.5092    0.7663    0.0549 N   0  0  0  0  0  0  0  0  0  0  0  0
    5.6663   -0.2098   -0.2942 C   0  0  0  0  0  0  0  0  0  0  0  0
    1.8426   -0.0721   -0.2269 C   0  0  0  0  0  0  0  0  0  0  0  0
   -2.4388    0.8511    0.9222 C   0  0  0  0  0  0  0  0  0  0  0  0
   -2.8672    1.9447    1.6985 C   0  0  0  0  0  0  0  0  0  0  0  0
   -4.2259    2.1277    2.0129 C   0  0  0  0  0  0  0  0  0  0  0  0
   -5.1819    1.2212    1.5572 C   0  0  0  0  0  0  0  0  0  0  0  0
   -4.7455    0.1557    0.7980 C   0  0  0  0  0  0  0  0  0  0  0  0
   -3.4153   -0.0319    0.4847 C   0  0  0  0  0  0  0  0  0  0  0  0
   -3.2351   -1.1530   -0.2750 O   0  0  0  0  0  0  0  0  0  0  0  0
   -4.5900   -1.6378   -0.3963 C   0  0  0  0  0  0  0  0  0  0  0  0
   -5.5513   -0.8110    0.2811 O   0  0  0  0  0  0  0  0  0  0  0  0
   -1.3742   -0.9933   -0.4324 H   0  0  0  0  0  0  0  0  0  0  0  0
   -0.1196   -2.4777   -1.6214 H   0  0  0  0  0  0  0  0  0  0  0  0
    2.0717   -3.2501   -2.4288 H   0  0  0  0  0  0  0  0  0  0  0  0
    4.1200   -2.0171   -1.8608 H   0  0  0  0  0  0  0  0  0  0  0  0
    3.6338    2.3196    0.1037 H   0  0  0  0  0  0  0  0  0  0  0  0
    6.1185    2.7059    0.5143 H   0  0  0  0  0  0  0  0  0  0  0  0
    6.0700   -1.1937   -0.4939 H   0  0  0  0  0  0  0  0  0  0  0  0
    1.7927    0.8083    0.4041 H   0  0  0  0  0  0  0  0  0  0  0  0
   -2.1402    2.6678    2.0675 H   0  0  0  0  0  0  0  0  0  0  0  0
   -4.5288    2.9818    2.6148 H   0  0  0  0  0  0  0  0  0  0  0  0
   -6.2335    1.3479    1.7907 H   0  0  0  0  0  0  0  0  0  0  0  0
   -4.8505   -1.6836   -1.4599 H   0  0  0  0  0  0  0  0  0  0  0  0
   -4.6375   -2.6499    0.0215 H   0  0  0  0  0  0  0  0  0  0  0  0
  1  2  2  0
  2  3  1  0
  3  4  1  0
  4  5  2  0
  5  6  1  0
  6  7  2  0
  7  8  1  0
  8  9  1  0
  9 10  2  0
 10 11  1  0
 11 12  1  0
 12 13  2  0
  8 14  2  0
  2 15  1  0
 15 16  2  0
 16 17  1  0
 17 18  2  0
 18 19  1  0
 19 20  2  0
 20 21  1  0
 21 22  1  0
 22 23  1  0
 14  4  1  0
 20 15  1  0
 13  9  1  0
 23 19  1  0
  3 24  1  0
  5 25  1  0
  6 26  1  0
  7 27  1  0
 10 28  1  0
 11 29  1  0
 13 30  1  0
 14 31  1  0
 16 32  1  0
 17 33  1  0
 18 34  1  0
 22 35  1  0
 22 36  1  0
M  END
$$$$
OCNT-2317002
     RDKit          3D

 40 41  0  0  0  0  0  0  0  0999 V2000
    3.3326    2.3465   -0.8890 C   0  0  0  0  0  0  0  0  0  0  0  0
    2.5080    1.2063   -0.3561 C   0  0  0  0  0  0  0  0  0  0  0  0
    1.1055    1.3089   -0.3398 C   0  0  0  0  0  0  0  0  0  0  0  0
    0.3059    0.2689    0.1498 C   0  0  0  0  0  0  0  0  0  0  0  0
   -1.0916    0.4659    0.1227 N   0  0  0  0  0  0  0  0  0  0  0  0
   -2.0808   -0.3870    0.5809 C   0  0  0  0  0  0  0  0  0  0  0  0
   -1.8707   -1.4661    1.1227 O   0  0  0  0  0  0  0  0  0  0  0  0
   -3.4343    0.1101    0.3802 C   0  0  0  0  0  0  0  0  0  0  0  0
   -3.9206    1.1927   -0.3367 C   0  0  0  0  0  0  0  0  0  0  0  0
   -5.3325    1.1846   -0.1789 C   0  0  0  0  0  0  0  0  0  0  0  0
   -6.3111    2.1665   -0.7694 C   0  0  0  0  0  0  0  0  0  0  0  0
   -7.2586    1.5692   -1.5388 F   0  0  0  0  0  0  0  0  0  0  0  0
   -5.6814    3.0714   -1.5723 F   0  0  0  0  0  0  0  0  0  0  0  0
   -6.9604    2.8899    0.1807 F   0  0  0  0  0  0  0  0  0  0  0  0
   -5.7094    0.1527    0.5947 N   0  0  0  0  0  0  0  0  0  0  0  0
   -4.5614   -0.4813    0.9072 N   0  0  0  0  0  0  0  0  0  0  0  0
   -4.6296   -1.6613    1.7432 C   0  0  0  0  0  0  0  0  0  0  0  0
    0.9293   -0.8839    0.6207 C   0  0  0  0  0  0  0  0  0  0  0  0
    2.3266   -0.9981    0.6097 C   0  0  0  0  0  0  0  0  0  0  0  0
    3.1242    0.0405    0.1279 C   0  0  0  0  0  0  0  0  0  0  0  0
    4.4915    0.0286    0.0696 O   0  0  0  0  0  0  0  0  0  0  0  0
    5.1993   -1.0755    0.6273 C   0  0  0  0  0  0  0  0  0  0  0  0
    5.3827   -2.1946   -0.3945 C   0  0  0  0  0  0  0  0  0  0  0  0
    6.1426   -3.2645    0.1559 O   0  0  0  0  0  0  0  0  0  0  0  0
    3.9298    2.0148   -1.7446 H   0  0  0  0  0  0  0  0  0  0  0  0
    2.7025    3.1760   -1.2269 H   0  0  0  0  0  0  0  0  0  0  0  0
    3.9965    2.7316   -0.1082 H   0  0  0  0  0  0  0  0  0  0  0  0
    0.6441    2.2189   -0.7164 H   0  0  0  0  0  0  0  0  0  0  0  0
   -1.3921    1.3528   -0.2515 H   0  0  0  0  0  0  0  0  0  0  0  0
   -3.3575    1.9086   -0.9197 H   0  0  0  0  0  0  0  0  0  0  0  0
   -4.2783   -2.5176    1.1630 H   0  0  0  0  0  0  0  0  0  0  0  0
   -5.6661   -1.8285    2.0497 H   0  0  0  0  0  0  0  0  0  0  0  0
   -4.0126   -1.4973    2.6297 H   0  0  0  0  0  0  0  0  0  0  0  0
    0.3631   -1.7267    1.0045 H   0  0  0  0  0  0  0  0  0  0  0  0
    2.7491   -1.9253    0.9831 H   0  0  0  0  0  0  0  0  0  0  0  0
    4.7664   -1.4315    1.5697 H   0  0  0  0  0  0  0  0  0  0  0  0
    6.1919   -0.7021    0.9079 H   0  0  0  0  0  0  0  0  0  0  0  0
    4.4173   -2.5951   -0.7175 H   0  0  0  0  0  0  0  0  0  0  0  0
    5.8863   -1.8236   -1.2939 H   0  0  0  0  0  0  0  0  0  0  0  0
    7.0539   -2.9452    0.2756 H   0  0  0  0  0  0  0  0  0  0  0  0
  1  2  1  0
  2  3  1  0
  3  4  2  0
  4  5  1  0
  5  6  1  0
  6  7  2  0
  6  8  1  0
  8  9  2  0
  9 10  1  0
 10 11  1  0
 11 12  1  0
 11 13  1  0
 11 14  1  0
 10 15  2  0
 15 16  1  0
 16 17  1  0
  4 18  1  0
 18 19  2  0
 19 20  1  0
 20 21  1  0
 21 22  1  0
 22 23  1  0
 23 24  1  0
 20  2  2  0
 16  8  1  0
  1 25  1  0
  1 26  1  0
  1 27  1  0
  3 28  1  0
  5 29  1  0
  9 30  1  0
 17 31  1  0
 17 32  1  0
 17 33  1  0
 18 34  1  0
 19 35  1  0
 22 36  1  0
 22 37  1  0
 23 38  1  0
 23 39  1  0
 24 40  1  0
M  END
$$$$
OCNT-2317025
     RDKit          3D

 44 46  0  0  0  0  0  0  0  0999 V2000
   -2.5956    1.5589   -1.4502 C   0  0  0  0  0  0  0  0  0  0  0  0
   -2.4982    0.8758   -0.0771 C   0  0  0  0  0  0  0  0  0  0  0  0
   -3.7830    0.1158    0.2436 C   0  0  0  0  0  0  0  0  0  0  0  0
   -4.9765    0.8296    0.4515 C   0  0  0  0  0  0  0  0  0  0  0  0
   -6.1683    0.1644    0.7408 C   0  0  0  0  0  0  0  0  0  0  0  0
   -6.1847   -1.2236    0.8354 C   0  0  0  0  0  0  0  0  0  0  0  0
   -5.0094   -1.9479    0.6440 C   0  0  0  0  0  0  0  0  0  0  0  0
   -3.8079   -1.2897    0.3414 C   0  0  0  0  0  0  0  0  0  0  0  0
   -2.5403   -2.0929    0.1980 C   0  0  0  0  0  0  0  0  0  0  0  0
   -1.4594   -1.3261   -0.5549 C   0  0  0  0  0  0  0  0  0  0  0  0
   -1.3039    0.0202   -0.0032 N   0  0  0  0  0  0  0  0  0  0  0  0
   -0.0907    0.6326    0.2607 C   0  0  0  0  0  0  0  0  0  0  0  0
    0.0336    1.8474    0.3911 O   0  0  0  0  0  0  0  0  0  0  0  0
    0.9738   -0.2278    0.3730 N   0  0  0  0  0  0  0  0  0  0  0  0
    2.2982    0.2789    0.6942 C   0  0  0  0  0  0  0  0  0  0  0  0
    2.9556    0.9631   -0.5046 C   0  0  0  0  0  0  0  0  0  0  0  0
    4.2952    1.6001   -0.1489 C   0  0  0  0  0  0  0  0  0  0  0  0
    5.3281    0.6268    0.1485 N   0  0  0  0  0  0  0  0  0  0  0  0
    6.2142    0.0790   -0.7345 C   0  0  0  0  0  0  0  0  0  0  0  0
    7.0024   -0.7758   -0.0006 C   0  0  0  0  0  0  0  0  0  0  0  0
    6.5121   -0.6722    1.3137 C   0  0  0  0  0  0  0  0  0  0  0  0
    5.4877    0.1792    1.4086 N   0  0  0  0  0  0  0  0  0  0  0  0
   -2.7708    0.8300   -2.2495 H   0  0  0  0  0  0  0  0  0  0  0  0
   -3.4170    2.2826   -1.4803 H   0  0  0  0  0  0  0  0  0  0  0  0
   -1.6738    2.0977   -1.6932 H   0  0  0  0  0  0  0  0  0  0  0  0
   -2.3859    1.6566    0.6871 H   0  0  0  0  0  0  0  0  0  0  0  0
   -4.9821    1.9164    0.3941 H   0  0  0  0  0  0  0  0  0  0  0  0
   -7.0821    0.7313    0.8983 H   0  0  0  0  0  0  0  0  0  0  0  0
   -7.1112   -1.7419    1.0679 H   0  0  0  0  0  0  0  0  0  0  0  0
   -5.0331   -3.0313    0.7385 H   0  0  0  0  0  0  0  0  0  0  0  0
   -2.1807   -2.3395    1.2048 H   0  0  0  0  0  0  0  0  0  0  0  0
   -2.7439   -3.0327   -0.3282 H   0  0  0  0  0  0  0  0  0  0  0  0
   -0.5258   -1.8939   -0.5372 H   0  0  0  0  0  0  0  0  0  0  0  0
   -1.7299   -1.2176   -1.6125 H   0  0  0  0  0  0  0  0  0  0  0  0
    0.7287   -1.0820    0.8503 H   0  0  0  0  0  0  0  0  0  0  0  0
    2.8863   -0.5871    1.0130 H   0  0  0  0  0  0  0  0  0  0  0  0
    2.2123    0.9673    1.5425 H   0  0  0  0  0  0  0  0  0  0  0  0
    2.2978    1.7492   -0.8933 H   0  0  0  0  0  0  0  0  0  0  0  0
    3.0809    0.2361   -1.3171 H   0  0  0  0  0  0  0  0  0  0  0  0
    4.2049    2.2699    0.7140 H   0  0  0  0  0  0  0  0  0  0  0  0
    4.6564    2.2003   -0.9922 H   0  0  0  0  0  0  0  0  0  0  0  0
    6.2108    0.3386   -1.7838 H   0  0  0  0  0  0  0  0  0  0  0  0
    7.8180   -1.3855   -0.3615 H   0  0  0  0  0  0  0  0  0  0  0  0
    6.8574   -1.1806    2.2047 H   0  0  0  0  0  0  0  0  0  0  0  0
  1  2  1  0
  2  3  1  0
  3  4  2  0
  4  5  1  0
  5  6  2  0
  6  7  1  0
  7  8  2  0
  8  9  1  0
  9 10  1  0
 10 11  1  0
 11 12  1  0
 12 13  2  0
 12 14  1  0
 14 15  1  0
 15 16  1  0
 16 17  1  0
 17 18  1  0
 18 19  1  0
 19 20  2  0
 20 21  1  0
 21 22  2  0
 11  2  1  0
 22 18  1  0
  8  3  1  0
  1 23  1  0
  1 24  1  0
  1 25  1  0
  2 26  1  0
  4 27  1  0
  5 28  1  0
  6 29  1  0
  7 30  1  0
  9 31  1  0
  9 32  1  0
 10 33  1  0
 10 34  1  0
 14 35  1  0
 15 36  1  0
 15 37  1  0
 16 38  1  0
 16 39  1  0
 17 40  1  0
 17 41  1  0
 19 42  1  0
 20 43  1  0
 21 44  1  0
M  END
$$$$
OCNT-2317059
     RDKit          3D

 52 55  0  0  0  0  0  0  0  0999 V2000
    0.4702    2.6366    1.3119 O   0  0  0  0  0  0  0  0  0  0  0  0
    0.7962    1.4855    1.5878 C   0  0  0  0  0  0  0  0  0  0  0  0
    0.0505    0.6425    2.3783 N   0  0  0  0  0  0  0  0  0  0  0  0
   -1.2643    1.0217    2.8651 C   0  0  0  0  0  0  0  0  0  0  0  0
   -2.3087   -0.0035    2.4853 C   0  0  0  0  0  0  0  0  0  0  0  0
   -2.6486   -1.0271    3.3626 C   0  0  0  0  0  0  0  0  0  0  0  0
   -3.5993   -1.9515    2.9565 C   0  0  0  0  0  0  0  0  0  0  0  0
   -4.1679   -1.8321    1.6894 C   0  0  0  0  0  0  0  0  0  0  0  0
   -3.7691   -0.8020    0.8358 C   0  0  0  0  0  0  0  0  0  0  0  0
   -4.3607   -0.6599   -0.4326 N   0  0  0  0  0  0  0  0  0  0  0  0
   -4.2642   -1.8637   -1.2869 C   0  0  0  0  0  0  0  0  0  0  0  0
   -5.0218   -1.6220   -2.6049 C   0  0  0  0  0  0  0  0  0  0  0  0
   -4.5248   -0.4677   -3.2992 O   0  0  0  0  0  0  0  0  0  0  0  0
   -4.6689    0.7005   -2.4735 C   0  0  0  0  0  0  0  0  0  0  0  0
   -3.9037    0.5561   -1.1488 C   0  0  0  0  0  0  0  0  0  0  0  0
   -2.8509    0.1005    1.2449 N   0  0  0  0  0  0  0  0  0  0  0  0
    2.0552    0.9380    1.0102 C   0  0  0  0  0  0  0  0  0  0  0  0
    2.7562   -0.0913    1.6500 C   0  0  0  0  0  0  0  0  0  0  0  0
    3.9214   -0.6060    1.0785 C   0  0  0  0  0  0  0  0  0  0  0  0
    4.4118   -0.0976   -0.1344 C   0  0  0  0  0  0  0  0  0  0  0  0
    5.6895   -0.6722   -0.6980 C   0  0  0  0  0  0  0  0  0  0  0  0
    5.9036   -0.3349   -2.1709 C   0  0  0  0  0  0  0  0  0  0  0  0
    5.6823    1.1528   -2.4056 C   0  0  0  0  0  0  0  0  0  0  0  0
    4.2419    1.5402   -2.0739 C   0  0  0  0  0  0  0  0  0  0  0  0
    3.7440    0.9724   -0.7632 C   0  0  0  0  0  0  0  0  0  0  0  0
    2.5662    1.4768   -0.1839 C   0  0  0  0  0  0  0  0  0  0  0  0
    1.9372    2.5114   -0.8374 O   0  0  0  0  0  0  0  0  0  0  0  0
    0.2716   -0.3435    2.3885 H   0  0  0  0  0  0  0  0  0  0  0  0
   -1.5590    2.0041    2.4799 H   0  0  0  0  0  0  0  0  0  0  0  0
   -1.1939    1.1059    3.9560 H   0  0  0  0  0  0  0  0  0  0  0  0
   -2.1975   -1.1001    4.3472 H   0  0  0  0  0  0  0  0  0  0  0  0
   -3.9097   -2.7551    3.6204 H   0  0  0  0  0  0  0  0  0  0  0  0
   -4.9428   -2.5298    1.3908 H   0  0  0  0  0  0  0  0  0  0  0  0
   -3.2075   -2.0737   -1.5074 H   0  0  0  0  0  0  0  0  0  0  0  0
   -4.7000   -2.7455   -0.8034 H   0  0  0  0  0  0  0  0  0  0  0  0
   -6.0961   -1.4900   -2.4207 H   0  0  0  0  0  0  0  0  0  0  0  0
   -4.9003   -2.4843   -3.2680 H   0  0  0  0  0  0  0  0  0  0  0  0
   -5.7364    0.8780   -2.2937 H   0  0  0  0  0  0  0  0  0  0  0  0
   -4.2792    1.5538   -3.0376 H   0  0  0  0  0  0  0  0  0  0  0  0
   -4.0857    1.4562   -0.5487 H   0  0  0  0  0  0  0  0  0  0  0  0
   -2.8300    0.4806   -1.3672 H   0  0  0  0  0  0  0  0  0  0  0  0
    2.4259   -0.4913    2.6043 H   0  0  0  0  0  0  0  0  0  0  0  0
    4.4546   -1.4065    1.5883 H   0  0  0  0  0  0  0  0  0  0  0  0
    6.5275   -0.2764   -0.1090 H   0  0  0  0  0  0  0  0  0  0  0  0
    5.6897   -1.7633   -0.5850 H   0  0  0  0  0  0  0  0  0  0  0  0
    5.2090   -0.9131   -2.7939 H   0  0  0  0  0  0  0  0  0  0  0  0
    6.9185   -0.6195   -2.4708 H   0  0  0  0  0  0  0  0  0  0  0  0
    6.3757    1.7327   -1.7832 H   0  0  0  0  0  0  0  0  0  0  0  0
    5.8993    1.4060   -3.4497 H   0  0  0  0  0  0  0  0  0  0  0  0
    4.1797    2.6345   -2.0594 H   0  0  0  0  0  0  0  0  0  0  0  0
    3.5802    1.1791   -2.8718 H   0  0  0  0  0  0  0  0  0  0  0  0
    1.2331    2.8580   -0.2439 H   0  0  0  0  0  0  0  0  0  0  0  0
  1  2  2  0
  2  3  1  0
  3  4  1  0
  4  5  1  0
  5  6  2  0
  6  7  1  0
  7  8  2  0
  8  9  1  0
  9 10  1  0
 10 11  1  0
 11 12  1  0
 12 13  1  0
 13 14  1  0
 14 15  1  0
  9 16  2  0
  2 17  1  0
 17 18  1  0
 18 19  2  0
 19 20  1  0
 20 21  1  0
 21 22  1  0
 22 23  1  0
 23 24  1  0
 24 25  1  0
 25 26  1  0
 26 27  1  0
 16  5  1  0
 26 17  2  0
 15 10  1  0
 25 20  2  0
  3 28  1  0
  4 29  1  0
  4 30  1  0
  6 31  1  0
  7 32  1  0
  8 33  1  0
 11 34  1  0
 11 35  1  0
 12 36  1  0
 12 37  1  0
 14 38  1  0
 14 39  1  0
 15 40  1  0
 15 41  1  0
 18 42  1  0
 19 43  1  0
 21 44  1  0
 21 45  1  0
 22 46  1  0
 22 47  1  0
 23 48  1  0
 23 49  1  0
 24 50  1  0
 24 51  1  0
 27 52  1  0
M  END
$$$$
OCNT-2317097
     RDKit          3D

 40 43  0  0  0  0  0  0  0  0999 V2000
    5.9276   -1.2171   -0.8472 C   0  0  0  0  0  0  0  0  0  0  0  0
    4.4950   -1.0515   -0.8294 N   0  0  0  0  0  0  0  0  0  0  0  0
    3.7939    0.0873   -1.1022 C   0  0  0  0  0  0  0  0  0  0  0  0
    2.4593   -0.2301   -0.9425 C   0  0  0  0  0  0  0  0  0  0  0  0
    1.2718    0.6459   -1.1404 C   0  0  0  0  0  0  0  0  0  0  0  0
    0.4303    0.8443    0.1152 C   0  0  0  0  0  0  0  0  0  0  0  0
    0.4497    0.0813    1.0763 O   0  0  0  0  0  0  0  0  0  0  0  0
   -0.3571    1.9833    0.0379 N   0  0  0  0  0  0  0  0  0  0  0  0
   -1.2636    2.3366    1.0421 C   0  0  0  0  0  0  0  0  0  0  0  0
   -1.2191    3.6384    1.3940 N   0  0  0  0  0  0  0  0  0  0  0  0
   -1.9785    4.0364    2.4237 C   0  0  0  0  0  0  0  0  0  0  0  0
   -2.8238    3.2968    3.1404 N   0  0  0  0  0  0  0  0  0  0  0  0
   -2.9128    2.0331    2.6910 C   0  0  0  0  0  0  0  0  0  0  0  0
   -2.2082    1.4745    1.6322 C   0  0  0  0  0  0  0  0  0  0  0  0
   -2.7005    0.1372    1.3594 C   0  0  0  0  0  0  0  0  0  0  0  0
   -2.4058   -0.7268    0.2214 C   0  0  0  0  0  0  0  0  0  0  0  0
   -2.7202   -0.3033   -1.0765 C   0  0  0  0  0  0  0  0  0  0  0  0
   -2.4431   -1.1255   -2.1708 C   0  0  0  0  0  0  0  0  0  0  0  0
   -1.8525   -2.3732   -1.9743 C   0  0  0  0  0  0  0  0  0  0  0  0
   -1.5418   -2.8029   -0.6849 C   0  0  0  0  0  0  0  0  0  0  0  0
   -1.8202   -1.9843    0.4114 C   0  0  0  0  0  0  0  0  0  0  0  0
   -3.6396   -0.2695    2.2901 C   0  0  0  0  0  0  0  0  0  0  0  0
   -3.9868    0.9433    3.4374 S   0  0  0  0  0  0  0  0  0  0  0  0
    2.4773   -1.5965   -0.5749 C   0  0  0  0  0  0  0  0  0  0  0  0
    3.7125   -2.1004   -0.5261 N   0  0  0  0  0  0  0  0  0  0  0  0
    6.1765   -1.9965   -1.5717 H   0  0  0  0  0  0  0  0  0  0  0  0
    6.3992   -0.2750   -1.1371 H   0  0  0  0  0  0  0  0  0  0  0  0
    6.2535   -1.5046    0.1555 H   0  0  0  0  0  0  0  0  0  0  0  0
    4.2899    1.0072   -1.3785 H   0  0  0  0  0  0  0  0  0  0  0  0
    1.6013    1.6247   -1.5101 H   0  0  0  0  0  0  0  0  0  0  0  0
    0.6227    0.2081   -1.9080 H   0  0  0  0  0  0  0  0  0  0  0  0
    0.0789    2.7909   -0.3866 H   0  0  0  0  0  0  0  0  0  0  0  0
   -1.8913    5.0799    2.7104 H   0  0  0  0  0  0  0  0  0  0  0  0
   -3.1892    0.6636   -1.2434 H   0  0  0  0  0  0  0  0  0  0  0  0
   -2.6925   -0.7953   -3.1760 H   0  0  0  0  0  0  0  0  0  0  0  0
   -1.6355   -3.0136   -2.8258 H   0  0  0  0  0  0  0  0  0  0  0  0
   -1.0761   -3.7733   -0.5307 H   0  0  0  0  0  0  0  0  0  0  0  0
   -1.5504   -2.3206    1.4104 H   0  0  0  0  0  0  0  0  0  0  0  0
   -4.1683   -1.2129    2.3329 H   0  0  0  0  0  0  0  0  0  0  0  0
    1.6373   -2.2400   -0.3445 H   0  0  0  0  0  0  0  0  0  0  0  0
  1  2  1  0
  2  3  1  0
  3  4  2  0
  4  5  1  0
  5  6  1  0
  6  7  2  0
  6  8  1  0
  8  9  1  0
  9 10  1  0
 10 11  2  0
 11 12  1  0
 12 13  2  0
 13 14  1  0
 14 15  1  0
 15 16  1  0
 16 17  2  0
 17 18  1  0
 18 19  2  0
 19 20  1  0
 20 21  2  0
 15 22  2  0
 22 23  1  0
  4 24  1  0
 24 25  2  0
 25  2  1  0
 14  9  2  0
 21 16  1  0
 23 13  1  0
  1 26  1  0
  1 27  1  0
  1 28  1  0
  3 29  1  0
  5 30  1  0
  5 31  1  0
  8 32  1  0
 11 33  1  0
 17 34  1  0
 18 35  1  0
 19 36  1  0
 20 37  1  0
 21 38  1  0
 22 39  1  0
 24 40  1  0
M  END
$$$$
OCNT-2317118
     RDKit          3D

 42 45  0  0  0  0  0  0  0  0999 V2000
    6.9313    0.6711   -1.3315 C   0  0  0  0  0  0  0  0  0  0  0  0
    5.9101   -0.1169   -0.6179 C   0  0  0  0  0  0  0  0  0  0  0  0
    6.2128   -1.2205    0.0778 N   0  0  0  0  0  0  0  0  0  0  0  0
    4.9760   -1.6307    0.5782 O   0  0  0  0  0  0  0  0  0  0  0  0
    4.0580   -0.7273    0.1255 C   0  0  0  0  0  0  0  0  0  0  0  0
    2.6442   -0.9486    0.5309 C   0  0  0  0  0  0  0  0  0  0  0  0
    1.7226   -0.9652   -0.6912 C   0  0  0  0  0  0  0  0  0  0  0  0
    0.2673   -1.1569   -0.2806 C   0  0  0  0  0  0  0  0  0  0  0  0
   -0.1561   -0.1981    0.7415 N   0  0  0  0  0  0  0  0  0  0  0  0
   -1.4765    0.2479    0.9017 C   0  0  0  0  0  0  0  0  0  0  0  0
   -1.8245    0.8368    1.9279 O   0  0  0  0  0  0  0  0  0  0  0  0
   -2.4585   -0.0143   -0.2325 C   0  0  0  0  0  0  0  0  0  0  0  0
   -3.0009   -1.4474   -0.1630 C   0  0  0  0  0  0  0  0  0  0  0  0
   -4.4030   -1.4649   -0.5200 O   0  0  0  0  0  0  0  0  0  0  0  0
   -4.7993   -0.1647   -0.3603 C   0  0  0  0  0  0  0  0  0  0  0  0
   -6.1142    0.2515   -0.4129 C   0  0  0  0  0  0  0  0  0  0  0  0
   -6.3769    1.6125   -0.2480 C   0  0  0  0  0  0  0  0  0  0  0  0
   -5.3252    2.5203   -0.0450 C   0  0  0  0  0  0  0  0  0  0  0  0
   -3.9999    2.0778   -0.0085 C   0  0  0  0  0  0  0  0  0  0  0  0
   -3.7537    0.7225   -0.1611 C   0  0  0  0  0  0  0  0  0  0  0  0
    0.7284   -0.0688    1.9021 C   0  0  0  0  0  0  0  0  0  0  0  0
    2.1848    0.1373    1.5055 C   0  0  0  0  0  0  0  0  0  0  0  0
    4.5816    0.2227   -0.6159 N   0  0  0  0  0  0  0  0  0  0  0  0
    7.6851    1.0469   -0.6327 H   0  0  0  0  0  0  0  0  0  0  0  0
    7.4325    0.0583   -2.0875 H   0  0  0  0  0  0  0  0  0  0  0  0
    6.4792    1.5308   -1.8364 H   0  0  0  0  0  0  0  0  0  0  0  0
    2.5715   -1.9231    1.0331 H   0  0  0  0  0  0  0  0  0  0  0  0
    1.8157   -0.0211   -1.2453 H   0  0  0  0  0  0  0  0  0  0  0  0
    2.0168   -1.7648   -1.3823 H   0  0  0  0  0  0  0  0  0  0  0  0
   -0.3545   -1.0820   -1.1740 H   0  0  0  0  0  0  0  0  0  0  0  0
    0.1167   -2.1596    0.1374 H   0  0  0  0  0  0  0  0  0  0  0  0
   -2.0069    0.2109   -1.2041 H   0  0  0  0  0  0  0  0  0  0  0  0
   -2.9074   -1.8830    0.8406 H   0  0  0  0  0  0  0  0  0  0  0  0
   -2.4693   -2.1084   -0.8558 H   0  0  0  0  0  0  0  0  0  0  0  0
   -6.9164   -0.4597   -0.5733 H   0  0  0  0  0  0  0  0  0  0  0  0
   -7.4022    1.9726   -0.2761 H   0  0  0  0  0  0  0  0  0  0  0  0
   -5.5442    3.5777    0.0842 H   0  0  0  0  0  0  0  0  0  0  0  0
   -3.1884    2.7825    0.1459 H   0  0  0  0  0  0  0  0  0  0  0  0
    0.6188   -0.9855    2.4946 H   0  0  0  0  0  0  0  0  0  0  0  0
    0.4153    0.7662    2.5380 H   0  0  0  0  0  0  0  0  0  0  0  0
    2.8133    0.1370    2.4046 H   0  0  0  0  0  0  0  0  0  0  0  0
    2.2959    1.1282    1.0443 H   0  0  0  0  0  0  0  0  0  0  0  0
  1  2  1  0
  2  3  2  0
  3  4  1  0
  4  5  1  0
  5  6  1  0
  6  7  1  0
  7  8  1  0
  8  9  1  0
  9 10  1  0
 10 11  2  0
 10 12  1  0
 12 13  1  0
 13 14  1  0
 14 15  1  0
 15 16  2  0
 16 17  1  0
 17 18  2  0
 18 19  1  0
 19 20  2  0
  9 21  1  0
 21 22  1  0
  5 23  2  0
 23  2  1  0
 22  6  1  0
 20 12  1  0
 20 15  1  0
  1 24  1  0
  1 25  1  0
  1 26  1  0
  6 27  1  0
  7 28  1  0
  7 29  1  0
  8 30  1  0
  8 31  1  0
 12 32  1  0
 13 33  1  0
 13 34  1  0
 16 35  1  0
 17 36  1  0
 18 37  1  0
 19 38  1  0
 21 39  1  0
 21 40  1  0
 22 41  1  0
 22 42  1  0
M  END
$$$$
OCNT-2317132
     RDKit          3D

 42 45  0  0  0  0  0  0  0  0999 V2000
   -0.4541   -2.6315    2.5977 O   0  0  0  0  0  0  0  0  0  0  0  0
   -0.2154   -1.6421    1.8938 C   0  0  0  0  0  0  0  0  0  0  0  0
    1.0614   -0.8501    2.2130 C   0  0  2  0  0  0  0  0  0  0  0  0
    0.7397    0.3293    3.1116 C   0  0  0  0  0  0  0  0  0  0  0  0
    2.1320    1.4343    2.8160 S   0  0  0  0  0  0  0  0  0  0  0  0
    2.3919    0.7227    1.2361 C   0  0  0  0  0  0  0  0  0  0  0  0
    3.2401    1.4065    0.2256 C   0  0  0  0  0  0  0  0  0  0  0  0
    3.2764    0.8793   -1.0746 C   0  0  0  0  0  0  0  0  0  0  0  0
    4.0520    1.4838   -2.0667 C   0  0  0  0  0  0  0  0  0  0  0  0
    4.8019    2.6189   -1.7689 C   0  0  0  0  0  0  0  0  0  0  0  0
    4.7780    3.1497   -0.4808 C   0  0  0  0  0  0  0  0  0  0  0  0
    4.0013    2.5477    0.5142 C   0  0  0  0  0  0  0  0  0  0  0  0
    1.7759   -0.3922    0.9924 N   0  0  0  0  0  0  0  0  0  0  0  0
   -1.0909   -1.1676    0.9286 N   0  0  0  0  0  0  0  0  0  0  0  0
   -0.8513   -0.0589   -0.0179 C   0  0  0  0  0  0  0  0  0  0  0  0
   -2.1672    0.1941   -0.7782 C   0  0  0  0  0  0  0  0  0  0  0  0
   -1.9358    0.4008   -2.2704 C   0  0  0  0  0  0  0  0  0  0  0  0
   -1.1699    1.5812   -2.4925 O   0  0  0  0  0  0  0  0  0  0  0  0
   -2.9587   -1.0296   -0.4249 C   0  0  0  0  0  0  0  0  0  0  0  0
   -4.1951   -1.4153   -0.9289 C   0  0  0  0  0  0  0  0  0  0  0  0
   -4.7905   -2.5703   -0.4224 C   0  0  0  0  0  0  0  0  0  0  0  0
   -4.1552   -3.3126    0.5810 C   0  0  0  0  0  0  0  0  0  0  0  0
   -2.9166   -2.9097    1.0907 C   0  0  0  0  0  0  0  0  0  0  0  0
   -2.3233   -1.7660    0.5801 C   0  0  0  0  0  0  0  0  0  0  0  0
    1.7378   -1.5465    2.7295 H   0  0  0  0  0  0  0  0  0  0  0  0
    0.6768    0.0378    4.1640 H   0  0  0  0  0  0  0  0  0  0  0  0
   -0.1910    0.8348    2.8380 H   0  0  0  0  0  0  0  0  0  0  0  0
    2.6978   -0.0072   -1.3279 H   0  0  0  0  0  0  0  0  0  0  0  0
    4.0684    1.0668   -3.0706 H   0  0  0  0  0  0  0  0  0  0  0  0
    5.4062    3.0892   -2.5408 H   0  0  0  0  0  0  0  0  0  0  0  0
    5.3663    4.0342   -0.2480 H   0  0  0  0  0  0  0  0  0  0  0  0
    4.0139    2.9880    1.5072 H   0  0  0  0  0  0  0  0  0  0  0  0
   -0.5316    0.8403    0.5160 H   0  0  0  0  0  0  0  0  0  0  0  0
   -0.0516   -0.3726   -0.6986 H   0  0  0  0  0  0  0  0  0  0  0  0
   -2.6584    1.0751   -0.3454 H   0  0  0  0  0  0  0  0  0  0  0  0
   -1.3934   -0.4429   -2.7113 H   0  0  0  0  0  0  0  0  0  0  0  0
   -2.8806    0.5005   -2.8155 H   0  0  0  0  0  0  0  0  0  0  0  0
   -1.7526    2.3449   -2.3363 H   0  0  0  0  0  0  0  0  0  0  0  0
   -4.7016   -0.8345   -1.6931 H   0  0  0  0  0  0  0  0  0  0  0  0
   -5.7563   -2.8954   -0.8019 H   0  0  0  0  0  0  0  0  0  0  0  0
   -4.6284   -4.2107    0.9712 H   0  0  0  0  0  0  0  0  0  0  0  0
   -2.4484   -3.5043    1.8671 H   0  0  0  0  0  0  0  0  0  0  0  0
  1  2  2  0
  2  3  1  0
  3  4  1  0
  4  5  1  0
  5  6  1  0
  6  7  1  0
  7  8  2  0
  8  9  1  0
  9 10  2  0
 10 11  1  0
 11 12  2  0
  6 13  2  0
  2 14  1  0
 14 15  1  0
 15 16  1  0
 16 17  1  0
 17 18  1  0
 16 19  1  0
 19 20  2  0
 20 21  1  0
 21 22  2  0
 22 23  1  0
 23 24  2  0
 13  3  1  0
 24 14  1  0
 12  7  1  0
 24 19  1  0
  3 25  1  1
  4 26  1  0
  4 27  1  0
  8 28  1  0
  9 29  1  0
 10 30  1  0
 11 31  1  0
 12 32  1  0
 15 33  1  0
 15 34  1  0
 16 35  1  0
 17 36  1  0
 17 37  1  0
 18 38  1  0
 20 39  1  0
 21 40  1  0
 22 41  1  0
 23 42  1  0
M  END
$$$$
OCNT-2317171
     RDKit          3D

 48 50  0  0  0  0  0  0  0  0999 V2000
   -2.2670   -3.6726    1.3114 C   0  0  0  0  0  0  0  0  0  0  0  0
   -2.1220   -2.4662    0.4582 C   0  0  0  0  0  0  0  0  0  0  0  0
   -3.1317   -1.6029    0.3630 N   0  0  0  0  0  0  0  0  0  0  0  0
   -2.6642   -0.5750   -0.3949 N   0  0  0  0  0  0  0  0  0  0  0  0
   -3.4486    0.6168   -0.4944 C   0  0  0  0  0  0  0  0  0  0  0  0
   -4.7979    0.5757   -0.0987 C   0  0  0  0  0  0  0  0  0  0  0  0
   -5.5980    1.7187   -0.1709 C   0  0  0  0  0  0  0  0  0  0  0  0
   -5.0578    2.9191   -0.6233 C   0  0  0  0  0  0  0  0  0  0  0  0
   -3.7162    2.9787   -0.9924 C   0  0  0  0  0  0  0  0  0  0  0  0
   -2.9113    1.8355   -0.9241 C   0  0  0  0  0  0  0  0  0  0  0  0
   -1.4359   -0.9068   -0.9625 C   0  0  0  0  0  0  0  0  0  0  0  0
   -0.7618   -0.1531   -2.0512 C   0  0  0  0  0  0  0  0  0  0  0  0
   -1.0179   -2.0778   -0.3376 C   0  0  0  0  0  0  0  0  0  0  0  0
    0.2729   -2.8239   -0.5002 C   0  0  0  0  0  0  0  0  0  0  0  0
    1.5098   -2.0466   -0.5210 N   0  0  0  0  0  0  0  0  0  0  0  0
    1.9236   -1.3020    0.5860 C   0  0  0  0  0  0  0  0  0  0  0  0
    1.5203   -1.5738    1.8979 C   0  0  0  0  0  0  0  0  0  0  0  0
    2.0349   -0.8504    2.9783 C   0  0  0  0  0  0  0  0  0  0  0  0
    2.9762    0.1515    2.7622 C   0  0  0  0  0  0  0  0  0  0  0  0
    3.4011    0.4356    1.4680 C   0  0  0  0  0  0  0  0  0  0  0  0
    4.3461    1.4185    1.3537 O   0  0  0  0  0  0  0  0  0  0  0  0
    4.2020    2.2757    0.2320 C   0  0  0  0  0  0  0  0  0  0  0  0
    5.0774    1.9289   -0.9758 C   0  0  0  0  0  0  0  0  0  0  0  0
    4.9879    2.8088   -2.0227 N   0  0  0  0  0  0  0  0  0  0  0  0
    5.8032    0.9451   -1.0666 O   0  0  0  0  0  0  0  0  0  0  0  0
    2.9030   -0.3119    0.3962 C   0  0  0  0  0  0  0  0  0  0  0  0
   -1.7226   -3.5396    2.2523 H   0  0  0  0  0  0  0  0  0  0  0  0
   -1.8733   -4.5580    0.8023 H   0  0  0  0  0  0  0  0  0  0  0  0
   -3.3173   -3.8701    1.5505 H   0  0  0  0  0  0  0  0  0  0  0  0
   -5.2459   -0.3502    0.2608 H   0  0  0  0  0  0  0  0  0  0  0  0
   -6.6406    1.6683    0.1330 H   0  0  0  0  0  0  0  0  0  0  0  0
   -5.6789    3.8096   -0.6730 H   0  0  0  0  0  0  0  0  0  0  0  0
   -3.2867    3.9229   -1.3180 H   0  0  0  0  0  0  0  0  0  0  0  0
   -1.8624    1.9525   -1.1668 H   0  0  0  0  0  0  0  0  0  0  0  0
   -1.4820    0.2851   -2.7498 H   0  0  0  0  0  0  0  0  0  0  0  0
   -0.1299   -0.8199   -2.6483 H   0  0  0  0  0  0  0  0  0  0  0  0
   -0.1180    0.6322   -1.6421 H   0  0  0  0  0  0  0  0  0  0  0  0
    0.3592   -3.6114    0.2581 H   0  0  0  0  0  0  0  0  0  0  0  0
    0.2157   -3.3613   -1.4562 H   0  0  0  0  0  0  0  0  0  0  0  0
    1.6404   -1.5492   -1.3953 H   0  0  0  0  0  0  0  0  0  0  0  0
    0.8062   -2.3618    2.1126 H   0  0  0  0  0  0  0  0  0  0  0  0
    1.7078   -1.0792    3.9888 H   0  0  0  0  0  0  0  0  0  0  0  0
    3.3827    0.7067    3.6032 H   0  0  0  0  0  0  0  0  0  0  0  0
    3.1556    2.3662   -0.0886 H   0  0  0  0  0  0  0  0  0  0  0  0
    4.5124    3.2735    0.5668 H   0  0  0  0  0  0  0  0  0  0  0  0
    4.6244    3.7445   -1.9060 H   0  0  0  0  0  0  0  0  0  0  0  0
    5.6305    2.6454   -2.7887 H   0  0  0  0  0  0  0  0  0  0  0  0
    3.2946   -0.1518   -0.6032 H   0  0  0  0  0  0  0  0  0  0  0  0
  1  2  1  0
  2  3  2  0
  3  4  1  0
  4  5  1  0
  5  6  2  0
  6  7  1  0
  7  8  2  0
  8  9  1  0
  9 10  2  0
  4 11  1  0
 11 12  1  0
 11 13  2  0
 13 14  1  0
 14 15  1  0
 15 16  1  0
 16 17  2  0
 17 18  1  0
 18 19  2  0
 19 20  1  0
 20 21  1  0
 21 22  1  0
 22 23  1  0
 23 24  1  0
 23 25  2  0
 20 26  2  0
 13  2  1  0
 26 16  1  0
 10  5  1  0
  1 27  1  0
  1 28  1  0
  1 29  1  0
  6 30  1  0
  7 31  1  0
  8 32  1  0
  9 33  1  0
 10 34  1  0
 12 35  1  0
 12 36  1  0
 12 37  1  0
 14 38  1  0
 14 39  1  0
 15 40  1  0
 17 41  1  0
 18 42  1  0
 19 43  1  0
 22 44  1  0
 22 45  1  0
 24 46  1  0
 24 47  1  0
 26 48  1  0
M  END
$$$$
OCNT-2317189
     RDKit          3D

 42 44  0  0  0  0  0  0  0  0999 V2000
   -6.5496    0.3723   -1.3768 C   0  0  0  0  0  0  0  0  0  0  0  0
   -5.4749   -0.3849   -0.6623 C   0  0  0  0  0  0  0  0  0  0  0  0
   -5.5400   -1.7272   -0.6829 N   0  0  0  0  0  0  0  0  0  0  0  0
   -4.5843   -2.3714    0.0062 C   0  0  0  0  0  0  0  0  0  0  0  0
   -3.5828   -1.7306    0.6952 C   0  0  0  0  0  0  0  0  0  0  0  0
   -3.5931   -0.3542    0.6497 C   0  0  0  0  0  0  0  0  0  0  0  0
   -2.6490    0.4258    1.3138 N   0  0  0  0  0  0  0  0  0  0  0  0
   -1.2333    0.1522    1.0262 C   0  0  0  0  0  0  0  0  0  0  0  0
   -0.3736    0.9588    1.9992 C   0  0  0  0  0  0  0  0  0  0  0  0
    1.1137    0.6551    1.7990 C   0  0  0  0  0  0  0  0  0  0  0  0
    1.3978    0.2757    0.4043 N   0  0  0  0  0  0  0  0  0  0  0  0
    2.7625    0.1497    0.1133 C   0  0  0  0  0  0  0  0  0  0  0  0
    3.1827   -0.3909   -1.1034 C   0  0  0  0  0  0  0  0  0  0  0  0
    4.5440   -0.5410   -1.3757 C   0  0  0  0  0  0  0  0  0  0  0  0
    5.4828   -0.1632   -0.4195 C   0  0  0  0  0  0  0  0  0  0  0  0
    6.9543   -0.2804   -0.6557 C   0  0  0  0  0  0  0  0  0  0  0  0
    7.2954   -1.4302   -1.3022 F   0  0  0  0  0  0  0  0  0  0  0  0
    7.6916   -0.2671    0.4904 F   0  0  0  0  0  0  0  0  0  0  0  0
    7.4384    0.7358   -1.4222 F   0  0  0  0  0  0  0  0  0  0  0  0
    4.9933    0.3513    0.7665 C   0  0  0  0  0  0  0  0  0  0  0  0
    3.6758    0.4994    1.0456 N   0  0  0  0  0  0  0  0  0  0  0  0
    0.5732    0.9575   -0.5921 C   0  0  0  0  0  0  0  0  0  0  0  0
   -0.8793    0.5059   -0.4294 C   0  0  0  0  0  0  0  0  0  0  0  0
   -4.5373    0.3306   -0.0119 N   0  0  0  0  0  0  0  0  0  0  0  0
   -6.9297   -0.2052   -2.2249 H   0  0  0  0  0  0  0  0  0  0  0  0
   -7.3759    0.5755   -0.6896 H   0  0  0  0  0  0  0  0  0  0  0  0
   -6.1632    1.3229   -1.7566 H   0  0  0  0  0  0  0  0  0  0  0  0
   -4.6518   -3.4547   -0.0056 H   0  0  0  0  0  0  0  0  0  0  0  0
   -2.8468   -2.2862    1.2573 H   0  0  0  0  0  0  0  0  0  0  0  0
   -2.9112    1.3887    1.1045 H   0  0  0  0  0  0  0  0  0  0  0  0
   -1.0150   -0.9092    1.2038 H   0  0  0  0  0  0  0  0  0  0  0  0
   -0.5513    2.0317    1.8448 H   0  0  0  0  0  0  0  0  0  0  0  0
   -0.6542    0.7543    3.0395 H   0  0  0  0  0  0  0  0  0  0  0  0
    1.3961   -0.1768    2.4567 H   0  0  0  0  0  0  0  0  0  0  0  0
    1.6833    1.5410    2.1090 H   0  0  0  0  0  0  0  0  0  0  0  0
    2.4602   -0.7318   -1.8371 H   0  0  0  0  0  0  0  0  0  0  0  0
    4.8599   -0.9643   -2.3269 H   0  0  0  0  0  0  0  0  0  0  0  0
    5.6585    0.6704    1.5664 H   0  0  0  0  0  0  0  0  0  0  0  0
    0.6482    2.0440   -0.4499 H   0  0  0  0  0  0  0  0  0  0  0  0
    0.8750    0.7606   -1.6266 H   0  0  0  0  0  0  0  0  0  0  0  0
   -1.5345    1.2908   -0.8289 H   0  0  0  0  0  0  0  0  0  0  0  0
   -1.0560   -0.3805   -1.0531 H   0  0  0  0  0  0  0  0  0  0  0  0
  1  2  1  0
  2  3  2  0
  3  4  1  0
  4  5  2  0
  5  6  1  0
  6  7  1  0
  7  8  1  0
  8  9  1  0
  9 10  1  0
 10 11  1  0
 11 12  1  0
 12 13  2  0
 13 14  1  0
 14 15  2  0
 15 16  1  0
 16 17  1  0
 16 18  1  0
 16 19  1  0
 15 20  1  0
 20 21  2  0
 11 22  1  0
 22 23  1  0
  6 24  2  0
 24  2  1  0
 23  8  1  0
 21 12  1  0
  1 25  1  0
  1 26  1  0
  1 27  1  0
  4 28  1  0
  5 29  1  0
  7 30  1  0
  8 31  1  0
  9 32  1  0
  9 33  1  0
 10 34  1  0
 10 35  1  0
 13 36  1  0
 14 37  1  0
 20 38  1  0
 22 39  1  0
 22 40  1  0
 23 41  1  0
 23 42  1  0
M  END
$$$$
OCNT-2317192
     RDKit          3D

 52 54  0  0  0  0  0  0  0  0999 V2000
    4.8445    0.5246   -3.7405 C   0  0  0  0  0  0  0  0  0  0  0  0
    3.9907    0.2256   -2.6395 O   0  0  0  0  0  0  0  0  0  0  0  0
    4.6120    0.4043   -1.4078 C   0  0  0  0  0  0  0  0  0  0  0  0
    5.9195    0.7465   -1.3706 N   0  0  0  0  0  0  0  0  0  0  0  0
    6.4643    0.8931   -0.1420 C   0  0  0  0  0  0  0  0  0  0  0  0
    5.7646    0.7335    1.0502 C   0  0  0  0  0  0  0  0  0  0  0  0
    6.4427    0.8842    2.3763 C   0  0  0  0  0  0  0  0  0  0  0  0
    4.4158    0.3683    0.9714 C   0  0  0  0  0  0  0  0  0  0  0  0
    3.8148    0.1909   -0.2736 C   0  0  0  0  0  0  0  0  0  0  0  0
    2.4573   -0.1606   -0.4624 N   0  0  0  0  0  0  0  0  0  0  0  0
    1.5752   -0.6348    0.4787 C   0  0  0  0  0  0  0  0  0  0  0  0
    1.9011   -0.9521    1.6218 O   0  0  0  0  0  0  0  0  0  0  0  0
    0.2484   -0.7458    0.0408 N   0  0  0  0  0  0  0  0  0  0  0  0
   -0.2075   -0.4361   -1.3194 C   0  0  0  0  0  0  0  0  0  0  0  0
   -1.6681   -0.0017   -1.3745 C   0  0  0  0  0  0  0  0  0  0  0  0
   -2.5547   -1.0148   -0.6515 C   0  0  0  0  0  0  0  0  0  0  0  0
   -3.9968   -0.6969   -0.8289 N   0  0  0  0  0  0  0  0  0  0  0  0
   -4.8209   -1.8131   -1.3045 C   0  0  0  0  0  0  0  0  0  0  0  0
   -4.6073    0.1484    0.1072 C   0  0  0  0  0  0  0  0  0  0  0  0
   -5.4652   -0.3250    1.1133 C   0  0  0  0  0  0  0  0  0  0  0  0
   -6.0613    0.5460    2.0332 C   0  0  0  0  0  0  0  0  0  0  0  0
   -5.7991    1.9129    1.9706 C   0  0  0  0  0  0  0  0  0  0  0  0
   -4.9511    2.4065    0.9818 C   0  0  0  0  0  0  0  0  0  0  0  0
   -4.3695    1.5305    0.0600 C   0  0  0  0  0  0  0  0  0  0  0  0
   -2.1003   -1.1505    0.8036 C   0  0  0  0  0  0  0  0  0  0  0  0
   -0.6387   -1.5818    0.8570 C   0  0  0  0  0  0  0  0  0  0  0  0
    5.1483    1.5789   -3.7323 H   0  0  0  0  0  0  0  0  0  0  0  0
    5.7167   -0.1386   -3.7628 H   0  0  0  0  0  0  0  0  0  0  0  0
    4.2743    0.3499   -4.6591 H   0  0  0  0  0  0  0  0  0  0  0  0
    7.5196    1.1527   -0.1428 H   0  0  0  0  0  0  0  0  0  0  0  0
    7.3010    1.5610    2.3061 H   0  0  0  0  0  0  0  0  0  0  0  0
    6.7933   -0.0906    2.7318 H   0  0  0  0  0  0  0  0  0  0  0  0
    5.7568    1.3062    3.1188 H   0  0  0  0  0  0  0  0  0  0  0  0
    3.8520    0.2355    1.8905 H   0  0  0  0  0  0  0  0  0  0  0  0
    2.2115   -0.2730   -1.4363 H   0  0  0  0  0  0  0  0  0  0  0  0
    0.3946    0.3702   -1.7510 H   0  0  0  0  0  0  0  0  0  0  0  0
   -0.0471   -1.3350   -1.9277 H   0  0  0  0  0  0  0  0  0  0  0  0
   -1.7492    0.9873   -0.9083 H   0  0  0  0  0  0  0  0  0  0  0  0
   -1.9816    0.1098   -2.4202 H   0  0  0  0  0  0  0  0  0  0  0  0
   -2.3758   -1.9875   -1.1361 H   0  0  0  0  0  0  0  0  0  0  0  0
   -4.4014   -2.2111   -2.2362 H   0  0  0  0  0  0  0  0  0  0  0  0
   -4.8504   -2.6312   -0.5744 H   0  0  0  0  0  0  0  0  0  0  0  0
   -5.8428   -1.4911   -1.5308 H   0  0  0  0  0  0  0  0  0  0  0  0
   -5.6687   -1.3873    1.2124 H   0  0  0  0  0  0  0  0  0  0  0  0
   -6.7286    0.1539    2.7972 H   0  0  0  0  0  0  0  0  0  0  0  0
   -6.2639    2.5947    2.6765 H   0  0  0  0  0  0  0  0  0  0  0  0
   -4.7559    3.4739    0.9106 H   0  0  0  0  0  0  0  0  0  0  0  0
   -3.7481    1.9479   -0.7280 H   0  0  0  0  0  0  0  0  0  0  0  0
   -2.7168   -1.8855    1.3366 H   0  0  0  0  0  0  0  0  0  0  0  0
   -2.2015   -0.1943    1.3343 H   0  0  0  0  0  0  0  0  0  0  0  0
   -0.5351   -2.6087    0.4825 H   0  0  0  0  0  0  0  0  0  0  0  0
   -0.3116   -1.5904    1.9030 H   0  0  0  0  0  0  0  0  0  0  0  0
  1  2  1  0
  2  3  1  0
  3  4  1  0
  4  5  2  0
  5  6  1  0
  6  7  1  0
  6  8  2  0
  8  9  1  0
  9 10  1  0
 10 11  1  0
 11 12  2  0
 11 13  1  0
 13 14  1  0
 14 15  1  0
 15 16  1  0
 16 17  1  0
 17 18  1  0
 17 19  1  0
 19 20  2  0
 20 21  1  0
 21 22  2  0
 22 23  1  0
 23 24  2  0
 16 25  1  0
 25 26  1  0
  9  3  2  0
 26 13  1  0
 24 19  1  0
  1 27  1  0
  1 28  1  0
  1 29  1  0
  5 30  1  0
  7 31  1  0
  7 32  1  0
  7 33  1  0
  8 34  1  0
 10 35  1  0
 14 36  1  0
 14 37  1  0
 15 38  1  0
 15 39  1  0
 16 40  1  0
 18 41  1  0
 18 42  1  0
 18 43  1  0
 20 44  1  0
 21 45  1  0
 22 46  1  0
 23 47  1  0
 24 48  1  0
 25 49  1  0
 25 50  1  0
 26 51  1  0
 26 52  1  0
M  END
$$$$
OCNT-2317195
     RDKit          3D

 40 43  0  0  0  0  0  0  0  0999 V2000
    7.5039    0.7099   -0.2196 C   0  0  0  0  0  0  0  0  0  0  0  0
    6.0688    0.7728   -0.2793 N   0  0  0  0  0  0  0  0  0  0  0  0
    5.3113    1.3696   -1.2290 C   0  0  0  0  0  0  0  0  0  0  0  0
    4.0443    1.2059   -0.9379 N   0  0  0  0  0  0  0  0  0  0  0  0
    4.0660    0.4738    0.2296 C   0  0  0  0  0  0  0  0  0  0  0  0
    2.8467    0.0229    0.8958 C   0  0  0  0  0  0  0  0  0  0  0  0
    2.9125   -0.6197    2.1401 C   0  0  0  0  0  0  0  0  0  0  0  0
    1.7529   -1.0764    2.7615 C   0  0  0  0  0  0  0  0  0  0  0  0
    0.5176   -0.8961    2.1394 C   0  0  0  0  0  0  0  0  0  0  0  0
    0.4253   -0.2517    0.8987 C   0  0  0  0  0  0  0  0  0  0  0  0
   -0.8644   -0.1325    0.3443 N   0  0  0  0  0  0  0  0  0  0  0  0
   -1.2427    0.4645   -0.8407 C   0  0  0  0  0  0  0  0  0  0  0  0
   -0.4910    1.0597   -1.6076 O   0  0  0  0  0  0  0  0  0  0  0  0
   -2.6990    0.3640   -1.2089 C   0  0  0  0  0  0  0  0  0  0  0  0
   -3.0665    0.9145   -2.4546 C   0  0  0  0  0  0  0  0  0  0  0  0
   -4.3827    0.8705   -2.8950 C   0  0  0  0  0  0  0  0  0  0  0  0
   -5.3441    0.2695   -2.0965 C   0  0  0  0  0  0  0  0  0  0  0  0
   -4.9970   -0.2804   -0.8527 C   0  0  0  0  0  0  0  0  0  0  0  0
   -5.9859   -0.8636   -0.0495 C   0  0  0  0  0  0  0  0  0  0  0  0
   -5.6550   -1.3944    1.1891 C   0  0  0  0  0  0  0  0  0  0  0  0
   -4.3377   -1.3263    1.5850 C   0  0  0  0  0  0  0  0  0  0  0  0
   -3.3550   -0.7719    0.8380 N   0  0  0  0  0  0  0  0  0  0  0  0
   -3.6614   -0.2423   -0.3793 C   0  0  0  0  0  0  0  0  0  0  0  0
    1.5929    0.2060    0.2864 C   0  0  0  0  0  0  0  0  0  0  0  0
    5.3091    0.1939    0.6624 N   0  0  0  0  0  0  0  0  0  0  0  0
    7.8075   -0.0710    0.4829 H   0  0  0  0  0  0  0  0  0  0  0  0
    7.8810    0.4708   -1.2146 H   0  0  0  0  0  0  0  0  0  0  0  0
    7.8812    1.6796    0.1116 H   0  0  0  0  0  0  0  0  0  0  0  0
    5.7137    1.8915   -2.0846 H   0  0  0  0  0  0  0  0  0  0  0  0
    3.8728   -0.7722    2.6283 H   0  0  0  0  0  0  0  0  0  0  0  0
    1.8129   -1.5788    3.7230 H   0  0  0  0  0  0  0  0  0  0  0  0
   -0.3742   -1.2717    2.6326 H   0  0  0  0  0  0  0  0  0  0  0  0
   -1.6263   -0.5391    0.8866 H   0  0  0  0  0  0  0  0  0  0  0  0
   -2.3197    1.3988   -3.0814 H   0  0  0  0  0  0  0  0  0  0  0  0
   -4.6524    1.3011   -3.8560 H   0  0  0  0  0  0  0  0  0  0  0  0
   -6.3736    0.2402   -2.4484 H   0  0  0  0  0  0  0  0  0  0  0  0
   -7.0198   -0.9062   -0.3840 H   0  0  0  0  0  0  0  0  0  0  0  0
   -6.4060   -1.8539    1.8230 H   0  0  0  0  0  0  0  0  0  0  0  0
   -4.0219   -1.7323    2.5422 H   0  0  0  0  0  0  0  0  0  0  0  0
    1.5562    0.7011   -0.6807 H   0  0  0  0  0  0  0  0  0  0  0  0
  1  2  1  0
  2  3  1  0
  3  4  2  0
  4  5  1  0
  5  6  1  0
  6  7  1  0
  7  8  2  0
  8  9  1  0
  9 10  2  0
 10 11  1  0
 11 12  1  0
 12 13  2  0
 12 14  1  0
 14 15  1  0
 15 16  2  0
 16 17  1  0
 17 18  2  0
 18 19  1  0
 19 20  2  0
 20 21  1  0
 21 22  2  0
 22 23  1  0
 10 24  1  0
  5 25  2  0
 25  2  1  0
 24  6  2  0
 23 14  2  0
 23 18  1  0
  1 26  1  0
  1 27  1  0
  1 28  1  0
  3 29  1  0
  7 30  1  0
  8 31  1  0
  9 32  1  0
 11 33  1  0
 15 34  1  0
 16 35  1  0
 17 36  1  0
 19 37  1  0
 20 38  1  0
 21 39  1  0
 24 40  1  0
M  END
$$$$
OCNT-2317208
     RDKit          3D

 47 49  0  0  0  0  0  0  0  0999 V2000
    5.3853    3.3922    1.7216 C   0  0  0  0  0  0  0  0  0  0  0  0
    4.1840    2.9021    2.3051 O   0  0  0  0  0  0  0  0  0  0  0  0
    3.4452    2.0311    1.5541 C   0  0  0  0  0  0  0  0  0  0  0  0
    2.2482    1.6228    2.1419 C   0  0  0  0  0  0  0  0  0  0  0  0
    1.3971    0.7332    1.4799 C   0  0  0  0  0  0  0  0  0  0  0  0
    1.7313    0.2369    0.2159 C   0  0  0  0  0  0  0  0  0  0  0  0
    0.8203   -0.6485   -0.3858 N   0  0  0  0  0  0  0  0  0  0  0  0
    0.9085   -1.2654   -1.6229 C   0  0  0  0  0  0  0  0  0  0  0  0
    1.8586   -1.1993   -2.4000 O   0  0  0  0  0  0  0  0  0  0  0  0
   -0.2604   -2.2377   -1.8970 C   0  0  0  0  0  0  0  0  0  0  0  0
    0.1678   -3.6591   -1.5139 C   0  0  0  0  0  0  0  0  0  0  0  0
   -1.1279   -4.3203   -1.0689 C   0  0  0  0  0  0  0  0  0  0  0  0
   -1.8586   -3.1964   -0.3533 C   0  0  0  0  0  0  0  0  0  0  0  0
   -1.4610   -1.9967   -1.0754 N   0  0  0  0  0  0  0  0  0  0  0  0
   -2.2685   -0.9049   -1.3314 C   0  0  0  0  0  0  0  0  0  0  0  0
   -1.9836   -0.0913   -2.2078 O   0  0  0  0  0  0  0  0  0  0  0  0
   -3.5093   -0.7638   -0.4673 C   0  0  0  0  0  0  0  0  0  0  0  0
   -3.9959    0.6809   -0.3970 C   0  0  0  0  0  0  0  0  0  0  0  0
   -3.0812    1.5258    0.4164 C   0  0  0  0  0  0  0  0  0  0  0  0
   -2.0307    2.3602    0.0980 C   0  0  0  0  0  0  0  0  0  0  0  0
   -1.5539    2.8840    1.3227 C   0  0  0  0  0  0  0  0  0  0  0  0
   -2.3372    2.3293    2.3078 C   0  0  0  0  0  0  0  0  0  0  0  0
   -3.2648    1.4975    1.7669 O   0  0  0  0  0  0  0  0  0  0  0  0
    2.9315    0.6413   -0.3678 C   0  0  0  0  0  0  0  0  0  0  0  0
    3.7844    1.5352    0.2966 C   0  0  0  0  0  0  0  0  0  0  0  0
    5.8417    4.0867    2.4336 H   0  0  0  0  0  0  0  0  0  0  0  0
    6.0984    2.5807    1.5425 H   0  0  0  0  0  0  0  0  0  0  0  0
    5.1786    3.9477    0.8005 H   0  0  0  0  0  0  0  0  0  0  0  0
    1.9734    2.0018    3.1228 H   0  0  0  0  0  0  0  0  0  0  0  0
    0.4707    0.4408    1.9669 H   0  0  0  0  0  0  0  0  0  0  0  0
   -0.0466   -0.8155    0.1117 H   0  0  0  0  0  0  0  0  0  0  0  0
   -0.5461   -2.1664   -2.9526 H   0  0  0  0  0  0  0  0  0  0  0  0
    0.8837   -3.6515   -0.6824 H   0  0  0  0  0  0  0  0  0  0  0  0
    0.6384   -4.1860   -2.3497 H   0  0  0  0  0  0  0  0  0  0  0  0
   -1.6994   -4.6393   -1.9489 H   0  0  0  0  0  0  0  0  0  0  0  0
   -0.9662   -5.1928   -0.4299 H   0  0  0  0  0  0  0  0  0  0  0  0
   -2.9417   -3.3436   -0.3576 H   0  0  0  0  0  0  0  0  0  0  0  0
   -1.5090   -3.0901    0.6795 H   0  0  0  0  0  0  0  0  0  0  0  0
   -4.2908   -1.3853   -0.9188 H   0  0  0  0  0  0  0  0  0  0  0  0
   -3.3085   -1.1378    0.5428 H   0  0  0  0  0  0  0  0  0  0  0  0
   -4.1036    1.1097   -1.4007 H   0  0  0  0  0  0  0  0  0  0  0  0
   -4.9933    0.6983    0.0593 H   0  0  0  0  0  0  0  0  0  0  0  0
   -1.6553    2.5585   -0.8979 H   0  0  0  0  0  0  0  0  0  0  0  0
   -0.7345    3.5744    1.4680 H   0  0  0  0  0  0  0  0  0  0  0  0
   -2.3582    2.4151    3.3850 H   0  0  0  0  0  0  0  0  0  0  0  0
    3.2347    0.2857   -1.3477 H   0  0  0  0  0  0  0  0  0  0  0  0
    4.7043    1.8199   -0.2033 H   0  0  0  0  0  0  0  0  0  0  0  0
  1  2  1  0
  2  3  1  0
  3  4  1  0
  4  5  2  0
  5  6  1  0
  6  7  1  0
  7  8  1  0
  8  9  2  0
  8 10  1  0
 10 11  1  0
 11 12  1  0
 12 13  1  0
 13 14  1  0
 14 15  1  0
 15 16  2  0
 15 17  1  0
 17 18  1  0
 18 19  1  0
 19 20  2  0
 20 21  1  0
 21 22  2  0
 22 23  1  0
  6 24  2  0
 24 25  1  0
 25  3  2  0
 14 10  1  0
 23 19  1  0
  1 26  1  0
  1 27  1  0
  1 28  1  0
  4 29  1  0
  5 30  1  0
  7 31  1  0
 10 32  1  0
 11 33  1  0
 11 34  1  0
 12 35  1  0
 12 36  1  0
 13 37  1  0
 13 38  1  0
 17 39  1  0
 17 40  1  0
 18 41  1  0
 18 42  1  0
 20 43  1  0
 21 44  1  0
 22 45  1  0
 24 46  1  0
 25 47  1  0
M  END
$$$$
OCNT-2317220
     RDKit          3D

 47 50  0  0  0  0  0  0  0  0999 V2000
   -6.7272    0.7364   -1.0440 C   0  0  0  0  0  0  0  0  0  0  0  0
   -5.5581    0.0081   -0.6859 O   0  0  0  0  0  0  0  0  0  0  0  0
   -4.4785    0.7420   -0.2633 C   0  0  0  0  0  0  0  0  0  0  0  0
   -4.4265    2.1285   -0.1517 C   0  0  0  0  0  0  0  0  0  0  0  0
   -3.2714    2.7802    0.3028 C   0  0  0  0  0  0  0  0  0  0  0  0
   -2.1732    1.9923    0.6532 C   0  0  0  0  0  0  0  0  0  0  0  0
   -0.9374    2.3570    1.1349 N   0  0  0  0  0  0  0  0  0  0  0  0
   -0.1825    1.2464    1.3797 C   0  0  0  0  0  0  0  0  0  0  0  0
   -0.9134    0.1336    1.0046 C   0  0  0  0  0  0  0  0  0  0  0  0
   -0.4877   -1.2951    1.1032 C   0  0  0  0  0  0  0  0  0  0  0  0
   -0.0399   -1.8593   -0.2432 C   0  0  0  0  0  0  0  0  0  0  0  0
   -0.8422   -1.9974   -1.1808 O   0  0  0  0  0  0  0  0  0  0  0  0
    1.2885   -2.1949   -0.4118 N   0  0  0  0  0  0  0  0  0  0  0  0
    1.7152   -2.8351   -1.6476 C   0  0  0  0  0  0  0  0  0  0  0  0
    3.2074   -3.0549   -1.4707 C   0  0  0  0  0  0  0  0  0  0  0  0
    3.3503   -3.2537    0.0369 C   0  0  0  0  0  0  0  0  0  0  0  0
    2.3296   -2.2789    0.6244 C   0  0  0  0  0  0  0  0  0  0  0  0
    3.0030   -0.9250    0.9276 C   0  0  0  0  0  0  0  0  0  0  0  0
    3.7358   -0.8082    1.9059 O   0  0  0  0  0  0  0  0  0  0  0  0
    2.7506    0.0227   -0.0300 N   0  0  0  0  0  0  0  0  0  0  0  0
    3.2669    1.2871    0.0215 C   0  0  0  0  0  0  0  0  0  0  0  0
    4.0912    1.8171    0.8900 N   0  0  0  0  0  0  0  0  0  0  0  0
    4.3219    3.1423    0.5559 C   0  0  0  0  0  0  0  0  0  0  0  0
    3.6610    3.5919   -0.5674 C   0  0  0  0  0  0  0  0  0  0  0  0
    2.7208    2.3119   -1.2333 S   0  0  0  0  0  0  0  0  0  0  0  0
   -2.1875    0.6056    0.5542 C   0  0  0  0  0  0  0  0  0  0  0  0
   -3.3588   -0.0227    0.0802 C   0  0  0  0  0  0  0  0  0  0  0  0
   -7.4963    0.0152   -1.3543 H   0  0  0  0  0  0  0  0  0  0  0  0
   -7.1170    1.2916   -0.1853 H   0  0  0  0  0  0  0  0  0  0  0  0
   -6.5349    1.4044   -1.8971 H   0  0  0  0  0  0  0  0  0  0  0  0
   -5.2774    2.7464   -0.4142 H   0  0  0  0  0  0  0  0  0  0  0  0
   -3.2382    3.8597    0.3864 H   0  0  0  0  0  0  0  0  0  0  0  0
   -0.6467    3.3072    1.3134 H   0  0  0  0  0  0  0  0  0  0  0  0
    0.8069    1.3537    1.8070 H   0  0  0  0  0  0  0  0  0  0  0  0
    0.2801   -1.3887    1.8679 H   0  0  0  0  0  0  0  0  0  0  0  0
   -1.3277   -1.9088    1.4417 H   0  0  0  0  0  0  0  0  0  0  0  0
    1.1725   -3.7836   -1.7462 H   0  0  0  0  0  0  0  0  0  0  0  0
    1.4802   -2.2027   -2.5130 H   0  0  0  0  0  0  0  0  0  0  0  0
    3.7603   -2.1637   -1.7846 H   0  0  0  0  0  0  0  0  0  0  0  0
    3.5765   -3.9028   -2.0492 H   0  0  0  0  0  0  0  0  0  0  0  0
    3.0632   -4.2808    0.2963 H   0  0  0  0  0  0  0  0  0  0  0  0
    4.3749   -3.0909    0.3855 H   0  0  0  0  0  0  0  0  0  0  0  0
    1.9096   -2.6702    1.5556 H   0  0  0  0  0  0  0  0  0  0  0  0
    2.0861   -0.1761   -0.7678 H   0  0  0  0  0  0  0  0  0  0  0  0
    4.9878    3.7365    1.1763 H   0  0  0  0  0  0  0  0  0  0  0  0
    3.6825    4.5773   -1.0169 H   0  0  0  0  0  0  0  0  0  0  0  0
   -3.4003   -1.1019   -0.0213 H   0  0  0  0  0  0  0  0  0  0  0  0
  1  2  1  0
  2  3  1  0
  3  4  2  0
  4  5  1  0
  5  6  2  0
  6  7  1  0
  7  8  1  0
  8  9  2  0
  9 10  1  0
 10 11  1  0
 11 12  2  0
 11 13  1  0
 13 14  1  0
 14 15  1  0
 15 16  1  0
 16 17  1  0
 17 18  1  0
 18 19  2  0
 18 20  1  0
 20 21  1  0
 21 22  2  0
 22 23  1  0
 23 24  2  0
 24 25  1  0
  9 26  1  0
 26 27  2  0
 27  3  1  0
 26  6  1  0
 17 13  1  0
 25 21  1  0
  1 28  1  0
  1 29  1  0
  1 30  1  0
  4 31  1  0
  5 32  1  0
  7 33  1  0
  8 34  1  0
 10 35  1  0
 10 36  1  0
 14 37  1  0
 14 38  1  0
 15 39  1  0
 15 40  1  0
 16 41  1  0
 16 42  1  0
 17 43  1  0
 20 44  1  0
 23 45  1  0
 24 46  1  0
 27 47  1  0
M  END
$$$$
OCNT-2317231
     RDKit          3D

 41 44  0  0  0  0  0  0  0  0999 V2000
   -4.6084   -0.8246    1.9018 C   0  0  0  0  0  0  0  0  0  0  0  0
   -4.7017   -0.5303    0.4547 C   0  0  0  0  0  0  0  0  0  0  0  0
   -3.8690    0.1064   -0.4331 C   0  0  0  0  0  0  0  0  0  0  0  0
   -2.6327    0.6658   -0.1373 C   0  0  0  0  0  0  0  0  0  0  0  0
   -2.0805    1.2195   -1.3038 C   0  0  0  0  0  0  0  0  0  0  0  0
   -0.7701    1.8951   -1.2627 C   0  0  0  0  0  0  0  0  0  0  0  0
   -0.7103    3.0441   -1.6916 O   0  0  0  0  0  0  0  0  0  0  0  0
    0.3252    1.2170   -0.7427 N   0  0  0  0  0  0  0  0  0  0  0  0
    1.5833    1.9560   -0.5935 C   0  0  0  0  0  0  0  0  0  0  0  0
    2.5726    1.2544    0.3500 C   0  0  0  0  0  0  0  0  0  0  0  0
    2.8662   -0.1084   -0.1238 N   0  0  0  0  0  0  0  0  0  0  0  0
    3.8305   -0.8118    0.5872 C   0  0  0  0  0  0  0  0  0  0  0  0
    4.3190   -2.0570    0.1672 C   0  0  0  0  0  0  0  0  0  0  0  0
    5.2625   -2.7818    0.8260 N   0  0  0  0  0  0  0  0  0  0  0  0
    5.7406   -2.2013    1.9424 C   0  0  0  0  0  0  0  0  0  0  0  0
    5.2953   -0.9668    2.3718 C   0  0  0  0  0  0  0  0  0  0  0  0
    4.3473   -0.2599    1.7107 N   0  0  0  0  0  0  0  0  0  0  0  0
    1.7832   -0.8356   -0.8030 C   0  0  0  0  0  0  0  0  0  0  0  0
    0.3943   -0.2321   -0.5041 C   0  0  0  0  0  0  0  0  0  0  0  0
   -2.7720    1.2042   -2.5423 C   0  0  0  0  0  0  0  0  0  0  0  0
   -3.9920    0.6341   -2.8102 N   0  0  0  0  0  0  0  0  0  0  0  0
   -4.5382    0.0750   -1.6995 C   0  0  0  0  0  0  0  0  0  0  0  0
   -5.7076   -0.5568   -1.6043 N   0  0  0  0  0  0  0  0  0  0  0  0
   -5.7874   -0.8989   -0.3047 N   0  0  0  0  0  0  0  0  0  0  0  0
   -5.4783   -1.3866    2.2569 H   0  0  0  0  0  0  0  0  0  0  0  0
   -3.7140   -1.4189    2.1143 H   0  0  0  0  0  0  0  0  0  0  0  0
   -4.5491    0.1047    2.4773 H   0  0  0  0  0  0  0  0  0  0  0  0
   -2.1613    0.6945    0.8332 H   0  0  0  0  0  0  0  0  0  0  0  0
    2.0192    2.0501   -1.5959 H   0  0  0  0  0  0  0  0  0  0  0  0
    1.3668    2.9667   -0.2295 H   0  0  0  0  0  0  0  0  0  0  0  0
    3.4923    1.8509    0.3904 H   0  0  0  0  0  0  0  0  0  0  0  0
    2.1401    1.2154    1.3583 H   0  0  0  0  0  0  0  0  0  0  0  0
    3.9713   -2.5149   -0.7521 H   0  0  0  0  0  0  0  0  0  0  0  0
    6.4985   -2.7541    2.4845 H   0  0  0  0  0  0  0  0  0  0  0  0
    5.6902   -0.5031    3.2683 H   0  0  0  0  0  0  0  0  0  0  0  0
    1.9713   -0.7903   -1.8824 H   0  0  0  0  0  0  0  0  0  0  0  0
    1.7496   -1.8937   -0.5185 H   0  0  0  0  0  0  0  0  0  0  0  0
   -0.3581   -0.7520   -1.1046 H   0  0  0  0  0  0  0  0  0  0  0  0
    0.1520   -0.3860    0.5542 H   0  0  0  0  0  0  0  0  0  0  0  0
   -2.3195    1.6831   -3.4115 H   0  0  0  0  0  0  0  0  0  0  0  0
   -6.6210   -1.3903    0.0019 H   0  0  0  0  0  0  0  0  0  0  0  0
  1  2  1  0
  2  3  2  0
  3  4  1  0
  4  5  2  0
  5  6  1  0
  6  7  2  0
  6  8  1  0
  8  9  1  0
  9 10  1  0
 10 11  1  0
 11 12  1  0
 12 13  2  0
 13 14  1  0
 14 15  2  0
 15 16  1  0
 16 17  2  0
 11 18  1  0
 18 19  1  0
  5 20  1  0
 20 21  2  0
 21 22  1  0
 22 23  2  0
 23 24  1  0
 24  2  1  0
 22  3  1  0
 19  8  1  0
 17 12  1  0
  1 25  1  0
  1 26  1  0
  1 27  1  0
  4 28  1  0
  9 29  1  0
  9 30  1  0
 10 31  1  0
 10 32  1  0
 13 33  1  0
 15 34  1  0
 16 35  1  0
 18 36  1  0
 18 37  1  0
 19 38  1  0
 19 39  1  0
 20 40  1  0
 24 41  1  0
M  END
$$$$
OCNT-2317265
     RDKit          3D

 48 51  0  0  0  0  0  0  0  0999 V2000
    1.9323   -1.4521    1.6901 O   0  0  0  0  0  0  0  0  0  0  0  0
    1.6990   -0.2600    1.5117 C   0  0  0  0  0  0  0  0  0  0  0  0
    0.4716    0.3003    1.7905 N   0  0  0  0  0  0  0  0  0  0  0  0
   -0.6572   -0.5337    2.1450 C   0  0  0  0  0  0  0  0  0  0  0  0
   -1.4273   -0.9580    0.9173 C   0  0  0  0  0  0  0  0  0  0  0  0
   -1.1375   -2.1598    0.2852 C   0  0  0  0  0  0  0  0  0  0  0  0
   -1.8303   -2.4763   -0.8721 C   0  0  0  0  0  0  0  0  0  0  0  0
   -2.7857   -1.5862   -1.3563 C   0  0  0  0  0  0  0  0  0  0  0  0
   -3.0427   -0.3945   -0.6772 C   0  0  0  0  0  0  0  0  0  0  0  0
   -3.9973    0.5029   -1.1793 N   0  0  0  0  0  0  0  0  0  0  0  0
   -5.3609   -0.0548   -1.3220 C   0  0  0  0  0  0  0  0  0  0  0  0
   -6.1043   -0.0425    0.0250 C   0  0  0  0  0  0  0  0  0  0  0  0
   -6.1643    1.2843    0.5746 O   0  0  0  0  0  0  0  0  0  0  0  0
   -4.8350    1.7918    0.7923 C   0  0  0  0  0  0  0  0  0  0  0  0
   -4.0232    1.8253   -0.5148 C   0  0  0  0  0  0  0  0  0  0  0  0
   -2.3487   -0.0794    0.4383 N   0  0  0  0  0  0  0  0  0  0  0  0
    2.6974    0.6624    0.9552 C   0  0  0  0  0  0  0  0  0  0  0  0
    2.6649    2.0406    1.1066 C   0  0  0  0  0  0  0  0  0  0  0  0
    3.9806    2.8375    0.3609 S   0  0  0  0  0  0  0  0  0  0  0  0
    4.6400    1.3638   -0.1601 C   0  0  0  0  0  0  0  0  0  0  0  0
    3.8712    0.2736    0.2050 C   0  0  0  0  0  0  0  0  0  0  0  0
    4.2815   -1.1303   -0.1493 C   0  0  0  0  0  0  0  0  0  0  0  0
    5.3650   -1.1586   -1.2388 C   0  0  0  0  0  0  0  0  0  0  0  0
    6.4670   -0.1257   -0.9709 C   0  0  0  0  0  0  0  0  0  0  0  0
    5.9077    1.3041   -0.9559 C   0  0  0  0  0  0  0  0  0  0  0  0
    0.2412    1.1774    1.3457 H   0  0  0  0  0  0  0  0  0  0  0  0
   -0.3299   -1.4046    2.7235 H   0  0  0  0  0  0  0  0  0  0  0  0
   -1.3088    0.0660    2.7901 H   0  0  0  0  0  0  0  0  0  0  0  0
   -0.3707   -2.8247    0.6719 H   0  0  0  0  0  0  0  0  0  0  0  0
   -1.6184   -3.3978   -1.4061 H   0  0  0  0  0  0  0  0  0  0  0  0
   -3.3017   -1.8135   -2.2830 H   0  0  0  0  0  0  0  0  0  0  0  0
   -5.3667   -1.0627   -1.7499 H   0  0  0  0  0  0  0  0  0  0  0  0
   -5.9032    0.5866   -2.0283 H   0  0  0  0  0  0  0  0  0  0  0  0
   -7.1342   -0.3835   -0.1201 H   0  0  0  0  0  0  0  0  0  0  0  0
   -5.6311   -0.7115    0.7533 H   0  0  0  0  0  0  0  0  0  0  0  0
   -4.9346    2.8080    1.1870 H   0  0  0  0  0  0  0  0  0  0  0  0
   -4.3509    1.1867    1.5663 H   0  0  0  0  0  0  0  0  0  0  0  0
   -4.5139    2.5219   -1.2067 H   0  0  0  0  0  0  0  0  0  0  0  0
   -3.0146    2.2220   -0.3467 H   0  0  0  0  0  0  0  0  0  0  0  0
    1.9382    2.6374    1.6396 H   0  0  0  0  0  0  0  0  0  0  0  0
    3.4164   -1.7060   -0.4968 H   0  0  0  0  0  0  0  0  0  0  0  0
    4.6653   -1.6186    0.7549 H   0  0  0  0  0  0  0  0  0  0  0  0
    5.7985   -2.1634   -1.2960 H   0  0  0  0  0  0  0  0  0  0  0  0
    4.9087   -0.9507   -2.2152 H   0  0  0  0  0  0  0  0  0  0  0  0
    6.9393   -0.3469   -0.0051 H   0  0  0  0  0  0  0  0  0  0  0  0
    7.2486   -0.2041   -1.7350 H   0  0  0  0  0  0  0  0  0  0  0  0
    6.6628    1.9853   -0.5474 H   0  0  0  0  0  0  0  0  0  0  0  0
    5.6959    1.6218   -1.9844 H   0  0  0  0  0  0  0  0  0  0  0  0
  1  2  2  0
  2  3  1  0
  3  4  1  0
  4  5  1  0
  5  6  2  0
  6  7  1  0
  7  8  2  0
  8  9  1  0
  9 10  1  0
 10 11  1  0
 11 12  1  0
 12 13  1  0
 13 14  1  0
 14 15  1  0
  9 16  2  0
  2 17  1  0
 17 18  2  0
 18 19  1  0
 19 20  1  0
 20 21  2  0
 21 22  1  0
 22 23  1  0
 23 24  1  0
 24 25  1  0
 16  5  1  0
 21 17  1  0
 15 10  1  0
 25 20  1  0
  3 26  1  0
  4 27  1  0
  4 28  1  0
  6 29  1  0
  7 30  1  0
  8 31  1  0
 11 32  1  0
 11 33  1  0
 12 34  1  0
 12 35  1  0
 14 36  1  0
 14 37  1  0
 15 38  1  0
 15 39  1  0
 18 40  1  0
 22 41  1  0
 22 42  1  0
 23 43  1  0
 23 44  1  0
 24 45  1  0
 24 46  1  0
 25 47  1  0
 25 48  1  0
M  END
$$$$
OCNT-2317275
     RDKit          3D

 39 42  0  0  0  0  0  0  0  0999 V2000
   -4.3935    2.6827    0.9100 C   0  0  0  0  0  0  0  0  0  0  0  0
   -5.1706    1.5334    1.0243 C   0  0  0  0  0  0  0  0  0  0  0  0
   -4.5552    0.2815    1.0789 C   0  0  0  0  0  0  0  0  0  0  0  0
   -3.1631    0.1651    1.0206 C   0  0  0  0  0  0  0  0  0  0  0  0
   -2.7020   -1.1204    1.0791 O   0  0  0  0  0  0  0  0  0  0  0  0
   -1.2901   -1.3432    1.0256 C   0  0  0  0  0  0  0  0  0  0  0  0
   -0.7698   -1.3770   -0.4240 C   0  0  2  0  0  0  0  0  0  0  0  0
   -1.3837   -2.5260   -1.2451 C   0  0  0  0  0  0  0  0  0  0  0  0
   -0.3733   -3.6538   -1.1009 C   0  0  0  0  0  0  0  0  0  0  0  0
    0.9612   -2.9168   -1.1329 C   0  0  0  0  0  0  0  0  0  0  0  0
    0.6741   -1.6613   -0.4547 N   0  0  0  0  0  0  0  0  0  0  0  0
    1.5678   -0.6387   -0.3546 C   0  0  0  0  0  0  0  0  0  0  0  0
    1.2466    0.5933   -0.0023 N   0  0  0  0  0  0  0  0  0  0  0  0
    2.3244    1.4512    0.0437 N   0  0  0  0  0  0  0  0  0  0  0  0
    3.4476    0.8410   -0.2675 C   0  0  0  0  0  0  0  0  0  0  0  0
    4.8212    1.5944   -0.2879 C   0  0  0  0  0  0  0  0  0  0  0  0
    5.9830    1.0055   -0.6022 N   0  0  0  0  0  0  0  0  0  0  0  0
    6.9424    2.0005   -0.5031 O   0  0  0  0  0  0  0  0  0  0  0  0
    6.3491    3.1627   -0.1343 C   0  0  0  0  0  0  0  0  0  0  0  0
    5.0028    2.9623    0.0159 C   0  0  0  0  0  0  0  0  0  0  0  0
    3.2659   -0.8180   -0.6391 S   0  0  0  0  0  0  0  0  0  0  0  0
   -2.3900    1.3209    0.9072 C   0  0  0  0  0  0  0  0  0  0  0  0
   -3.0053    2.5760    0.8515 C   0  0  0  0  0  0  0  0  0  0  0  0
   -4.8671    3.6599    0.8672 H   0  0  0  0  0  0  0  0  0  0  0  0
   -6.2534    1.6086    1.0716 H   0  0  0  0  0  0  0  0  0  0  0  0
   -5.1664   -0.6132    1.1689 H   0  0  0  0  0  0  0  0  0  0  0  0
   -1.1179   -2.3206    1.4937 H   0  0  0  0  0  0  0  0  0  0  0  0
   -0.7432   -0.6325    1.6564 H   0  0  0  0  0  0  0  0  0  0  0  0
   -1.0113   -0.4384   -0.9376 H   0  0  0  0  0  0  0  0  0  0  0  0
   -2.3871   -2.8165   -0.9214 H   0  0  0  0  0  0  0  0  0  0  0  0
   -1.4453   -2.2293   -2.2999 H   0  0  0  0  0  0  0  0  0  0  0  0
   -0.4566   -4.4017   -1.8943 H   0  0  0  0  0  0  0  0  0  0  0  0
   -0.5060   -4.1588   -0.1368 H   0  0  0  0  0  0  0  0  0  0  0  0
    1.7374   -3.4981   -0.6247 H   0  0  0  0  0  0  0  0  0  0  0  0
    1.2649   -2.7357   -2.1711 H   0  0  0  0  0  0  0  0  0  0  0  0
    7.0080    4.0115   -0.0260 H   0  0  0  0  0  0  0  0  0  0  0  0
    4.2551    3.6869    0.3017 H   0  0  0  0  0  0  0  0  0  0  0  0
   -1.3061    1.2914    0.8563 H   0  0  0  0  0  0  0  0  0  0  0  0
   -2.3945    3.4710    0.7622 H   0  0  0  0  0  0  0  0  0  0  0  0
  1  2  2  0
  2  3  1  0
  3  4  2  0
  4  5  1  0
  5  6  1  0
  6  7  1  0
  7  8  1  0
  8  9  1  0
  9 10  1  0
 10 11  1  0
 11 12  1  0
 12 13  2  0
 13 14  1  0
 14 15  2  0
 15 16  1  0
 16 17  2  0
 17 18  1  0
 18 19  1  0
 19 20  2  0
 15 21  1  0
  4 22  1  0
 22 23  2  0
 23  1  1  0
 11  7  1  0
 21 12  1  0
 20 16  1  0
  1 24  1  0
  2 25  1  0
  3 26  1  0
  6 27  1  0
  6 28  1  0
  7 29  1  6
  8 30  1  0
  8 31  1  0
  9 32  1  0
  9 33  1  0
 10 34  1  0
 10 35  1  0
 19 36  1  0
 20 37  1  0
 22 38  1  0
 23 39  1  0
M  END
$$$$
OCNT-2317276
     RDKit          3D

 45 47  0  0  0  0  0  0  0  0999 V2000
    7.3637    2.0739    2.7914 C   0  0  0  0  0  0  0  0  0  0  0  0
    6.1452    1.7589    1.9979 C   0  0  0  0  0  0  0  0  0  0  0  0
    5.4077    0.6826    2.1599 N   0  0  0  0  0  0  0  0  0  0  0  0
    4.3239    0.7033    1.2884 C   0  0  0  0  0  0  0  0  0  0  0  0
    3.3785   -0.4559    1.3418 C   0  0  0  0  0  0  0  0  0  0  0  0
    1.9089   -0.0500    1.3760 C   0  0  0  0  0  0  0  0  0  0  0  0
    1.5253    0.9588    1.9583 O   0  0  0  0  0  0  0  0  0  0  0  0
    1.1117   -0.9614    0.6856 N   0  0  0  0  0  0  0  0  0  0  0  0
   -0.2637   -0.8879    0.4810 C   0  0  0  0  0  0  0  0  0  0  0  0
   -1.0457   -1.7800   -0.2261 C   0  0  0  0  0  0  0  0  0  0  0  0
   -0.4749   -2.9295   -0.8701 C   0  0  0  0  0  0  0  0  0  0  0  0
    0.0323   -3.8392   -1.3823 N   0  0  0  0  0  0  0  0  0  0  0  0
   -2.4588   -1.4327   -0.2594 C   0  0  0  0  0  0  0  0  0  0  0  0
   -2.6618   -0.2068    0.4409 C   0  0  0  0  0  0  0  0  0  0  0  0
   -3.9124    0.7175    0.6950 C   0  0  0  0  0  0  0  0  0  0  0  0
   -4.6497    1.2463   -0.6076 C   0  0  0  0  0  0  0  0  0  0  0  0
   -4.5316    0.0714   -1.5014 C   0  0  0  0  0  0  0  0  0  0  0  0
   -4.9009   -0.7447   -2.6775 C   0  0  0  0  0  0  0  0  0  0  0  0
   -3.9232   -1.9850   -2.4973 C   0  0  0  0  0  0  0  0  0  0  0  0
   -3.4914   -2.3646   -1.0087 C   0  0  0  0  0  0  0  0  0  0  0  0
   -1.1852    0.3814    1.1026 S   0  0  0  0  0  0  0  0  0  0  0  0
    4.3022    1.7884    0.4231 C   0  0  0  0  0  0  0  0  0  0  0  0
    3.3323    2.1444   -0.6487 C   0  0  0  0  0  0  0  0  0  0  0  0
    5.6250    2.8281    0.7606 S   0  0  0  0  0  0  0  0  0  0  0  0
    7.4676    1.3761    3.6293 H   0  0  0  0  0  0  0  0  0  0  0  0
    7.3159    3.0881    3.2013 H   0  0  0  0  0  0  0  0  0  0  0  0
    8.2592    1.9899    2.1671 H   0  0  0  0  0  0  0  0  0  0  0  0
    3.5775   -1.0921    0.4708 H   0  0  0  0  0  0  0  0  0  0  0  0
    3.5678   -1.0580    2.2387 H   0  0  0  0  0  0  0  0  0  0  0  0
    1.5768   -1.7693    0.2861 H   0  0  0  0  0  0  0  0  0  0  0  0
   -4.6204    0.1269    1.2937 H   0  0  0  0  0  0  0  0  0  0  0  0
   -3.6415    1.5855    1.3096 H   0  0  0  0  0  0  0  0  0  0  0  0
   -4.1346    2.1224   -1.0155 H   0  0  0  0  0  0  0  0  0  0  0  0
   -5.6839    1.5183   -0.3789 H   0  0  0  0  0  0  0  0  0  0  0  0
   -3.4630    0.1635   -1.7254 H   0  0  0  0  0  0  0  0  0  0  0  0
   -4.9080   -0.6428   -0.7663 H   0  0  0  0  0  0  0  0  0  0  0  0
   -4.7237   -0.2442   -3.6341 H   0  0  0  0  0  0  0  0  0  0  0  0
   -5.9450   -1.0729   -2.6383 H   0  0  0  0  0  0  0  0  0  0  0  0
   -3.0093   -1.7874   -3.0724 H   0  0  0  0  0  0  0  0  0  0  0  0
   -4.4039   -2.8570   -2.9576 H   0  0  0  0  0  0  0  0  0  0  0  0
   -4.3714   -2.5105   -0.3697 H   0  0  0  0  0  0  0  0  0  0  0  0
   -3.0438   -3.3651   -1.0709 H   0  0  0  0  0  0  0  0  0  0  0  0
    2.8629    1.2498   -1.0693 H   0  0  0  0  0  0  0  0  0  0  0  0
    3.8198    2.6732   -1.4754 H   0  0  0  0  0  0  0  0  0  0  0  0
    2.5438    2.7884   -0.2463 H   0  0  0  0  0  0  0  0  0  0  0  0
  1  2  1  0
  2  3  2  0
  3  4  1  0
  4  5  1  0
  5  6  1  0
  6  7  2  0
  6  8  1  0
  8  9  1  0
  9 10  2  0
 10 11  1  0
 11 12  3  0
 10 13  1  0
 13 14  2  0
 14 15  1  0
 15 16  1  0
 16 17  1  0
 17 18  1  0
 18 19  1  0
 19 20  1  0
 14 21  1  0
  4 22  2  0
 22 23  1  0
 22 24  1  0
 24  2  1  0
 21  9  1  0
 20 13  1  0
  1 25  1  0
  1 26  1  0
  1 27  1  0
  5 28  1  0
  5 29  1  0
  8 30  1  0
 15 31  1  0
 15 32  1  0
 16 33  1  0
 16 34  1  0
 17 35  1  0
 17 36  1  0
 18 37  1  0
 18 38  1  0
 19 39  1  0
 19 40  1  0
 20 41  1  0
 20 42  1  0
 23 43  1  0
 23 44  1  0
 23 45  1  0
M  END
$$$$
OCNT-2317281
     RDKit          3D

 39 41  0  0  0  0  0  0  0  0999 V2000
    3.9627   -1.6984   -1.0769 C   0  0  0  0  0  0  0  0  0  0  0  0
    3.6194   -0.7329    0.0790 C   0  0  0  0  0  0  0  0  0  0  0  0
    3.7546   -1.5084    1.4030 C   0  0  0  0  0  0  0  0  0  0  0  0
    4.6353    0.4243    0.0533 C   0  0  0  0  0  0  0  0  0  0  0  0
    2.2576   -0.1926   -0.0374 N   0  0  0  0  0  0  0  0  0  0  0  0
    1.6206    0.6678    0.8119 C   0  0  0  0  0  0  0  0  0  0  0  0
    0.3705    0.8498    0.2541 C   0  0  0  0  0  0  0  0  0  0  0  0
   -0.6871    1.7233    0.7556 C   0  0  0  0  0  0  0  0  0  0  0  0
   -0.3915    2.6883    1.4658 O   0  0  0  0  0  0  0  0  0  0  0  0
   -2.0153    1.5173    0.3441 N   0  0  0  0  0  0  0  0  0  0  0  0
   -2.8082    2.7312    0.1546 C   0  0  0  0  0  0  0  0  0  0  0  0
   -4.2924    2.4484    0.0144 C   0  0  0  0  0  0  0  0  0  0  0  0
   -4.5249    1.4954   -1.0261 O   0  0  0  0  0  0  0  0  0  0  0  0
   -3.8491    0.3271   -0.7608 C   0  0  0  0  0  0  0  0  0  0  0  0
   -4.4538   -0.8372   -1.2385 C   0  0  0  0  0  0  0  0  0  0  0  0
   -3.8887   -2.0784   -0.9542 C   0  0  0  0  0  0  0  0  0  0  0  0
   -4.6912   -3.4863   -1.5513 Cl  0  0  0  0  0  0  0  0  0  0  0  0
   -2.7267   -2.1456   -0.1808 C   0  0  0  0  0  0  0  0  0  0  0  0
   -2.0006   -3.6509    0.2649 Cl  0  0  0  0  0  0  0  0  0  0  0  0
   -2.1124   -0.9693    0.2740 C   0  0  0  0  0  0  0  0  0  0  0  0
   -2.6300    0.2889   -0.0560 C   0  0  0  0  0  0  0  0  0  0  0  0
    0.3123    0.1365   -0.9179 N   0  0  0  0  0  0  0  0  0  0  0  0
    1.4570   -0.5135   -1.0711 N   0  0  0  0  0  0  0  0  0  0  0  0
    4.9797   -2.0939   -0.9723 H   0  0  0  0  0  0  0  0  0  0  0  0
    3.9044   -1.1964   -2.0498 H   0  0  0  0  0  0  0  0  0  0  0  0
    3.2780   -2.5544   -1.1007 H   0  0  0  0  0  0  0  0  0  0  0  0
    4.7532   -1.9485    1.5042 H   0  0  0  0  0  0  0  0  0  0  0  0
    3.0216   -2.3218    1.4604 H   0  0  0  0  0  0  0  0  0  0  0  0
    3.5936   -0.8604    2.2719 H   0  0  0  0  0  0  0  0  0  0  0  0
    5.6637    0.0503    0.1126 H   0  0  0  0  0  0  0  0  0  0  0  0
    4.4883    1.1123    0.8937 H   0  0  0  0  0  0  0  0  0  0  0  0
    4.5434    1.0097   -0.8691 H   0  0  0  0  0  0  0  0  0  0  0  0
    2.0792    1.0740    1.7015 H   0  0  0  0  0  0  0  0  0  0  0  0
   -2.6408    3.4248    0.9859 H   0  0  0  0  0  0  0  0  0  0  0  0
   -2.4281    3.2090   -0.7574 H   0  0  0  0  0  0  0  0  0  0  0  0
   -4.8252    3.3679   -0.2496 H   0  0  0  0  0  0  0  0  0  0  0  0
   -4.7253    2.0783    0.9533 H   0  0  0  0  0  0  0  0  0  0  0  0
   -5.3756   -0.7670   -1.8101 H   0  0  0  0  0  0  0  0  0  0  0  0
   -1.2285   -1.0688    0.8961 H   0  0  0  0  0  0  0  0  0  0  0  0
  1  2  1  0
  2  3  1  0
  2  4  1  0
  2  5  1  0
  5  6  1  0
  6  7  2  0
  7  8  1  0
  8  9  2  0
  8 10  1  0
 10 11  1  0
 11 12  1  0
 12 13  1  0
 13 14  1  0
 14 15  1  0
 15 16  2  0
 16 17  1  0
 16 18  1  0
 18 19  1  0
 18 20  2  0
 20 21  1  0
  7 22  1  0
 22 23  2  0
 23  5  1  0
 21 10  1  0
 21 14  2  0
  1 24  1  0
  1 25  1  0
  1 26  1  0
  3 27  1  0
  3 28  1  0
  3 29  1  0
  4 30  1  0
  4 31  1  0
  4 32  1  0
  6 33  1  0
 11 34  1  0
 11 35  1  0
 12 36  1  0
 12 37  1  0
 15 38  1  0
 20 39  1  0
M  END
$$$$
OCNT-2317285
     RDKit          3D

 44 46  0  0  0  0  0  0  0  0999 V2000
    1.6041   -1.7937   -1.9083 O   0  0  0  0  0  0  0  0  0  0  0  0
    1.4742   -0.9995   -0.9780 C   0  0  0  0  0  0  0  0  0  0  0  0
    2.6641   -0.3357   -0.3102 C   0  0  0  0  0  0  0  0  0  0  0  0
    3.9772   -0.7131   -0.9937 C   0  0  0  0  0  0  0  0  0  0  0  0
    5.1549   -0.0437   -0.3322 C   0  0  0  0  0  0  0  0  0  0  0  0
    5.5905    1.2152   -0.7528 C   0  0  0  0  0  0  0  0  0  0  0  0
    6.6636    1.7999   -0.0976 C   0  0  0  0  0  0  0  0  0  0  0  0
    7.3176    1.2269    0.9350 N   0  0  0  0  0  0  0  0  0  0  0  0
    6.8807    0.0108    1.3257 C   0  0  0  0  0  0  0  0  0  0  0  0
    5.8175   -0.6549    0.7349 C   0  0  0  0  0  0  0  0  0  0  0  0
    0.2364   -0.6623   -0.4757 N   0  0  0  0  0  0  0  0  0  0  0  0
   -0.0503    0.2556    0.6152 C   0  0  0  0  0  0  0  0  0  0  0  0
   -1.5242    0.0281    0.9200 C   0  0  0  0  0  0  0  0  0  0  0  0
   -2.1023   -0.3508   -0.4491 C   0  0  0  0  0  0  0  0  0  0  0  0
   -3.4354   -1.0962   -0.3877 C   0  0  0  0  0  0  0  0  0  0  0  0
   -4.5616   -0.2333    0.1264 C   0  0  0  0  0  0  0  0  0  0  0  0
   -5.1526    0.7306   -0.7020 C   0  0  0  0  0  0  0  0  0  0  0  0
   -6.1849    1.5385   -0.2231 C   0  0  0  0  0  0  0  0  0  0  0  0
   -6.6355    1.3919    1.0873 C   0  0  0  0  0  0  0  0  0  0  0  0
   -6.0545    0.4372    1.9197 C   0  0  0  0  0  0  0  0  0  0  0  0
   -5.0220   -0.3718    1.4426 C   0  0  0  0  0  0  0  0  0  0  0  0
   -0.9840   -1.2060   -1.0469 C   0  0  0  0  0  0  0  0  0  0  0  0
    2.6904   -0.6477    0.7404 H   0  0  0  0  0  0  0  0  0  0  0  0
    2.5251    0.7512   -0.3448 H   0  0  0  0  0  0  0  0  0  0  0  0
    3.9488   -0.4361   -2.0556 H   0  0  0  0  0  0  0  0  0  0  0  0
    4.1195   -1.8015   -0.9757 H   0  0  0  0  0  0  0  0  0  0  0  0
    5.1096    1.7342   -1.5753 H   0  0  0  0  0  0  0  0  0  0  0  0
    7.0356    2.7759   -0.3958 H   0  0  0  0  0  0  0  0  0  0  0  0
    7.4248   -0.4312    2.1555 H   0  0  0  0  0  0  0  0  0  0  0  0
    5.5180   -1.6310    1.1018 H   0  0  0  0  0  0  0  0  0  0  0  0
    0.5910    0.0596    1.4785 H   0  0  0  0  0  0  0  0  0  0  0  0
    0.1310    1.2740    0.2550 H   0  0  0  0  0  0  0  0  0  0  0  0
   -1.6339   -0.8033    1.6274 H   0  0  0  0  0  0  0  0  0  0  0  0
   -1.9952    0.9138    1.3563 H   0  0  0  0  0  0  0  0  0  0  0  0
   -2.2036    0.5644   -1.0491 H   0  0  0  0  0  0  0  0  0  0  0  0
   -3.3428   -1.9953    0.2353 H   0  0  0  0  0  0  0  0  0  0  0  0
   -3.7043   -1.4574   -1.3891 H   0  0  0  0  0  0  0  0  0  0  0  0
   -4.8126    0.8566   -1.7275 H   0  0  0  0  0  0  0  0  0  0  0  0
   -6.6385    2.2820   -0.8734 H   0  0  0  0  0  0  0  0  0  0  0  0
   -7.4402    2.0205    1.4592 H   0  0  0  0  0  0  0  0  0  0  0  0
   -6.4066    0.3218    2.9415 H   0  0  0  0  0  0  0  0  0  0  0  0
   -4.5794   -1.1111    2.1062 H   0  0  0  0  0  0  0  0  0  0  0  0
   -0.9566   -1.1563   -2.1402 H   0  0  0  0  0  0  0  0  0  0  0  0
   -1.0535   -2.2569   -0.7431 H   0  0  0  0  0  0  0  0  0  0  0  0
  1  2  2  0
  2  3  1  0
  3  4  1  0
  4  5  1  0
  5  6  2  0
  6  7  1  0
  7  8  2  0
  8  9  1  0
  9 10  2  0
  2 11  1  0
 11 12  1  0
 12 13  1  0
 13 14  1  0
 14 15  1  0
 15 16  1  0
 16 17  2  0
 17 18  1  0
 18 19  2  0
 19 20  1  0
 20 21  2  0
 14 22  1  0
 10  5  1  0
 22 11  1  0
 21 16  1  0
  3 23  1  0
  3 24  1  0
  4 25  1  0
  4 26  1  0
  6 27  1  0
  7 28  1  0
  9 29  1  0
 10 30  1  0
 12 31  1  0
 12 32  1  0
 13 33  1  0
 13 34  1  0
 14 35  1  0
 15 36  1  0
 15 37  1  0
 17 38  1  0
 18 39  1  0
 19 40  1  0
 20 41  1  0
 21 42  1  0
 22 43  1  0
 22 44  1  0
M  END
$$$$
OCNT-2317300
     RDKit          3D

 47 51  0  0  0  0  0  0  0  0999 V2000
    8.3399   -0.4710    0.4467 C   0  0  0  0  0  0  0  0  0  0  0  0
    6.9474   -0.3711   -0.0351 C   0  0  0  0  0  0  0  0  0  0  0  0
    5.9025   -0.3487    0.7994 N   0  0  0  0  0  0  0  0  0  0  0  0
    4.8515   -0.2484   -0.0518 N   0  0  0  0  0  0  0  0  0  0  0  0
    3.4948   -0.1822    0.2573 C   0  0  0  0  0  0  0  0  0  0  0  0
    2.5790   -0.0787   -0.7248 C   0  0  0  0  0  0  0  0  0  0  0  0
    1.2418   -0.0274   -0.4067 N   0  0  0  0  0  0  0  0  0  0  0  0
    0.1685    0.2916   -1.2087 C   0  0  0  0  0  0  0  0  0  0  0  0
    0.2673    0.7734   -2.3360 O   0  0  0  0  0  0  0  0  0  0  0  0
   -1.0681    0.1129   -0.6154 N   0  0  0  0  0  0  0  0  0  0  0  0
   -2.2685    0.7201   -1.2032 C   0  0  0  0  0  0  0  0  0  0  0  0
   -3.3857    0.6037   -0.1424 C   0  0  0  0  0  0  0  0  0  0  0  0
   -4.7602    0.3271   -0.7763 C   0  0  0  0  0  0  0  0  0  0  0  0
   -5.7403    1.1761    0.0232 C   0  0  0  0  0  0  0  0  0  0  0  0
   -4.9379    2.4286    0.3273 C   0  0  0  0  0  0  0  0  0  0  0  0
   -3.5567    1.8945    0.6912 C   0  0  0  0  0  0  0  0  0  0  0  0
   -2.8329   -0.5197    0.7070 C   0  0  0  0  0  0  0  0  0  0  0  0
   -3.4886   -1.2594    1.6841 C   0  0  0  0  0  0  0  0  0  0  0  0
   -2.7817   -2.2584    2.3531 C   0  0  0  0  0  0  0  0  0  0  0  0
   -1.4417   -2.5145    2.0350 C   0  0  0  0  0  0  0  0  0  0  0  0
   -0.7851   -1.7654    1.0534 C   0  0  0  0  0  0  0  0  0  0  0  0
   -1.4834   -0.7535    0.4123 C   0  0  0  0  0  0  0  0  0  0  0  0
    3.0609   -0.0661   -2.1050 C   0  0  0  0  0  0  0  0  0  0  0  0
    4.3733   -0.1299   -2.4057 C   0  0  0  0  0  0  0  0  0  0  0  0
    5.3296   -0.2214   -1.3612 C   0  0  0  0  0  0  0  0  0  0  0  0
    6.6406   -0.2978   -1.3657 N   0  0  0  0  0  0  0  0  0  0  0  0
    8.4846   -1.3950    1.0150 H   0  0  0  0  0  0  0  0  0  0  0  0
    8.5847    0.3772    1.0934 H   0  0  0  0  0  0  0  0  0  0  0  0
    9.0440   -0.4737   -0.3912 H   0  0  0  0  0  0  0  0  0  0  0  0
    3.2618   -0.2142    1.3124 H   0  0  0  0  0  0  0  0  0  0  0  0
    1.0110   -0.0126    0.5774 H   0  0  0  0  0  0  0  0  0  0  0  0
   -2.5004    0.1436   -2.1089 H   0  0  0  0  0  0  0  0  0  0  0  0
   -2.0643    1.7524   -1.5091 H   0  0  0  0  0  0  0  0  0  0  0  0
   -5.0458   -0.7298   -0.7721 H   0  0  0  0  0  0  0  0  0  0  0  0
   -4.7784    0.6688   -1.8192 H   0  0  0  0  0  0  0  0  0  0  0  0
   -6.0238    0.6678    0.9516 H   0  0  0  0  0  0  0  0  0  0  0  0
   -6.6525    1.3943   -0.5396 H   0  0  0  0  0  0  0  0  0  0  0  0
   -4.8721    3.0625   -0.5649 H   0  0  0  0  0  0  0  0  0  0  0  0
   -5.3789    3.0207    1.1344 H   0  0  0  0  0  0  0  0  0  0  0  0
   -2.7831    2.6443    0.4942 H   0  0  0  0  0  0  0  0  0  0  0  0
   -3.5318    1.6858    1.7683 H   0  0  0  0  0  0  0  0  0  0  0  0
   -4.5294   -1.0726    1.9286 H   0  0  0  0  0  0  0  0  0  0  0  0
   -3.2775   -2.8525    3.1176 H   0  0  0  0  0  0  0  0  0  0  0  0
   -0.9128   -3.3159    2.5464 H   0  0  0  0  0  0  0  0  0  0  0  0
    0.2322   -2.0306    0.7919 H   0  0  0  0  0  0  0  0  0  0  0  0
    2.3459   -0.0144   -2.9198 H   0  0  0  0  0  0  0  0  0  0  0  0
    4.7203   -0.1207   -3.4327 H   0  0  0  0  0  0  0  0  0  0  0  0
  1  2  1  0
  2  3  2  0
  3  4  1  0
  4  5  1  0
  5  6  2  0
  6  7  1  0
  7  8  1  0
  8  9  2  0
  8 10  1  0
 10 11  1  0
 11 12  1  0
 12 13  1  0
 13 14  1  0
 14 15  1  0
 15 16  1  0
 12 17  1  0
 17 18  2  0
 18 19  1  0
 19 20  2  0
 20 21  1  0
 21 22  2  0
  6 23  1  0
 23 24  2  0
 24 25  1  0
 25 26  2  0
 26  2  1  0
 25  4  1  0
 22 10  1  0
 16 12  1  0
 22 17  1  0
  1 27  1  0
  1 28  1  0
  1 29  1  0
  5 30  1  0
  7 31  1  0
 11 32  1  0
 11 33  1  0
 13 34  1  0
 13 35  1  0
 14 36  1  0
 14 37  1  0
 15 38  1  0
 15 39  1  0
 16 40  1  0
 16 41  1  0
 18 42  1  0
 19 43  1  0
 20 44  1  0
 21 45  1  0
 23 46  1  0
 24 47  1  0
M  END
$$$$
