OCNT-2314771
     RDKit          3D

 37 39  0  0  0  0  0  0  0  0999 V2000
   -5.4235    1.2784    2.5610 C   0  0  0  0  0  0  0  0  0  0  0  0
   -5.2584    0.8140    1.1351 C   0  0  0  0  0  0  0  0  0  0  0  0
   -6.2284    0.7182    0.3919 O   0  0  0  0  0  0  0  0  0  0  0  0
   -3.9361    0.5628    0.8175 N   0  0  0  0  0  0  0  0  0  0  0  0
   -3.4171    0.1213   -0.4176 C   0  0  0  0  0  0  0  0  0  0  0  0
   -4.1958   -0.1472   -1.5405 C   0  0  0  0  0  0  0  0  0  0  0  0
   -3.5968   -0.5812   -2.7245 C   0  0  0  0  0  0  0  0  0  0  0  0
   -2.2123   -0.7528   -2.7965 C   0  0  0  0  0  0  0  0  0  0  0  0
   -1.4009   -0.4946   -1.6830 C   0  0  0  0  0  0  0  0  0  0  0  0
    0.0688   -0.6521   -1.6860 C   0  0  0  0  0  0  0  0  0  0  0  0
    0.8464   -0.2586   -0.6934 N   0  0  0  0  0  0  0  0  0  0  0  0
    2.1786   -0.5575   -0.9534 C   0  0  0  0  0  0  0  0  0  0  0  0
    3.2244   -0.1951    0.0014 C   0  0  0  0  0  0  0  0  0  0  0  0
    3.0233    0.9463    0.7975 C   0  0  0  0  0  0  0  0  0  0  0  0
    3.9803    1.3519    1.7301 C   0  0  0  0  0  0  0  0  0  0  0  0
    5.1469    0.6156    1.8798 C   0  0  0  0  0  0  0  0  0  0  0  0
    6.0537    1.0498    2.8008 O   0  0  0  0  0  0  0  0  0  0  0  0
    5.3733   -0.5252    1.1161 C   0  0  0  0  0  0  0  0  0  0  0  0
    4.4103   -0.9287    0.1827 C   0  0  0  0  0  0  0  0  0  0  0  0
    4.6381   -2.0700   -0.5418 O   0  0  0  0  0  0  0  0  0  0  0  0
    2.3982   -1.1547   -2.1770 C   0  0  0  0  0  0  0  0  0  0  0  0
    0.9147   -1.3860   -2.9968 S   0  0  0  0  0  0  0  0  0  0  0  0
   -2.0281   -0.0545   -0.5006 C   0  0  0  0  0  0  0  0  0  0  0  0
   -4.7365    0.7486    3.2272 H   0  0  0  0  0  0  0  0  0  0  0  0
   -6.4446    1.0718    2.8942 H   0  0  0  0  0  0  0  0  0  0  0  0
   -5.2339    2.3536    2.6158 H   0  0  0  0  0  0  0  0  0  0  0  0
   -3.2544    0.7188    1.5499 H   0  0  0  0  0  0  0  0  0  0  0  0
   -5.2748   -0.0287   -1.5308 H   0  0  0  0  0  0  0  0  0  0  0  0
   -4.2155   -0.7850   -3.5955 H   0  0  0  0  0  0  0  0  0  0  0  0
   -1.7914   -1.0865   -3.7413 H   0  0  0  0  0  0  0  0  0  0  0  0
    2.1120    1.5320    0.6892 H   0  0  0  0  0  0  0  0  0  0  0  0
    3.8119    2.2388    2.3345 H   0  0  0  0  0  0  0  0  0  0  0  0
    6.8197    0.4533    2.8014 H   0  0  0  0  0  0  0  0  0  0  0  0
    6.2867   -1.0946    1.2457 H   0  0  0  0  0  0  0  0  0  0  0  0
    5.4358   -2.5115   -0.2079 H   0  0  0  0  0  0  0  0  0  0  0  0
    3.3318   -1.4610   -2.6255 H   0  0  0  0  0  0  0  0  0  0  0  0
   -1.4063    0.1506    0.3699 H   0  0  0  0  0  0  0  0  0  0  0  0
  1  2  1  0
  2  3  2  0
  2  4  1  0
  4  5  1  0
  5  6  2  0
  6  7  1  0
  7  8  2  0
  8  9  1  0
  9 10  1  0
 10 11  2  0
 11 12  1  0
 12 13  1  0
 13 14  1  0
 14 15  2  0
 15 16  1  0
 16 17  1  0
 16 18  2  0
 18 19  1  0
 19 20  1  0
 12 21  2  0
 21 22  1  0
  9 23  2  0
 23  5  1  0
 22 10  1  0
 19 13  2  0
  1 24  1  0
  1 25  1  0
  1 26  1  0
  4 27  1  0
  6 28  1  0
  7 29  1  0
  8 30  1  0
 14 31  1  0
 15 32  1  0
 17 33  1  0
 18 34  1  0
 20 35  1  0
 21 36  1  0
 23 37  1  0
M  END
$$$$
OCNT-2314774
     RDKit          3D

 43 45  0  0  0  0  0  0  0  0999 V2000
    1.1147    1.3566   -2.1357 C   0  0  0  0  0  0  0  0  0  0  0  0
    0.9833    0.6694   -0.7695 C   0  0  0  0  0  0  0  0  0  0  0  0
    0.4088   -0.6744   -0.8657 N   0  0  0  0  0  0  0  0  0  0  0  0
   -0.9857   -0.7805   -1.3174 C   0  0  0  0  0  0  0  0  0  0  0  0
   -1.2718   -2.2648   -1.6339 C   0  0  0  0  0  0  0  0  0  0  0  0
   -1.2750   -3.1075   -0.3603 C   0  0  0  0  0  0  0  0  0  0  0  0
   -2.3677   -2.6396    0.5951 C   0  0  0  0  0  0  0  0  0  0  0  0
   -2.5642   -1.1461    0.6503 C   0  0  0  0  0  0  0  0  0  0  0  0
   -3.4331   -0.7146    1.6018 N   0  0  0  0  0  0  0  0  0  0  0  0
   -3.7319    0.6019    1.6394 C   0  0  0  0  0  0  0  0  0  0  0  0
   -3.2272    1.5316    0.7488 C   0  0  0  0  0  0  0  0  0  0  0  0
   -3.6047    2.9731    0.8721 C   0  0  0  0  0  0  0  0  0  0  0  0
   -4.8864    3.1585    1.2925 F   0  0  0  0  0  0  0  0  0  0  0  0
   -3.4985    3.6547   -0.3033 F   0  0  0  0  0  0  0  0  0  0  0  0
   -2.8188    3.6411    1.7604 F   0  0  0  0  0  0  0  0  0  0  0  0
   -2.3348    1.0710   -0.2240 C   0  0  0  0  0  0  0  0  0  0  0  0
   -1.9752   -0.2842   -0.2815 C   0  0  0  0  0  0  0  0  0  0  0  0
    2.3157    0.5641   -0.0313 C   0  0  0  0  0  0  0  0  0  0  0  0
    2.3289    0.6882    1.3694 C   0  0  0  0  0  0  0  0  0  0  0  0
    3.5182    0.5769    2.0921 C   0  0  0  0  0  0  0  0  0  0  0  0
    4.7167    0.3264    1.4270 C   0  0  0  0  0  0  0  0  0  0  0  0
    4.7244    0.1786    0.0376 C   0  0  0  0  0  0  0  0  0  0  0  0
    5.9532   -0.0943   -0.6487 C   0  0  0  0  0  0  0  0  0  0  0  0
    6.9443   -0.3148   -1.2111 N   0  0  0  0  0  0  0  0  0  0  0  0
    3.5288    0.2917   -0.6859 C   0  0  0  0  0  0  0  0  0  0  0  0
    1.6294    0.7249   -2.8681 H   0  0  0  0  0  0  0  0  0  0  0  0
    1.6761    2.2940   -2.0493 H   0  0  0  0  0  0  0  0  0  0  0  0
    0.1330    1.6055   -2.5512 H   0  0  0  0  0  0  0  0  0  0  0  0
    0.3480    1.3122   -0.1506 H   0  0  0  0  0  0  0  0  0  0  0  0
    1.0078   -1.2410   -1.4637 H   0  0  0  0  0  0  0  0  0  0  0  0
   -1.1305   -0.2330   -2.2561 H   0  0  0  0  0  0  0  0  0  0  0  0
   -2.2467   -2.3554   -2.1318 H   0  0  0  0  0  0  0  0  0  0  0  0
   -0.5280   -2.6586   -2.3379 H   0  0  0  0  0  0  0  0  0  0  0  0
   -1.4306   -4.1641   -0.6065 H   0  0  0  0  0  0  0  0  0  0  0  0
   -0.2992   -3.0465    0.1365 H   0  0  0  0  0  0  0  0  0  0  0  0
   -3.3215   -3.0798    0.2769 H   0  0  0  0  0  0  0  0  0  0  0  0
   -2.1586   -3.0195    1.6019 H   0  0  0  0  0  0  0  0  0  0  0  0
   -4.4210    0.8871    2.4316 H   0  0  0  0  0  0  0  0  0  0  0  0
   -1.9142    1.7751   -0.9401 H   0  0  0  0  0  0  0  0  0  0  0  0
    1.3985    0.8626    1.9087 H   0  0  0  0  0  0  0  0  0  0  0  0
    3.5054    0.6777    3.1748 H   0  0  0  0  0  0  0  0  0  0  0  0
    5.6381    0.2381    1.9991 H   0  0  0  0  0  0  0  0  0  0  0  0
    3.5523    0.1572   -1.7652 H   0  0  0  0  0  0  0  0  0  0  0  0
  1  2  1  0
  2  3  1  0
  3  4  1  0
  4  5  1  0
  5  6  1  0
  6  7  1  0
  7  8  1  0
  8  9  1  0
  9 10  2  0
 10 11  1  0
 11 12  1  0
 12 13  1  0
 12 14  1  0
 12 15  1  0
 11 16  2  0
 16 17  1  0
  2 18  1  0
 18 19  2  0
 19 20  1  0
 20 21  2  0
 21 22  1  0
 22 23  1  0
 23 24  3  0
 22 25  2  0
 17  4  1  0
 25 18  1  0
 17  8  2  0
  1 26  1  0
  1 27  1  0
  1 28  1  0
  2 29  1  0
  3 30  1  0
  4 31  1  0
  5 32  1  0
  5 33  1  0
  6 34  1  0
  6 35  1  0
  7 36  1  0
  7 37  1  0
 10 38  1  0
 16 39  1  0
 19 40  1  0
 20 41  1  0
 21 42  1  0
 25 43  1  0
M  END
$$$$
OCNT-2314777
     RDKit          3D

 40 43  0  0  0  0  0  0  0  0999 V2000
    5.7622    0.2065   -1.7133 C   0  0  0  0  0  0  0  0  0  0  0  0
    4.9478   -0.8126   -1.2548 C   0  0  0  0  0  0  0  0  0  0  0  0
    3.7570   -0.6486   -0.6486 N   0  0  0  0  0  0  0  0  0  0  0  0
    3.3350    0.6458   -0.4830 C   0  0  0  0  0  0  0  0  0  0  0  0
    4.1097    1.7211   -0.9240 C   0  0  0  0  0  0  0  0  0  0  0  0
    5.3456    1.5217   -1.5508 C   0  0  0  0  0  0  0  0  0  0  0  0
    3.2766    3.1619   -0.5549 S   0  0  0  0  0  0  0  0  0  0  0  0
    1.9680    2.4567    0.1425 N   0  0  0  0  0  0  0  0  0  0  0  0
    2.0906    1.1250    0.1387 C   0  0  0  0  0  0  0  0  0  0  0  0
    1.1126    0.3022    0.6629 N   0  0  0  0  0  0  0  0  0  0  0  0
    1.3294   -1.1394    0.8185 C   0  0  0  0  0  0  0  0  0  0  0  0
    0.1486   -1.8236    1.5122 C   0  0  0  0  0  0  0  0  0  0  0  0
   -1.1679   -1.3519    0.9073 C   0  0  0  0  0  0  0  0  0  0  0  0
   -1.3289    0.1807    0.9996 C   0  0  0  0  0  0  0  0  0  0  0  0
   -1.8802    0.7801   -0.3128 C   0  0  0  0  0  0  0  0  0  0  0  0
   -3.2806    0.3299   -0.6404 C   0  0  0  0  0  0  0  0  0  0  0  0
   -4.3737    0.7739    0.0988 C   0  0  0  0  0  0  0  0  0  0  0  0
   -5.6531    0.4047   -0.1367 N   0  0  0  0  0  0  0  0  0  0  0  0
   -5.8571   -0.4461   -1.1643 C   0  0  0  0  0  0  0  0  0  0  0  0
   -4.8429   -0.9439   -1.9649 C   0  0  0  0  0  0  0  0  0  0  0  0
   -3.5361   -0.5475   -1.6968 C   0  0  0  0  0  0  0  0  0  0  0  0
   -0.0134    0.8794    1.3969 C   0  0  0  0  0  0  0  0  0  0  0  0
    6.7095   -0.0199   -2.1917 H   0  0  0  0  0  0  0  0  0  0  0  0
    5.2546   -1.8498   -1.3723 H   0  0  0  0  0  0  0  0  0  0  0  0
    5.9489    2.3551   -1.8942 H   0  0  0  0  0  0  0  0  0  0  0  0
    2.2338   -1.3342    1.4069 H   0  0  0  0  0  0  0  0  0  0  0  0
    1.4466   -1.5972   -0.1709 H   0  0  0  0  0  0  0  0  0  0  0  0
    0.1623   -1.6056    2.5873 H   0  0  0  0  0  0  0  0  0  0  0  0
    0.2421   -2.9110    1.4122 H   0  0  0  0  0  0  0  0  0  0  0  0
   -2.0063   -1.8404    1.4179 H   0  0  0  0  0  0  0  0  0  0  0  0
   -1.2044   -1.6871   -0.1365 H   0  0  0  0  0  0  0  0  0  0  0  0
   -2.0485    0.3961    1.8015 H   0  0  0  0  0  0  0  0  0  0  0  0
   -1.2061    0.5425   -1.1462 H   0  0  0  0  0  0  0  0  0  0  0  0
   -1.8929    1.8762   -0.2474 H   0  0  0  0  0  0  0  0  0  0  0  0
   -4.2488    1.4638    0.9292 H   0  0  0  0  0  0  0  0  0  0  0  0
   -6.8925   -0.7263   -1.3342 H   0  0  0  0  0  0  0  0  0  0  0  0
   -5.0647   -1.6243   -2.7790 H   0  0  0  0  0  0  0  0  0  0  0  0
   -2.7230   -0.9254   -2.3114 H   0  0  0  0  0  0  0  0  0  0  0  0
    0.1655    0.7521    2.4728 H   0  0  0  0  0  0  0  0  0  0  0  0
   -0.1249    1.9594    1.2457 H   0  0  0  0  0  0  0  0  0  0  0  0
  1  2  2  0
  2  3  1  0
  3  4  2  0
  4  5  1  0
  5  6  2  0
  5  7  1  0
  7  8  1  0
  8  9  2  0
  9 10  1  0
 10 11  1  0
 11 12  1  0
 12 13  1  0
 13 14  1  0
 14 15  1  0
 15 16  1  0
 16 17  2  0
 17 18  1  0
 18 19  2  0
 19 20  1  0
 20 21  2  0
 14 22  1  0
  6  1  1  0
 22 10  1  0
  9  4  1  0
 21 16  1  0
  1 23  1  0
  2 24  1  0
  6 25  1  0
 11 26  1  0
 11 27  1  0
 12 28  1  0
 12 29  1  0
 13 30  1  0
 13 31  1  0
 14 32  1  0
 15 33  1  0
 15 34  1  0
 17 35  1  0
 19 36  1  0
 20 37  1  0
 21 38  1  0
 22 39  1  0
 22 40  1  0
M  END
$$$$
OCNT-2314795
     RDKit          3D

 41 43  0  0  0  0  0  0  0  0999 V2000
    3.2001    2.2641   -1.5321 C   0  0  0  0  0  0  0  0  0  0  0  0
    2.2121    2.0871   -0.3779 C   0  0  0  0  0  0  0  0  0  0  0  0
    2.8539    1.4138    0.8512 C   0  0  0  0  0  0  0  0  0  0  0  0
    3.4330    0.0368    0.6211 C   0  0  0  0  0  0  0  0  0  0  0  0
    2.6105   -1.1005    0.6349 C   0  0  0  0  0  0  0  0  0  0  0  0
    3.1529   -2.3679    0.4155 C   0  0  0  0  0  0  0  0  0  0  0  0
    4.5162   -2.5008    0.1859 C   0  0  0  0  0  0  0  0  0  0  0  0
    5.0357   -3.7179   -0.0218 F   0  0  0  0  0  0  0  0  0  0  0  0
    5.3490   -1.3896    0.1709 C   0  0  0  0  0  0  0  0  0  0  0  0
    4.8089   -0.1212    0.3884 C   0  0  0  0  0  0  0  0  0  0  0  0
    0.9408    1.3678   -0.8393 C   0  0  0  0  0  0  0  0  0  0  0  0
    0.8620    0.8170   -1.9315 O   0  0  0  0  0  0  0  0  0  0  0  0
   -0.0798    1.4280    0.0974 N   0  0  0  0  0  0  0  0  0  0  0  0
   -1.3516    0.8255   -0.0040 C   0  0  0  0  0  0  0  0  0  0  0  0
   -2.2564    1.0410    1.0366 C   0  0  0  0  0  0  0  0  0  0  0  0
   -3.5300    0.4644    0.9983 C   0  0  0  0  0  0  0  0  0  0  0  0
   -3.8728   -0.3270   -0.0931 C   0  0  0  0  0  0  0  0  0  0  0  0
   -5.1565   -0.9352   -0.1771 N   0  0  0  0  0  0  0  0  0  0  0  0
   -5.6006   -1.7364   -1.2082 C   0  0  0  0  0  0  0  0  0  0  0  0
   -6.8830   -2.1020   -0.8801 C   0  0  0  0  0  0  0  0  0  0  0  0
   -7.2503   -1.5557    0.3187 N   0  0  0  0  0  0  0  0  0  0  0  0
   -6.2023   -0.8651    0.7147 C   0  0  0  0  0  0  0  0  0  0  0  0
   -3.0106   -0.5543   -1.1152 N   0  0  0  0  0  0  0  0  0  0  0  0
   -1.7808    0.0208   -1.0524 C   0  0  0  0  0  0  0  0  0  0  0  0
    4.0975    2.7966   -1.2005 H   0  0  0  0  0  0  0  0  0  0  0  0
    3.5062    1.3050   -1.9626 H   0  0  0  0  0  0  0  0  0  0  0  0
    2.7439    2.8479   -2.3396 H   0  0  0  0  0  0  0  0  0  0  0  0
    1.8990    3.0959   -0.0734 H   0  0  0  0  0  0  0  0  0  0  0  0
    2.1281    1.3432    1.6717 H   0  0  0  0  0  0  0  0  0  0  0  0
    3.6468    2.0696    1.2358 H   0  0  0  0  0  0  0  0  0  0  0  0
    1.5410   -1.0141    0.8121 H   0  0  0  0  0  0  0  0  0  0  0  0
    2.5205   -3.2499    0.4186 H   0  0  0  0  0  0  0  0  0  0  0  0
    6.4109   -1.5174   -0.0126 H   0  0  0  0  0  0  0  0  0  0  0  0
    5.4694    0.7431    0.3699 H   0  0  0  0  0  0  0  0  0  0  0  0
    0.0845    1.9872    0.9248 H   0  0  0  0  0  0  0  0  0  0  0  0
   -1.9899    1.6582    1.8906 H   0  0  0  0  0  0  0  0  0  0  0  0
   -4.2075    0.6542    1.8223 H   0  0  0  0  0  0  0  0  0  0  0  0
   -4.9753   -1.9655   -2.0601 H   0  0  0  0  0  0  0  0  0  0  0  0
   -7.5592   -2.7301   -1.4459 H   0  0  0  0  0  0  0  0  0  0  0  0
   -6.1626   -0.3038    1.6368 H   0  0  0  0  0  0  0  0  0  0  0  0
   -1.1538   -0.2129   -1.9066 H   0  0  0  0  0  0  0  0  0  0  0  0
  1  2  1  0
  2  3  1  0
  3  4  1  0
  4  5  1  0
  5  6  2  0
  6  7  1  0
  7  8  1  0
  7  9  2  0
  9 10  1  0
  2 11  1  0
 11 12  2  0
 11 13  1  0
 13 14  1  0
 14 15  2  0
 15 16  1  0
 16 17  2  0
 17 18  1  0
 18 19  1  0
 19 20  2  0
 20 21  1  0
 21 22  2  0
 17 23  1  0
 23 24  2  0
 10  4  2  0
 24 14  1  0
 22 18  1  0
  1 25  1  0
  1 26  1  0
  1 27  1  0
  2 28  1  0
  3 29  1  0
  3 30  1  0
  5 31  1  0
  6 32  1  0
  9 33  1  0
 10 34  1  0
 13 35  1  0
 15 36  1  0
 16 37  1  0
 19 38  1  0
 20 39  1  0
 22 40  1  0
 24 41  1  0
M  END
$$$$
OCNT-2314801
     RDKit          3D

 37 39  0  0  0  0  0  0  0  0999 V2000
    1.9024   -2.4426    1.0793 O   0  0  0  0  0  0  0  0  0  0  0  0
    1.3681   -1.3751    0.7930 C   0  0  0  0  0  0  0  0  0  0  0  0
   -0.0856   -1.0974    1.1887 C   0  0  0  0  0  0  0  0  0  0  0  0
   -0.6014    0.0738    0.5365 O   0  0  0  0  0  0  0  0  0  0  0  0
   -1.7213   -0.1983   -0.2022 C   0  0  0  0  0  0  0  0  0  0  0  0
   -1.5596   -0.9563   -1.3718 C   0  0  0  0  0  0  0  0  0  0  0  0
   -2.6641   -1.3054   -2.1430 C   0  0  0  0  0  0  0  0  0  0  0  0
   -3.9335   -0.8942   -1.7535 C   0  0  0  0  0  0  0  0  0  0  0  0
   -4.0987   -0.1095   -0.6071 C   0  0  0  0  0  0  0  0  0  0  0  0
   -2.9916    0.2726    0.1732 C   0  0  0  0  0  0  0  0  0  0  0  0
   -3.2000    1.1255    1.3004 N   0  0  0  0  0  0  0  0  0  0  0  0
   -4.4079    1.4152    1.9082 C   0  0  0  0  0  0  0  0  0  0  0  0
   -4.1298    2.2853    2.9351 C   0  0  0  0  0  0  0  0  0  0  0  0
   -2.7968    2.5587    2.9866 N   0  0  0  0  0  0  0  0  0  0  0  0
   -2.2691    1.8666    1.9994 C   0  0  0  0  0  0  0  0  0  0  0  0
    1.9507   -0.3158    0.1190 N   0  0  0  0  0  0  0  0  0  0  0  0
    3.2652   -0.2141   -0.3696 C   0  0  0  0  0  0  0  0  0  0  0  0
    4.2411   -1.1977   -0.1945 C   0  0  0  0  0  0  0  0  0  0  0  0
    5.5301   -1.0173   -0.7096 C   0  0  0  0  0  0  0  0  0  0  0  0
    5.8460    0.1480   -1.4021 C   0  0  0  0  0  0  0  0  0  0  0  0
    7.4302    0.3681   -2.0338 Cl  0  0  0  0  0  0  0  0  0  0  0  0
    4.8838    1.1357   -1.5839 C   0  0  0  0  0  0  0  0  0  0  0  0
    3.5973    0.9549   -1.0673 C   0  0  0  0  0  0  0  0  0  0  0  0
   -0.6774   -1.9994    0.9845 H   0  0  0  0  0  0  0  0  0  0  0  0
   -0.1038   -0.9086    2.2675 H   0  0  0  0  0  0  0  0  0  0  0  0
   -0.5714   -1.2848   -1.6847 H   0  0  0  0  0  0  0  0  0  0  0  0
   -2.5354   -1.8921   -3.0486 H   0  0  0  0  0  0  0  0  0  0  0  0
   -4.7992   -1.1651   -2.3540 H   0  0  0  0  0  0  0  0  0  0  0  0
   -5.1083    0.2181   -0.3774 H   0  0  0  0  0  0  0  0  0  0  0  0
   -5.3453    0.9749    1.6028 H   0  0  0  0  0  0  0  0  0  0  0  0
   -4.8246    2.7238    3.6401 H   0  0  0  0  0  0  0  0  0  0  0  0
   -1.2222    1.9059    1.7396 H   0  0  0  0  0  0  0  0  0  0  0  0
    1.3289    0.4663   -0.0640 H   0  0  0  0  0  0  0  0  0  0  0  0
    4.0371   -2.1169    0.3457 H   0  0  0  0  0  0  0  0  0  0  0  0
    6.2785   -1.7915   -0.5610 H   0  0  0  0  0  0  0  0  0  0  0  0
    5.1261    2.0474   -2.1228 H   0  0  0  0  0  0  0  0  0  0  0  0
    2.8617    1.7415   -1.2188 H   0  0  0  0  0  0  0  0  0  0  0  0
  1  2  2  0
  2  3  1  0
  3  4  1  0
  4  5  1  0
  5  6  2  0
  6  7  1  0
  7  8  2  0
  8  9  1  0
  9 10  2  0
 10 11  1  0
 11 12  1  0
 12 13  2  0
 13 14  1  0
 14 15  2  0
  2 16  1  0
 16 17  1  0
 17 18  1  0
 18 19  2  0
 19 20  1  0
 20 21  1  0
 20 22  2  0
 22 23  1  0
 10  5  1  0
 15 11  1  0
 23 17  2  0
  3 24  1  0
  3 25  1  0
  6 26  1  0
  7 27  1  0
  8 28  1  0
  9 29  1  0
 12 30  1  0
 13 31  1  0
 15 32  1  0
 16 33  1  0
 18 34  1  0
 19 35  1  0
 22 36  1  0
 23 37  1  0
M  END
$$$$
OCNT-2314804
     RDKit          3D

 35 37  0  0  0  0  0  0  0  0999 V2000
   -7.4286   -0.1752    0.3007 C   0  0  0  0  0  0  0  0  0  0  0  0
   -6.3869   -1.1344    0.4357 O   0  0  0  0  0  0  0  0  0  0  0  0
   -5.1045   -0.6820    0.3038 C   0  0  0  0  0  0  0  0  0  0  0  0
   -4.7191    0.6339    0.0526 C   0  0  0  0  0  0  0  0  0  0  0  0
   -3.3601    0.9633   -0.0600 C   0  0  0  0  0  0  0  0  0  0  0  0
   -2.3621   -0.0162    0.0762 C   0  0  0  0  0  0  0  0  0  0  0  0
   -0.9472    0.3097   -0.0387 C   0  0  0  0  0  0  0  0  0  0  0  0
    0.1175   -0.4562    0.0347 N   0  0  0  0  0  0  0  0  0  0  0  0
    1.1544    0.4312   -0.1543 C   0  0  0  0  0  0  0  0  0  0  0  0
    2.5500    0.0046   -0.1506 C   0  0  0  0  0  0  0  0  0  0  0  0
    2.8719   -1.3448    0.0624 C   0  0  0  0  0  0  0  0  0  0  0  0
    4.2018   -1.7718    0.0629 C   0  0  0  0  0  0  0  0  0  0  0  0
    5.2302   -0.8522   -0.1423 C   0  0  0  0  0  0  0  0  0  0  0  0
    4.9284    0.5001   -0.3432 C   0  0  0  0  0  0  0  0  0  0  0  0
    5.9903    1.5163   -0.5688 C   0  0  0  0  0  0  0  0  0  0  0  0
    7.2390    1.2417   -0.0831 N   0  0  0  0  0  0  0  0  0  0  0  0
    5.7582    2.5764   -1.1348 O   0  0  0  0  0  0  0  0  0  0  0  0
    3.5909    0.9218   -0.3581 C   0  0  0  0  0  0  0  0  0  0  0  0
    0.7537    1.7002   -0.3328 N   0  0  0  0  0  0  0  0  0  0  0  0
   -0.6339    1.6222   -0.2586 O   0  0  0  0  0  0  0  0  0  0  0  0
   -2.7722   -1.3287    0.3277 C   0  0  0  0  0  0  0  0  0  0  0  0
   -1.8734   -2.3146    0.4704 F   0  0  0  0  0  0  0  0  0  0  0  0
   -4.1221   -1.6612    0.4408 C   0  0  0  0  0  0  0  0  0  0  0  0
   -8.3819   -0.6963    0.4306 H   0  0  0  0  0  0  0  0  0  0  0  0
   -7.3600    0.5933    1.0777 H   0  0  0  0  0  0  0  0  0  0  0  0
   -7.4262    0.2715   -0.6991 H   0  0  0  0  0  0  0  0  0  0  0  0
   -5.4473    1.4312   -0.0618 H   0  0  0  0  0  0  0  0  0  0  0  0
   -3.0965    2.0014   -0.2574 H   0  0  0  0  0  0  0  0  0  0  0  0
    2.0816   -2.0778    0.2225 H   0  0  0  0  0  0  0  0  0  0  0  0
    4.4313   -2.8240    0.2143 H   0  0  0  0  0  0  0  0  0  0  0  0
    6.2554   -1.2098   -0.1699 H   0  0  0  0  0  0  0  0  0  0  0  0
    7.3945    0.5407    0.6266 H   0  0  0  0  0  0  0  0  0  0  0  0
    7.9032    2.0042   -0.1328 H   0  0  0  0  0  0  0  0  0  0  0  0
    3.3687    1.9746   -0.5312 H   0  0  0  0  0  0  0  0  0  0  0  0
   -4.3989   -2.6930    0.6369 H   0  0  0  0  0  0  0  0  0  0  0  0
  1  2  1  0
  2  3  1  0
  3  4  1  0
  4  5  2  0
  5  6  1  0
  6  7  1  0
  7  8  2  0
  8  9  1  0
  9 10  1  0
 10 11  2  0
 11 12  1  0
 12 13  2  0
 13 14  1  0
 14 15  1  0
 15 16  1  0
 15 17  2  0
 14 18  2  0
  9 19  2  0
 19 20  1  0
  6 21  2  0
 21 22  1  0
 21 23  1  0
 23  3  2  0
 20  7  1  0
 18 10  1  0
  1 24  1  0
  1 25  1  0
  1 26  1  0
  4 27  1  0
  5 28  1  0
 11 29  1  0
 12 30  1  0
 13 31  1  0
 16 32  1  0
 16 33  1  0
 18 34  1  0
 23 35  1  0
M  END
$$$$
OCNT-2314807
     RDKit          3D

 31 33  0  0  0  0  0  0  0  0999 V2000
   -6.4785    1.2399    0.1274 F   0  0  0  0  0  0  0  0  0  0  0  0
   -6.4064    0.1809   -0.7190 C   0  0  0  0  0  0  0  0  0  0  0  0
   -7.2599    0.4625   -1.7423 F   0  0  0  0  0  0  0  0  0  0  0  0
   -5.1089    0.1317   -1.2788 O   0  0  0  0  0  0  0  0  0  0  0  0
   -4.1806   -0.3503   -0.3881 C   0  0  0  0  0  0  0  0  0  0  0  0
   -2.8483   -0.1749   -0.7325 C   0  0  0  0  0  0  0  0  0  0  0  0
   -1.8615   -0.6758    0.1212 C   0  0  0  0  0  0  0  0  0  0  0  0
   -0.3974   -0.5048   -0.1971 C   0  0  0  0  0  0  0  0  0  0  0  0
    0.2078    0.3724    0.7848 N   0  0  0  0  0  0  0  0  0  0  0  0
    1.5185    0.7168    0.6994 C   0  0  0  0  0  0  0  0  0  0  0  0
    1.9678    1.8829    1.1110 N   0  0  0  0  0  0  0  0  0  0  0  0
    3.3303    2.0286    0.9439 N   0  0  0  0  0  0  0  0  0  0  0  0
    3.8837    0.9540    0.4246 C   0  0  0  0  0  0  0  0  0  0  0  0
    5.4263    0.8420    0.1369 C   0  0  0  0  0  0  0  0  0  0  0  0
    6.2792    1.8412    0.4007 N   0  0  0  0  0  0  0  0  0  0  0  0
    7.5279    1.3824    0.0208 O   0  0  0  0  0  0  0  0  0  0  0  0
    7.4153    0.1225   -0.4638 C   0  0  0  0  0  0  0  0  0  0  0  0
    6.1039   -0.2716   -0.4145 C   0  0  0  0  0  0  0  0  0  0  0  0
    2.7675   -0.3054    0.0897 S   0  0  0  0  0  0  0  0  0  0  0  0
   -2.2658   -1.3336    1.2873 C   0  0  0  0  0  0  0  0  0  0  0  0
   -3.6214   -1.4678    1.5394 C   0  0  0  0  0  0  0  0  0  0  0  0
   -4.5880   -0.9998    0.7203 N   0  0  0  0  0  0  0  0  0  0  0  0
   -6.7514   -0.7410   -0.2381 H   0  0  0  0  0  0  0  0  0  0  0  0
   -2.5940    0.3486   -1.6487 H   0  0  0  0  0  0  0  0  0  0  0  0
    0.0705   -1.4969   -0.1927 H   0  0  0  0  0  0  0  0  0  0  0  0
   -0.2776   -0.0868   -1.2045 H   0  0  0  0  0  0  0  0  0  0  0  0
   -0.3844    1.1594    1.0424 H   0  0  0  0  0  0  0  0  0  0  0  0
    8.3363   -0.3368   -0.7916 H   0  0  0  0  0  0  0  0  0  0  0  0
    5.7020   -1.2220   -0.7294 H   0  0  0  0  0  0  0  0  0  0  0  0
   -1.5379   -1.7274    1.9907 H   0  0  0  0  0  0  0  0  0  0  0  0
   -3.9749   -1.9709    2.4355 H   0  0  0  0  0  0  0  0  0  0  0  0
  1  2  1  0
  2  3  1  0
  2  4  1  0
  4  5  1  0
  5  6  2  0
  6  7  1  0
  7  8  1  0
  8  9  1  0
  9 10  1  0
 10 11  2  0
 11 12  1  0
 12 13  2  0
 13 14  1  0
 14 15  2  0
 15 16  1  0
 16 17  1  0
 17 18  2  0
 13 19  1  0
  7 20  2  0
 20 21  1  0
 21 22  2  0
 22  5  1  0
 19 10  1  0
 18 14  1  0
  2 23  1  0
  6 24  1  0
  8 25  1  0
  8 26  1  0
  9 27  1  0
 17 28  1  0
 18 29  1  0
 20 30  1  0
 21 31  1  0
M  END
$$$$
OCNT-2314812
     RDKit          3D

 38 41  0  0  0  0  0  0  0  0999 V2000
   -2.0448    2.3110    2.6082 C   0  0  0  0  0  0  0  0  0  0  0  0
   -1.5126    2.3338    1.3376 C   0  0  0  0  0  0  0  0  0  0  0  0
   -2.3783    1.7283    0.3591 C   0  0  0  0  0  0  0  0  0  0  0  0
   -2.2623    1.5098   -1.0304 C   0  0  0  0  0  0  0  0  0  0  0  0
   -1.1302    1.9163   -1.7568 N   0  0  0  0  0  0  0  0  0  0  0  0
   -0.6998    0.9166   -2.7425 C   0  0  0  0  0  0  0  0  0  0  0  0
   -0.0501   -0.3160   -2.1653 C   0  0  0  0  0  0  0  0  0  0  0  0
    0.7962   -0.2106   -1.1263 N   0  0  0  0  0  0  0  0  0  0  0  0
    1.1226   -1.4879   -0.8421 N   0  0  0  0  0  0  0  0  0  0  0  0
    2.0010   -1.7918    0.2751 C   0  0  0  0  0  0  0  0  0  0  0  0
    3.3573   -1.0713    0.1937 C   0  0  0  0  0  0  0  0  0  0  0  0
    3.3212   -0.0370    1.3104 C   0  0  0  0  0  0  0  0  0  0  0  0
    2.5202   -0.7289    2.3996 C   0  0  0  0  0  0  0  0  0  0  0  0
    1.3907   -1.4011    1.6337 C   0  0  0  0  0  0  0  0  0  0  0  0
    0.5429   -2.3915   -1.6852 C   0  0  0  0  0  0  0  0  0  0  0  0
   -0.2290   -1.6623   -2.5558 C   0  0  0  0  0  0  0  0  0  0  0  0
   -3.2871    0.9025   -1.6737 N   0  0  0  0  0  0  0  0  0  0  0  0
   -4.3619    0.5224   -0.9662 C   0  0  0  0  0  0  0  0  0  0  0  0
   -4.5712    0.6628    0.3455 N   0  0  0  0  0  0  0  0  0  0  0  0
   -3.5446    1.2749    0.9558 C   0  0  0  0  0  0  0  0  0  0  0  0
   -3.5858    1.5667    2.6366 S   0  0  0  0  0  0  0  0  0  0  0  0
   -1.6060    2.6955    3.5203 H   0  0  0  0  0  0  0  0  0  0  0  0
   -0.5450    2.7645    1.1148 H   0  0  0  0  0  0  0  0  0  0  0  0
   -0.3586    2.0642   -1.1114 H   0  0  0  0  0  0  0  0  0  0  0  0
    0.0506    1.4051   -3.3788 H   0  0  0  0  0  0  0  0  0  0  0  0
   -1.5169    0.6412   -3.4220 H   0  0  0  0  0  0  0  0  0  0  0  0
    2.1765   -2.8766    0.2467 H   0  0  0  0  0  0  0  0  0  0  0  0
    4.1615   -1.7901    0.3997 H   0  0  0  0  0  0  0  0  0  0  0  0
    3.5689   -0.6177   -0.7817 H   0  0  0  0  0  0  0  0  0  0  0  0
    2.8000    0.8684    0.9733 H   0  0  0  0  0  0  0  0  0  0  0  0
    4.3241    0.2510    1.6449 H   0  0  0  0  0  0  0  0  0  0  0  0
    3.1326   -1.4832    2.9030 H   0  0  0  0  0  0  0  0  0  0  0  0
    2.1481   -0.0335    3.1561 H   0  0  0  0  0  0  0  0  0  0  0  0
    1.0100   -2.2750    2.1732 H   0  0  0  0  0  0  0  0  0  0  0  0
    0.5563   -0.7003    1.5204 H   0  0  0  0  0  0  0  0  0  0  0  0
    0.7108   -3.4552   -1.5890 H   0  0  0  0  0  0  0  0  0  0  0  0
   -0.8526   -2.0455   -3.3507 H   0  0  0  0  0  0  0  0  0  0  0  0
   -5.1545    0.0404   -1.5299 H   0  0  0  0  0  0  0  0  0  0  0  0
  1  2  2  0
  2  3  1  0
  3  4  2  0
  4  5  1  0
  5  6  1  0
  6  7  1  0
  7  8  2  0
  8  9  1  0
  9 10  1  0
 10 11  1  0
 11 12  1  0
 12 13  1  0
 13 14  1  0
  9 15  1  0
 15 16  2  0
  4 17  1  0
 17 18  2  0
 18 19  1  0
 19 20  2  0
 20 21  1  0
 21  1  1  0
 20  3  1  0
 16  7  1  0
 14 10  1  0
  1 22  1  0
  2 23  1  0
  5 24  1  0
  6 25  1  0
  6 26  1  0
 10 27  1  0
 11 28  1  0
 11 29  1  0
 12 30  1  0
 12 31  1  0
 13 32  1  0
 13 33  1  0
 14 34  1  0
 14 35  1  0
 15 36  1  0
 16 37  1  0
 18 38  1  0
M  END
$$$$
OCNT-2314813
     RDKit          3D

 43 45  0  0  0  0  0  0  0  0999 V2000
   -4.7354    1.9222    2.3047 C   0  0  0  0  0  0  0  0  0  0  0  0
   -5.0678    0.8275    1.3062 C   0  0  0  0  0  0  0  0  0  0  0  0
   -4.1333   -0.2827    1.3758 N   0  0  0  0  0  0  0  0  0  0  0  0
   -4.4750   -1.3504    2.1157 N   0  0  0  0  0  0  0  0  0  0  0  0
   -3.4477   -2.1937    1.9806 C   0  0  0  0  0  0  0  0  0  0  0  0
   -3.4761   -3.5081    2.6734 C   0  0  0  0  0  0  0  0  0  0  0  0
   -2.4266   -1.6601    1.1460 C   0  0  0  0  0  0  0  0  0  0  0  0
   -1.1726   -2.3066    0.7845 C   0  0  0  0  0  0  0  0  0  0  0  0
   -0.8654   -3.4338    1.1549 O   0  0  0  0  0  0  0  0  0  0  0  0
   -0.3847   -1.5373   -0.0144 O   0  0  0  0  0  0  0  0  0  0  0  0
    0.8453   -2.1659   -0.3847 C   0  0  0  0  0  0  0  0  0  0  0  0
    1.5799   -1.2016   -1.2635 C   0  0  0  0  0  0  0  0  0  0  0  0
    2.6473   -0.5214   -0.8973 N   0  0  0  0  0  0  0  0  0  0  0  0
    3.0869    0.2823   -1.9368 C   0  0  0  0  0  0  0  0  0  0  0  0
    4.2555    1.1339   -1.7910 C   0  0  0  0  0  0  0  0  0  0  0  0
    4.2885    2.4334   -2.3097 C   0  0  0  0  0  0  0  0  0  0  0  0
    3.2292    2.9398   -2.9630 F   0  0  0  0  0  0  0  0  0  0  0  0
    5.4079    3.2534   -2.1560 C   0  0  0  0  0  0  0  0  0  0  0  0
    6.5257    2.7821   -1.4725 C   0  0  0  0  0  0  0  0  0  0  0  0
    6.5139    1.4918   -0.9479 C   0  0  0  0  0  0  0  0  0  0  0  0
    5.3874    0.6814   -1.1070 C   0  0  0  0  0  0  0  0  0  0  0  0
    5.4387   -0.5618   -0.6033 F   0  0  0  0  0  0  0  0  0  0  0  0
    2.3330    0.1969   -3.0922 C   0  0  0  0  0  0  0  0  0  0  0  0
    1.0507   -0.9205   -2.8784 S   0  0  0  0  0  0  0  0  0  0  0  0
   -2.9071   -0.4078    0.7695 C   0  0  0  0  0  0  0  0  0  0  0  0
   -2.2986    0.6421   -0.0918 C   0  0  0  0  0  0  0  0  0  0  0  0
   -4.7550    1.5384    3.3305 H   0  0  0  0  0  0  0  0  0  0  0  0
   -3.7384    2.3371    2.1241 H   0  0  0  0  0  0  0  0  0  0  0  0
   -5.4624    2.7368    2.2307 H   0  0  0  0  0  0  0  0  0  0  0  0
   -5.0676    1.2102    0.2812 H   0  0  0  0  0  0  0  0  0  0  0  0
   -6.0712    0.4312    1.5000 H   0  0  0  0  0  0  0  0  0  0  0  0
   -3.3778   -4.3260    1.9521 H   0  0  0  0  0  0  0  0  0  0  0  0
   -4.4148   -3.6543    3.2189 H   0  0  0  0  0  0  0  0  0  0  0  0
   -2.6556   -3.5750    3.3953 H   0  0  0  0  0  0  0  0  0  0  0  0
    0.6526   -3.1027   -0.9208 H   0  0  0  0  0  0  0  0  0  0  0  0
    1.4427   -2.3722    0.5114 H   0  0  0  0  0  0  0  0  0  0  0  0
    5.3943    4.2587   -2.5661 H   0  0  0  0  0  0  0  0  0  0  0  0
    7.4001    3.4161   -1.3470 H   0  0  0  0  0  0  0  0  0  0  0  0
    7.3765    1.1029   -0.4135 H   0  0  0  0  0  0  0  0  0  0  0  0
    2.4667    0.7158   -4.0310 H   0  0  0  0  0  0  0  0  0  0  0  0
   -1.3618    0.9969    0.3485 H   0  0  0  0  0  0  0  0  0  0  0  0
   -2.9434    1.5124   -0.2299 H   0  0  0  0  0  0  0  0  0  0  0  0
   -2.0843    0.2383   -1.0864 H   0  0  0  0  0  0  0  0  0  0  0  0
  1  2  1  0
  2  3  1  0
  3  4  1  0
  4  5  2  0
  5  6  1  0
  5  7  1  0
  7  8  1  0
  8  9  2  0
  8 10  1  0
 10 11  1  0
 11 12  1  0
 12 13  2  0
 13 14  1  0
 14 15  1  0
 15 16  2  0
 16 17  1  0
 16 18  1  0
 18 19  2  0
 19 20  1  0
 20 21  2  0
 21 22  1  0
 14 23  2  0
 23 24  1  0
  7 25  2  0
 25 26  1  0
 25  3  1  0
 24 12  1  0
 21 15  1  0
  1 27  1  0
  1 28  1  0
  1 29  1  0
  2 30  1  0
  2 31  1  0
  6 32  1  0
  6 33  1  0
  6 34  1  0
 11 35  1  0
 11 36  1  0
 18 37  1  0
 19 38  1  0
 20 39  1  0
 23 40  1  0
 26 41  1  0
 26 42  1  0
 26 43  1  0
M  END
$$$$
OCNT-2314831
     RDKit          3D

 47 50  0  0  0  0  0  0  0  0999 V2000
   -3.3284   -0.9145    2.6550 C   0  0  0  0  0  0  0  0  0  0  0  0
   -3.1430   -1.9467    1.5529 C   0  0  0  0  0  0  0  0  0  0  0  0
   -3.7591   -1.5186    0.2595 C   0  0  0  0  0  0  0  0  0  0  0  0
   -5.0014   -1.9106   -0.2133 C   0  0  0  0  0  0  0  0  0  0  0  0
   -5.2237   -1.2817   -1.4090 N   0  0  0  0  0  0  0  0  0  0  0  0
   -4.1565   -0.4884   -1.7202 C   0  0  0  0  0  0  0  0  0  0  0  0
   -4.0799    0.2727   -2.8206 N   0  0  0  0  0  0  0  0  0  0  0  0
   -2.9243    0.9520   -2.8605 C   0  0  0  0  0  0  0  0  0  0  0  0
   -1.9140    0.9295   -1.9704 N   0  0  0  0  0  0  0  0  0  0  0  0
   -2.0213    0.1310   -0.8752 C   0  0  0  0  0  0  0  0  0  0  0  0
   -0.9582    0.0595    0.0468 N   0  0  0  0  0  0  0  0  0  0  0  0
    0.0089   -0.9579   -0.4280 C   0  0  0  0  0  0  0  0  0  0  0  0
    1.3910   -0.7282    0.2243 C   0  0  0  0  0  0  0  0  0  0  0  0
    2.0299    0.5489   -0.1790 N   0  0  0  0  0  0  0  0  0  0  0  0
    3.0837    1.0178    0.7427 C   0  0  0  0  0  0  0  0  0  0  0  0
    4.0098    2.0285    0.0243 C   0  0  0  0  0  0  0  0  0  0  0  0
    4.8749    1.2190   -0.9360 C   0  0  0  0  0  0  0  0  0  0  0  0
    5.3023   -0.2460   -0.0146 S   0  0  0  0  0  0  0  0  0  0  0  0
    6.6018   -0.0439    0.5958 O   0  0  0  0  0  0  0  0  0  0  0  0
    5.0060   -1.4205   -0.8083 O   0  0  0  0  0  0  0  0  0  0  0  0
    4.0617   -0.0618    1.2509 C   0  0  0  0  0  0  0  0  0  0  0  0
    0.9884    1.5797   -0.4518 C   0  0  0  0  0  0  0  0  0  0  0  0
   -0.3470    1.3811    0.3028 C   0  0  0  0  0  0  0  0  0  0  0  0
   -3.2073   -0.6178   -0.7168 C   0  0  0  0  0  0  0  0  0  0  0  0
   -2.8748   -1.2688    3.5860 H   0  0  0  0  0  0  0  0  0  0  0  0
   -2.8613    0.0403    2.3923 H   0  0  0  0  0  0  0  0  0  0  0  0
   -4.3907   -0.7262    2.8444 H   0  0  0  0  0  0  0  0  0  0  0  0
   -2.0769   -2.1510    1.4159 H   0  0  0  0  0  0  0  0  0  0  0  0
   -3.5943   -2.8934    1.8753 H   0  0  0  0  0  0  0  0  0  0  0  0
   -5.7460   -2.5739    0.2071 H   0  0  0  0  0  0  0  0  0  0  0  0
   -6.0477   -1.3640   -1.9861 H   0  0  0  0  0  0  0  0  0  0  0  0
   -2.7834    1.6009   -3.7195 H   0  0  0  0  0  0  0  0  0  0  0  0
    0.1270   -0.9380   -1.5211 H   0  0  0  0  0  0  0  0  0  0  0  0
   -0.3512   -1.9568   -0.1564 H   0  0  0  0  0  0  0  0  0  0  0  0
    1.2620   -0.7605    1.3145 H   0  0  0  0  0  0  0  0  0  0  0  0
    2.0455   -1.5578   -0.0649 H   0  0  0  0  0  0  0  0  0  0  0  0
    2.6081    1.4862    1.6137 H   0  0  0  0  0  0  0  0  0  0  0  0
    3.4798    2.8242   -0.5061 H   0  0  0  0  0  0  0  0  0  0  0  0
    4.6489    2.5189    0.7706 H   0  0  0  0  0  0  0  0  0  0  0  0
    4.3178    0.9148   -1.8263 H   0  0  0  0  0  0  0  0  0  0  0  0
    5.7841    1.7494   -1.2263 H   0  0  0  0  0  0  0  0  0  0  0  0
    3.6207   -1.0315    1.4837 H   0  0  0  0  0  0  0  0  0  0  0  0
    4.5746    0.3020    2.1486 H   0  0  0  0  0  0  0  0  0  0  0  0
    0.7933    1.5575   -1.5311 H   0  0  0  0  0  0  0  0  0  0  0  0
    1.3529    2.5902   -0.2385 H   0  0  0  0  0  0  0  0  0  0  0  0
   -0.1493    1.4447    1.3808 H   0  0  0  0  0  0  0  0  0  0  0  0
   -1.0333    2.2095    0.0832 H   0  0  0  0  0  0  0  0  0  0  0  0
  1  2  1  0
  2  3  1  0
  3  4  2  0
  4  5  1  0
  5  6  1  0
  6  7  2  0
  7  8  1  0
  8  9  2  0
  9 10  1  0
 10 11  1  0
 11 12  1  0
 12 13  1  0
 13 14  1  0
 14 15  1  0
 15 16  1  0
 16 17  1  0
 17 18  1  0
 18 19  2  0
 18 20  2  0
 18 21  1  0
 14 22  1  0
 22 23  1  0
 10 24  2  0
 24  3  1  0
 24  6  1  0
 23 11  1  0
 21 15  1  0
  1 25  1  0
  1 26  1  0
  1 27  1  0
  2 28  1  0
  2 29  1  0
  4 30  1  0
  5 31  1  0
  8 32  1  0
 12 33  1  0
 12 34  1  0
 13 35  1  0
 13 36  1  0
 15 37  1  0
 16 38  1  0
 16 39  1  0
 17 40  1  0
 17 41  1  0
 21 42  1  0
 21 43  1  0
 22 44  1  0
 22 45  1  0
 23 46  1  0
 23 47  1  0
M  END
$$$$
OCNT-2314859
     RDKit          3D

 48 50  0  0  0  0  0  0  0  0999 V2000
    5.1341    2.4339   -3.1978 N   0  0  0  0  0  0  0  0  0  0  0  0
    5.4334    1.8276   -2.2540 C   0  0  0  0  0  0  0  0  0  0  0  0
    5.8340    1.0535   -1.1191 C   0  0  0  0  0  0  0  0  0  0  0  0
    7.1843    0.7225   -0.9636 C   0  0  0  0  0  0  0  0  0  0  0  0
    7.5887   -0.0229    0.1383 C   0  0  0  0  0  0  0  0  0  0  0  0
    6.6303   -0.4191    1.0658 C   0  0  0  0  0  0  0  0  0  0  0  0
    7.0670   -1.2370    2.2749 C   0  0  0  0  0  0  0  0  0  0  0  0
    6.0540   -1.5744    3.1210 F   0  0  0  0  0  0  0  0  0  0  0  0
    7.6586   -2.4139    1.9149 F   0  0  0  0  0  0  0  0  0  0  0  0
    7.9912   -0.5843    3.0387 F   0  0  0  0  0  0  0  0  0  0  0  0
    5.3121   -0.0949    0.9159 N   0  0  0  0  0  0  0  0  0  0  0  0
    4.9100    0.6197   -0.1615 C   0  0  0  0  0  0  0  0  0  0  0  0
    3.5577    0.9717   -0.2620 N   0  0  0  0  0  0  0  0  0  0  0  0
    2.6879    0.4432    0.7851 C   0  0  0  0  0  0  0  0  0  0  0  0
    1.2527    0.8105    0.4763 C   0  0  0  0  0  0  0  0  0  0  0  0
    0.8729    2.1540    0.3515 C   0  0  0  0  0  0  0  0  0  0  0  0
   -0.4480    2.4920    0.0618 C   0  0  0  0  0  0  0  0  0  0  0  0
   -1.4071    1.4920   -0.0965 C   0  0  0  0  0  0  0  0  0  0  0  0
   -1.0615    0.1417    0.0457 C   0  0  0  0  0  0  0  0  0  0  0  0
   -2.0763   -0.9578   -0.1579 C   0  0  0  0  0  0  0  0  0  0  0  0
   -3.3788   -0.5205    0.2261 O   0  0  0  0  0  0  0  0  0  0  0  0
   -4.3451   -1.5578    0.0698 C   0  0  0  0  0  0  0  0  0  0  0  0
   -5.7239   -1.0497    0.4794 C   0  0  0  0  0  0  0  0  0  0  0  0
   -6.2208    0.1233   -0.3518 C   0  0  0  0  0  0  0  0  0  0  0  0
   -7.7142    0.0016   -0.1757 C   0  0  0  0  0  0  0  0  0  0  0  0
   -7.9126   -1.4998   -0.1858 C   0  0  0  0  0  0  0  0  0  0  0  0
   -6.7100   -2.0888    0.3325 O   0  0  0  0  0  0  0  0  0  0  0  0
    0.2766   -0.1869    0.3201 C   0  0  0  0  0  0  0  0  0  0  0  0
    7.9221    1.0476   -1.6954 H   0  0  0  0  0  0  0  0  0  0  0  0
    8.6353   -0.2861    0.2712 H   0  0  0  0  0  0  0  0  0  0  0  0
    3.1835    0.7706   -1.1863 H   0  0  0  0  0  0  0  0  0  0  0  0
    2.9515    0.8620    1.7646 H   0  0  0  0  0  0  0  0  0  0  0  0
    2.7785   -0.6492    0.8443 H   0  0  0  0  0  0  0  0  0  0  0  0
    1.6135    2.9423    0.4713 H   0  0  0  0  0  0  0  0  0  0  0  0
   -0.7312    3.5365   -0.0424 H   0  0  0  0  0  0  0  0  0  0  0  0
   -2.4335    1.7713   -0.3253 H   0  0  0  0  0  0  0  0  0  0  0  0
   -1.8033   -1.8310    0.4467 H   0  0  0  0  0  0  0  0  0  0  0  0
   -2.0792   -1.2419   -1.2167 H   0  0  0  0  0  0  0  0  0  0  0  0
   -4.0740   -2.4176    0.6959 H   0  0  0  0  0  0  0  0  0  0  0  0
   -4.3629   -1.9030   -0.9707 H   0  0  0  0  0  0  0  0  0  0  0  0
   -5.7068   -0.7578    1.5367 H   0  0  0  0  0  0  0  0  0  0  0  0
   -5.9609   -0.0082   -1.4097 H   0  0  0  0  0  0  0  0  0  0  0  0
   -5.8220    1.0835   -0.0148 H   0  0  0  0  0  0  0  0  0  0  0  0
   -8.2941    0.5157   -0.9464 H   0  0  0  0  0  0  0  0  0  0  0  0
   -8.0063    0.4091    0.7995 H   0  0  0  0  0  0  0  0  0  0  0  0
   -8.0509   -1.8754   -1.2052 H   0  0  0  0  0  0  0  0  0  0  0  0
   -8.7658   -1.8140    0.4215 H   0  0  0  0  0  0  0  0  0  0  0  0
    0.5595   -1.2336    0.4169 H   0  0  0  0  0  0  0  0  0  0  0  0
  1  2  3  0
  2  3  1  0
  3  4  2  0
  4  5  1  0
  5  6  2  0
  6  7  1  0
  7  8  1  0
  7  9  1  0
  7 10  1  0
  6 11  1  0
 11 12  2  0
 12 13  1  0
 13 14  1  0
 14 15  1  0
 15 16  2  0
 16 17  1  0
 17 18  2  0
 18 19  1  0
 19 20  1  0
 20 21  1  0
 21 22  1  0
 22 23  1  0
 23 24  1  0
 24 25  1  0
 25 26  1  0
 26 27  1  0
 19 28  2  0
 12  3  1  0
 28 15  1  0
 27 23  1  0
  4 29  1  0
  5 30  1  0
 13 31  1  0
 14 32  1  0
 14 33  1  0
 16 34  1  0
 17 35  1  0
 18 36  1  0
 20 37  1  0
 20 38  1  0
 22 39  1  0
 22 40  1  0
 23 41  1  0
 24 42  1  0
 24 43  1  0
 25 44  1  0
 25 45  1  0
 26 46  1  0
 26 47  1  0
 28 48  1  0
M  END
$$$$
OCNT-2314861
     RDKit          3D

 42 44  0  0  0  0  0  0  0  0999 V2000
   -1.2398   -0.1269   -2.8206 C   0  0  0  0  0  0  0  0  0  0  0  0
   -2.1175   -0.8400   -1.8991 N   0  0  0  0  0  0  0  0  0  0  0  0
   -1.5259   -2.0458   -1.3110 C   0  0  0  0  0  0  0  0  0  0  0  0
   -2.8049   -0.0825   -0.9256 C   0  0  0  0  0  0  0  0  0  0  0  0
   -4.1634   -0.4282   -0.7479 C   0  0  0  0  0  0  0  0  0  0  0  0
   -4.9802    0.2182    0.1796 C   0  0  0  0  0  0  0  0  0  0  0  0
   -4.4541    1.2300    0.9671 C   0  0  0  0  0  0  0  0  0  0  0  0
   -3.1143    1.5880    0.8208 C   0  0  0  0  0  0  0  0  0  0  0  0
   -2.2673    0.9503   -0.1175 C   0  0  0  0  0  0  0  0  0  0  0  0
   -0.8702    1.3991   -0.1656 C   0  0  0  0  0  0  0  0  0  0  0  0
   -0.5208    2.5955   -0.7534 C   0  0  0  0  0  0  0  0  0  0  0  0
    0.8108    2.9082   -0.7059 C   0  0  0  0  0  0  0  0  0  0  0  0
    1.7361    2.1237   -0.1268 N   0  0  0  0  0  0  0  0  0  0  0  0
    1.3214    0.9783    0.4409 C   0  0  0  0  0  0  0  0  0  0  0  0
    2.2491    0.1746    1.0663 N   0  0  0  0  0  0  0  0  0  0  0  0
    3.6634    0.3499    0.7400 C   0  0  0  0  0  0  0  0  0  0  0  0
    4.4035   -1.0073    0.7071 C   0  0  0  0  0  0  0  0  0  0  0  0
    4.2522   -1.8481    1.9080 N   0  0  0  0  0  0  0  0  0  0  0  0
    2.9017   -1.7174    2.4946 C   0  0  0  0  0  0  0  0  0  0  0  0
    1.8172   -1.1283    1.5655 C   0  0  0  0  0  0  0  0  0  0  0  0
    0.0342    0.6003    0.4405 N   0  0  0  0  0  0  0  0  0  0  0  0
   -0.2416    0.0389   -2.4049 H   0  0  0  0  0  0  0  0  0  0  0  0
   -1.1124   -0.7276   -3.7284 H   0  0  0  0  0  0  0  0  0  0  0  0
   -1.6740    0.8294   -3.1329 H   0  0  0  0  0  0  0  0  0  0  0  0
   -1.1199   -2.6844   -2.1035 H   0  0  0  0  0  0  0  0  0  0  0  0
   -0.7098   -1.8056   -0.6220 H   0  0  0  0  0  0  0  0  0  0  0  0
   -2.2750   -2.6403   -0.7754 H   0  0  0  0  0  0  0  0  0  0  0  0
   -4.5888   -1.2198   -1.3622 H   0  0  0  0  0  0  0  0  0  0  0  0
   -6.0208   -0.0755    0.2836 H   0  0  0  0  0  0  0  0  0  0  0  0
   -5.0775    1.7347    1.6999 H   0  0  0  0  0  0  0  0  0  0  0  0
   -2.7122    2.3695    1.4644 H   0  0  0  0  0  0  0  0  0  0  0  0
   -1.2463    3.2432   -1.2254 H   0  0  0  0  0  0  0  0  0  0  0  0
    1.1900    3.8267   -1.1429 H   0  0  0  0  0  0  0  0  0  0  0  0
    3.8107    0.8221   -0.2391 H   0  0  0  0  0  0  0  0  0  0  0  0
    4.1219    0.9998    1.4950 H   0  0  0  0  0  0  0  0  0  0  0  0
    4.0408   -1.5856   -0.1524 H   0  0  0  0  0  0  0  0  0  0  0  0
    5.4713   -0.8356    0.5296 H   0  0  0  0  0  0  0  0  0  0  0  0
    4.9283   -1.5505    2.6111 H   0  0  0  0  0  0  0  0  0  0  0  0
    2.9805   -1.0724    3.3796 H   0  0  0  0  0  0  0  0  0  0  0  0
    2.5827   -2.7030    2.8503 H   0  0  0  0  0  0  0  0  0  0  0  0
    0.8917   -1.0423    2.1483 H   0  0  0  0  0  0  0  0  0  0  0  0
    1.6293   -1.8128    0.7286 H   0  0  0  0  0  0  0  0  0  0  0  0
  1  2  1  0
  2  3  1  0
  2  4  1  0
  4  5  2  0
  5  6  1  0
  6  7  2  0
  7  8  1  0
  8  9  2  0
  9 10  1  0
 10 11  1  0
 11 12  2  0
 12 13  1  0
 13 14  2  0
 14 15  1  0
 15 16  1  0
 16 17  1  0
 17 18  1  0
 18 19  1  0
 19 20  1  0
 14 21  1  0
  9  4  1  0
 21 10  2  0
 20 15  1  0
  1 22  1  0
  1 23  1  0
  1 24  1  0
  3 25  1  0
  3 26  1  0
  3 27  1  0
  5 28  1  0
  6 29  1  0
  7 30  1  0
  8 31  1  0
 11 32  1  0
 12 33  1  0
 16 34  1  0
 16 35  1  0
 17 36  1  0
 17 37  1  0
 18 38  1  0
 19 39  1  0
 19 40  1  0
 20 41  1  0
 20 42  1  0
M  END
$$$$
OCNT-2314875
     RDKit          3D

 37 39  0  0  0  0  0  0  0  0999 V2000
    2.8134   -1.8002    1.2101 C   0  0  0  0  0  0  0  0  0  0  0  0
    2.2547   -0.9800    0.0390 C   0  0  0  0  0  0  0  0  0  0  0  0
    3.1240    0.2352   -0.2855 C   0  0  0  0  0  0  0  0  0  0  0  0
    3.1887    0.7129   -1.5948 C   0  0  0  0  0  0  0  0  0  0  0  0
    3.9595    1.8394   -1.8689 C   0  0  0  0  0  0  0  0  0  0  0  0
    4.6418    2.4657   -0.8348 C   0  0  0  0  0  0  0  0  0  0  0  0
    4.5206    1.9392    0.4388 C   0  0  0  0  0  0  0  0  0  0  0  0
    3.7784    0.8495    0.7368 N   0  0  0  0  0  0  0  0  0  0  0  0
    0.8362   -0.6138    0.2552 N   0  0  0  0  0  0  0  0  0  0  0  0
    0.5103    0.1326    1.4705 C   0  0  0  0  0  0  0  0  0  0  0  0
   -0.0378   -0.7131   -0.8401 C   0  0  0  0  0  0  0  0  0  0  0  0
    0.3785   -1.0124   -1.9592 O   0  0  0  0  0  0  0  0  0  0  0  0
   -1.4576   -0.5290   -0.5792 C   0  0  0  0  0  0  0  0  0  0  0  0
   -2.2570    0.2433   -1.2941 N   0  0  0  0  0  0  0  0  0  0  0  0
   -3.5052    0.1054   -0.7445 C   0  0  0  0  0  0  0  0  0  0  0  0
   -4.7153    0.7123   -1.1125 C   0  0  0  0  0  0  0  0  0  0  0  0
   -5.8639    0.3953   -0.3781 C   0  0  0  0  0  0  0  0  0  0  0  0
   -7.5080    1.2047   -0.8559 Br  0  0  0  0  0  0  0  0  0  0  0  0
   -5.8066   -0.5021    0.6902 C   0  0  0  0  0  0  0  0  0  0  0  0
   -6.9141   -0.7990    1.3874 F   0  0  0  0  0  0  0  0  0  0  0  0
   -4.6109   -1.1176    1.0701 C   0  0  0  0  0  0  0  0  0  0  0  0
   -3.4793   -0.7837    0.3249 C   0  0  0  0  0  0  0  0  0  0  0  0
   -2.1702   -1.1828    0.3995 N   0  0  0  0  0  0  0  0  0  0  0  0
    2.8425   -1.2286    2.1441 H   0  0  0  0  0  0  0  0  0  0  0  0
    2.1950   -2.6873    1.3860 H   0  0  0  0  0  0  0  0  0  0  0  0
    3.8348   -2.1355    0.9974 H   0  0  0  0  0  0  0  0  0  0  0  0
    2.3101   -1.6507   -0.8286 H   0  0  0  0  0  0  0  0  0  0  0  0
    2.6411    0.2217   -2.3947 H   0  0  0  0  0  0  0  0  0  0  0  0
    4.0201    2.2252   -2.8827 H   0  0  0  0  0  0  0  0  0  0  0  0
    5.2492    3.3449   -1.0164 H   0  0  0  0  0  0  0  0  0  0  0  0
    5.0320    2.3951    1.2818 H   0  0  0  0  0  0  0  0  0  0  0  0
   -0.4592    0.6301    1.4084 H   0  0  0  0  0  0  0  0  0  0  0  0
    0.5019   -0.5621    2.3147 H   0  0  0  0  0  0  0  0  0  0  0  0
    1.2576    0.9100    1.6459 H   0  0  0  0  0  0  0  0  0  0  0  0
   -4.7388    1.4043   -1.9468 H   0  0  0  0  0  0  0  0  0  0  0  0
   -4.5839   -1.8141    1.8995 H   0  0  0  0  0  0  0  0  0  0  0  0
   -1.7824   -1.8546    1.0460 H   0  0  0  0  0  0  0  0  0  0  0  0
  1  2  1  0
  2  3  1  0
  3  4  2  0
  4  5  1  0
  5  6  2  0
  6  7  1  0
  7  8  2  0
  2  9  1  0
  9 10  1  0
  9 11  1  0
 11 12  2  0
 11 13  1  0
 13 14  2  0
 14 15  1  0
 15 16  2  0
 16 17  1  0
 17 18  1  0
 17 19  2  0
 19 20  1  0
 19 21  1  0
 21 22  2  0
 22 23  1  0
  8  3  1  0
 23 13  1  0
 22 15  1  0
  1 24  1  0
  1 25  1  0
  1 26  1  0
  2 27  1  0
  4 28  1  0
  5 29  1  0
  6 30  1  0
  7 31  1  0
 10 32  1  0
 10 33  1  0
 10 34  1  0
 16 35  1  0
 21 36  1  0
 23 37  1  0
M  END
$$$$
OCNT-2314879
     RDKit          3D

 39 42  0  0  0  0  0  0  0  0999 V2000
   -7.6503    2.0639   -1.3614 N   0  0  0  0  0  0  0  0  0  0  0  0
   -6.3738    2.0598   -1.8538 C   0  0  0  0  0  0  0  0  0  0  0  0
   -6.0498    2.8195   -2.7570 O   0  0  0  0  0  0  0  0  0  0  0  0
   -5.4000    1.1337   -1.2183 C   0  0  0  0  0  0  0  0  0  0  0  0
   -5.8169   -0.0436   -0.5760 C   0  0  0  0  0  0  0  0  0  0  0  0
   -4.8949   -0.9127    0.0219 C   0  0  0  0  0  0  0  0  0  0  0  0
   -3.5508   -0.5484   -0.0618 C   0  0  0  0  0  0  0  0  0  0  0  0
   -2.4022   -1.1413    0.3926 N   0  0  0  0  0  0  0  0  0  0  0  0
   -1.3383   -0.3551    0.0298 C   0  0  0  0  0  0  0  0  0  0  0  0
   -0.0356   -0.6466    0.3218 N   0  0  0  0  0  0  0  0  0  0  0  0
    0.3511   -1.7680    1.0162 C   0  0  0  0  0  0  0  0  0  0  0  0
   -0.4151   -2.6245    1.4542 O   0  0  0  0  0  0  0  0  0  0  0  0
    1.8044   -1.8413    1.1861 C   0  0  0  0  0  0  0  0  0  0  0  0
    2.4608   -2.8557    1.8560 C   0  0  0  0  0  0  0  0  0  0  0  0
    4.1489   -2.5749    1.8477 S   0  0  0  0  0  0  0  0  0  0  0  0
    3.9042   -1.1325    0.9371 C   0  0  0  0  0  0  0  0  0  0  0  0
    5.0361   -0.2905    0.5630 C   0  0  0  0  0  0  0  0  0  0  0  0
    6.1398   -0.7920   -0.1328 C   0  0  0  0  0  0  0  0  0  0  0  0
    6.1941   -2.0849   -0.4871 F   0  0  0  0  0  0  0  0  0  0  0  0
    7.2078    0.0302   -0.4976 C   0  0  0  0  0  0  0  0  0  0  0  0
    7.1851    1.3849   -0.1726 C   0  0  0  0  0  0  0  0  0  0  0  0
    6.0912    1.9070    0.5143 C   0  0  0  0  0  0  0  0  0  0  0  0
    5.0307    1.0725    0.8723 C   0  0  0  0  0  0  0  0  0  0  0  0
    4.0043    1.6135    1.5465 F   0  0  0  0  0  0  0  0  0  0  0  0
    2.6442   -0.8542    0.6651 N   0  0  0  0  0  0  0  0  0  0  0  0
   -1.7360    0.7060   -0.6315 N   0  0  0  0  0  0  0  0  0  0  0  0
   -3.1050    0.6035   -0.7016 C   0  0  0  0  0  0  0  0  0  0  0  0
   -4.0370    1.4623   -1.2987 C   0  0  0  0  0  0  0  0  0  0  0  0
   -8.2489    2.7994   -1.7162 H   0  0  0  0  0  0  0  0  0  0  0  0
   -7.8668    1.6957   -0.4465 H   0  0  0  0  0  0  0  0  0  0  0  0
   -6.8690   -0.3176   -0.5549 H   0  0  0  0  0  0  0  0  0  0  0  0
   -5.2138   -1.8257    0.5137 H   0  0  0  0  0  0  0  0  0  0  0  0
   -2.3193   -2.0084    0.9078 H   0  0  0  0  0  0  0  0  0  0  0  0
    0.6759    0.0045    0.0060 H   0  0  0  0  0  0  0  0  0  0  0  0
    2.0327   -3.7222    2.3410 H   0  0  0  0  0  0  0  0  0  0  0  0
    8.0479   -0.3947   -1.0399 H   0  0  0  0  0  0  0  0  0  0  0  0
    8.0128    2.0307   -0.4561 H   0  0  0  0  0  0  0  0  0  0  0  0
    6.0524    2.9608    0.7760 H   0  0  0  0  0  0  0  0  0  0  0  0
   -3.7009    2.3614   -1.8053 H   0  0  0  0  0  0  0  0  0  0  0  0
  1  2  1  0
  2  3  2  0
  2  4  1  0
  4  5  2  0
  5  6  1  0
  6  7  2  0
  7  8  1  0
  8  9  1  0
  9 10  1  0
 10 11  1  0
 11 12  2  0
 11 13  1  0
 13 14  2  0
 14 15  1  0
 15 16  1  0
 16 17  1  0
 17 18  2  0
 18 19  1  0
 18 20  1  0
 20 21  2  0
 21 22  1  0
 22 23  2  0
 23 24  1  0
 16 25  2  0
  9 26  2  0
 26 27  1  0
 27 28  2  0
 28  4  1  0
 27  7  1  0
 25 13  1  0
 23 17  1  0
  1 29  1  0
  1 30  1  0
  5 31  1  0
  6 32  1  0
  8 33  1  0
 10 34  1  0
 14 35  1  0
 20 36  1  0
 21 37  1  0
 22 38  1  0
 28 39  1  0
M  END
$$$$
OCNT-2314884
     RDKit          3D

 41 43  0  0  0  0  0  0  0  0999 V2000
    3.0766    1.6744   -3.1932 C   0  0  0  0  0  0  0  0  0  0  0  0
    2.1572    0.9351   -2.2227 C   0  0  0  0  0  0  0  0  0  0  0  0
    1.2760    1.9238   -1.4693 C   0  0  0  0  0  0  0  0  0  0  0  0
    1.3385    0.0579   -3.0126 O   0  0  0  0  0  0  0  0  0  0  0  0
    1.2495   -1.1921   -2.4437 C   0  0  0  0  0  0  0  0  0  0  0  0
    1.6027   -2.2774   -3.2332 C   0  0  0  0  0  0  0  0  0  0  0  0
    1.5361   -3.5495   -2.6744 C   0  0  0  0  0  0  0  0  0  0  0  0
    1.0991   -3.6879   -1.3615 C   0  0  0  0  0  0  0  0  0  0  0  0
    0.7288   -2.5407   -0.6622 C   0  0  0  0  0  0  0  0  0  0  0  0
    0.2374   -2.6627    0.7473 C   0  0  0  0  0  0  0  0  0  0  0  0
    0.3959   -3.7183    1.3548 O   0  0  0  0  0  0  0  0  0  0  0  0
   -0.3867   -1.5261    1.2198 N   0  0  0  0  0  0  0  0  0  0  0  0
   -0.9149   -1.3551    2.4886 C   0  0  0  0  0  0  0  0  0  0  0  0
   -0.8298   -2.2133    3.5565 C   0  0  0  0  0  0  0  0  0  0  0  0
   -1.4808   -1.6062    4.5828 N   0  0  0  0  0  0  0  0  0  0  0  0
   -1.9932   -0.4062    4.2695 N   0  0  0  0  0  0  0  0  0  0  0  0
   -1.6661   -0.2322    2.9706 C   0  0  0  0  0  0  0  0  0  0  0  0
   -2.0730    0.9633    2.2139 C   0  0  0  0  0  0  0  0  0  0  0  0
   -2.7506    2.0108    2.8375 C   0  0  0  0  0  0  0  0  0  0  0  0
   -3.1287    3.1157    2.0783 C   0  0  0  0  0  0  0  0  0  0  0  0
   -2.8267    3.1449    0.7219 C   0  0  0  0  0  0  0  0  0  0  0  0
   -2.1574    2.0615    0.1754 C   0  0  0  0  0  0  0  0  0  0  0  0
   -1.7671    0.9793    0.8854 N   0  0  0  0  0  0  0  0  0  0  0  0
    0.7883   -1.2842   -1.1801 N   0  0  0  0  0  0  0  0  0  0  0  0
    3.6347    0.9627   -3.8126 H   0  0  0  0  0  0  0  0  0  0  0  0
    3.7890    2.3124   -2.6600 H   0  0  0  0  0  0  0  0  0  0  0  0
    2.4960    2.3009   -3.8813 H   0  0  0  0  0  0  0  0  0  0  0  0
    2.7904    0.3847   -1.5114 H   0  0  0  0  0  0  0  0  0  0  0  0
    1.8801    2.6581   -0.9269 H   0  0  0  0  0  0  0  0  0  0  0  0
    0.6453    1.4006   -0.7438 H   0  0  0  0  0  0  0  0  0  0  0  0
    0.6010    2.4558   -2.1483 H   0  0  0  0  0  0  0  0  0  0  0  0
    1.9409   -2.1301   -4.2544 H   0  0  0  0  0  0  0  0  0  0  0  0
    1.8240   -4.4235   -3.2543 H   0  0  0  0  0  0  0  0  0  0  0  0
    1.0394   -4.6666   -0.8953 H   0  0  0  0  0  0  0  0  0  0  0  0
   -0.5135   -0.7452    0.5718 H   0  0  0  0  0  0  0  0  0  0  0  0
   -0.3657   -3.1811    3.6776 H   0  0  0  0  0  0  0  0  0  0  0  0
   -1.6122   -1.9535    5.5263 H   0  0  0  0  0  0  0  0  0  0  0  0
   -2.9859    1.9681    3.8978 H   0  0  0  0  0  0  0  0  0  0  0  0
   -3.6576    3.9415    2.5431 H   0  0  0  0  0  0  0  0  0  0  0  0
   -3.1109    3.9887    0.1033 H   0  0  0  0  0  0  0  0  0  0  0  0
   -1.9063    2.0366   -0.8811 H   0  0  0  0  0  0  0  0  0  0  0  0
  1  2  1  0
  2  3  1  0
  2  4  1  0
  4  5  1  0
  5  6  1  0
  6  7  2  0
  7  8  1  0
  8  9  2  0
  9 10  1  0
 10 11  2  0
 10 12  1  0
 12 13  1  0
 13 14  2  0
 14 15  1  0
 15 16  1  0
 16 17  2  0
 17 18  1  0
 18 19  2  0
 19 20  1  0
 20 21  2  0
 21 22  1  0
 22 23  2  0
  9 24  1  0
 24  5  2  0
 17 13  1  0
 23 18  1  0
  1 25  1  0
  1 26  1  0
  1 27  1  0
  2 28  1  0
  3 29  1  0
  3 30  1  0
  3 31  1  0
  6 32  1  0
  7 33  1  0
  8 34  1  0
 12 35  1  0
 14 36  1  0
 15 37  1  0
 19 38  1  0
 20 39  1  0
 21 40  1  0
 22 41  1  0
M  END
$$$$
OCNT-2314886
     RDKit          3D

 39 42  0  0  0  0  0  0  0  0999 V2000
    5.5176    0.6701    1.2671 C   0  0  0  0  0  0  0  0  0  0  0  0
    4.2325    0.0879    0.9677 N   0  0  0  0  0  0  0  0  0  0  0  0
    3.7145   -0.1739   -0.2667 C   0  0  0  0  0  0  0  0  0  0  0  0
    2.4690   -0.7299   -0.0560 C   0  0  0  0  0  0  0  0  0  0  0  0
    1.4839   -1.2014   -1.0724 C   0  0  0  0  0  0  0  0  0  0  0  0
    0.7694   -0.0465   -1.7971 C   0  0  0  0  0  0  0  0  0  0  0  0
   -0.0760   -0.5514   -2.9698 C   0  0  0  0  0  0  0  0  0  0  0  0
   -1.3819   -0.9750   -2.3061 C   0  0  0  0  0  0  0  0  0  0  0  0
   -1.5442    0.0095   -1.2436 N   0  0  0  0  0  0  0  0  0  0  0  0
   -2.5245   -0.2055   -0.2921 C   0  0  0  0  0  0  0  0  0  0  0  0
   -3.3244   -1.3021   -0.4209 N   0  0  0  0  0  0  0  0  0  0  0  0
   -4.2849   -1.5381    0.4925 C   0  0  0  0  0  0  0  0  0  0  0  0
   -4.5971   -0.8091    1.5730 N   0  0  0  0  0  0  0  0  0  0  0  0
   -3.8171    0.2762    1.6611 C   0  0  0  0  0  0  0  0  0  0  0  0
   -2.7935    0.6521    0.8012 C   0  0  0  0  0  0  0  0  0  0  0  0
   -2.2985    1.8945    1.3044 C   0  0  0  0  0  0  0  0  0  0  0  0
   -3.0064    2.2112    2.4450 C   0  0  0  0  0  0  0  0  0  0  0  0
   -3.9233    1.2149    2.6501 N   0  0  0  0  0  0  0  0  0  0  0  0
   -0.2751    0.6497   -0.9047 C   0  0  0  0  0  0  0  0  0  0  0  0
    2.3440   -0.7613    1.3525 C   0  0  0  0  0  0  0  0  0  0  0  0
    3.4105   -0.2546    1.9743 N   0  0  0  0  0  0  0  0  0  0  0  0
    6.0890   -0.0441    1.8652 H   0  0  0  0  0  0  0  0  0  0  0  0
    5.3553    1.5962    1.8242 H   0  0  0  0  0  0  0  0  0  0  0  0
    6.0465    0.8835    0.3349 H   0  0  0  0  0  0  0  0  0  0  0  0
    4.2601    0.0482   -1.1732 H   0  0  0  0  0  0  0  0  0  0  0  0
    0.7576   -1.8692   -0.5926 H   0  0  0  0  0  0  0  0  0  0  0  0
    2.0229   -1.8122   -1.8085 H   0  0  0  0  0  0  0  0  0  0  0  0
    1.5146    0.6767   -2.1499 H   0  0  0  0  0  0  0  0  0  0  0  0
   -0.2670    0.2751   -3.6660 H   0  0  0  0  0  0  0  0  0  0  0  0
    0.3904   -1.3653   -3.5325 H   0  0  0  0  0  0  0  0  0  0  0  0
   -1.2827   -1.9910   -1.9046 H   0  0  0  0  0  0  0  0  0  0  0  0
   -2.2132   -0.9505   -3.0186 H   0  0  0  0  0  0  0  0  0  0  0  0
   -4.8790   -2.4324    0.3325 H   0  0  0  0  0  0  0  0  0  0  0  0
   -1.5113    2.4989    0.8756 H   0  0  0  0  0  0  0  0  0  0  0  0
   -2.9411    3.0558    3.1179 H   0  0  0  0  0  0  0  0  0  0  0  0
   -4.5973    1.1632    3.3999 H   0  0  0  0  0  0  0  0  0  0  0  0
   -0.0204    0.5661    0.1560 H   0  0  0  0  0  0  0  0  0  0  0  0
   -0.3349    1.7123   -1.1666 H   0  0  0  0  0  0  0  0  0  0  0  0
    1.5161   -1.1282    1.9468 H   0  0  0  0  0  0  0  0  0  0  0  0
  1  2  1  0
  2  3  1  0
  3  4  2  0
  4  5  1  0
  5  6  1  0
  6  7  1  0
  7  8  1  0
  8  9  1  0
  9 10  1  0
 10 11  1  0
 11 12  2  0
 12 13  1  0
 13 14  2  0
 14 15  1  0
 15 16  1  0
 16 17  2  0
 17 18  1  0
  9 19  1  0
  4 20  1  0
 20 21  2  0
 21  2  1  0
 19  6  1  0
 15 10  2  0
 18 14  1  0
  1 22  1  0
  1 23  1  0
  1 24  1  0
  3 25  1  0
  5 26  1  0
  5 27  1  0
  6 28  1  0
  7 29  1  0
  7 30  1  0
  8 31  1  0
  8 32  1  0
 12 33  1  0
 16 34  1  0
 17 35  1  0
 18 36  1  0
 19 37  1  0
 19 38  1  0
 20 39  1  0
M  END
$$$$
OCNT-2314896
     RDKit          3D

 54 57  0  0  0  0  0  0  0  0999 V2000
    0.1928    2.8900   -2.9950 C   0  0  0  0  0  0  0  0  0  0  0  0
   -0.1701    1.6386   -2.3759 N   0  0  0  0  0  0  0  0  0  0  0  0
    0.5938    0.5177   -2.2893 C   0  0  0  0  0  0  0  0  0  0  0  0
   -0.1437   -0.4023   -1.5677 C   0  0  0  0  0  0  0  0  0  0  0  0
    0.2589   -1.7759   -1.1302 C   0  0  0  0  0  0  0  0  0  0  0  0
    1.6693   -2.1508   -1.2564 N   0  0  0  0  0  0  0  0  0  0  0  0
    2.6513   -1.5416   -0.4719 C   0  0  0  0  0  0  0  0  0  0  0  0
    2.3872   -0.8589    0.7211 C   0  0  0  0  0  0  0  0  0  0  0  0
    3.4226   -0.3103    1.4876 C   0  0  0  0  0  0  0  0  0  0  0  0
    4.7456   -0.4774    1.0901 C   0  0  0  0  0  0  0  0  0  0  0  0
    5.7927    0.1216    1.8507 N   0  0  0  0  0  0  0  0  0  0  0  0
    6.4329    1.5782    1.2691 S   0  0  0  0  0  0  0  0  0  0  0  0
    8.0209    1.0343    0.6817 C   0  0  0  0  0  0  0  0  0  0  0  0
    5.6638    2.0666    0.1471 O   0  0  0  0  0  0  0  0  0  0  0  0
    6.6611    2.3940    2.4434 O   0  0  0  0  0  0  0  0  0  0  0  0
    5.0364   -1.1818   -0.0724 C   0  0  0  0  0  0  0  0  0  0  0  0
    3.9952   -1.7227   -0.8336 C   0  0  0  0  0  0  0  0  0  0  0  0
   -1.3785    0.2680   -1.2968 C   0  0  0  0  0  0  0  0  0  0  0  0
   -2.5394   -0.2298   -0.5653 C   0  0  0  0  0  0  0  0  0  0  0  0
   -3.1293   -1.4557   -0.9004 C   0  0  0  0  0  0  0  0  0  0  0  0
   -4.2266   -1.9299   -0.1767 C   0  0  0  0  0  0  0  0  0  0  0  0
   -4.7602   -1.1679    0.8625 C   0  0  0  0  0  0  0  0  0  0  0  0
   -5.7909   -1.7275    1.5666 O   0  0  0  0  0  0  0  0  0  0  0  0
   -6.9743   -0.9300    1.5127 C   0  0  0  0  0  0  0  0  0  0  0  0
   -6.9439    0.2092    2.5200 C   0  0  0  0  0  0  0  0  0  0  0  0
   -5.9316    1.2705    2.1172 C   0  0  0  0  0  0  0  0  0  0  0  0
   -4.5889    0.8096    2.2657 O   0  0  0  0  0  0  0  0  0  0  0  0
   -4.1819    0.0588    1.1966 C   0  0  0  0  0  0  0  0  0  0  0  0
   -3.0705    0.5218    0.4912 C   0  0  0  0  0  0  0  0  0  0  0  0
   -1.3725    1.5143   -1.7950 N   0  0  0  0  0  0  0  0  0  0  0  0
    0.1807    3.6694   -2.2291 H   0  0  0  0  0  0  0  0  0  0  0  0
   -0.5348    3.1103   -3.7800 H   0  0  0  0  0  0  0  0  0  0  0  0
    1.1931    2.8064   -3.4267 H   0  0  0  0  0  0  0  0  0  0  0  0
    1.5936    0.4735   -2.6984 H   0  0  0  0  0  0  0  0  0  0  0  0
   -0.0792   -1.9594   -0.1029 H   0  0  0  0  0  0  0  0  0  0  0  0
   -0.3022   -2.4883   -1.7485 H   0  0  0  0  0  0  0  0  0  0  0  0
    1.9508   -2.2136   -2.2306 H   0  0  0  0  0  0  0  0  0  0  0  0
    1.3701   -0.7169    1.0741 H   0  0  0  0  0  0  0  0  0  0  0  0
    3.1753    0.2478    2.3858 H   0  0  0  0  0  0  0  0  0  0  0  0
    5.5883    0.2305    2.8463 H   0  0  0  0  0  0  0  0  0  0  0  0
    8.5719    1.9143    0.3425 H   0  0  0  0  0  0  0  0  0  0  0  0
    7.8791    0.3452   -0.1519 H   0  0  0  0  0  0  0  0  0  0  0  0
    8.5587    0.5553    1.5018 H   0  0  0  0  0  0  0  0  0  0  0  0
    6.0621   -1.3312   -0.3915 H   0  0  0  0  0  0  0  0  0  0  0  0
    4.2445   -2.2907   -1.7267 H   0  0  0  0  0  0  0  0  0  0  0  0
   -2.7482   -2.0474   -1.7284 H   0  0  0  0  0  0  0  0  0  0  0  0
   -4.6678   -2.8915   -0.4243 H   0  0  0  0  0  0  0  0  0  0  0  0
   -7.8056   -1.5975    1.7667 H   0  0  0  0  0  0  0  0  0  0  0  0
   -7.1655   -0.5714    0.4922 H   0  0  0  0  0  0  0  0  0  0  0  0
   -7.9384    0.6644    2.5790 H   0  0  0  0  0  0  0  0  0  0  0  0
   -6.6817   -0.1865    3.5082 H   0  0  0  0  0  0  0  0  0  0  0  0
   -6.1133    1.6483    1.1018 H   0  0  0  0  0  0  0  0  0  0  0  0
   -6.0385    2.1285    2.7907 H   0  0  0  0  0  0  0  0  0  0  0  0
   -2.6148    1.4699    0.7682 H   0  0  0  0  0  0  0  0  0  0  0  0
  1  2  1  0
  2  3  1  0
  3  4  2  0
  4  5  1  0
  5  6  1  0
  6  7  1  0
  7  8  1  0
  8  9  2  0
  9 10  1  0
 10 11  1  0
 11 12  1  0
 12 13  1  0
 12 14  2  0
 12 15  2  0
 10 16  2  0
 16 17  1  0
  4 18  1  0
 18 19  1  0
 19 20  1  0
 20 21  2  0
 21 22  1  0
 22 23  1  0
 23 24  1  0
 24 25  1  0
 25 26  1  0
 26 27  1  0
 27 28  1  0
 28 29  1  0
 18 30  2  0
 30  2  1  0
 17  7  2  0
 29 19  2  0
 28 22  2  0
  1 31  1  0
  1 32  1  0
  1 33  1  0
  3 34  1  0
  5 35  1  0
  5 36  1  0
  6 37  1  0
  8 38  1  0
  9 39  1  0
 11 40  1  0
 13 41  1  0
 13 42  1  0
 13 43  1  0
 16 44  1  0
 17 45  1  0
 20 46  1  0
 21 47  1  0
 24 48  1  0
 24 49  1  0
 25 50  1  0
 25 51  1  0
 26 52  1  0
 26 53  1  0
 29 54  1  0
M  END
$$$$
OCNT-2314897
     RDKit          3D

 34 36  0  0  0  0  0  0  0  0999 V2000
   -3.5902   -0.1574   -2.5009 F   0  0  0  0  0  0  0  0  0  0  0  0
   -4.0253   -0.9140   -1.4568 C   0  0  0  0  0  0  0  0  0  0  0  0
   -3.3568   -2.0973   -1.5512 F   0  0  0  0  0  0  0  0  0  0  0  0
   -5.3281   -1.2056   -1.7263 F   0  0  0  0  0  0  0  0  0  0  0  0
   -3.8207   -0.2366   -0.1330 C   0  0  0  0  0  0  0  0  0  0  0  0
   -4.9187    0.2481    0.5960 C   0  0  0  0  0  0  0  0  0  0  0  0
   -4.7229    0.8710    1.8223 C   0  0  0  0  0  0  0  0  0  0  0  0
   -3.4296    0.9903    2.2881 C   0  0  0  0  0  0  0  0  0  0  0  0
   -2.3508    0.5397    1.6147 N   0  0  0  0  0  0  0  0  0  0  0  0
   -2.5390   -0.0534    0.4035 C   0  0  0  0  0  0  0  0  0  0  0  0
   -1.2996   -0.5731   -0.3167 C   0  0  0  0  0  0  0  0  0  0  0  0
   -0.1141    0.0621    0.1678 O   0  0  0  0  0  0  0  0  0  0  0  0
    1.0242   -0.3833   -0.4057 C   0  0  0  0  0  0  0  0  0  0  0  0
    2.2583    0.1023   -0.0491 C   0  0  0  0  0  0  0  0  0  0  0  0
    2.7064    1.1035    0.9465 C   0  0  0  0  0  0  0  0  0  0  0  0
    4.0473    1.6206    0.6282 N   0  0  0  0  0  0  0  0  0  0  0  0
    4.9823    0.5105    0.3784 C   0  0  0  0  0  0  0  0  0  0  0  0
    4.5812   -0.3471   -0.8250 C   0  0  0  0  0  0  0  0  0  0  0  0
    3.1521   -0.5855   -0.8200 N   0  0  0  0  0  0  0  0  0  0  0  0
    2.5889   -1.4684   -1.6659 N   0  0  0  0  0  0  0  0  0  0  0  0
    1.2819   -1.3481   -1.4042 C   0  0  0  0  0  0  0  0  0  0  0  0
   -5.9310    0.1377    0.2102 H   0  0  0  0  0  0  0  0  0  0  0  0
   -5.5578    1.2504    2.4010 H   0  0  0  0  0  0  0  0  0  0  0  0
   -3.2153    1.4636    3.2421 H   0  0  0  0  0  0  0  0  0  0  0  0
   -1.2428   -1.6551   -0.1448 H   0  0  0  0  0  0  0  0  0  0  0  0
   -1.3916   -0.3608   -1.3879 H   0  0  0  0  0  0  0  0  0  0  0  0
    2.7159    0.6539    1.9464 H   0  0  0  0  0  0  0  0  0  0  0  0
    2.0062    1.9455    0.9816 H   0  0  0  0  0  0  0  0  0  0  0  0
    3.9692    2.1991   -0.2088 H   0  0  0  0  0  0  0  0  0  0  0  0
    5.0462   -0.1130    1.2796 H   0  0  0  0  0  0  0  0  0  0  0  0
    5.9863    0.9171    0.2148 H   0  0  0  0  0  0  0  0  0  0  0  0
    4.8099    0.1666   -1.7653 H   0  0  0  0  0  0  0  0  0  0  0  0
    5.0904   -1.3157   -0.8045 H   0  0  0  0  0  0  0  0  0  0  0  0
    0.5879   -1.9680   -1.9550 H   0  0  0  0  0  0  0  0  0  0  0  0
  1  2  1  0
  2  3  1  0
  2  4  1  0
  2  5  1  0
  5  6  1  0
  6  7  2  0
  7  8  1  0
  8  9  2  0
  9 10  1  0
 10 11  1  0
 11 12  1  0
 12 13  1  0
 13 14  2  0
 14 15  1  0
 15 16  1  0
 16 17  1  0
 17 18  1  0
 18 19  1  0
 19 20  1  0
 20 21  2  0
 10  5  2  0
 21 13  1  0
 19 14  1  0
  6 22  1  0
  7 23  1  0
  8 24  1  0
 11 25  1  0
 11 26  1  0
 15 27  1  0
 15 28  1  0
 16 29  1  0
 17 30  1  0
 17 31  1  0
 18 32  1  0
 18 33  1  0
 21 34  1  0
M  END
$$$$
OCNT-2314903
     RDKit          3D

 50 53  0  0  0  0  0  0  0  0999 V2000
   -4.2325   -3.4637   -0.8599 C   0  0  0  0  0  0  0  0  0  0  0  0
   -4.1647   -2.4525    0.2839 C   0  0  0  0  0  0  0  0  0  0  0  0
   -4.5636   -3.0891    1.6147 C   0  0  0  0  0  0  0  0  0  0  0  0
   -2.8484   -1.8298    0.3663 N   0  0  0  0  0  0  0  0  0  0  0  0
   -1.7480   -2.5806    0.6198 N   0  0  0  0  0  0  0  0  0  0  0  0
   -0.7581   -1.6845    0.6498 C   0  0  0  0  0  0  0  0  0  0  0  0
   -1.1962   -0.3721    0.3722 C   0  0  0  0  0  0  0  0  0  0  0  0
   -0.6582    0.9155    0.2535 C   0  0  0  0  0  0  0  0  0  0  0  0
    0.7880    1.1814    0.3874 C   0  0  0  0  0  0  0  0  0  0  0  0
    1.1282    2.1606    1.0380 O   0  0  0  0  0  0  0  0  0  0  0  0
    1.6064    0.2962   -0.2888 N   0  0  0  0  0  0  0  0  0  0  0  0
    3.0168    0.2877   -0.3158 C   0  0  0  0  0  0  0  0  0  0  0  0
    3.8169    1.1778    0.4061 C   0  0  0  0  0  0  0  0  0  0  0  0
    5.2120    1.1037    0.3301 C   0  0  0  0  0  0  0  0  0  0  0  0
    5.8089    0.1220   -0.4612 C   0  0  0  0  0  0  0  0  0  0  0  0
    7.5808    0.0371   -0.5600 S   0  0  0  0  0  0  0  0  0  0  0  0
    8.0275   -0.8656    0.8999 C   0  0  0  0  0  0  0  0  0  0  0  0
    8.0886    1.3894   -0.4332 O   0  0  0  0  0  0  0  0  0  0  0  0
    7.9174   -0.7799   -1.7108 O   0  0  0  0  0  0  0  0  0  0  0  0
    5.0267   -0.7673   -1.1975 C   0  0  0  0  0  0  0  0  0  0  0  0
    3.6337   -0.6832   -1.1186 C   0  0  0  0  0  0  0  0  0  0  0  0
   -1.5347    1.9849    0.0312 C   0  0  0  0  0  0  0  0  0  0  0  0
   -2.8977    1.7340   -0.1099 C   0  0  0  0  0  0  0  0  0  0  0  0
   -3.8986    2.7920   -0.3596 C   0  0  0  0  0  0  0  0  0  0  0  0
   -5.2803    2.6942   -0.2756 C   0  0  0  0  0  0  0  0  0  0  0  0
   -5.9525    3.9101   -0.5910 C   0  0  0  0  0  0  0  0  0  0  0  0
   -5.0686    4.9112   -0.9165 C   0  0  0  0  0  0  0  0  0  0  0  0
   -3.4477    4.3811   -0.8429 S   0  0  0  0  0  0  0  0  0  0  0  0
   -3.4471    0.4946   -0.0300 N   0  0  0  0  0  0  0  0  0  0  0  0
   -2.5678   -0.4950    0.2156 C   0  0  0  0  0  0  0  0  0  0  0  0
   -3.9522   -2.9967   -1.8106 H   0  0  0  0  0  0  0  0  0  0  0  0
   -5.2475   -3.8610   -0.9653 H   0  0  0  0  0  0  0  0  0  0  0  0
   -3.5558   -4.3091   -0.6929 H   0  0  0  0  0  0  0  0  0  0  0  0
   -4.8821   -1.6520    0.0664 H   0  0  0  0  0  0  0  0  0  0  0  0
   -3.8992   -3.9184    1.8814 H   0  0  0  0  0  0  0  0  0  0  0  0
   -4.5207   -2.3549    2.4268 H   0  0  0  0  0  0  0  0  0  0  0  0
   -5.5857   -3.4791    1.5660 H   0  0  0  0  0  0  0  0  0  0  0  0
    0.2436   -2.0307    0.8729 H   0  0  0  0  0  0  0  0  0  0  0  0
    1.1552   -0.3863   -0.8858 H   0  0  0  0  0  0  0  0  0  0  0  0
    3.3858    1.9518    1.0345 H   0  0  0  0  0  0  0  0  0  0  0  0
    5.8149    1.8210    0.8836 H   0  0  0  0  0  0  0  0  0  0  0  0
    7.5586   -1.8509    0.8670 H   0  0  0  0  0  0  0  0  0  0  0  0
    7.7002   -0.3087    1.7798 H   0  0  0  0  0  0  0  0  0  0  0  0
    9.1144   -0.9724    0.9125 H   0  0  0  0  0  0  0  0  0  0  0  0
    5.4849   -1.5191   -1.8369 H   0  0  0  0  0  0  0  0  0  0  0  0
    3.0402   -1.3847   -1.7005 H   0  0  0  0  0  0  0  0  0  0  0  0
   -1.1315    2.9917   -0.0249 H   0  0  0  0  0  0  0  0  0  0  0  0
   -5.7869    1.7782    0.0060 H   0  0  0  0  0  0  0  0  0  0  0  0
   -7.0276    4.0404   -0.5803 H   0  0  0  0  0  0  0  0  0  0  0  0
   -5.2961    5.9306   -1.1971 H   0  0  0  0  0  0  0  0  0  0  0  0
  1  2  1  0
  2  3  1  0
  2  4  1  0
  4  5  1  0
  5  6  2  0
  6  7  1  0
  7  8  1  0
  8  9  1  0
  9 10  2  0
  9 11  1  0
 11 12  1  0
 12 13  1  0
 13 14  2  0
 14 15  1  0
 15 16  1  0
 16 17  1  0
 16 18  2  0
 16 19  2  0
 15 20  2  0
 20 21  1  0
  8 22  2  0
 22 23  1  0
 23 24  1  0
 24 25  2  0
 25 26  1  0
 26 27  2  0
 27 28  1  0
 23 29  2  0
 29 30  1  0
 30  4  1  0
 30  7  2  0
 21 12  2  0
 28 24  1  0
  1 31  1  0
  1 32  1  0
  1 33  1  0
  2 34  1  0
  3 35  1  0
  3 36  1  0
  3 37  1  0
  6 38  1  0
 11 39  1  0
 13 40  1  0
 14 41  1  0
 17 42  1  0
 17 43  1  0
 17 44  1  0
 20 45  1  0
 21 46  1  0
 22 47  1  0
 25 48  1  0
 26 49  1  0
 27 50  1  0
M  END
$$$$
OCNT-2314905
     RDKit          3D

 44 46  0  0  0  0  0  0  0  0999 V2000
    3.3682   -0.6797   -2.4115 C   0  0  0  0  0  0  0  0  0  0  0  0
    3.7846   -0.4582   -0.9813 C   0  0  0  0  0  0  0  0  0  0  0  0
    5.1559   -0.5272   -0.6695 C   0  0  0  0  0  0  0  0  0  0  0  0
    5.6216   -0.3358    0.6387 C   0  0  0  0  0  0  0  0  0  0  0  0
    7.0946   -0.4200    0.9231 C   0  0  0  0  0  0  0  0  0  0  0  0
    4.6848   -0.0783    1.6453 C   0  0  0  0  0  0  0  0  0  0  0  0
    5.1722    0.1491    3.2890 Cl  0  0  0  0  0  0  0  0  0  0  0  0
    3.3194   -0.0054    1.3502 C   0  0  0  0  0  0  0  0  0  0  0  0
    2.8544   -0.1798    0.0419 C   0  0  0  0  0  0  0  0  0  0  0  0
    1.4751   -0.1286   -0.2787 N   0  0  0  0  0  0  0  0  0  0  0  0
    0.4581    0.3883    0.4922 C   0  0  0  0  0  0  0  0  0  0  0  0
    0.6365    1.0684    1.5007 O   0  0  0  0  0  0  0  0  0  0  0  0
   -0.8316    0.1062    0.0352 N   0  0  0  0  0  0  0  0  0  0  0  0
   -1.1597   -0.6741   -1.1875 C   0  0  0  0  0  0  0  0  0  0  0  0
   -2.4407   -1.5224   -1.0728 C   0  0  0  0  0  0  0  0  0  0  0  0
   -3.5012   -0.7061   -0.4594 C   0  0  0  0  0  0  0  0  0  0  0  0
   -3.2305    0.3862    0.3234 C   0  0  0  0  0  0  0  0  0  0  0  0
   -1.8932    0.9247    0.6529 C   0  0  0  0  0  0  0  0  0  0  0  0
   -4.4548    0.8528    0.7142 N   0  0  0  0  0  0  0  0  0  0  0  0
   -4.7225    1.9862    1.5658 C   0  0  0  0  0  0  0  0  0  0  0  0
   -5.4080    0.0305    0.1441 C   0  0  0  0  0  0  0  0  0  0  0  0
   -6.8693    0.2127    0.3355 C   0  0  0  0  0  0  0  0  0  0  0  0
   -4.8411   -0.9205   -0.5770 N   0  0  0  0  0  0  0  0  0  0  0  0
    2.6928   -1.5385   -2.4820 H   0  0  0  0  0  0  0  0  0  0  0  0
    4.2284   -0.8872   -3.0571 H   0  0  0  0  0  0  0  0  0  0  0  0
    2.8717    0.2132   -2.8049 H   0  0  0  0  0  0  0  0  0  0  0  0
    5.8739   -0.7351   -1.4621 H   0  0  0  0  0  0  0  0  0  0  0  0
    7.3028   -1.2386    1.6195 H   0  0  0  0  0  0  0  0  0  0  0  0
    7.6694   -0.6116    0.0105 H   0  0  0  0  0  0  0  0  0  0  0  0
    7.4574    0.5229    1.3447 H   0  0  0  0  0  0  0  0  0  0  0  0
    2.6287    0.1761    2.1686 H   0  0  0  0  0  0  0  0  0  0  0  0
    1.2483   -0.2540   -1.2490 H   0  0  0  0  0  0  0  0  0  0  0  0
   -1.2568    0.0561   -2.0008 H   0  0  0  0  0  0  0  0  0  0  0  0
   -0.3406   -1.3504   -1.4474 H   0  0  0  0  0  0  0  0  0  0  0  0
   -2.7402   -1.8880   -2.0602 H   0  0  0  0  0  0  0  0  0  0  0  0
   -2.2487   -2.3926   -0.4342 H   0  0  0  0  0  0  0  0  0  0  0  0
   -1.7505    0.9495    1.7390 H   0  0  0  0  0  0  0  0  0  0  0  0
   -1.7863    1.9443    0.2646 H   0  0  0  0  0  0  0  0  0  0  0  0
   -3.7869    2.4734    1.8483 H   0  0  0  0  0  0  0  0  0  0  0  0
   -5.2366    1.6309    2.4624 H   0  0  0  0  0  0  0  0  0  0  0  0
   -5.3497    2.6927    1.0163 H   0  0  0  0  0  0  0  0  0  0  0  0
   -7.1329    0.1462    1.3954 H   0  0  0  0  0  0  0  0  0  0  0  0
   -7.4249   -0.5635   -0.2001 H   0  0  0  0  0  0  0  0  0  0  0  0
   -7.1919    1.1851   -0.0486 H   0  0  0  0  0  0  0  0  0  0  0  0
  1  2  1  0
  2  3  1  0
  3  4  2  0
  4  5  1  0
  4  6  1  0
  6  7  1  0
  6  8  2  0
  8  9  1  0
  9 10  1  0
 10 11  1  0
 11 12  2  0
 11 13  1  0
 13 14  1  0
 14 15  1  0
 15 16  1  0
 16 17  2  0
 17 18  1  0
 17 19  1  0
 19 20  1  0
 19 21  1  0
 21 22  1  0
 21 23  2  0
  9  2  2  0
 18 13  1  0
 23 16  1  0
  1 24  1  0
  1 25  1  0
  1 26  1  0
  3 27  1  0
  5 28  1  0
  5 29  1  0
  5 30  1  0
  8 31  1  0
 10 32  1  0
 14 33  1  0
 14 34  1  0
 15 35  1  0
 15 36  1  0
 18 37  1  0
 18 38  1  0
 20 39  1  0
 20 40  1  0
 20 41  1  0
 22 42  1  0
 22 43  1  0
 22 44  1  0
M  END
$$$$
OCNT-2314929
     RDKit          3D

 51 52  0  0  0  0  0  0  0  0999 V2000
   -2.0901   -2.5198   -2.4728 C   0  0  0  0  0  0  0  0  0  0  0  0
   -1.3678   -1.2230   -2.2332 C   0  0  0  0  0  0  0  0  0  0  0  0
   -0.0985   -1.0311   -2.7979 C   0  0  0  0  0  0  0  0  0  0  0  0
    0.6003    0.1648   -2.6022 C   0  0  0  0  0  0  0  0  0  0  0  0
    0.0540    1.2012   -1.8414 C   0  0  0  0  0  0  0  0  0  0  0  0
    0.7470    2.4059   -1.6374 N   0  0  0  0  0  0  0  0  0  0  0  0
    2.0447    2.2818   -0.9555 C   0  0  0  0  0  0  0  0  0  0  0  0
    1.9373    2.0244    0.5156 C   0  0  0  0  0  0  0  0  0  0  0  0
    1.4995    2.8810    1.4215 N   0  0  0  0  0  0  0  0  0  0  0  0
    1.5872    2.1822    2.5890 C   0  0  0  0  0  0  0  0  0  0  0  0
    2.0362    0.9334    2.4705 N   0  0  0  0  0  0  0  0  0  0  0  0
    2.2486    0.8429    1.1413 N   0  0  0  0  0  0  0  0  0  0  0  0
    2.6957   -0.4167    0.5831 C   0  0  0  0  0  0  0  0  0  0  0  0
    4.1825   -0.7169    0.8416 C   0  0  0  0  0  0  0  0  0  0  0  0
    4.5069   -2.1440    0.3946 C   0  0  0  0  0  0  0  0  0  0  0  0
    5.1003    0.2753    0.1221 C   0  0  0  0  0  0  0  0  0  0  0  0
   -1.2281    1.0298   -1.3070 C   0  0  0  0  0  0  0  0  0  0  0  0
   -1.9334   -0.1740   -1.4859 C   0  0  0  0  0  0  0  0  0  0  0  0
   -3.2902   -0.2961   -0.8836 C   0  0  0  0  0  0  0  0  0  0  0  0
   -4.2156   -0.7874   -1.5149 O   0  0  0  0  0  0  0  0  0  0  0  0
   -3.3986    0.1618    0.4157 N   0  0  0  0  0  0  0  0  0  0  0  0
   -4.6309    0.0126    1.1770 C   0  0  0  0  0  0  0  0  0  0  0  0
   -4.7453   -1.3975    1.7540 C   0  0  0  0  0  0  0  0  0  0  0  0
   -4.6877    1.0574    2.2862 C   0  0  0  0  0  0  0  0  0  0  0  0
   -2.8870   -2.3787   -3.2114 H   0  0  0  0  0  0  0  0  0  0  0  0
   -2.5134   -2.9098   -1.5394 H   0  0  0  0  0  0  0  0  0  0  0  0
   -1.4066   -3.2884   -2.8551 H   0  0  0  0  0  0  0  0  0  0  0  0
    0.3543   -1.8106   -3.4088 H   0  0  0  0  0  0  0  0  0  0  0  0
    1.5700    0.2885   -3.0799 H   0  0  0  0  0  0  0  0  0  0  0  0
    0.1783    3.0758   -1.1148 H   0  0  0  0  0  0  0  0  0  0  0  0
    2.6970    1.5604   -1.4586 H   0  0  0  0  0  0  0  0  0  0  0  0
    2.5546    3.2468   -1.0737 H   0  0  0  0  0  0  0  0  0  0  0  0
    1.3146    2.5963    3.5522 H   0  0  0  0  0  0  0  0  0  0  0  0
    2.0641   -1.1918    1.0369 H   0  0  0  0  0  0  0  0  0  0  0  0
    2.4785   -0.4244   -0.4878 H   0  0  0  0  0  0  0  0  0  0  0  0
    4.3848   -0.6469    1.9182 H   0  0  0  0  0  0  0  0  0  0  0  0
    3.8794   -2.8691    0.9236 H   0  0  0  0  0  0  0  0  0  0  0  0
    5.5532   -2.3904    0.6081 H   0  0  0  0  0  0  0  0  0  0  0  0
    4.3403   -2.2711   -0.6807 H   0  0  0  0  0  0  0  0  0  0  0  0
    4.9023    0.2889   -0.9550 H   0  0  0  0  0  0  0  0  0  0  0  0
    4.9635    1.2931    0.5070 H   0  0  0  0  0  0  0  0  0  0  0  0
    6.1548    0.0077    0.2699 H   0  0  0  0  0  0  0  0  0  0  0  0
   -1.6916    1.8438   -0.7536 H   0  0  0  0  0  0  0  0  0  0  0  0
   -2.5443    0.3505    0.9264 H   0  0  0  0  0  0  0  0  0  0  0  0
   -5.4737    0.1786    0.4939 H   0  0  0  0  0  0  0  0  0  0  0  0
   -4.7448   -2.1486    0.9566 H   0  0  0  0  0  0  0  0  0  0  0  0
   -3.9028   -1.6248    2.4194 H   0  0  0  0  0  0  0  0  0  0  0  0
   -5.6754   -1.5112    2.3224 H   0  0  0  0  0  0  0  0  0  0  0  0
   -4.6383    2.0694    1.8694 H   0  0  0  0  0  0  0  0  0  0  0  0
   -3.8480    0.9458    2.9821 H   0  0  0  0  0  0  0  0  0  0  0  0
   -5.6183    0.9716    2.8578 H   0  0  0  0  0  0  0  0  0  0  0  0
  1  2  1  0
  2  3  1  0
  3  4  2  0
  4  5  1  0
  5  6  1  0
  6  7  1  0
  7  8  1  0
  8  9  2  0
  9 10  1  0
 10 11  2  0
 11 12  1  0
 12 13  1  0
 13 14  1  0
 14 15  1  0
 14 16  1  0
  5 17  2  0
 17 18  1  0
 18 19  1  0
 19 20  2  0
 19 21  1  0
 21 22  1  0
 22 23  1  0
 22 24  1  0
 18  2  2  0
 12  8  1  0
  1 25  1  0
  1 26  1  0
  1 27  1  0
  3 28  1  0
  4 29  1  0
  6 30  1  0
  7 31  1  0
  7 32  1  0
 10 33  1  0
 13 34  1  0
 13 35  1  0
 14 36  1  0
 15 37  1  0
 15 38  1  0
 15 39  1  0
 16 40  1  0
 16 41  1  0
 16 42  1  0
 17 43  1  0
 21 44  1  0
 22 45  1  0
 23 46  1  0
 23 47  1  0
 23 48  1  0
 24 49  1  0
 24 50  1  0
 24 51  1  0
M  END
$$$$
OCNT-2314937
     RDKit          3D

 41 43  0  0  0  0  0  0  0  0999 V2000
    5.8334   -2.3999   -1.5303 C   0  0  0  0  0  0  0  0  0  0  0  0
    4.5326   -1.6928   -1.2403 C   0  0  0  0  0  0  0  0  0  0  0  0
    3.4606   -2.2640   -1.3988 O   0  0  0  0  0  0  0  0  0  0  0  0
    4.7330   -0.3883   -0.8259 N   0  0  0  0  0  0  0  0  0  0  0  0
    3.7545    0.5604   -0.4608 C   0  0  0  0  0  0  0  0  0  0  0  0
    4.2112    1.8238   -0.0691 C   0  0  0  0  0  0  0  0  0  0  0  0
    3.3105    2.8168    0.3138 C   0  0  0  0  0  0  0  0  0  0  0  0
    1.9412    2.5542    0.3078 C   0  0  0  0  0  0  0  0  0  0  0  0
    1.4493    1.2986   -0.0822 C   0  0  0  0  0  0  0  0  0  0  0  0
    0.0012    1.0221   -0.0865 C   0  0  0  0  0  0  0  0  0  0  0  0
   -0.9004    1.8838   -0.7242 C   0  0  0  0  0  0  0  0  0  0  0  0
   -2.2723    1.6122   -0.7346 C   0  0  0  0  0  0  0  0  0  0  0  0
   -2.7962    0.4697   -0.1020 C   0  0  0  0  0  0  0  0  0  0  0  0
   -1.9013   -0.3730    0.5706 C   0  0  0  0  0  0  0  0  0  0  0  0
   -0.5242   -0.1116    0.5514 C   0  0  0  0  0  0  0  0  0  0  0  0
   -2.2519   -1.5116    1.2488 O   0  0  0  0  0  0  0  0  0  0  0  0
   -3.3933   -1.3488    2.0887 C   0  0  0  0  0  0  0  0  0  0  0  0
   -4.6611   -1.7646    1.3599 C   0  0  0  0  0  0  0  0  0  0  0  0
   -4.7444   -1.2231   -0.0662 C   0  0  0  0  0  0  0  0  0  0  0  0
   -4.2881    0.2301   -0.2081 C   0  0  0  0  0  0  0  0  0  0  0  0
   -4.9918    1.0431    0.7329 O   0  0  0  0  0  0  0  0  0  0  0  0
    2.3784    0.3105   -0.4656 C   0  0  0  0  0  0  0  0  0  0  0  0
    6.5735   -2.1787   -0.7560 H   0  0  0  0  0  0  0  0  0  0  0  0
    5.6661   -3.4808   -1.5414 H   0  0  0  0  0  0  0  0  0  0  0  0
    6.2113   -2.0824   -2.5058 H   0  0  0  0  0  0  0  0  0  0  0  0
    5.6934   -0.0729   -0.7759 H   0  0  0  0  0  0  0  0  0  0  0  0
    5.2732    2.0538   -0.0529 H   0  0  0  0  0  0  0  0  0  0  0  0
    3.6743    3.7936    0.6217 H   0  0  0  0  0  0  0  0  0  0  0  0
    1.2548    3.3365    0.6247 H   0  0  0  0  0  0  0  0  0  0  0  0
   -0.5368    2.7672   -1.2460 H   0  0  0  0  0  0  0  0  0  0  0  0
   -2.9347    2.2957   -1.2641 H   0  0  0  0  0  0  0  0  0  0  0  0
    0.1427   -0.8024    1.0651 H   0  0  0  0  0  0  0  0  0  0  0  0
   -3.4619   -0.3296    2.4912 H   0  0  0  0  0  0  0  0  0  0  0  0
   -3.2528   -2.0017    2.9579 H   0  0  0  0  0  0  0  0  0  0  0  0
   -5.5314   -1.4422    1.9431 H   0  0  0  0  0  0  0  0  0  0  0  0
   -4.7094   -2.8590    1.3066 H   0  0  0  0  0  0  0  0  0  0  0  0
   -4.1644   -1.8639   -0.7430 H   0  0  0  0  0  0  0  0  0  0  0  0
   -5.7922   -1.3027   -0.3836 H   0  0  0  0  0  0  0  0  0  0  0  0
   -4.6054    0.5602   -1.2060 H   0  0  0  0  0  0  0  0  0  0  0  0
   -4.3756    1.7190    1.0624 H   0  0  0  0  0  0  0  0  0  0  0  0
    1.9943   -0.6570   -0.7774 H   0  0  0  0  0  0  0  0  0  0  0  0
  1  2  1  0
  2  3  2  0
  2  4  1  0
  4  5  1  0
  5  6  2  0
  6  7  1  0
  7  8  2  0
  8  9  1  0
  9 10  1  0
 10 11  1  0
 11 12  2  0
 12 13  1  0
 13 14  2  0
 14 15  1  0
 14 16  1  0
 16 17  1  0
 17 18  1  0
 18 19  1  0
 19 20  1  0
 20 21  1  0
  9 22  2  0
 22  5  1  0
 15 10  2  0
 20 13  1  0
  1 23  1  0
  1 24  1  0
  1 25  1  0
  4 26  1  0
  6 27  1  0
  7 28  1  0
  8 29  1  0
 11 30  1  0
 12 31  1  0
 15 32  1  0
 17 33  1  0
 17 34  1  0
 18 35  1  0
 18 36  1  0
 19 37  1  0
 19 38  1  0
 20 39  1  0
 21 40  1  0
 22 41  1  0
M  END
$$$$
OCNT-2314941
     RDKit          3D

 42 45  0  0  0  0  0  0  0  0999 V2000
   -2.0621    0.6238    2.4323 C   0  0  0  0  0  0  0  0  0  0  0  0
   -1.7970    0.5400    0.9112 C   0  0  0  0  0  0  0  0  0  0  0  0
   -2.1485    1.9005    0.2741 C   0  0  0  0  0  0  0  0  0  0  0  0
   -0.2763    0.2548    0.7535 C   0  0  0  0  0  0  0  0  0  0  0  0
    0.0876    0.0355   -0.6409 N   0  0  0  0  0  0  0  0  0  0  0  0
    1.4146    0.1473   -1.0787 C   0  0  0  0  0  0  0  0  0  0  0  0
    1.5761    0.1054   -2.4222 N   0  0  0  0  0  0  0  0  0  0  0  0
    2.8074    0.2692   -2.9229 C   0  0  0  0  0  0  0  0  0  0  0  0
    3.9270    0.4568   -2.2244 N   0  0  0  0  0  0  0  0  0  0  0  0
    3.7760    0.4658   -0.8960 C   0  0  0  0  0  0  0  0  0  0  0  0
    2.5357    0.3135   -0.2569 C   0  0  0  0  0  0  0  0  0  0  0  0
    2.4123    0.3496    1.1137 O   0  0  0  0  0  0  0  0  0  0  0  0
    3.6550    0.3342    1.8311 C   0  0  0  0  0  0  0  0  0  0  0  0
    4.7316    1.1723    1.1437 C   0  0  0  0  0  0  0  0  0  0  0  0
    4.9639    0.6052   -0.1667 N   0  0  0  0  0  0  0  0  0  0  0  0
   -0.6243   -1.0359   -1.3413 C   0  0  0  0  0  0  0  0  0  0  0  0
   -2.0330   -1.2851   -0.8356 C   0  0  0  0  0  0  0  0  0  0  0  0
   -2.7843   -2.2916   -1.4779 C   0  0  0  0  0  0  0  0  0  0  0  0
   -4.0983   -2.5601   -1.1026 C   0  0  0  0  0  0  0  0  0  0  0  0
   -4.6820   -1.8159   -0.0867 C   0  0  0  0  0  0  0  0  0  0  0  0
   -3.9468   -0.8217    0.5549 C   0  0  0  0  0  0  0  0  0  0  0  0
   -4.5726   -0.1119    1.5036 F   0  0  0  0  0  0  0  0  0  0  0  0
   -2.6112   -0.5489    0.2185 C   0  0  0  0  0  0  0  0  0  0  0  0
   -3.0562    1.0185    2.6635 H   0  0  0  0  0  0  0  0  0  0  0  0
   -1.3460    1.2966    2.9194 H   0  0  0  0  0  0  0  0  0  0  0  0
   -1.9704   -0.3599    2.9073 H   0  0  0  0  0  0  0  0  0  0  0  0
   -1.5592    2.7099    0.7199 H   0  0  0  0  0  0  0  0  0  0  0  0
   -3.2074    2.1461    0.4177 H   0  0  0  0  0  0  0  0  0  0  0  0
   -1.9598    1.9070   -0.8057 H   0  0  0  0  0  0  0  0  0  0  0  0
    0.2477    1.1314    1.1534 H   0  0  0  0  0  0  0  0  0  0  0  0
    0.0084   -0.6234    1.3494 H   0  0  0  0  0  0  0  0  0  0  0  0
    2.9003    0.2465   -4.0030 H   0  0  0  0  0  0  0  0  0  0  0  0
    3.4594    0.7310    2.8326 H   0  0  0  0  0  0  0  0  0  0  0  0
    3.9735   -0.7096    1.9437 H   0  0  0  0  0  0  0  0  0  0  0  0
    4.4157    2.2189    1.0527 H   0  0  0  0  0  0  0  0  0  0  0  0
    5.6588    1.1449    1.7247 H   0  0  0  0  0  0  0  0  0  0  0  0
    5.6820    1.0028   -0.7633 H   0  0  0  0  0  0  0  0  0  0  0  0
   -0.0670   -1.9776   -1.2397 H   0  0  0  0  0  0  0  0  0  0  0  0
   -0.7131   -0.7918   -2.4082 H   0  0  0  0  0  0  0  0  0  0  0  0
   -2.3403   -2.8659   -2.2899 H   0  0  0  0  0  0  0  0  0  0  0  0
   -4.6661   -3.3349   -1.6103 H   0  0  0  0  0  0  0  0  0  0  0  0
   -5.7109   -1.9935    0.2099 H   0  0  0  0  0  0  0  0  0  0  0  0
  1  2  1  0
  2  3  1  0
  2  4  1  0
  4  5  1  0
  5  6  1  0
  6  7  2  0
  7  8  1  0
  8  9  2  0
  9 10  1  0
 10 11  2  0
 11 12  1  0
 12 13  1  0
 13 14  1  0
 14 15  1  0
  5 16  1  0
 16 17  1  0
 17 18  2  0
 18 19  1  0
 19 20  2  0
 20 21  1  0
 21 22  1  0
 21 23  2  0
 23  2  1  0
 11  6  1  0
 23 17  1  0
 15 10  1  0
  1 24  1  0
  1 25  1  0
  1 26  1  0
  3 27  1  0
  3 28  1  0
  3 29  1  0
  4 30  1  0
  4 31  1  0
  8 32  1  0
 13 33  1  0
 13 34  1  0
 14 35  1  0
 14 36  1  0
 15 37  1  0
 16 38  1  0
 16 39  1  0
 18 40  1  0
 19 41  1  0
 20 42  1  0
M  END
$$$$
OCNT-2314946
     RDKit          3D

 44 46  0  0  0  0  0  0  0  0999 V2000
   -7.4786    0.5180   -1.8249 C   0  0  0  0  0  0  0  0  0  0  0  0
   -6.1873    0.3962   -1.0702 C   0  0  0  0  0  0  0  0  0  0  0  0
   -5.6884    1.4829   -0.3420 C   0  0  0  0  0  0  0  0  0  0  0  0
   -4.4725    1.3799    0.3379 C   0  0  0  0  0  0  0  0  0  0  0  0
   -3.7308    0.1948    0.2804 C   0  0  0  0  0  0  0  0  0  0  0  0
   -2.4390    0.1311    1.0183 C   0  0  0  0  0  0  0  0  0  0  0  0
   -2.2491    0.8441    1.9973 O   0  0  0  0  0  0  0  0  0  0  0  0
   -1.4864   -0.7330    0.5118 N   0  0  0  0  0  0  0  0  0  0  0  0
   -0.1387   -0.7696    1.0653 C   0  0  0  0  0  0  0  0  0  0  0  0
    0.7133    0.3765    0.5116 C   0  0  0  0  0  0  0  0  0  0  0  0
    2.1338    0.3029    1.0565 C   0  0  0  0  0  0  0  0  0  0  0  0
    2.7380   -1.0118    0.8159 N   0  0  0  0  0  0  0  0  0  0  0  0
    4.1407   -1.1877    0.7468 C   0  0  0  0  0  0  0  0  0  0  0  0
    4.6417   -2.2374    1.1633 O   0  0  0  0  0  0  0  0  0  0  0  0
    4.9539   -0.1334    0.1483 C   0  0  0  0  0  0  0  0  0  0  0  0
    4.5226    0.7500   -0.7310 N   0  0  0  0  0  0  0  0  0  0  0  0
    5.5213    1.6100   -1.1415 N   0  0  0  0  0  0  0  0  0  0  0  0
    6.6797    1.3249   -0.5854 C   0  0  0  0  0  0  0  0  0  0  0  0
    7.9467    2.0563   -0.8354 C   0  0  0  0  0  0  0  0  0  0  0  0
    6.6319   -0.0081    0.4962 S   0  0  0  0  0  0  0  0  0  0  0  0
    1.9542   -2.1467    1.2973 C   0  0  0  0  0  0  0  0  0  0  0  0
    0.5260   -2.1131    0.7657 C   0  0  0  0  0  0  0  0  0  0  0  0
   -4.2258   -0.8953   -0.4452 C   0  0  0  0  0  0  0  0  0  0  0  0
   -5.4437   -0.7894   -1.1236 C   0  0  0  0  0  0  0  0  0  0  0  0
   -7.9852   -0.4506   -1.8910 H   0  0  0  0  0  0  0  0  0  0  0  0
   -8.1627    1.2081   -1.3200 H   0  0  0  0  0  0  0  0  0  0  0  0
   -7.2865    0.8869   -2.8371 H   0  0  0  0  0  0  0  0  0  0  0  0
   -6.2451    2.4165   -0.2944 H   0  0  0  0  0  0  0  0  0  0  0  0
   -4.1020    2.2288    0.9093 H   0  0  0  0  0  0  0  0  0  0  0  0
   -1.6111   -1.0672   -0.4350 H   0  0  0  0  0  0  0  0  0  0  0  0
   -0.2228   -0.6524    2.1538 H   0  0  0  0  0  0  0  0  0  0  0  0
    0.2707    1.3454    0.7706 H   0  0  0  0  0  0  0  0  0  0  0  0
    0.7376    0.3242   -0.5848 H   0  0  0  0  0  0  0  0  0  0  0  0
    2.1312    0.4561    2.1434 H   0  0  0  0  0  0  0  0  0  0  0  0
    2.7240    1.1181    0.6403 H   0  0  0  0  0  0  0  0  0  0  0  0
    8.7061    1.3884   -1.2542 H   0  0  0  0  0  0  0  0  0  0  0  0
    7.7845    2.8707   -1.5487 H   0  0  0  0  0  0  0  0  0  0  0  0
    8.3342    2.4924    0.0907 H   0  0  0  0  0  0  0  0  0  0  0  0
    2.4248   -3.0872    0.9897 H   0  0  0  0  0  0  0  0  0  0  0  0
    1.9632   -2.1181    2.3938 H   0  0  0  0  0  0  0  0  0  0  0  0
   -0.0542   -2.9316    1.2081 H   0  0  0  0  0  0  0  0  0  0  0  0
    0.5375   -2.2865   -0.3187 H   0  0  0  0  0  0  0  0  0  0  0  0
   -3.6922   -1.8408   -0.4730 H   0  0  0  0  0  0  0  0  0  0  0  0
   -5.8154   -1.6433   -1.6867 H   0  0  0  0  0  0  0  0  0  0  0  0
  1  2  1  0
  2  3  1  0
  3  4  2  0
  4  5  1  0
  5  6  1  0
  6  7  2  0
  6  8  1  0
  8  9  1  0
  9 10  1  0
 10 11  1  0
 11 12  1  0
 12 13  1  0
 13 14  2  0
 13 15  1  0
 15 16  2  0
 16 17  1  0
 17 18  2  0
 18 19  1  0
 18 20  1  0
 12 21  1  0
 21 22  1  0
  5 23  2  0
 23 24  1  0
 24  2  2  0
 22  9  1  0
 20 15  1  0
  1 25  1  0
  1 26  1  0
  1 27  1  0
  3 28  1  0
  4 29  1  0
  8 30  1  0
  9 31  1  0
 10 32  1  0
 10 33  1  0
 11 34  1  0
 11 35  1  0
 19 36  1  0
 19 37  1  0
 19 38  1  0
 21 39  1  0
 21 40  1  0
 22 41  1  0
 22 42  1  0
 23 43  1  0
 24 44  1  0
M  END
$$$$
OCNT-2314951
     RDKit          3D

 37 38  0  0  0  0  0  0  0  0999 V2000
   -5.8846   -0.5234    0.2164 C   0  0  0  0  0  0  0  0  0  0  0  0
   -4.8556    0.4412    0.0499 O   0  0  0  0  0  0  0  0  0  0  0  0
   -3.5568    0.0283    0.2172 C   0  0  0  0  0  0  0  0  0  0  0  0
   -3.1763   -1.2834    0.5149 C   0  0  0  0  0  0  0  0  0  0  0  0
   -1.8246   -1.6154    0.6671 C   0  0  0  0  0  0  0  0  0  0  0  0
   -1.4205   -3.4329    1.0520 Br  0  0  0  0  0  0  0  0  0  0  0  0
   -0.8285   -0.6390    0.5319 C   0  0  0  0  0  0  0  0  0  0  0  0
    0.6504   -0.9286    0.6650 C   0  0  0  0  0  0  0  0  0  0  0  0
    1.2755   -1.3417   -0.6726 C   0  0  0  0  0  0  0  0  0  0  0  0
    2.6994   -1.6361   -0.5415 N   0  0  0  0  0  0  0  0  0  0  0  0
    3.6654   -0.6474   -0.3191 C   0  0  0  0  0  0  0  0  0  0  0  0
    3.4998    0.7200   -0.5692 C   0  0  0  0  0  0  0  0  0  0  0  0
    2.3249    1.2249   -0.9747 F   0  0  0  0  0  0  0  0  0  0  0  0
    4.5636    1.5965   -0.3804 C   0  0  0  0  0  0  0  0  0  0  0  0
    5.7976    1.2194    0.0273 N   0  0  0  0  0  0  0  0  0  0  0  0
    5.9626   -0.1048    0.2415 C   0  0  0  0  0  0  0  0  0  0  0  0
    4.9527   -1.0432    0.0762 C   0  0  0  0  0  0  0  0  0  0  0  0
    5.2110   -2.3391    0.3151 F   0  0  0  0  0  0  0  0  0  0  0  0
   -1.2202    0.6778    0.2220 C   0  0  0  0  0  0  0  0  0  0  0  0
   -2.5690    1.0190    0.0652 C   0  0  0  0  0  0  0  0  0  0  0  0
   -3.0206    2.2801   -0.2341 O   0  0  0  0  0  0  0  0  0  0  0  0
   -2.0534    3.3021   -0.4273 C   0  0  0  0  0  0  0  0  0  0  0  0
   -6.8436   -0.0197    0.0613 H   0  0  0  0  0  0  0  0  0  0  0  0
   -5.8842   -0.9309    1.2327 H   0  0  0  0  0  0  0  0  0  0  0  0
   -5.8034   -1.3198   -0.5306 H   0  0  0  0  0  0  0  0  0  0  0  0
   -3.9183   -2.0664    0.6298 H   0  0  0  0  0  0  0  0  0  0  0  0
    1.1501   -0.0346    1.0597 H   0  0  0  0  0  0  0  0  0  0  0  0
    0.8310   -1.6946    1.4279 H   0  0  0  0  0  0  0  0  0  0  0  0
    0.7877   -2.2550   -1.0344 H   0  0  0  0  0  0  0  0  0  0  0  0
    1.0970   -0.5954   -1.4545 H   0  0  0  0  0  0  0  0  0  0  0  0
    2.9051   -2.5068   -0.0513 H   0  0  0  0  0  0  0  0  0  0  0  0
    4.4353    2.6588   -0.5643 H   0  0  0  0  0  0  0  0  0  0  0  0
    6.9541   -0.4135    0.5571 H   0  0  0  0  0  0  0  0  0  0  0  0
   -0.4428    1.4280    0.1048 H   0  0  0  0  0  0  0  0  0  0  0  0
   -2.5871    4.2261   -0.6696 H   0  0  0  0  0  0  0  0  0  0  0  0
   -1.3941    3.0688   -1.2698 H   0  0  0  0  0  0  0  0  0  0  0  0
   -1.4797    3.4806    0.4881 H   0  0  0  0  0  0  0  0  0  0  0  0
  1  2  1  0
  2  3  1  0
  3  4  1  0
  4  5  2  0
  5  6  1  0
  5  7  1  0
  7  8  1  0
  8  9  1  0
  9 10  1  0
 10 11  1  0
 11 12  2  0
 12 13  1  0
 12 14  1  0
 14 15  2  0
 15 16  1  0
 16 17  2  0
 17 18  1  0
  7 19  2  0
 19 20  1  0
 20 21  1  0
 21 22  1  0
 20  3  2  0
 17 11  1  0
  1 23  1  0
  1 24  1  0
  1 25  1  0
  4 26  1  0
  8 27  1  0
  8 28  1  0
  9 29  1  0
  9 30  1  0
 10 31  1  0
 14 32  1  0
 16 33  1  0
 19 34  1  0
 22 35  1  0
 22 36  1  0
 22 37  1  0
M  END
$$$$
OCNT-2314966
     RDKit          3D

 42 45  0  0  0  0  0  0  0  0999 V2000
    0.3822    1.6446    1.9854 O   0  0  0  0  0  0  0  0  0  0  0  0
   -0.0918    1.1185    0.9707 C   0  0  0  0  0  0  0  0  0  0  0  0
    0.4750    1.4904   -0.3968 C   0  0  0  0  0  0  0  0  0  0  0  0
    1.9777    1.3049   -0.4638 C   0  0  0  0  0  0  0  0  0  0  0  0
    2.8150    2.4250   -0.3093 C   0  0  0  0  0  0  0  0  0  0  0  0
    4.1970    2.2839   -0.3482 C   0  0  0  0  0  0  0  0  0  0  0  0
    4.7523    1.0233   -0.5360 C   0  0  0  0  0  0  0  0  0  0  0  0
    3.9258   -0.1025   -0.6810 C   0  0  0  0  0  0  0  0  0  0  0  0
    4.4752   -1.3784   -0.8633 C   0  0  0  0  0  0  0  0  0  0  0  0
    3.6414   -2.4788   -1.0015 C   0  0  0  0  0  0  0  0  0  0  0  0
    2.2794   -2.2638   -0.9542 C   0  0  0  0  0  0  0  0  0  0  0  0
    1.7121   -1.0494   -0.7825 N   0  0  0  0  0  0  0  0  0  0  0  0
    2.5181    0.0256   -0.6438 C   0  0  0  0  0  0  0  0  0  0  0  0
   -1.1580    0.2295    1.0566 N   0  0  0  0  0  0  0  0  0  0  0  0
   -1.7075   -0.0477    2.3835 C   0  0  0  0  0  0  0  0  0  0  0  0
   -3.1862   -0.4131    2.3368 C   0  0  0  0  0  0  0  0  0  0  0  0
   -3.4602   -1.6160    1.4366 C   0  0  0  0  0  0  0  0  0  0  0  0
   -2.3527   -1.8553    0.4100 C   0  0  0  0  0  0  0  0  0  0  0  0
   -1.6933   -0.5542   -0.0793 C   0  0  0  0  0  0  0  0  0  0  0  0
   -2.6296    0.2823   -0.9196 C   0  0  0  0  0  0  0  0  0  0  0  0
   -3.1508   -0.1727   -2.0726 N   0  0  0  0  0  0  0  0  0  0  0  0
   -3.9229    0.8992   -2.5237 O   0  0  0  0  0  0  0  0  0  0  0  0
   -3.7768    1.8875   -1.6058 C   0  0  0  0  0  0  0  0  0  0  0  0
   -2.9940    1.5739   -0.6046 N   0  0  0  0  0  0  0  0  0  0  0  0
    0.2182    2.5450   -0.5643 H   0  0  0  0  0  0  0  0  0  0  0  0
    0.0166    0.9596   -1.2317 H   0  0  0  0  0  0  0  0  0  0  0  0
    2.3850    3.4102   -0.1420 H   0  0  0  0  0  0  0  0  0  0  0  0
    4.8380    3.1524   -0.2232 H   0  0  0  0  0  0  0  0  0  0  0  0
    5.8347    0.9219   -0.5608 H   0  0  0  0  0  0  0  0  0  0  0  0
    5.5525   -1.5190   -0.8955 H   0  0  0  0  0  0  0  0  0  0  0  0
    4.0445   -3.4749   -1.1413 H   0  0  0  0  0  0  0  0  0  0  0  0
    1.5804   -3.0889   -1.0571 H   0  0  0  0  0  0  0  0  0  0  0  0
   -1.1221   -0.8696    2.8135 H   0  0  0  0  0  0  0  0  0  0  0  0
   -1.5733    0.8216    3.0370 H   0  0  0  0  0  0  0  0  0  0  0  0
   -3.5587   -0.6155    3.3476 H   0  0  0  0  0  0  0  0  0  0  0  0
   -3.7559    0.4480    1.9652 H   0  0  0  0  0  0  0  0  0  0  0  0
   -4.4207   -1.4687    0.9278 H   0  0  0  0  0  0  0  0  0  0  0  0
   -3.5762   -2.5201    2.0472 H   0  0  0  0  0  0  0  0  0  0  0  0
   -1.5793   -2.4792    0.8787 H   0  0  0  0  0  0  0  0  0  0  0  0
   -2.7495   -2.4417   -0.4276 H   0  0  0  0  0  0  0  0  0  0  0  0
   -0.8545   -0.8467   -0.7172 H   0  0  0  0  0  0  0  0  0  0  0  0
   -4.3072    2.8086   -1.7918 H   0  0  0  0  0  0  0  0  0  0  0  0
  1  2  2  0
  2  3  1  0
  3  4  1  0
  4  5  1  0
  5  6  2  0
  6  7  1  0
  7  8  2  0
  8  9  1  0
  9 10  2  0
 10 11  1  0
 11 12  2  0
 12 13  1  0
  2 14  1  0
 14 15  1  0
 15 16  1  0
 16 17  1  0
 17 18  1  0
 18 19  1  0
 19 20  1  0
 20 21  2  0
 21 22  1  0
 22 23  1  0
 23 24  2  0
 13  4  2  0
 19 14  1  0
 24 20  1  0
 13  8  1  0
  3 25  1  0
  3 26  1  0
  5 27  1  0
  6 28  1  0
  7 29  1  0
  9 30  1  0
 10 31  1  0
 11 32  1  0
 15 33  1  0
 15 34  1  0
 16 35  1  0
 16 36  1  0
 17 37  1  0
 17 38  1  0
 18 39  1  0
 18 40  1  0
 19 41  1  0
 23 42  1  0
M  END
$$$$
OCNT-2314968
     RDKit          3D

 53 56  0  0  0  0  0  0  0  0999 V2000
   -6.1309    1.2540   -1.7452 C   0  0  0  0  0  0  0  0  0  0  0  0
   -5.5846    0.9355   -0.3511 C   0  0  0  0  0  0  0  0  0  0  0  0
   -6.7072    0.9707    0.6818 C   0  0  0  0  0  0  0  0  0  0  0  0
   -4.4683    1.9133    0.0437 C   0  0  0  0  0  0  0  0  0  0  0  0
   -3.3714    1.8491   -0.8666 O   0  0  0  0  0  0  0  0  0  0  0  0
   -2.3849    0.9323   -0.6447 C   0  0  0  0  0  0  0  0  0  0  0  0
   -1.3394    0.9729   -1.5664 C   0  0  0  0  0  0  0  0  0  0  0  0
   -0.2526    0.0975   -1.4584 C   0  0  0  0  0  0  0  0  0  0  0  0
   -0.1592   -0.8507   -0.4214 C   0  0  0  0  0  0  0  0  0  0  0  0
    1.1015   -1.8513   -0.2551 C   0  0  0  0  0  0  0  0  0  0  0  0
    1.9818   -1.3383    0.9742 C   0  0  0  0  0  0  0  0  0  0  0  0
    1.8537   -1.7009    2.1519 O   0  0  0  0  0  0  0  0  0  0  0  0
    2.9919   -0.4350    0.6077 N   0  0  0  0  0  0  0  0  0  0  0  0
    2.6025    0.9919    0.7284 C   0  0  0  0  0  0  0  0  0  0  0  0
    3.5504    1.9303   -0.0469 C   0  0  0  0  0  0  0  0  0  0  0  0
    4.9429    1.4654    0.1710 C   0  0  0  0  0  0  0  0  0  0  0  0
    5.2976    0.2462    0.7081 C   0  0  0  0  0  0  0  0  0  0  0  0
    6.7021    0.2439    0.6669 C   0  0  0  0  0  0  0  0  0  0  0  0
    7.1910    1.3743    0.1460 N   0  0  0  0  0  0  0  0  0  0  0  0
    6.0968    2.1056   -0.1445 N   0  0  0  0  0  0  0  0  0  0  0  0
    4.3126   -0.7510    1.1929 C   0  0  0  0  0  0  0  0  0  0  0  0
    0.7335   -3.3897   -0.1854 C   0  0  0  0  0  0  0  0  0  0  0  0
    0.9569   -3.4569   -1.7041 C   0  0  0  0  0  0  0  0  0  0  0  0
    1.9163   -2.2626   -1.5438 C   0  0  0  0  0  0  0  0  0  0  0  0
   -1.2359   -0.8695    0.4910 C   0  0  0  0  0  0  0  0  0  0  0  0
   -2.3323   -0.0017    0.3831 C   0  0  0  0  0  0  0  0  0  0  0  0
   -6.5082    2.2767   -1.7974 H   0  0  0  0  0  0  0  0  0  0  0  0
   -5.3576    1.1394   -2.5080 H   0  0  0  0  0  0  0  0  0  0  0  0
   -6.9502    0.5798   -2.0061 H   0  0  0  0  0  0  0  0  0  0  0  0
   -5.1799   -0.0814   -0.3868 H   0  0  0  0  0  0  0  0  0  0  0  0
   -7.1485    1.9701    0.7543 H   0  0  0  0  0  0  0  0  0  0  0  0
   -6.3318    0.6926    1.6721 H   0  0  0  0  0  0  0  0  0  0  0  0
   -7.5036    0.2681    0.4165 H   0  0  0  0  0  0  0  0  0  0  0  0
   -4.8531    2.9374   -0.0147 H   0  0  0  0  0  0  0  0  0  0  0  0
   -4.1458    1.7859    1.0842 H   0  0  0  0  0  0  0  0  0  0  0  0
   -1.3654    1.6969   -2.3782 H   0  0  0  0  0  0  0  0  0  0  0  0
    0.5461    0.1797   -2.1959 H   0  0  0  0  0  0  0  0  0  0  0  0
    2.6081    1.2484    1.8045 H   0  0  0  0  0  0  0  0  0  0  0  0
    1.5724    1.1390    0.3807 H   0  0  0  0  0  0  0  0  0  0  0  0
    3.3199    1.8761   -1.1212 H   0  0  0  0  0  0  0  0  0  0  0  0
    3.4086    2.9643    0.2849 H   0  0  0  0  0  0  0  0  0  0  0  0
    7.3901   -0.5292    0.9860 H   0  0  0  0  0  0  0  0  0  0  0  0
    6.2210    3.0197   -0.5713 H   0  0  0  0  0  0  0  0  0  0  0  0
    4.2453   -0.7240    2.2893 H   0  0  0  0  0  0  0  0  0  0  0  0
    4.5898   -1.7668    0.8844 H   0  0  0  0  0  0  0  0  0  0  0  0
    1.4431   -3.9947    0.3895 H   0  0  0  0  0  0  0  0  0  0  0  0
   -0.2762   -3.6432    0.1423 H   0  0  0  0  0  0  0  0  0  0  0  0
    0.0618   -3.2290   -2.2955 H   0  0  0  0  0  0  0  0  0  0  0  0
    1.3990   -4.3842   -2.0784 H   0  0  0  0  0  0  0  0  0  0  0  0
    2.9531   -2.5652   -1.3379 H   0  0  0  0  0  0  0  0  0  0  0  0
    1.9318   -1.5611   -2.3826 H   0  0  0  0  0  0  0  0  0  0  0  0
   -1.2150   -1.5788    1.3190 H   0  0  0  0  0  0  0  0  0  0  0  0
   -3.1198   -0.0917    1.1238 H   0  0  0  0  0  0  0  0  0  0  0  0
  1  2  1  0
  2  3  1  0
  2  4  1  0
  4  5  1  0
  5  6  1  0
  6  7  1  0
  7  8  2  0
  8  9  1  0
  9 10  1  0
 10 11  1  0
 11 12  2  0
 11 13  1  0
 13 14  1  0
 14 15  1  0
 15 16  1  0
 16 17  2  0
 17 18  1  0
 18 19  2  0
 19 20  1  0
 17 21  1  0
 10 22  1  0
 22 23  1  0
 23 24  1  0
  9 25  2  0
 25 26  1  0
 26  6  2  0
 24 10  1  0
 21 13  1  0
 20 16  1  0
  1 27  1  0
  1 28  1  0
  1 29  1  0
  2 30  1  0
  3 31  1  0
  3 32  1  0
  3 33  1  0
  4 34  1  0
  4 35  1  0
  7 36  1  0
  8 37  1  0
 14 38  1  0
 14 39  1  0
 15 40  1  0
 15 41  1  0
 18 42  1  0
 20 43  1  0
 21 44  1  0
 21 45  1  0
 22 46  1  0
 22 47  1  0
 23 48  1  0
 23 49  1  0
 24 50  1  0
 24 51  1  0
 25 52  1  0
 26 53  1  0
M  END
$$$$
OCNT-2314977
     RDKit          3D

 39 42  0  0  0  0  0  0  0  0999 V2000
    7.0825   -0.2557   -1.3483 C   0  0  0  0  0  0  0  0  0  0  0  0
    5.8543   -0.7936   -0.8755 O   0  0  0  0  0  0  0  0  0  0  0  0
    4.9045    0.0992   -0.4601 C   0  0  0  0  0  0  0  0  0  0  0  0
    5.0311    1.4869   -0.4587 C   0  0  0  0  0  0  0  0  0  0  0  0
    3.9777    2.2820   -0.0053 C   0  0  0  0  0  0  0  0  0  0  0  0
    2.7949    1.6931    0.4483 C   0  0  0  0  0  0  0  0  0  0  0  0
    2.6449    0.2994    0.4563 C   0  0  0  0  0  0  0  0  0  0  0  0
    1.4063   -0.3079    0.9324 C   0  0  0  0  0  0  0  0  0  0  0  0
    0.2316    0.1710    1.4644 C   0  0  0  0  0  0  0  0  0  0  0  0
   -0.5594   -0.9802    1.6979 C   0  0  0  0  0  0  0  0  0  0  0  0
   -1.9380   -1.0500    2.2654 C   0  0  0  0  0  0  0  0  0  0  0  0
   -2.9075   -0.7505    1.2334 N   0  0  0  0  0  0  0  0  0  0  0  0
   -3.6411   -1.6966    0.5743 C   0  0  0  0  0  0  0  0  0  0  0  0
   -3.6701   -2.9014    0.7300 O   0  0  0  0  0  0  0  0  0  0  0  0
   -4.4734   -0.9763   -0.3883 C   0  0  0  0  0  0  0  0  0  0  0  0
   -5.3864   -1.4472   -1.3111 C   0  0  0  0  0  0  0  0  0  0  0  0
   -6.0440   -0.4977   -2.1000 C   0  0  0  0  0  0  0  0  0  0  0  0
   -5.7780    0.8795   -1.9478 C   0  0  0  0  0  0  0  0  0  0  0  0
   -4.8498    1.3313   -1.0042 C   0  0  0  0  0  0  0  0  0  0  0  0
   -4.2132    0.3741   -0.2389 C   0  0  0  0  0  0  0  0  0  0  0  0
   -3.2113    0.5148    0.8157 C   0  0  0  0  0  0  0  0  0  0  0  0
   -2.7710    1.5780    1.2100 O   0  0  0  0  0  0  0  0  0  0  0  0
    0.0942   -2.0917    1.3393 N   0  0  0  0  0  0  0  0  0  0  0  0
    1.3208   -1.6683    0.8608 O   0  0  0  0  0  0  0  0  0  0  0  0
    3.7156   -0.4833   -0.0041 C   0  0  0  0  0  0  0  0  0  0  0  0
    6.9255    0.3659   -2.2360 H   0  0  0  0  0  0  0  0  0  0  0  0
    7.5984    0.3026   -0.5601 H   0  0  0  0  0  0  0  0  0  0  0  0
    7.7248   -1.0930   -1.6378 H   0  0  0  0  0  0  0  0  0  0  0  0
    5.9334    1.9808   -0.8030 H   0  0  0  0  0  0  0  0  0  0  0  0
    4.0774    3.3648   -0.0053 H   0  0  0  0  0  0  0  0  0  0  0  0
    1.9931    2.3419    0.7929 H   0  0  0  0  0  0  0  0  0  0  0  0
   -0.0341    1.2009    1.6525 H   0  0  0  0  0  0  0  0  0  0  0  0
   -2.1377   -2.0433    2.6824 H   0  0  0  0  0  0  0  0  0  0  0  0
   -2.0425   -0.3120    3.0690 H   0  0  0  0  0  0  0  0  0  0  0  0
   -5.5812   -2.5097   -1.4168 H   0  0  0  0  0  0  0  0  0  0  0  0
   -6.7709   -0.8242   -2.8420 H   0  0  0  0  0  0  0  0  0  0  0  0
   -6.3035    1.5982   -2.5747 H   0  0  0  0  0  0  0  0  0  0  0  0
   -4.6363    2.3875   -0.8767 H   0  0  0  0  0  0  0  0  0  0  0  0
    3.6385   -1.5693   -0.0135 H   0  0  0  0  0  0  0  0  0  0  0  0
  1  2  1  0
  2  3  1  0
  3  4  1  0
  4  5  2  0
  5  6  1  0
  6  7  2  0
  7  8  1  0
  8  9  2  0
  9 10  1  0
 10 11  1  0
 11 12  1  0
 12 13  1  0
 13 14  2  0
 13 15  1  0
 15 16  2  0
 16 17  1  0
 17 18  2  0
 18 19  1  0
 19 20  2  0
 20 21  1  0
 21 22  2  0
 10 23  2  0
 23 24  1  0
  7 25  1  0
 25  3  2  0
 24  8  1  0
 21 12  1  0
 20 15  1  0
  1 26  1  0
  1 27  1  0
  1 28  1  0
  4 29  1  0
  5 30  1  0
  6 31  1  0
  9 32  1  0
 11 33  1  0
 11 34  1  0
 16 35  1  0
 17 36  1  0
 18 37  1  0
 19 38  1  0
 25 39  1  0
M  END
$$$$
OCNT-2314998
     RDKit          3D

 43 46  0  0  0  0  0  0  0  0999 V2000
   -2.5339    0.5982    3.2669 C   0  0  0  0  0  0  0  0  0  0  0  0
   -2.2503    0.1676    1.9221 N   0  0  0  0  0  0  0  0  0  0  0  0
   -2.3266   -1.1546    1.5471 C   0  0  0  0  0  0  0  0  0  0  0  0
   -2.6390   -2.0546    2.3241 O   0  0  0  0  0  0  0  0  0  0  0  0
   -2.0971   -1.4405    0.0511 C   0  0  0  0  0  0  0  0  0  0  0  0
   -3.4678   -1.5259   -0.6449 C   0  0  0  0  0  0  0  0  0  0  0  0
   -3.4799   -0.2728   -1.4628 C   0  0  0  0  0  0  0  0  0  0  0  0
   -4.5390    0.2315   -2.2029 C   0  0  0  0  0  0  0  0  0  0  0  0
   -4.3302    1.3887   -2.9530 C   0  0  0  0  0  0  0  0  0  0  0  0
   -3.0747    2.0125   -2.9610 C   0  0  0  0  0  0  0  0  0  0  0  0
   -2.0125    1.4903   -2.2156 C   0  0  0  0  0  0  0  0  0  0  0  0
   -2.2295    0.3481   -1.4640 C   0  0  0  0  0  0  0  0  0  0  0  0
   -1.3369   -0.3541   -0.6265 N   0  0  0  0  0  0  0  0  0  0  0  0
    0.0280   -0.1031   -0.5074 C   0  0  0  0  0  0  0  0  0  0  0  0
    0.5922    0.8346   -1.0746 O   0  0  0  0  0  0  0  0  0  0  0  0
    0.8007   -1.0699    0.4034 C   0  0  0  0  0  0  0  0  0  0  0  0
    2.2056   -0.7574    0.4317 N   0  0  0  0  0  0  0  0  0  0  0  0
    3.1350   -1.3354   -0.4144 N   0  0  0  0  0  0  0  0  0  0  0  0
    4.2314   -0.7007   -0.1302 C   0  0  0  0  0  0  0  0  0  0  0  0
    5.5683   -0.8974   -0.7293 C   0  0  0  0  0  0  0  0  0  0  0  0
    6.5747   -0.1267   -0.2820 C   0  0  0  0  0  0  0  0  0  0  0  0
    6.3630    0.8697    0.7538 C   0  0  0  0  0  0  0  0  0  0  0  0
    5.1412    1.0335    1.2841 C   0  0  0  0  0  0  0  0  0  0  0  0
    4.1155    0.2500    0.8346 N   0  0  0  0  0  0  0  0  0  0  0  0
    2.7961    0.2428    1.2182 C   0  0  0  0  0  0  0  0  0  0  0  0
    2.2468    0.9361    2.0614 O   0  0  0  0  0  0  0  0  0  0  0  0
   -2.0524    1.5649    3.4308 H   0  0  0  0  0  0  0  0  0  0  0  0
   -3.6164    0.7008    3.3776 H   0  0  0  0  0  0  0  0  0  0  0  0
   -2.1607   -0.1326    3.9891 H   0  0  0  0  0  0  0  0  0  0  0  0
   -2.1468    0.8730    1.1988 H   0  0  0  0  0  0  0  0  0  0  0  0
   -1.5450   -2.3827   -0.0303 H   0  0  0  0  0  0  0  0  0  0  0  0
   -4.3111   -1.5641    0.0515 H   0  0  0  0  0  0  0  0  0  0  0  0
   -3.5044   -2.3946   -1.3113 H   0  0  0  0  0  0  0  0  0  0  0  0
   -5.5060   -0.2620   -2.2096 H   0  0  0  0  0  0  0  0  0  0  0  0
   -5.1424    1.8066   -3.5433 H   0  0  0  0  0  0  0  0  0  0  0  0
   -2.9221    2.9107   -3.5553 H   0  0  0  0  0  0  0  0  0  0  0  0
   -1.0513    1.9925   -2.2387 H   0  0  0  0  0  0  0  0  0  0  0  0
    0.6879   -2.0959    0.0424 H   0  0  0  0  0  0  0  0  0  0  0  0
    0.4176   -0.9824    1.4234 H   0  0  0  0  0  0  0  0  0  0  0  0
    5.6802   -1.6471   -1.5000 H   0  0  0  0  0  0  0  0  0  0  0  0
    7.5754   -0.2295   -0.6905 H   0  0  0  0  0  0  0  0  0  0  0  0
    7.2051    1.4717    1.0794 H   0  0  0  0  0  0  0  0  0  0  0  0
    4.9112    1.7600    2.0560 H   0  0  0  0  0  0  0  0  0  0  0  0
  1  2  1  0
  2  3  1  0
  3  4  2  0
  3  5  1  0
  5  6  1  0
  6  7  1  0
  7  8  2  0
  8  9  1  0
  9 10  2  0
 10 11  1  0
 11 12  2  0
 12 13  1  0
 13 14  1  0
 14 15  2  0
 14 16  1  0
 16 17  1  0
 17 18  1  0
 18 19  2  0
 19 20  1  0
 20 21  2  0
 21 22  1  0
 22 23  2  0
 23 24  1  0
 24 25  1  0
 25 26  2  0
 13  5  1  0
 25 17  1  0
 12  7  1  0
 24 19  1  0
  1 27  1  0
  1 28  1  0
  1 29  1  0
  2 30  1  0
  5 31  1  0
  6 32  1  0
  6 33  1  0
  8 34  1  0
  9 35  1  0
 10 36  1  0
 11 37  1  0
 16 38  1  0
 16 39  1  0
 20 40  1  0
 21 41  1  0
 22 42  1  0
 23 43  1  0
M  END
$$$$
OCNT-2315001
     RDKit          3D

 38 40  0  0  0  0  0  0  0  0999 V2000
   -2.8359   -0.1362   -2.2228 C   0  0  0  0  0  0  0  0  0  0  0  0
   -2.2283    0.7949   -1.1689 C   0  0  0  0  0  0  0  0  0  0  0  0
   -0.8866    0.3764   -0.7973 N   0  0  0  0  0  0  0  0  0  0  0  0
    0.1903    0.5769   -1.6206 C   0  0  0  0  0  0  0  0  0  0  0  0
    0.1247    1.0986   -2.7269 O   0  0  0  0  0  0  0  0  0  0  0  0
    1.5006    0.1827   -1.0446 C   0  0  0  0  0  0  0  0  0  0  0  0
    1.6448   -0.9089   -0.2809 C   0  0  0  0  0  0  0  0  0  0  0  0
    2.9880   -1.2167    0.1940 C   0  0  0  0  0  0  0  0  0  0  0  0
    3.2531   -2.4116    0.8722 C   0  0  0  0  0  0  0  0  0  0  0  0
    4.5388   -2.6777    1.3497 C   0  0  0  0  0  0  0  0  0  0  0  0
    5.5614   -1.7490    1.1596 C   0  0  0  0  0  0  0  0  0  0  0  0
    5.3011   -0.5547    0.4879 C   0  0  0  0  0  0  0  0  0  0  0  0
    4.0214   -0.2943   -0.0024 C   0  0  0  0  0  0  0  0  0  0  0  0
    3.8440    0.9094   -0.6286 O   0  0  0  0  0  0  0  0  0  0  0  0
    2.6630    1.0437   -1.4408 C   0  0  0  0  0  0  0  0  0  0  0  0
   -3.0891    0.8950    0.0789 C   0  0  0  0  0  0  0  0  0  0  0  0
   -3.4306    2.1576    0.5888 C   0  0  0  0  0  0  0  0  0  0  0  0
   -4.2004    2.2746    1.7478 C   0  0  0  0  0  0  0  0  0  0  0  0
   -4.6332    1.1322    2.4167 C   0  0  0  0  0  0  0  0  0  0  0  0
   -4.2938   -0.1281    1.9303 C   0  0  0  0  0  0  0  0  0  0  0  0
   -3.5236   -0.2472    0.7716 C   0  0  0  0  0  0  0  0  0  0  0  0
   -2.2607   -0.1018   -3.1542 H   0  0  0  0  0  0  0  0  0  0  0  0
   -3.8663    0.1538   -2.4559 H   0  0  0  0  0  0  0  0  0  0  0  0
   -2.8433   -1.1807   -1.8923 H   0  0  0  0  0  0  0  0  0  0  0  0
   -2.1450    1.7898   -1.6258 H   0  0  0  0  0  0  0  0  0  0  0  0
   -0.7298    0.1078    0.1647 H   0  0  0  0  0  0  0  0  0  0  0  0
    0.8300   -1.5775   -0.0320 H   0  0  0  0  0  0  0  0  0  0  0  0
    2.4662   -3.1433    1.0366 H   0  0  0  0  0  0  0  0  0  0  0  0
    4.7415   -3.6079    1.8748 H   0  0  0  0  0  0  0  0  0  0  0  0
    6.5604   -1.9529    1.5361 H   0  0  0  0  0  0  0  0  0  0  0  0
    6.0948    0.1731    0.3434 H   0  0  0  0  0  0  0  0  0  0  0  0
    2.3778    2.1003   -1.3823 H   0  0  0  0  0  0  0  0  0  0  0  0
    2.9480    0.8369   -2.4792 H   0  0  0  0  0  0  0  0  0  0  0  0
   -3.0971    3.0630    0.0851 H   0  0  0  0  0  0  0  0  0  0  0  0
   -4.4609    3.2588    2.1289 H   0  0  0  0  0  0  0  0  0  0  0  0
   -5.2330    1.2244    3.3184 H   0  0  0  0  0  0  0  0  0  0  0  0
   -4.6285   -1.0198    2.4542 H   0  0  0  0  0  0  0  0  0  0  0  0
   -3.2641   -1.2417    0.4160 H   0  0  0  0  0  0  0  0  0  0  0  0
  1  2  1  0
  2  3  1  0
  3  4  1  0
  4  5  2  0
  4  6  1  0
  6  7  2  0
  7  8  1  0
  8  9  2  0
  9 10  1  0
 10 11  2  0
 11 12  1  0
 12 13  2  0
 13 14  1  0
 14 15  1  0
  2 16  1  0
 16 17  2  0
 17 18  1  0
 18 19  2  0
 19 20  1  0
 20 21  2  0
 15  6  1  0
 21 16  1  0
 13  8  1  0
  1 22  1  0
  1 23  1  0
  1 24  1  0
  2 25  1  0
  3 26  1  0
  7 27  1  0
  9 28  1  0
 10 29  1  0
 11 30  1  0
 12 31  1  0
 15 32  1  0
 15 33  1  0
 17 34  1  0
 18 35  1  0
 19 36  1  0
 20 37  1  0
 21 38  1  0
M  END
$$$$
OCNT-2315005
     RDKit          3D

 47 49  0  0  0  0  0  0  0  0999 V2000
   -7.0440    0.8860    0.7073 C   0  0  0  0  0  0  0  0  0  0  0  0
   -5.9291    0.0189    0.2044 C   0  0  0  0  0  0  0  0  0  0  0  0
   -6.1996   -1.2383   -0.2976 C   0  0  0  0  0  0  0  0  0  0  0  0
   -5.1199   -1.9742   -0.7403 C   0  0  0  0  0  0  0  0  0  0  0  0
   -5.3169   -3.3479   -1.3063 C   0  0  0  0  0  0  0  0  0  0  0  0
   -3.8609   -1.5011   -0.6932 N   0  0  0  0  0  0  0  0  0  0  0  0
   -3.6729   -0.2600   -0.1910 C   0  0  0  0  0  0  0  0  0  0  0  0
   -2.3208    0.2550   -0.1413 N   0  0  0  0  0  0  0  0  0  0  0  0
   -1.2708   -0.4931   -0.5898 N   0  0  0  0  0  0  0  0  0  0  0  0
   -0.1720    0.2539   -0.4141 C   0  0  0  0  0  0  0  0  0  0  0  0
    1.1658   -0.2410   -0.8004 C   0  0  0  0  0  0  0  0  0  0  0  0
    1.3500   -1.1967   -1.5506 O   0  0  0  0  0  0  0  0  0  0  0  0
    2.2288    0.4454   -0.2285 N   0  0  0  0  0  0  0  0  0  0  0  0
    3.5855   -0.0336   -0.4144 C   0  0  0  0  0  0  0  0  0  0  0  0
    3.9254   -1.2827    0.3988 C   0  0  0  0  0  0  0  0  0  0  0  0
    5.2818   -1.1502    0.8635 O   0  0  0  0  0  0  0  0  0  0  0  0
    5.8308    0.0776    0.3539 C   0  0  0  0  0  0  0  0  0  0  0  0
    6.6463   -0.2423   -0.9031 C   0  0  0  0  0  0  0  0  0  0  0  0
    6.7342    0.6873    1.4218 C   0  0  0  0  0  0  0  0  0  0  0  0
    4.6257    0.9629    0.0555 C   0  0  0  0  0  0  0  0  0  0  0  0
   -0.5128    1.5036    0.1596 C   0  0  0  0  0  0  0  0  0  0  0  0
   -1.8813    1.4906    0.3299 C   0  0  0  0  0  0  0  0  0  0  0  0
   -2.7649    2.5475    0.8840 C   0  0  0  0  0  0  0  0  0  0  0  0
   -4.6788    0.5207    0.2656 N   0  0  0  0  0  0  0  0  0  0  0  0
   -6.6591    1.8459    1.0667 H   0  0  0  0  0  0  0  0  0  0  0  0
   -7.5611    0.3940    1.5369 H   0  0  0  0  0  0  0  0  0  0  0  0
   -7.7600    1.0854   -0.0961 H   0  0  0  0  0  0  0  0  0  0  0  0
   -7.2085   -1.6286   -0.3428 H   0  0  0  0  0  0  0  0  0  0  0  0
   -4.3578   -3.7971   -1.5842 H   0  0  0  0  0  0  0  0  0  0  0  0
   -5.7960   -3.9974   -0.5673 H   0  0  0  0  0  0  0  0  0  0  0  0
   -5.9425   -3.3000   -2.2030 H   0  0  0  0  0  0  0  0  0  0  0  0
    2.0302    1.0210    0.5781 H   0  0  0  0  0  0  0  0  0  0  0  0
    3.7284   -0.2466   -1.4812 H   0  0  0  0  0  0  0  0  0  0  0  0
    3.2843   -1.3927    1.2800 H   0  0  0  0  0  0  0  0  0  0  0  0
    3.8410   -2.1942   -0.2010 H   0  0  0  0  0  0  0  0  0  0  0  0
    7.4725   -0.9218   -0.6638 H   0  0  0  0  0  0  0  0  0  0  0  0
    7.0640    0.6656   -1.3504 H   0  0  0  0  0  0  0  0  0  0  0  0
    6.0430   -0.7552   -1.6597 H   0  0  0  0  0  0  0  0  0  0  0  0
    6.1831    0.8482    2.3556 H   0  0  0  0  0  0  0  0  0  0  0  0
    7.5606    0.0105    1.6671 H   0  0  0  0  0  0  0  0  0  0  0  0
    7.1526    1.6448    1.0948 H   0  0  0  0  0  0  0  0  0  0  0  0
    4.8299    1.7462   -0.6817 H   0  0  0  0  0  0  0  0  0  0  0  0
    4.2790    1.4591    0.9717 H   0  0  0  0  0  0  0  0  0  0  0  0
    0.1473    2.3242    0.4029 H   0  0  0  0  0  0  0  0  0  0  0  0
   -3.4944    2.8820    0.1400 H   0  0  0  0  0  0  0  0  0  0  0  0
   -2.1771    3.4239    1.1780 H   0  0  0  0  0  0  0  0  0  0  0  0
   -3.2892    2.1946    1.7775 H   0  0  0  0  0  0  0  0  0  0  0  0
  1  2  1  0
  2  3  2  0
  3  4  1  0
  4  5  1  0
  4  6  2  0
  6  7  1  0
  7  8  1  0
  8  9  1  0
  9 10  2  0
 10 11  1  0
 11 12  2  0
 11 13  1  0
 13 14  1  0
 14 15  1  0
 15 16  1  0
 16 17  1  0
 17 18  1  0
 17 19  1  0
 17 20  1  0
 10 21  1  0
 21 22  2  0
 22 23  1  0
  7 24  2  0
 24  2  1  0
 22  8  1  0
 20 14  1  0
  1 25  1  0
  1 26  1  0
  1 27  1  0
  3 28  1  0
  5 29  1  0
  5 30  1  0
  5 31  1  0
 13 32  1  0
 14 33  1  0
 15 34  1  0
 15 35  1  0
 18 36  1  0
 18 37  1  0
 18 38  1  0
 19 39  1  0
 19 40  1  0
 19 41  1  0
 20 42  1  0
 20 43  1  0
 21 44  1  0
 23 45  1  0
 23 46  1  0
 23 47  1  0
M  END
$$$$
OCNT-2315008
     RDKit          3D

  0  0  0  0  0  0  0  0  0  0999 V3000
M  V30 BEGIN CTAB
M  V30 COUNTS 46 50 0 0 0
M  V30 BEGIN ATOM
M  V30 1 O -0.199597 0.087486 -2.950297 0
M  V30 2 C -0.089101 0.565679 -1.830777 0
M  V30 3 N 1.087564 0.611030 -1.129314 0
M  V30 4 C 2.299994 0.158196 -1.770987 0
M  V30 5 C 3.386321 0.135454 -0.747044 0
M  V30 6 C 3.700021 -0.873298 0.139464 0
M  V30 7 C 4.807831 -0.553276 0.992926 0
M  V30 8 C 5.428060 -1.306732 2.018354 0
M  V30 9 C 6.511702 -0.779630 2.727440 0
M  V30 10 C 6.990826 0.489262 2.432853 0
M  V30 11 C 6.398670 1.256027 1.426655 0
M  V30 12 C 5.307080 0.721014 0.715080 0
M  V30 13 S 4.424596 1.477322 -0.555262 0
M  V30 14 N -1.111293 1.124890 -1.110944 0
M  V30 15 C -2.474130 1.109815 -1.594047 0
M  V30 16 C -3.210418 -0.095713 -1.073975 0 CFG=2
M  V30 17 C -3.039095 -1.419634 -1.804644 0
M  V30 18 C -4.339323 -0.670773 -1.899895 0 CFG=1
M  V30 19 C -5.487879 -0.977548 -0.991300 0
M  V30 20 O -5.062603 -0.680339 0.352029 0
M  V30 21 C -3.719965 -0.088538 0.382249 0
M  V30 22 C -2.788852 -0.734324 1.461057 0
M  V30 23 C -3.317989 0.305983 2.462597 0
M  V30 24 C -3.653502 1.205306 1.259767 0
M  V30 25 H 1.184990 1.417091 -0.530383 0
M  V30 26 H 2.134826 -0.842712 -2.186225 0
M  V30 27 H 2.527012 0.832572 -2.604515 0
M  V30 28 H 3.155831 -1.809582 0.181909 0
M  V30 29 H 5.062029 -2.302160 2.257214 0
M  V30 30 H 6.980106 -1.368826 3.512132 0
M  V30 31 H 7.834804 0.891942 2.988114 0
M  V30 32 H 6.775986 2.248464 1.197364 0
M  V30 33 H -0.969591 1.154799 -0.113591 0
M  V30 34 H -2.466697 1.124056 -2.690396 0
M  V30 35 H -2.956567 2.035903 -1.267233 0
M  V30 36 H -3.004385 -2.330188 -1.216860 0
M  V30 37 H -2.405142 -1.448577 -2.684891 0
M  V30 38 H -4.621640 -0.223148 -2.840956 0
M  V30 39 H -6.352003 -0.347596 -1.221117 0
M  V30 40 H -5.778364 -2.030349 -1.046945 0
M  V30 41 H -1.717690 -0.645951 1.248133 0
M  V30 42 H -3.009200 -1.774477 1.717760 0
M  V30 43 H -2.582226 0.705898 3.164683 0
M  V30 44 H -4.198910 -0.028889 3.022104 0
M  V30 45 H -4.589888 1.763476 1.351081 0
M  V30 46 H -2.852201 1.910592 1.019716 0
M  V30 END ATOM
M  V30 BEGIN BOND
M  V30 1 2 1 2
M  V30 2 1 2 3
M  V30 3 1 3 4
M  V30 4 1 4 5
M  V30 5 2 5 6
M  V30 6 1 6 7
M  V30 7 2 7 8
M  V30 8 1 8 9
M  V30 9 2 9 10
M  V30 10 1 10 11
M  V30 11 2 11 12
M  V30 12 1 12 13
M  V30 13 1 2 14
M  V30 14 1 14 15
M  V30 15 1 16 15 CFG=3
M  V30 16 1 16 17
M  V30 17 1 17 18
M  V30 18 1 18 19
M  V30 19 1 19 20
M  V30 20 1 20 21
M  V30 21 1 21 22
M  V30 22 1 22 23
M  V30 23 1 23 24
M  V30 24 1 13 5
M  V30 25 1 18 16
M  V30 26 1 24 21
M  V30 27 1 12 7
M  V30 28 1 21 16
M  V30 29 1 3 25
M  V30 30 1 4 26
M  V30 31 1 4 27
M  V30 32 1 6 28
M  V30 33 1 8 29
M  V30 34 1 9 30
M  V30 35 1 10 31
M  V30 36 1 11 32
M  V30 37 1 14 33
M  V30 38 1 15 34
M  V30 39 1 15 35
M  V30 40 1 17 36
M  V30 41 1 17 37
M  V30 42 1 18 38 CFG=3
M  V30 43 1 19 39
M  V30 44 1 19 40
M  V30 45 1 22 41
M  V30 46 1 22 42
M  V30 47 1 23 43
M  V30 48 1 23 44
M  V30 49 1 24 45
M  V30 50 1 24 46
M  V30 END BOND
M  V30 BEGIN COLLECTION
M  V30 MDLV30/STERAC1 ATOMS=(2 16 18)
M  V30 END COLLECTION
M  V30 END CTAB
M  END
>  <_CXSMILES_Data>  (932) 
|&1:15,17|

$$$$
OCNT-2315016
     RDKit          3D

 37 39  0  0  0  0  0  0  0  0999 V2000
   -5.5313   -0.8688    0.6621 C   0  0  0  0  0  0  0  0  0  0  0  0
   -4.0455   -0.7593    0.4377 C   0  0  0  0  0  0  0  0  0  0  0  0
   -3.3551   -1.8509   -0.0963 C   0  0  0  0  0  0  0  0  0  0  0  0
   -1.9838   -1.7799   -0.3147 C   0  0  0  0  0  0  0  0  0  0  0  0
   -1.2711   -0.6197   -0.0058 C   0  0  0  0  0  0  0  0  0  0  0  0
    0.1314   -0.5349   -0.2247 N   0  0  0  0  0  0  0  0  0  0  0  0
    0.9885   -1.4883   -0.7364 C   0  0  0  0  0  0  0  0  0  0  0  0
    0.6706   -2.6168   -1.1040 O   0  0  0  0  0  0  0  0  0  0  0  0
    2.4256   -1.0548   -0.8303 C   0  0  0  0  0  0  0  0  0  0  0  0
    3.3150   -1.9385   -1.3217 C   0  0  0  0  0  0  0  0  0  0  0  0
    4.7123   -1.6155   -1.4500 C   0  0  0  0  0  0  0  0  0  0  0  0
    5.1555   -0.4117   -1.0765 C   0  0  0  0  0  0  0  0  0  0  0  0
    4.2918    0.5386   -0.5647 N   0  0  0  0  0  0  0  0  0  0  0  0
    4.8414    1.8298   -0.1773 C   0  0  0  0  0  0  0  0  0  0  0  0
    2.9239    0.2972   -0.4110 C   0  0  0  0  0  0  0  0  0  0  0  0
    2.1351    1.1283    0.0426 O   0  0  0  0  0  0  0  0  0  0  0  0
   -1.9716    0.5048    0.5423 C   0  0  0  0  0  0  0  0  0  0  0  0
   -1.3673    1.7377    0.8979 C   0  0  0  0  0  0  0  0  0  0  0  0
   -2.1123    2.7865    1.4256 C   0  0  0  0  0  0  0  0  0  0  0  0
   -3.4615    2.5910    1.5932 C   0  0  0  0  0  0  0  0  0  0  0  0
   -4.0893    1.4436    1.2739 N   0  0  0  0  0  0  0  0  0  0  0  0
   -3.3724    0.4210    0.7612 C   0  0  0  0  0  0  0  0  0  0  0  0
   -6.0617   -0.1144    0.0719 H   0  0  0  0  0  0  0  0  0  0  0  0
   -5.7666   -0.7354    1.7231 H   0  0  0  0  0  0  0  0  0  0  0  0
   -5.9123   -1.8506    0.3610 H   0  0  0  0  0  0  0  0  0  0  0  0
   -3.8817   -2.7692   -0.3475 H   0  0  0  0  0  0  0  0  0  0  0  0
   -1.5052   -2.6597   -0.7311 H   0  0  0  0  0  0  0  0  0  0  0  0
    0.5721    0.3459    0.0278 H   0  0  0  0  0  0  0  0  0  0  0  0
    3.0098   -2.9324   -1.6409 H   0  0  0  0  0  0  0  0  0  0  0  0
    5.3855   -2.3658   -1.8525 H   0  0  0  0  0  0  0  0  0  0  0  0
    6.2042   -0.1409   -1.1621 H   0  0  0  0  0  0  0  0  0  0  0  0
    4.0718    2.5010    0.2127 H   0  0  0  0  0  0  0  0  0  0  0  0
    5.5984    1.6765    0.5985 H   0  0  0  0  0  0  0  0  0  0  0  0
    5.3031    2.2976   -1.0528 H   0  0  0  0  0  0  0  0  0  0  0  0
   -0.3034    1.9112    0.7730 H   0  0  0  0  0  0  0  0  0  0  0  0
   -1.6457    3.7266    1.6957 H   0  0  0  0  0  0  0  0  0  0  0  0
   -4.0984    3.3705    2.0002 H   0  0  0  0  0  0  0  0  0  0  0  0
  1  2  1  0
  2  3  1  0
  3  4  2  0
  4  5  1  0
  5  6  1  0
  6  7  1  0
  7  8  2  0
  7  9  1  0
  9 10  2  0
 10 11  1  0
 11 12  2  0
 12 13  1  0
 13 14  1  0
 13 15  1  0
 15 16  2  0
  5 17  2  0
 17 18  1  0
 18 19  2  0
 19 20  1  0
 20 21  2  0
 21 22  1  0
 22  2  2  0
 15  9  1  0
 22 17  1  0
  1 23  1  0
  1 24  1  0
  1 25  1  0
  3 26  1  0
  4 27  1  0
  6 28  1  0
 10 29  1  0
 11 30  1  0
 12 31  1  0
 14 32  1  0
 14 33  1  0
 14 34  1  0
 18 35  1  0
 19 36  1  0
 20 37  1  0
M  END
$$$$
OCNT-2315030
     RDKit          3D

 40 43  0  0  0  0  0  0  0  0999 V2000
   -0.2073   -1.1636   -0.1985 O   0  0  0  0  0  0  0  0  0  0  0  0
   -1.0026   -0.2462   -0.0149 C   0  0  0  0  0  0  0  0  0  0  0  0
   -2.3518   -0.4534   -0.1772 N   0  0  0  0  0  0  0  0  0  0  0  0
   -3.3256    0.5078    0.0040 C   0  0  0  0  0  0  0  0  0  0  0  0
   -4.7703    0.1889   -0.1959 C   0  0  0  0  0  0  0  0  0  0  0  0
   -5.2238   -1.0762   -0.5719 C   0  0  0  0  0  0  0  0  0  0  0  0
   -6.5926   -1.2937   -0.7385 C   0  0  0  0  0  0  0  0  0  0  0  0
   -7.4814   -0.2501   -0.5282 C   0  0  0  0  0  0  0  0  0  0  0  0
   -6.9621    0.9748   -0.1578 C   0  0  0  0  0  0  0  0  0  0  0  0
   -5.6422    1.2114    0.0101 N   0  0  0  0  0  0  0  0  0  0  0  0
   -2.9272    1.7413    0.3670 C   0  0  0  0  0  0  0  0  0  0  0  0
   -1.5274    2.0464    0.5597 C   0  0  0  0  0  0  0  0  0  0  0  0
   -0.5658    1.1200    0.3868 C   0  0  0  0  0  0  0  0  0  0  0  0
    0.8595    1.5260    0.6085 C   0  0  0  0  0  0  0  0  0  0  0  0
    1.1188    2.6816    0.9395 O   0  0  0  0  0  0  0  0  0  0  0  0
    1.7859    0.5299    0.4141 N   0  0  0  0  0  0  0  0  0  0  0  0
    3.1986    0.5953    0.5434 C   0  0  0  0  0  0  0  0  0  0  0  0
    3.8836    1.7594    0.9103 C   0  0  0  0  0  0  0  0  0  0  0  0
    5.2730    1.7554    1.0190 C   0  0  0  0  0  0  0  0  0  0  0  0
    5.9856    0.5892    0.7621 C   0  0  0  0  0  0  0  0  0  0  0  0
    5.3104   -0.5840    0.3935 C   0  0  0  0  0  0  0  0  0  0  0  0
    6.0084   -1.7706    0.1300 C   0  0  0  0  0  0  0  0  0  0  0  0
    5.3145   -2.9175   -0.2330 C   0  0  0  0  0  0  0  0  0  0  0  0
    3.9394   -2.8396   -0.3207 C   0  0  0  0  0  0  0  0  0  0  0  0
    3.2330   -1.7155   -0.0746 N   0  0  0  0  0  0  0  0  0  0  0  0
    3.9022   -0.5935    0.2797 C   0  0  0  0  0  0  0  0  0  0  0  0
   -2.5926   -1.3946   -0.4491 H   0  0  0  0  0  0  0  0  0  0  0  0
   -4.5495   -1.9059   -0.7416 H   0  0  0  0  0  0  0  0  0  0  0  0
   -6.9589   -2.2741   -1.0311 H   0  0  0  0  0  0  0  0  0  0  0  0
   -8.5499   -0.3872   -0.6495 H   0  0  0  0  0  0  0  0  0  0  0  0
   -7.6108    1.8278    0.0202 H   0  0  0  0  0  0  0  0  0  0  0  0
   -3.6355    2.5501    0.5283 H   0  0  0  0  0  0  0  0  0  0  0  0
   -1.2863    3.0655    0.8526 H   0  0  0  0  0  0  0  0  0  0  0  0
    1.4543   -0.4020    0.1376 H   0  0  0  0  0  0  0  0  0  0  0  0
    3.3614    2.6873    1.1183 H   0  0  0  0  0  0  0  0  0  0  0  0
    5.7954    2.6652    1.3047 H   0  0  0  0  0  0  0  0  0  0  0  0
    7.0694    0.6009    0.8509 H   0  0  0  0  0  0  0  0  0  0  0  0
    7.0922   -1.8058    0.2062 H   0  0  0  0  0  0  0  0  0  0  0  0
    5.8331   -3.8460   -0.4414 H   0  0  0  0  0  0  0  0  0  0  0  0
    3.3446   -3.7046   -0.6002 H   0  0  0  0  0  0  0  0  0  0  0  0
  1  2  2  0
  2  3  1  0
  3  4  1  0
  4  5  1  0
  5  6  2  0
  6  7  1  0
  7  8  2  0
  8  9  1  0
  9 10  2  0
  4 11  2  0
 11 12  1  0
 12 13  2  0
 13 14  1  0
 14 15  2  0
 14 16  1  0
 16 17  1  0
 17 18  1  0
 18 19  2  0
 19 20  1  0
 20 21  2  0
 21 22  1  0
 22 23  2  0
 23 24  1  0
 24 25  2  0
 25 26  1  0
 13  2  1  0
 26 17  2  0
 10  5  1  0
 26 21  1  0
  3 27  1  0
  6 28  1  0
  7 29  1  0
  8 30  1  0
  9 31  1  0
 11 32  1  0
 12 33  1  0
 16 34  1  0
 18 35  1  0
 19 36  1  0
 20 37  1  0
 22 38  1  0
 23 39  1  0
 24 40  1  0
M  END
$$$$
OCNT-2315034
     RDKit          3D

 43 47  0  0  0  0  0  0  0  0999 V2000
    1.6139    3.1837    1.6306 O   0  0  0  0  0  0  0  0  0  0  0  0
    1.0384    2.2932    1.0139 C   0  0  0  0  0  0  0  0  0  0  0  0
    1.6449    1.1503    0.5329 N   0  0  0  0  0  0  0  0  0  0  0  0
    2.9849    0.7349    0.7462 C   0  0  0  0  0  0  0  0  0  0  0  0
    3.8247    1.3344    1.6730 C   0  0  0  0  0  0  0  0  0  0  0  0
    5.0903    0.9355    1.9429 N   0  0  0  0  0  0  0  0  0  0  0  0
    5.5322   -0.1162    1.2520 C   0  0  0  0  0  0  0  0  0  0  0  0
    4.8371   -0.7871    0.3287 N   0  0  0  0  0  0  0  0  0  0  0  0
    3.5692   -0.3458    0.0764 C   0  0  0  0  0  0  0  0  0  0  0  0
    2.8725   -1.0456   -0.9605 N   0  0  0  0  0  0  0  0  0  0  0  0
    3.3471   -2.1384   -1.6634 C   0  0  0  0  0  0  0  0  0  0  0  0
    2.3884   -2.4825   -2.5839 C   0  0  0  0  0  0  0  0  0  0  0  0
    1.3619   -1.5505   -2.3817 C   0  0  0  0  0  0  0  0  0  0  0  0
    1.6363   -0.6847   -1.4049 N   0  0  0  0  0  0  0  0  0  0  0  0
   -0.3775    2.4186    0.7163 C   0  0  0  0  0  0  0  0  0  0  0  0
   -1.2703    1.4576    0.2825 C   0  0  0  0  0  0  0  0  0  0  0  0
   -1.1102    0.1270    0.0080 N   0  0  0  0  0  0  0  0  0  0  0  0
   -2.1791   -0.5125   -0.3537 C   0  0  0  0  0  0  0  0  0  0  0  0
   -2.0602   -1.9560   -0.6653 C   0  0  0  0  0  0  0  0  0  0  0  0
   -2.6872   -2.9843    0.2479 C   0  0  0  0  0  0  0  0  0  0  0  0
   -1.1950   -2.8571    0.1857 C   0  0  0  0  0  0  0  0  0  0  0  0
   -3.5389    0.0651   -0.5105 C   0  0  0  0  0  0  0  0  0  0  0  0
   -3.6442    1.3801   -0.2430 C   0  0  0  0  0  0  0  0  0  0  0  0
   -4.9180    2.1404   -0.3369 C   0  0  0  0  0  0  0  0  0  0  0  0
   -4.9774    2.8353   -1.5045 F   0  0  0  0  0  0  0  0  0  0  0  0
   -5.9864    1.2908   -0.3659 F   0  0  0  0  0  0  0  0  0  0  0  0
   -2.5170    2.0910    0.1675 N   0  0  0  0  0  0  0  0  0  0  0  0
   -2.4440    3.3947    0.5311 N   0  0  0  0  0  0  0  0  0  0  0  0
   -1.1653    3.5786    0.8600 C   0  0  0  0  0  0  0  0  0  0  0  0
    1.0851    0.5564   -0.0926 H   0  0  0  0  0  0  0  0  0  0  0  0
    3.5134    2.1758    2.2836 H   0  0  0  0  0  0  0  0  0  0  0  0
    6.5421   -0.4539    1.4571 H   0  0  0  0  0  0  0  0  0  0  0  0
    4.3186   -2.5584   -1.4421 H   0  0  0  0  0  0  0  0  0  0  0  0
    2.4316   -3.2888   -3.3021 H   0  0  0  0  0  0  0  0  0  0  0  0
    0.4192   -1.4640   -2.9069 H   0  0  0  0  0  0  0  0  0  0  0  0
   -2.0666   -2.1750   -1.7292 H   0  0  0  0  0  0  0  0  0  0  0  0
   -3.1404   -3.8583   -0.2060 H   0  0  0  0  0  0  0  0  0  0  0  0
   -3.1783   -2.6522    1.1559 H   0  0  0  0  0  0  0  0  0  0  0  0
   -0.6808   -2.4247    1.0375 H   0  0  0  0  0  0  0  0  0  0  0  0
   -0.6318   -3.6358   -0.3155 H   0  0  0  0  0  0  0  0  0  0  0  0
   -4.3640   -0.5589   -0.8277 H   0  0  0  0  0  0  0  0  0  0  0  0
   -5.0757    2.8298    0.4974 H   0  0  0  0  0  0  0  0  0  0  0  0
   -0.8436    4.5576    1.1969 H   0  0  0  0  0  0  0  0  0  0  0  0
  1  2  2  0
  2  3  1  0
  3  4  1  0
  4  5  2  0
  5  6  1  0
  6  7  2  0
  7  8  1  0
  8  9  2  0
  9 10  1  0
 10 11  1  0
 11 12  2  0
 12 13  1  0
 13 14  2  0
  2 15  1  0
 15 16  2  0
 16 17  1  0
 17 18  2  0
 18 19  1  0
 19 20  1  0
 20 21  1  0
 18 22  1  0
 22 23  2  0
 23 24  1  0
 24 25  1  0
 24 26  1  0
 23 27  1  0
 27 28  1  0
 28 29  2  0
  9  4  1  0
 14 10  1  0
 29 15  1  0
 27 16  1  0
 21 19  1  0
  3 30  1  0
  5 31  1  0
  7 32  1  0
 11 33  1  0
 12 34  1  0
 13 35  1  0
 19 36  1  0
 20 37  1  0
 20 38  1  0
 21 39  1  0
 21 40  1  0
 22 41  1  0
 24 42  1  0
 29 43  1  0
M  END
$$$$
OCNT-2315036
     RDKit          3D

 58 61  0  0  0  0  0  0  0  0999 V2000
    0.1157   -3.0038    1.2188 C   0  0  0  0  0  0  0  0  0  0  0  0
   -0.1254   -1.5413    0.8388 C   0  0  0  0  0  0  0  0  0  0  0  0
    0.6071   -0.5621    1.8069 C   0  0  0  0  0  0  0  0  0  0  0  0
    1.9566   -0.0860    1.4667 N   0  0  0  0  0  0  0  0  0  0  0  0
    1.9473    0.8353    0.3088 C   0  0  0  0  0  0  0  0  0  0  0  0
    3.3485    1.4216    0.0042 C   0  0  0  0  0  0  0  0  0  0  0  0
    4.3350    0.3344   -0.1840 N   0  0  0  0  0  0  0  0  0  0  0  0
    5.6147    0.8088   -0.5358 C   0  0  0  0  0  0  0  0  0  0  0  0
    5.7810    1.5255   -1.7236 C   0  0  0  0  0  0  0  0  0  0  0  0
    7.0444    1.9839   -2.0945 C   0  0  0  0  0  0  0  0  0  0  0  0
    8.1278    1.7116   -1.2759 C   0  0  0  0  0  0  0  0  0  0  0  0
    7.8954    0.9842   -0.1246 C   0  0  0  0  0  0  0  0  0  0  0  0
    6.6787    0.5292    0.2502 N   0  0  0  0  0  0  0  0  0  0  0  0
    4.3638   -0.5864    0.9727 C   0  0  0  0  0  0  0  0  0  0  0  0
    2.9479   -1.1512    1.2394 C   0  0  0  0  0  0  0  0  0  0  0  0
   -1.5670   -1.2835    0.8319 N   0  0  0  0  0  0  0  0  0  0  0  0
   -2.1022   -0.2053    0.1576 C   0  0  0  0  0  0  0  0  0  0  0  0
   -1.4091    0.5961   -0.4594 O   0  0  0  0  0  0  0  0  0  0  0  0
   -3.5404   -0.1415    0.1999 C   0  0  0  0  0  0  0  0  0  0  0  0
   -4.4208    0.1346   -0.8311 C   0  0  0  0  0  0  0  0  0  0  0  0
   -4.1836    0.4558   -2.2642 C   0  0  0  0  0  0  0  0  0  0  0  0
   -5.4757    0.2925   -3.0874 C   0  0  0  0  0  0  0  0  0  0  0  0
   -6.6996    0.9009   -2.3779 C   0  0  0  0  0  0  0  0  0  0  0  0
   -6.9723    0.2334   -1.0173 C   0  0  0  0  0  0  0  0  0  0  0  0
   -5.7070    0.0558   -0.2554 C   0  0  0  0  0  0  0  0  0  0  0  0
   -5.6624   -0.2318    1.0451 N   0  0  0  0  0  0  0  0  0  0  0  0
   -4.3394   -0.2768    1.3126 N   0  0  0  0  0  0  0  0  0  0  0  0
   -3.9199   -0.3989    2.6900 C   0  0  0  0  0  0  0  0  0  0  0  0
   -0.3922   -3.6705    0.5131 H   0  0  0  0  0  0  0  0  0  0  0  0
    1.1755   -3.2654    1.2143 H   0  0  0  0  0  0  0  0  0  0  0  0
   -0.2831   -3.2223    2.2153 H   0  0  0  0  0  0  0  0  0  0  0  0
    0.2213   -1.3884   -0.1890 H   0  0  0  0  0  0  0  0  0  0  0  0
    0.6575   -1.0259    2.8016 H   0  0  0  0  0  0  0  0  0  0  0  0
   -0.0155    0.3285    1.9684 H   0  0  0  0  0  0  0  0  0  0  0  0
    1.5853    0.3219   -0.5903 H   0  0  0  0  0  0  0  0  0  0  0  0
    1.2672    1.6719    0.5075 H   0  0  0  0  0  0  0  0  0  0  0  0
    3.2583    2.0407   -0.8951 H   0  0  0  0  0  0  0  0  0  0  0  0
    3.6597    2.0740    0.8313 H   0  0  0  0  0  0  0  0  0  0  0  0
    4.9352    1.7075   -2.3779 H   0  0  0  0  0  0  0  0  0  0  0  0
    7.1752    2.5380   -3.0187 H   0  0  0  0  0  0  0  0  0  0  0  0
    9.1255    2.0479   -1.5304 H   0  0  0  0  0  0  0  0  0  0  0  0
    8.7065    0.7357    0.5526 H   0  0  0  0  0  0  0  0  0  0  0  0
    4.7210   -0.0719    1.8752 H   0  0  0  0  0  0  0  0  0  0  0  0
    5.0304   -1.4333    0.7683 H   0  0  0  0  0  0  0  0  0  0  0  0
    2.6599   -1.7669    0.3789 H   0  0  0  0  0  0  0  0  0  0  0  0
    2.9985   -1.8018    2.1200 H   0  0  0  0  0  0  0  0  0  0  0  0
   -2.1943   -2.0307    1.0994 H   0  0  0  0  0  0  0  0  0  0  0  0
   -3.8349    1.4930   -2.3405 H   0  0  0  0  0  0  0  0  0  0  0  0
   -3.4004   -0.1865   -2.6820 H   0  0  0  0  0  0  0  0  0  0  0  0
   -5.6628   -0.7747   -3.2643 H   0  0  0  0  0  0  0  0  0  0  0  0
   -5.3423    0.7605   -4.0692 H   0  0  0  0  0  0  0  0  0  0  0  0
   -6.5256    1.9746   -2.2295 H   0  0  0  0  0  0  0  0  0  0  0  0
   -7.5865    0.8053   -3.0145 H   0  0  0  0  0  0  0  0  0  0  0  0
   -7.6881    0.8366   -0.4479 H   0  0  0  0  0  0  0  0  0  0  0  0
   -7.4268   -0.7511   -1.1816 H   0  0  0  0  0  0  0  0  0  0  0  0
   -4.6809    0.0475    3.3358 H   0  0  0  0  0  0  0  0  0  0  0  0
   -3.8069   -1.4608    2.9184 H   0  0  0  0  0  0  0  0  0  0  0  0
   -2.9759    0.1318    2.8315 H   0  0  0  0  0  0  0  0  0  0  0  0
  1  2  1  0
  2  3  1  0
  3  4  1  0
  4  5  1  0
  5  6  1  0
  6  7  1  0
  7  8  1  0
  8  9  2  0
  9 10  1  0
 10 11  2  0
 11 12  1  0
 12 13  2  0
  7 14  1  0
 14 15  1  0
  2 16  1  0
 16 17  1  0
 17 18  2  0
 17 19  1  0
 19 20  2  0
 20 21  1  0
 21 22  1  0
 22 23  1  0
 23 24  1  0
 24 25  1  0
 25 26  2  0
 26 27  1  0
 27 28  1  0
 15  4  1  0
 27 19  1  0
 13  8  1  0
 25 20  1  0
  1 29  1  0
  1 30  1  0
  1 31  1  0
  2 32  1  0
  3 33  1  0
  3 34  1  0
  5 35  1  0
  5 36  1  0
  6 37  1  0
  6 38  1  0
  9 39  1  0
 10 40  1  0
 11 41  1  0
 12 42  1  0
 14 43  1  0
 14 44  1  0
 15 45  1  0
 15 46  1  0
 16 47  1  0
 21 48  1  0
 21 49  1  0
 22 50  1  0
 22 51  1  0
 23 52  1  0
 23 53  1  0
 24 54  1  0
 24 55  1  0
 28 56  1  0
 28 57  1  0
 28 58  1  0
M  END
$$$$
OCNT-2315039
     RDKit          3D

 43 47  0  0  0  0  0  0  0  0999 V2000
   -5.9249    2.4558   -0.3455 Cl  0  0  0  0  0  0  0  0  0  0  0  0
   -5.6165    0.7497   -0.3246 C   0  0  0  0  0  0  0  0  0  0  0  0
   -6.7256   -0.1000   -0.4189 C   0  0  0  0  0  0  0  0  0  0  0  0
   -6.5502   -1.4810   -0.4240 C   0  0  0  0  0  0  0  0  0  0  0  0
   -5.2678   -2.0112   -0.3316 C   0  0  0  0  0  0  0  0  0  0  0  0
   -4.1592   -1.1620   -0.2378 C   0  0  0  0  0  0  0  0  0  0  0  0
   -4.3015    0.2368   -0.2403 C   0  0  0  0  0  0  0  0  0  0  0  0
   -3.1971    1.0928   -0.1197 N   0  0  0  0  0  0  0  0  0  0  0  0
   -2.9565    1.5306    1.2690 C   0  0  0  0  0  0  0  0  0  0  0  0
   -1.4535    1.7894    1.3286 C   0  0  0  0  0  0  0  0  0  0  0  0
   -0.9060    0.7176    0.3947 C   0  0  0  0  0  0  0  0  0  0  0  0
    0.4837    0.9519   -0.0451 C   0  0  0  0  0  0  0  0  0  0  0  0
    1.5265    0.1634    0.0601 N   0  0  0  0  0  0  0  0  0  0  0  0
    2.5367    0.9043   -0.5194 C   0  0  0  0  0  0  0  0  0  0  0  0
    3.9152    0.4405   -0.6436 C   0  0  0  0  0  0  0  0  0  0  0  0
    4.8888    1.2396   -1.2809 C   0  0  0  0  0  0  0  0  0  0  0  0
    6.2092    0.8147   -1.4101 C   0  0  0  0  0  0  0  0  0  0  0  0
    6.6119   -0.4220   -0.9098 C   0  0  0  0  0  0  0  0  0  0  0  0
    5.6475   -1.2149   -0.2771 C   0  0  0  0  0  0  0  0  0  0  0  0
    4.3110   -0.8219   -0.1281 C   0  0  0  0  0  0  0  0  0  0  0  0
    3.6619   -1.8935    0.5620 C   0  0  0  0  0  0  0  0  0  0  0  0
    4.5881   -2.8801    0.8072 C   0  0  0  0  0  0  0  0  0  0  0  0
    5.7834   -2.4602    0.2962 N   0  0  0  0  0  0  0  0  0  0  0  0
    2.1214    2.1044   -0.9668 N   0  0  0  0  0  0  0  0  0  0  0  0
    0.7683    2.1366   -0.6526 O   0  0  0  0  0  0  0  0  0  0  0  0
   -1.9139    0.7387   -0.7539 C   0  0  0  0  0  0  0  0  0  0  0  0
   -7.7277    0.3143   -0.4923 H   0  0  0  0  0  0  0  0  0  0  0  0
   -7.4112   -2.1402   -0.4981 H   0  0  0  0  0  0  0  0  0  0  0  0
   -5.1248   -3.0892   -0.3270 H   0  0  0  0  0  0  0  0  0  0  0  0
   -3.1788   -1.6194   -0.1395 H   0  0  0  0  0  0  0  0  0  0  0  0
   -3.2203    0.7467    1.9912 H   0  0  0  0  0  0  0  0  0  0  0  0
   -3.5211    2.4362    1.5115 H   0  0  0  0  0  0  0  0  0  0  0  0
   -1.0589    1.7102    2.3464 H   0  0  0  0  0  0  0  0  0  0  0  0
   -1.2325    2.7991    0.9598 H   0  0  0  0  0  0  0  0  0  0  0  0
   -0.9624   -0.2554    0.9015 H   0  0  0  0  0  0  0  0  0  0  0  0
    4.6151    2.2128   -1.6859 H   0  0  0  0  0  0  0  0  0  0  0  0
    6.9338    1.4558   -1.9073 H   0  0  0  0  0  0  0  0  0  0  0  0
    7.6410   -0.7525   -1.0108 H   0  0  0  0  0  0  0  0  0  0  0  0
    2.6200   -1.9379    0.8510 H   0  0  0  0  0  0  0  0  0  0  0  0
    4.4968   -3.8389    1.2994 H   0  0  0  0  0  0  0  0  0  0  0  0
    6.6480   -2.9823    0.3306 H   0  0  0  0  0  0  0  0  0  0  0  0
   -1.9191   -0.2051   -1.3097 H   0  0  0  0  0  0  0  0  0  0  0  0
   -1.6785    1.5258   -1.4815 H   0  0  0  0  0  0  0  0  0  0  0  0
  1  2  1  0
  2  3  2  0
  3  4  1  0
  4  5  2  0
  5  6  1  0
  6  7  2  0
  7  8  1  0
  8  9  1  0
  9 10  1  0
 10 11  1  0
 11 12  1  0
 12 13  2  0
 13 14  1  0
 14 15  1  0
 15 16  1  0
 16 17  2  0
 17 18  1  0
 18 19  2  0
 19 20  1  0
 20 21  1  0
 21 22  2  0
 22 23  1  0
 14 24  2  0
 24 25  1  0
 11 26  1  0
  7  2  1  0
 26  8  1  0
 25 12  1  0
 20 15  2  0
 23 19  1  0
  3 27  1  0
  4 28  1  0
  5 29  1  0
  6 30  1  0
  9 31  1  0
  9 32  1  0
 10 33  1  0
 10 34  1  0
 11 35  1  0
 16 36  1  0
 17 37  1  0
 18 38  1  0
 21 39  1  0
 22 40  1  0
 23 41  1  0
 26 42  1  0
 26 43  1  0
M  END
$$$$
OCNT-2315045
     RDKit          3D

 49 51  0  0  0  0  0  0  0  0999 V2000
   -1.0745   -3.1515    1.1572 C   0  0  0  0  0  0  0  0  0  0  0  0
   -0.8795   -2.3974   -0.1589 C   0  0  0  0  0  0  0  0  0  0  0  0
   -1.3144   -3.2849   -1.3290 C   0  0  0  0  0  0  0  0  0  0  0  0
   -1.6621   -1.0662   -0.1999 C   0  0  0  0  0  0  0  0  0  0  0  0
   -1.2495   -0.0252    0.8649 C   0  0  0  0  0  0  0  0  0  0  0  0
    0.1723    0.4170    0.7021 C   0  0  0  0  0  0  0  0  0  0  0  0
    0.8716    0.6512   -0.3890 N   0  0  0  0  0  0  0  0  0  0  0  0
    2.1053    0.9714    0.1219 C   0  0  0  0  0  0  0  0  0  0  0  0
    3.2749    1.2925   -0.7418 C   0  0  0  0  0  0  0  0  0  0  0  0
    3.9827    0.0728   -1.2344 C   0  0  0  0  0  0  0  0  0  0  0  0
    3.9338   -0.5518   -2.4649 C   0  0  0  0  0  0  0  0  0  0  0  0
    4.7513   -1.6492   -2.4957 N   0  0  0  0  0  0  0  0  0  0  0  0
    5.2890   -1.7129   -1.2999 C   0  0  0  0  0  0  0  0  0  0  0  0
    4.8567   -0.6934   -0.4989 N   0  0  0  0  0  0  0  0  0  0  0  0
    5.2581   -0.5002    0.8733 C   0  0  0  0  0  0  0  0  0  0  0  0
    2.1772    0.9738    1.4608 N   0  0  0  0  0  0  0  0  0  0  0  0
    0.8898    0.6001    1.8506 O   0  0  0  0  0  0  0  0  0  0  0  0
   -2.1695    1.1415    0.8704 N   0  0  0  0  0  0  0  0  0  0  0  0
   -2.1623    2.0421   -0.2861 C   0  0  0  0  0  0  0  0  0  0  0  0
   -2.9239    3.3357   -0.0470 C   0  0  0  0  0  0  0  0  0  0  0  0
   -4.3243    3.0052    0.4303 C   0  0  0  0  0  0  0  0  0  0  0  0
   -4.2420    2.2166    1.7220 C   0  0  0  0  0  0  0  0  0  0  0  0
   -3.3131    1.0194    1.6582 C   0  0  0  0  0  0  0  0  0  0  0  0
   -3.5307    0.0348    2.3649 O   0  0  0  0  0  0  0  0  0  0  0  0
   -2.1368   -3.3135    1.3684 H   0  0  0  0  0  0  0  0  0  0  0  0
   -0.5846   -4.1307    1.1199 H   0  0  0  0  0  0  0  0  0  0  0  0
   -0.6373   -2.6063    1.9988 H   0  0  0  0  0  0  0  0  0  0  0  0
    0.1910   -2.1941   -0.2823 H   0  0  0  0  0  0  0  0  0  0  0  0
   -0.7437   -4.2196   -1.3419 H   0  0  0  0  0  0  0  0  0  0  0  0
   -2.3781   -3.5379   -1.2626 H   0  0  0  0  0  0  0  0  0  0  0  0
   -1.1443   -2.7790   -2.2853 H   0  0  0  0  0  0  0  0  0  0  0  0
   -2.7334   -1.2834   -0.0922 H   0  0  0  0  0  0  0  0  0  0  0  0
   -1.5453   -0.6270   -1.2000 H   0  0  0  0  0  0  0  0  0  0  0  0
   -1.3232   -0.4963    1.8517 H   0  0  0  0  0  0  0  0  0  0  0  0
    2.9236    1.8772   -1.6015 H   0  0  0  0  0  0  0  0  0  0  0  0
    3.9757    1.9428   -0.2048 H   0  0  0  0  0  0  0  0  0  0  0  0
    3.3503   -0.2657   -3.3311 H   0  0  0  0  0  0  0  0  0  0  0  0
    5.9875   -2.4695   -0.9662 H   0  0  0  0  0  0  0  0  0  0  0  0
    5.4542    0.5606    1.0447 H   0  0  0  0  0  0  0  0  0  0  0  0
    6.1708   -1.0701    1.0670 H   0  0  0  0  0  0  0  0  0  0  0  0
    4.4537   -0.8577    1.5199 H   0  0  0  0  0  0  0  0  0  0  0  0
   -2.6103    1.5021   -1.1284 H   0  0  0  0  0  0  0  0  0  0  0  0
   -1.1331    2.2958   -0.5518 H   0  0  0  0  0  0  0  0  0  0  0  0
   -2.9665    3.9209   -0.9720 H   0  0  0  0  0  0  0  0  0  0  0  0
   -2.4057    3.9447    0.7037 H   0  0  0  0  0  0  0  0  0  0  0  0
   -4.8975    3.9250    0.5893 H   0  0  0  0  0  0  0  0  0  0  0  0
   -4.8510    2.4204   -0.3338 H   0  0  0  0  0  0  0  0  0  0  0  0
   -5.2438    1.8610    1.9884 H   0  0  0  0  0  0  0  0  0  0  0  0
   -3.8890    2.8591    2.5374 H   0  0  0  0  0  0  0  0  0  0  0  0
  1  2  1  0
  2  3  1  0
  2  4  1  0
  4  5  1  0
  5  6  1  0
  6  7  2  0
  7  8  1  0
  8  9  1  0
  9 10  1  0
 10 11  2  0
 11 12  1  0
 12 13  2  0
 13 14  1  0
 14 15  1  0
  8 16  2  0
 16 17  1  0
  5 18  1  0
 18 19  1  0
 19 20  1  0
 20 21  1  0
 21 22  1  0
 22 23  1  0
 23 24  2  0
 17  6  1  0
 23 18  1  0
 14 10  1  0
  1 25  1  0
  1 26  1  0
  1 27  1  0
  2 28  1  0
  3 29  1  0
  3 30  1  0
  3 31  1  0
  4 32  1  0
  4 33  1  0
  5 34  1  0
  9 35  1  0
  9 36  1  0
 11 37  1  0
 13 38  1  0
 15 39  1  0
 15 40  1  0
 15 41  1  0
 19 42  1  0
 19 43  1  0
 20 44  1  0
 20 45  1  0
 21 46  1  0
 21 47  1  0
 22 48  1  0
 22 49  1  0
M  END
$$$$
OCNT-2315052
     RDKit          3D

 38 40  0  0  0  0  0  0  0  0999 V2000
   -2.8483   -1.5267   -1.4890 C   0  0  0  0  0  0  0  0  0  0  0  0
   -1.6925   -0.8340   -0.7224 C   0  0  0  0  0  0  0  0  0  0  0  0
   -1.2815   -1.8107    0.4047 C   0  0  0  0  0  0  0  0  0  0  0  0
   -0.4987   -0.6559   -1.7193 C   0  0  0  0  0  0  0  0  0  0  0  0
    0.6042    0.1417   -1.1892 N   0  0  0  0  0  0  0  0  0  0  0  0
    1.6510   -0.5122   -0.5110 C   0  0  0  0  0  0  0  0  0  0  0  0
    1.8231   -1.8425   -0.7017 N   0  0  0  0  0  0  0  0  0  0  0  0
    2.8730   -2.4299   -0.1023 C   0  0  0  0  0  0  0  0  0  0  0  0
    3.7751   -1.7505    0.6871 C   0  0  0  0  0  0  0  0  0  0  0  0
    3.6064   -0.3948    0.8838 C   0  0  0  0  0  0  0  0  0  0  0  0
    4.4910    0.2592    1.6652 N   0  0  0  0  0  0  0  0  0  0  0  0
    4.2856    1.5833    1.8352 C   0  0  0  0  0  0  0  0  0  0  0  0
    3.2259    2.2436    1.2526 C   0  0  0  0  0  0  0  0  0  0  0  0
    2.3276    1.6073    0.4737 N   0  0  0  0  0  0  0  0  0  0  0  0
    2.5207    0.2712    0.2745 C   0  0  0  0  0  0  0  0  0  0  0  0
   -2.2057    0.5243   -0.2023 C   0  0  0  0  0  0  0  0  0  0  0  0
   -2.2784    0.8369    1.1617 C   0  0  0  0  0  0  0  0  0  0  0  0
   -2.7440    2.0862    1.5534 C   0  0  0  0  0  0  0  0  0  0  0  0
   -3.1426    3.0463    0.6962 N   0  0  0  0  0  0  0  0  0  0  0  0
   -3.0710    2.7416   -0.6136 C   0  0  0  0  0  0  0  0  0  0  0  0
   -2.6205    1.5218   -1.1007 C   0  0  0  0  0  0  0  0  0  0  0  0
   -3.7288   -1.6551   -0.8480 H   0  0  0  0  0  0  0  0  0  0  0  0
   -2.5468   -2.5191   -1.8442 H   0  0  0  0  0  0  0  0  0  0  0  0
   -3.1645   -0.9530   -2.3675 H   0  0  0  0  0  0  0  0  0  0  0  0
   -2.1347   -2.0620    1.0465 H   0  0  0  0  0  0  0  0  0  0  0  0
   -0.9044   -2.7535   -0.0087 H   0  0  0  0  0  0  0  0  0  0  0  0
   -0.4997   -1.3970    1.0494 H   0  0  0  0  0  0  0  0  0  0  0  0
   -0.1604   -1.6296   -2.0964 H   0  0  0  0  0  0  0  0  0  0  0  0
   -0.8536   -0.1263   -2.6126 H   0  0  0  0  0  0  0  0  0  0  0  0
    0.3189    0.9630   -0.6535 H   0  0  0  0  0  0  0  0  0  0  0  0
    2.9754   -3.4964   -0.2817 H   0  0  0  0  0  0  0  0  0  0  0  0
    4.6068   -2.2705    1.1486 H   0  0  0  0  0  0  0  0  0  0  0  0
    5.0042    2.1010    2.4602 H   0  0  0  0  0  0  0  0  0  0  0  0
    3.0669    3.3062    1.3954 H   0  0  0  0  0  0  0  0  0  0  0  0
   -1.9812    0.1390    1.9359 H   0  0  0  0  0  0  0  0  0  0  0  0
   -2.8077    2.3508    2.6052 H   0  0  0  0  0  0  0  0  0  0  0  0
   -3.3942    3.5272   -1.2905 H   0  0  0  0  0  0  0  0  0  0  0  0
   -2.5967    1.3687   -2.1747 H   0  0  0  0  0  0  0  0  0  0  0  0
  1  2  1  0
  2  3  1  0
  2  4  1  0
  4  5  1  0
  5  6  1  0
  6  7  1  0
  7  8  2  0
  8  9  1  0
  9 10  2  0
 10 11  1  0
 11 12  2  0
 12 13  1  0
 13 14  2  0
 14 15  1  0
  2 16  1  0
 16 17  2  0
 17 18  1  0
 18 19  2  0
 19 20  1  0
 20 21  2  0
 15  6  2  0
 21 16  1  0
 15 10  1  0
  1 22  1  0
  1 23  1  0
  1 24  1  0
  3 25  1  0
  3 26  1  0
  3 27  1  0
  4 28  1  0
  4 29  1  0
  5 30  1  0
  8 31  1  0
  9 32  1  0
 12 33  1  0
 13 34  1  0
 17 35  1  0
 18 36  1  0
 20 37  1  0
 21 38  1  0
M  END
$$$$
OCNT-2315056
     RDKit          3D

 46 49  0  0  0  0  0  0  0  0999 V2000
    6.6018   -0.9640   -0.8661 C   0  0  0  0  0  0  0  0  0  0  0  0
    5.1414   -0.6968   -0.6087 C   0  0  0  0  0  0  0  0  0  0  0  0
    4.2976   -1.7870   -0.3044 C   0  0  0  0  0  0  0  0  0  0  0  0
    2.9328   -1.5578   -0.0631 C   0  0  0  0  0  0  0  0  0  0  0  0
    2.4586   -0.2592   -0.1322 C   0  0  0  0  0  0  0  0  0  0  0  0
    3.2500    0.8472   -0.4265 C   0  0  0  0  0  0  0  0  0  0  0  0
    4.6178    0.6152   -0.6663 C   0  0  0  0  0  0  0  0  0  0  0  0
    5.5010    1.7917   -0.9917 C   0  0  0  0  0  0  0  0  0  0  0  0
    1.1244   -0.2280    0.1268 O   0  0  0  0  0  0  0  0  0  0  0  0
    0.7137   -1.5108    0.3675 C   0  0  0  0  0  0  0  0  0  0  0  0
   -0.6706   -1.8485    0.6797 C   0  0  0  0  0  0  0  0  0  0  0  0
   -0.9745   -3.0277    0.8926 O   0  0  0  0  0  0  0  0  0  0  0  0
   -1.6701   -0.8604    0.7566 N   0  0  0  0  0  0  0  0  0  0  0  0
   -1.4700    0.5183    0.3081 C   0  0  0  0  0  0  0  0  0  0  0  0
   -2.6575    1.4438    0.4541 C   0  0  0  0  0  0  0  0  0  0  0  0
   -2.5510    2.7646   -0.0100 C   0  0  0  0  0  0  0  0  0  0  0  0
   -3.6149    3.6561    0.1279 C   0  0  0  0  0  0  0  0  0  0  0  0
   -4.7958    3.2401    0.7362 C   0  0  0  0  0  0  0  0  0  0  0  0
   -4.9155    1.9315    1.2017 C   0  0  0  0  0  0  0  0  0  0  0  0
   -3.8554    1.0268    1.0523 C   0  0  0  0  0  0  0  0  0  0  0  0
   -3.9760   -0.3788    1.5708 C   0  0  0  0  0  0  0  0  0  0  0  0
   -3.0549   -1.3477    0.8243 C   0  0  1  0  0  0  0  0  0  0  0  0
   -3.5950   -1.6782   -0.5870 C   0  0  0  0  0  0  0  0  0  0  0  0
   -4.7421   -2.4270   -0.6222 N   0  0  0  0  0  0  0  0  0  0  0  0
   -3.0812   -1.3073   -1.6391 O   0  0  0  0  0  0  0  0  0  0  0  0
    1.8077   -2.3571    0.2582 C   0  0  0  0  0  0  0  0  0  0  0  0
    7.2182   -0.4499   -0.1221 H   0  0  0  0  0  0  0  0  0  0  0  0
    6.8794   -0.6262   -1.8695 H   0  0  0  0  0  0  0  0  0  0  0  0
    6.8324   -2.0328   -0.8041 H   0  0  0  0  0  0  0  0  0  0  0  0
    4.6907   -2.7989   -0.2573 H   0  0  0  0  0  0  0  0  0  0  0  0
    2.8160    1.8395   -0.4660 H   0  0  0  0  0  0  0  0  0  0  0  0
    6.3165    1.8687   -0.2657 H   0  0  0  0  0  0  0  0  0  0  0  0
    5.9152    1.6876   -1.9994 H   0  0  0  0  0  0  0  0  0  0  0  0
    4.9434    2.7338   -0.9588 H   0  0  0  0  0  0  0  0  0  0  0  0
   -0.6649    0.9471    0.9135 H   0  0  0  0  0  0  0  0  0  0  0  0
   -1.1656    0.4899   -0.7446 H   0  0  0  0  0  0  0  0  0  0  0  0
   -1.6321    3.1046   -0.4835 H   0  0  0  0  0  0  0  0  0  0  0  0
   -3.5207    4.6752   -0.2376 H   0  0  0  0  0  0  0  0  0  0  0  0
   -5.6239    3.9350    0.8477 H   0  0  0  0  0  0  0  0  0  0  0  0
   -5.8423    1.6203    1.6779 H   0  0  0  0  0  0  0  0  0  0  0  0
   -3.7032   -0.3644    2.6338 H   0  0  0  0  0  0  0  0  0  0  0  0
   -5.0175   -0.7147    1.5020 H   0  0  0  0  0  0  0  0  0  0  0  0
   -3.0729   -2.2928    1.3822 H   0  0  0  0  0  0  0  0  0  0  0  0
   -4.9540   -3.0630    0.1349 H   0  0  0  0  0  0  0  0  0  0  0  0
   -5.0161   -2.7284   -1.5499 H   0  0  0  0  0  0  0  0  0  0  0  0
    1.7789   -3.4293    0.3958 H   0  0  0  0  0  0  0  0  0  0  0  0
  1  2  1  0
  2  3  1  0
  3  4  2  0
  4  5  1  0
  5  6  2  0
  6  7  1  0
  7  8  1  0
  5  9  1  0
  9 10  1  0
 10 11  1  0
 11 12  2  0
 11 13  1  0
 13 14  1  0
 14 15  1  0
 15 16  2  0
 16 17  1  0
 17 18  2  0
 18 19  1  0
 19 20  2  0
 20 21  1  0
 21 22  1  0
 22 23  1  0
 23 24  1  0
 23 25  2  0
 10 26  2  0
  7  2  2  0
 22 13  1  0
 26  4  1  0
 20 15  1  0
  1 27  1  0
  1 28  1  0
  1 29  1  0
  3 30  1  0
  6 31  1  0
  8 32  1  0
  8 33  1  0
  8 34  1  0
 14 35  1  0
 14 36  1  0
 16 37  1  0
 17 38  1  0
 18 39  1  0
 19 40  1  0
 21 41  1  0
 21 42  1  0
 22 43  1  1
 24 44  1  0
 24 45  1  0
 26 46  1  0
M  END
$$$$
OCNT-2315064
     RDKit          3D

 46 49  0  0  0  0  0  0  0  0999 V2000
   -4.2637    2.6724    0.2911 C   0  0  0  0  0  0  0  0  0  0  0  0
   -4.9393    1.4224   -0.1721 C   0  0  0  0  0  0  0  0  0  0  0  0
   -6.1098    1.4777   -0.9184 C   0  0  0  0  0  0  0  0  0  0  0  0
   -6.7717    0.3923   -1.3796 N   0  0  0  0  0  0  0  0  0  0  0  0
   -6.2485   -0.8157   -1.0760 C   0  0  0  0  0  0  0  0  0  0  0  0
   -5.0814   -0.9873   -0.3561 C   0  0  0  0  0  0  0  0  0  0  0  0
   -4.4111    0.1542    0.0747 C   0  0  0  0  0  0  0  0  0  0  0  0
   -3.2674    0.0497    0.8208 O   0  0  0  0  0  0  0  0  0  0  0  0
   -2.1638   -0.5116    0.0861 C   0  0  0  0  0  0  0  0  0  0  0  0
   -1.0523    0.5457    0.0691 C   0  0  0  0  0  0  0  0  0  0  0  0
    0.3207   -0.0902   -0.0910 C   0  0  0  0  0  0  0  0  0  0  0  0
    0.6051   -1.0484    0.9846 N   0  0  0  0  0  0  0  0  0  0  0  0
    1.8657   -1.2433    1.5504 C   0  0  0  0  0  0  0  0  0  0  0  0
    2.0402   -1.7940    2.6350 O   0  0  0  0  0  0  0  0  0  0  0  0
    3.0652   -0.7666    0.8377 C   0  0  0  0  0  0  0  0  0  0  0  0
    4.0209   -0.0494    1.5603 C   0  0  0  0  0  0  0  0  0  0  0  0
    5.1805    0.4564    1.0577 N   0  0  0  0  0  0  0  0  0  0  0  0
    5.3355    0.1596   -0.2494 C   0  0  0  0  0  0  0  0  0  0  0  0
    4.4769   -0.5645   -1.0666 C   0  0  0  0  0  0  0  0  0  0  0  0
    3.2941   -1.0642   -0.5115 C   0  0  0  0  0  0  0  0  0  0  0  0
    5.0039   -0.6419   -2.3279 N   0  0  0  0  0  0  0  0  0  0  0  0
    6.1625    0.0132   -2.3319 N   0  0  0  0  0  0  0  0  0  0  0  0
    6.3668    0.4848   -1.0833 N   0  0  0  0  0  0  0  0  0  0  0  0
    7.5571    1.2254   -0.7708 C   0  0  0  0  0  0  0  0  0  0  0  0
   -0.5450   -1.6035    1.6971 C   0  0  0  0  0  0  0  0  0  0  0  0
   -1.7301   -1.8164    0.7652 C   0  0  0  0  0  0  0  0  0  0  0  0
   -3.4349    2.9226   -0.3772 H   0  0  0  0  0  0  0  0  0  0  0  0
   -4.9602    3.5182    0.3130 H   0  0  0  0  0  0  0  0  0  0  0  0
   -3.8805    2.5501    1.3096 H   0  0  0  0  0  0  0  0  0  0  0  0
   -6.5704    2.4287   -1.1764 H   0  0  0  0  0  0  0  0  0  0  0  0
   -6.8165   -1.6702   -1.4316 H   0  0  0  0  0  0  0  0  0  0  0  0
   -4.7176   -1.9814   -0.1274 H   0  0  0  0  0  0  0  0  0  0  0  0
   -2.4444   -0.7381   -0.9533 H   0  0  0  0  0  0  0  0  0  0  0  0
   -1.2392    1.2590   -0.7449 H   0  0  0  0  0  0  0  0  0  0  0  0
   -1.0785    1.1361    0.9960 H   0  0  0  0  0  0  0  0  0  0  0  0
    1.0824    0.6944   -0.1034 H   0  0  0  0  0  0  0  0  0  0  0  0
    0.3735   -0.6374   -1.0397 H   0  0  0  0  0  0  0  0  0  0  0  0
    3.8668    0.1525    2.6204 H   0  0  0  0  0  0  0  0  0  0  0  0
    2.6087   -1.6593   -1.1019 H   0  0  0  0  0  0  0  0  0  0  0  0
    8.4238    0.6578   -1.1173 H   0  0  0  0  0  0  0  0  0  0  0  0
    7.5069    2.1911   -1.2799 H   0  0  0  0  0  0  0  0  0  0  0  0
    7.6268    1.3755    0.3092 H   0  0  0  0  0  0  0  0  0  0  0  0
   -0.8038   -0.9055    2.5022 H   0  0  0  0  0  0  0  0  0  0  0  0
   -0.2618   -2.5531    2.1642 H   0  0  0  0  0  0  0  0  0  0  0  0
   -1.4323   -2.5335   -0.0089 H   0  0  0  0  0  0  0  0  0  0  0  0
   -2.5601   -2.2641    1.3213 H   0  0  0  0  0  0  0  0  0  0  0  0
  1  2  1  0
  2  3  2  0
  3  4  1  0
  4  5  2  0
  5  6  1  0
  6  7  2  0
  7  8  1  0
  8  9  1  0
  9 10  1  0
 10 11  1  0
 11 12  1  0
 12 13  1  0
 13 14  2  0
 13 15  1  0
 15 16  2  0
 16 17  1  0
 17 18  2  0
 18 19  1  0
 19 20  2  0
 19 21  1  0
 21 22  2  0
 22 23  1  0
 23 24  1  0
 12 25  1  0
 25 26  1  0
  7  2  1  0
 26  9  1  0
 20 15  1  0
 23 18  1  0
  1 27  1  0
  1 28  1  0
  1 29  1  0
  3 30  1  0
  5 31  1  0
  6 32  1  0
  9 33  1  0
 10 34  1  0
 10 35  1  0
 11 36  1  0
 11 37  1  0
 16 38  1  0
 20 39  1  0
 24 40  1  0
 24 41  1  0
 24 42  1  0
 25 43  1  0
 25 44  1  0
 26 45  1  0
 26 46  1  0
M  END
$$$$
OCNT-2315086
     RDKit          3D

 41 44  0  0  0  0  0  0  0  0999 V2000
    7.2104    1.8768   -1.0693 O   0  0  0  0  0  0  0  0  0  0  0  0
    6.4746    1.0102   -0.6058 C   0  0  0  0  0  0  0  0  0  0  0  0
    5.6073    1.2517    0.6053 C   0  0  0  0  0  0  0  0  0  0  0  0
    5.1192   -0.0604    1.1971 C   0  0  0  0  0  0  0  0  0  0  0  0
    4.3899   -0.8903    0.1399 C   0  0  0  0  0  0  0  0  0  0  0  0
    3.0877   -0.3494   -0.2445 N   0  0  0  0  0  0  0  0  0  0  0  0
    2.0267   -0.3868    0.6378 C   0  0  0  0  0  0  0  0  0  0  0  0
    2.1362   -0.7363    1.8066 O   0  0  0  0  0  0  0  0  0  0  0  0
    0.6922   -0.0142    0.0884 C   0  0  0  0  0  0  0  0  0  0  0  0
    0.5671    0.8524   -1.0142 C   0  0  0  0  0  0  0  0  0  0  0  0
   -0.6954    1.2017   -1.5235 C   0  0  0  0  0  0  0  0  0  0  0  0
   -1.8307    0.6707   -0.8991 C   0  0  0  0  0  0  0  0  0  0  0  0
   -3.1643    0.8300   -1.1685 N   0  0  0  0  0  0  0  0  0  0  0  0
   -3.7641    0.0961   -0.2457 C   0  0  0  0  0  0  0  0  0  0  0  0
   -5.1930   -0.1215   -0.0308 C   0  0  0  0  0  0  0  0  0  0  0  0
   -5.6741   -0.9350    1.0066 C   0  0  0  0  0  0  0  0  0  0  0  0
   -7.0472   -1.1246    1.1877 C   0  0  0  0  0  0  0  0  0  0  0  0
   -7.9565   -0.5035    0.3342 C   0  0  0  0  0  0  0  0  0  0  0  0
   -7.4959    0.3073   -0.7004 C   0  0  0  0  0  0  0  0  0  0  0  0
   -6.1232    0.4965   -0.8809 C   0  0  0  0  0  0  0  0  0  0  0  0
   -2.9060   -0.5409    0.6183 O   0  0  0  0  0  0  0  0  0  0  0  0
   -1.6669   -0.1662    0.1912 C   0  0  0  0  0  0  0  0  0  0  0  0
   -0.4426   -0.5385    0.7303 C   0  0  0  0  0  0  0  0  0  0  0  0
    5.2267   -0.9997   -1.1406 C   0  0  0  0  0  0  0  0  0  0  0  0
    4.8553   -1.6652   -2.1076 O   0  0  0  0  0  0  0  0  0  0  0  0
    6.3373   -0.2014   -1.2315 N   0  0  0  0  0  0  0  0  0  0  0  0
    4.7670    1.8875    0.3066 H   0  0  0  0  0  0  0  0  0  0  0  0
    6.2009    1.7904    1.3516 H   0  0  0  0  0  0  0  0  0  0  0  0
    4.4851    0.1424    2.0657 H   0  0  0  0  0  0  0  0  0  0  0  0
    5.9843   -0.6305    1.5612 H   0  0  0  0  0  0  0  0  0  0  0  0
    4.2326   -1.9054    0.5241 H   0  0  0  0  0  0  0  0  0  0  0  0
    2.8513   -0.4391   -1.2287 H   0  0  0  0  0  0  0  0  0  0  0  0
    1.4459    1.2915   -1.4811 H   0  0  0  0  0  0  0  0  0  0  0  0
   -0.7976    1.8710   -2.3711 H   0  0  0  0  0  0  0  0  0  0  0  0
   -4.9838   -1.4303    1.6863 H   0  0  0  0  0  0  0  0  0  0  0  0
   -7.4052   -1.7575    1.9960 H   0  0  0  0  0  0  0  0  0  0  0  0
   -9.0242   -0.6512    0.4756 H   0  0  0  0  0  0  0  0  0  0  0  0
   -8.2026    0.7936   -1.3680 H   0  0  0  0  0  0  0  0  0  0  0  0
   -5.7780    1.1334   -1.6941 H   0  0  0  0  0  0  0  0  0  0  0  0
   -0.3753   -1.1947    1.5902 H   0  0  0  0  0  0  0  0  0  0  0  0
    6.8291   -0.2606   -2.1137 H   0  0  0  0  0  0  0  0  0  0  0  0
  1  2  2  0
  2  3  1  0
  3  4  1  0
  4  5  1  0
  5  6  1  0
  6  7  1  0
  7  8  2  0
  7  9  1  0
  9 10  2  0
 10 11  1  0
 11 12  2  0
 12 13  1  0
 13 14  2  0
 14 15  1  0
 15 16  2  0
 16 17  1  0
 17 18  2  0
 18 19  1  0
 19 20  2  0
 14 21  1  0
 21 22  1  0
 22 23  2  0
  5 24  1  0
 24 25  2  0
 24 26  1  0
 26  2  1  0
 23  9  1  0
 22 12  1  0
 20 15  1  0
  3 27  1  0
  3 28  1  0
  4 29  1  0
  4 30  1  0
  5 31  1  0
  6 32  1  0
 10 33  1  0
 11 34  1  0
 16 35  1  0
 17 36  1  0
 18 37  1  0
 19 38  1  0
 20 39  1  0
 23 40  1  0
 26 41  1  0
M  END
$$$$
OCNT-2315091
     RDKit          3D

 42 45  0  0  0  0  0  0  0  0999 V2000
    6.4342    0.6209   -2.0493 C   0  0  0  0  0  0  0  0  0  0  0  0
    5.0552    0.7255   -1.6401 N   0  0  0  0  0  0  0  0  0  0  0  0
    4.0578    1.3995   -2.2777 C   0  0  0  0  0  0  0  0  0  0  0  0
    2.9308    1.2152   -1.5134 C   0  0  0  0  0  0  0  0  0  0  0  0
    3.3488    0.4113   -0.4238 C   0  0  0  0  0  0  0  0  0  0  0  0
    2.5378   -0.1191    0.7280 C   0  0  0  0  0  0  0  0  0  0  0  0
    1.6119   -1.2661    0.2935 C   0  0  0  0  0  0  0  0  0  0  0  0
    0.2202   -0.7853   -0.1078 C   0  0  0  0  0  0  0  0  0  0  0  0
   -0.3894    0.0474    0.9350 N   0  0  0  0  0  0  0  0  0  0  0  0
   -1.7310   -0.1775    1.2549 C   0  0  0  0  0  0  0  0  0  0  0  0
   -2.6667   -0.4251    0.2624 C   0  0  0  0  0  0  0  0  0  0  0  0
   -3.9924   -0.6247    0.6208 C   0  0  0  0  0  0  0  0  0  0  0  0
   -5.0410   -0.9070   -0.4298 C   0  0  0  0  0  0  0  0  0  0  0  0
   -5.3772    0.1387   -1.4691 C   0  0  0  0  0  0  0  0  0  0  0  0
   -6.3652   -0.1786   -0.3876 C   0  0  0  0  0  0  0  0  0  0  0  0
   -4.3701   -0.5857    1.9128 N   0  0  0  0  0  0  0  0  0  0  0  0
   -3.4098   -0.3223    2.8050 C   0  0  0  0  0  0  0  0  0  0  0  0
   -2.1146   -0.1105    2.5400 N   0  0  0  0  0  0  0  0  0  0  0  0
    0.4615    0.4976    2.0393 C   0  0  0  0  0  0  0  0  0  0  0  0
    1.7876    0.9954    1.4756 C   0  0  0  0  0  0  0  0  0  0  0  0
    4.6510    0.1088   -0.5161 N   0  0  0  0  0  0  0  0  0  0  0  0
    7.0617    1.0357   -1.2565 H   0  0  0  0  0  0  0  0  0  0  0  0
    6.6665   -0.4346   -2.2117 H   0  0  0  0  0  0  0  0  0  0  0  0
    6.5829    1.1823   -2.9749 H   0  0  0  0  0  0  0  0  0  0  0  0
    4.2262    1.9434   -3.1962 H   0  0  0  0  0  0  0  0  0  0  0  0
    1.9440    1.6108   -1.7087 H   0  0  0  0  0  0  0  0  0  0  0  0
    3.2484   -0.5594    1.4438 H   0  0  0  0  0  0  0  0  0  0  0  0
    1.5024   -1.9618    1.1372 H   0  0  0  0  0  0  0  0  0  0  0  0
    2.0548   -1.8488   -0.5236 H   0  0  0  0  0  0  0  0  0  0  0  0
   -0.3816   -1.6780   -0.3207 H   0  0  0  0  0  0  0  0  0  0  0  0
    0.2723   -0.2040   -1.0351 H   0  0  0  0  0  0  0  0  0  0  0  0
   -2.3862   -0.4406   -0.7827 H   0  0  0  0  0  0  0  0  0  0  0  0
   -5.0887   -1.9440   -0.7541 H   0  0  0  0  0  0  0  0  0  0  0  0
   -4.8812    1.1020   -1.4255 H   0  0  0  0  0  0  0  0  0  0  0  0
   -5.5997   -0.1997   -2.4744 H   0  0  0  0  0  0  0  0  0  0  0  0
   -6.5233    0.5579    0.3929 H   0  0  0  0  0  0  0  0  0  0  0  0
   -7.2551   -0.7378   -0.6514 H   0  0  0  0  0  0  0  0  0  0  0  0
   -3.7086   -0.2759    3.8462 H   0  0  0  0  0  0  0  0  0  0  0  0
   -0.0079    1.3334    2.5738 H   0  0  0  0  0  0  0  0  0  0  0  0
    0.6298   -0.3120    2.7611 H   0  0  0  0  0  0  0  0  0  0  0  0
    1.5870    1.8522    0.8198 H   0  0  0  0  0  0  0  0  0  0  0  0
    2.4174    1.3787    2.2880 H   0  0  0  0  0  0  0  0  0  0  0  0
  1  2  1  0
  2  3  1  0
  3  4  2  0
  4  5  1  0
  5  6  1  0
  6  7  1  0
  7  8  1  0
  8  9  1  0
  9 10  1  0
 10 11  2  0
 11 12  1  0
 12 13  1  0
 13 14  1  0
 14 15  1  0
 12 16  2  0
 16 17  1  0
 17 18  2  0
  9 19  1  0
 19 20  1  0
  5 21  2  0
 21  2  1  0
 20  6  1  0
 18 10  1  0
 15 13  1  0
  1 22  1  0
  1 23  1  0
  1 24  1  0
  3 25  1  0
  4 26  1  0
  6 27  1  0
  7 28  1  0
  7 29  1  0
  8 30  1  0
  8 31  1  0
 11 32  1  0
 13 33  1  0
 14 34  1  0
 14 35  1  0
 15 36  1  0
 15 37  1  0
 17 38  1  0
 19 39  1  0
 19 40  1  0
 20 41  1  0
 20 42  1  0
M  END
$$$$
OCNT-2315092
     RDKit          3D

 39 42  0  0  0  0  0  0  0  0999 V2000
   -4.8894    0.2144   -2.3212 C   0  0  0  0  0  0  0  0  0  0  0  0
   -4.4308    0.9204   -1.1534 N   0  0  0  0  0  0  0  0  0  0  0  0
   -5.0571    1.9816   -0.5574 C   0  0  0  0  0  0  0  0  0  0  0  0
   -4.3981    2.4062    0.5017 N   0  0  0  0  0  0  0  0  0  0  0  0
   -3.3083    1.5805    0.5985 C   0  0  0  0  0  0  0  0  0  0  0  0
   -3.3076    0.6655   -0.4268 C   0  0  0  0  0  0  0  0  0  0  0  0
   -2.2744   -0.3691   -0.6168 C   0  0  0  0  0  0  0  0  0  0  0  0
   -0.9927    0.0565    0.1386 C   0  0  0  0  0  0  0  0  0  0  0  0
   -1.2297    0.6224    1.4886 N   0  0  0  0  0  0  0  0  0  0  0  0
   -0.3064    0.5549    2.5427 C   0  0  0  0  0  0  0  0  0  0  0  0
   -0.5780    1.0232    3.6502 O   0  0  0  0  0  0  0  0  0  0  0  0
    1.0110   -0.0741    2.3294 C   0  0  0  0  0  0  0  0  0  0  0  0
    1.7773   -0.5572    3.3755 C   0  0  0  0  0  0  0  0  0  0  0  0
    3.2613   -1.1791    2.8027 S   0  0  0  0  0  0  0  0  0  0  0  0
    2.8288   -0.7381    1.1953 C   0  0  0  0  0  0  0  0  0  0  0  0
    3.7348   -0.9627    0.0522 C   0  0  0  0  0  0  0  0  0  0  0  0
    3.5501   -0.2005   -1.1176 C   0  0  0  0  0  0  0  0  0  0  0  0
    4.3766   -0.3740   -2.2311 C   0  0  0  0  0  0  0  0  0  0  0  0
    5.3933   -1.3173   -2.1857 C   0  0  0  0  0  0  0  0  0  0  0  0
    6.1868   -1.4866   -3.2509 F   0  0  0  0  0  0  0  0  0  0  0  0
    5.5968   -2.0899   -1.0500 C   0  0  0  0  0  0  0  0  0  0  0  0
    4.7700   -1.9150    0.0652 C   0  0  0  0  0  0  0  0  0  0  0  0
    1.6469   -0.1606    1.0894 N   0  0  0  0  0  0  0  0  0  0  0  0
   -2.2606    1.6734    1.6499 C   0  0  0  0  0  0  0  0  0  0  0  0
   -4.2119    0.4410   -3.1484 H   0  0  0  0  0  0  0  0  0  0  0  0
   -5.9038    0.5369   -2.5694 H   0  0  0  0  0  0  0  0  0  0  0  0
   -4.8870   -0.8574   -2.1065 H   0  0  0  0  0  0  0  0  0  0  0  0
   -5.9814    2.4039   -0.9304 H   0  0  0  0  0  0  0  0  0  0  0  0
   -2.0450   -0.5288   -1.6752 H   0  0  0  0  0  0  0  0  0  0  0  0
   -2.6418   -1.3158   -0.2039 H   0  0  0  0  0  0  0  0  0  0  0  0
   -0.4513    0.8200   -0.4333 H   0  0  0  0  0  0  0  0  0  0  0  0
   -0.3663   -0.8356    0.2094 H   0  0  0  0  0  0  0  0  0  0  0  0
    1.5286   -0.5681    4.4278 H   0  0  0  0  0  0  0  0  0  0  0  0
    2.7565    0.5446   -1.1621 H   0  0  0  0  0  0  0  0  0  0  0  0
    4.2327    0.2216   -3.1270 H   0  0  0  0  0  0  0  0  0  0  0  0
    6.3956   -2.8248   -1.0375 H   0  0  0  0  0  0  0  0  0  0  0  0
    4.9476   -2.5431    0.9350 H   0  0  0  0  0  0  0  0  0  0  0  0
   -2.7177    1.5870    2.6416 H   0  0  0  0  0  0  0  0  0  0  0  0
   -1.7553    2.6440    1.5854 H   0  0  0  0  0  0  0  0  0  0  0  0
  1  2  1  0
  2  3  1  0
  3  4  2  0
  4  5  1  0
  5  6  2  0
  6  7  1  0
  7  8  1  0
  8  9  1  0
  9 10  1  0
 10 11  2  0
 10 12  1  0
 12 13  2  0
 13 14  1  0
 14 15  1  0
 15 16  1  0
 16 17  1  0
 17 18  2  0
 18 19  1  0
 19 20  1  0
 19 21  2  0
 21 22  1  0
 15 23  2  0
  9 24  1  0
  6  2  1  0
 23 12  1  0
 24  5  1  0
 22 16  2  0
  1 25  1  0
  1 26  1  0
  1 27  1  0
  3 28  1  0
  7 29  1  0
  7 30  1  0
  8 31  1  0
  8 32  1  0
 13 33  1  0
 17 34  1  0
 18 35  1  0
 21 36  1  0
 22 37  1  0
 24 38  1  0
 24 39  1  0
M  END
$$$$
OCNT-2315093
     RDKit          3D

 46 48  0  0  0  0  0  0  0  0999 V2000
   -7.0417   -1.8054   -1.0118 C   0  0  0  0  0  0  0  0  0  0  0  0
   -6.7081   -0.5608   -0.3206 N   0  0  0  0  0  0  0  0  0  0  0  0
   -7.6556    0.5367   -0.5094 C   0  0  0  0  0  0  0  0  0  0  0  0
   -5.3623   -0.2618   -0.0783 C   0  0  0  0  0  0  0  0  0  0  0  0
   -4.3546   -1.2375   -0.1479 C   0  0  0  0  0  0  0  0  0  0  0  0
   -3.0045   -0.9466    0.1106 C   0  0  0  0  0  0  0  0  0  0  0  0
   -2.5947    0.3417    0.4668 C   0  0  0  0  0  0  0  0  0  0  0  0
   -1.1839    0.6492    0.7415 C   0  0  0  0  0  0  0  0  0  0  0  0
   -0.7889    1.3408    1.8890 C   0  0  0  0  0  0  0  0  0  0  0  0
    0.4914    1.6673    2.1970 N   0  0  0  0  0  0  0  0  0  0  0  0
    1.4432    1.2808    1.3164 C   0  0  0  0  0  0  0  0  0  0  0  0
    1.1769    0.5661    0.1580 C   0  0  0  0  0  0  0  0  0  0  0  0
    2.2426    0.1490   -0.7830 C   0  0  0  0  0  0  0  0  0  0  0  0
    1.9723   -0.0685   -1.9585 O   0  0  0  0  0  0  0  0  0  0  0  0
    3.5097   -0.0131   -0.2624 N   0  0  0  0  0  0  0  0  0  0  0  0
    4.5609   -0.5608   -1.0952 C   0  0  0  0  0  0  0  0  0  0  0  0
    5.8728   -0.4019   -0.3756 C   0  0  0  0  0  0  0  0  0  0  0  0
    6.6833   -1.4287   -0.0666 C   0  0  0  0  0  0  0  0  0  0  0  0
    7.9261   -1.1922    0.6319 C   0  0  0  0  0  0  0  0  0  0  0  0
    8.2897    0.0484    0.9859 C   0  0  0  0  0  0  0  0  0  0  0  0
    7.4036    1.1924    0.6554 C   0  0  0  0  0  0  0  0  0  0  0  0
    7.6996    2.3385    0.9698 O   0  0  0  0  0  0  0  0  0  0  0  0
    6.2454    0.8776   -0.0113 N   0  0  0  0  0  0  0  0  0  0  0  0
   -0.1579    0.2633   -0.1332 C   0  0  0  0  0  0  0  0  0  0  0  0
   -3.5871    1.3227    0.5560 C   0  0  0  0  0  0  0  0  0  0  0  0
   -4.9347    1.0229    0.2946 C   0  0  0  0  0  0  0  0  0  0  0  0
   -6.5754   -1.8432   -2.0026 H   0  0  0  0  0  0  0  0  0  0  0  0
   -8.1240   -1.9045   -1.1525 H   0  0  0  0  0  0  0  0  0  0  0  0
   -6.7354   -2.6787   -0.4262 H   0  0  0  0  0  0  0  0  0  0  0  0
   -7.3760    1.1550   -1.3695 H   0  0  0  0  0  0  0  0  0  0  0  0
   -7.7233    1.1612    0.3878 H   0  0  0  0  0  0  0  0  0  0  0  0
   -8.6690    0.1600   -0.6882 H   0  0  0  0  0  0  0  0  0  0  0  0
   -4.5900   -2.2665   -0.4019 H   0  0  0  0  0  0  0  0  0  0  0  0
   -2.2804   -1.7562    0.0423 H   0  0  0  0  0  0  0  0  0  0  0  0
   -1.5199    1.6614    2.6287 H   0  0  0  0  0  0  0  0  0  0  0  0
    2.4473    1.5949    1.5842 H   0  0  0  0  0  0  0  0  0  0  0  0
    3.6229   -0.1145    0.7380 H   0  0  0  0  0  0  0  0  0  0  0  0
    4.3230   -1.6124   -1.2903 H   0  0  0  0  0  0  0  0  0  0  0  0
    4.5788   -0.0316   -2.0546 H   0  0  0  0  0  0  0  0  0  0  0  0
    6.4352   -2.4526   -0.3297 H   0  0  0  0  0  0  0  0  0  0  0  0
    8.5583   -2.0438    0.8612 H   0  0  0  0  0  0  0  0  0  0  0  0
    9.2099    0.2724    1.5082 H   0  0  0  0  0  0  0  0  0  0  0  0
    5.6423    1.6583   -0.2445 H   0  0  0  0  0  0  0  0  0  0  0  0
   -0.3960   -0.2665   -1.0544 H   0  0  0  0  0  0  0  0  0  0  0  0
   -3.3298    2.3466    0.8205 H   0  0  0  0  0  0  0  0  0  0  0  0
   -5.6421    1.8406    0.3934 H   0  0  0  0  0  0  0  0  0  0  0  0
  1  2  1  0
  2  3  1  0
  2  4  1  0
  4  5  1  0
  5  6  2  0
  6  7  1  0
  7  8  1  0
  8  9  2  0
  9 10  1  0
 10 11  2  0
 11 12  1  0
 12 13  1  0
 13 14  2  0
 13 15  1  0
 15 16  1  0
 16 17  1  0
 17 18  2  0
 18 19  1  0
 19 20  2  0
 20 21  1  0
 21 22  2  0
 21 23  1  0
 12 24  2  0
  7 25  2  0
 25 26  1  0
 26  4  2  0
 24  8  1  0
 23 17  1  0
  1 27  1  0
  1 28  1  0
  1 29  1  0
  3 30  1  0
  3 31  1  0
  3 32  1  0
  5 33  1  0
  6 34  1  0
  9 35  1  0
 11 36  1  0
 15 37  1  0
 16 38  1  0
 16 39  1  0
 18 40  1  0
 19 41  1  0
 20 42  1  0
 23 43  1  0
 24 44  1  0
 25 45  1  0
 26 46  1  0
M  END
$$$$
OCNT-2315106
     RDKit          3D

 37 39  0  0  0  0  0  0  0  0999 V2000
   -5.0606    1.7182   -1.0161 C   0  0  0  0  0  0  0  0  0  0  0  0
   -4.2729    0.8701   -0.1915 O   0  0  0  0  0  0  0  0  0  0  0  0
   -2.9071    0.9835   -0.2825 C   0  0  0  0  0  0  0  0  0  0  0  0
   -2.2447    1.8905   -1.1186 C   0  0  0  0  0  0  0  0  0  0  0  0
   -0.8499    1.9474   -1.1342 C   0  0  0  0  0  0  0  0  0  0  0  0
   -0.1041    1.0968   -0.3175 C   0  0  0  0  0  0  0  0  0  0  0  0
    1.3835    1.1906   -0.3596 C   0  0  0  0  0  0  0  0  0  0  0  0
    1.8912    2.2809   -0.5921 O   0  0  0  0  0  0  0  0  0  0  0  0
    2.0470   -0.0040   -0.1634 N   0  0  0  0  0  0  0  0  0  0  0  0
    3.4444   -0.2273   -0.1141 C   0  0  0  0  0  0  0  0  0  0  0  0
    4.3892    0.7992   -0.1904 C   0  0  0  0  0  0  0  0  0  0  0  0
    5.7581    0.5128   -0.1316 C   0  0  0  0  0  0  0  0  0  0  0  0
    6.1994   -0.8014    0.0066 C   0  0  0  0  0  0  0  0  0  0  0  0
    5.2714   -1.8367    0.0887 C   0  0  0  0  0  0  0  0  0  0  0  0
    3.9048   -1.5505    0.0299 C   0  0  0  0  0  0  0  0  0  0  0  0
    2.7902   -2.8732    0.1424 Cl  0  0  0  0  0  0  0  0  0  0  0  0
   -0.7662    0.2040    0.5345 C   0  0  0  0  0  0  0  0  0  0  0  0
   -2.1726    0.1124    0.5572 C   0  0  0  0  0  0  0  0  0  0  0  0
   -2.8575   -0.8636    1.4957 C   0  0  0  0  0  0  0  0  0  0  0  0
   -2.3754   -2.2929    1.6154 C   0  0  0  0  0  0  0  0  0  0  0  0
   -3.6730   -2.0033    0.9274 C   0  0  0  0  0  0  0  0  0  0  0  0
   -6.1128    1.4892   -0.8216 H   0  0  0  0  0  0  0  0  0  0  0  0
   -4.8696    1.5264   -2.0770 H   0  0  0  0  0  0  0  0  0  0  0  0
   -4.8987    2.7721   -0.7672 H   0  0  0  0  0  0  0  0  0  0  0  0
   -2.7842    2.5728   -1.7672 H   0  0  0  0  0  0  0  0  0  0  0  0
   -0.3467    2.6604   -1.7849 H   0  0  0  0  0  0  0  0  0  0  0  0
    1.4902   -0.8503   -0.1094 H   0  0  0  0  0  0  0  0  0  0  0  0
    4.0945    1.8391   -0.2934 H   0  0  0  0  0  0  0  0  0  0  0  0
    6.4789    1.3253   -0.1939 H   0  0  0  0  0  0  0  0  0  0  0  0
    7.2641   -1.0165    0.0516 H   0  0  0  0  0  0  0  0  0  0  0  0
    5.6169   -2.8612    0.1986 H   0  0  0  0  0  0  0  0  0  0  0  0
   -0.1995   -0.4207    1.2211 H   0  0  0  0  0  0  0  0  0  0  0  0
   -3.2493   -0.4145    2.4069 H   0  0  0  0  0  0  0  0  0  0  0  0
   -2.4131   -2.7568    2.5946 H   0  0  0  0  0  0  0  0  0  0  0  0
   -1.5535   -2.6358    0.9978 H   0  0  0  0  0  0  0  0  0  0  0  0
   -4.5945   -2.2613    1.4364 H   0  0  0  0  0  0  0  0  0  0  0  0
   -3.7180   -2.1218   -0.1494 H   0  0  0  0  0  0  0  0  0  0  0  0
  1  2  1  0
  2  3  1  0
  3  4  1  0
  4  5  2  0
  5  6  1  0
  6  7  1  0
  7  8  2  0
  7  9  1  0
  9 10  1  0
 10 11  2  0
 11 12  1  0
 12 13  2  0
 13 14  1  0
 14 15  2  0
 15 16  1  0
  6 17  2  0
 17 18  1  0
 18 19  1  0
 19 20  1  0
 20 21  1  0
 18  3  2  0
 21 19  1  0
 15 10  1  0
  1 22  1  0
  1 23  1  0
  1 24  1  0
  4 25  1  0
  5 26  1  0
  9 27  1  0
 11 28  1  0
 12 29  1  0
 13 30  1  0
 14 31  1  0
 17 32  1  0
 19 33  1  0
 20 34  1  0
 20 35  1  0
 21 36  1  0
 21 37  1  0
M  END
$$$$
OCNT-2315112
     RDKit          3D

 36 39  0  0  0  0  0  0  0  0999 V2000
   -3.9067   -1.4133   -1.8984 C   0  0  0  0  0  0  0  0  0  0  0  0
   -3.0162   -0.5815   -1.1200 N   0  0  0  0  0  0  0  0  0  0  0  0
   -1.8932    0.0225   -1.6077 C   0  0  0  0  0  0  0  0  0  0  0  0
   -1.2816    0.7241   -0.5818 C   0  0  0  0  0  0  0  0  0  0  0  0
   -0.0357    1.4661   -0.7594 C   0  0  0  0  0  0  0  0  0  0  0  0
    0.3345    1.8721   -1.8578 O   0  0  0  0  0  0  0  0  0  0  0  0
    0.7120    1.6216    0.3837 N   0  0  0  0  0  0  0  0  0  0  0  0
    2.0610    2.1299    0.3237 C   0  0  0  0  0  0  0  0  0  0  0  0
    2.9863    0.9688    0.1894 C   0  0  0  0  0  0  0  0  0  0  0  0
    3.6605    0.5235   -0.9430 C   0  0  0  0  0  0  0  0  0  0  0  0
    4.3250   -0.5882   -0.5289 N   0  0  0  0  0  0  0  0  0  0  0  0
    5.1634   -1.5249   -1.0866 C   0  0  0  0  0  0  0  0  0  0  0  0
    5.5386   -2.4483   -0.1841 C   0  0  0  0  0  0  0  0  0  0  0  0
    4.8399   -2.1681    1.4230 S   0  0  0  0  0  0  0  0  0  0  0  0
    4.0381   -0.7641    0.7905 C   0  0  0  0  0  0  0  0  0  0  0  0
    3.2341    0.1386    1.2794 N   0  0  0  0  0  0  0  0  0  0  0  0
   -2.1211    0.5642    0.5754 C   0  0  0  0  0  0  0  0  0  0  0  0
   -2.0951    1.0644    1.8982 C   0  0  0  0  0  0  0  0  0  0  0  0
   -3.0921    0.6956    2.8085 C   0  0  0  0  0  0  0  0  0  0  0  0
   -4.1213   -0.1544    2.4227 C   0  0  0  0  0  0  0  0  0  0  0  0
   -4.1892   -0.6488    1.1186 C   0  0  0  0  0  0  0  0  0  0  0  0
   -3.1848   -0.2717    0.2115 C   0  0  0  0  0  0  0  0  0  0  0  0
   -3.9399   -2.4059   -1.4419 H   0  0  0  0  0  0  0  0  0  0  0  0
   -3.5346   -1.4908   -2.9233 H   0  0  0  0  0  0  0  0  0  0  0  0
   -4.8980   -0.9530   -1.8991 H   0  0  0  0  0  0  0  0  0  0  0  0
   -1.5923   -0.0919   -2.6419 H   0  0  0  0  0  0  0  0  0  0  0  0
    0.5175    0.9868    1.1467 H   0  0  0  0  0  0  0  0  0  0  0  0
    2.2568    2.6588    1.2616 H   0  0  0  0  0  0  0  0  0  0  0  0
    2.1772    2.8335   -0.5066 H   0  0  0  0  0  0  0  0  0  0  0  0
    3.6922    0.8902   -1.9591 H   0  0  0  0  0  0  0  0  0  0  0  0
    5.4447   -1.4687   -2.1263 H   0  0  0  0  0  0  0  0  0  0  0  0
    6.1932   -3.2883   -0.3752 H   0  0  0  0  0  0  0  0  0  0  0  0
   -1.3166    1.7495    2.2208 H   0  0  0  0  0  0  0  0  0  0  0  0
   -3.0623    1.0834    3.8238 H   0  0  0  0  0  0  0  0  0  0  0  0
   -4.8894   -0.4308    3.1412 H   0  0  0  0  0  0  0  0  0  0  0  0
   -5.0045   -1.3010    0.8219 H   0  0  0  0  0  0  0  0  0  0  0  0
  1  2  1  0
  2  3  1  0
  3  4  2  0
  4  5  1  0
  5  6  2  0
  5  7  1  0
  7  8  1  0
  8  9  1  0
  9 10  2  0
 10 11  1  0
 11 12  1  0
 12 13  2  0
 13 14  1  0
 14 15  1  0
 15 16  2  0
  4 17  1  0
 17 18  2  0
 18 19  1  0
 19 20  2  0
 20 21  1  0
 21 22  2  0
 22  2  1  0
 16  9  1  0
 22 17  1  0
 15 11  1  0
  1 23  1  0
  1 24  1  0
  1 25  1  0
  3 26  1  0
  7 27  1  0
  8 28  1  0
  8 29  1  0
 10 30  1  0
 12 31  1  0
 13 32  1  0
 18 33  1  0
 19 34  1  0
 20 35  1  0
 21 36  1  0
M  END
$$$$
OCNT-2315113
     RDKit          3D

 49 51  0  0  0  0  0  0  0  0999 V2000
   -6.1200    2.3347   -1.3257 C   0  0  0  0  0  0  0  0  0  0  0  0
   -5.0138    1.5505   -0.8918 O   0  0  0  0  0  0  0  0  0  0  0  0
   -5.2889    0.2813   -0.4328 C   0  0  0  0  0  0  0  0  0  0  0  0
   -6.5599   -0.2947   -0.3887 C   0  0  0  0  0  0  0  0  0  0  0  0
   -6.7241   -1.5963    0.0961 C   0  0  0  0  0  0  0  0  0  0  0  0
   -8.3252   -2.2483    0.1218 Cl  0  0  0  0  0  0  0  0  0  0  0  0
   -5.6246   -2.3415    0.5421 C   0  0  0  0  0  0  0  0  0  0  0  0
   -5.7718   -3.7441    1.0639 C   0  0  0  0  0  0  0  0  0  0  0  0
   -4.3481   -1.7551    0.4941 C   0  0  0  0  0  0  0  0  0  0  0  0
   -4.1715   -0.4536    0.0154 C   0  0  0  0  0  0  0  0  0  0  0  0
   -2.9157    0.1908   -0.0639 N   0  0  0  0  0  0  0  0  0  0  0  0
   -1.6876   -0.2577    0.3836 C   0  0  0  0  0  0  0  0  0  0  0  0
   -1.4970   -1.3070    0.9833 O   0  0  0  0  0  0  0  0  0  0  0  0
   -0.6909    0.6496    0.0590 N   0  0  0  0  0  0  0  0  0  0  0  0
    0.6795    0.5536    0.3783 C   0  0  0  0  0  0  0  0  0  0  0  0
    1.5302    1.5474   -0.1085 C   0  0  0  0  0  0  0  0  0  0  0  0
    2.8964    1.5017    0.1749 C   0  0  0  0  0  0  0  0  0  0  0  0
    3.3810    0.4488    0.9388 C   0  0  0  0  0  0  0  0  0  0  0  0
    4.7067    0.2903    1.2836 O   0  0  0  0  0  0  0  0  0  0  0  0
    5.6497    0.7408    0.3929 C   0  0  0  0  0  0  0  0  0  0  0  0
    6.3412    1.9031    0.7628 C   0  0  0  0  0  0  0  0  0  0  0  0
    7.3054    2.4465   -0.0844 C   0  0  0  0  0  0  0  0  0  0  0  0
    7.5918    1.8245   -1.2967 C   0  0  0  0  0  0  0  0  0  0  0  0
    6.9280    0.6473   -1.6517 C   0  0  0  0  0  0  0  0  0  0  0  0
    5.9640    0.0780   -0.8022 C   0  0  0  0  0  0  0  0  0  0  0  0
    5.3589   -1.2067   -1.2515 C   0  0  0  0  0  0  0  0  0  0  0  0
    4.8475   -2.0523   -0.3106 N   0  0  0  0  0  0  0  0  0  0  0  0
    5.3434   -1.5144   -2.4386 O   0  0  0  0  0  0  0  0  0  0  0  0
    2.5852   -0.5183    1.4397 N   0  0  0  0  0  0  0  0  0  0  0  0
    1.2592   -0.4488    1.1491 C   0  0  0  0  0  0  0  0  0  0  0  0
   -5.7338    3.3082   -1.6432 H   0  0  0  0  0  0  0  0  0  0  0  0
   -6.8259    2.5081   -0.5067 H   0  0  0  0  0  0  0  0  0  0  0  0
   -6.6149    1.8760   -2.1880 H   0  0  0  0  0  0  0  0  0  0  0  0
   -7.4396    0.2428   -0.7256 H   0  0  0  0  0  0  0  0  0  0  0  0
   -6.4276   -3.7584    1.9404 H   0  0  0  0  0  0  0  0  0  0  0  0
   -4.8074   -4.1631    1.3705 H   0  0  0  0  0  0  0  0  0  0  0  0
   -6.1811   -4.3986    0.2876 H   0  0  0  0  0  0  0  0  0  0  0  0
   -3.4984   -2.3405    0.8338 H   0  0  0  0  0  0  0  0  0  0  0  0
   -2.9761    1.1327   -0.4272 H   0  0  0  0  0  0  0  0  0  0  0  0
   -0.9620    1.4216   -0.5300 H   0  0  0  0  0  0  0  0  0  0  0  0
    1.1493    2.3660   -0.7127 H   0  0  0  0  0  0  0  0  0  0  0  0
    3.5477    2.2812   -0.2029 H   0  0  0  0  0  0  0  0  0  0  0  0
    6.1188    2.3895    1.7099 H   0  0  0  0  0  0  0  0  0  0  0  0
    7.8339    3.3529    0.2010 H   0  0  0  0  0  0  0  0  0  0  0  0
    8.3426    2.2440   -1.9625 H   0  0  0  0  0  0  0  0  0  0  0  0
    7.1790    0.1598   -2.5932 H   0  0  0  0  0  0  0  0  0  0  0  0
    4.3302   -2.8526   -0.6495 H   0  0  0  0  0  0  0  0  0  0  0  0
    4.6537   -1.7606    0.6413 H   0  0  0  0  0  0  0  0  0  0  0  0
    0.6825   -1.2588    1.5830 H   0  0  0  0  0  0  0  0  0  0  0  0
  1  2  1  0
  2  3  1  0
  3  4  1  0
  4  5  2  0
  5  6  1  0
  5  7  1  0
  7  8  1  0
  7  9  2  0
  9 10  1  0
 10 11  1  0
 11 12  1  0
 12 13  2  0
 12 14  1  0
 14 15  1  0
 15 16  2  0
 16 17  1  0
 17 18  2  0
 18 19  1  0
 19 20  1  0
 20 21  2  0
 21 22  1  0
 22 23  2  0
 23 24  1  0
 24 25  2  0
 25 26  1  0
 26 27  1  0
 26 28  2  0
 18 29  1  0
 29 30  2  0
 10  3  2  0
 30 15  1  0
 25 20  1  0
  1 31  1  0
  1 32  1  0
  1 33  1  0
  4 34  1  0
  8 35  1  0
  8 36  1  0
  8 37  1  0
  9 38  1  0
 11 39  1  0
 14 40  1  0
 16 41  1  0
 17 42  1  0
 21 43  1  0
 22 44  1  0
 23 45  1  0
 24 46  1  0
 27 47  1  0
 27 48  1  0
 30 49  1  0
M  END
$$$$
OCNT-2315115
     RDKit          3D

 41 44  0  0  0  0  0  0  0  0999 V2000
    7.4672    0.5756   -0.0313 C   0  0  0  0  0  0  0  0  0  0  0  0
    5.9860    0.6729   -0.0503 C   0  0  0  0  0  0  0  0  0  0  0  0
    5.1785    1.7868    0.0399 C   0  0  0  0  0  0  0  0  0  0  0  0
    3.8203    1.5477   -0.0117 N   0  0  0  0  0  0  0  0  0  0  0  0
    3.5986    0.2561   -0.1409 C   0  0  0  0  0  0  0  0  0  0  0  0
    2.2332   -0.3713   -0.2378 C   0  0  0  0  0  0  0  0  0  0  0  0
    1.3125    0.1412    0.8772 C   0  0  0  0  0  0  0  0  0  0  0  0
   -0.0846   -0.4614    0.7478 C   0  0  0  0  0  0  0  0  0  0  0  0
   -0.6236   -0.1843   -0.5935 N   0  0  0  0  0  0  0  0  0  0  0  0
   -1.9763   -0.5869   -0.7063 C   0  0  0  0  0  0  0  0  0  0  0  0
   -2.9423    0.0848    0.0268 C   0  0  0  0  0  0  0  0  0  0  0  0
   -4.2649   -0.3135   -0.0911 C   0  0  0  0  0  0  0  0  0  0  0  0
   -5.3552    0.3951    0.6774 C   0  0  0  0  0  0  0  0  0  0  0  0
   -6.4051   -0.4087    1.4104 C   0  0  0  0  0  0  0  0  0  0  0  0
   -5.3733    0.3501    2.1888 C   0  0  0  0  0  0  0  0  0  0  0  0
   -4.6079   -1.3265   -0.9112 N   0  0  0  0  0  0  0  0  0  0  0  0
   -3.6140   -1.9069   -1.5937 C   0  0  0  0  0  0  0  0  0  0  0  0
   -2.3151   -1.5875   -1.5343 N   0  0  0  0  0  0  0  0  0  0  0  0
    0.2092   -0.7027   -1.6902 C   0  0  0  0  0  0  0  0  0  0  0  0
    1.6052   -0.0898   -1.6077 C   0  0  0  0  0  0  0  0  0  0  0  0
    5.0111   -0.7267   -0.2071 S   0  0  0  0  0  0  0  0  0  0  0  0
    7.8050   -0.0977    0.7632 H   0  0  0  0  0  0  0  0  0  0  0  0
    7.8425    0.2005   -0.9890 H   0  0  0  0  0  0  0  0  0  0  0  0
    7.9214    1.5560    0.1461 H   0  0  0  0  0  0  0  0  0  0  0  0
    5.5285    2.8069    0.1445 H   0  0  0  0  0  0  0  0  0  0  0  0
    2.3265   -1.4601   -0.1200 H   0  0  0  0  0  0  0  0  0  0  0  0
    1.2369    1.2361    0.8349 H   0  0  0  0  0  0  0  0  0  0  0  0
    1.7305   -0.1083    1.8602 H   0  0  0  0  0  0  0  0  0  0  0  0
   -0.0425   -1.5444    0.9256 H   0  0  0  0  0  0  0  0  0  0  0  0
   -0.7112   -0.0229    1.5334 H   0  0  0  0  0  0  0  0  0  0  0  0
   -2.6766    0.9195    0.6630 H   0  0  0  0  0  0  0  0  0  0  0  0
   -5.7080    1.3152    0.2170 H   0  0  0  0  0  0  0  0  0  0  0  0
   -7.4219   -0.0337    1.4023 H   0  0  0  0  0  0  0  0  0  0  0  0
   -6.3349   -1.4908    1.3865 H   0  0  0  0  0  0  0  0  0  0  0  0
   -5.6904    1.2418    2.7170 H   0  0  0  0  0  0  0  0  0  0  0  0
   -4.6158   -0.2265    2.7075 H   0  0  0  0  0  0  0  0  0  0  0  0
   -3.8877   -2.7168   -2.2606 H   0  0  0  0  0  0  0  0  0  0  0  0
   -0.2234   -0.4327   -2.6621 H   0  0  0  0  0  0  0  0  0  0  0  0
    0.2879   -1.7972   -1.6422 H   0  0  0  0  0  0  0  0  0  0  0  0
    2.2330   -0.5004   -2.4080 H   0  0  0  0  0  0  0  0  0  0  0  0
    1.5409    0.9930   -1.7802 H   0  0  0  0  0  0  0  0  0  0  0  0
  1  2  1  0
  2  3  2  0
  3  4  1  0
  4  5  2  0
  5  6  1  0
  6  7  1  0
  7  8  1  0
  8  9  1  0
  9 10  1  0
 10 11  2  0
 11 12  1  0
 12 13  1  0
 13 14  1  0
 14 15  1  0
 12 16  2  0
 16 17  1  0
 17 18  2  0
  9 19  1  0
 19 20  1  0
  5 21  1  0
 21  2  1  0
 20  6  1  0
 18 10  1  0
 15 13  1  0
  1 22  1  0
  1 23  1  0
  1 24  1  0
  3 25  1  0
  6 26  1  0
  7 27  1  0
  7 28  1  0
  8 29  1  0
  8 30  1  0
 11 31  1  0
 13 32  1  0
 14 33  1  0
 14 34  1  0
 15 35  1  0
 15 36  1  0
 17 37  1  0
 19 38  1  0
 19 39  1  0
 20 40  1  0
 20 41  1  0
M  END
$$$$
OCNT-2315126
     RDKit          3D

 34 36  0  0  0  0  0  0  0  0999 V2000
    4.7910    2.7217   -0.5299 C   0  0  0  0  0  0  0  0  0  0  0  0
    3.8134    1.6103   -0.4762 C   0  0  0  0  0  0  0  0  0  0  0  0
    4.2049    0.3585   -0.7192 N   0  0  0  0  0  0  0  0  0  0  0  0
    3.0799   -0.3856   -0.5726 N   0  0  0  0  0  0  0  0  0  0  0  0
    3.2467   -1.8189   -0.5812 C   0  0  0  0  0  0  0  0  0  0  0  0
    1.9654    0.3780   -0.2976 C   0  0  0  0  0  0  0  0  0  0  0  0
    0.6417    0.0095   -0.1226 N   0  0  0  0  0  0  0  0  0  0  0  0
    0.0418   -1.1738   -0.4921 C   0  0  0  0  0  0  0  0  0  0  0  0
    0.5997   -2.1115   -1.0533 O   0  0  0  0  0  0  0  0  0  0  0  0
   -1.4312   -1.3047   -0.1975 C   0  0  0  0  0  0  0  0  0  0  0  0
   -1.9999   -2.5665   -0.4569 C   0  0  0  0  0  0  0  0  0  0  0  0
   -3.3468   -2.7984   -0.2203 C   0  0  0  0  0  0  0  0  0  0  0  0
   -4.1391   -1.7695    0.2769 C   0  0  0  0  0  0  0  0  0  0  0  0
   -5.8113   -2.1387    0.5465 Cl  0  0  0  0  0  0  0  0  0  0  0  0
   -3.5942   -0.4890    0.5441 C   0  0  0  0  0  0  0  0  0  0  0  0
   -4.3650    0.5845    1.0466 C   0  0  0  0  0  0  0  0  0  0  0  0
   -3.7947    1.8250    1.2923 C   0  0  0  0  0  0  0  0  0  0  0  0
   -2.4550    1.9707    1.0294 C   0  0  0  0  0  0  0  0  0  0  0  0
   -1.6763    0.9754    0.5500 N   0  0  0  0  0  0  0  0  0  0  0  0
   -2.2166   -0.2479    0.3035 C   0  0  0  0  0  0  0  0  0  0  0  0
    2.4371    1.6715   -0.1866 C   0  0  0  0  0  0  0  0  0  0  0  0
    4.3113    3.6806   -0.3091 H   0  0  0  0  0  0  0  0  0  0  0  0
    5.2413    2.7901   -1.5254 H   0  0  0  0  0  0  0  0  0  0  0  0
    5.5899    2.5667    0.2024 H   0  0  0  0  0  0  0  0  0  0  0  0
    4.2983   -2.0583   -0.3933 H   0  0  0  0  0  0  0  0  0  0  0  0
    2.9688   -2.1957   -1.5673 H   0  0  0  0  0  0  0  0  0  0  0  0
    2.6526   -2.2581    0.2225 H   0  0  0  0  0  0  0  0  0  0  0  0
    0.0087    0.7483    0.1904 H   0  0  0  0  0  0  0  0  0  0  0  0
   -1.3872   -3.3786   -0.8472 H   0  0  0  0  0  0  0  0  0  0  0  0
   -3.7687   -3.7794   -0.4261 H   0  0  0  0  0  0  0  0  0  0  0  0
   -5.4268    0.4641    1.2523 H   0  0  0  0  0  0  0  0  0  0  0  0
   -4.3843    2.6496    1.6769 H   0  0  0  0  0  0  0  0  0  0  0  0
   -1.9501    2.9179    1.2001 H   0  0  0  0  0  0  0  0  0  0  0  0
    1.8546    2.5521    0.0411 H   0  0  0  0  0  0  0  0  0  0  0  0
  1  2  1  0
  2  3  2  0
  3  4  1  0
  4  5  1  0
  4  6  1  0
  6  7  1  0
  7  8  1  0
  8  9  2  0
  8 10  1  0
 10 11  1  0
 11 12  2  0
 12 13  1  0
 13 14  1  0
 13 15  2  0
 15 16  1  0
 16 17  2  0
 17 18  1  0
 18 19  2  0
 19 20  1  0
  6 21  2  0
 21  2  1  0
 20 10  2  0
 20 15  1  0
  1 22  1  0
  1 23  1  0
  1 24  1  0
  5 25  1  0
  5 26  1  0
  5 27  1  0
  7 28  1  0
 11 29  1  0
 12 30  1  0
 16 31  1  0
 17 32  1  0
 18 33  1  0
 21 34  1  0
M  END
$$$$
OCNT-2315130
     RDKit          3D

 44 46  0  0  0  0  0  0  0  0999 V2000
    3.7085    0.0103   -0.5641 C   0  0  0  0  0  0  0  0  0  0  0  0
    3.1379    1.2953   -0.0417 C   0  0  0  0  0  0  0  0  0  0  0  0
    3.3901    2.4906   -0.7115 C   0  0  0  0  0  0  0  0  0  0  0  0
    2.9080    3.6956   -0.3348 N   0  0  0  0  0  0  0  0  0  0  0  0
    2.1364    3.7184    0.7684 C   0  0  0  0  0  0  0  0  0  0  0  0
    1.8196    2.5922    1.5087 C   0  0  0  0  0  0  0  0  0  0  0  0
    2.3314    1.3503    1.1089 C   0  0  0  0  0  0  0  0  0  0  0  0
    1.9458    0.1125    1.8781 C   0  0  0  0  0  0  0  0  0  0  0  0
    0.8383   -0.5402    1.2350 N   0  0  0  0  0  0  0  0  0  0  0  0
    0.5025   -1.8493    1.4580 C   0  0  0  0  0  0  0  0  0  0  0  0
    1.1797   -2.5901    2.1643 O   0  0  0  0  0  0  0  0  0  0  0  0
   -0.7506   -2.3460    0.7902 C   0  0  0  0  0  0  0  0  0  0  0  0
   -1.0579   -3.7050    0.9986 C   0  0  0  0  0  0  0  0  0  0  0  0
   -2.1947   -4.2816    0.4351 C   0  0  0  0  0  0  0  0  0  0  0  0
   -3.0448   -3.5076   -0.3443 C   0  0  0  0  0  0  0  0  0  0  0  0
   -2.7580   -2.1567   -0.5588 C   0  0  0  0  0  0  0  0  0  0  0  0
   -1.6148   -1.5453   -0.0027 C   0  0  0  0  0  0  0  0  0  0  0  0
   -1.3468   -0.1755   -0.2494 N   0  0  0  0  0  0  0  0  0  0  0  0
   -0.8829    0.0665   -1.6437 C   0  0  0  0  0  0  0  0  0  0  0  0
   -0.8618    1.5773   -1.9189 C   0  0  0  0  0  0  0  0  0  0  0  0
   -2.1586    2.1914   -1.8260 O   0  0  0  0  0  0  0  0  0  0  0  0
   -3.0831    1.4675   -1.0016 C   0  0  0  0  0  0  0  0  0  0  0  0
   -2.4177    0.7607    0.1892 C   0  0  0  0  0  0  0  0  0  0  0  0
    4.3111   -0.4834    0.2053 H   0  0  0  0  0  0  0  0  0  0  0  0
    2.9078   -0.6612   -0.8892 H   0  0  0  0  0  0  0  0  0  0  0  0
    4.3655    0.1840   -1.4239 H   0  0  0  0  0  0  0  0  0  0  0  0
    4.0117    2.5164   -1.6030 H   0  0  0  0  0  0  0  0  0  0  0  0
    1.7619    4.6968    1.0523 H   0  0  0  0  0  0  0  0  0  0  0  0
    1.1775    2.6829    2.3784 H   0  0  0  0  0  0  0  0  0  0  0  0
    1.6331    0.3686    2.8972 H   0  0  0  0  0  0  0  0  0  0  0  0
    2.7903   -0.5780    1.9777 H   0  0  0  0  0  0  0  0  0  0  0  0
    0.1449    0.0202    0.7422 H   0  0  0  0  0  0  0  0  0  0  0  0
   -0.4018   -4.3245    1.6088 H   0  0  0  0  0  0  0  0  0  0  0  0
   -2.4126   -5.3326    0.6070 H   0  0  0  0  0  0  0  0  0  0  0  0
   -3.9325   -3.9519   -0.7877 H   0  0  0  0  0  0  0  0  0  0  0  0
   -3.4416   -1.5823   -1.1787 H   0  0  0  0  0  0  0  0  0  0  0  0
   -1.5466   -0.4197   -2.3695 H   0  0  0  0  0  0  0  0  0  0  0  0
    0.1260   -0.3437   -1.7691 H   0  0  0  0  0  0  0  0  0  0  0  0
   -0.4775    1.7751   -2.9242 H   0  0  0  0  0  0  0  0  0  0  0  0
   -0.2010    2.0869   -1.2079 H   0  0  0  0  0  0  0  0  0  0  0  0
   -3.6082    0.7491   -1.6403 H   0  0  0  0  0  0  0  0  0  0  0  0
   -3.8291    2.1823   -0.6423 H   0  0  0  0  0  0  0  0  0  0  0  0
   -3.1729    0.2662    0.8115 H   0  0  0  0  0  0  0  0  0  0  0  0
   -1.9325    1.5173    0.8184 H   0  0  0  0  0  0  0  0  0  0  0  0
  1  2  1  0
  2  3  2  0
  3  4  1  0
  4  5  2  0
  5  6  1  0
  6  7  2  0
  7  8  1  0
  8  9  1  0
  9 10  1  0
 10 11  2  0
 10 12  1  0
 12 13  2  0
 13 14  1  0
 14 15  2  0
 15 16  1  0
 16 17  2  0
 17 18  1  0
 18 19  1  0
 19 20  1  0
 20 21  1  0
 21 22  1  0
 22 23  1  0
  7  2  1  0
 17 12  1  0
 23 18  1  0
  1 24  1  0
  1 25  1  0
  1 26  1  0
  3 27  1  0
  5 28  1  0
  6 29  1  0
  8 30  1  0
  8 31  1  0
  9 32  1  0
 13 33  1  0
 14 34  1  0
 15 35  1  0
 16 36  1  0
 19 37  1  0
 19 38  1  0
 20 39  1  0
 20 40  1  0
 22 41  1  0
 22 42  1  0
 23 43  1  0
 23 44  1  0
M  END
$$$$
OCNT-2315133
     RDKit          3D

 48 50  0  0  0  0  0  0  0  0999 V2000
   -2.7628   -2.6966    1.7731 C   0  0  0  0  0  0  0  0  0  0  0  0
   -2.8173   -1.1813    1.8835 C   0  0  0  0  0  0  0  0  0  0  0  0
   -2.5957   -0.5011    0.5721 C   0  0  0  0  0  0  0  0  0  0  0  0
   -3.6458   -0.2536   -0.2175 N   0  0  0  0  0  0  0  0  0  0  0  0
   -3.1240    0.3845   -1.2761 N   0  0  0  0  0  0  0  0  0  0  0  0
   -4.0064    0.8094   -2.3377 C   0  0  0  0  0  0  0  0  0  0  0  0
   -1.7671    0.5625   -1.1965 C   0  0  0  0  0  0  0  0  0  0  0  0
   -0.9683    1.2740   -2.2396 C   0  0  0  0  0  0  0  0  0  0  0  0
   -0.7704    2.7406   -1.8874 C   0  0  0  0  0  0  0  0  0  0  0  0
   -1.3765   -0.0318   -0.0014 C   0  0  0  0  0  0  0  0  0  0  0  0
   -0.0013   -0.1180    0.5976 C   0  0  0  0  0  0  0  0  0  0  0  0
    0.9465   -0.7478   -0.3455 N   0  0  0  0  0  0  0  0  0  0  0  0
    0.6792   -2.1901   -0.5018 C   0  0  0  0  0  0  0  0  0  0  0  0
    1.4346   -2.8938    0.6207 C   0  0  0  0  0  0  0  0  0  0  0  0
    2.4185   -1.8585    1.1528 C   0  0  0  0  0  0  0  0  0  0  0  0
    2.3550   -0.7198    0.1310 C   0  0  0  0  0  0  0  0  0  0  0  0
    2.8969    0.6327    0.5255 C   0  0  0  0  0  0  0  0  0  0  0  0
    2.8129    1.7103   -0.3680 C   0  0  0  0  0  0  0  0  0  0  0  0
    3.3285    2.9552   -0.0209 C   0  0  0  0  0  0  0  0  0  0  0  0
    3.9322    3.0884    1.2158 C   0  0  0  0  0  0  0  0  0  0  0  0
    4.0536    2.0778    2.1012 N   0  0  0  0  0  0  0  0  0  0  0  0
    3.5405    0.8789    1.7345 C   0  0  0  0  0  0  0  0  0  0  0  0
   -1.7826   -3.0344    1.4240 H   0  0  0  0  0  0  0  0  0  0  0  0
   -3.5161   -3.0706    1.0716 H   0  0  0  0  0  0  0  0  0  0  0  0
   -2.9500   -3.1547    2.7494 H   0  0  0  0  0  0  0  0  0  0  0  0
   -2.0738   -0.8413    2.6131 H   0  0  0  0  0  0  0  0  0  0  0  0
   -3.7945   -0.8878    2.2872 H   0  0  0  0  0  0  0  0  0  0  0  0
   -5.0450    0.6406   -2.0407 H   0  0  0  0  0  0  0  0  0  0  0  0
   -3.7754    0.2228   -3.2302 H   0  0  0  0  0  0  0  0  0  0  0  0
   -3.8476    1.8747   -2.5205 H   0  0  0  0  0  0  0  0  0  0  0  0
    0.0096    0.7963   -2.3567 H   0  0  0  0  0  0  0  0  0  0  0  0
   -1.4543    1.1990   -3.2188 H   0  0  0  0  0  0  0  0  0  0  0  0
   -0.1747    3.2383   -2.6591 H   0  0  0  0  0  0  0  0  0  0  0  0
   -1.7298    3.2632   -1.8093 H   0  0  0  0  0  0  0  0  0  0  0  0
   -0.2491    2.8544   -0.9311 H   0  0  0  0  0  0  0  0  0  0  0  0
   -0.0307   -0.6478    1.5559 H   0  0  0  0  0  0  0  0  0  0  0  0
    0.2975    0.9130    0.8188 H   0  0  0  0  0  0  0  0  0  0  0  0
    1.0901   -2.5103   -1.4680 H   0  0  0  0  0  0  0  0  0  0  0  0
   -0.3808   -2.4605   -0.5226 H   0  0  0  0  0  0  0  0  0  0  0  0
    0.7569   -3.2131    1.4197 H   0  0  0  0  0  0  0  0  0  0  0  0
    1.9555   -3.7803    0.2440 H   0  0  0  0  0  0  0  0  0  0  0  0
    3.4284   -2.2722    1.2453 H   0  0  0  0  0  0  0  0  0  0  0  0
    2.0982   -1.5384    2.1515 H   0  0  0  0  0  0  0  0  0  0  0  0
    2.9809   -1.0291   -0.7212 H   0  0  0  0  0  0  0  0  0  0  0  0
    2.3346    1.5773   -1.3362 H   0  0  0  0  0  0  0  0  0  0  0  0
    3.2602    3.7977   -0.6992 H   0  0  0  0  0  0  0  0  0  0  0  0
    4.3498    4.0383    1.5362 H   0  0  0  0  0  0  0  0  0  0  0  0
    3.6802    0.1031    2.4813 H   0  0  0  0  0  0  0  0  0  0  0  0
  1  2  1  0
  2  3  1  0
  3  4  2  0
  4  5  1  0
  5  6  1  0
  5  7  1  0
  7  8  1  0
  8  9  1  0
  7 10  2  0
 10 11  1  0
 11 12  1  0
 12 13  1  0
 13 14  1  0
 14 15  1  0
 15 16  1  0
 16 17  1  0
 17 18  1  0
 18 19  2  0
 19 20  1  0
 20 21  2  0
 21 22  1  0
 10  3  1  0
 16 12  1  0
 22 17  2  0
  1 23  1  0
  1 24  1  0
  1 25  1  0
  2 26  1  0
  2 27  1  0
  6 28  1  0
  6 29  1  0
  6 30  1  0
  8 31  1  0
  8 32  1  0
  9 33  1  0
  9 34  1  0
  9 35  1  0
 11 36  1  0
 11 37  1  0
 13 38  1  0
 13 39  1  0
 14 40  1  0
 14 41  1  0
 15 42  1  0
 15 43  1  0
 16 44  1  0
 18 45  1  0
 19 46  1  0
 20 47  1  0
 22 48  1  0
M  END
$$$$
OCNT-2315138
     RDKit          3D

 48 51  0  0  0  0  0  0  0  0999 V2000
    0.2514    0.7238    0.4823 O   0  0  0  0  0  0  0  0  0  0  0  0
    0.2548    0.0090   -0.5173 C   0  0  0  0  0  0  0  0  0  0  0  0
   -0.7491    0.0606   -1.4590 N   0  0  0  0  0  0  0  0  0  0  0  0
   -1.9751    0.8078   -1.2258 C   0  0  0  0  0  0  0  0  0  0  0  0
   -2.9511    0.0593   -0.2884 C   0  0  0  0  0  0  0  0  0  0  0  0
   -3.2715   -1.1811   -0.9640 O   0  0  0  0  0  0  0  0  0  0  0  0
   -4.3456   -1.8720   -0.3315 C   0  0  0  0  0  0  0  0  0  0  0  0
   -5.6334   -1.0916   -0.5524 C   0  0  0  0  0  0  0  0  0  0  0  0
   -5.4745    0.3204   -0.0530 C   0  0  0  0  0  0  0  0  0  0  0  0
   -6.6070    1.0814    0.2676 C   0  0  0  0  0  0  0  0  0  0  0  0
   -6.4673    2.3832    0.7433 C   0  0  0  0  0  0  0  0  0  0  0  0
   -5.1980    2.9305    0.9046 C   0  0  0  0  0  0  0  0  0  0  0  0
   -4.0659    2.1840    0.5727 C   0  0  0  0  0  0  0  0  0  0  0  0
   -4.1874    0.8817    0.0603 C   0  0  0  0  0  0  0  0  0  0  0  0
    1.2891   -0.9663   -0.8020 C   0  0  0  0  0  0  0  0  0  0  0  0
    2.4495   -1.2956   -0.1136 C   0  0  0  0  0  0  0  0  0  0  0  0
    2.9318   -0.6749    1.1590 C   0  0  0  0  0  0  0  0  0  0  0  0
    4.2748   -1.0441    1.5005 O   0  0  0  0  0  0  0  0  0  0  0  0
    5.3003   -0.2915    0.9976 C   0  0  0  0  0  0  0  0  0  0  0  0
    5.1992    0.6815    0.0025 C   0  0  0  0  0  0  0  0  0  0  0  0
    6.3395    1.3688   -0.4264 C   0  0  0  0  0  0  0  0  0  0  0  0
    7.5840    1.0841    0.1326 C   0  0  0  0  0  0  0  0  0  0  0  0
    7.6922    0.1082    1.1198 C   0  0  0  0  0  0  0  0  0  0  0  0
    6.5537   -0.5774    1.5466 C   0  0  0  0  0  0  0  0  0  0  0  0
    3.0598   -2.3430   -0.8644 C   0  0  0  0  0  0  0  0  0  0  0  0
    2.2507   -2.5738   -1.9490 C   0  0  0  0  0  0  0  0  0  0  0  0
    1.1755   -1.7486   -1.9225 O   0  0  0  0  0  0  0  0  0  0  0  0
   -0.7769   -0.7004   -2.1297 H   0  0  0  0  0  0  0  0  0  0  0  0
   -1.6963    1.7870   -0.8247 H   0  0  0  0  0  0  0  0  0  0  0  0
   -2.4340    0.9592   -2.2096 H   0  0  0  0  0  0  0  0  0  0  0  0
   -2.4448   -0.2058    0.6488 H   0  0  0  0  0  0  0  0  0  0  0  0
   -4.1231   -2.0168    0.7330 H   0  0  0  0  0  0  0  0  0  0  0  0
   -4.4275   -2.8616   -0.7922 H   0  0  0  0  0  0  0  0  0  0  0  0
   -6.4585   -1.5944   -0.0363 H   0  0  0  0  0  0  0  0  0  0  0  0
   -5.8644   -1.0461   -1.6233 H   0  0  0  0  0  0  0  0  0  0  0  0
   -7.6029    0.6588    0.1560 H   0  0  0  0  0  0  0  0  0  0  0  0
   -7.3480    2.9668    0.9980 H   0  0  0  0  0  0  0  0  0  0  0  0
   -5.0872    3.9397    1.2932 H   0  0  0  0  0  0  0  0  0  0  0  0
   -3.0868    2.6314    0.7312 H   0  0  0  0  0  0  0  0  0  0  0  0
    2.8088    0.4145    1.1663 H   0  0  0  0  0  0  0  0  0  0  0  0
    2.3008   -1.0524    1.9732 H   0  0  0  0  0  0  0  0  0  0  0  0
    4.2540    0.9248   -0.4710 H   0  0  0  0  0  0  0  0  0  0  0  0
    6.2541    2.1258   -1.2019 H   0  0  0  0  0  0  0  0  0  0  0  0
    8.4678    1.6201   -0.2033 H   0  0  0  0  0  0  0  0  0  0  0  0
    8.6598   -0.1209    1.5577 H   0  0  0  0  0  0  0  0  0  0  0  0
    6.6428   -1.3396    2.3168 H   0  0  0  0  0  0  0  0  0  0  0  0
    3.9837   -2.8578   -0.6358 H   0  0  0  0  0  0  0  0  0  0  0  0
    2.2983   -3.2567   -2.7860 H   0  0  0  0  0  0  0  0  0  0  0  0
  1  2  2  0
  2  3  1  0
  3  4  1  0
  4  5  1  0
  5  6  1  0
  6  7  1  0
  7  8  1  0
  8  9  1  0
  9 10  2  0
 10 11  1  0
 11 12  2  0
 12 13  1  0
 13 14  2  0
  2 15  1  0
 15 16  2  0
 16 17  1  0
 17 18  1  0
 18 19  1  0
 19 20  2  0
 20 21  1  0
 21 22  2  0
 22 23  1  0
 23 24  2  0
 16 25  1  0
 25 26  2  0
 26 27  1  0
 14  5  1  0
 27 15  1  0
 14  9  1  0
 24 19  1  0
  3 28  1  0
  4 29  1  0
  4 30  1  0
  5 31  1  0
  7 32  1  0
  7 33  1  0
  8 34  1  0
  8 35  1  0
 10 36  1  0
 11 37  1  0
 12 38  1  0
 13 39  1  0
 17 40  1  0
 17 41  1  0
 20 42  1  0
 21 43  1  0
 22 44  1  0
 23 45  1  0
 24 46  1  0
 25 47  1  0
 26 48  1  0
M  END
$$$$
OCNT-2315139
     RDKit          3D

 48 50  0  0  0  0  0  0  0  0999 V2000
   -2.1912   -3.6117    0.2982 C   0  0  0  0  0  0  0  0  0  0  0  0
   -1.6670   -2.5523   -0.6721 C   0  0  0  0  0  0  0  0  0  0  0  0
   -0.2149   -2.8307   -1.0617 C   0  0  0  0  0  0  0  0  0  0  0  0
   -1.8769   -1.1537   -0.1505 C   0  0  0  0  0  0  0  0  0  0  0  0
   -2.7956   -0.3872   -0.7516 N   0  0  0  0  0  0  0  0  0  0  0  0
   -2.7643    0.8016   -0.1032 N   0  0  0  0  0  0  0  0  0  0  0  0
   -3.6176    1.8720   -0.4952 C   0  0  0  0  0  0  0  0  0  0  0  0
   -4.5022    1.6897   -1.5700 C   0  0  0  0  0  0  0  0  0  0  0  0
   -5.3484    2.7258   -1.9709 C   0  0  0  0  0  0  0  0  0  0  0  0
   -5.3185    3.9487   -1.3045 C   0  0  0  0  0  0  0  0  0  0  0  0
   -4.4428    4.1384   -0.2366 C   0  0  0  0  0  0  0  0  0  0  0  0
   -3.5925    3.1056    0.1706 C   0  0  0  0  0  0  0  0  0  0  0  0
   -1.8412    0.7812    0.9151 C   0  0  0  0  0  0  0  0  0  0  0  0
   -1.2457   -0.4657    0.9220 C   0  0  0  0  0  0  0  0  0  0  0  0
   -0.1857   -0.9286    1.8512 C   0  0  0  0  0  0  0  0  0  0  0  0
    1.0926   -0.5096    1.3373 N   0  0  0  0  0  0  0  0  0  0  0  0
    2.2420   -0.6865    2.0590 C   0  0  0  0  0  0  0  0  0  0  0  0
    2.2345   -1.1062    3.2143 O   0  0  0  0  0  0  0  0  0  0  0  0
    3.5144   -0.3430    1.3543 C   0  0  0  0  0  0  0  0  0  0  0  0
    4.6551   -0.4006    2.0664 C   0  0  0  0  0  0  0  0  0  0  0  0
    5.9300   -0.0869    1.4749 C   0  0  0  0  0  0  0  0  0  0  0  0
    5.9984    0.2739    0.1901 C   0  0  0  0  0  0  0  0  0  0  0  0
    4.8604    0.3509   -0.5913 N   0  0  0  0  0  0  0  0  0  0  0  0
    5.0072    0.7395   -1.9864 C   0  0  0  0  0  0  0  0  0  0  0  0
    3.5887    0.0508   -0.0916 C   0  0  0  0  0  0  0  0  0  0  0  0
    2.5654    0.0936   -0.7756 O   0  0  0  0  0  0  0  0  0  0  0  0
   -1.6317   -3.6200    1.2386 H   0  0  0  0  0  0  0  0  0  0  0  0
   -3.2444   -3.4318    0.5413 H   0  0  0  0  0  0  0  0  0  0  0  0
   -2.1154   -4.6112   -0.1435 H   0  0  0  0  0  0  0  0  0  0  0  0
   -2.2571   -2.6533   -1.5946 H   0  0  0  0  0  0  0  0  0  0  0  0
    0.4436   -2.8804   -0.1897 H   0  0  0  0  0  0  0  0  0  0  0  0
   -0.1364   -3.7904   -1.5842 H   0  0  0  0  0  0  0  0  0  0  0  0
    0.1700   -2.0527   -1.7301 H   0  0  0  0  0  0  0  0  0  0  0  0
   -4.5426    0.7428   -2.1056 H   0  0  0  0  0  0  0  0  0  0  0  0
   -6.0299    2.5751   -2.8042 H   0  0  0  0  0  0  0  0  0  0  0  0
   -5.9777    4.7542   -1.6178 H   0  0  0  0  0  0  0  0  0  0  0  0
   -4.4214    5.0941    0.2814 H   0  0  0  0  0  0  0  0  0  0  0  0
   -2.9272    3.2984    1.0059 H   0  0  0  0  0  0  0  0  0  0  0  0
   -1.6671    1.6351    1.5510 H   0  0  0  0  0  0  0  0  0  0  0  0
   -0.3240   -0.4988    2.8500 H   0  0  0  0  0  0  0  0  0  0  0  0
   -0.1748   -2.0159    1.9627 H   0  0  0  0  0  0  0  0  0  0  0  0
    1.1687   -0.2541    0.3518 H   0  0  0  0  0  0  0  0  0  0  0  0
    4.6537   -0.6840    3.1161 H   0  0  0  0  0  0  0  0  0  0  0  0
    6.8204   -0.1496    2.0923 H   0  0  0  0  0  0  0  0  0  0  0  0
    6.9463    0.5165   -0.2821 H   0  0  0  0  0  0  0  0  0  0  0  0
    4.0415    0.8195   -2.4924 H   0  0  0  0  0  0  0  0  0  0  0  0
    5.6121   -0.0133   -2.5019 H   0  0  0  0  0  0  0  0  0  0  0  0
    5.5095    1.7109   -2.0370 H   0  0  0  0  0  0  0  0  0  0  0  0
  1  2  1  0
  2  3  1  0
  2  4  1  0
  4  5  2  0
  5  6  1  0
  6  7  1  0
  7  8  2  0
  8  9  1  0
  9 10  2  0
 10 11  1  0
 11 12  2  0
  6 13  1  0
 13 14  2  0
 14 15  1  0
 15 16  1  0
 16 17  1  0
 17 18  2  0
 17 19  1  0
 19 20  2  0
 20 21  1  0
 21 22  2  0
 22 23  1  0
 23 24  1  0
 23 25  1  0
 25 26  2  0
 14  4  1  0
 25 19  1  0
 12  7  1  0
  1 27  1  0
  1 28  1  0
  1 29  1  0
  2 30  1  0
  3 31  1  0
  3 32  1  0
  3 33  1  0
  8 34  1  0
  9 35  1  0
 10 36  1  0
 11 37  1  0
 12 38  1  0
 13 39  1  0
 15 40  1  0
 15 41  1  0
 16 42  1  0
 20 43  1  0
 21 44  1  0
 22 45  1  0
 24 46  1  0
 24 47  1  0
 24 48  1  0
M  END
$$$$
OCNT-2315148
     RDKit          3D

 39 41  0  0  0  0  0  0  0  0999 V2000
    0.6369    0.5829    4.0815 C   0  0  0  0  0  0  0  0  0  0  0  0
    0.8422    0.5428    2.6742 O   0  0  0  0  0  0  0  0  0  0  0  0
   -0.2640    0.3167    1.8878 C   0  0  0  0  0  0  0  0  0  0  0  0
   -1.5614    0.1325    2.3660 C   0  0  0  0  0  0  0  0  0  0  0  0
   -2.6142   -0.0931    1.4722 C   0  0  0  0  0  0  0  0  0  0  0  0
   -2.3991   -0.1369    0.0855 C   0  0  0  0  0  0  0  0  0  0  0  0
   -3.5122   -0.3732   -0.8496 C   0  0  0  0  0  0  0  0  0  0  0  0
   -3.4176   -1.2996   -1.8967 C   0  0  0  0  0  0  0  0  0  0  0  0
   -4.4920   -1.5009   -2.7624 C   0  0  0  0  0  0  0  0  0  0  0  0
   -5.6466   -0.7662   -2.5580 C   0  0  0  0  0  0  0  0  0  0  0  0
   -5.7915    0.1372   -1.5674 N   0  0  0  0  0  0  0  0  0  0  0  0
   -4.7249    0.3126   -0.7480 C   0  0  0  0  0  0  0  0  0  0  0  0
   -1.0856    0.0494   -0.3824 C   0  0  0  0  0  0  0  0  0  0  0  0
   -0.0226    0.2715    0.5000 C   0  0  0  0  0  0  0  0  0  0  0  0
    1.3113    0.4607    0.0788 N   0  0  0  0  0  0  0  0  0  0  0  0
    1.8195    0.4186   -1.1954 C   0  0  0  0  0  0  0  0  0  0  0  0
    1.2199    0.2184   -2.2404 O   0  0  0  0  0  0  0  0  0  0  0  0
    3.2859    0.6812   -1.2382 C   0  0  0  0  0  0  0  0  0  0  0  0
    4.2053   -0.3130   -1.9153 C   0  0  0  0  0  0  0  0  0  0  0  0
    4.2524   -0.1529   -0.4220 C   0  0  0  0  0  0  0  0  0  0  0  0
    5.4285    0.4899    0.2289 C   0  0  0  0  0  0  0  0  0  0  0  0
    1.6063    0.7677    4.5544 H   0  0  0  0  0  0  0  0  0  0  0  0
   -0.0308    1.4049    4.3597 H   0  0  0  0  0  0  0  0  0  0  0  0
    0.2632   -0.3768    4.4531 H   0  0  0  0  0  0  0  0  0  0  0  0
   -1.7936    0.1529    3.4253 H   0  0  0  0  0  0  0  0  0  0  0  0
   -3.6131   -0.2502    1.8770 H   0  0  0  0  0  0  0  0  0  0  0  0
   -2.5071   -1.8772   -2.0424 H   0  0  0  0  0  0  0  0  0  0  0  0
   -4.4261   -2.2150   -3.5756 H   0  0  0  0  0  0  0  0  0  0  0  0
   -6.5100   -0.8879   -3.2055 H   0  0  0  0  0  0  0  0  0  0  0  0
   -4.8803    1.0645    0.0221 H   0  0  0  0  0  0  0  0  0  0  0  0
   -0.9117    0.0339   -1.4548 H   0  0  0  0  0  0  0  0  0  0  0  0
    1.9632    0.6289    0.8381 H   0  0  0  0  0  0  0  0  0  0  0  0
    3.5234    1.7273   -1.4056 H   0  0  0  0  0  0  0  0  0  0  0  0
    5.0179    0.0824   -2.5140 H   0  0  0  0  0  0  0  0  0  0  0  0
    3.7642   -1.2181   -2.3205 H   0  0  0  0  0  0  0  0  0  0  0  0
    3.8627   -0.9720    0.1734 H   0  0  0  0  0  0  0  0  0  0  0  0
    5.8344    1.3112   -0.3710 H   0  0  0  0  0  0  0  0  0  0  0  0
    6.2238   -0.2462    0.3810 H   0  0  0  0  0  0  0  0  0  0  0  0
    5.1432    0.8910    1.2065 H   0  0  0  0  0  0  0  0  0  0  0  0
  1  2  1  0
  2  3  1  0
  3  4  1  0
  4  5  2  0
  5  6  1  0
  6  7  1  0
  7  8  1  0
  8  9  2  0
  9 10  1  0
 10 11  2  0
 11 12  1  0
  6 13  2  0
 13 14  1  0
 14 15  1  0
 15 16  1  0
 16 17  2  0
 16 18  1  0
 18 19  1  0
 19 20  1  0
 20 21  1  0
 14  3  2  0
 20 18  1  0
 12  7  2  0
  1 22  1  0
  1 23  1  0
  1 24  1  0
  4 25  1  0
  5 26  1  0
  8 27  1  0
  9 28  1  0
 10 29  1  0
 12 30  1  0
 13 31  1  0
 15 32  1  0
 18 33  1  0
 19 34  1  0
 19 35  1  0
 20 36  1  0
 21 37  1  0
 21 38  1  0
 21 39  1  0
M  END
$$$$
OCNT-2315150
     RDKit          3D

 36 39  0  0  0  0  0  0  0  0999 V2000
    0.1335    0.0501   -2.3941 O   0  0  0  0  0  0  0  0  0  0  0  0
   -0.1394    0.7512   -1.4150 C   0  0  0  0  0  0  0  0  0  0  0  0
    0.7906    1.8966   -1.0501 C   0  0  0  0  0  0  0  0  0  0  0  0
    1.6974    1.5472    0.0776 C   0  0  0  0  0  0  0  0  0  0  0  0
    1.6735    2.2725    1.2074 N   0  0  0  0  0  0  0  0  0  0  0  0
    2.6222    1.7034    1.9726 N   0  0  0  0  0  0  0  0  0  0  0  0
    3.2501    0.6362    1.3918 C   0  0  0  0  0  0  0  0  0  0  0  0
    4.2658   -0.2073    1.8530 C   0  0  0  0  0  0  0  0  0  0  0  0
    4.6932   -1.2200    0.9882 C   0  0  0  0  0  0  0  0  0  0  0  0
    4.1273   -1.3742   -0.2774 C   0  0  0  0  0  0  0  0  0  0  0  0
    3.1123   -0.5165   -0.7191 C   0  0  0  0  0  0  0  0  0  0  0  0
    2.6666    0.5071    0.1372 C   0  0  0  0  0  0  0  0  0  0  0  0
   -1.2673    0.5803   -0.6272 N   0  0  0  0  0  0  0  0  0  0  0  0
   -1.5937    1.3336    0.5998 C   0  0  0  0  0  0  0  0  0  0  0  0
   -2.9851    0.8840    1.0611 C   0  0  0  0  0  0  0  0  0  0  0  0
   -3.2354   -0.2956    0.1792 C   0  0  0  0  0  0  0  0  0  0  0  0
   -4.3138   -1.1681    0.2314 C   0  0  0  0  0  0  0  0  0  0  0  0
   -4.3804   -2.1879   -0.7175 C   0  0  0  0  0  0  0  0  0  0  0  0
   -5.7003   -3.2925   -0.6860 Cl  0  0  0  0  0  0  0  0  0  0  0  0
   -3.3897   -2.3217   -1.6992 C   0  0  0  0  0  0  0  0  0  0  0  0
   -2.3103   -1.4311   -1.7430 C   0  0  0  0  0  0  0  0  0  0  0  0
   -2.2426   -0.4223   -0.7954 C   0  0  0  0  0  0  0  0  0  0  0  0
    0.2080    2.8003   -0.8441 H   0  0  0  0  0  0  0  0  0  0  0  0
    1.3948    2.1336   -1.9352 H   0  0  0  0  0  0  0  0  0  0  0  0
    2.7977    2.0938    2.8910 H   0  0  0  0  0  0  0  0  0  0  0  0
    4.7085   -0.0881    2.8362 H   0  0  0  0  0  0  0  0  0  0  0  0
    5.4807   -1.8994    1.3078 H   0  0  0  0  0  0  0  0  0  0  0  0
    4.4753   -2.1705   -0.9316 H   0  0  0  0  0  0  0  0  0  0  0  0
    2.6768   -0.6495   -1.7063 H   0  0  0  0  0  0  0  0  0  0  0  0
   -1.5626    2.4109    0.4114 H   0  0  0  0  0  0  0  0  0  0  0  0
   -0.8444    1.0885    1.3598 H   0  0  0  0  0  0  0  0  0  0  0  0
   -3.7298    1.6641    0.8728 H   0  0  0  0  0  0  0  0  0  0  0  0
   -2.9886    0.6187    2.1223 H   0  0  0  0  0  0  0  0  0  0  0  0
   -5.0854   -1.0568    0.9861 H   0  0  0  0  0  0  0  0  0  0  0  0
   -3.4524   -3.1189   -2.4356 H   0  0  0  0  0  0  0  0  0  0  0  0
   -1.5531   -1.5515   -2.5100 H   0  0  0  0  0  0  0  0  0  0  0  0
  1  2  2  0
  2  3  1  0
  3  4  1  0
  4  5  2  0
  5  6  1  0
  6  7  1  0
  7  8  2  0
  8  9  1  0
  9 10  2  0
 10 11  1  0
 11 12  2  0
  2 13  1  0
 13 14  1  0
 14 15  1  0
 15 16  1  0
 16 17  1  0
 17 18  2  0
 18 19  1  0
 18 20  1  0
 20 21  2  0
 21 22  1  0
 12  4  1  0
 22 13  1  0
 12  7  1  0
 22 16  2  0
  3 23  1  0
  3 24  1  0
  6 25  1  0
  8 26  1  0
  9 27  1  0
 10 28  1  0
 11 29  1  0
 14 30  1  0
 14 31  1  0
 15 32  1  0
 15 33  1  0
 17 34  1  0
 20 35  1  0
 21 36  1  0
M  END
$$$$
OCNT-2315153
     RDKit          3D

 49 52  0  0  0  0  0  0  0  0999 V2000
    8.4339   -0.1758   -0.5217 C   0  0  0  0  0  0  0  0  0  0  0  0
    7.0082   -0.0524   -0.9703 C   0  0  0  0  0  0  0  0  0  0  0  0
    6.6975    0.0378   -2.3306 C   0  0  0  0  0  0  0  0  0  0  0  0
    5.3659    0.1148   -2.7458 C   0  0  0  0  0  0  0  0  0  0  0  0
    4.3282    0.1059   -1.8124 C   0  0  0  0  0  0  0  0  0  0  0  0
    3.0706    0.1831   -2.3432 O   0  0  0  0  0  0  0  0  0  0  0  0
    2.0480    0.7087   -1.5089 C   0  0  0  0  0  0  0  0  0  0  0  0
    1.2505   -0.3286   -0.6973 C   0  0  0  0  0  0  0  0  0  0  0  0
    1.5937   -1.5096   -0.6319 O   0  0  0  0  0  0  0  0  0  0  0  0
    0.1170    0.1326   -0.0311 N   0  0  0  0  0  0  0  0  0  0  0  0
   -0.7074   -0.8273    0.7111 C   0  0  0  0  0  0  0  0  0  0  0  0
   -2.2017   -0.4764    0.6498 C   0  0  0  0  0  0  0  0  0  0  0  0
   -2.4826    0.8966    1.0922 N   0  0  0  0  0  0  0  0  0  0  0  0
   -3.5888    1.2568    1.8624 C   0  0  0  0  0  0  0  0  0  0  0  0
   -3.5805    2.2746    2.5528 O   0  0  0  0  0  0  0  0  0  0  0  0
   -4.7634    0.4029    1.8337 C   0  0  0  0  0  0  0  0  0  0  0  0
   -5.5632    0.1545    2.9515 C   0  0  0  0  0  0  0  0  0  0  0  0
   -6.6424   -0.6372    2.6457 O   0  0  0  0  0  0  0  0  0  0  0  0
   -6.5134   -0.8537    1.3347 C   0  0  0  0  0  0  0  0  0  0  0  0
   -5.4289   -0.2596    0.7883 C   0  0  0  0  0  0  0  0  0  0  0  0
   -5.4691   -0.5102   -0.6486 C   0  0  0  0  0  0  0  0  0  0  0  0
   -6.7021   -1.2926   -0.8816 O   0  0  0  0  0  0  0  0  0  0  0  0
   -7.3859   -1.5477    0.4027 C   0  0  0  0  0  0  0  0  0  0  0  0
   -1.3557    1.8315    1.0667 C   0  0  0  0  0  0  0  0  0  0  0  0
   -0.3495    1.5245   -0.0488 C   0  0  0  0  0  0  0  0  0  0  0  0
    4.6310   -0.0182   -0.4574 C   0  0  0  0  0  0  0  0  0  0  0  0
    5.9642   -0.0972   -0.0394 C   0  0  0  0  0  0  0  0  0  0  0  0
    8.7261   -1.2299   -0.4886 H   0  0  0  0  0  0  0  0  0  0  0  0
    8.5691    0.2608    0.4734 H   0  0  0  0  0  0  0  0  0  0  0  0
    9.1053    0.3567   -1.2035 H   0  0  0  0  0  0  0  0  0  0  0  0
    7.4876    0.0437   -3.0776 H   0  0  0  0  0  0  0  0  0  0  0  0
    5.1365    0.1825   -3.8061 H   0  0  0  0  0  0  0  0  0  0  0  0
    2.4389    1.4854   -0.8408 H   0  0  0  0  0  0  0  0  0  0  0  0
    1.3397    1.1980   -2.1873 H   0  0  0  0  0  0  0  0  0  0  0  0
   -0.5532   -1.8430    0.3324 H   0  0  0  0  0  0  0  0  0  0  0  0
   -0.3581   -0.8035    1.7504 H   0  0  0  0  0  0  0  0  0  0  0  0
   -2.7684   -1.1967    1.2467 H   0  0  0  0  0  0  0  0  0  0  0  0
   -2.5346   -0.5387   -0.3910 H   0  0  0  0  0  0  0  0  0  0  0  0
   -5.5015    0.4685    3.9853 H   0  0  0  0  0  0  0  0  0  0  0  0
   -5.5400    0.4075   -1.2384 H   0  0  0  0  0  0  0  0  0  0  0  0
   -4.6351   -1.1187   -1.0038 H   0  0  0  0  0  0  0  0  0  0  0  0
   -8.3907   -1.1241    0.3439 H   0  0  0  0  0  0  0  0  0  0  0  0
   -7.4226   -2.6276    0.5607 H   0  0  0  0  0  0  0  0  0  0  0  0
   -1.7341    2.8544    0.9588 H   0  0  0  0  0  0  0  0  0  0  0  0
   -0.8608    1.7642    2.0438 H   0  0  0  0  0  0  0  0  0  0  0  0
   -0.8185    1.6846   -1.0269 H   0  0  0  0  0  0  0  0  0  0  0  0
    0.5057    2.2018    0.0289 H   0  0  0  0  0  0  0  0  0  0  0  0
    3.8544   -0.0902    0.2962 H   0  0  0  0  0  0  0  0  0  0  0  0
    6.1805   -0.2075    1.0210 H   0  0  0  0  0  0  0  0  0  0  0  0
  1  2  1  0
  2  3  1  0
  3  4  2  0
  4  5  1  0
  5  6  1  0
  6  7  1  0
  7  8  1  0
  8  9  2  0
  8 10  1  0
 10 11  1  0
 11 12  1  0
 12 13  1  0
 13 14  1  0
 14 15  2  0
 14 16  1  0
 16 17  2  0
 17 18  1  0
 18 19  1  0
 19 20  2  0
 20 21  1  0
 21 22  1  0
 22 23  1  0
 13 24  1  0
 24 25  1  0
  5 26  2  0
 26 27  1  0
 27  2  2  0
 25 10  1  0
 20 16  1  0
 23 19  1  0
  1 28  1  0
  1 29  1  0
  1 30  1  0
  3 31  1  0
  4 32  1  0
  7 33  1  0
  7 34  1  0
 11 35  1  0
 11 36  1  0
 12 37  1  0
 12 38  1  0
 17 39  1  0
 21 40  1  0
 21 41  1  0
 23 42  1  0
 23 43  1  0
 24 44  1  0
 24 45  1  0
 25 46  1  0
 25 47  1  0
 26 48  1  0
 27 49  1  0
M  END
$$$$
OCNT-2315156
     RDKit          3D

 40 42  0  0  0  0  0  0  0  0999 V2000
   -2.4014    2.5973   -0.5690 C   0  0  0  0  0  0  0  0  0  0  0  0
   -3.0358    1.3188   -0.0024 C   0  0  0  0  0  0  0  0  0  0  0  0
   -4.4718    1.6372    0.4338 C   0  0  0  0  0  0  0  0  0  0  0  0
   -2.2425    0.7984    1.2150 C   0  0  0  0  0  0  0  0  0  0  0  0
   -0.9383    0.2493    0.8512 N   0  0  0  0  0  0  0  0  0  0  0  0
    0.0772    0.2657    1.8151 C   0  0  0  0  0  0  0  0  0  0  0  0
   -0.1468    0.6247    2.9733 O   0  0  0  0  0  0  0  0  0  0  0  0
    1.4741   -0.1444    1.4774 C   0  0  0  0  0  0  0  0  0  0  0  0
    2.3407   -0.4724    2.5067 C   0  0  0  0  0  0  0  0  0  0  0  0
    3.6311   -0.8294    2.2891 N   0  0  0  0  0  0  0  0  0  0  0  0
    4.0421   -0.8333    1.0070 C   0  0  0  0  0  0  0  0  0  0  0  0
    5.3523   -1.1843    0.7075 C   0  0  0  0  0  0  0  0  0  0  0  0
    5.8176   -1.1982   -0.6080 C   0  0  0  0  0  0  0  0  0  0  0  0
    4.9577   -0.8543   -1.6429 C   0  0  0  0  0  0  0  0  0  0  0  0
    3.6386   -0.5002   -1.3548 C   0  0  0  0  0  0  0  0  0  0  0  0
    3.1619   -0.4837   -0.0498 C   0  0  0  0  0  0  0  0  0  0  0  0
    1.8793   -0.1386    0.1812 N   0  0  0  0  0  0  0  0  0  0  0  0
   -0.8351   -0.3624   -0.4742 C   0  0  0  0  0  0  0  0  0  0  0  0
   -2.1811   -0.6908   -1.1320 C   0  0  0  0  0  0  0  0  0  0  0  0
   -2.7356   -2.0314   -0.6358 C   0  0  0  0  0  0  0  0  0  0  0  0
   -3.8748   -2.3621   -1.2885 F   0  0  0  0  0  0  0  0  0  0  0  0
   -1.8484   -3.0300   -0.8677 F   0  0  0  0  0  0  0  0  0  0  0  0
   -3.0099   -2.0360    0.6846 F   0  0  0  0  0  0  0  0  0  0  0  0
   -3.1512    0.3742   -1.0806 O   0  0  0  0  0  0  0  0  0  0  0  0
   -2.3463    3.3877    0.1869 H   0  0  0  0  0  0  0  0  0  0  0  0
   -1.3911    2.4168   -0.9482 H   0  0  0  0  0  0  0  0  0  0  0  0
   -2.9814    2.9737   -1.4199 H   0  0  0  0  0  0  0  0  0  0  0  0
   -4.9771    0.7322    0.7905 H   0  0  0  0  0  0  0  0  0  0  0  0
   -5.0655    2.0090   -0.4094 H   0  0  0  0  0  0  0  0  0  0  0  0
   -4.4966    2.3857    1.2327 H   0  0  0  0  0  0  0  0  0  0  0  0
   -2.1183    1.5958    1.9577 H   0  0  0  0  0  0  0  0  0  0  0  0
   -2.7879   -0.0106    1.7128 H   0  0  0  0  0  0  0  0  0  0  0  0
    2.0272   -0.4601    3.5458 H   0  0  0  0  0  0  0  0  0  0  0  0
    6.0249   -1.4517    1.5193 H   0  0  0  0  0  0  0  0  0  0  0  0
    6.8478   -1.4755   -0.8181 H   0  0  0  0  0  0  0  0  0  0  0  0
    5.3089   -0.8594   -2.6720 H   0  0  0  0  0  0  0  0  0  0  0  0
    2.9685   -0.2294   -2.1670 H   0  0  0  0  0  0  0  0  0  0  0  0
   -0.2123   -1.2607   -0.4220 H   0  0  0  0  0  0  0  0  0  0  0  0
   -0.3155    0.3713   -1.1015 H   0  0  0  0  0  0  0  0  0  0  0  0
   -1.9854   -0.8390   -2.2014 H   0  0  0  0  0  0  0  0  0  0  0  0
  1  2  1  0
  2  3  1  0
  2  4  1  0
  4  5  1  0
  5  6  1  0
  6  7  2  0
  6  8  1  0
  8  9  1  0
  9 10  2  0
 10 11  1  0
 11 12  2  0
 12 13  1  0
 13 14  2  0
 14 15  1  0
 15 16  2  0
 16 17  1  0
  5 18  1  0
 18 19  1  0
 19 20  1  0
 20 21  1  0
 20 22  1  0
 20 23  1  0
 19 24  1  0
 24  2  1  0
 17  8  2  0
 16 11  1  0
  1 25  1  0
  1 26  1  0
  1 27  1  0
  3 28  1  0
  3 29  1  0
  3 30  1  0
  4 31  1  0
  4 32  1  0
  9 33  1  0
 12 34  1  0
 13 35  1  0
 14 36  1  0
 15 37  1  0
 18 38  1  0
 18 39  1  0
 19 40  1  0
M  END
$$$$
OCNT-2315174
     RDKit          3D

 39 41  0  0  0  0  0  0  0  0999 V2000
   -1.0387   -1.6029    1.8607 O   0  0  0  0  0  0  0  0  0  0  0  0
   -1.1496   -0.6077    1.1488 C   0  0  0  0  0  0  0  0  0  0  0  0
    0.0378    0.2487    0.9893 C   0  0  0  0  0  0  0  0  0  0  0  0
   -0.0183    1.6075    1.2541 C   0  0  0  0  0  0  0  0  0  0  0  0
    1.0442    2.4347    1.1323 N   0  0  0  0  0  0  0  0  0  0  0  0
    2.2180    1.8604    0.7643 C   0  0  0  0  0  0  0  0  0  0  0  0
    2.4004    0.4971    0.5099 C   0  0  0  0  0  0  0  0  0  0  0  0
    3.7106   -0.0541    0.1334 C   0  0  0  0  0  0  0  0  0  0  0  0
    3.8502   -0.8885   -0.9900 C   0  0  0  0  0  0  0  0  0  0  0  0
    5.0961   -1.4124   -1.3507 C   0  0  0  0  0  0  0  0  0  0  0  0
    6.2207   -1.1092   -0.5894 C   0  0  0  0  0  0  0  0  0  0  0  0
    7.7533   -1.7522   -1.0316 Cl  0  0  0  0  0  0  0  0  0  0  0  0
    6.1098   -0.2881    0.5285 C   0  0  0  0  0  0  0  0  0  0  0  0
    4.8627    0.2351    0.8863 C   0  0  0  0  0  0  0  0  0  0  0  0
    1.2655   -0.3154    0.6361 C   0  0  0  0  0  0  0  0  0  0  0  0
   -2.3349   -0.2615    0.4996 N   0  0  0  0  0  0  0  0  0  0  0  0
   -2.4276    0.6916   -0.6132 C   0  0  0  0  0  0  0  0  0  0  0  0
   -3.4117    0.2265   -1.6825 C   0  0  0  0  0  0  0  0  0  0  0  0
   -4.8035   -0.0456   -1.1056 C   0  0  0  0  0  0  0  0  0  0  0  0
   -5.6657    1.0611   -1.3653 O   0  0  0  0  0  0  0  0  0  0  0  0
   -4.7966   -0.3445    0.3931 C   0  0  0  0  0  0  0  0  0  0  0  0
   -3.5207   -1.0652    0.7952 C   0  0  0  0  0  0  0  0  0  0  0  0
   -0.9356    2.0843    1.5866 H   0  0  0  0  0  0  0  0  0  0  0  0
    3.0450    2.5619    0.6729 H   0  0  0  0  0  0  0  0  0  0  0  0
    2.9857   -1.1318   -1.6054 H   0  0  0  0  0  0  0  0  0  0  0  0
    5.1789   -2.0528   -2.2249 H   0  0  0  0  0  0  0  0  0  0  0  0
    6.9849   -0.0537    1.1290 H   0  0  0  0  0  0  0  0  0  0  0  0
    4.7978    0.8621    1.7743 H   0  0  0  0  0  0  0  0  0  0  0  0
    1.3315   -1.3902    0.4782 H   0  0  0  0  0  0  0  0  0  0  0  0
   -2.7523    1.6506   -0.1933 H   0  0  0  0  0  0  0  0  0  0  0  0
   -1.4447    0.8373   -1.0710 H   0  0  0  0  0  0  0  0  0  0  0  0
   -3.4591    0.9651   -2.4907 H   0  0  0  0  0  0  0  0  0  0  0  0
   -3.0249   -0.7056   -2.1148 H   0  0  0  0  0  0  0  0  0  0  0  0
   -5.2353   -0.8976   -1.6434 H   0  0  0  0  0  0  0  0  0  0  0  0
   -5.3429    1.8301   -0.8656 H   0  0  0  0  0  0  0  0  0  0  0  0
   -4.8936    0.5856    0.9683 H   0  0  0  0  0  0  0  0  0  0  0  0
   -5.6747   -0.9484    0.6503 H   0  0  0  0  0  0  0  0  0  0  0  0
   -3.5403   -1.2976    1.8661 H   0  0  0  0  0  0  0  0  0  0  0  0
   -3.4223   -2.0144    0.2545 H   0  0  0  0  0  0  0  0  0  0  0  0
  1  2  2  0
  2  3  1  0
  3  4  1  0
  4  5  2  0
  5  6  1  0
  6  7  2  0
  7  8  1  0
  8  9  1  0
  9 10  2  0
 10 11  1  0
 11 12  1  0
 11 13  2  0
 13 14  1  0
  7 15  1  0
  2 16  1  0
 16 17  1  0
 17 18  1  0
 18 19  1  0
 19 20  1  0
 19 21  1  0
 21 22  1  0
 15  3  2  0
 22 16  1  0
 14  8  2  0
  4 23  1  0
  6 24  1  0
  9 25  1  0
 10 26  1  0
 13 27  1  0
 14 28  1  0
 15 29  1  0
 17 30  1  0
 17 31  1  0
 18 32  1  0
 18 33  1  0
 19 34  1  0
 20 35  1  0
 21 36  1  0
 21 37  1  0
 22 38  1  0
 22 39  1  0
M  END
$$$$
OCNT-2315175
     RDKit          3D

 42 44  0  0  0  0  0  0  0  0999 V2000
   -0.1909   -0.9053   -1.8904 O   0  0  0  0  0  0  0  0  0  0  0  0
    0.2688   -0.0618   -1.1270 C   0  0  0  0  0  0  0  0  0  0  0  0
   -0.4960    0.9476   -0.5868 N   0  0  0  0  0  0  0  0  0  0  0  0
   -1.9109    1.0914   -0.8849 C   0  0  0  0  0  0  0  0  0  0  0  0
   -2.7789    0.0695   -0.1253 C   0  0  0  0  0  0  0  0  0  0  0  0
   -4.2225    0.3027   -0.3012 N   0  0  0  0  0  0  0  0  0  0  0  0
   -4.7319    1.4429    0.4911 C   0  0  0  0  0  0  0  0  0  0  0  0
   -5.5068    1.0238    1.7518 C   0  0  0  0  0  0  0  0  0  0  0  0
   -6.6379    0.1902    1.4698 O   0  0  0  0  0  0  0  0  0  0  0  0
   -6.4612   -0.6187    0.2979 C   0  0  0  0  0  0  0  0  0  0  0  0
   -4.9858   -0.9270    0.0058 C   0  0  0  0  0  0  0  0  0  0  0  0
    1.7095   -0.1133   -0.7498 C   0  0  0  0  0  0  0  0  0  0  0  0
    2.5155   -1.0988   -1.3354 C   0  0  0  0  0  0  0  0  0  0  0  0
    3.8751   -1.1909   -1.0133 C   0  0  0  0  0  0  0  0  0  0  0  0
    4.4605   -0.2996   -0.1022 C   0  0  0  0  0  0  0  0  0  0  0  0
    5.8863   -0.4204    0.2303 C   0  0  0  0  0  0  0  0  0  0  0  0
    6.6199   -1.5663    0.4837 C   0  0  0  0  0  0  0  0  0  0  0  0
    7.9929   -1.2944    0.7540 C   0  0  0  0  0  0  0  0  0  0  0  0
    8.2714    0.0513    0.6913 C   0  0  0  0  0  0  0  0  0  0  0  0
    6.8861    0.9750    0.3087 S   0  0  0  0  0  0  0  0  0  0  0  0
    3.6493    0.6801    0.4849 C   0  0  0  0  0  0  0  0  0  0  0  0
    2.2940    0.7675    0.1604 C   0  0  0  0  0  0  0  0  0  0  0  0
    1.5692    1.7252    0.7608 F   0  0  0  0  0  0  0  0  0  0  0  0
   -0.0743    1.6047    0.0603 H   0  0  0  0  0  0  0  0  0  0  0  0
   -2.0540    0.9745   -1.9655 H   0  0  0  0  0  0  0  0  0  0  0  0
   -2.1761    2.1192   -0.6194 H   0  0  0  0  0  0  0  0  0  0  0  0
   -2.5158    0.0637    0.9409 H   0  0  0  0  0  0  0  0  0  0  0  0
   -2.5217   -0.9265   -0.5091 H   0  0  0  0  0  0  0  0  0  0  0  0
   -3.9358    2.1416    0.7697 H   0  0  0  0  0  0  0  0  0  0  0  0
   -5.4168    1.9986   -0.1617 H   0  0  0  0  0  0  0  0  0  0  0  0
   -4.8515    0.4879    2.4485 H   0  0  0  0  0  0  0  0  0  0  0  0
   -5.8782    1.9109    2.2750 H   0  0  0  0  0  0  0  0  0  0  0  0
   -7.0163   -1.5488    0.4564 H   0  0  0  0  0  0  0  0  0  0  0  0
   -6.9279   -0.1014   -0.5486 H   0  0  0  0  0  0  0  0  0  0  0  0
   -4.5592   -1.4315    0.8832 H   0  0  0  0  0  0  0  0  0  0  0  0
   -4.9161   -1.6130   -0.8455 H   0  0  0  0  0  0  0  0  0  0  0  0
    2.0895   -1.8011   -2.0509 H   0  0  0  0  0  0  0  0  0  0  0  0
    4.4748   -1.9617   -1.4947 H   0  0  0  0  0  0  0  0  0  0  0  0
    6.1905   -2.5612    0.4848 H   0  0  0  0  0  0  0  0  0  0  0  0
    8.7369   -2.0481    0.9814 H   0  0  0  0  0  0  0  0  0  0  0  0
    9.2235    0.5392    0.8497 H   0  0  0  0  0  0  0  0  0  0  0  0
    4.0526    1.3824    1.2097 H   0  0  0  0  0  0  0  0  0  0  0  0
  1  2  2  0
  2  3  1  0
  3  4  1  0
  4  5  1  0
  5  6  1  0
  6  7  1  0
  7  8  1  0
  8  9  1  0
  9 10  1  0
 10 11  1  0
  2 12  1  0
 12 13  1  0
 13 14  2  0
 14 15  1  0
 15 16  1  0
 16 17  2  0
 17 18  1  0
 18 19  2  0
 19 20  1  0
 15 21  2  0
 21 22  1  0
 22 23  1  0
 11  6  1  0
 22 12  2  0
 20 16  1  0
  3 24  1  0
  4 25  1  0
  4 26  1  0
  5 27  1  0
  5 28  1  0
  7 29  1  0
  7 30  1  0
  8 31  1  0
  8 32  1  0
 10 33  1  0
 10 34  1  0
 11 35  1  0
 11 36  1  0
 13 37  1  0
 14 38  1  0
 17 39  1  0
 18 40  1  0
 19 41  1  0
 21 42  1  0
M  END
$$$$
OCNT-2315183
     RDKit          3D

 37 39  0  0  0  0  0  0  0  0999 V2000
    2.3308   -3.0905   -0.2062 C   0  0  0  0  0  0  0  0  0  0  0  0
    1.9918   -1.6417   -0.2033 C   0  0  0  0  0  0  0  0  0  0  0  0
    0.7255   -1.0789   -0.1849 C   0  0  0  0  0  0  0  0  0  0  0  0
   -0.5587   -1.7569   -0.1647 C   0  0  0  0  0  0  0  0  0  0  0  0
   -0.6757   -2.9805   -0.1745 O   0  0  0  0  0  0  0  0  0  0  0  0
   -1.6696   -0.9421   -0.1265 N   0  0  0  0  0  0  0  0  0  0  0  0
   -2.9985   -1.4890   -0.0208 C   0  0  0  0  0  0  0  0  0  0  0  0
   -4.0311   -0.3978   -0.1168 C   0  0  0  0  0  0  0  0  0  0  0  0
   -4.4722    0.0512   -1.3721 C   0  0  0  0  0  0  0  0  0  0  0  0
   -5.4068    1.0835   -1.4636 C   0  0  0  0  0  0  0  0  0  0  0  0
   -5.8942    1.6715   -0.3028 C   0  0  0  0  0  0  0  0  0  0  0  0
   -6.7894    2.6638   -0.3916 F   0  0  0  0  0  0  0  0  0  0  0  0
   -5.4628    1.2491    0.9489 C   0  0  0  0  0  0  0  0  0  0  0  0
   -4.5281    0.2169    1.0435 C   0  0  0  0  0  0  0  0  0  0  0  0
    0.8688    0.6316   -0.1908 S   0  0  0  0  0  0  0  0  0  0  0  0
    2.5848    0.5033   -0.2104 C   0  0  0  0  0  0  0  0  0  0  0  0
    3.3397    1.6289   -0.2179 N   0  0  0  0  0  0  0  0  0  0  0  0
    4.7498    1.4784   -0.5662 C   0  0  0  0  0  0  0  0  0  0  0  0
    5.7771    1.1596    0.4832 C   0  0  0  0  0  0  0  0  0  0  0  0
    5.7464    2.5223   -0.1433 C   0  0  0  0  0  0  0  0  0  0  0  0
    3.0361   -0.7293   -0.2190 N   0  0  0  0  0  0  0  0  0  0  0  0
    3.4157   -3.2371   -0.2183 H   0  0  0  0  0  0  0  0  0  0  0  0
    1.9154   -3.5813   -1.0917 H   0  0  0  0  0  0  0  0  0  0  0  0
    1.9356   -3.5803    0.6891 H   0  0  0  0  0  0  0  0  0  0  0  0
   -1.5383    0.0565   -0.0322 H   0  0  0  0  0  0  0  0  0  0  0  0
   -3.1461   -2.2332   -0.8126 H   0  0  0  0  0  0  0  0  0  0  0  0
   -3.0795   -2.0208    0.9346 H   0  0  0  0  0  0  0  0  0  0  0  0
   -4.0877   -0.4029   -2.2836 H   0  0  0  0  0  0  0  0  0  0  0  0
   -5.7559    1.4328   -2.4301 H   0  0  0  0  0  0  0  0  0  0  0  0
   -5.8559    1.7262    1.8411 H   0  0  0  0  0  0  0  0  0  0  0  0
   -4.1903   -0.1064    2.0262 H   0  0  0  0  0  0  0  0  0  0  0  0
    2.8690    2.4894   -0.4733 H   0  0  0  0  0  0  0  0  0  0  0  0
    4.8978    1.0414   -1.5521 H   0  0  0  0  0  0  0  0  0  0  0  0
    5.4380    1.0549    1.5070 H   0  0  0  0  0  0  0  0  0  0  0  0
    6.5762    0.4817    0.2088 H   0  0  0  0  0  0  0  0  0  0  0  0
    6.5376    2.7777   -0.8380 H   0  0  0  0  0  0  0  0  0  0  0  0
    5.4046    3.3477    0.4693 H   0  0  0  0  0  0  0  0  0  0  0  0
  1  2  1  0
  2  3  2  0
  3  4  1  0
  4  5  2  0
  4  6  1  0
  6  7  1  0
  7  8  1  0
  8  9  1  0
  9 10  2  0
 10 11  1  0
 11 12  1  0
 11 13  2  0
 13 14  1  0
  3 15  1  0
 15 16  1  0
 16 17  1  0
 17 18  1  0
 18 19  1  0
 19 20  1  0
 16 21  2  0
 21  2  1  0
 14  8  2  0
 20 18  1  0
  1 22  1  0
  1 23  1  0
  1 24  1  0
  6 25  1  0
  7 26  1  0
  7 27  1  0
  9 28  1  0
 10 29  1  0
 13 30  1  0
 14 31  1  0
 17 32  1  0
 18 33  1  0
 19 34  1  0
 19 35  1  0
 20 36  1  0
 20 37  1  0
M  END
$$$$
OCNT-2315186
     RDKit          3D

 43 45  0  0  0  0  0  0  0  0999 V2000
    3.6677    0.1331   -2.1534 C   0  0  0  0  0  0  0  0  0  0  0  0
    2.8516   -0.5810   -1.0790 C   0  0  0  0  0  0  0  0  0  0  0  0
    1.6600    0.1836   -0.7366 N   0  0  0  0  0  0  0  0  0  0  0  0
    0.5255    0.1728   -1.5057 C   0  0  0  0  0  0  0  0  0  0  0  0
    0.4072   -0.4277   -2.5649 O   0  0  0  0  0  0  0  0  0  0  0  0
   -0.5666    1.0180   -0.9831 C   0  0  0  0  0  0  0  0  0  0  0  0
   -0.4471    2.3742   -1.3533 C   0  0  0  0  0  0  0  0  0  0  0  0
   -1.3856    3.3089   -0.9349 C   0  0  0  0  0  0  0  0  0  0  0  0
   -2.4553    2.8976   -0.1423 C   0  0  0  0  0  0  0  0  0  0  0  0
   -3.4729    3.8910    0.3608 C   0  0  0  0  0  0  0  0  0  0  0  0
   -3.5884    4.9918   -0.4337 F   0  0  0  0  0  0  0  0  0  0  0  0
   -3.1678    4.3579    1.6030 F   0  0  0  0  0  0  0  0  0  0  0  0
   -4.7278    3.3692    0.4557 F   0  0  0  0  0  0  0  0  0  0  0  0
   -2.5549    1.5369    0.2197 C   0  0  0  0  0  0  0  0  0  0  0  0
   -1.6376    0.5412   -0.1935 C   0  0  0  0  0  0  0  0  0  0  0  0
   -1.8352   -0.7645    0.2190 N   0  0  0  0  0  0  0  0  0  0  0  0
   -3.1334   -1.2529    0.7060 C   0  0  0  0  0  0  0  0  0  0  0  0
   -3.0626   -2.7699    0.5534 C   0  0  0  0  0  0  0  0  0  0  0  0
   -1.5819   -3.0589    0.6922 C   0  0  0  0  0  0  0  0  0  0  0  0
   -0.9456   -1.8940   -0.0613 C   0  0  0  0  0  0  0  0  0  0  0  0
    3.6633   -0.7923    0.1728 C   0  0  0  0  0  0  0  0  0  0  0  0
    3.5989    0.0257    1.2405 N   0  0  0  0  0  0  0  0  0  0  0  0
    4.4694   -0.5603    2.0792 N   0  0  0  0  0  0  0  0  0  0  0  0
    5.0155   -1.6734    1.5255 C   0  0  0  0  0  0  0  0  0  0  0  0
    4.5274   -1.8505    0.3213 N   0  0  0  0  0  0  0  0  0  0  0  0
    3.0836    0.2675   -3.0698 H   0  0  0  0  0  0  0  0  0  0  0  0
    3.9860    1.1269   -1.8171 H   0  0  0  0  0  0  0  0  0  0  0  0
    4.5678   -0.4376   -2.4069 H   0  0  0  0  0  0  0  0  0  0  0  0
    2.5287   -1.5567   -1.4619 H   0  0  0  0  0  0  0  0  0  0  0  0
    1.6829    0.6816    0.1478 H   0  0  0  0  0  0  0  0  0  0  0  0
    0.3860    2.6934   -1.9776 H   0  0  0  0  0  0  0  0  0  0  0  0
   -1.2775    4.3514   -1.2284 H   0  0  0  0  0  0  0  0  0  0  0  0
   -3.3883    1.2631    0.8659 H   0  0  0  0  0  0  0  0  0  0  0  0
   -3.9787   -0.8647    0.1269 H   0  0  0  0  0  0  0  0  0  0  0  0
   -3.2590   -0.9817    1.7605 H   0  0  0  0  0  0  0  0  0  0  0  0
   -3.6722   -3.2940    1.2947 H   0  0  0  0  0  0  0  0  0  0  0  0
   -3.4097   -3.0637   -0.4446 H   0  0  0  0  0  0  0  0  0  0  0  0
   -1.2958   -4.0305    0.2802 H   0  0  0  0  0  0  0  0  0  0  0  0
   -1.2904   -3.0317    1.7491 H   0  0  0  0  0  0  0  0  0  0  0  0
   -0.9312   -2.1184   -1.1329 H   0  0  0  0  0  0  0  0  0  0  0  0
    0.0690   -1.7331    0.3118 H   0  0  0  0  0  0  0  0  0  0  0  0
    4.6348   -0.1523    2.9924 H   0  0  0  0  0  0  0  0  0  0  0  0
    5.7401   -2.2961    2.0301 H   0  0  0  0  0  0  0  0  0  0  0  0
  1  2  1  0
  2  3  1  0
  3  4  1  0
  4  5  2  0
  4  6  1  0
  6  7  1  0
  7  8  2  0
  8  9  1  0
  9 10  1  0
 10 11  1  0
 10 12  1  0
 10 13  1  0
  9 14  2  0
 14 15  1  0
 15 16  1  0
 16 17  1  0
 17 18  1  0
 18 19  1  0
 19 20  1  0
  2 21  1  0
 21 22  2  0
 22 23  1  0
 23 24  1  0
 24 25  2  0
 15  6  2  0
 20 16  1  0
 25 21  1  0
  1 26  1  0
  1 27  1  0
  1 28  1  0
  2 29  1  0
  3 30  1  0
  7 31  1  0
  8 32  1  0
 14 33  1  0
 17 34  1  0
 17 35  1  0
 18 36  1  0
 18 37  1  0
 19 38  1  0
 19 39  1  0
 20 40  1  0
 20 41  1  0
 23 42  1  0
 24 43  1  0
M  END
$$$$
OCNT-2315194
     RDKit          3D

 46 49  0  0  0  0  0  0  0  0999 V2000
    1.3663    1.1925   -1.4692 O   0  0  0  0  0  0  0  0  0  0  0  0
    1.2778    0.4820   -0.4799 C   0  0  0  0  0  0  0  0  0  0  0  0
    0.0590    0.0964    0.0596 N   0  0  0  0  0  0  0  0  0  0  0  0
   -1.1638    0.5167   -0.6133 C   0  0  0  0  0  0  0  0  0  0  0  0
   -2.4351    0.2462    0.2093 C   0  0  0  0  0  0  0  0  0  0  0  0
   -2.7817   -1.2509    0.2850 C   0  0  0  0  0  0  0  0  0  0  0  0
   -3.7180   -1.6580   -0.8454 C   0  0  0  0  0  0  0  0  0  0  0  0
   -5.0277   -0.8667   -0.8221 C   0  0  0  0  0  0  0  0  0  0  0  0
   -4.8481    0.5064   -0.1621 C   0  0  0  0  0  0  0  0  0  0  0  0
   -5.3599    0.6288    1.3102 C   0  0  0  0  0  0  0  0  0  0  0  0
   -6.7068    1.1206    0.7557 C   0  0  0  0  0  0  0  0  0  0  0  0
   -5.9653    1.5322   -0.5262 C   0  0  0  0  0  0  0  0  0  0  0  0
   -3.5051    0.9931   -0.3885 O   0  0  0  0  0  0  0  0  0  0  0  0
    2.3091   -0.0304    0.2702 N   0  0  0  0  0  0  0  0  0  0  0  0
    3.6669    0.0747   -0.0608 C   0  0  0  0  0  0  0  0  0  0  0  0
    4.5950   -0.3148    0.8930 C   0  0  0  0  0  0  0  0  0  0  0  0
    5.9641   -0.2482    0.5969 C   0  0  0  0  0  0  0  0  0  0  0  0
    6.9449   -0.6255    1.5329 C   0  0  0  0  0  0  0  0  0  0  0  0
    8.2988   -0.5477    1.2082 C   0  0  0  0  0  0  0  0  0  0  0  0
    8.6802   -0.0941   -0.0495 C   0  0  0  0  0  0  0  0  0  0  0  0
    7.7048    0.2795   -0.9772 C   0  0  0  0  0  0  0  0  0  0  0  0
    6.3493    0.2094   -0.6733 C   0  0  0  0  0  0  0  0  0  0  0  0
    5.4222    0.5681   -1.5707 N   0  0  0  0  0  0  0  0  0  0  0  0
    4.0756    0.5001   -1.2655 N   0  0  0  0  0  0  0  0  0  0  0  0
    0.0688   -0.8550    0.3945 H   0  0  0  0  0  0  0  0  0  0  0  0
   -1.0857    1.5905   -0.8258 H   0  0  0  0  0  0  0  0  0  0  0  0
   -1.2109    0.0141   -1.5869 H   0  0  0  0  0  0  0  0  0  0  0  0
   -2.2845    0.6322    1.2249 H   0  0  0  0  0  0  0  0  0  0  0  0
   -1.8826   -1.8755    0.2830 H   0  0  0  0  0  0  0  0  0  0  0  0
   -3.2840   -1.4524    1.2397 H   0  0  0  0  0  0  0  0  0  0  0  0
   -3.2137   -1.4893   -1.8052 H   0  0  0  0  0  0  0  0  0  0  0  0
   -3.9350   -2.7310   -0.7962 H   0  0  0  0  0  0  0  0  0  0  0  0
   -5.7975   -1.4471   -0.2994 H   0  0  0  0  0  0  0  0  0  0  0  0
   -5.3762   -0.7537   -1.8560 H   0  0  0  0  0  0  0  0  0  0  0  0
   -5.4100   -0.2969    1.8900 H   0  0  0  0  0  0  0  0  0  0  0  0
   -4.8280    1.3826    1.9029 H   0  0  0  0  0  0  0  0  0  0  0  0
   -7.4403    0.3208    0.6034 H   0  0  0  0  0  0  0  0  0  0  0  0
   -7.1804    1.9336    1.3117 H   0  0  0  0  0  0  0  0  0  0  0  0
   -6.5125    1.3530   -1.4561 H   0  0  0  0  0  0  0  0  0  0  0  0
   -5.6248    2.5747   -0.5213 H   0  0  0  0  0  0  0  0  0  0  0  0
    2.0733   -0.3296    1.2007 H   0  0  0  0  0  0  0  0  0  0  0  0
    4.2697   -0.6667    1.8659 H   0  0  0  0  0  0  0  0  0  0  0  0
    6.6607   -0.9811    2.5208 H   0  0  0  0  0  0  0  0  0  0  0  0
    9.0532   -0.8393    1.9349 H   0  0  0  0  0  0  0  0  0  0  0  0
    9.7329   -0.0287   -0.3131 H   0  0  0  0  0  0  0  0  0  0  0  0
    8.0048    0.6345   -1.9605 H   0  0  0  0  0  0  0  0  0  0  0  0
  1  2  2  0
  2  3  1  0
  3  4  1  0
  4  5  1  0
  5  6  1  0
  6  7  1  0
  7  8  1  0
  8  9  1  0
  9 10  1  0
 10 11  1  0
 11 12  1  0
  9 13  1  0
  2 14  1  0
 14 15  1  0
 15 16  2  0
 16 17  1  0
 17 18  2  0
 18 19  1  0
 19 20  2  0
 20 21  1  0
 21 22  2  0
 22 23  1  0
 23 24  2  0
 13  5  1  0
 24 15  1  0
 12  9  1  0
 22 17  1  0
  3 25  1  0
  4 26  1  0
  4 27  1  0
  5 28  1  0
  6 29  1  0
  6 30  1  0
  7 31  1  0
  7 32  1  0
  8 33  1  0
  8 34  1  0
 10 35  1  0
 10 36  1  0
 11 37  1  0
 11 38  1  0
 12 39  1  0
 12 40  1  0
 14 41  1  0
 16 42  1  0
 18 43  1  0
 19 44  1  0
 20 45  1  0
 21 46  1  0
M  END
$$$$
OCNT-2315211
     RDKit          3D

 35 37  0  0  0  0  0  0  0  0999 V2000
   -6.3336    1.6467    0.0042 C   0  0  0  0  0  0  0  0  0  0  0  0
   -5.7519    0.3533    0.1035 O   0  0  0  0  0  0  0  0  0  0  0  0
   -4.3883    0.2836    0.0366 C   0  0  0  0  0  0  0  0  0  0  0  0
   -3.5169    1.3585   -0.1193 C   0  0  0  0  0  0  0  0  0  0  0  0
   -2.1342    1.1391   -0.1721 C   0  0  0  0  0  0  0  0  0  0  0  0
   -1.6010   -0.1526   -0.0704 C   0  0  0  0  0  0  0  0  0  0  0  0
   -0.1940   -0.2696   -0.1348 N   0  0  0  0  0  0  0  0  0  0  0  0
    0.5639   -1.4182   -0.0597 C   0  0  0  0  0  0  0  0  0  0  0  0
    0.0976   -2.5479    0.0798 O   0  0  0  0  0  0  0  0  0  0  0  0
    2.0616   -1.3085   -0.1520 C   0  0  0  0  0  0  0  0  0  0  0  0
    2.7756   -2.5276   -0.0674 C   0  0  0  0  0  0  0  0  0  0  0  0
    4.1793   -2.5891   -0.1373 C   0  0  0  0  0  0  0  0  0  0  0  0
    4.9276   -1.4290   -0.2952 C   0  0  0  0  0  0  0  0  0  0  0  0
    4.2465   -0.2268   -0.3799 C   0  0  0  0  0  0  0  0  0  0  0  0
    2.8386   -0.1654   -0.3097 C   0  0  0  0  0  0  0  0  0  0  0  0
    2.4998    1.2635   -0.4359 C   0  0  0  0  0  0  0  0  0  0  0  0
    1.3874    1.7512   -0.4249 O   0  0  0  0  0  0  0  0  0  0  0  0
    3.6719    1.9682   -0.5707 N   0  0  0  0  0  0  0  0  0  0  0  0
    4.8373    1.1331   -0.5494 C   0  0  0  0  0  0  0  0  0  0  0  0
   -2.4785   -1.2237    0.0855 C   0  0  0  0  0  0  0  0  0  0  0  0
   -3.8608   -1.0043    0.1383 C   0  0  0  0  0  0  0  0  0  0  0  0
   -6.0129    2.2887    0.8314 H   0  0  0  0  0  0  0  0  0  0  0  0
   -7.4195    1.5312    0.0748 H   0  0  0  0  0  0  0  0  0  0  0  0
   -6.1103    2.1071   -0.9639 H   0  0  0  0  0  0  0  0  0  0  0  0
   -3.8731    2.3792   -0.2033 H   0  0  0  0  0  0  0  0  0  0  0  0
   -1.4759    1.9971   -0.2946 H   0  0  0  0  0  0  0  0  0  0  0  0
    0.2885    0.6195   -0.2509 H   0  0  0  0  0  0  0  0  0  0  0  0
    2.2342   -3.4669    0.0570 H   0  0  0  0  0  0  0  0  0  0  0  0
    4.6762   -3.5548   -0.0665 H   0  0  0  0  0  0  0  0  0  0  0  0
    6.0113   -1.4730   -0.3495 H   0  0  0  0  0  0  0  0  0  0  0  0
    3.6732    2.9749   -0.6726 H   0  0  0  0  0  0  0  0  0  0  0  0
    5.4670    1.4213    0.2961 H   0  0  0  0  0  0  0  0  0  0  0  0
    5.3697    1.2398   -1.4979 H   0  0  0  0  0  0  0  0  0  0  0  0
   -2.1266   -2.2461    0.1699 H   0  0  0  0  0  0  0  0  0  0  0  0
   -4.5297   -1.8527    0.2604 H   0  0  0  0  0  0  0  0  0  0  0  0
  1  2  1  0
  2  3  1  0
  3  4  1  0
  4  5  2  0
  5  6  1  0
  6  7  1  0
  7  8  1  0
  8  9  2  0
  8 10  1  0
 10 11  1  0
 11 12  2  0
 12 13  1  0
 13 14  2  0
 14 15  1  0
 15 16  1  0
 16 17  2  0
 16 18  1  0
 18 19  1  0
  6 20  2  0
 20 21  1  0
 21  3  2  0
 15 10  2  0
 19 14  1  0
  1 22  1  0
  1 23  1  0
  1 24  1  0
  4 25  1  0
  5 26  1  0
  7 27  1  0
 11 28  1  0
 12 29  1  0
 13 30  1  0
 18 31  1  0
 19 32  1  0
 19 33  1  0
 20 34  1  0
 21 35  1  0
M  END
$$$$
OCNT-2315212
     RDKit          3D

 52 56  0  0  0  0  0  0  0  0999 V2000
    3.4407   -1.5502   -3.0242 C   0  0  0  0  0  0  0  0  0  0  0  0
    3.6234   -0.1779   -2.8763 C   0  0  0  0  0  0  0  0  0  0  0  0
    3.6742    0.3826   -1.5984 C   0  0  0  0  0  0  0  0  0  0  0  0
    3.5398   -0.4184   -0.4607 C   0  0  0  0  0  0  0  0  0  0  0  0
    3.5989    0.2645    0.7218 O   0  0  0  0  0  0  0  0  0  0  0  0
    3.2854   -0.4296    1.9287 C   0  0  0  0  0  0  0  0  0  0  0  0
    1.7762   -0.6145    2.1386 C   0  0  0  0  0  0  0  0  0  0  0  0
    1.0249    0.7338    2.0605 C   0  0  0  0  0  0  0  0  0  0  0  0
   -0.4383    0.5512    2.2698 N   0  0  0  0  0  0  0  0  0  0  0  0
   -1.1761    0.8236    1.0940 C   0  0  0  0  0  0  0  0  0  0  0  0
   -1.6391   -0.2153    0.3766 N   0  0  0  0  0  0  0  0  0  0  0  0
   -2.2928    0.0515   -0.7650 C   0  0  0  0  0  0  0  0  0  0  0  0
   -2.7912   -1.0873   -1.5484 C   0  0  0  0  0  0  0  0  0  0  0  0
   -3.5663   -0.9279   -2.7088 C   0  0  0  0  0  0  0  0  0  0  0  0
   -4.0283   -2.0374   -3.4184 C   0  0  0  0  0  0  0  0  0  0  0  0
   -3.7012   -3.2973   -2.9508 C   0  0  0  0  0  0  0  0  0  0  0  0
   -2.9581   -3.5117   -1.8465 N   0  0  0  0  0  0  0  0  0  0  0  0
   -2.5259   -2.4075   -1.1799 C   0  0  0  0  0  0  0  0  0  0  0  0
   -2.5252    1.2858   -1.2399 N   0  0  0  0  0  0  0  0  0  0  0  0
   -2.0843    2.3167   -0.5153 C   0  0  0  0  0  0  0  0  0  0  0  0
   -2.3261    3.6049   -0.9793 C   0  0  0  0  0  0  0  0  0  0  0  0
   -1.9122    4.7367   -0.2721 C   0  0  0  0  0  0  0  0  0  0  0  0
   -1.2428    4.5873    0.9338 C   0  0  0  0  0  0  0  0  0  0  0  0
   -0.9867    3.3060    1.4160 C   0  0  0  0  0  0  0  0  0  0  0  0
   -1.3936    2.1559    0.6912 C   0  0  0  0  0  0  0  0  0  0  0  0
   -0.7864   -0.7371    2.9090 C   0  0  0  0  0  0  0  0  0  0  0  0
    0.2746   -1.0831    3.9627 C   0  0  0  0  0  0  0  0  0  0  0  0
    1.5856   -1.2821    3.4058 O   0  0  0  0  0  0  0  0  0  0  0  0
    3.3662   -1.7942   -0.6143 C   0  0  0  0  0  0  0  0  0  0  0  0
    3.3138   -2.3569   -1.8948 C   0  0  0  0  0  0  0  0  0  0  0  0
    3.3995   -1.9914   -4.0165 H   0  0  0  0  0  0  0  0  0  0  0  0
    3.7267    0.4570   -3.7529 H   0  0  0  0  0  0  0  0  0  0  0  0
    3.8171    1.4550   -1.4892 H   0  0  0  0  0  0  0  0  0  0  0  0
    3.8337   -1.3757    2.0142 H   0  0  0  0  0  0  0  0  0  0  0  0
    3.6782    0.1830    2.7507 H   0  0  0  0  0  0  0  0  0  0  0  0
    1.3835   -1.2793    1.3603 H   0  0  0  0  0  0  0  0  0  0  0  0
    1.2444    1.2392    1.1122 H   0  0  0  0  0  0  0  0  0  0  0  0
    1.3809    1.3886    2.8659 H   0  0  0  0  0  0  0  0  0  0  0  0
   -3.8182    0.0694   -3.0650 H   0  0  0  0  0  0  0  0  0  0  0  0
   -4.6290   -1.9162   -4.3129 H   0  0  0  0  0  0  0  0  0  0  0  0
   -4.0368   -4.1925   -3.4669 H   0  0  0  0  0  0  0  0  0  0  0  0
   -1.9306   -2.6329   -0.2971 H   0  0  0  0  0  0  0  0  0  0  0  0
   -2.8571    3.7331   -1.9201 H   0  0  0  0  0  0  0  0  0  0  0  0
   -2.1213    5.7288   -0.6644 H   0  0  0  0  0  0  0  0  0  0  0  0
   -0.9258    5.4593    1.4995 H   0  0  0  0  0  0  0  0  0  0  0  0
   -0.4765    3.1938    2.3703 H   0  0  0  0  0  0  0  0  0  0  0  0
   -0.8217   -1.5604    2.1845 H   0  0  0  0  0  0  0  0  0  0  0  0
   -1.7688   -0.6516    3.3870 H   0  0  0  0  0  0  0  0  0  0  0  0
    0.3503   -0.2848    4.7096 H   0  0  0  0  0  0  0  0  0  0  0  0
    0.0008   -2.0025    4.4896 H   0  0  0  0  0  0  0  0  0  0  0  0
    3.2685   -2.4628    0.2343 H   0  0  0  0  0  0  0  0  0  0  0  0
    3.1730   -3.4291   -2.0087 H   0  0  0  0  0  0  0  0  0  0  0  0
  1  2  2  0
  2  3  1  0
  3  4  2  0
  4  5  1  0
  5  6  1  0
  6  7  1  0
  7  8  1  0
  8  9  1  0
  9 10  1  0
 10 11  1  0
 11 12  2  0
 12 13  1  0
 13 14  1  0
 14 15  2  0
 15 16  1  0
 16 17  2  0
 17 18  1  0
 12 19  1  0
 19 20  2  0
 20 21  1  0
 21 22  2  0
 22 23  1  0
 23 24  2  0
 24 25  1  0
  9 26  1  0
 26 27  1  0
 27 28  1  0
  4 29  1  0
 29 30  2  0
 30  1  1  0
 28  7  1  0
 25 10  2  0
 18 13  2  0
 25 20  1  0
  1 31  1  0
  2 32  1  0
  3 33  1  0
  6 34  1  0
  6 35  1  0
  7 36  1  0
  8 37  1  0
  8 38  1  0
 14 39  1  0
 15 40  1  0
 16 41  1  0
 18 42  1  0
 21 43  1  0
 22 44  1  0
 23 45  1  0
 24 46  1  0
 26 47  1  0
 26 48  1  0
 27 49  1  0
 27 50  1  0
 29 51  1  0
 30 52  1  0
M  END
$$$$
OCNT-2315214
     RDKit          3D

 42 43  0  0  0  0  0  0  0  0999 V2000
   -4.0690    2.0538   -0.3739 C   0  0  0  0  0  0  0  0  0  0  0  0
   -3.0384    1.4542    0.5826 C   0  0  0  0  0  0  0  0  0  0  0  0
   -3.6945    0.3735    1.4658 C   0  0  0  0  0  0  0  0  0  0  0  0
   -4.2899    0.6678    2.5062 O   0  0  0  0  0  0  0  0  0  0  0  0
   -3.7625   -0.9281    1.0543 N   0  0  0  0  0  0  0  0  0  0  0  0
   -3.6252   -1.4445   -0.2890 C   0  0  0  0  0  0  0  0  0  0  0  0
   -2.2274   -1.3069   -0.8679 C   0  0  0  0  0  0  0  0  0  0  0  0
   -1.9023    0.1305   -1.2501 C   0  0  0  0  0  0  0  0  0  0  0  0
   -1.7938    1.0025   -0.0828 N   0  0  0  0  0  0  0  0  0  0  0  0
   -0.6091    1.1412    0.6504 C   0  0  0  0  0  0  0  0  0  0  0  0
   -0.5814    1.6923    1.7508 O   0  0  0  0  0  0  0  0  0  0  0  0
    0.6694    0.6191    0.0129 C   0  0  0  0  0  0  0  0  0  0  0  0
    1.8720    0.7731    0.9467 C   0  0  0  0  0  0  0  0  0  0  0  0
    3.1459    0.2579    0.3072 C   0  0  0  0  0  0  0  0  0  0  0  0
    3.8640    1.1289   -0.5327 C   0  0  0  0  0  0  0  0  0  0  0  0
    5.0355    0.7141   -1.1639 C   0  0  0  0  0  0  0  0  0  0  0  0
    5.5087   -0.5778   -0.9684 C   0  0  0  0  0  0  0  0  0  0  0  0
    4.8088   -1.4563   -0.1417 C   0  0  0  0  0  0  0  0  0  0  0  0
    3.6203   -1.0597    0.5031 C   0  0  0  0  0  0  0  0  0  0  0  0
    2.9056   -2.0526    1.3956 C   0  0  0  0  0  0  0  0  0  0  0  0
    1.5898   -2.2029    1.0715 F   0  0  0  0  0  0  0  0  0  0  0  0
    3.4338   -3.3097    1.3417 F   0  0  0  0  0  0  0  0  0  0  0  0
    2.9352   -1.6989    2.7093 F   0  0  0  0  0  0  0  0  0  0  0  0
   -4.8868    2.5164    0.1902 H   0  0  0  0  0  0  0  0  0  0  0  0
   -3.6131    2.8247   -1.0038 H   0  0  0  0  0  0  0  0  0  0  0  0
   -4.5249    1.3059   -1.0280 H   0  0  0  0  0  0  0  0  0  0  0  0
   -2.7611    2.2601    1.2745 H   0  0  0  0  0  0  0  0  0  0  0  0
   -4.2952   -1.4871    1.7119 H   0  0  0  0  0  0  0  0  0  0  0  0
   -4.3729   -0.9635   -0.9269 H   0  0  0  0  0  0  0  0  0  0  0  0
   -3.8813   -2.5084   -0.2317 H   0  0  0  0  0  0  0  0  0  0  0  0
   -2.1650   -1.9230   -1.7729 H   0  0  0  0  0  0  0  0  0  0  0  0
   -1.4881   -1.6973   -0.1589 H   0  0  0  0  0  0  0  0  0  0  0  0
   -0.9610    0.1427   -1.8069 H   0  0  0  0  0  0  0  0  0  0  0  0
   -2.6484    0.5348   -1.9408 H   0  0  0  0  0  0  0  0  0  0  0  0
    0.5431   -0.4373   -0.2406 H   0  0  0  0  0  0  0  0  0  0  0  0
    0.8438    1.1819   -0.9117 H   0  0  0  0  0  0  0  0  0  0  0  0
    2.0103    1.8299    1.2123 H   0  0  0  0  0  0  0  0  0  0  0  0
    1.6874    0.2648    1.8998 H   0  0  0  0  0  0  0  0  0  0  0  0
    3.5122    2.1466   -0.6953 H   0  0  0  0  0  0  0  0  0  0  0  0
    5.5803    1.4025   -1.8052 H   0  0  0  0  0  0  0  0  0  0  0  0
    6.4248   -0.9019   -1.4562 H   0  0  0  0  0  0  0  0  0  0  0  0
    5.2001   -2.4633    0.0009 H   0  0  0  0  0  0  0  0  0  0  0  0
  1  2  1  0
  2  3  1  0
  3  4  2  0
  3  5  1  0
  5  6  1  0
  6  7  1  0
  7  8  1  0
  8  9  1  0
  9 10  1  0
 10 11  2  0
 10 12  1  0
 12 13  1  0
 13 14  1  0
 14 15  2  0
 15 16  1  0
 16 17  2  0
 17 18  1  0
 18 19  2  0
 19 20  1  0
 20 21  1  0
 20 22  1  0
 20 23  1  0
  9  2  1  0
 19 14  1  0
  1 24  1  0
  1 25  1  0
  1 26  1  0
  2 27  1  0
  5 28  1  0
  6 29  1  0
  6 30  1  0
  7 31  1  0
  7 32  1  0
  8 33  1  0
  8 34  1  0
 12 35  1  0
 12 36  1  0
 13 37  1  0
 13 38  1  0
 15 39  1  0
 16 40  1  0
 17 41  1  0
 18 42  1  0
M  END
$$$$
OCNT-2315226
     RDKit          3D

 46 49  0  0  0  0  0  0  0  0999 V2000
    5.5800   -0.9158    2.0782 C   0  0  0  0  0  0  0  0  0  0  0  0
    5.6602   -0.2834    0.7164 C   0  0  0  0  0  0  0  0  0  0  0  0
    6.9344   -0.0874    0.1344 C   0  0  0  0  0  0  0  0  0  0  0  0
    7.0864    0.4954   -1.1260 C   0  0  0  0  0  0  0  0  0  0  0  0
    5.9724    0.9051   -1.8519 C   0  0  0  0  0  0  0  0  0  0  0  0
    6.1231    1.4632   -3.0592 F   0  0  0  0  0  0  0  0  0  0  0  0
    4.7204    0.7121   -1.2783 C   0  0  0  0  0  0  0  0  0  0  0  0
    4.5305    0.1341   -0.0279 C   0  0  0  0  0  0  0  0  0  0  0  0
    3.1203    0.1279    0.1716 C   0  0  0  0  0  0  0  0  0  0  0  0
    2.5384    0.6915   -0.9524 C   0  0  0  0  0  0  0  0  0  0  0  0
    1.1622    0.9571   -1.3318 C   0  0  0  0  0  0  0  0  0  0  0  0
    0.8380    1.5999   -2.3273 O   0  0  0  0  0  0  0  0  0  0  0  0
    0.2071    0.4117   -0.4869 N   0  0  0  0  0  0  0  0  0  0  0  0
   -1.1978    0.4986   -0.8260 C   0  0  0  0  0  0  0  0  0  0  0  0
   -1.9931    0.0315    0.3887 C   0  0  0  0  0  0  0  0  0  0  0  0
   -1.9722   -1.4983    0.6541 C   0  0  0  0  0  0  0  0  0  0  0  0
   -3.3456   -1.6013   -0.0296 C   0  0  0  0  0  0  0  0  0  0  0  0
   -3.5624   -0.0833    0.2552 C   0  0  0  0  0  0  0  0  0  0  0  0
   -4.2168    0.6994   -0.8904 C   0  0  0  0  0  0  0  0  0  0  0  0
   -5.7150    0.4161   -0.9120 C   0  0  0  0  0  0  0  0  0  0  0  0
   -6.3065    0.7768    0.3374 O   0  0  0  0  0  0  0  0  0  0  0  0
   -5.7870   -0.0091    1.4107 C   0  0  0  0  0  0  0  0  0  0  0  0
   -4.2911    0.2371    1.5748 C   0  0  0  0  0  0  0  0  0  0  0  0
    3.5252    1.0489   -1.8328 O   0  0  0  0  0  0  0  0  0  0  0  0
    4.5442   -1.0169    2.4149 H   0  0  0  0  0  0  0  0  0  0  0  0
    6.1148   -0.3014    2.8095 H   0  0  0  0  0  0  0  0  0  0  0  0
    6.0266   -1.9150    2.0552 H   0  0  0  0  0  0  0  0  0  0  0  0
    7.8266   -0.3964    0.6785 H   0  0  0  0  0  0  0  0  0  0  0  0
    8.0759    0.6356   -1.5517 H   0  0  0  0  0  0  0  0  0  0  0  0
    2.5990   -0.2369    1.0443 H   0  0  0  0  0  0  0  0  0  0  0  0
    0.5053   -0.2843    0.1804 H   0  0  0  0  0  0  0  0  0  0  0  0
   -1.3766   -0.1244   -1.7088 H   0  0  0  0  0  0  0  0  0  0  0  0
   -1.4339    1.5383   -1.0761 H   0  0  0  0  0  0  0  0  0  0  0  0
   -1.6923    0.6171    1.2696 H   0  0  0  0  0  0  0  0  0  0  0  0
   -1.9913   -1.7572    1.7192 H   0  0  0  0  0  0  0  0  0  0  0  0
   -1.1730   -2.0721    0.1765 H   0  0  0  0  0  0  0  0  0  0  0  0
   -4.0466   -2.2955    0.4419 H   0  0  0  0  0  0  0  0  0  0  0  0
   -3.2766   -1.8559   -1.0942 H   0  0  0  0  0  0  0  0  0  0  0  0
   -3.7825    0.4359   -1.8607 H   0  0  0  0  0  0  0  0  0  0  0  0
   -4.0539    1.7728   -0.7326 H   0  0  0  0  0  0  0  0  0  0  0  0
   -6.1947    1.0162   -1.6917 H   0  0  0  0  0  0  0  0  0  0  0  0
   -5.9268   -0.6381   -1.1258 H   0  0  0  0  0  0  0  0  0  0  0  0
   -6.0103   -1.0665    1.2291 H   0  0  0  0  0  0  0  0  0  0  0  0
   -6.3131    0.2873    2.3237 H   0  0  0  0  0  0  0  0  0  0  0  0
   -3.9062   -0.3632    2.4064 H   0  0  0  0  0  0  0  0  0  0  0  0
   -4.1255    1.2925    1.8257 H   0  0  0  0  0  0  0  0  0  0  0  0
  1  2  1  0
  2  3  1  0
  3  4  2  0
  4  5  1  0
  5  6  1  0
  5  7  2  0
  7  8  1  0
  8  9  1  0
  9 10  2  0
 10 11  1  0
 11 12  2  0
 11 13  1  0
 13 14  1  0
 14 15  1  0
 15 16  1  0
 16 17  1  0
 17 18  1  0
 18 19  1  0
 19 20  1  0
 20 21  1  0
 21 22  1  0
 22 23  1  0
 10 24  1  0
  8  2  2  0
 18 15  1  0
 24  7  1  0
 23 18  1  0
  1 25  1  0
  1 26  1  0
  1 27  1  0
  3 28  1  0
  4 29  1  0
  9 30  1  0
 13 31  1  0
 14 32  1  0
 14 33  1  0
 15 34  1  0
 16 35  1  0
 16 36  1  0
 17 37  1  0
 17 38  1  0
 19 39  1  0
 19 40  1  0
 20 41  1  0
 20 42  1  0
 22 43  1  0
 22 44  1  0
 23 45  1  0
 23 46  1  0
M  END
$$$$
OCNT-2315230
     RDKit          3D

 42 44  0  0  0  0  0  0  0  0999 V2000
   -5.5902    0.8632    0.1331 C   0  0  0  0  0  0  0  0  0  0  0  0
   -4.2227    0.1995    0.3785 C   0  0  0  0  0  0  0  0  0  0  0  0
   -4.4359   -0.9381    1.3978 C   0  0  0  0  0  0  0  0  0  0  0  0
   -3.2433    1.2438    0.9426 C   0  0  0  0  0  0  0  0  0  0  0  0
   -1.8116    0.7172    1.0438 C   0  0  0  0  0  0  0  0  0  0  0  0
   -1.4630   -0.2630   -0.0831 C   0  0  0  0  0  0  0  0  0  0  0  0
   -0.0120   -0.1274   -0.5544 C   0  0  0  0  0  0  0  0  0  0  0  0
    0.9952   -0.5357    0.5159 C   0  0  0  0  0  0  0  0  0  0  0  0
    2.3602   -0.4111    0.0371 N   0  0  0  0  0  0  0  0  0  0  0  0
    3.0209    0.7937    0.0915 C   0  0  0  0  0  0  0  0  0  0  0  0
    2.5458    1.8096    0.5856 O   0  0  0  0  0  0  0  0  0  0  0  0
    4.3522    0.8044   -0.5407 C   0  0  0  0  0  0  0  0  0  0  0  0
    4.8044    1.9062   -1.1724 C   0  0  0  0  0  0  0  0  0  0  0  0
    6.4151    1.6913   -1.8762 S   0  0  0  0  0  0  0  0  0  0  0  0
    6.4349    0.0760   -1.2515 C   0  0  0  0  0  0  0  0  0  0  0  0
    7.2207   -1.0356   -1.1957 C   0  0  0  0  0  0  0  0  0  0  0  0
    6.5689   -2.0146   -0.4677 N   0  0  0  0  0  0  0  0  0  0  0  0
    5.4208   -1.4785   -0.0899 C   0  0  0  0  0  0  0  0  0  0  0  0
    5.2837   -0.2104   -0.5764 N   0  0  0  0  0  0  0  0  0  0  0  0
   -2.3119   -0.0227   -1.2063 O   0  0  0  0  0  0  0  0  0  0  0  0
   -3.6766   -0.3745   -0.9527 C   0  0  0  0  0  0  0  0  0  0  0  0
   -5.5064    1.6904   -0.5808 H   0  0  0  0  0  0  0  0  0  0  0  0
   -6.3120    0.1451   -0.2722 H   0  0  0  0  0  0  0  0  0  0  0  0
   -6.0063    1.2687    1.0624 H   0  0  0  0  0  0  0  0  0  0  0  0
   -5.1681   -1.6651    1.0278 H   0  0  0  0  0  0  0  0  0  0  0  0
   -3.5115   -1.4842    1.6078 H   0  0  0  0  0  0  0  0  0  0  0  0
   -4.8112   -0.5471    2.3505 H   0  0  0  0  0  0  0  0  0  0  0  0
   -3.2369    2.1207    0.2804 H   0  0  0  0  0  0  0  0  0  0  0  0
   -3.5721    1.6075    1.9239 H   0  0  0  0  0  0  0  0  0  0  0  0
   -1.6545    0.2221    2.0099 H   0  0  0  0  0  0  0  0  0  0  0  0
   -1.1342    1.5803    1.0381 H   0  0  0  0  0  0  0  0  0  0  0  0
   -1.6200   -1.2967    0.2506 H   0  0  0  0  0  0  0  0  0  0  0  0
    0.1345   -0.7472   -1.4493 H   0  0  0  0  0  0  0  0  0  0  0  0
    0.1751    0.9010   -0.8902 H   0  0  0  0  0  0  0  0  0  0  0  0
    0.8821    0.0746    1.4179 H   0  0  0  0  0  0  0  0  0  0  0  0
    0.8512   -1.5849    0.7948 H   0  0  0  0  0  0  0  0  0  0  0  0
    2.6979   -1.1398   -0.5782 H   0  0  0  0  0  0  0  0  0  0  0  0
    4.2653    2.8411   -1.2697 H   0  0  0  0  0  0  0  0  0  0  0  0
    8.2032   -1.1999   -1.6174 H   0  0  0  0  0  0  0  0  0  0  0  0
    4.6787   -1.9617    0.5308 H   0  0  0  0  0  0  0  0  0  0  0  0
   -3.7630   -1.4672   -0.9895 H   0  0  0  0  0  0  0  0  0  0  0  0
   -4.2473    0.0069   -1.8067 H   0  0  0  0  0  0  0  0  0  0  0  0
  1  2  1  0
  2  3  1  0
  2  4  1  0
  4  5  1  0
  5  6  1  0
  6  7  1  0
  7  8  1  0
  8  9  1  0
  9 10  1  0
 10 11  2  0
 10 12  1  0
 12 13  2  0
 13 14  1  0
 14 15  1  0
 15 16  2  0
 16 17  1  0
 17 18  2  0
 18 19  1  0
  6 20  1  0
 20 21  1  0
 21  2  1  0
 19 12  1  0
 19 15  1  0
  1 22  1  0
  1 23  1  0
  1 24  1  0
  3 25  1  0
  3 26  1  0
  3 27  1  0
  4 28  1  0
  4 29  1  0
  5 30  1  0
  5 31  1  0
  6 32  1  0
  7 33  1  0
  7 34  1  0
  8 35  1  0
  8 36  1  0
  9 37  1  0
 13 38  1  0
 16 39  1  0
 18 40  1  0
 21 41  1  0
 21 42  1  0
M  END
$$$$
OCNT-2315236
     RDKit          3D

 57 60  0  0  0  0  0  0  0  0999 V2000
    8.3398   -1.0853    1.5126 C   0  0  0  0  0  0  0  0  0  0  0  0
    7.0114   -1.0156    0.8178 C   0  0  0  0  0  0  0  0  0  0  0  0
    5.9591   -0.2777    1.3745 C   0  0  0  0  0  0  0  0  0  0  0  0
    4.7292   -0.1868    0.7161 C   0  0  0  0  0  0  0  0  0  0  0  0
    4.5474   -0.8212   -0.5187 C   0  0  0  0  0  0  0  0  0  0  0  0
    3.2565   -0.7536   -1.2573 C   0  0  0  0  0  0  0  0  0  0  0  0
    2.9290   -1.6581   -2.0166 O   0  0  0  0  0  0  0  0  0  0  0  0
    2.4961    0.3848   -1.0584 N   0  0  0  0  0  0  0  0  0  0  0  0
    1.2687    0.6130   -1.8181 C   0  0  0  0  0  0  0  0  0  0  0  0
    0.7758    2.0561   -1.6539 C   0  0  0  0  0  0  0  0  0  0  0  0
   -0.1553    2.2086   -0.4565 C   0  0  0  0  0  0  0  0  0  0  0  0
   -1.3025    1.2903   -0.4813 N   0  0  0  0  0  0  0  0  0  0  0  0
   -2.3254    1.5586    0.4323 C   0  0  0  0  0  0  0  0  0  0  0  0
   -2.1875    2.5409    1.1753 O   0  0  0  0  0  0  0  0  0  0  0  0
   -3.5972    0.6531    0.5783 C   0  0  0  0  0  0  0  0  0  0  0  0
   -4.4984    1.2693    1.5917 N   0  0  0  0  0  0  0  0  0  0  0  0
   -4.2180    1.6307    2.8823 C   0  0  0  0  0  0  0  0  0  0  0  0
   -5.3328    1.9710    3.4852 N   0  0  0  0  0  0  0  0  0  0  0  0
   -6.3247    1.8108    2.5545 N   0  0  0  0  0  0  0  0  0  0  0  0
   -5.8328    1.3679    1.4070 N   0  0  0  0  0  0  0  0  0  0  0  0
   -3.1926   -0.7342    1.1456 C   0  0  0  0  0  0  0  0  0  0  0  0
   -4.3535   -1.7317    1.2238 C   0  0  0  0  0  0  0  0  0  0  0  0
   -5.3458   -1.6374    0.0663 C   0  0  0  0  0  0  0  0  0  0  0  0
   -4.7851   -0.8986   -1.1384 C   0  0  0  0  0  0  0  0  0  0  0  0
   -4.3227    0.5242   -0.8003 C   0  0  0  0  0  0  0  0  0  0  0  0
   -1.2072    0.1972   -1.4541 C   0  0  0  0  0  0  0  0  0  0  0  0
    0.1866   -0.4146   -1.4402 C   0  0  0  0  0  0  0  0  0  0  0  0
    5.5954   -1.5617   -1.0763 C   0  0  0  0  0  0  0  0  0  0  0  0
    6.8235   -1.6492   -0.4165 C   0  0  0  0  0  0  0  0  0  0  0  0
    8.9632   -0.2373    1.2129 H   0  0  0  0  0  0  0  0  0  0  0  0
    8.2120   -1.0657    2.6001 H   0  0  0  0  0  0  0  0  0  0  0  0
    8.8636   -2.0145    1.2643 H   0  0  0  0  0  0  0  0  0  0  0  0
    6.0891    0.2222    2.3326 H   0  0  0  0  0  0  0  0  0  0  0  0
    3.9202    0.3588    1.1930 H   0  0  0  0  0  0  0  0  0  0  0  0
    2.9542    1.1805   -0.6334 H   0  0  0  0  0  0  0  0  0  0  0  0
    1.5351    0.4712   -2.8739 H   0  0  0  0  0  0  0  0  0  0  0  0
    1.6157    2.7556   -1.5690 H   0  0  0  0  0  0  0  0  0  0  0  0
    0.2250    2.3441   -2.5592 H   0  0  0  0  0  0  0  0  0  0  0  0
   -0.5231    3.2407   -0.4172 H   0  0  0  0  0  0  0  0  0  0  0  0
    0.3923    2.0194    0.4752 H   0  0  0  0  0  0  0  0  0  0  0  0
   -3.2288    1.6251    3.3152 H   0  0  0  0  0  0  0  0  0  0  0  0
   -2.4003   -1.1952    0.5518 H   0  0  0  0  0  0  0  0  0  0  0  0
   -2.7454   -0.6337    2.1438 H   0  0  0  0  0  0  0  0  0  0  0  0
   -3.9361   -2.7455    1.2641 H   0  0  0  0  0  0  0  0  0  0  0  0
   -4.8964   -1.5992    2.1679 H   0  0  0  0  0  0  0  0  0  0  0  0
   -6.2580   -1.1339    0.4069 H   0  0  0  0  0  0  0  0  0  0  0  0
   -5.6568   -2.6465   -0.2289 H   0  0  0  0  0  0  0  0  0  0  0  0
   -5.5429   -0.8522   -1.9293 H   0  0  0  0  0  0  0  0  0  0  0  0
   -3.9500   -1.4746   -1.5528 H   0  0  0  0  0  0  0  0  0  0  0  0
   -3.6971    0.8791   -1.6254 H   0  0  0  0  0  0  0  0  0  0  0  0
   -5.1914    1.1909   -0.8609 H   0  0  0  0  0  0  0  0  0  0  0  0
   -1.4350    0.6142   -2.4425 H   0  0  0  0  0  0  0  0  0  0  0  0
   -1.9409   -0.5786   -1.2686 H   0  0  0  0  0  0  0  0  0  0  0  0
    0.3806   -0.8247   -0.4398 H   0  0  0  0  0  0  0  0  0  0  0  0
    0.2244   -1.2611   -2.1363 H   0  0  0  0  0  0  0  0  0  0  0  0
    5.4595   -2.0692   -2.0294 H   0  0  0  0  0  0  0  0  0  0  0  0
    7.6304   -2.2204   -0.8711 H   0  0  0  0  0  0  0  0  0  0  0  0
  1  2  1  0
  2  3  1  0
  3  4  2  0
  4  5  1  0
  5  6  1  0
  6  7  2  0
  6  8  1  0
  8  9  1  0
  9 10  1  0
 10 11  1  0
 11 12  1  0
 12 13  1  0
 13 14  2  0
 13 15  1  0
 15 16  1  0
 16 17  1  0
 17 18  2  0
 18 19  1  0
 19 20  2  0
 15 21  1  0
 21 22  1  0
 22 23  1  0
 23 24  1  0
 24 25  1  0
 12 26  1  0
 26 27  1  0
  5 28  2  0
 28 29  1  0
 29  2  2  0
 27  9  1  0
 25 15  1  0
 20 16  1  0
  1 30  1  0
  1 31  1  0
  1 32  1  0
  3 33  1  0
  4 34  1  0
  8 35  1  0
  9 36  1  0
 10 37  1  0
 10 38  1  0
 11 39  1  0
 11 40  1  0
 17 41  1  0
 21 42  1  0
 21 43  1  0
 22 44  1  0
 22 45  1  0
 23 46  1  0
 23 47  1  0
 24 48  1  0
 24 49  1  0
 25 50  1  0
 25 51  1  0
 26 52  1  0
 26 53  1  0
 27 54  1  0
 27 55  1  0
 28 56  1  0
 29 57  1  0
M  END
$$$$
OCNT-2315237
     RDKit          3D

 47 51  0  0  0  0  0  0  0  0999 V2000
    0.7743   -1.0387    1.8585 O   0  0  0  0  0  0  0  0  0  0  0  0
    1.4991   -0.6048    0.9693 C   0  0  0  0  0  0  0  0  0  0  0  0
    1.2686    0.5070    0.1892 N   0  0  0  0  0  0  0  0  0  0  0  0
    0.2541    1.3979    0.4263 C   0  0  0  0  0  0  0  0  0  0  0  0
    0.4246    2.6903    0.2513 N   0  0  0  0  0  0  0  0  0  0  0  0
   -0.7038    3.2838    0.7530 C   0  0  0  0  0  0  0  0  0  0  0  0
   -1.0071    4.6459    0.8968 C   0  0  0  0  0  0  0  0  0  0  0  0
   -2.2361    5.0071    1.4608 C   0  0  0  0  0  0  0  0  0  0  0  0
   -3.1476    4.0319    1.8689 C   0  0  0  0  0  0  0  0  0  0  0  0
   -2.8673    2.6687    1.7218 C   0  0  0  0  0  0  0  0  0  0  0  0
   -1.6308    2.3288    1.1565 C   0  0  0  0  0  0  0  0  0  0  0  0
   -1.0415    1.1259    0.8134 N   0  0  0  0  0  0  0  0  0  0  0  0
   -1.7652   -0.1291    0.6889 C   0  0  0  0  0  0  0  0  0  0  0  0
   -2.8227   -0.0881   -0.4158 C   0  0  0  0  0  0  0  0  0  0  0  0
   -3.5452   -1.4052   -0.5070 C   0  0  0  0  0  0  0  0  0  0  0  0
   -4.7902   -1.5772    0.0938 C   0  0  0  0  0  0  0  0  0  0  0  0
   -5.4149   -2.8174   -0.0021 C   0  0  0  0  0  0  0  0  0  0  0  0
   -4.7835   -3.8473   -0.6888 C   0  0  0  0  0  0  0  0  0  0  0  0
   -3.5440   -3.5942   -1.2494 C   0  0  0  0  0  0  0  0  0  0  0  0
   -2.9129   -2.4019   -1.1712 N   0  0  0  0  0  0  0  0  0  0  0  0
    2.7907   -1.2271    0.6511 C   0  0  0  0  0  0  0  0  0  0  0  0
    3.2675   -2.3785    1.2491 C   0  0  0  0  0  0  0  0  0  0  0  0
    4.8049   -2.7812    0.6134 S   0  0  0  0  0  0  0  0  0  0  0  0
    4.7417   -1.4007   -0.4052 C   0  0  0  0  0  0  0  0  0  0  0  0
    5.8865   -0.9991   -1.4117 C   0  0  0  0  0  0  0  0  0  0  0  0
    7.0551   -1.7084   -1.5842 C   0  0  0  0  0  0  0  0  0  0  0  0
    8.0776   -0.9893   -2.7568 S   0  0  0  0  0  0  0  0  0  0  0  0
    6.9599    0.2753   -3.0367 C   0  0  0  0  0  0  0  0  0  0  0  0
    5.8324    0.1506   -2.2553 C   0  0  0  0  0  0  0  0  0  0  0  0
    3.6516   -0.6686   -0.2986 N   0  0  0  0  0  0  0  0  0  0  0  0
    2.0914    0.8970   -0.2599 H   0  0  0  0  0  0  0  0  0  0  0  0
   -0.2913    5.3975    0.5828 H   0  0  0  0  0  0  0  0  0  0  0  0
   -2.4786    6.0595    1.5847 H   0  0  0  0  0  0  0  0  0  0  0  0
   -4.0952    4.3376    2.3080 H   0  0  0  0  0  0  0  0  0  0  0  0
   -3.5806    1.9161    2.0396 H   0  0  0  0  0  0  0  0  0  0  0  0
   -1.0618   -0.9293    0.4534 H   0  0  0  0  0  0  0  0  0  0  0  0
   -2.2056   -0.3470    1.6688 H   0  0  0  0  0  0  0  0  0  0  0  0
   -3.5470    0.7180   -0.2554 H   0  0  0  0  0  0  0  0  0  0  0  0
   -2.3470    0.1234   -1.3821 H   0  0  0  0  0  0  0  0  0  0  0  0
   -5.2737   -0.7639    0.6248 H   0  0  0  0  0  0  0  0  0  0  0  0
   -6.3874   -2.9778    0.4547 H   0  0  0  0  0  0  0  0  0  0  0  0
   -5.2441   -4.8241   -0.7817 H   0  0  0  0  0  0  0  0  0  0  0  0
   -3.0073   -4.3665   -1.7930 H   0  0  0  0  0  0  0  0  0  0  0  0
    2.7888   -2.9819    2.0083 H   0  0  0  0  0  0  0  0  0  0  0  0
    7.3756   -2.6137   -1.0878 H   0  0  0  0  0  0  0  0  0  0  0  0
    7.1822    1.0479   -3.7599 H   0  0  0  0  0  0  0  0  0  0  0  0
    5.0059    0.8509   -2.2846 H   0  0  0  0  0  0  0  0  0  0  0  0
  1  2  2  0
  2  3  1  0
  3  4  1  0
  4  5  2  0
  5  6  1  0
  6  7  2  0
  7  8  1  0
  8  9  2  0
  9 10  1  0
 10 11  2  0
 11 12  1  0
 12 13  1  0
 13 14  1  0
 14 15  1  0
 15 16  2  0
 16 17  1  0
 17 18  2  0
 18 19  1  0
 19 20  2  0
  2 21  1  0
 21 22  2  0
 22 23  1  0
 23 24  1  0
 24 25  1  0
 25 26  2  0
 26 27  1  0
 27 28  1  0
 28 29  2  0
 24 30  2  0
 12  4  1  0
 20 15  1  0
 30 21  1  0
 11  6  1  0
 29 25  1  0
  3 31  1  0
  7 32  1  0
  8 33  1  0
  9 34  1  0
 10 35  1  0
 13 36  1  0
 13 37  1  0
 14 38  1  0
 14 39  1  0
 16 40  1  0
 17 41  1  0
 18 42  1  0
 19 43  1  0
 22 44  1  0
 26 45  1  0
 28 46  1  0
 29 47  1  0
M  END
$$$$
OCNT-2315241
     RDKit          3D

 33 35  0  0  0  0  0  0  0  0999 V2000
    6.7468    2.0404   -1.5220 N   0  0  0  0  0  0  0  0  0  0  0  0
    6.0099    1.3094   -1.0021 C   0  0  0  0  0  0  0  0  0  0  0  0
    5.0845    0.4211   -0.3699 C   0  0  0  0  0  0  0  0  0  0  0  0
    3.7036    0.6381   -0.4852 C   0  0  0  0  0  0  0  0  0  0  0  0
    2.7974   -0.2299    0.1324 C   0  0  0  0  0  0  0  0  0  0  0  0
    1.3978   -0.0878    0.0688 N   0  0  0  0  0  0  0  0  0  0  0  0
    0.6680    0.8856   -0.5813 C   0  0  0  0  0  0  0  0  0  0  0  0
    1.1381    1.8155   -1.2310 O   0  0  0  0  0  0  0  0  0  0  0  0
   -0.8151    0.7371   -0.4438 C   0  0  0  0  0  0  0  0  0  0  0  0
   -1.6124    1.6444   -1.0337 C   0  0  0  0  0  0  0  0  0  0  0  0
   -2.9827    1.6432   -0.9905 N   0  0  0  0  0  0  0  0  0  0  0  0
   -3.6811    0.6158   -0.3473 C   0  0  0  0  0  0  0  0  0  0  0  0
   -5.0775    0.5989   -0.3179 C   0  0  0  0  0  0  0  0  0  0  0  0
   -5.7562   -0.4210    0.3558 C   0  0  0  0  0  0  0  0  0  0  0  0
   -5.0456   -1.4266    1.0126 C   0  0  0  0  0  0  0  0  0  0  0  0
   -3.6514   -1.4157    1.0016 C   0  0  0  0  0  0  0  0  0  0  0  0
   -2.9745   -0.3945    0.3263 C   0  0  0  0  0  0  0  0  0  0  0  0
   -1.4881   -0.3632    0.3064 C   0  0  0  0  0  0  0  0  0  0  0  0
   -0.8333   -1.2263    0.8890 O   0  0  0  0  0  0  0  0  0  0  0  0
    3.2892   -1.3184    0.8674 C   0  0  0  0  0  0  0  0  0  0  0  0
    4.6634   -1.5366    0.9838 C   0  0  0  0  0  0  0  0  0  0  0  0
    5.5513   -0.6652    0.3642 C   0  0  0  0  0  0  0  0  0  0  0  0
    6.8669   -0.8917    0.4876 F   0  0  0  0  0  0  0  0  0  0  0  0
    3.3624    1.4926   -1.0632 H   0  0  0  0  0  0  0  0  0  0  0  0
    0.8525   -0.7950    0.5675 H   0  0  0  0  0  0  0  0  0  0  0  0
   -1.2035    2.4752   -1.6059 H   0  0  0  0  0  0  0  0  0  0  0  0
   -3.4900    2.3097   -1.5624 H   0  0  0  0  0  0  0  0  0  0  0  0
   -5.6500    1.3770   -0.8159 H   0  0  0  0  0  0  0  0  0  0  0  0
   -6.8440   -0.4289    0.3711 H   0  0  0  0  0  0  0  0  0  0  0  0
   -5.5789   -2.2168    1.5362 H   0  0  0  0  0  0  0  0  0  0  0  0
   -3.0988   -2.1972    1.5178 H   0  0  0  0  0  0  0  0  0  0  0  0
    2.6068   -2.0098    1.3585 H   0  0  0  0  0  0  0  0  0  0  0  0
    5.0446   -2.3793    1.5528 H   0  0  0  0  0  0  0  0  0  0  0  0
  1  2  3  0
  2  3  1  0
  3  4  1  0
  4  5  2  0
  5  6  1  0
  6  7  1  0
  7  8  2  0
  7  9  1  0
  9 10  2  0
 10 11  1  0
 11 12  1  0
 12 13  2  0
 13 14  1  0
 14 15  2  0
 15 16  1  0
 16 17  2  0
 17 18  1  0
 18 19  2  0
  5 20  1  0
 20 21  2  0
 21 22  1  0
 22 23  1  0
 22  3  2  0
 18  9  1  0
 17 12  1  0
  4 24  1  0
  6 25  1  0
 10 26  1  0
 11 27  1  0
 13 28  1  0
 14 29  1  0
 15 30  1  0
 16 31  1  0
 20 32  1  0
 21 33  1  0
M  END
$$$$
OCNT-2315245
     RDKit          3D

 40 43  0  0  0  0  0  0  0  0999 V2000
   -5.3703   -1.9991   -2.4278 O   0  0  0  0  0  0  0  0  0  0  0  0
   -4.6323   -1.3672   -1.6810 C   0  0  0  0  0  0  0  0  0  0  0  0
   -3.5500   -0.6585   -2.1465 N   0  0  0  0  0  0  0  0  0  0  0  0
   -2.6937    0.0858   -1.3919 N   0  0  0  0  0  0  0  0  0  0  0  0
   -2.9016    0.1350   -0.1047 C   0  0  0  0  0  0  0  0  0  0  0  0
   -1.9137    0.9866    0.6884 C   0  0  0  0  0  0  0  0  0  0  0  0
   -2.2934    1.7516    1.5588 O   0  0  0  0  0  0  0  0  0  0  0  0
   -0.6088    0.8140    0.2862 N   0  0  0  0  0  0  0  0  0  0  0  0
    0.4183    1.7100    0.7514 C   0  0  0  0  0  0  0  0  0  0  0  0
    1.7780    1.2180    0.3612 C   0  0  0  0  0  0  0  0  0  0  0  0
    2.3677    1.5745   -0.8531 C   0  0  0  0  0  0  0  0  0  0  0  0
    3.6270    1.0762   -1.1909 C   0  0  0  0  0  0  0  0  0  0  0  0
    4.2669    0.2197   -0.2994 C   0  0  0  0  0  0  0  0  0  0  0  0
    5.5509   -0.3100   -0.6030 N   0  0  0  0  0  0  0  0  0  0  0  0
    6.3355   -0.1037   -1.7171 C   0  0  0  0  0  0  0  0  0  0  0  0
    7.4768   -0.8449   -1.5144 C   0  0  0  0  0  0  0  0  0  0  0  0
    7.4266   -1.5009   -0.3174 N   0  0  0  0  0  0  0  0  0  0  0  0
    6.2675   -1.1642    0.2062 C   0  0  0  0  0  0  0  0  0  0  0  0
    3.7070   -0.1487    0.8820 N   0  0  0  0  0  0  0  0  0  0  0  0
    2.4862    0.3504    1.1815 C   0  0  0  0  0  0  0  0  0  0  0  0
   -3.9909   -0.5897    0.5785 C   0  0  0  0  0  0  0  0  0  0  0  0
   -4.1811   -0.5788    1.9651 C   0  0  0  0  0  0  0  0  0  0  0  0
   -5.2372   -1.2996    2.5315 C   0  0  0  0  0  0  0  0  0  0  0  0
   -6.1014   -2.0357    1.7218 C   0  0  0  0  0  0  0  0  0  0  0  0
   -5.9105   -2.0565    0.3412 C   0  0  0  0  0  0  0  0  0  0  0  0
   -4.8528   -1.3345   -0.2250 C   0  0  0  0  0  0  0  0  0  0  0  0
   -3.3907   -0.6672   -3.1499 H   0  0  0  0  0  0  0  0  0  0  0  0
   -0.4912    0.3539   -0.6123 H   0  0  0  0  0  0  0  0  0  0  0  0
    0.2278    2.7007    0.3216 H   0  0  0  0  0  0  0  0  0  0  0  0
    0.3393    1.8191    1.8398 H   0  0  0  0  0  0  0  0  0  0  0  0
    1.8535    2.2418   -1.5418 H   0  0  0  0  0  0  0  0  0  0  0  0
    4.0662    1.3710   -2.1366 H   0  0  0  0  0  0  0  0  0  0  0  0
    6.0439    0.5275   -2.5417 H   0  0  0  0  0  0  0  0  0  0  0  0
    8.3326   -0.9389   -2.1710 H   0  0  0  0  0  0  0  0  0  0  0  0
    5.8879   -1.5016    1.1623 H   0  0  0  0  0  0  0  0  0  0  0  0
    2.0804    0.0164    2.1338 H   0  0  0  0  0  0  0  0  0  0  0  0
   -3.5297   -0.0170    2.6296 H   0  0  0  0  0  0  0  0  0  0  0  0
   -5.3864   -1.2842    3.6095 H   0  0  0  0  0  0  0  0  0  0  0  0
   -6.9223   -2.5945    2.1660 H   0  0  0  0  0  0  0  0  0  0  0  0
   -6.5818   -2.6351   -0.2906 H   0  0  0  0  0  0  0  0  0  0  0  0
  1  2  2  0
  2  3  1  0
  3  4  1  0
  4  5  2  0
  5  6  1  0
  6  7  2  0
  6  8  1  0
  8  9  1  0
  9 10  1  0
 10 11  2  0
 11 12  1  0
 12 13  2  0
 13 14  1  0
 14 15  1  0
 15 16  2  0
 16 17  1  0
 17 18  2  0
 13 19  1  0
 19 20  2  0
  5 21  1  0
 21 22  2  0
 22 23  1  0
 23 24  2  0
 24 25  1  0
 25 26  2  0
 26  2  1  0
 20 10  1  0
 26 21  1  0
 18 14  1  0
  3 27  1  0
  8 28  1  0
  9 29  1  0
  9 30  1  0
 11 31  1  0
 12 32  1  0
 15 33  1  0
 16 34  1  0
 18 35  1  0
 20 36  1  0
 22 37  1  0
 23 38  1  0
 24 39  1  0
 25 40  1  0
M  END
$$$$
OCNT-2315252
     RDKit          3D

 51 53  0  0  0  0  0  0  0  0999 V2000
    7.7709    2.9722    1.0493 C   0  0  0  0  0  0  0  0  0  0  0  0
    7.3169    1.6249    1.0408 O   0  0  0  0  0  0  0  0  0  0  0  0
    5.9742    1.4253    0.8665 C   0  0  0  0  0  0  0  0  0  0  0  0
    5.0027    2.4212    0.7843 C   0  0  0  0  0  0  0  0  0  0  0  0
    3.6610    2.0714    0.6089 C   0  0  0  0  0  0  0  0  0  0  0  0
    3.2835    0.7288    0.5110 C   0  0  0  0  0  0  0  0  0  0  0  0
    4.2479   -0.2744    0.5846 C   0  0  0  0  0  0  0  0  0  0  0  0
    4.0221   -1.6230    0.5071 O   0  0  0  0  0  0  0  0  0  0  0  0
    2.7239   -2.0642    0.1042 C   0  0  0  0  0  0  0  0  0  0  0  0
    1.8334   -2.3035    1.3271 C   0  0  0  0  0  0  0  0  0  0  0  0
    0.4995   -2.7696    0.9827 N   0  0  0  0  0  0  0  0  0  0  0  0
   -0.4142   -1.8759    0.4531 C   0  0  0  0  0  0  0  0  0  0  0  0
   -0.1263   -0.7133    0.2037 O   0  0  0  0  0  0  0  0  0  0  0  0
   -1.6247   -2.4977    0.2375 N   0  0  0  0  0  0  0  0  0  0  0  0
   -2.8306   -1.8948   -0.1892 C   0  0  0  0  0  0  0  0  0  0  0  0
   -3.0281   -0.5067   -0.1131 C   0  0  0  0  0  0  0  0  0  0  0  0
   -4.2272    0.1035   -0.5275 C   0  0  0  0  0  0  0  0  0  0  0  0
   -4.4093    1.5628   -0.4329 C   0  0  0  0  0  0  0  0  0  0  0  0
   -3.4114    2.4659   -0.8266 C   0  0  0  0  0  0  0  0  0  0  0  0
   -3.6167    3.8407   -0.7168 C   0  0  0  0  0  0  0  0  0  0  0  0
   -4.8262    4.2864   -0.2146 C   0  0  0  0  0  0  0  0  0  0  0  0
   -5.8204    3.4634    0.1762 N   0  0  0  0  0  0  0  0  0  0  0  0
   -5.5850    2.1325    0.0619 C   0  0  0  0  0  0  0  0  0  0  0  0
   -5.2407   -0.7258   -1.0252 C   0  0  0  0  0  0  0  0  0  0  0  0
   -5.0712   -2.1105   -1.0896 C   0  0  0  0  0  0  0  0  0  0  0  0
   -3.8732   -2.7105   -0.6710 C   0  0  0  0  0  0  0  0  0  0  0  0
   -3.7535   -4.2071   -0.7604 C   0  0  0  0  0  0  0  0  0  0  0  0
    5.5868    0.0833    0.7714 C   0  0  0  0  0  0  0  0  0  0  0  0
    8.8617    2.9561    1.1436 H   0  0  0  0  0  0  0  0  0  0  0  0
    7.3691    3.5179    1.9102 H   0  0  0  0  0  0  0  0  0  0  0  0
    7.5267    3.4794    0.1100 H   0  0  0  0  0  0  0  0  0  0  0  0
    5.2526    3.4750    0.8565 H   0  0  0  0  0  0  0  0  0  0  0  0
    2.9008    2.8464    0.5518 H   0  0  0  0  0  0  0  0  0  0  0  0
    2.2272    0.5085    0.3857 H   0  0  0  0  0  0  0  0  0  0  0  0
    2.8696   -3.0226   -0.4095 H   0  0  0  0  0  0  0  0  0  0  0  0
    2.2740   -1.4069   -0.6482 H   0  0  0  0  0  0  0  0  0  0  0  0
    1.7453   -1.3966    1.9365 H   0  0  0  0  0  0  0  0  0  0  0  0
    2.2911   -3.0668    1.9672 H   0  0  0  0  0  0  0  0  0  0  0  0
    0.0912   -3.4339    1.6255 H   0  0  0  0  0  0  0  0  0  0  0  0
   -1.5657   -3.5019    0.1755 H   0  0  0  0  0  0  0  0  0  0  0  0
   -2.2505    0.1288    0.3046 H   0  0  0  0  0  0  0  0  0  0  0  0
   -2.4675    2.1041   -1.2287 H   0  0  0  0  0  0  0  0  0  0  0  0
   -2.8490    4.5451   -1.0179 H   0  0  0  0  0  0  0  0  0  0  0  0
   -5.0340    5.3474   -0.1111 H   0  0  0  0  0  0  0  0  0  0  0  0
   -6.4055    1.5103    0.4103 H   0  0  0  0  0  0  0  0  0  0  0  0
   -6.1792   -0.3015   -1.3792 H   0  0  0  0  0  0  0  0  0  0  0  0
   -5.8865   -2.7176   -1.4789 H   0  0  0  0  0  0  0  0  0  0  0  0
   -4.6449   -4.6581   -1.2111 H   0  0  0  0  0  0  0  0  0  0  0  0
   -2.8999   -4.4852   -1.3867 H   0  0  0  0  0  0  0  0  0  0  0  0
   -3.6334   -4.6377    0.2389 H   0  0  0  0  0  0  0  0  0  0  0  0
    6.3428   -0.6956    0.8367 H   0  0  0  0  0  0  0  0  0  0  0  0
  1  2  1  0
  2  3  1  0
  3  4  1  0
  4  5  2  0
  5  6  1  0
  6  7  2  0
  7  8  1  0
  8  9  1  0
  9 10  1  0
 10 11  1  0
 11 12  1  0
 12 13  2  0
 12 14  1  0
 14 15  1  0
 15 16  1  0
 16 17  2  0
 17 18  1  0
 18 19  1  0
 19 20  2  0
 20 21  1  0
 21 22  2  0
 22 23  1  0
 17 24  1  0
 24 25  2  0
 25 26  1  0
 26 27  1  0
  7 28  1  0
 28  3  2  0
 26 15  2  0
 23 18  2  0
  1 29  1  0
  1 30  1  0
  1 31  1  0
  4 32  1  0
  5 33  1  0
  6 34  1  0
  9 35  1  0
  9 36  1  0
 10 37  1  0
 10 38  1  0
 11 39  1  0
 14 40  1  0
 16 41  1  0
 19 42  1  0
 20 43  1  0
 21 44  1  0
 23 45  1  0
 24 46  1  0
 25 47  1  0
 27 48  1  0
 27 49  1  0
 27 50  1  0
 28 51  1  0
M  END
$$$$
OCNT-2315257
     RDKit          3D

 50 53  0  0  0  0  0  0  0  0999 V2000
    3.0128   -3.1501    2.2141 C   0  0  0  0  0  0  0  0  0  0  0  0
    1.9768   -2.0349    2.0658 C   0  0  0  0  0  0  0  0  0  0  0  0
    0.9681   -2.3818    0.9628 C   0  0  0  0  0  0  0  0  0  0  0  0
   -0.1793   -1.4868    0.9452 N   0  0  0  0  0  0  0  0  0  0  0  0
   -1.3635   -1.8887    0.3812 C   0  0  0  0  0  0  0  0  0  0  0  0
   -1.5914   -3.0295    0.0007 O   0  0  0  0  0  0  0  0  0  0  0  0
   -2.2806   -0.8720    0.3491 N   0  0  0  0  0  0  0  0  0  0  0  0
   -3.5256   -1.0886   -0.3546 C   0  0  1  0  0  0  0  0  0  0  0  0
   -4.5517   -0.0230   -0.0790 C   0  0  0  0  0  0  0  0  0  0  0  0
   -4.8936    0.5499    1.1368 C   0  0  0  0  0  0  0  0  0  0  0  0
   -5.9220    1.4941    1.1614 C   0  0  0  0  0  0  0  0  0  0  0  0
   -6.6014    1.8417   -0.0165 C   0  0  0  0  0  0  0  0  0  0  0  0
   -6.2629    1.2503   -1.2356 C   0  0  0  0  0  0  0  0  0  0  0  0
   -5.2331    0.3240   -1.2530 C   0  0  0  0  0  0  0  0  0  0  0  0
   -4.7230   -0.4608   -2.4264 C   0  0  0  0  0  0  0  0  0  0  0  0
   -3.3649   -0.9635   -1.8994 C   0  0  1  0  0  0  0  0  0  0  0  0
   -2.3360   -0.0016   -2.2238 O   0  0  0  0  0  0  0  0  0  0  0  0
    2.6486   -0.7402    1.7694 C   0  0  0  0  0  0  0  0  0  0  0  0
    3.5981   -0.4597    0.9076 N   0  0  0  0  0  0  0  0  0  0  0  0
    3.7674    0.9000    1.0762 C   0  0  0  0  0  0  0  0  0  0  0  0
    4.7473    1.6643    0.3110 C   0  0  0  0  0  0  0  0  0  0  0  0
    5.5632    1.0221   -0.6326 C   0  0  0  0  0  0  0  0  0  0  0  0
    6.5045    1.7447   -1.3707 C   0  0  0  0  0  0  0  0  0  0  0  0
    6.6407    3.1172   -1.1736 C   0  0  0  0  0  0  0  0  0  0  0  0
    5.8376    3.7688   -0.2399 C   0  0  0  0  0  0  0  0  0  0  0  0
    4.8959    3.0470    0.4988 C   0  0  0  0  0  0  0  0  0  0  0  0
    2.9442    1.4354    1.9942 N   0  0  0  0  0  0  0  0  0  0  0  0
    2.2066    0.3501    2.4567 O   0  0  0  0  0  0  0  0  0  0  0  0
    3.7399   -2.9082    2.9975 H   0  0  0  0  0  0  0  0  0  0  0  0
    2.5301   -4.0949    2.4855 H   0  0  0  0  0  0  0  0  0  0  0  0
    3.5685   -3.3107    1.2831 H   0  0  0  0  0  0  0  0  0  0  0  0
    1.4417   -1.9458    3.0204 H   0  0  0  0  0  0  0  0  0  0  0  0
    1.4271   -2.3379   -0.0327 H   0  0  0  0  0  0  0  0  0  0  0  0
    0.6016   -3.4052    1.1070 H   0  0  0  0  0  0  0  0  0  0  0  0
    0.0009   -0.4940    0.8932 H   0  0  0  0  0  0  0  0  0  0  0  0
   -1.8959    0.0460    0.1826 H   0  0  0  0  0  0  0  0  0  0  0  0
   -3.9529   -2.0648   -0.0935 H   0  0  0  0  0  0  0  0  0  0  0  0
   -4.3775    0.2692    2.0500 H   0  0  0  0  0  0  0  0  0  0  0  0
   -6.2042    1.9596    2.1026 H   0  0  0  0  0  0  0  0  0  0  0  0
   -7.4033    2.5751    0.0233 H   0  0  0  0  0  0  0  0  0  0  0  0
   -6.7974    1.5141   -2.1426 H   0  0  0  0  0  0  0  0  0  0  0  0
   -5.4022   -1.2964   -2.6239 H   0  0  0  0  0  0  0  0  0  0  0  0
   -4.6180    0.1696   -3.3141 H   0  0  0  0  0  0  0  0  0  0  0  0
   -3.0653   -1.9128   -2.3553 H   0  0  0  0  0  0  0  0  0  0  0  0
   -2.2729    0.0289   -3.1939 H   0  0  0  0  0  0  0  0  0  0  0  0
    5.4711   -0.0495   -0.7996 H   0  0  0  0  0  0  0  0  0  0  0  0
    7.1304    1.2344   -2.0983 H   0  0  0  0  0  0  0  0  0  0  0  0
    7.3731    3.6793   -1.7475 H   0  0  0  0  0  0  0  0  0  0  0  0
    5.9428    4.8396   -0.0846 H   0  0  0  0  0  0  0  0  0  0  0  0
    4.2795    3.5760    1.2231 H   0  0  0  0  0  0  0  0  0  0  0  0
  1  2  1  0
  2  3  1  0
  3  4  1  0
  4  5  1  0
  5  6  2  0
  5  7  1  0
  7  8  1  0
  8  9  1  0
  9 10  2  0
 10 11  1  0
 11 12  2  0
 12 13  1  0
 13 14  2  0
 14 15  1  0
 15 16  1  0
 16 17  1  0
  2 18  1  0
 18 19  2  0
 19 20  1  0
 20 21  1  0
 21 22  2  0
 22 23  1  0
 23 24  2  0
 24 25  1  0
 25 26  2  0
 20 27  2  0
 27 28  1  0
 16  8  1  0
 28 18  1  0
 14  9  1  0
 26 21  1  0
  1 29  1  0
  1 30  1  0
  1 31  1  0
  2 32  1  0
  3 33  1  0
  3 34  1  0
  4 35  1  0
  7 36  1  0
  8 37  1  6
 10 38  1  0
 11 39  1  0
 12 40  1  0
 13 41  1  0
 15 42  1  0
 15 43  1  0
 16 44  1  6
 17 45  1  0
 22 46  1  0
 23 47  1  0
 24 48  1  0
 25 49  1  0
 26 50  1  0
M  END
$$$$
OCNT-2315259
     RDKit          3D

 37 39  0  0  0  0  0  0  0  0999 V2000
   -3.1781    1.7145   -0.8101 C   0  0  0  0  0  0  0  0  0  0  0  0
   -3.7169    0.3707   -0.3986 C   0  0  0  0  0  0  0  0  0  0  0  0
   -4.9065    0.3217    0.3500 C   0  0  0  0  0  0  0  0  0  0  0  0
   -5.4465   -0.8994    0.7499 C   0  0  0  0  0  0  0  0  0  0  0  0
   -6.9022   -0.9316    1.6673 Cl  0  0  0  0  0  0  0  0  0  0  0  0
   -4.8167   -2.0906    0.4123 C   0  0  0  0  0  0  0  0  0  0  0  0
   -3.6376   -2.0592   -0.3325 C   0  0  0  0  0  0  0  0  0  0  0  0
   -3.0707   -0.8368   -0.7490 C   0  0  0  0  0  0  0  0  0  0  0  0
   -1.7861   -0.8734   -1.5541 C   0  0  0  0  0  0  0  0  0  0  0  0
   -0.6747   -0.9735   -0.5739 C   0  0  0  0  0  0  0  0  0  0  0  0
   -0.1463   -2.1491   -0.2004 N   0  0  0  0  0  0  0  0  0  0  0  0
    0.8644   -1.7791    0.6875 O   0  0  0  0  0  0  0  0  0  0  0  0
    0.8529   -0.4152    0.7419 C   0  0  0  0  0  0  0  0  0  0  0  0
    1.8417    0.2260    1.6420 C   0  0  0  0  0  0  0  0  0  0  0  0
    3.1757    0.4665    0.9736 C   0  0  0  0  0  0  0  0  0  0  0  0
    4.2364   -0.4340    1.1524 C   0  0  0  0  0  0  0  0  0  0  0  0
    5.4620   -0.2143    0.5219 C   0  0  0  0  0  0  0  0  0  0  0  0
    5.6294    0.8991   -0.2923 C   0  0  0  0  0  0  0  0  0  0  0  0
    6.8431    1.0729   -0.8885 O   0  0  0  0  0  0  0  0  0  0  0  0
    4.5887    1.7999   -0.4906 C   0  0  0  0  0  0  0  0  0  0  0  0
    3.3620    1.5816    0.1406 C   0  0  0  0  0  0  0  0  0  0  0  0
   -0.0677    0.1307   -0.0223 N   0  0  0  0  0  0  0  0  0  0  0  0
   -3.1838    1.8071   -1.9006 H   0  0  0  0  0  0  0  0  0  0  0  0
   -3.7868    2.5317   -0.4084 H   0  0  0  0  0  0  0  0  0  0  0  0
   -2.1611    1.8548   -0.4336 H   0  0  0  0  0  0  0  0  0  0  0  0
   -5.4156    1.2430    0.6251 H   0  0  0  0  0  0  0  0  0  0  0  0
   -5.2325   -3.0443    0.7252 H   0  0  0  0  0  0  0  0  0  0  0  0
   -3.1510   -3.0013   -0.5832 H   0  0  0  0  0  0  0  0  0  0  0  0
   -1.6725    0.0155   -2.1818 H   0  0  0  0  0  0  0  0  0  0  0  0
   -1.7925   -1.7324   -2.2359 H   0  0  0  0  0  0  0  0  0  0  0  0
    1.9808   -0.3885    2.5402 H   0  0  0  0  0  0  0  0  0  0  0  0
    1.4430    1.1837    1.9996 H   0  0  0  0  0  0  0  0  0  0  0  0
    4.1178   -1.3143    1.7806 H   0  0  0  0  0  0  0  0  0  0  0  0
    6.2829   -0.9119    0.6623 H   0  0  0  0  0  0  0  0  0  0  0  0
    6.8084    1.8767   -1.4321 H   0  0  0  0  0  0  0  0  0  0  0  0
    4.7096    2.6688   -1.1296 H   0  0  0  0  0  0  0  0  0  0  0  0
    2.5468    2.2839   -0.0253 H   0  0  0  0  0  0  0  0  0  0  0  0
  1  2  1  0
  2  3  1  0
  3  4  2  0
  4  5  1  0
  4  6  1  0
  6  7  2  0
  7  8  1  0
  8  9  1  0
  9 10  1  0
 10 11  2  0
 11 12  1  0
 12 13  1  0
 13 14  1  0
 14 15  1  0
 15 16  1  0
 16 17  2  0
 17 18  1  0
 18 19  1  0
 18 20  2  0
 20 21  1  0
 13 22  2  0
  8  2  2  0
 22 10  1  0
 21 15  2  0
  1 23  1  0
  1 24  1  0
  1 25  1  0
  3 26  1  0
  6 27  1  0
  7 28  1  0
  9 29  1  0
  9 30  1  0
 14 31  1  0
 14 32  1  0
 16 33  1  0
 17 34  1  0
 19 35  1  0
 20 36  1  0
 21 37  1  0
M  END
$$$$
OCNT-2315261
     RDKit          3D

 45 47  0  0  0  0  0  0  0  0999 V2000
    5.7624   -0.2671   -0.5409 C   0  0  0  0  0  0  0  0  0  0  0  0
    5.2137    1.0923   -0.5071 N   0  0  0  0  0  0  0  0  0  0  0  0
    6.2330    2.0977   -0.1829 C   0  0  0  0  0  0  0  0  0  0  0  0
    4.0659    1.2237    0.2183 C   0  0  0  0  0  0  0  0  0  0  0  0
    3.9307    1.7716    1.4059 N   0  0  0  0  0  0  0  0  0  0  0  0
    2.6062    1.6588    1.7266 C   0  0  0  0  0  0  0  0  0  0  0  0
    1.9000    1.0495    0.7130 C   0  0  0  0  0  0  0  0  0  0  0  0
    0.4567    0.7091    0.6008 C   0  0  0  0  0  0  0  0  0  0  0  0
    0.2498   -0.7309    0.4823 N   0  0  0  0  0  0  0  0  0  0  0  0
   -1.0921   -1.1293    0.3855 C   0  0  0  0  0  0  0  0  0  0  0  0
   -1.3658   -2.4807    0.3520 C   0  0  0  0  0  0  0  0  0  0  0  0
   -2.6887   -2.8620    0.2161 C   0  0  0  0  0  0  0  0  0  0  0  0
   -3.0201   -4.3427    0.1619 C   0  0  0  0  0  0  0  0  0  0  0  0
   -2.5943   -4.9288   -0.9939 F   0  0  0  0  0  0  0  0  0  0  0  0
   -4.3501   -4.6217    0.2563 F   0  0  0  0  0  0  0  0  0  0  0  0
   -2.4225   -5.0457    1.1687 F   0  0  0  0  0  0  0  0  0  0  0  0
   -3.6832   -1.9482    0.1051 N   0  0  0  0  0  0  0  0  0  0  0  0
   -3.3312   -0.6517    0.1285 C   0  0  0  0  0  0  0  0  0  0  0  0
   -4.3953    0.3520    0.0013 C   0  0  0  0  0  0  0  0  0  0  0  0
   -5.7514    0.0076   -0.1196 C   0  0  0  0  0  0  0  0  0  0  0  0
   -6.7315    0.9935   -0.2377 C   0  0  0  0  0  0  0  0  0  0  0  0
   -6.3331    2.3175   -0.2325 C   0  0  0  0  0  0  0  0  0  0  0  0
   -5.0477    2.7068   -0.1198 N   0  0  0  0  0  0  0  0  0  0  0  0
   -4.1197    1.7202   -0.0072 C   0  0  0  0  0  0  0  0  0  0  0  0
   -2.0653   -0.2165    0.2612 N   0  0  0  0  0  0  0  0  0  0  0  0
    2.8423    0.8101   -0.2648 N   0  0  0  0  0  0  0  0  0  0  0  0
    2.5802    0.2711   -1.5784 C   0  0  0  0  0  0  0  0  0  0  0  0
    6.1100   -0.5779    0.4514 H   0  0  0  0  0  0  0  0  0  0  0  0
    6.6109   -0.3141   -1.2325 H   0  0  0  0  0  0  0  0  0  0  0  0
    5.0231   -0.9944   -0.8923 H   0  0  0  0  0  0  0  0  0  0  0  0
    5.8200    3.1108   -0.2546 H   0  0  0  0  0  0  0  0  0  0  0  0
    6.6394    1.9499    0.8247 H   0  0  0  0  0  0  0  0  0  0  0  0
    7.0607    2.0374   -0.8983 H   0  0  0  0  0  0  0  0  0  0  0  0
    2.2289    2.0244    2.6729 H   0  0  0  0  0  0  0  0  0  0  0  0
   -0.0625    1.0872    1.4918 H   0  0  0  0  0  0  0  0  0  0  0  0
    0.0390    1.2338   -0.2681 H   0  0  0  0  0  0  0  0  0  0  0  0
    0.7041   -1.2156    1.2521 H   0  0  0  0  0  0  0  0  0  0  0  0
   -0.5719   -3.2161    0.4183 H   0  0  0  0  0  0  0  0  0  0  0  0
   -6.0542   -1.0381   -0.1223 H   0  0  0  0  0  0  0  0  0  0  0  0
   -7.7792    0.7302   -0.3311 H   0  0  0  0  0  0  0  0  0  0  0  0
   -7.0568    3.1225   -0.3216 H   0  0  0  0  0  0  0  0  0  0  0  0
   -3.0991    2.0874    0.0794 H   0  0  0  0  0  0  0  0  0  0  0  0
    3.3545    0.5958   -2.2775 H   0  0  0  0  0  0  0  0  0  0  0  0
    2.5679   -0.8190   -1.5045 H   0  0  0  0  0  0  0  0  0  0  0  0
    1.6162    0.6396   -1.9368 H   0  0  0  0  0  0  0  0  0  0  0  0
  1  2  1  0
  2  3  1  0
  2  4  1  0
  4  5  2  0
  5  6  1  0
  6  7  2  0
  7  8  1  0
  8  9  1  0
  9 10  1  0
 10 11  2  0
 11 12  1  0
 12 13  1  0
 13 14  1  0
 13 15  1  0
 13 16  1  0
 12 17  2  0
 17 18  1  0
 18 19  1  0
 19 20  1  0
 20 21  2  0
 21 22  1  0
 22 23  2  0
 23 24  1  0
 18 25  2  0
  7 26  1  0
 26 27  1  0
 26  4  1  0
 25 10  1  0
 24 19  2  0
  1 28  1  0
  1 29  1  0
  1 30  1  0
  3 31  1  0
  3 32  1  0
  3 33  1  0
  6 34  1  0
  8 35  1  0
  8 36  1  0
  9 37  1  0
 11 38  1  0
 20 39  1  0
 21 40  1  0
 22 41  1  0
 24 42  1  0
 27 43  1  0
 27 44  1  0
 27 45  1  0
M  END
$$$$
OCNT-2315263
     RDKit          3D

 44 47  0  0  0  0  0  0  0  0999 V2000
   -0.3743    1.7759   -2.8206 O   0  0  0  0  0  0  0  0  0  0  0  0
    0.3807    1.3906   -1.9339 C   0  0  0  0  0  0  0  0  0  0  0  0
   -0.0112    0.4712   -0.9818 N   0  0  0  0  0  0  0  0  0  0  0  0
   -1.3691   -0.0583   -0.9218 C   0  0  0  0  0  0  0  0  0  0  0  0
   -2.3332    0.8017   -0.1175 C   0  0  0  0  0  0  0  0  0  0  0  0
   -1.8996    1.6749    0.8823 C   0  0  0  0  0  0  0  0  0  0  0  0
   -2.8382    2.4289    1.5838 C   0  0  0  0  0  0  0  0  0  0  0  0
   -4.1852    2.2983    1.2767 C   0  0  0  0  0  0  0  0  0  0  0  0
   -4.5401    1.4116    0.2776 C   0  0  0  0  0  0  0  0  0  0  0  0
   -3.6525    0.6634   -0.4132 N   0  0  0  0  0  0  0  0  0  0  0  0
   -1.2156   -1.4839   -0.3608 C   0  0  0  0  0  0  0  0  0  0  0  0
   -2.4721   -2.3632   -0.1144 C   0  0  0  0  0  0  0  0  0  0  0  0
   -2.3103   -2.1129    1.3952 C   0  0  0  0  0  0  0  0  0  0  0  0
   -0.8464   -1.7191    1.1317 C   0  0  0  0  0  0  0  0  0  0  0  0
    1.7509    1.8899   -1.8019 C   0  0  0  0  0  0  0  0  0  0  0  0
    2.8411    1.3624   -1.1164 C   0  0  0  0  0  0  0  0  0  0  0  0
    3.0672    0.1483   -0.3517 C   0  0  0  0  0  0  0  0  0  0  0  0
    2.8829   -1.1060   -0.9463 C   0  0  0  0  0  0  0  0  0  0  0  0
    3.0707   -2.2726   -0.2035 C   0  0  0  0  0  0  0  0  0  0  0  0
    3.4460   -2.1934    1.1362 C   0  0  0  0  0  0  0  0  0  0  0  0
    3.6359   -0.9489    1.7346 C   0  0  0  0  0  0  0  0  0  0  0  0
    3.4486    0.2196    0.9936 C   0  0  0  0  0  0  0  0  0  0  0  0
    3.8363    2.2734   -1.3596 N   0  0  0  0  0  0  0  0  0  0  0  0
    3.4154    3.2910   -2.1160 N   0  0  0  0  0  0  0  0  0  0  0  0
    2.1444    3.0643   -2.4094 N   0  0  0  0  0  0  0  0  0  0  0  0
    0.5957    0.2959   -0.1953 H   0  0  0  0  0  0  0  0  0  0  0  0
   -1.7517   -0.1196   -1.9485 H   0  0  0  0  0  0  0  0  0  0  0  0
   -0.8477    1.7843    1.1199 H   0  0  0  0  0  0  0  0  0  0  0  0
   -2.5175    3.1191    2.3588 H   0  0  0  0  0  0  0  0  0  0  0  0
   -4.9392    2.8761    1.7985 H   0  0  0  0  0  0  0  0  0  0  0  0
   -5.5795    1.2734   -0.0056 H   0  0  0  0  0  0  0  0  0  0  0  0
   -0.5177   -2.0196   -1.0253 H   0  0  0  0  0  0  0  0  0  0  0  0
   -3.4119   -2.0234   -0.5557 H   0  0  0  0  0  0  0  0  0  0  0  0
   -2.3240   -3.4135   -0.3943 H   0  0  0  0  0  0  0  0  0  0  0  0
   -2.9294   -1.2976    1.7830 H   0  0  0  0  0  0  0  0  0  0  0  0
   -2.4523   -2.9892    2.0336 H   0  0  0  0  0  0  0  0  0  0  0  0
   -0.4821   -0.8576    1.6967 H   0  0  0  0  0  0  0  0  0  0  0  0
   -0.1427   -2.5477    1.2759 H   0  0  0  0  0  0  0  0  0  0  0  0
    2.5902   -1.1867   -1.9920 H   0  0  0  0  0  0  0  0  0  0  0  0
    2.9246   -3.2436   -0.6711 H   0  0  0  0  0  0  0  0  0  0  0  0
    3.5921   -3.1032    1.7140 H   0  0  0  0  0  0  0  0  0  0  0  0
    3.9278   -0.8898    2.7806 H   0  0  0  0  0  0  0  0  0  0  0  0
    3.5879    1.1810    1.4838 H   0  0  0  0  0  0  0  0  0  0  0  0
    4.8050    2.2548   -1.0630 H   0  0  0  0  0  0  0  0  0  0  0  0
  1  2  2  0
  2  3  1  0
  3  4  1  0
  4  5  1  0
  5  6  2  0
  6  7  1  0
  7  8  2  0
  8  9  1  0
  9 10  2  0
  4 11  1  0
 11 12  1  0
 12 13  1  0
 13 14  1  0
  2 15  1  0
 15 16  2  0
 16 17  1  0
 17 18  2  0
 18 19  1  0
 19 20  2  0
 20 21  1  0
 21 22  2  0
 16 23  1  0
 23 24  1  0
 24 25  2  0
 10  5  1  0
 14 11  1  0
 25 15  1  0
 22 17  1  0
  3 26  1  0
  4 27  1  0
  6 28  1  0
  7 29  1  0
  8 30  1  0
  9 31  1  0
 11 32  1  0
 12 33  1  0
 12 34  1  0
 13 35  1  0
 13 36  1  0
 14 37  1  0
 14 38  1  0
 18 39  1  0
 19 40  1  0
 20 41  1  0
 21 42  1  0
 22 43  1  0
 23 44  1  0
M  END
$$$$
OCNT-2315277
     RDKit          3D

 52 56  0  0  0  0  0  0  0  0999 V2000
   -0.3088   -0.5907   -5.0333 C   0  0  0  0  0  0  0  0  0  0  0  0
   -0.1557   -0.4375   -3.6276 O   0  0  0  0  0  0  0  0  0  0  0  0
   -1.3063   -0.3473   -2.8775 C   0  0  0  0  0  0  0  0  0  0  0  0
   -2.6022   -0.4000   -3.3934 C   0  0  0  0  0  0  0  0  0  0  0  0
   -3.7036   -0.3007   -2.5366 C   0  0  0  0  0  0  0  0  0  0  0  0
   -3.5267   -0.1506   -1.1545 C   0  0  0  0  0  0  0  0  0  0  0  0
   -4.6678   -0.0555   -0.2401 C   0  0  0  0  0  0  0  0  0  0  0  0
   -4.6873   -0.4334    1.0251 N   0  0  0  0  0  0  0  0  0  0  0  0
   -5.9454   -0.1485    1.4927 C   0  0  0  0  0  0  0  0  0  0  0  0
   -6.4992   -0.3511    2.7647 C   0  0  0  0  0  0  0  0  0  0  0  0
   -7.8261    0.0380    2.9885 C   0  0  0  0  0  0  0  0  0  0  0  0
   -8.5843    0.6170    1.9669 C   0  0  0  0  0  0  0  0  0  0  0  0
   -8.0474    0.8266    0.6908 C   0  0  0  0  0  0  0  0  0  0  0  0
   -6.7235    0.4272    0.4974 C   0  0  0  0  0  0  0  0  0  0  0  0
   -5.8886    0.4801   -0.5879 N   0  0  0  0  0  0  0  0  0  0  0  0
   -2.2212   -0.1068   -0.6402 C   0  0  0  0  0  0  0  0  0  0  0  0
   -1.1127   -0.1920   -1.4881 C   0  0  0  0  0  0  0  0  0  0  0  0
    0.2267   -0.1458   -1.0373 N   0  0  0  0  0  0  0  0  0  0  0  0
    0.6906    0.1167    0.2346 C   0  0  0  0  0  0  0  0  0  0  0  0
    0.0199    0.4349    1.2085 O   0  0  0  0  0  0  0  0  0  0  0  0
    2.1725    0.0402    0.3893 C   0  0  0  0  0  0  0  0  0  0  0  0
    2.9467   -0.8767   -0.3327 C   0  0  0  0  0  0  0  0  0  0  0  0
    4.3344   -0.9164   -0.1518 C   0  0  0  0  0  0  0  0  0  0  0  0
    4.9666   -0.0515    0.7543 C   0  0  0  0  0  0  0  0  0  0  0  0
    6.4143   -0.1062    0.9379 C   0  0  0  0  0  0  0  0  0  0  0  0
    7.0988    0.6891    1.7778 N   0  0  0  0  0  0  0  0  0  0  0  0
    8.3581    0.2589    1.6049 N   0  0  0  0  0  0  0  0  0  0  0  0
    9.4414    0.8600    2.3350 C   0  0  0  0  0  0  0  0  0  0  0  0
    8.4200   -0.7408    0.6923 C   0  0  0  0  0  0  0  0  0  0  0  0
    7.2122   -1.0002    0.2507 N   0  0  0  0  0  0  0  0  0  0  0  0
    4.1804    0.8527    1.4835 C   0  0  0  0  0  0  0  0  0  0  0  0
    2.7932    0.8953    1.3073 C   0  0  0  0  0  0  0  0  0  0  0  0
   -0.8285   -1.5238   -5.2757 H   0  0  0  0  0  0  0  0  0  0  0  0
   -0.8188    0.2734   -5.4717 H   0  0  0  0  0  0  0  0  0  0  0  0
    0.6917   -0.6439   -5.4735 H   0  0  0  0  0  0  0  0  0  0  0  0
   -2.7936   -0.5259   -4.4537 H   0  0  0  0  0  0  0  0  0  0  0  0
   -4.6992   -0.3717   -2.9668 H   0  0  0  0  0  0  0  0  0  0  0  0
   -5.9018   -0.7980    3.5516 H   0  0  0  0  0  0  0  0  0  0  0  0
   -8.2673   -0.1115    3.9712 H   0  0  0  0  0  0  0  0  0  0  0  0
   -9.6120    0.9125    2.1683 H   0  0  0  0  0  0  0  0  0  0  0  0
   -8.6354    1.2783   -0.1002 H   0  0  0  0  0  0  0  0  0  0  0  0
   -6.1185    0.8740   -1.4862 H   0  0  0  0  0  0  0  0  0  0  0  0
   -2.0959   -0.0088    0.4357 H   0  0  0  0  0  0  0  0  0  0  0  0
    0.9031   -0.2366   -1.7878 H   0  0  0  0  0  0  0  0  0  0  0  0
    2.4882   -1.5862   -1.0157 H   0  0  0  0  0  0  0  0  0  0  0  0
    4.9237   -1.6364   -0.7170 H   0  0  0  0  0  0  0  0  0  0  0  0
    9.2196    0.7954    3.4037 H   0  0  0  0  0  0  0  0  0  0  0  0
   10.3692    0.3251    2.1160 H   0  0  0  0  0  0  0  0  0  0  0  0
    9.5296    1.9043    2.0240 H   0  0  0  0  0  0  0  0  0  0  0  0
    9.3349   -1.2318    0.3927 H   0  0  0  0  0  0  0  0  0  0  0  0
    4.6435    1.5285    2.2003 H   0  0  0  0  0  0  0  0  0  0  0  0
    2.1985    1.5978    1.8883 H   0  0  0  0  0  0  0  0  0  0  0  0
  1  2  1  0
  2  3  1  0
  3  4  1  0
  4  5  2  0
  5  6  1  0
  6  7  1  0
  7  8  2  0
  8  9  1  0
  9 10  2  0
 10 11  1  0
 11 12  2  0
 12 13  1  0
 13 14  2  0
 14 15  1  0
  6 16  2  0
 16 17  1  0
 17 18  1  0
 18 19  1  0
 19 20  2  0
 19 21  1  0
 21 22  1  0
 22 23  2  0
 23 24  1  0
 24 25  1  0
 25 26  2  0
 26 27  1  0
 27 28  1  0
 27 29  1  0
 29 30  2  0
 24 31  2  0
 31 32  1  0
 17  3  2  0
 32 21  2  0
 15  7  1  0
 30 25  1  0
 14  9  1  0
  1 33  1  0
  1 34  1  0
  1 35  1  0
  4 36  1  0
  5 37  1  0
 10 38  1  0
 11 39  1  0
 12 40  1  0
 13 41  1  0
 15 42  1  0
 16 43  1  0
 18 44  1  0
 22 45  1  0
 23 46  1  0
 28 47  1  0
 28 48  1  0
 28 49  1  0
 29 50  1  0
 31 51  1  0
 32 52  1  0
M  END
$$$$
OCNT-2315280
     RDKit          3D

 46 49  0  0  0  0  0  0  0  0999 V2000
    4.8431    2.1291   -3.2699 C   0  0  0  0  0  0  0  0  0  0  0  0
    3.6559    1.5509   -2.7377 O   0  0  0  0  0  0  0  0  0  0  0  0
    3.7556    0.9216   -1.5309 C   0  0  0  0  0  0  0  0  0  0  0  0
    4.9258    0.7018   -0.8169 C   0  0  0  0  0  0  0  0  0  0  0  0
    4.8730    0.0497    0.4193 C   0  0  0  0  0  0  0  0  0  0  0  0
    3.6799   -0.3955    0.9718 C   0  0  0  0  0  0  0  0  0  0  0  0
    3.7170   -0.9927    2.1737 N   0  0  0  0  0  0  0  0  0  0  0  0
    2.5511   -1.4033    2.7082 C   0  0  0  0  0  0  0  0  0  0  0  0
    1.3257   -1.2629    2.0870 C   0  0  0  0  0  0  0  0  0  0  0  0
    1.2729   -0.6564    0.8301 C   0  0  0  0  0  0  0  0  0  0  0  0
    0.0537   -0.5292    0.1302 N   0  0  0  0  0  0  0  0  0  0  0  0
   -0.2151   -1.6879   -0.7428 C   0  0  0  0  0  0  0  0  0  0  0  0
   -1.6946   -1.7601   -1.1382 C   0  0  0  0  0  0  0  0  0  0  0  0
   -2.2473   -0.3607   -1.3736 C   0  0  0  0  0  0  0  0  0  0  0  0
   -2.1918    0.4874   -0.0881 C   0  0  0  0  0  0  0  0  0  0  0  0
   -3.4984    0.5966    0.5693 N   0  0  0  0  0  0  0  0  0  0  0  0
   -4.3482   -0.5350    0.8973 C   0  0  0  0  0  0  0  0  0  0  0  0
   -5.5152    0.1193    1.6227 C   0  0  0  0  0  0  0  0  0  0  0  0
   -4.9397    1.3335    2.1290 N   0  0  0  0  0  0  0  0  0  0  0  0
   -3.7923    1.6624    1.4244 C   0  0  0  0  0  0  0  0  0  0  0  0
   -3.1689    2.7008    1.5558 O   0  0  0  0  0  0  0  0  0  0  0  0
   -1.0898   -0.0035    0.8903 C   0  0  0  0  0  0  0  0  0  0  0  0
    2.4846   -0.1960    0.2494 C   0  0  0  0  0  0  0  0  0  0  0  0
    2.5485    0.4689   -0.9987 C   0  0  0  0  0  0  0  0  0  0  0  0
    4.5848    2.6228   -4.2161 H   0  0  0  0  0  0  0  0  0  0  0  0
    5.2500    2.8920   -2.5930 H   0  0  0  0  0  0  0  0  0  0  0  0
    5.5872    1.3589   -3.4921 H   0  0  0  0  0  0  0  0  0  0  0  0
    5.8934    1.0240   -1.1834 H   0  0  0  0  0  0  0  0  0  0  0  0
    5.7951   -0.1121    0.9738 H   0  0  0  0  0  0  0  0  0  0  0  0
    2.6316   -1.8717    3.6850 H   0  0  0  0  0  0  0  0  0  0  0  0
    0.4368   -1.6406    2.5739 H   0  0  0  0  0  0  0  0  0  0  0  0
    0.0856   -2.6376   -0.2780 H   0  0  0  0  0  0  0  0  0  0  0  0
    0.3814   -1.5719   -1.6611 H   0  0  0  0  0  0  0  0  0  0  0  0
   -1.8031   -2.3728   -2.0394 H   0  0  0  0  0  0  0  0  0  0  0  0
   -2.2705   -2.2550   -0.3468 H   0  0  0  0  0  0  0  0  0  0  0  0
   -3.2549   -0.3969   -1.7917 H   0  0  0  0  0  0  0  0  0  0  0  0
   -1.6229    0.1202   -2.1339 H   0  0  0  0  0  0  0  0  0  0  0  0
   -1.9230    1.5075   -0.3935 H   0  0  0  0  0  0  0  0  0  0  0  0
   -3.8019   -1.2009    1.5748 H   0  0  0  0  0  0  0  0  0  0  0  0
   -4.6609   -1.0835    0.0041 H   0  0  0  0  0  0  0  0  0  0  0  0
   -6.3159    0.3936    0.9290 H   0  0  0  0  0  0  0  0  0  0  0  0
   -5.9149   -0.4892    2.4348 H   0  0  0  0  0  0  0  0  0  0  0  0
   -5.4254    2.0635    2.6369 H   0  0  0  0  0  0  0  0  0  0  0  0
   -1.4871   -0.7807    1.5555 H   0  0  0  0  0  0  0  0  0  0  0  0
   -0.7827    0.8374    1.5257 H   0  0  0  0  0  0  0  0  0  0  0  0
    1.6319    0.6544   -1.5567 H   0  0  0  0  0  0  0  0  0  0  0  0
  1  2  1  0
  2  3  1  0
  3  4  2  0
  4  5  1  0
  5  6  2  0
  6  7  1  0
  7  8  2  0
  8  9  1  0
  9 10  2  0
 10 11  1  0
 11 12  1  0
 12 13  1  0
 13 14  1  0
 14 15  1  0
 15 16  1  0
 16 17  1  0
 17 18  1  0
 18 19  1  0
 19 20  1  0
 20 21  2  0
 15 22  1  0
 10 23  1  0
 23 24  2  0
 24  3  1  0
 23  6  1  0
 22 11  1  0
 20 16  1  0
  1 25  1  0
  1 26  1  0
  1 27  1  0
  4 28  1  0
  5 29  1  0
  8 30  1  0
  9 31  1  0
 12 32  1  0
 12 33  1  0
 13 34  1  0
 13 35  1  0
 14 36  1  0
 14 37  1  0
 15 38  1  0
 17 39  1  0
 17 40  1  0
 18 41  1  0
 18 42  1  0
 19 43  1  0
 22 44  1  0
 22 45  1  0
 24 46  1  0
M  END
$$$$
OCNT-2315282
     RDKit          3D

  0  0  0  0  0  0  0  0  0  0999 V3000
M  V30 BEGIN CTAB
M  V30 COUNTS 47 49 0 0 0
M  V30 BEGIN ATOM
M  V30 1 C 0.753405 3.016135 0.924394 0
M  V30 2 C 0.551919 1.502643 1.047363 0
M  V30 3 N -0.342329 1.006483 0.014292 0
M  V30 4 C -1.706603 1.164366 0.088388 0
M  V30 5 O -2.260640 1.724373 1.027891 0
M  V30 6 C -2.465336 0.586127 -1.109292 0 CFG=1
M  V30 7 C -2.298800 -0.940815 -1.183055 0
M  V30 8 C -3.144198 -1.677434 -0.148925 0
M  V30 9 C -4.614013 -1.294971 -0.251063 0
M  V30 10 C -4.809339 0.211803 -0.127027 0
M  V30 11 C -3.947126 1.035279 -1.100993 0 CFG=2
M  V30 12 C -4.523521 1.022285 -2.511069 0
M  V30 13 F -4.525962 -0.209298 -3.059432 0
M  V30 14 F -5.794837 1.479474 -2.524036 0
M  V30 15 F -3.802193 1.825289 -3.327734 0
M  V30 16 C 1.848433 0.711207 1.000497 0
M  V30 17 C 2.877214 1.005609 0.092727 0
M  V30 18 C 4.048252 0.238413 0.055992 0
M  V30 19 C 4.203375 -0.849195 0.923711 0
M  V30 20 N 5.380780 -1.640767 0.905075 0
M  V30 21 C 6.501728 -1.507860 0.116364 0
M  V30 22 C 7.328499 -2.531920 0.507161 0
M  V30 23 N 6.726649 -3.251787 1.491487 0
M  V30 24 N 5.542241 -2.705603 1.730535 0
M  V30 25 C 3.174727 -1.161781 1.822178 0
M  V30 26 C 2.009188 -0.390579 1.854567 0
M  V30 27 H -0.189210 3.548420 1.092738 0
M  V30 28 H 1.104877 3.304355 -0.072281 0
M  V30 29 H 1.478397 3.378160 1.661426 0
M  V30 30 H 0.070133 1.326873 2.018401 0
M  V30 31 H 0.073023 0.614916 -0.820444 0
M  V30 32 H -1.974833 1.022963 -1.990705 0
M  V30 33 H -2.581601 -1.286849 -2.184416 0
M  V30 34 H -1.250559 -1.232260 -1.051270 0
M  V30 35 H -2.774303 -1.453861 0.859111 0
M  V30 36 H -3.036902 -2.758750 -0.292100 0
M  V30 37 H -5.178486 -1.801365 0.540495 0
M  V30 38 H -5.024848 -1.651228 -1.202330 0
M  V30 39 H -5.870319 0.453703 -0.261992 0
M  V30 40 H -4.564572 0.506046 0.901178 0
M  V30 41 H -3.999562 2.081934 -0.771626 0
M  V30 42 H 2.781753 1.837231 -0.602158 0
M  V30 43 H 4.813023 0.517607 -0.662668 0
M  V30 44 H 6.620158 -0.733572 -0.623280 0
M  V30 45 H 8.311664 -2.785977 0.137795 0
M  V30 46 H 3.259280 -2.004365 2.507230 0
M  V30 47 H 1.221375 -0.660088 2.556900 0
M  V30 END ATOM
M  V30 BEGIN BOND
M  V30 1 1 1 2
M  V30 2 1 2 3
M  V30 3 1 3 4
M  V30 4 2 4 5
M  V30 5 1 4 6
M  V30 6 1 6 7
M  V30 7 1 7 8
M  V30 8 1 8 9
M  V30 9 1 9 10
M  V30 10 1 10 11
M  V30 11 1 11 12
M  V30 12 1 12 13
M  V30 13 1 12 14
M  V30 14 1 12 15
M  V30 15 1 2 16
M  V30 16 1 16 17
M  V30 17 2 17 18
M  V30 18 1 18 19
M  V30 19 1 19 20
M  V30 20 1 20 21
M  V30 21 2 21 22
M  V30 22 1 22 23
M  V30 23 2 23 24
M  V30 24 2 19 25
M  V30 25 1 25 26
M  V30 26 1 11 6
M  V30 27 2 26 16
M  V30 28 1 24 20
M  V30 29 1 1 27
M  V30 30 1 1 28
M  V30 31 1 1 29
M  V30 32 1 2 30
M  V30 33 1 3 31
M  V30 34 1 6 32 CFG=3
M  V30 35 1 7 33
M  V30 36 1 7 34
M  V30 37 1 8 35
M  V30 38 1 8 36
M  V30 39 1 9 37
M  V30 40 1 9 38
M  V30 41 1 10 39
M  V30 42 1 10 40
M  V30 43 1 11 41 CFG=1
M  V30 44 1 17 42
M  V30 45 1 18 43
M  V30 46 1 21 44
M  V30 47 1 22 45
M  V30 48 1 25 46
M  V30 49 1 26 47
M  V30 END BOND
M  V30 BEGIN COLLECTION
M  V30 MDLV30/STERAC1 ATOMS=(2 6 11)
M  V30 END COLLECTION
M  V30 END CTAB
M  END
>  <_CXSMILES_Data>  (980) 
|&1:5,10|

$$$$
OCNT-2315296
     RDKit          3D

 41 43  0  0  0  0  0  0  0  0999 V2000
    8.0821    0.9794   -1.8242 C   0  0  0  0  0  0  0  0  0  0  0  0
    6.7335    0.8508   -1.3697 O   0  0  0  0  0  0  0  0  0  0  0  0
    6.6037    0.8727   -0.0205 C   0  0  0  0  0  0  0  0  0  0  0  0
    7.5119    0.9888    0.7860 O   0  0  0  0  0  0  0  0  0  0  0  0
    5.1745    0.7337    0.3694 C   0  0  0  0  0  0  0  0  0  0  0  0
    4.8547    0.7363    1.7333 C   0  0  0  0  0  0  0  0  0  0  0  0
    3.5241    0.6082    2.1494 C   0  0  0  0  0  0  0  0  0  0  0  0
    2.4896    0.4751    1.2098 C   0  0  0  0  0  0  0  0  0  0  0  0
    1.0846    0.3414    1.7096 C   0  0  0  0  0  0  0  0  0  0  0  0
    0.9138    0.3607    2.9240 O   0  0  0  0  0  0  0  0  0  0  0  0
    0.1084    0.2075    0.7509 N   0  0  0  0  0  0  0  0  0  0  0  0
   -1.2419    0.0680    0.9486 C   0  0  0  0  0  0  0  0  0  0  0  0
   -2.0574   -0.0522   -0.0728 N   0  0  0  0  0  0  0  0  0  0  0  0
   -3.3565   -0.2011    0.3833 C   0  0  0  0  0  0  0  0  0  0  0  0
   -4.4702   -0.3369   -0.5437 C   0  0  0  0  0  0  0  0  0  0  0  0
   -4.6387    0.6706   -1.5080 C   0  0  0  0  0  0  0  0  0  0  0  0
   -5.6975    0.6230   -2.4145 C   0  0  0  0  0  0  0  0  0  0  0  0
   -6.5981   -0.4357   -2.3698 C   0  0  0  0  0  0  0  0  0  0  0  0
   -6.4323   -1.4535   -1.4294 C   0  0  0  0  0  0  0  0  0  0  0  0
   -5.3619   -1.4293   -0.5175 C   0  0  0  0  0  0  0  0  0  0  0  0
   -5.2222   -2.5691    0.4549 C   0  0  0  0  0  0  0  0  0  0  0  0
   -3.5046   -0.1441    1.7548 C   0  0  0  0  0  0  0  0  0  0  0  0
   -1.9681    0.0443    2.4885 S   0  0  0  0  0  0  0  0  0  0  0  0
    2.8254    0.4745   -0.1467 C   0  0  0  0  0  0  0  0  0  0  0  0
    1.8790    0.3509   -1.0898 F   0  0  0  0  0  0  0  0  0  0  0  0
    4.1487    0.6016   -0.5721 C   0  0  0  0  0  0  0  0  0  0  0  0
    8.5037    1.9381   -1.5064 H   0  0  0  0  0  0  0  0  0  0  0  0
    8.0750    0.9494   -2.9173 H   0  0  0  0  0  0  0  0  0  0  0  0
    8.6908    0.1465   -1.4585 H   0  0  0  0  0  0  0  0  0  0  0  0
    5.6395    0.8382    2.4825 H   0  0  0  0  0  0  0  0  0  0  0  0
    3.3016    0.6130    3.2163 H   0  0  0  0  0  0  0  0  0  0  0  0
    0.3534    0.2000   -0.2317 H   0  0  0  0  0  0  0  0  0  0  0  0
   -3.9397    1.5041   -1.5504 H   0  0  0  0  0  0  0  0  0  0  0  0
   -5.8175    1.4122   -3.1518 H   0  0  0  0  0  0  0  0  0  0  0  0
   -7.4266   -0.4752   -3.0724 H   0  0  0  0  0  0  0  0  0  0  0  0
   -7.1426   -2.2780   -1.4195 H   0  0  0  0  0  0  0  0  0  0  0  0
   -5.7891   -3.4452    0.1209 H   0  0  0  0  0  0  0  0  0  0  0  0
   -5.6013   -2.2772    1.4387 H   0  0  0  0  0  0  0  0  0  0  0  0
   -4.1782   -2.8872    0.5411 H   0  0  0  0  0  0  0  0  0  0  0  0
   -4.4075   -0.1991    2.3454 H   0  0  0  0  0  0  0  0  0  0  0  0
    4.3540    0.5949   -1.6389 H   0  0  0  0  0  0  0  0  0  0  0  0
  1  2  1  0
  2  3  1  0
  3  4  2  0
  3  5  1  0
  5  6  1  0
  6  7  2  0
  7  8  1  0
  8  9  1  0
  9 10  2  0
  9 11  1  0
 11 12  1  0
 12 13  2  0
 13 14  1  0
 14 15  1  0
 15 16  2  0
 16 17  1  0
 17 18  2  0
 18 19  1  0
 19 20  2  0
 20 21  1  0
 14 22  2  0
 22 23  1  0
  8 24  2  0
 24 25  1  0
 24 26  1  0
 26  5  2  0
 23 12  1  0
 20 15  1  0
  1 27  1  0
  1 28  1  0
  1 29  1  0
  6 30  1  0
  7 31  1  0
 11 32  1  0
 16 33  1  0
 17 34  1  0
 18 35  1  0
 19 36  1  0
 21 37  1  0
 21 38  1  0
 21 39  1  0
 22 40  1  0
 26 41  1  0
M  END
$$$$
OCNT-2315326
     RDKit          3D

 40 41  0  0  0  0  0  0  0  0999 V2000
   -5.6807    0.0890    2.0987 C   0  0  0  0  0  0  0  0  0  0  0  0
   -4.3290   -0.3490    2.0553 O   0  0  0  0  0  0  0  0  0  0  0  0
   -3.6265   -0.1017    0.9066 C   0  0  0  0  0  0  0  0  0  0  0  0
   -4.1161    0.5459   -0.2308 C   0  0  0  0  0  0  0  0  0  0  0  0
   -3.2885    0.7341   -1.3407 C   0  0  0  0  0  0  0  0  0  0  0  0
   -3.6414    1.3498   -2.5115 O   0  0  0  0  0  0  0  0  0  0  0  0
   -4.9736    1.8352   -2.6146 C   0  0  0  0  0  0  0  0  0  0  0  0
   -1.9696    0.2716   -1.3063 C   0  0  0  0  0  0  0  0  0  0  0  0
   -1.4617   -0.3797   -0.1751 C   0  0  0  0  0  0  0  0  0  0  0  0
   -0.0827   -0.8556   -0.1572 C   0  0  0  0  0  0  0  0  0  0  0  0
    0.4751   -1.5001    0.8805 N   0  0  0  0  0  0  0  0  0  0  0  0
    1.7767   -1.7467    0.4465 O   0  0  0  0  0  0  0  0  0  0  0  0
    1.8804   -1.2248   -0.8082 C   0  0  0  0  0  0  0  0  0  0  0  0
    3.0253   -1.3426   -1.5104 N   0  0  0  0  0  0  0  0  0  0  0  0
    4.3609   -1.3469   -0.9070 C   0  0  0  0  0  0  0  0  0  0  0  0
    4.5845   -2.4780    0.0944 C   0  0  0  0  0  0  0  0  0  0  0  0
    4.8146    0.0502   -0.4245 C   0  0  0  0  0  0  0  0  0  0  0  0
    4.0808    0.6465    1.1377 S   0  0  0  0  0  0  0  0  0  0  0  0
    4.8206    2.2955    1.1784 C   0  0  0  0  0  0  0  0  0  0  0  0
    0.7671   -0.6820   -1.2291 N   0  0  0  0  0  0  0  0  0  0  0  0
   -2.3055   -0.5596    0.9283 C   0  0  0  0  0  0  0  0  0  0  0  0
   -6.0903   -0.1864    3.0754 H   0  0  0  0  0  0  0  0  0  0  0  0
   -6.2824   -0.4109    1.3325 H   0  0  0  0  0  0  0  0  0  0  0  0
   -5.7458    1.1780    2.0055 H   0  0  0  0  0  0  0  0  0  0  0  0
   -5.1373    0.9021   -0.2517 H   0  0  0  0  0  0  0  0  0  0  0  0
   -5.0886    2.2889   -3.6037 H   0  0  0  0  0  0  0  0  0  0  0  0
   -5.6986    1.0182   -2.5369 H   0  0  0  0  0  0  0  0  0  0  0  0
   -5.1696    2.6114   -1.8676 H   0  0  0  0  0  0  0  0  0  0  0  0
   -1.3358    0.4245   -2.1783 H   0  0  0  0  0  0  0  0  0  0  0  0
    2.9832   -0.8374   -2.3901 H   0  0  0  0  0  0  0  0  0  0  0  0
    5.0291   -1.5813   -1.7478 H   0  0  0  0  0  0  0  0  0  0  0  0
    4.0519   -2.3324    1.0375 H   0  0  0  0  0  0  0  0  0  0  0  0
    5.6497   -2.5627    0.3364 H   0  0  0  0  0  0  0  0  0  0  0  0
    4.2603   -3.4368   -0.3249 H   0  0  0  0  0  0  0  0  0  0  0  0
    4.5961    0.7881   -1.2049 H   0  0  0  0  0  0  0  0  0  0  0  0
    5.9008    0.0317   -0.2801 H   0  0  0  0  0  0  0  0  0  0  0  0
    4.5055    2.8759    0.3074 H   0  0  0  0  0  0  0  0  0  0  0  0
    5.9111    2.2232    1.1984 H   0  0  0  0  0  0  0  0  0  0  0  0
    4.4901    2.8164    2.0809 H   0  0  0  0  0  0  0  0  0  0  0  0
   -1.9401   -1.0614    1.8230 H   0  0  0  0  0  0  0  0  0  0  0  0
  1  2  1  0
  2  3  1  0
  3  4  1  0
  4  5  2  0
  5  6  1  0
  6  7  1  0
  5  8  1  0
  8  9  2  0
  9 10  1  0
 10 11  2  0
 11 12  1  0
 12 13  1  0
 13 14  1  0
 14 15  1  0
 15 16  1  0
 15 17  1  0
 17 18  1  0
 18 19  1  0
 13 20  2  0
  9 21  1  0
 21  3  2  0
 20 10  1  0
  1 22  1  0
  1 23  1  0
  1 24  1  0
  4 25  1  0
  7 26  1  0
  7 27  1  0
  7 28  1  0
  8 29  1  0
 14 30  1  0
 15 31  1  0
 16 32  1  0
 16 33  1  0
 16 34  1  0
 17 35  1  0
 17 36  1  0
 19 37  1  0
 19 38  1  0
 19 39  1  0
 21 40  1  0
M  END
$$$$
OCNT-2315331
     RDKit          3D

 38 41  0  0  0  0  0  0  0  0999 V2000
   -0.3215   -1.9986    1.8858 C   0  0  0  0  0  0  0  0  0  0  0  0
   -1.1130   -1.2690    0.8796 C   0  0  0  0  0  0  0  0  0  0  0  0
   -0.8900   -0.8427   -0.4138 C   0  0  0  0  0  0  0  0  0  0  0  0
    0.3098   -1.0149   -1.2748 C   0  0  0  0  0  0  0  0  0  0  0  0
    1.4778   -0.2586   -0.7648 C   0  0  0  0  0  0  0  0  0  0  0  0
    2.3870   -0.6116    0.1186 N   0  0  0  0  0  0  0  0  0  0  0  0
    3.2036    0.4935    0.1512 C   0  0  0  0  0  0  0  0  0  0  0  0
    4.3968    0.5892    1.0338 C   0  0  0  0  0  0  0  0  0  0  0  0
    5.6602    0.2164    0.3338 C   0  0  0  0  0  0  0  0  0  0  0  0
    6.4215   -0.7881    0.7924 N   0  0  0  0  0  0  0  0  0  0  0  0
    7.5083   -0.8581   -0.0612 O   0  0  0  0  0  0  0  0  0  0  0  0
    7.3991    0.1029   -1.0096 C   0  0  0  0  0  0  0  0  0  0  0  0
    6.2505    0.8195   -0.8049 C   0  0  0  0  0  0  0  0  0  0  0  0
    2.8247    1.4938   -0.6586 N   0  0  0  0  0  0  0  0  0  0  0  0
    1.6765    0.9923   -1.2743 O   0  0  0  0  0  0  0  0  0  0  0  0
   -2.0130   -0.1895   -0.8779 N   0  0  0  0  0  0  0  0  0  0  0  0
   -2.8591   -0.2290    0.1355 C   0  0  0  0  0  0  0  0  0  0  0  0
   -4.2132    0.3103    0.2301 C   0  0  0  0  0  0  0  0  0  0  0  0
   -4.9888    0.1733    1.3915 C   0  0  0  0  0  0  0  0  0  0  0  0
   -6.2824    0.6998    1.4534 C   0  0  0  0  0  0  0  0  0  0  0  0
   -6.8167    1.3699    0.3549 C   0  0  0  0  0  0  0  0  0  0  0  0
   -6.0602    1.5150   -0.8057 C   0  0  0  0  0  0  0  0  0  0  0  0
   -4.7673    0.9884   -0.8667 C   0  0  0  0  0  0  0  0  0  0  0  0
   -2.3700   -0.8760    1.2410 O   0  0  0  0  0  0  0  0  0  0  0  0
   -0.9709   -2.5678    2.5581 H   0  0  0  0  0  0  0  0  0  0  0  0
    0.3658   -2.7027    1.4070 H   0  0  0  0  0  0  0  0  0  0  0  0
    0.2662   -1.2985    2.4870 H   0  0  0  0  0  0  0  0  0  0  0  0
    0.5654   -2.0797   -1.3299 H   0  0  0  0  0  0  0  0  0  0  0  0
    0.0808   -0.6968   -2.2988 H   0  0  0  0  0  0  0  0  0  0  0  0
    4.2439   -0.0545    1.9092 H   0  0  0  0  0  0  0  0  0  0  0  0
    4.4907    1.6126    1.4180 H   0  0  0  0  0  0  0  0  0  0  0  0
    8.2000    0.1413   -1.7326 H   0  0  0  0  0  0  0  0  0  0  0  0
    5.8837    1.6505   -1.3895 H   0  0  0  0  0  0  0  0  0  0  0  0
   -4.5921   -0.3458    2.2615 H   0  0  0  0  0  0  0  0  0  0  0  0
   -6.8712    0.5859    2.3601 H   0  0  0  0  0  0  0  0  0  0  0  0
   -7.8225    1.7795    0.4035 H   0  0  0  0  0  0  0  0  0  0  0  0
   -6.4736    2.0377   -1.6643 H   0  0  0  0  0  0  0  0  0  0  0  0
   -4.1869    1.1098   -1.7801 H   0  0  0  0  0  0  0  0  0  0  0  0
  1  2  1  0
  2  3  2  0
  3  4  1  0
  4  5  1  0
  5  6  2  0
  6  7  1  0
  7  8  1  0
  8  9  1  0
  9 10  2  0
 10 11  1  0
 11 12  1  0
 12 13  2  0
  7 14  2  0
 14 15  1  0
  3 16  1  0
 16 17  2  0
 17 18  1  0
 18 19  2  0
 19 20  1  0
 20 21  2  0
 21 22  1  0
 22 23  2  0
 17 24  1  0
 24  2  1  0
 15  5  1  0
 23 18  1  0
 13  9  1  0
  1 25  1  0
  1 26  1  0
  1 27  1  0
  4 28  1  0
  4 29  1  0
  8 30  1  0
  8 31  1  0
 12 32  1  0
 13 33  1  0
 19 34  1  0
 20 35  1  0
 21 36  1  0
 22 37  1  0
 23 38  1  0
M  END
$$$$
OCNT-2315332
     RDKit          3D

 33 35  0  0  0  0  0  0  0  0999 V2000
    7.1615   -1.1130    2.3465 N   0  0  0  0  0  0  0  0  0  0  0  0
    6.4360   -0.7168    1.5323 C   0  0  0  0  0  0  0  0  0  0  0  0
    5.5265   -0.2358    0.5343 C   0  0  0  0  0  0  0  0  0  0  0  0
    6.0132    0.3908   -0.6141 C   0  0  0  0  0  0  0  0  0  0  0  0
    5.1207    0.8513   -1.5797 C   0  0  0  0  0  0  0  0  0  0  0  0
    3.7428    0.6899   -1.4006 C   0  0  0  0  0  0  0  0  0  0  0  0
    3.2413    0.0712   -0.2531 C   0  0  0  0  0  0  0  0  0  0  0  0
    1.8662   -0.1380   -0.0044 N   0  0  0  0  0  0  0  0  0  0  0  0
    0.7979    0.3605   -0.7332 C   0  0  0  0  0  0  0  0  0  0  0  0
    0.8895    1.1614   -1.6554 O   0  0  0  0  0  0  0  0  0  0  0  0
   -0.4903   -0.1138   -0.2824 C   0  0  0  0  0  0  0  0  0  0  0  0
   -1.7276    0.4895   -0.4052 C   0  0  0  0  0  0  0  0  0  0  0  0
   -2.6686   -0.3909    0.1939 C   0  0  0  0  0  0  0  0  0  0  0  0
   -4.1125   -0.2141    0.3466 C   0  0  0  0  0  0  0  0  0  0  0  0
   -4.7846    0.9053   -0.1554 C   0  0  0  0  0  0  0  0  0  0  0  0
   -6.1639    1.0277    0.0177 C   0  0  0  0  0  0  0  0  0  0  0  0
   -6.8365    0.0225    0.6916 C   0  0  0  0  0  0  0  0  0  0  0  0
   -6.2318   -1.0735    1.1922 N   0  0  0  0  0  0  0  0  0  0  0  0
   -4.8887   -1.1652    1.0069 C   0  0  0  0  0  0  0  0  0  0  0  0
   -2.0411   -1.4903    0.6433 N   0  0  0  0  0  0  0  0  0  0  0  0
   -0.7585   -1.3183    0.3003 N   0  0  0  0  0  0  0  0  0  0  0  0
    4.1450   -0.3962    0.7110 C   0  0  0  0  0  0  0  0  0  0  0  0
    7.0829    0.5230   -0.7656 H   0  0  0  0  0  0  0  0  0  0  0  0
    5.4929    1.3380   -2.4789 H   0  0  0  0  0  0  0  0  0  0  0  0
    3.0888    1.0568   -2.1868 H   0  0  0  0  0  0  0  0  0  0  0  0
    1.6478   -0.5967    0.8689 H   0  0  0  0  0  0  0  0  0  0  0  0
   -1.9087    1.4532   -0.8618 H   0  0  0  0  0  0  0  0  0  0  0  0
   -4.2559    1.6915   -0.6858 H   0  0  0  0  0  0  0  0  0  0  0  0
   -6.7004    1.8884   -0.3661 H   0  0  0  0  0  0  0  0  0  0  0  0
   -7.9098    0.0737    0.8505 H   0  0  0  0  0  0  0  0  0  0  0  0
   -4.4414   -2.0644    1.4246 H   0  0  0  0  0  0  0  0  0  0  0  0
   -0.1164   -2.0820    0.4823 H   0  0  0  0  0  0  0  0  0  0  0  0
    3.7839   -0.8859    1.6134 H   0  0  0  0  0  0  0  0  0  0  0  0
  1  2  3  0
  2  3  1  0
  3  4  1  0
  4  5  2  0
  5  6  1  0
  6  7  2  0
  7  8  1  0
  8  9  1  0
  9 10  2  0
  9 11  1  0
 11 12  2  0
 12 13  1  0
 13 14  1  0
 14 15  1  0
 15 16  2  0
 16 17  1  0
 17 18  2  0
 18 19  1  0
 13 20  2  0
 20 21  1  0
  7 22  1  0
 22  3  2  0
 21 11  1  0
 19 14  2  0
  4 23  1  0
  5 24  1  0
  6 25  1  0
  8 26  1  0
 12 27  1  0
 15 28  1  0
 16 29  1  0
 17 30  1  0
 19 31  1  0
 21 32  1  0
 22 33  1  0
M  END
$$$$
OCNT-2315338
     RDKit          3D

 42 46  0  0  0  0  0  0  0  0999 V2000
    6.8965   -1.5543    1.2805 C   0  0  0  0  0  0  0  0  0  0  0  0
    6.4237   -0.3069    0.6380 C   0  0  0  0  0  0  0  0  0  0  0  0
    7.2535    0.7347    0.4951 N   0  0  0  0  0  0  0  0  0  0  0  0
    6.5100    1.7242   -0.1339 O   0  0  0  0  0  0  0  0  0  0  0  0
    5.2437    1.2761   -0.3601 C   0  0  0  0  0  0  0  0  0  0  0  0
    4.2784    2.0044   -0.9582 N   0  0  0  0  0  0  0  0  0  0  0  0
    3.1033    1.3386   -1.0685 C   0  0  0  0  0  0  0  0  0  0  0  0
    2.8735    0.0483   -0.6118 C   0  0  0  0  0  0  0  0  0  0  0  0
    1.2813   -0.6592   -0.8557 S   0  0  0  0  0  0  0  0  0  0  0  0
    1.3383   -2.0458   -0.4472 O   0  0  0  0  0  0  0  0  0  0  0  0
    0.8235   -0.2623   -2.1676 O   0  0  0  0  0  0  0  0  0  0  0  0
    0.3817    0.1408    0.3436 N   0  0  0  0  0  0  0  0  0  0  0  0
   -0.9204    0.6620   -0.1163 C   0  0  0  0  0  0  0  0  0  0  0  0
   -2.0123    0.8990    0.8804 C   0  0  0  0  0  0  0  0  0  0  0  0
   -2.6622    0.2453    2.0521 C   0  0  0  0  0  0  0  0  0  0  0  0
   -4.1880    0.1044    1.7331 C   0  0  0  0  0  0  0  0  0  0  0  0
   -4.5530    0.0193    0.2438 C   0  0  0  0  0  0  0  0  0  0  0  0
   -5.8931    0.0648   -0.1539 C   0  0  0  0  0  0  0  0  0  0  0  0
   -6.2166    0.0473   -1.5109 C   0  0  0  0  0  0  0  0  0  0  0  0
   -5.2091   -0.0149   -2.4753 C   0  0  0  0  0  0  0  0  0  0  0  0
   -3.8684   -0.0681   -2.0912 C   0  0  0  0  0  0  0  0  0  0  0  0
   -3.5244   -0.0521   -0.7382 C   0  0  0  0  0  0  0  0  0  0  0  0
   -2.1243   -0.1806   -0.2332 C   0  0  0  0  0  0  0  0  0  0  0  0
    3.9017   -0.6789   -0.0056 C   0  0  0  0  0  0  0  0  0  0  0  0
    5.1354   -0.0221    0.1218 C   0  0  0  0  0  0  0  0  0  0  0  0
    6.6052   -2.4273    0.6877 H   0  0  0  0  0  0  0  0  0  0  0  0
    6.4599   -1.6552    2.2793 H   0  0  0  0  0  0  0  0  0  0  0  0
    7.9866   -1.5675    1.3822 H   0  0  0  0  0  0  0  0  0  0  0  0
    2.3140    1.9077   -1.5579 H   0  0  0  0  0  0  0  0  0  0  0  0
    0.2774   -0.4916    1.1414 H   0  0  0  0  0  0  0  0  0  0  0  0
   -0.7904    1.4278   -0.8798 H   0  0  0  0  0  0  0  0  0  0  0  0
   -2.4537    1.8889    0.7494 H   0  0  0  0  0  0  0  0  0  0  0  0
   -2.5279    0.8436    2.9598 H   0  0  0  0  0  0  0  0  0  0  0  0
   -2.2274   -0.7409    2.2566 H   0  0  0  0  0  0  0  0  0  0  0  0
   -4.6923    0.9928    2.1359 H   0  0  0  0  0  0  0  0  0  0  0  0
   -4.5884   -0.7691    2.2602 H   0  0  0  0  0  0  0  0  0  0  0  0
   -6.6867    0.1248    0.5865 H   0  0  0  0  0  0  0  0  0  0  0  0
   -7.2583    0.0858   -1.8198 H   0  0  0  0  0  0  0  0  0  0  0  0
   -5.4696   -0.0297   -3.5307 H   0  0  0  0  0  0  0  0  0  0  0  0
   -3.0911   -0.1351   -2.8488 H   0  0  0  0  0  0  0  0  0  0  0  0
   -1.8885   -1.2232   -0.0081 H   0  0  0  0  0  0  0  0  0  0  0  0
    3.7584   -1.6958    0.3454 H   0  0  0  0  0  0  0  0  0  0  0  0
  1  2  1  0
  2  3  2  0
  3  4  1  0
  4  5  1  0
  5  6  2  0
  6  7  1  0
  7  8  2  0
  8  9  1  0
  9 10  2  0
  9 11  2  0
  9 12  1  0
 12 13  1  0
 13 14  1  0
 14 15  1  0
 15 16  1  0
 16 17  1  0
 17 18  2  0
 18 19  1  0
 19 20  2  0
 20 21  1  0
 21 22  2  0
 22 23  1  0
  8 24  1  0
 24 25  2  0
 25  2  1  0
 25  5  1  0
 23 13  1  0
 23 14  1  0
 22 17  1  0
  1 26  1  0
  1 27  1  0
  1 28  1  0
  7 29  1  0
 12 30  1  0
 13 31  1  0
 14 32  1  0
 15 33  1  0
 15 34  1  0
 16 35  1  0
 16 36  1  0
 18 37  1  0
 19 38  1  0
 20 39  1  0
 21 40  1  0
 23 41  1  0
 24 42  1  0
M  END
$$$$
OCNT-2315340
     RDKit          3D

 42 44  0  0  0  0  0  0  0  0999 V2000
   -3.6032   -1.6430    1.6640 C   0  0  0  0  0  0  0  0  0  0  0  0
   -2.1277   -1.2862    1.6325 C   0  0  0  0  0  0  0  0  0  0  0  0
   -1.6896    0.0200    0.9358 C   0  0  2  0  0  0  0  0  0  0  0  0
   -2.4964    1.2579    1.3686 C   0  0  0  0  0  0  0  0  0  0  0  0
   -2.1913    1.8795    2.3911 O   0  0  0  0  0  0  0  0  0  0  0  0
   -3.5663    1.7165    0.6638 N   0  0  0  0  0  0  0  0  0  0  0  0
   -4.3311    1.0520   -0.3631 C   0  0  0  0  0  0  0  0  0  0  0  0
   -3.5403    0.7309   -1.6137 C   0  0  0  0  0  0  0  0  0  0  0  0
   -2.5132   -0.3767   -1.4070 C   0  0  0  0  0  0  0  0  0  0  0  0
   -1.4007   -0.0754   -0.5176 N   0  0  0  0  0  0  0  0  0  0  0  0
   -0.5597    1.0378   -1.0168 C   0  0  0  0  0  0  0  0  0  0  0  0
    0.8586    0.9756   -0.5494 C   0  0  0  0  0  0  0  0  0  0  0  0
    1.8130    0.1223   -0.8487 N   0  0  0  0  0  0  0  0  0  0  0  0
    2.8783    0.5930   -0.1113 C   0  0  0  0  0  0  0  0  0  0  0  0
    4.1807   -0.0651   -0.1201 C   0  0  0  0  0  0  0  0  0  0  0  0
    4.3757   -1.2325   -0.8762 C   0  0  0  0  0  0  0  0  0  0  0  0
    5.6171   -1.8737   -0.8945 C   0  0  0  0  0  0  0  0  0  0  0  0
    6.6782   -1.3537   -0.1558 C   0  0  0  0  0  0  0  0  0  0  0  0
    6.4931   -0.1960    0.5976 C   0  0  0  0  0  0  0  0  0  0  0  0
    7.8058    0.4440    1.5088 Cl  0  0  0  0  0  0  0  0  0  0  0  0
    5.2559    0.4484    0.6201 C   0  0  0  0  0  0  0  0  0  0  0  0
    2.6019    1.7020    0.5951 N   0  0  0  0  0  0  0  0  0  0  0  0
    1.2629    1.9549    0.3084 O   0  0  0  0  0  0  0  0  0  0  0  0
   -4.0011   -1.8678    0.6740 H   0  0  0  0  0  0  0  0  0  0  0  0
   -4.1988   -0.8476    2.1206 H   0  0  0  0  0  0  0  0  0  0  0  0
   -3.7479   -2.5423    2.2731 H   0  0  0  0  0  0  0  0  0  0  0  0
   -1.8001   -1.2230    2.6799 H   0  0  0  0  0  0  0  0  0  0  0  0
   -1.5679   -2.1279    1.2048 H   0  0  0  0  0  0  0  0  0  0  0  0
   -0.7032    0.1984    1.3901 H   0  0  0  0  0  0  0  0  0  0  0  0
   -4.0060    2.5004    1.1335 H   0  0  0  0  0  0  0  0  0  0  0  0
   -4.7970    0.1598    0.0584 H   0  0  0  0  0  0  0  0  0  0  0  0
   -5.1434    1.7390   -0.6267 H   0  0  0  0  0  0  0  0  0  0  0  0
   -3.0624    1.6369   -2.0048 H   0  0  0  0  0  0  0  0  0  0  0  0
   -4.2428    0.3979   -2.3881 H   0  0  0  0  0  0  0  0  0  0  0  0
   -3.0114   -1.2982   -1.0944 H   0  0  0  0  0  0  0  0  0  0  0  0
   -2.0987   -0.6320   -2.3919 H   0  0  0  0  0  0  0  0  0  0  0  0
   -0.5085    0.9929   -2.1130 H   0  0  0  0  0  0  0  0  0  0  0  0
   -0.9977    2.0127   -0.7730 H   0  0  0  0  0  0  0  0  0  0  0  0
    3.5555   -1.6519   -1.4574 H   0  0  0  0  0  0  0  0  0  0  0  0
    5.7532   -2.7771   -1.4838 H   0  0  0  0  0  0  0  0  0  0  0  0
    7.6433   -1.8532   -0.1705 H   0  0  0  0  0  0  0  0  0  0  0  0
    5.1331    1.3505    1.2158 H   0  0  0  0  0  0  0  0  0  0  0  0
  1  2  1  0
  2  3  1  0
  3  4  1  0
  4  5  2  0
  4  6  1  0
  6  7  1  0
  7  8  1  0
  8  9  1  0
  9 10  1  0
 10 11  1  0
 11 12  1  0
 12 13  2  0
 13 14  1  0
 14 15  1  0
 15 16  2  0
 16 17  1  0
 17 18  2  0
 18 19  1  0
 19 20  1  0
 19 21  2  0
 14 22  2  0
 22 23  1  0
 10  3  1  0
 23 12  1  0
 21 15  1  0
  1 24  1  0
  1 25  1  0
  1 26  1  0
  2 27  1  0
  2 28  1  0
  3 29  1  1
  6 30  1  0
  7 31  1  0
  7 32  1  0
  8 33  1  0
  8 34  1  0
  9 35  1  0
  9 36  1  0
 11 37  1  0
 11 38  1  0
 16 39  1  0
 17 40  1  0
 18 41  1  0
 21 42  1  0
M  END
$$$$
OCNT-2315349
     RDKit          3D

 45 48  0  0  0  0  0  0  0  0999 V2000
   -1.7800    2.6576    0.6027 C   0  0  0  0  0  0  0  0  0  0  0  0
   -1.7192    1.5745   -0.4809 C   0  0  0  0  0  0  0  0  0  0  0  0
   -2.3527    0.3476   -0.0171 N   0  0  0  0  0  0  0  0  0  0  0  0
   -3.7347    0.3009    0.0882 C   0  0  0  0  0  0  0  0  0  0  0  0
   -4.5075    1.1863   -0.5879 N   0  0  0  0  0  0  0  0  0  0  0  0
   -5.8480    1.1077   -0.4673 C   0  0  0  0  0  0  0  0  0  0  0  0
   -6.5680    0.2415    0.2644 N   0  0  0  0  0  0  0  0  0  0  0  0
   -5.7710   -0.6195    0.9117 C   0  0  0  0  0  0  0  0  0  0  0  0
   -4.3858   -0.6631    0.8804 C   0  0  0  0  0  0  0  0  0  0  0  0
   -3.9957   -1.7498    1.7167 C   0  0  0  0  0  0  0  0  0  0  0  0
   -5.1430   -2.3213    2.2277 C   0  0  0  0  0  0  0  0  0  0  0  0
   -6.2135   -1.6235    1.7287 N   0  0  0  0  0  0  0  0  0  0  0  0
   -0.3021    1.2129   -0.9145 C   0  0  0  0  0  0  0  0  0  0  0  0
   -0.1040    0.6901   -2.2026 C   0  0  0  0  0  0  0  0  0  0  0  0
    1.1710    0.3227   -2.6401 C   0  0  0  0  0  0  0  0  0  0  0  0
    2.2782    0.4654   -1.8040 C   0  0  0  0  0  0  0  0  0  0  0  0
    3.4637    0.0599   -2.3513 O   0  0  0  0  0  0  0  0  0  0  0  0
    4.6769    0.4380   -1.6953 C   0  0  0  0  0  0  0  0  0  0  0  0
    5.1132   -0.5391   -0.6357 C   0  0  0  0  0  0  0  0  0  0  0  0
    4.7736   -1.8944   -0.6722 C   0  0  0  0  0  0  0  0  0  0  0  0
    5.2327   -2.7506    0.3244 C   0  0  0  0  0  0  0  0  0  0  0  0
    6.0312   -2.2237    1.3250 C   0  0  0  0  0  0  0  0  0  0  0  0
    6.3950   -0.9251    1.3883 N   0  0  0  0  0  0  0  0  0  0  0  0
    5.9344   -0.1179    0.4061 C   0  0  0  0  0  0  0  0  0  0  0  0
    2.0926    0.9571   -0.5136 C   0  0  0  0  0  0  0  0  0  0  0  0
    0.8139    1.3246   -0.0721 C   0  0  0  0  0  0  0  0  0  0  0  0
   -2.8120    2.9819    0.7756 H   0  0  0  0  0  0  0  0  0  0  0  0
   -1.2021    3.5411    0.3101 H   0  0  0  0  0  0  0  0  0  0  0  0
   -1.3965    2.2987    1.5645 H   0  0  0  0  0  0  0  0  0  0  0  0
   -2.2302    1.9681   -1.3703 H   0  0  0  0  0  0  0  0  0  0  0  0
   -1.8605   -0.1466    0.7149 H   0  0  0  0  0  0  0  0  0  0  0  0
   -6.4162    1.8396   -1.0332 H   0  0  0  0  0  0  0  0  0  0  0  0
   -2.9850   -2.0799    1.9172 H   0  0  0  0  0  0  0  0  0  0  0  0
   -5.2900   -3.1608    2.8943 H   0  0  0  0  0  0  0  0  0  0  0  0
   -7.1890   -1.8051    1.9155 H   0  0  0  0  0  0  0  0  0  0  0  0
   -0.9530    0.5556   -2.8710 H   0  0  0  0  0  0  0  0  0  0  0  0
    1.2979   -0.0806   -3.6417 H   0  0  0  0  0  0  0  0  0  0  0  0
    5.4545    0.4513   -2.4687 H   0  0  0  0  0  0  0  0  0  0  0  0
    4.6128    1.4637   -1.3103 H   0  0  0  0  0  0  0  0  0  0  0  0
    4.1474   -2.2861   -1.4708 H   0  0  0  0  0  0  0  0  0  0  0  0
    4.9740   -3.8034    0.3185 H   0  0  0  0  0  0  0  0  0  0  0  0
    6.4134   -2.8515    2.1246 H   0  0  0  0  0  0  0  0  0  0  0  0
    6.2581    0.9167    0.4880 H   0  0  0  0  0  0  0  0  0  0  0  0
    2.9141    1.0497    0.1887 H   0  0  0  0  0  0  0  0  0  0  0  0
    0.7109    1.6891    0.9467 H   0  0  0  0  0  0  0  0  0  0  0  0
  1  2  1  0
  2  3  1  0
  3  4  1  0
  4  5  1  0
  5  6  2  0
  6  7  1  0
  7  8  2  0
  8  9  1  0
  9 10  1  0
 10 11  2  0
 11 12  1  0
  2 13  1  0
 13 14  1  0
 14 15  2  0
 15 16  1  0
 16 17  1  0
 17 18  1  0
 18 19  1  0
 19 20  1  0
 20 21  2  0
 21 22  1  0
 22 23  2  0
 23 24  1  0
 16 25  2  0
 25 26  1  0
  9  4  2  0
 26 13  2  0
 12  8  1  0
 24 19  2  0
  1 27  1  0
  1 28  1  0
  1 29  1  0
  2 30  1  0
  3 31  1  0
  6 32  1  0
 10 33  1  0
 11 34  1  0
 12 35  1  0
 14 36  1  0
 15 37  1  0
 18 38  1  0
 18 39  1  0
 20 40  1  0
 21 41  1  0
 22 42  1  0
 24 43  1  0
 25 44  1  0
 26 45  1  0
M  END
$$$$
OCNT-2315351
     RDKit          3D

 38 41  0  0  0  0  0  0  0  0999 V2000
    3.7351    3.6844   -1.9765 F   0  0  0  0  0  0  0  0  0  0  0  0
    4.2832    2.5133   -1.5842 C   0  0  0  0  0  0  0  0  0  0  0  0
    4.8239    1.9212   -2.6716 F   0  0  0  0  0  0  0  0  0  0  0  0
    5.2591    2.7849   -0.6908 F   0  0  0  0  0  0  0  0  0  0  0  0
    3.2762    1.7004   -1.0149 O   0  0  0  0  0  0  0  0  0  0  0  0
    3.6247    0.5041   -0.4483 C   0  0  0  0  0  0  0  0  0  0  0  0
    4.8983   -0.0738   -0.5690 C   0  0  0  0  0  0  0  0  0  0  0  0
    5.1790   -1.3179    0.0017 C   0  0  0  0  0  0  0  0  0  0  0  0
    4.1921   -2.0059    0.6951 C   0  0  0  0  0  0  0  0  0  0  0  0
    2.9220   -1.4461    0.8225 C   0  0  0  0  0  0  0  0  0  0  0  0
    2.6190   -0.1886    0.2632 C   0  0  0  0  0  0  0  0  0  0  0  0
    1.2641    0.3358    0.4560 C   0  0  0  0  0  0  0  0  0  0  0  0
    0.9245    1.6340    0.3957 N   0  0  0  0  0  0  0  0  0  0  0  0
   -0.4413    1.6372    0.6584 O   0  0  0  0  0  0  0  0  0  0  0  0
   -0.8018    0.3394    0.8719 C   0  0  0  0  0  0  0  0  0  0  0  0
   -2.2706   -0.1005    1.2200 C   0  0  0  0  0  0  0  0  0  0  0  0
   -3.1907   -0.1625    0.0180 C   0  0  0  0  0  0  0  0  0  0  0  0
   -3.9669    0.9436   -0.3727 C   0  0  0  0  0  0  0  0  0  0  0  0
   -4.8077    0.8880   -1.4874 C   0  0  0  0  0  0  0  0  0  0  0  0
   -4.8871   -0.2786   -2.2418 C   0  0  0  0  0  0  0  0  0  0  0  0
   -4.1244   -1.3861   -1.8839 C   0  0  0  0  0  0  0  0  0  0  0  0
   -3.2855   -1.3251   -0.7683 C   0  0  0  0  0  0  0  0  0  0  0  0
   -2.4528   -1.1041    2.3462 C   0  0  0  0  0  0  0  0  0  0  0  0
   -2.8221    0.3297    2.5682 C   0  0  0  0  0  0  0  0  0  0  0  0
    0.2079   -0.4961    0.7751 N   0  0  0  0  0  0  0  0  0  0  0  0
    5.7056    0.4109   -1.1114 H   0  0  0  0  0  0  0  0  0  0  0  0
    6.1714   -1.7508   -0.1029 H   0  0  0  0  0  0  0  0  0  0  0  0
    4.4070   -2.9759    1.1363 H   0  0  0  0  0  0  0  0  0  0  0  0
    2.1603   -1.9988    1.3711 H   0  0  0  0  0  0  0  0  0  0  0  0
   -3.9132    1.8683    0.1988 H   0  0  0  0  0  0  0  0  0  0  0  0
   -5.3962    1.7580   -1.7672 H   0  0  0  0  0  0  0  0  0  0  0  0
   -5.5383   -0.3229   -3.1108 H   0  0  0  0  0  0  0  0  0  0  0  0
   -4.1769   -2.2974   -2.4740 H   0  0  0  0  0  0  0  0  0  0  0  0
   -2.6882   -2.1977   -0.5092 H   0  0  0  0  0  0  0  0  0  0  0  0
   -3.2575   -1.8270    2.2745 H   0  0  0  0  0  0  0  0  0  0  0  0
   -1.5665   -1.4863    2.8409 H   0  0  0  0  0  0  0  0  0  0  0  0
   -3.8766    0.5683    2.6506 H   0  0  0  0  0  0  0  0  0  0  0  0
   -2.1891    0.9206    3.2211 H   0  0  0  0  0  0  0  0  0  0  0  0
  1  2  1  0
  2  3  1  0
  2  4  1  0
  2  5  1  0
  5  6  1  0
  6  7  2  0
  7  8  1  0
  8  9  2  0
  9 10  1  0
 10 11  2  0
 11 12  1  0
 12 13  2  0
 13 14  1  0
 14 15  1  0
 15 16  1  0
 16 17  1  0
 17 18  2  0
 18 19  1  0
 19 20  2  0
 20 21  1  0
 21 22  2  0
 16 23  1  0
 23 24  1  0
 15 25  2  0
 11  6  1  0
 25 12  1  0
 24 16  1  0
 22 17  1  0
  7 26  1  0
  8 27  1  0
  9 28  1  0
 10 29  1  0
 18 30  1  0
 19 31  1  0
 20 32  1  0
 21 33  1  0
 22 34  1  0
 23 35  1  0
 23 36  1  0
 24 37  1  0
 24 38  1  0
M  END
$$$$
OCNT-2315363
     RDKit          3D

  0  0  0  0  0  0  0  0  0  0999 V3000
M  V30 BEGIN CTAB
M  V30 COUNTS 40 42 0 0 0
M  V30 BEGIN ATOM
M  V30 1 C 1.162117 -1.439758 1.023030 0
M  V30 2 O 2.450518 -0.850024 0.907051 0
M  V30 3 C 2.691244 -0.192046 -0.353647 0 CFG=2
M  V30 4 C 4.182329 0.157644 -0.396164 0
M  V30 5 C 4.406993 1.560547 0.146899 0
M  V30 6 O 3.796516 2.554221 -0.674653 0
M  V30 7 C 2.564946 2.168001 -1.286473 0
M  V30 8 C 1.799235 1.068256 -0.530691 0 CFG=1
M  V30 9 N 0.547378 0.734065 -1.219435 0
M  V30 10 C -0.593762 1.497790 -1.066679 0
M  V30 11 O -0.654955 2.481777 -0.335251 0
M  V30 12 C -1.781282 1.018964 -1.883903 0
M  V30 13 C -2.309788 -0.278685 -1.372714 0
M  V30 14 C -2.324014 -1.493398 -2.030929 0
M  V30 15 O -2.890988 -2.456596 -1.261267 0
M  V30 16 C -3.264950 -1.867384 -0.090269 0
M  V30 17 C -3.902884 -2.506319 0.968933 0
M  V30 18 C -4.202764 -1.707642 2.079750 0
M  V30 19 Cl -5.016999 -2.408692 3.429766 0
M  V30 20 C -3.868449 -0.352347 2.119987 0
M  V30 21 C -3.223819 0.258727 1.033818 0
M  V30 22 C -2.922395 -0.520338 -0.101342 0
M  V30 23 H 1.155389 -2.064883 1.924077 0
M  V30 24 H 0.393173 -0.668586 1.140691 0
M  V30 25 H 0.943544 -2.075082 0.157791 0
M  V30 26 H 2.505666 -0.926998 -1.150044 0
M  V30 27 H 4.769522 -0.565659 0.177722 0
M  V30 28 H 4.525318 0.124807 -1.435163 0
M  V30 29 H 5.478168 1.785761 0.184847 0
M  V30 30 H 4.015598 1.662270 1.168814 0
M  V30 31 H 1.950689 3.072899 -1.382883 0
M  V30 32 H 2.790385 1.840716 -2.310826 0
M  V30 33 H 1.535301 1.457019 0.464519 0
M  V30 34 H 0.562465 0.024993 -1.942104 0
M  V30 35 H -2.567344 1.783461 -1.834761 0
M  V30 36 H -1.476238 0.941768 -2.934922 0
M  V30 37 H -1.989823 -1.822931 -3.005731 0
M  V30 38 H -4.155392 -3.557581 0.921784 0
M  V30 39 H -4.111778 0.246019 2.997652 0
M  V30 40 H -2.968869 1.315242 1.074607 0
M  V30 END ATOM
M  V30 BEGIN BOND
M  V30 1 1 1 2
M  V30 2 1 2 3
M  V30 3 1 3 4
M  V30 4 1 4 5
M  V30 5 1 5 6
M  V30 6 1 6 7
M  V30 7 1 7 8
M  V30 8 1 8 9
M  V30 9 1 9 10
M  V30 10 2 10 11
M  V30 11 1 10 12
M  V30 12 1 12 13
M  V30 13 2 13 14
M  V30 14 1 14 15
M  V30 15 1 15 16
M  V30 16 2 16 17
M  V30 17 1 17 18
M  V30 18 1 18 19
M  V30 19 2 18 20
M  V30 20 1 20 21
M  V30 21 2 21 22
M  V30 22 1 8 3
M  V30 23 1 22 13
M  V30 24 1 22 16
M  V30 25 1 1 23
M  V30 26 1 1 24
M  V30 27 1 1 25
M  V30 28 1 3 26 CFG=3
M  V30 29 1 4 27
M  V30 30 1 4 28
M  V30 31 1 5 29
M  V30 32 1 5 30
M  V30 33 1 7 31
M  V30 34 1 7 32
M  V30 35 1 8 33 CFG=1
M  V30 36 1 9 34
M  V30 37 1 12 35
M  V30 38 1 12 36
M  V30 39 1 14 37
M  V30 40 1 17 38
M  V30 41 1 20 39
M  V30 42 1 21 40
M  V30 END BOND
M  V30 BEGIN COLLECTION
M  V30 MDLV30/STERAC1 ATOMS=(2 3 8)
M  V30 END COLLECTION
M  V30 END CTAB
M  END
>  <_CXSMILES_Data>  (989) 
|&1:2,7|

$$$$
OCNT-2315367
     RDKit          3D

 40 42  0  0  0  0  0  0  0  0999 V2000
   -4.6318   -0.4841   -0.9478 C   0  0  0  0  0  0  0  0  0  0  0  0
   -3.8554   -0.6087    0.2902 N   0  0  0  0  0  0  0  0  0  0  0  0
   -4.7082   -0.7470    1.4764 C   0  0  0  0  0  0  0  0  0  0  0  0
   -3.0260    0.5310    0.4687 C   0  0  0  0  0  0  0  0  0  0  0  0
   -3.5296    1.7562    0.1815 N   0  0  0  0  0  0  0  0  0  0  0  0
   -2.7283    2.8303    0.3507 C   0  0  0  0  0  0  0  0  0  0  0  0
   -1.4253    2.7574    0.7995 C   0  0  0  0  0  0  0  0  0  0  0  0
   -0.9135    1.5027    1.0954 C   0  0  0  0  0  0  0  0  0  0  0  0
   -1.7162    0.3618    0.9426 C   0  0  0  0  0  0  0  0  0  0  0  0
   -1.1302   -0.9973    1.2305 C   0  0  0  0  0  0  0  0  0  0  0  0
   -0.6627   -1.6350    0.0113 N   0  0  0  0  0  0  0  0  0  0  0  0
    0.5748   -1.4035   -0.4673 C   0  0  0  0  0  0  0  0  0  0  0  0
    1.5869   -0.8573    0.2021 N   0  0  0  0  0  0  0  0  0  0  0  0
    2.6196   -0.8248   -0.6740 N   0  0  0  0  0  0  0  0  0  0  0  0
    3.9046   -0.2960   -0.3544 C   0  0  0  0  0  0  0  0  0  0  0  0
    4.8681   -0.3457   -1.3282 N   0  0  0  0  0  0  0  0  0  0  0  0
    6.0871    0.1523   -1.0242 C   0  0  0  0  0  0  0  0  0  0  0  0
    6.4068    0.7054    0.2041 C   0  0  0  0  0  0  0  0  0  0  0  0
    5.4177    0.7529    1.1808 C   0  0  0  0  0  0  0  0  0  0  0  0
    4.1499    0.2483    0.9034 C   0  0  0  0  0  0  0  0  0  0  0  0
    3.2248    0.3238    1.8697 F   0  0  0  0  0  0  0  0  0  0  0  0
    2.2579   -1.3640   -1.8922 C   0  0  0  0  0  0  0  0  0  0  0  0
    0.9429   -1.7417   -1.7833 C   0  0  0  0  0  0  0  0  0  0  0  0
   -5.3756    0.3206   -0.9032 H   0  0  0  0  0  0  0  0  0  0  0  0
   -3.9738   -0.3189   -1.8092 H   0  0  0  0  0  0  0  0  0  0  0  0
   -5.1691   -1.4211   -1.1329 H   0  0  0  0  0  0  0  0  0  0  0  0
   -5.3221   -1.6499    1.3831 H   0  0  0  0  0  0  0  0  0  0  0  0
   -5.3835    0.1082    1.6027 H   0  0  0  0  0  0  0  0  0  0  0  0
   -4.1108   -0.8604    2.3884 H   0  0  0  0  0  0  0  0  0  0  0  0
   -3.1804    3.7856    0.1013 H   0  0  0  0  0  0  0  0  0  0  0  0
   -0.8201    3.6495    0.9075 H   0  0  0  0  0  0  0  0  0  0  0  0
    0.1178    1.4022    1.4290 H   0  0  0  0  0  0  0  0  0  0  0  0
   -1.8847   -1.6415    1.6961 H   0  0  0  0  0  0  0  0  0  0  0  0
   -0.3344   -0.9220    1.9833 H   0  0  0  0  0  0  0  0  0  0  0  0
   -1.4244   -1.8084   -0.6376 H   0  0  0  0  0  0  0  0  0  0  0  0
    6.8245    0.0928   -1.8205 H   0  0  0  0  0  0  0  0  0  0  0  0
    7.4020    1.0914    0.3966 H   0  0  0  0  0  0  0  0  0  0  0  0
    5.6207    1.1793    2.1582 H   0  0  0  0  0  0  0  0  0  0  0  0
    2.9646   -1.4231   -2.7077 H   0  0  0  0  0  0  0  0  0  0  0  0
    0.3351   -2.2014   -2.5483 H   0  0  0  0  0  0  0  0  0  0  0  0
  1  2  1  0
  2  3  1  0
  2  4  1  0
  4  5  1  0
  5  6  2  0
  6  7  1  0
  7  8  2  0
  8  9  1  0
  9 10  1  0
 10 11  1  0
 11 12  1  0
 12 13  2  0
 13 14  1  0
 14 15  1  0
 15 16  1  0
 16 17  2  0
 17 18  1  0
 18 19  2  0
 19 20  1  0
 20 21  1  0
 14 22  1  0
 22 23  2  0
  9  4  2  0
 23 12  1  0
 20 15  2  0
  1 24  1  0
  1 25  1  0
  1 26  1  0
  3 27  1  0
  3 28  1  0
  3 29  1  0
  6 30  1  0
  7 31  1  0
  8 32  1  0
 10 33  1  0
 10 34  1  0
 11 35  1  0
 17 36  1  0
 18 37  1  0
 19 38  1  0
 22 39  1  0
 23 40  1  0
M  END
$$$$
OCNT-2315387
     RDKit          3D

 47 49  0  0  0  0  0  0  0  0999 V2000
    8.3040    1.2315   -0.6436 C   0  0  0  0  0  0  0  0  0  0  0  0
    7.2893    0.4227   -0.0203 N   0  0  0  0  0  0  0  0  0  0  0  0
    6.7482    0.7752    1.2008 C   0  0  0  0  0  0  0  0  0  0  0  0
    7.1879    1.6923    1.8920 O   0  0  0  0  0  0  0  0  0  0  0  0
    5.6085   -0.1013    1.6697 C   0  0  0  0  0  0  0  0  0  0  0  0
    4.5082   -0.1011    0.7258 N   0  0  0  0  0  0  0  0  0  0  0  0
    3.3068    0.5334    0.8654 C   0  0  0  0  0  0  0  0  0  0  0  0
    2.5857    0.2285   -0.2597 C   0  0  0  0  0  0  0  0  0  0  0  0
    1.3338    0.6712   -0.4979 N   0  0  0  0  0  0  0  0  0  0  0  0
    0.4604    0.1086   -1.5126 C   0  0  0  0  0  0  0  0  0  0  0  0
   -0.6395   -0.6914   -0.8570 C   0  0  0  0  0  0  0  0  0  0  0  0
   -0.3729   -1.9577   -0.3208 C   0  0  0  0  0  0  0  0  0  0  0  0
   -1.3869   -2.6930    0.2894 C   0  0  0  0  0  0  0  0  0  0  0  0
   -2.6780   -2.1681    0.3732 C   0  0  0  0  0  0  0  0  0  0  0  0
   -2.9783   -0.8988   -0.1458 C   0  0  0  0  0  0  0  0  0  0  0  0
   -4.3393   -0.3453   -0.0536 C   0  0  0  0  0  0  0  0  0  0  0  0
   -5.4439   -1.0553   -0.5494 C   0  0  0  0  0  0  0  0  0  0  0  0
   -6.7376   -0.5300   -0.4661 C   0  0  0  0  0  0  0  0  0  0  0  0
   -6.9597    0.7159    0.1277 C   0  0  0  0  0  0  0  0  0  0  0  0
   -8.3411    1.2966    0.1884 C   0  0  0  0  0  0  0  0  0  0  0  0
   -5.8656    1.4379    0.6137 C   0  0  0  0  0  0  0  0  0  0  0  0
   -4.5729    0.9108    0.5276 C   0  0  0  0  0  0  0  0  0  0  0  0
   -1.9413   -0.1715   -0.7567 C   0  0  0  0  0  0  0  0  0  0  0  0
    3.4407   -0.5868   -1.0293 C   0  0  0  0  0  0  0  0  0  0  0  0
    4.6195   -0.7968   -0.4310 N   0  0  0  0  0  0  0  0  0  0  0  0
    9.0690    1.5062    0.0875 H   0  0  0  0  0  0  0  0  0  0  0  0
    8.7536    0.6591   -1.4584 H   0  0  0  0  0  0  0  0  0  0  0  0
    7.8374    2.1377   -1.0396 H   0  0  0  0  0  0  0  0  0  0  0  0
    6.6941   -0.1493   -0.6228 H   0  0  0  0  0  0  0  0  0  0  0  0
    5.2349    0.2640    2.6318 H   0  0  0  0  0  0  0  0  0  0  0  0
    5.9540   -1.1325    1.7953 H   0  0  0  0  0  0  0  0  0  0  0  0
    3.0756    1.1328    1.7344 H   0  0  0  0  0  0  0  0  0  0  0  0
    0.8284    1.1565    0.2397 H   0  0  0  0  0  0  0  0  0  0  0  0
    0.9884   -0.5203   -2.2388 H   0  0  0  0  0  0  0  0  0  0  0  0
    0.0270    0.9330   -2.0914 H   0  0  0  0  0  0  0  0  0  0  0  0
    0.6322   -2.3720   -0.3702 H   0  0  0  0  0  0  0  0  0  0  0  0
   -1.1715   -3.6734    0.7064 H   0  0  0  0  0  0  0  0  0  0  0  0
   -3.4528   -2.7539    0.8642 H   0  0  0  0  0  0  0  0  0  0  0  0
   -5.3014   -2.0255   -1.0215 H   0  0  0  0  0  0  0  0  0  0  0  0
   -7.5691   -1.1026   -0.8706 H   0  0  0  0  0  0  0  0  0  0  0  0
   -8.4652    1.9129    1.0854 H   0  0  0  0  0  0  0  0  0  0  0  0
   -8.5262    1.9149   -0.6955 H   0  0  0  0  0  0  0  0  0  0  0  0
   -9.0971    0.5055    0.2308 H   0  0  0  0  0  0  0  0  0  0  0  0
   -6.0104    2.4160    1.0672 H   0  0  0  0  0  0  0  0  0  0  0  0
   -3.7435    1.4886    0.9303 H   0  0  0  0  0  0  0  0  0  0  0  0
   -2.1569    0.8119   -1.1724 H   0  0  0  0  0  0  0  0  0  0  0  0
    3.2631   -1.0370   -1.9962 H   0  0  0  0  0  0  0  0  0  0  0  0
  1  2  1  0
  2  3  1  0
  3  4  2  0
  3  5  1  0
  5  6  1  0
  6  7  1  0
  7  8  2  0
  8  9  1  0
  9 10  1  0
 10 11  1  0
 11 12  2  0
 12 13  1  0
 13 14  2  0
 14 15  1  0
 15 16  1  0
 16 17  1  0
 17 18  2  0
 18 19  1  0
 19 20  1  0
 19 21  2  0
 21 22  1  0
 15 23  2  0
  8 24  1  0
 24 25  2  0
 25  6  1  0
 23 11  1  0
 22 16  2  0
  1 26  1  0
  1 27  1  0
  1 28  1  0
  2 29  1  0
  5 30  1  0
  5 31  1  0
  7 32  1  0
  9 33  1  0
 10 34  1  0
 10 35  1  0
 12 36  1  0
 13 37  1  0
 14 38  1  0
 17 39  1  0
 18 40  1  0
 20 41  1  0
 20 42  1  0
 20 43  1  0
 21 44  1  0
 22 45  1  0
 23 46  1  0
 24 47  1  0
M  END
$$$$
OCNT-2315389
     RDKit          3D

 42 44  0  0  0  0  0  0  0  0999 V2000
    0.6828   -1.8541   -0.9128 O   0  0  0  0  0  0  0  0  0  0  0  0
    0.7422   -0.5268   -1.4831 S   0  0  0  0  0  0  0  0  0  0  0  0
    1.6977   -0.1910   -2.5170 O   0  0  0  0  0  0  0  0  0  0  0  0
    0.9009    0.6753   -0.1650 C   0  0  0  0  0  0  0  0  0  0  0  0
    2.0574    0.4099    0.7988 C   0  0  0  0  0  0  0  0  0  0  0  0
    3.4484    0.7965    0.2813 C   0  0  0  0  0  0  0  0  0  0  0  0
    4.1311   -0.2571   -0.6067 C   0  0  0  0  0  0  0  0  0  0  0  0
    5.5764   -0.3732   -0.1203 C   0  0  0  0  0  0  0  0  0  0  0  0
    5.7930    0.8298    0.7800 C   0  0  0  0  0  0  0  0  0  0  0  0
    4.4362    1.0061    1.4366 C   0  0  0  0  0  0  0  0  0  0  0  0
   -0.7563   -0.1325   -2.1470 N   0  0  0  0  0  0  0  0  0  0  0  0
   -1.9463   -0.2425   -1.3762 C   0  0  0  0  0  0  0  0  0  0  0  0
   -2.7413    0.8910   -1.2083 C   0  0  0  0  0  0  0  0  0  0  0  0
   -3.9145    0.8195   -0.4511 C   0  0  0  0  0  0  0  0  0  0  0  0
   -4.3057   -0.3935    0.1365 C   0  0  0  0  0  0  0  0  0  0  0  0
   -5.4997   -0.4439    0.9019 N   0  0  0  0  0  0  0  0  0  0  0  0
   -6.0683   -1.5124    1.5530 C   0  0  0  0  0  0  0  0  0  0  0  0
   -7.1775   -1.1488    2.1561 N   0  0  0  0  0  0  0  0  0  0  0  0
   -7.2628    0.1740    1.8490 C   0  0  0  0  0  0  0  0  0  0  0  0
   -6.2742    0.6541    1.0942 N   0  0  0  0  0  0  0  0  0  0  0  0
   -3.5126   -1.5332   -0.0473 C   0  0  0  0  0  0  0  0  0  0  0  0
   -2.3386   -1.4526   -0.8057 C   0  0  0  0  0  0  0  0  0  0  0  0
    0.9738    1.6677   -0.6200 H   0  0  0  0  0  0  0  0  0  0  0  0
   -0.0266    0.6239    0.4142 H   0  0  0  0  0  0  0  0  0  0  0  0
    1.8565    1.0139    1.6941 H   0  0  0  0  0  0  0  0  0  0  0  0
    2.0507   -0.6356    1.1292 H   0  0  0  0  0  0  0  0  0  0  0  0
    3.3787    1.7377   -0.2804 H   0  0  0  0  0  0  0  0  0  0  0  0
    4.1217    0.0723   -1.6512 H   0  0  0  0  0  0  0  0  0  0  0  0
    3.6409   -1.2350   -0.5625 H   0  0  0  0  0  0  0  0  0  0  0  0
    6.2910   -0.4050   -0.9483 H   0  0  0  0  0  0  0  0  0  0  0  0
    5.6955   -1.2978    0.4573 H   0  0  0  0  0  0  0  0  0  0  0  0
    6.5923    0.6664    1.5082 H   0  0  0  0  0  0  0  0  0  0  0  0
    6.0461    1.7131    0.1819 H   0  0  0  0  0  0  0  0  0  0  0  0
    4.2945    0.2490    2.2179 H   0  0  0  0  0  0  0  0  0  0  0  0
    4.3276    1.9936    1.8958 H   0  0  0  0  0  0  0  0  0  0  0  0
   -0.6946    0.6306   -2.8205 H   0  0  0  0  0  0  0  0  0  0  0  0
   -2.4618    1.8410   -1.6558 H   0  0  0  0  0  0  0  0  0  0  0  0
   -4.5162    1.7197   -0.3310 H   0  0  0  0  0  0  0  0  0  0  0  0
   -5.6491   -2.5070    1.5583 H   0  0  0  0  0  0  0  0  0  0  0  0
   -8.0718    0.8098    2.1865 H   0  0  0  0  0  0  0  0  0  0  0  0
   -3.7713   -2.5000    0.3747 H   0  0  0  0  0  0  0  0  0  0  0  0
   -1.7464   -2.3529   -0.9567 H   0  0  0  0  0  0  0  0  0  0  0  0
  1  2  2  0
  2  3  2  0
  2  4  1  0
  4  5  1  0
  5  6  1  0
  6  7  1  0
  7  8  1  0
  8  9  1  0
  9 10  1  0
  2 11  1  0
 11 12  1  0
 12 13  1  0
 13 14  2  0
 14 15  1  0
 15 16  1  0
 16 17  1  0
 17 18  2  0
 18 19  1  0
 19 20  2  0
 15 21  2  0
 21 22  1  0
 10  6  1  0
 22 12  2  0
 20 16  1  0
  4 23  1  0
  4 24  1  0
  5 25  1  0
  5 26  1  0
  6 27  1  0
  7 28  1  0
  7 29  1  0
  8 30  1  0
  8 31  1  0
  9 32  1  0
  9 33  1  0
 10 34  1  0
 10 35  1  0
 11 36  1  0
 13 37  1  0
 14 38  1  0
 17 39  1  0
 19 40  1  0
 21 41  1  0
 22 42  1  0
M  END
$$$$
OCNT-2315394
     RDKit          3D

 43 46  0  0  0  0  0  0  0  0999 V2000
   -2.0540   -0.6701    1.3916 O   0  0  0  0  0  0  0  0  0  0  0  0
   -1.3888   -0.5823    0.3539 C   0  0  0  0  0  0  0  0  0  0  0  0
   -1.8875    0.2558   -0.8500 C   0  0  0  0  0  0  0  0  0  0  0  0
   -1.3228    1.9985   -0.6184 S   0  0  0  0  0  0  0  0  0  0  0  0
   -2.6110    2.5415    0.5581 C   0  0  0  0  0  0  0  0  0  0  0  0
   -4.0071    2.4742   -0.0593 C   0  0  0  0  0  0  0  0  0  0  0  0
   -4.3048    1.1295   -0.6542 C   0  0  0  0  0  0  0  0  0  0  0  0
   -3.3887    0.1553   -1.0206 C   0  0  0  0  0  0  0  0  0  0  0  0
   -4.0606   -0.9824   -1.5854 C   0  0  0  0  0  0  0  0  0  0  0  0
   -5.4279   -0.8279   -1.6217 C   0  0  0  0  0  0  0  0  0  0  0  0
   -5.9176    0.6788   -0.9887 S   0  0  0  0  0  0  0  0  0  0  0  0
   -0.1440   -1.2118    0.2459 N   0  0  0  0  0  0  0  0  0  0  0  0
    0.6917   -1.1791   -0.9538 C   0  0  0  0  0  0  0  0  0  0  0  0
    2.0514   -1.8474   -0.7601 C   0  0  0  0  0  0  0  0  0  0  0  0
    2.7242   -1.4500    0.5657 C   0  0  0  0  0  0  0  0  0  0  0  0
    3.4126   -0.0983    0.4452 C   0  0  0  0  0  0  0  0  0  0  0  0
    4.7846   -0.0423    0.1712 C   0  0  0  0  0  0  0  0  0  0  0  0
    5.3960    1.1961    0.0383 C   0  0  0  0  0  0  0  0  0  0  0  0
    4.7447    2.3715    0.1506 N   0  0  0  0  0  0  0  0  0  0  0  0
    3.4224    2.3035    0.4090 C   0  0  0  0  0  0  0  0  0  0  0  0
    2.7239    1.1143    0.5609 C   0  0  0  0  0  0  0  0  0  0  0  0
    1.7594   -1.5579    1.7683 C   0  0  0  0  0  0  0  0  0  0  0  0
    0.3540   -2.0006    1.3685 C   0  0  0  0  0  0  0  0  0  0  0  0
   -1.4367   -0.1020   -1.7792 H   0  0  0  0  0  0  0  0  0  0  0  0
   -2.3903    3.5729    0.8521 H   0  0  0  0  0  0  0  0  0  0  0  0
   -2.5499    1.9308    1.4646 H   0  0  0  0  0  0  0  0  0  0  0  0
   -4.7431    2.7187    0.7164 H   0  0  0  0  0  0  0  0  0  0  0  0
   -4.1019    3.2378   -0.8422 H   0  0  0  0  0  0  0  0  0  0  0  0
   -3.5630   -1.8770   -1.9406 H   0  0  0  0  0  0  0  0  0  0  0  0
   -6.1648   -1.5289   -1.9889 H   0  0  0  0  0  0  0  0  0  0  0  0
    0.8234   -0.1377   -1.2613 H   0  0  0  0  0  0  0  0  0  0  0  0
    0.1475   -1.6897   -1.7564 H   0  0  0  0  0  0  0  0  0  0  0  0
    1.9045   -2.9361   -0.7578 H   0  0  0  0  0  0  0  0  0  0  0  0
    2.6972   -1.6313   -1.6199 H   0  0  0  0  0  0  0  0  0  0  0  0
    3.5181   -2.1888    0.7475 H   0  0  0  0  0  0  0  0  0  0  0  0
    5.3776   -0.9444    0.0601 H   0  0  0  0  0  0  0  0  0  0  0  0
    6.4590    1.2749   -0.1710 H   0  0  0  0  0  0  0  0  0  0  0  0
    2.9162    3.2612    0.4929 H   0  0  0  0  0  0  0  0  0  0  0  0
    1.6589    1.1526    0.7647 H   0  0  0  0  0  0  0  0  0  0  0  0
    2.1600   -2.2857    2.4856 H   0  0  0  0  0  0  0  0  0  0  0  0
    1.6932   -0.6144    2.3224 H   0  0  0  0  0  0  0  0  0  0  0  0
   -0.3074   -1.9292    2.2376 H   0  0  0  0  0  0  0  0  0  0  0  0
    0.3516   -3.0526    1.0586 H   0  0  0  0  0  0  0  0  0  0  0  0
  1  2  2  0
  2  3  1  0
  3  4  1  0
  4  5  1  0
  5  6  1  0
  6  7  1  0
  7  8  2  0
  8  9  1  0
  9 10  2  0
 10 11  1  0
  2 12  1  0
 12 13  1  0
 13 14  1  0
 14 15  1  0
 15 16  1  0
 16 17  2  0
 17 18  1  0
 18 19  2  0
 19 20  1  0
 20 21  2  0
 15 22  1  0
 22 23  1  0
  8  3  1  0
 23 12  1  0
 11  7  1  0
 21 16  1  0
  3 24  1  0
  5 25  1  0
  5 26  1  0
  6 27  1  0
  6 28  1  0
  9 29  1  0
 10 30  1  0
 13 31  1  0
 13 32  1  0
 14 33  1  0
 14 34  1  0
 15 35  1  0
 17 36  1  0
 18 37  1  0
 20 38  1  0
 21 39  1  0
 22 40  1  0
 22 41  1  0
 23 42  1  0
 23 43  1  0
M  END
$$$$
OCNT-2315412
     RDKit          3D

  0  0  0  0  0  0  0  0  0  0999 V3000
M  V30 BEGIN CTAB
M  V30 COUNTS 42 45 0 0 0
M  V30 BEGIN ATOM
M  V30 1 C 8.141588 -0.293452 0.554963 0
M  V30 2 C 6.633216 -0.178123 0.685341 0
M  V30 3 O 6.063218 -0.391498 -0.607164 0
M  V30 4 C 4.687795 -0.309134 -0.615395 0
M  V30 5 C 4.041422 -0.500722 -1.828626 0
M  V30 6 N 2.692243 -0.444014 -1.962123 0
M  V30 7 C 1.997332 -0.183383 -0.821607 0
M  V30 8 C 0.540808 -0.107327 -0.891182 0
M  V30 9 N -0.173703 -0.264981 -2.018101 0
M  V30 10 O -1.491559 -0.102503 -1.608252 0
M  V30 11 C -1.461525 0.116772 -0.262203 0
M  V30 12 C -2.772614 0.328493 0.431913 0 CFG=2
M  V30 13 C -2.631530 0.039024 1.938835 0
M  V30 14 N -3.895433 -0.596873 2.344320 0
M  V30 15 C -4.206211 -1.484674 1.220909 0
M  V30 16 C -3.861784 -0.675125 -0.030456 0 CFG=1
M  V30 17 C -5.096385 0.045764 -0.587713 0
M  V30 18 C -4.692884 1.116822 -1.591342 0
M  V30 19 O -3.681511 2.008819 -1.126586 0
M  V30 20 C -3.231627 1.781053 0.208395 0
M  V30 21 N -0.240696 0.136155 0.226562 0
M  V30 22 C 2.656806 0.006387 0.390187 0
M  V30 23 N 4.009388 -0.051087 0.524307 0
M  V30 24 H 8.524437 0.444667 -0.157657 0
M  V30 25 H 8.629480 -0.137684 1.521215 0
M  V30 26 H 8.421161 -1.280770 0.172534 0
M  V30 27 H 6.276428 -0.937810 1.391276 0
M  V30 28 H 6.382081 0.823807 1.053928 0
M  V30 29 H 4.599088 -0.707033 -2.735182 0
M  V30 30 H -1.816172 -0.662513 2.156906 0
M  V30 31 H -2.444617 0.941273 2.531726 0
M  V30 32 H -4.626349 0.110405 2.430623 0
M  V30 33 H -5.249412 -1.815092 1.248238 0
M  V30 34 H -3.574246 -2.379022 1.282826 0
M  V30 35 H -3.492427 -1.363948 -0.800693 0
M  V30 36 H -5.775496 -0.674084 -1.059118 0
M  V30 37 H -5.660620 0.514444 0.228752 0
M  V30 38 H -4.315793 0.649816 -2.507826 0
M  V30 39 H -5.565075 1.715663 -1.873544 0
M  V30 40 H -2.411319 2.483914 0.398573 0
M  V30 41 H -4.040999 2.063707 0.893533 0
M  V30 42 H 2.113497 0.213868 1.307053 0
M  V30 END ATOM
M  V30 BEGIN BOND
M  V30 1 1 1 2
M  V30 2 1 2 3
M  V30 3 1 3 4
M  V30 4 2 4 5
M  V30 5 1 5 6
M  V30 6 2 6 7
M  V30 7 1 7 8
M  V30 8 2 8 9
M  V30 9 1 9 10
M  V30 10 1 10 11
M  V30 11 1 12 11 CFG=3
M  V30 12 1 12 13
M  V30 13 1 13 14
M  V30 14 1 14 15
M  V30 15 1 15 16
M  V30 16 1 16 17
M  V30 17 1 17 18
M  V30 18 1 18 19
M  V30 19 1 19 20
M  V30 20 2 11 21
M  V30 21 1 7 22
M  V30 22 2 22 23
M  V30 23 1 23 4
M  V30 24 1 21 8
M  V30 25 1 16 12
M  V30 26 1 20 12
M  V30 27 1 1 24
M  V30 28 1 1 25
M  V30 29 1 1 26
M  V30 30 1 2 27
M  V30 31 1 2 28
M  V30 32 1 5 29
M  V30 33 1 13 30
M  V30 34 1 13 31
M  V30 35 1 14 32
M  V30 36 1 15 33
M  V30 37 1 15 34
M  V30 38 1 16 35 CFG=3
M  V30 39 1 17 36
M  V30 40 1 17 37
M  V30 41 1 18 38
M  V30 42 1 18 39
M  V30 43 1 20 40
M  V30 44 1 20 41
M  V30 45 1 22 42
M  V30 END BOND
M  V30 BEGIN COLLECTION
M  V30 MDLV30/STERAC1 ATOMS=(2 12 16)
M  V30 END COLLECTION
M  V30 END CTAB
M  END
>  <_CXSMILES_Data>  (994) 
|&1:11,15|

$$$$
OCNT-2315445
     RDKit          3D

 34 37  0  0  0  0  0  0  0  0999 V2000
   -0.8341    2.3970   -1.3441 O   0  0  0  0  0  0  0  0  0  0  0  0
   -0.2905    1.4868   -0.7189 C   0  0  0  0  0  0  0  0  0  0  0  0
    1.1771    1.4436   -0.6780 C   0  0  0  0  0  0  0  0  0  0  0  0
    2.0040    2.4529   -1.1216 C   0  0  0  0  0  0  0  0  0  0  0  0
    3.2951    2.0581   -0.9679 O   0  0  0  0  0  0  0  0  0  0  0  0
    3.2024    0.7980   -0.4442 C   0  0  0  0  0  0  0  0  0  0  0  0
    4.4582   -0.0603   -0.1027 C   0  0  0  0  0  0  0  0  0  0  0  0
    4.3418   -1.5610   -0.0315 C   0  0  0  0  0  0  0  0  0  0  0  0
    4.5274   -0.7638    1.2282 C   0  0  0  0  0  0  0  0  0  0  0  0
    1.9642    0.3849   -0.2545 N   0  0  0  0  0  0  0  0  0  0  0  0
   -1.0049    0.4858   -0.0328 N   0  0  0  0  0  0  0  0  0  0  0  0
   -0.3998   -0.2673    1.0721 C   0  0  0  0  0  0  0  0  0  0  0  0
   -1.4333   -0.6061    2.1289 C   0  0  0  0  0  0  0  0  0  0  0  0
   -2.4723   -1.4055    1.5755 O   0  0  0  0  0  0  0  0  0  0  0  0
   -3.0396   -0.8310    0.4594 C   0  0  0  0  0  0  0  0  0  0  0  0
   -4.3382   -1.2576    0.1293 C   0  0  0  0  0  0  0  0  0  0  0  0
   -5.1780   -2.4206    1.0956 Cl  0  0  0  0  0  0  0  0  0  0  0  0
   -4.9917   -0.7438   -0.9861 C   0  0  0  0  0  0  0  0  0  0  0  0
   -4.3370    0.1874   -1.7806 C   0  0  0  0  0  0  0  0  0  0  0  0
   -5.2095    0.8792   -3.3109 Br  0  0  0  0  0  0  0  0  0  0  0  0
   -3.0389    0.6093   -1.4745 C   0  0  0  0  0  0  0  0  0  0  0  0
   -2.3637    0.1151   -0.3474 C   0  0  0  0  0  0  0  0  0  0  0  0
    1.8410    3.4332   -1.5459 H   0  0  0  0  0  0  0  0  0  0  0  0
    5.3827    0.3451   -0.4985 H   0  0  0  0  0  0  0  0  0  0  0  0
    5.1775   -2.1500   -0.3906 H   0  0  0  0  0  0  0  0  0  0  0  0
    3.3726   -2.0145   -0.2078 H   0  0  0  0  0  0  0  0  0  0  0  0
    3.6824   -0.6813    1.9025 H   0  0  0  0  0  0  0  0  0  0  0  0
    5.4893   -0.8124    1.7247 H   0  0  0  0  0  0  0  0  0  0  0  0
    0.3851    0.3242    1.5522 H   0  0  0  0  0  0  0  0  0  0  0  0
    0.0336   -1.1801    0.6466 H   0  0  0  0  0  0  0  0  0  0  0  0
   -1.8680    0.2966    2.5775 H   0  0  0  0  0  0  0  0  0  0  0  0
   -0.9664   -1.1811    2.9353 H   0  0  0  0  0  0  0  0  0  0  0  0
   -5.9974   -1.0727   -1.2322 H   0  0  0  0  0  0  0  0  0  0  0  0
   -2.5710    1.3119   -2.1564 H   0  0  0  0  0  0  0  0  0  0  0  0
  1  2  2  0
  2  3  1  0
  3  4  2  0
  4  5  1  0
  5  6  1  0
  6  7  1  0
  7  8  1  0
  8  9  1  0
  6 10  2  0
  2 11  1  0
 11 12  1  0
 12 13  1  0
 13 14  1  0
 14 15  1  0
 15 16  1  0
 16 17  1  0
 16 18  2  0
 18 19  1  0
 19 20  1  0
 19 21  2  0
 21 22  1  0
 10  3  1  0
 22 11  1  0
  9  7  1  0
 22 15  2  0
  4 23  1  0
  7 24  1  0
  8 25  1  0
  8 26  1  0
  9 27  1  0
  9 28  1  0
 12 29  1  0
 12 30  1  0
 13 31  1  0
 13 32  1  0
 18 33  1  0
 21 34  1  0
M  END
$$$$
OCNT-2315448
     RDKit          3D

 45 47  0  0  0  0  0  0  0  0999 V2000
    5.8986   -3.2446    0.9056 C   0  0  0  0  0  0  0  0  0  0  0  0
    5.5679   -1.7915    0.7701 C   0  0  0  0  0  0  0  0  0  0  0  0
    6.5876   -0.9233    0.6653 N   0  0  0  0  0  0  0  0  0  0  0  0
    6.2528    0.3742    0.5662 C   0  0  0  0  0  0  0  0  0  0  0  0
    4.9558    0.8294    0.5755 C   0  0  0  0  0  0  0  0  0  0  0  0
    3.9825   -0.1349    0.6951 C   0  0  0  0  0  0  0  0  0  0  0  0
    2.6105    0.1312    0.7210 N   0  0  0  0  0  0  0  0  0  0  0  0
    1.9786    1.3530    0.6553 C   0  0  0  0  0  0  0  0  0  0  0  0
    2.5366    2.4408    0.5540 O   0  0  0  0  0  0  0  0  0  0  0  0
    0.4591    1.2312    0.6884 C   0  0  0  0  0  0  0  0  0  0  0  0
   -0.2138    2.5709    1.0128 C   0  0  0  0  0  0  0  0  0  0  0  0
   -1.7348    2.4456    0.9622 C   0  0  0  0  0  0  0  0  0  0  0  0
   -2.2163    1.8455   -0.3559 C   0  0  0  0  0  0  0  0  0  0  0  0
   -1.5115    0.5793   -0.6843 N   0  0  0  0  0  0  0  0  0  0  0  0
   -2.1149   -0.8700   -0.0206 S   0  0  0  0  0  0  0  0  0  0  0  0
   -2.2613   -0.6740    1.4058 O   0  0  0  0  0  0  0  0  0  0  0  0
   -1.3190   -1.9627   -0.5382 O   0  0  0  0  0  0  0  0  0  0  0  0
   -3.7267   -0.9977   -0.7483 C   0  0  0  0  0  0  0  0  0  0  0  0
   -4.8677   -0.9361    0.0557 C   0  0  0  0  0  0  0  0  0  0  0  0
   -6.1267   -1.0390   -0.5363 C   0  0  0  0  0  0  0  0  0  0  0  0
   -6.2386   -1.2077   -1.9184 C   0  0  0  0  0  0  0  0  0  0  0  0
   -5.0939   -1.2784   -2.7149 C   0  0  0  0  0  0  0  0  0  0  0  0
   -3.8318   -1.1754   -2.1313 C   0  0  0  0  0  0  0  0  0  0  0  0
   -0.0313    0.7300   -0.6690 C   0  0  0  0  0  0  0  0  0  0  0  0
    4.2678   -1.4448    0.7966 N   0  0  0  0  0  0  0  0  0  0  0  0
    5.2143   -3.8467    0.3005 H   0  0  0  0  0  0  0  0  0  0  0  0
    6.9203   -3.4455    0.5697 H   0  0  0  0  0  0  0  0  0  0  0  0
    5.8069   -3.5487    1.9523 H   0  0  0  0  0  0  0  0  0  0  0  0
    7.0862    1.0643    0.4764 H   0  0  0  0  0  0  0  0  0  0  0  0
    4.7521    1.8864    0.4935 H   0  0  0  0  0  0  0  0  0  0  0  0
    2.0641   -0.7152    0.8329 H   0  0  0  0  0  0  0  0  0  0  0  0
    0.1985    0.5152    1.4783 H   0  0  0  0  0  0  0  0  0  0  0  0
    0.1060    3.3419    0.2996 H   0  0  0  0  0  0  0  0  0  0  0  0
    0.0964    2.9179    2.0056 H   0  0  0  0  0  0  0  0  0  0  0  0
   -2.1874    3.4348    1.0982 H   0  0  0  0  0  0  0  0  0  0  0  0
   -2.0736    1.8324    1.8043 H   0  0  0  0  0  0  0  0  0  0  0  0
   -2.0322    2.5528   -1.1743 H   0  0  0  0  0  0  0  0  0  0  0  0
   -3.2996    1.6957   -0.3283 H   0  0  0  0  0  0  0  0  0  0  0  0
   -4.7868   -0.8133    1.1334 H   0  0  0  0  0  0  0  0  0  0  0  0
   -7.0220   -0.9946    0.0792 H   0  0  0  0  0  0  0  0  0  0  0  0
   -7.2220   -1.2921   -2.3754 H   0  0  0  0  0  0  0  0  0  0  0  0
   -5.1874   -1.4192   -3.7890 H   0  0  0  0  0  0  0  0  0  0  0  0
   -2.9384   -1.2388   -2.7494 H   0  0  0  0  0  0  0  0  0  0  0  0
    0.2471    1.4362   -1.4629 H   0  0  0  0  0  0  0  0  0  0  0  0
    0.4478   -0.2144   -0.9495 H   0  0  0  0  0  0  0  0  0  0  0  0
  1  2  1  0
  2  3  2  0
  3  4  1  0
  4  5  2  0
  5  6  1  0
  6  7  1  0
  7  8  1  0
  8  9  2  0
  8 10  1  0
 10 11  1  0
 11 12  1  0
 12 13  1  0
 13 14  1  0
 14 15  1  0
 15 16  2  0
 15 17  2  0
 15 18  1  0
 18 19  2  0
 19 20  1  0
 20 21  2  0
 21 22  1  0
 22 23  2  0
 14 24  1  0
  6 25  2  0
 25  2  1  0
 24 10  1  0
 23 18  1  0
  1 26  1  0
  1 27  1  0
  1 28  1  0
  4 29  1  0
  5 30  1  0
  7 31  1  0
 10 32  1  0
 11 33  1  0
 11 34  1  0
 12 35  1  0
 12 36  1  0
 13 37  1  0
 13 38  1  0
 19 39  1  0
 20 40  1  0
 21 41  1  0
 22 42  1  0
 23 43  1  0
 24 44  1  0
 24 45  1  0
M  END
$$$$
OCNT-2315454
     RDKit          3D

 34 35  0  0  0  0  0  0  0  0999 V2000
    6.4823   -2.1479    1.4434 N   0  0  0  0  0  0  0  0  0  0  0  0
    6.1226   -1.2111    0.5156 C   0  0  0  0  0  0  0  0  0  0  0  0
    6.7054   -1.1552   -0.5550 O   0  0  0  0  0  0  0  0  0  0  0  0
    5.0796   -0.4409    0.9506 N   0  0  0  0  0  0  0  0  0  0  0  0
    4.5218    0.5493    0.1642 C   0  0  0  0  0  0  0  0  0  0  0  0
    5.1532    1.3158   -0.5555 O   0  0  0  0  0  0  0  0  0  0  0  0
    3.0419    0.7302    0.4289 C   0  0  0  0  0  0  0  0  0  0  0  0
    2.3840    1.5379   -0.6842 C   0  0  0  0  0  0  0  0  0  0  0  0
    0.9790    1.8226   -0.4240 N   0  0  0  0  0  0  0  0  0  0  0  0
    0.0353    0.8085   -0.4659 C   0  0  0  0  0  0  0  0  0  0  0  0
    0.3511   -0.3639   -0.6129 O   0  0  0  0  0  0  0  0  0  0  0  0
   -1.2254    1.3168   -0.2915 N   0  0  0  0  0  0  0  0  0  0  0  0
   -2.4089    0.6253   -0.3178 C   0  0  0  0  0  0  0  0  0  0  0  0
   -3.5318    1.2096    0.0253 N   0  0  0  0  0  0  0  0  0  0  0  0
   -4.5803    0.3128   -0.1041 C   0  0  0  0  0  0  0  0  0  0  0  0
   -5.9356    0.5752    0.1817 C   0  0  0  0  0  0  0  0  0  0  0  0
   -6.8914   -0.4305    0.0025 C   0  0  0  0  0  0  0  0  0  0  0  0
   -6.5136   -1.6885   -0.4569 C   0  0  0  0  0  0  0  0  0  0  0  0
   -5.1761   -1.9740   -0.7483 C   0  0  0  0  0  0  0  0  0  0  0  0
   -4.2253   -0.9568   -0.5642 C   0  0  0  0  0  0  0  0  0  0  0  0
   -2.5264   -0.9907   -0.8323 S   0  0  0  0  0  0  0  0  0  0  0  0
    6.5386   -1.8236    2.3993 H   0  0  0  0  0  0  0  0  0  0  0  0
    7.3120   -2.6550    1.1519 H   0  0  0  0  0  0  0  0  0  0  0  0
    4.4508   -0.9557    1.5474 H   0  0  0  0  0  0  0  0  0  0  0  0
    2.9270    1.2444    1.3904 H   0  0  0  0  0  0  0  0  0  0  0  0
    2.5744   -0.2556    0.5222 H   0  0  0  0  0  0  0  0  0  0  0  0
    2.8787    2.5089   -0.7992 H   0  0  0  0  0  0  0  0  0  0  0  0
    2.4586    1.0105   -1.6425 H   0  0  0  0  0  0  0  0  0  0  0  0
    0.6509    2.7077   -0.7848 H   0  0  0  0  0  0  0  0  0  0  0  0
   -1.3200    2.2585    0.0523 H   0  0  0  0  0  0  0  0  0  0  0  0
   -6.2273    1.5576    0.5394 H   0  0  0  0  0  0  0  0  0  0  0  0
   -7.9361   -0.2247    0.2240 H   0  0  0  0  0  0  0  0  0  0  0  0
   -7.2673   -2.4617   -0.5924 H   0  0  0  0  0  0  0  0  0  0  0  0
   -4.8815   -2.9554   -1.1077 H   0  0  0  0  0  0  0  0  0  0  0  0
  1  2  1  0
  2  3  2  0
  2  4  1  0
  4  5  1  0
  5  6  2  0
  5  7  1  0
  7  8  1  0
  8  9  1  0
  9 10  1  0
 10 11  2  0
 10 12  1  0
 12 13  1  0
 13 14  2  0
 14 15  1  0
 15 16  2  0
 16 17  1  0
 17 18  2  0
 18 19  1  0
 19 20  2  0
 20 21  1  0
 21 13  1  0
 20 15  1  0
  1 22  1  0
  1 23  1  0
  4 24  1  0
  7 25  1  0
  7 26  1  0
  8 27  1  0
  8 28  1  0
  9 29  1  0
 12 30  1  0
 16 31  1  0
 17 32  1  0
 18 33  1  0
 19 34  1  0
M  END
$$$$
OCNT-2315456
     RDKit          3D

 36 38  0  0  0  0  0  0  0  0999 V2000
   -0.0067   -2.4854    1.5749 O   0  0  0  0  0  0  0  0  0  0  0  0
   -0.4847   -1.5718    0.9128 C   0  0  0  0  0  0  0  0  0  0  0  0
   -1.9894   -1.3917    0.8354 C   0  0  0  0  0  0  0  0  0  0  0  0
   -2.4458   -0.2337    1.7225 C   0  0  0  0  0  0  0  0  0  0  0  0
   -3.9672   -0.0686    1.7547 C   0  0  0  0  0  0  0  0  0  0  0  0
   -4.5419    0.3370    0.4281 C   0  0  0  0  0  0  0  0  0  0  0  0
   -5.2229   -0.4483   -0.4815 C   0  0  0  0  0  0  0  0  0  0  0  0
   -5.6218    0.2830   -1.6372 C   0  0  0  0  0  0  0  0  0  0  0  0
   -5.2410    1.6040   -1.5680 C   0  0  0  0  0  0  0  0  0  0  0  0
   -4.4088    1.9567   -0.1174 S   0  0  0  0  0  0  0  0  0  0  0  0
    0.1908   -0.6127    0.1945 N   0  0  0  0  0  0  0  0  0  0  0  0
    1.5476   -0.4746    0.0612 C   0  0  0  0  0  0  0  0  0  0  0  0
    2.0515    0.5006   -0.6664 N   0  0  0  0  0  0  0  0  0  0  0  0
    3.4259    0.4114   -0.6337 C   0  0  0  0  0  0  0  0  0  0  0  0
    3.9370   -0.6229    0.1203 C   0  0  0  0  0  0  0  0  0  0  0  0
    2.6742   -1.5224    0.8055 S   0  0  0  0  0  0  0  0  0  0  0  0
    5.3420   -0.8920    0.2920 C   0  0  0  0  0  0  0  0  0  0  0  0
    5.8323   -1.8464    0.8866 O   0  0  0  0  0  0  0  0  0  0  0  0
    6.1703    0.0490   -0.3038 N   0  0  0  0  0  0  0  0  0  0  0  0
    5.6922    1.3764   -0.6867 C   0  0  0  0  0  0  0  0  0  0  0  0
    4.3149    1.3495   -1.3713 C   0  0  0  0  0  0  0  0  0  0  0  0
   -2.4636   -2.3285    1.1509 H   0  0  0  0  0  0  0  0  0  0  0  0
   -2.2668   -1.2299   -0.2124 H   0  0  0  0  0  0  0  0  0  0  0  0
   -2.0945   -0.4128    2.7469 H   0  0  0  0  0  0  0  0  0  0  0  0
   -1.9690    0.6995    1.3987 H   0  0  0  0  0  0  0  0  0  0  0  0
   -4.4314   -1.0063    2.0853 H   0  0  0  0  0  0  0  0  0  0  0  0
   -4.2299    0.6835    2.5095 H   0  0  0  0  0  0  0  0  0  0  0  0
   -5.4263   -1.5018   -0.3273 H   0  0  0  0  0  0  0  0  0  0  0  0
   -6.1654   -0.1375   -2.4744 H   0  0  0  0  0  0  0  0  0  0  0  0
   -5.4152    2.3828   -2.2978 H   0  0  0  0  0  0  0  0  0  0  0  0
   -0.3280    0.0885   -0.3158 H   0  0  0  0  0  0  0  0  0  0  0  0
    7.1482   -0.0812   -0.0736 H   0  0  0  0  0  0  0  0  0  0  0  0
    6.4422    1.8314   -1.3409 H   0  0  0  0  0  0  0  0  0  0  0  0
    5.6406    1.9673    0.2358 H   0  0  0  0  0  0  0  0  0  0  0  0
    3.8885    2.3570   -1.4063 H   0  0  0  0  0  0  0  0  0  0  0  0
    4.4219    0.9908   -2.4018 H   0  0  0  0  0  0  0  0  0  0  0  0
  1  2  2  0
  2  3  1  0
  3  4  1  0
  4  5  1  0
  5  6  1  0
  6  7  2  0
  7  8  1  0
  8  9  2  0
  9 10  1  0
  2 11  1  0
 11 12  1  0
 12 13  2  0
 13 14  1  0
 14 15  2  0
 15 16  1  0
 15 17  1  0
 17 18  2  0
 17 19  1  0
 19 20  1  0
 20 21  1  0
 10  6  1  0
 16 12  1  0
 21 14  1  0
  3 22  1  0
  3 23  1  0
  4 24  1  0
  4 25  1  0
  5 26  1  0
  5 27  1  0
  7 28  1  0
  8 29  1  0
  9 30  1  0
 11 31  1  0
 19 32  1  0
 20 33  1  0
 20 34  1  0
 21 35  1  0
 21 36  1  0
M  END
$$$$
OCNT-2315468
     RDKit          3D

 46 50  0  0  0  0  0  0  0  0999 V2000
    3.6603   -0.6225    2.3702 C   0  0  0  0  0  0  0  0  0  0  0  0
    2.4198   -0.4762    1.7507 C   0  0  0  0  0  0  0  0  0  0  0  0
    2.3324    0.0127    0.4414 C   0  0  0  0  0  0  0  0  0  0  0  0
    1.0280    0.1620   -0.1980 C   0  0  0  0  0  0  0  0  0  0  0  0
    0.8510    0.6217   -1.4477 N   0  0  0  0  0  0  0  0  0  0  0  0
   -0.5288    0.5896   -1.6233 O   0  0  0  0  0  0  0  0  0  0  0  0
   -1.0599    0.1134   -0.4593 C   0  0  0  0  0  0  0  0  0  0  0  0
   -2.5527   -0.0202   -0.3972 C   0  0  0  0  0  0  0  0  0  0  0  0
   -3.2053    1.3621   -0.6747 C   0  0  0  0  0  0  0  0  0  0  0  0
   -4.7189    1.3553   -0.4423 C   0  0  0  0  0  0  0  0  0  0  0  0
   -5.0951    0.6932    0.8871 C   0  0  0  0  0  0  0  0  0  0  0  0
   -4.4473   -0.6114    1.1002 N   0  0  0  0  0  0  0  0  0  0  0  0
   -4.9407   -1.6363    0.1630 C   0  0  0  0  0  0  0  0  0  0  0  0
   -3.8877   -2.1813   -0.8076 C   0  0  0  0  0  0  0  0  0  0  0  0
   -3.0345   -1.0762   -1.4355 C   0  0  0  0  0  0  0  0  0  0  0  0
   -2.9835   -0.4542    1.0240 C   0  0  0  0  0  0  0  0  0  0  0  0
   -0.1481   -0.1643    0.4443 N   0  0  0  0  0  0  0  0  0  0  0  0
    3.5166    0.3535   -0.2377 C   0  0  0  0  0  0  0  0  0  0  0  0
    4.7721    0.2097    0.3782 C   0  0  0  0  0  0  0  0  0  0  0  0
    5.9655    0.5588   -0.3213 N   0  0  0  0  0  0  0  0  0  0  0  0
    6.0737    1.0521   -1.6054 C   0  0  0  0  0  0  0  0  0  0  0  0
    7.4163    1.2350   -1.8373 C   0  0  0  0  0  0  0  0  0  0  0  0
    8.1492    0.8743   -0.7461 N   0  0  0  0  0  0  0  0  0  0  0  0
    7.2634    0.4761    0.1410 C   0  0  0  0  0  0  0  0  0  0  0  0
    4.8318   -0.2822    1.6900 C   0  0  0  0  0  0  0  0  0  0  0  0
    3.7137   -1.0035    3.3877 H   0  0  0  0  0  0  0  0  0  0  0  0
    1.5189   -0.7475    2.2989 H   0  0  0  0  0  0  0  0  0  0  0  0
   -2.7572    2.1175   -0.0138 H   0  0  0  0  0  0  0  0  0  0  0  0
   -2.9979    1.6956   -1.6997 H   0  0  0  0  0  0  0  0  0  0  0  0
   -5.2163    0.8386   -1.2712 H   0  0  0  0  0  0  0  0  0  0  0  0
   -5.0936    2.3855   -0.4563 H   0  0  0  0  0  0  0  0  0  0  0  0
   -6.1849    0.5898    0.9572 H   0  0  0  0  0  0  0  0  0  0  0  0
   -4.8128    1.3616    1.7111 H   0  0  0  0  0  0  0  0  0  0  0  0
   -5.8045   -1.2783   -0.4113 H   0  0  0  0  0  0  0  0  0  0  0  0
   -5.3200   -2.4754    0.7590 H   0  0  0  0  0  0  0  0  0  0  0  0
   -3.2310   -2.8830   -0.2768 H   0  0  0  0  0  0  0  0  0  0  0  0
   -4.3779   -2.7633   -1.5968 H   0  0  0  0  0  0  0  0  0  0  0  0
   -2.1864   -1.5568   -1.9408 H   0  0  0  0  0  0  0  0  0  0  0  0
   -3.6105   -0.5950   -2.2357 H   0  0  0  0  0  0  0  0  0  0  0  0
   -2.6565    0.2817    1.7725 H   0  0  0  0  0  0  0  0  0  0  0  0
   -2.4957   -1.3912    1.3259 H   0  0  0  0  0  0  0  0  0  0  0  0
    3.4303    0.7313   -1.2529 H   0  0  0  0  0  0  0  0  0  0  0  0
    5.2258    1.2346   -2.2468 H   0  0  0  0  0  0  0  0  0  0  0  0
    7.8889    1.6086   -2.7368 H   0  0  0  0  0  0  0  0  0  0  0  0
    7.5208    0.1211    1.1282 H   0  0  0  0  0  0  0  0  0  0  0  0
    5.7693   -0.4165    2.2211 H   0  0  0  0  0  0  0  0  0  0  0  0
  1  2  2  0
  2  3  1  0
  3  4  1  0
  4  5  2  0
  5  6  1  0
  6  7  1  0
  7  8  1  0
  8  9  1  0
  9 10  1  0
 10 11  1  0
 11 12  1  0
 12 13  1  0
 13 14  1  0
 14 15  1  0
 12 16  1  0
  7 17  2  0
  3 18  2  0
 18 19  1  0
 19 20  1  0
 20 21  1  0
 21 22  2  0
 22 23  1  0
 23 24  2  0
 19 25  2  0
 25  1  1  0
 17  4  1  0
 24 20  1  0
 15  8  1  0
 16  8  1  0
  1 26  1  0
  2 27  1  0
  9 28  1  0
  9 29  1  0
 10 30  1  0
 10 31  1  0
 11 32  1  0
 11 33  1  0
 13 34  1  0
 13 35  1  0
 14 36  1  0
 14 37  1  0
 15 38  1  0
 15 39  1  0
 16 40  1  0
 16 41  1  0
 18 42  1  0
 21 43  1  0
 22 44  1  0
 24 45  1  0
 25 46  1  0
M  END
$$$$
OCNT-2315495
     RDKit          3D

 54 57  0  0  0  0  0  0  0  0999 V2000
   -5.6735   -0.3801    1.9821 C   0  0  0  0  0  0  0  0  0  0  0  0
   -5.1273    0.3566    0.8481 N   0  0  0  0  0  0  0  0  0  0  0  0
   -5.8274    1.6237    0.6253 C   0  0  0  0  0  0  0  0  0  0  0  0
   -5.3729    2.0147   -0.7719 C   0  0  0  0  0  0  0  0  0  0  0  0
   -5.2040    0.6910   -1.5124 C   0  0  0  0  0  0  0  0  0  0  0  0
   -5.2815   -0.3825   -0.4280 C   0  0  0  0  0  0  0  0  0  0  0  0
   -4.2693   -1.5299   -0.6044 C   0  0  0  0  0  0  0  0  0  0  0  0
   -4.7048   -2.6505   -0.9038 O   0  0  0  0  0  0  0  0  0  0  0  0
   -2.9046   -1.3201   -0.4732 N   0  0  0  0  0  0  0  0  0  0  0  0
   -2.2606   -0.1010    0.0104 C   0  0  0  0  0  0  0  0  0  0  0  0
   -0.8651    0.1457   -0.6118 C   0  0  0  0  0  0  0  0  0  0  0  0
   -0.0279   -1.0475   -0.8517 N   0  0  0  0  0  0  0  0  0  0  0  0
    1.3908   -0.8393   -0.5211 C   0  0  0  0  0  0  0  0  0  0  0  0
    2.0679    0.1995   -1.4262 C   0  0  0  0  0  0  0  0  0  0  0  0
    3.5154    0.2972   -1.1253 C   0  0  0  0  0  0  0  0  0  0  0  0
    4.1232    0.4659    0.0255 N   0  0  0  0  0  0  0  0  0  0  0  0
    5.4559    0.4775   -0.3371 C   0  0  0  0  0  0  0  0  0  0  0  0
    6.5282    0.6337    0.6408 C   0  0  0  0  0  0  0  0  0  0  0  0
    7.8747    0.6243    0.2474 C   0  0  0  0  0  0  0  0  0  0  0  0
    8.8936    0.7750    1.1921 C   0  0  0  0  0  0  0  0  0  0  0  0
    8.5776    0.9360    2.5395 C   0  0  0  0  0  0  0  0  0  0  0  0
    7.2447    0.9444    2.9455 C   0  0  0  0  0  0  0  0  0  0  0  0
    6.2259    0.7956    2.0013 C   0  0  0  0  0  0  0  0  0  0  0  0
    5.6569    0.3274   -1.6575 N   0  0  0  0  0  0  0  0  0  0  0  0
    4.3721    0.2097   -2.1802 O   0  0  0  0  0  0  0  0  0  0  0  0
   -0.5763   -2.2323   -0.1762 C   0  0  0  0  0  0  0  0  0  0  0  0
   -2.0344   -2.4907   -0.5961 C   0  0  0  0  0  0  0  0  0  0  0  0
   -5.1320   -1.3211    2.1290 H   0  0  0  0  0  0  0  0  0  0  0  0
   -5.5531    0.2008    2.9028 H   0  0  0  0  0  0  0  0  0  0  0  0
   -6.7379   -0.6106    1.8600 H   0  0  0  0  0  0  0  0  0  0  0  0
   -5.5520    2.3818    1.3645 H   0  0  0  0  0  0  0  0  0  0  0  0
   -6.9177    1.4968    0.6394 H   0  0  0  0  0  0  0  0  0  0  0  0
   -4.4129    2.5421   -0.7291 H   0  0  0  0  0  0  0  0  0  0  0  0
   -6.0923    2.6727   -1.2691 H   0  0  0  0  0  0  0  0  0  0  0  0
   -4.2691    0.6767   -2.0822 H   0  0  0  0  0  0  0  0  0  0  0  0
   -6.0223    0.5573   -2.2302 H   0  0  0  0  0  0  0  0  0  0  0  0
   -6.2856   -0.8296   -0.4717 H   0  0  0  0  0  0  0  0  0  0  0  0
   -2.8712    0.7802   -0.1765 H   0  0  0  0  0  0  0  0  0  0  0  0
   -2.1639   -0.2103    1.0977 H   0  0  0  0  0  0  0  0  0  0  0  0
   -1.0074    0.6298   -1.5860 H   0  0  0  0  0  0  0  0  0  0  0  0
   -0.3547    0.8752    0.0291 H   0  0  0  0  0  0  0  0  0  0  0  0
    1.9269   -1.7903   -0.6440 H   0  0  0  0  0  0  0  0  0  0  0  0
    1.4993   -0.5575    0.5351 H   0  0  0  0  0  0  0  0  0  0  0  0
    1.6190    1.1894   -1.2865 H   0  0  0  0  0  0  0  0  0  0  0  0
    1.9227   -0.0761   -2.4783 H   0  0  0  0  0  0  0  0  0  0  0  0
    8.1432    0.5004   -0.7997 H   0  0  0  0  0  0  0  0  0  0  0  0
    9.9331    0.7660    0.8743 H   0  0  0  0  0  0  0  0  0  0  0  0
    9.3709    1.0541    3.2735 H   0  0  0  0  0  0  0  0  0  0  0  0
    6.9976    1.0683    3.9969 H   0  0  0  0  0  0  0  0  0  0  0  0
    5.1905    0.8066    2.3360 H   0  0  0  0  0  0  0  0  0  0  0  0
   -0.5217   -2.1086    0.9136 H   0  0  0  0  0  0  0  0  0  0  0  0
    0.0133   -3.1209   -0.4327 H   0  0  0  0  0  0  0  0  0  0  0  0
   -2.4465   -3.3044    0.0124 H   0  0  0  0  0  0  0  0  0  0  0  0
   -2.0735   -2.8126   -1.6441 H   0  0  0  0  0  0  0  0  0  0  0  0
  1  2  1  0
  2  3  1  0
  3  4  1  0
  4  5  1  0
  5  6  1  0
  6  7  1  0
  7  8  2  0
  7  9  1  0
  9 10  1  0
 10 11  1  0
 11 12  1  0
 12 13  1  0
 13 14  1  0
 14 15  1  0
 15 16  2  0
 16 17  1  0
 17 18  1  0
 18 19  2  0
 19 20  1  0
 20 21  2  0
 21 22  1  0
 22 23  2  0
 17 24  2  0
 24 25  1  0
 12 26  1  0
 26 27  1  0
  6  2  1  0
 27  9  1  0
 25 15  1  0
 23 18  1  0
  1 28  1  0
  1 29  1  0
  1 30  1  0
  3 31  1  0
  3 32  1  0
  4 33  1  0
  4 34  1  0
  5 35  1  0
  5 36  1  0
  6 37  1  0
 10 38  1  0
 10 39  1  0
 11 40  1  0
 11 41  1  0
 13 42  1  0
 13 43  1  0
 14 44  1  0
 14 45  1  0
 19 46  1  0
 20 47  1  0
 21 48  1  0
 22 49  1  0
 23 50  1  0
 26 51  1  0
 26 52  1  0
 27 53  1  0
 27 54  1  0
M  END
$$$$
