OCNT-2317316
     RDKit          3D

 41 43  0  0  0  0  0  0  0  0999 V2000
   -2.6121    1.4681    2.2302 O   0  0  0  0  0  0  0  0  0  0  0  0
   -2.4931    0.7924    1.2097 C   0  0  0  0  0  0  0  0  0  0  0  0
   -3.7356    0.2766    0.6085 C   0  0  0  0  0  0  0  0  0  0  0  0
   -4.7857    1.1676    0.3675 C   0  0  0  0  0  0  0  0  0  0  0  0
   -5.9772    0.6814   -0.1578 C   0  0  0  0  0  0  0  0  0  0  0  0
   -6.9830    1.5299   -0.4045 F   0  0  0  0  0  0  0  0  0  0  0  0
   -6.1456   -0.6743   -0.4312 C   0  0  0  0  0  0  0  0  0  0  0  0
   -5.1050   -1.5653   -0.1667 C   0  0  0  0  0  0  0  0  0  0  0  0
   -3.9063   -1.0866    0.3599 C   0  0  0  0  0  0  0  0  0  0  0  0
   -2.9249   -1.9633    0.6162 F   0  0  0  0  0  0  0  0  0  0  0  0
   -1.2631    0.5038    0.6129 N   0  0  0  0  0  0  0  0  0  0  0  0
   -1.1162    0.2421   -0.8188 C   0  0  0  0  0  0  0  0  0  0  0  0
    0.0773   -0.6632   -1.1039 C   0  0  0  0  0  0  0  0  0  0  0  0
    1.3691   -0.1025   -0.4865 C   0  0  0  0  0  0  0  0  0  0  0  0
    2.5399   -1.0682   -0.7541 C   0  0  0  0  0  0  0  0  0  0  0  0
    3.8844   -0.5086   -0.3745 C   0  0  0  0  0  0  0  0  0  0  0  0
    4.4902    0.5044   -1.1224 C   0  0  0  0  0  0  0  0  0  0  0  0
    5.7316    1.0003   -0.7354 C   0  0  0  0  0  0  0  0  0  0  0  0
    6.3300    0.4638    0.3920 C   0  0  0  0  0  0  0  0  0  0  0  0
    5.7787   -0.5152    1.1396 N   0  0  0  0  0  0  0  0  0  0  0  0
    4.5729   -0.9783    0.7403 C   0  0  0  0  0  0  0  0  0  0  0  0
    1.1506    0.1387    1.0167 C   0  0  0  0  0  0  0  0  0  0  0  0
   -0.0690    1.0196    1.2762 C   0  0  0  0  0  0  0  0  0  0  0  0
   -4.6835    2.2252    0.5920 H   0  0  0  0  0  0  0  0  0  0  0  0
   -7.0891   -1.0267   -0.8375 H   0  0  0  0  0  0  0  0  0  0  0  0
   -5.2217   -2.6276   -0.3592 H   0  0  0  0  0  0  0  0  0  0  0  0
   -2.0184   -0.1989   -1.2464 H   0  0  0  0  0  0  0  0  0  0  0  0
   -0.9833    1.2138   -1.3107 H   0  0  0  0  0  0  0  0  0  0  0  0
   -0.1234   -1.6625   -0.6960 H   0  0  0  0  0  0  0  0  0  0  0  0
    0.1960   -0.7753   -2.1880 H   0  0  0  0  0  0  0  0  0  0  0  0
    1.5820    0.8639   -0.9636 H   0  0  0  0  0  0  0  0  0  0  0  0
    2.5735   -1.3222   -1.8221 H   0  0  0  0  0  0  0  0  0  0  0  0
    2.3688   -2.0180   -0.2307 H   0  0  0  0  0  0  0  0  0  0  0  0
    4.0022    0.9086   -2.0054 H   0  0  0  0  0  0  0  0  0  0  0  0
    6.2213    1.7858   -1.2995 H   0  0  0  0  0  0  0  0  0  0  0  0
    7.2983    0.8175    0.7341 H   0  0  0  0  0  0  0  0  0  0  0  0
    4.1615   -1.7637    1.3691 H   0  0  0  0  0  0  0  0  0  0  0  0
    2.0304    0.6140    1.4643 H   0  0  0  0  0  0  0  0  0  0  0  0
    1.0108   -0.8244    1.5247 H   0  0  0  0  0  0  0  0  0  0  0  0
   -0.2362    1.0906    2.3567 H   0  0  0  0  0  0  0  0  0  0  0  0
    0.1030    2.0370    0.9042 H   0  0  0  0  0  0  0  0  0  0  0  0
  1  2  2  0
  2  3  1  0
  3  4  1  0
  4  5  2  0
  5  6  1  0
  5  7  1  0
  7  8  2  0
  8  9  1  0
  9 10  1  0
  2 11  1  0
 11 12  1  0
 12 13  1  0
 13 14  1  0
 14 15  1  0
 15 16  1  0
 16 17  1  0
 17 18  2  0
 18 19  1  0
 19 20  2  0
 20 21  1  0
 14 22  1  0
 22 23  1  0
  9  3  2  0
 23 11  1  0
 21 16  2  0
  4 24  1  0
  7 25  1  0
  8 26  1  0
 12 27  1  0
 12 28  1  0
 13 29  1  0
 13 30  1  0
 14 31  1  0
 15 32  1  0
 15 33  1  0
 17 34  1  0
 18 35  1  0
 19 36  1  0
 21 37  1  0
 22 38  1  0
 22 39  1  0
 23 40  1  0
 23 41  1  0
M  END
$$$$
OCNT-2317331
     RDKit          3D

 44 46  0  0  0  0  0  0  0  0999 V2000
   -4.4963   -1.0725   -1.9260 C   0  0  0  0  0  0  0  0  0  0  0  0
   -3.8640    0.2212   -1.3953 C   0  0  0  0  0  0  0  0  0  0  0  0
   -4.7014    1.4307   -1.8199 C   0  0  0  0  0  0  0  0  0  0  0  0
   -2.3983    0.3703   -1.8760 C   0  0  0  0  0  0  0  0  0  0  0  0
   -1.5161   -0.3870   -0.8627 C   0  0  0  0  0  0  0  0  0  0  0  0
   -0.1997    0.2106   -0.7732 N   0  0  0  0  0  0  0  0  0  0  0  0
    0.9012   -0.5546   -0.4487 C   0  0  0  0  0  0  0  0  0  0  0  0
    0.8495   -1.7712   -0.3194 O   0  0  0  0  0  0  0  0  0  0  0  0
    2.0210    0.2239   -0.3125 N   0  0  0  0  0  0  0  0  0  0  0  0
    3.2681   -0.2246    0.0421 C   0  0  0  0  0  0  0  0  0  0  0  0
    4.2843    0.6440    0.0573 N   0  0  0  0  0  0  0  0  0  0  0  0
    5.3390   -0.0866    0.4623 N   0  0  0  0  0  0  0  0  0  0  0  0
    6.6438    0.5271    0.5445 C   0  0  0  0  0  0  0  0  0  0  0  0
    7.0034    0.8812    1.9603 C   0  0  0  0  0  0  0  0  0  0  0  0
    7.0642   -0.2122    2.7536 F   0  0  0  0  0  0  0  0  0  0  0  0
    6.1457    1.7586    2.5197 F   0  0  0  0  0  0  0  0  0  0  0  0
    8.2335    1.4537    1.9915 F   0  0  0  0  0  0  0  0  0  0  0  0
    5.0380   -1.3991    0.6718 C   0  0  0  0  0  0  0  0  0  0  0  0
    3.6911   -1.5169    0.4203 C   0  0  0  0  0  0  0  0  0  0  0  0
   -2.3247   -0.2155    0.3962 C   0  0  0  0  0  0  0  0  0  0  0  0
   -1.9181   -0.4120    1.7090 C   0  0  0  0  0  0  0  0  0  0  0  0
   -2.8489   -0.2269    2.7324 C   0  0  0  0  0  0  0  0  0  0  0  0
   -4.1711    0.1336    2.4368 C   0  0  0  0  0  0  0  0  0  0  0  0
   -4.5824    0.3078    1.1137 C   0  0  0  0  0  0  0  0  0  0  0  0
   -3.6522    0.1310    0.0987 C   0  0  0  0  0  0  0  0  0  0  0  0
   -3.9113   -1.9584   -1.6532 H   0  0  0  0  0  0  0  0  0  0  0  0
   -4.5740   -1.0502   -3.0188 H   0  0  0  0  0  0  0  0  0  0  0  0
   -5.5053   -1.2142   -1.5216 H   0  0  0  0  0  0  0  0  0  0  0  0
   -4.7218    1.5281   -2.9111 H   0  0  0  0  0  0  0  0  0  0  0  0
   -5.7377    1.3427   -1.4745 H   0  0  0  0  0  0  0  0  0  0  0  0
   -4.2994    2.3635   -1.4075 H   0  0  0  0  0  0  0  0  0  0  0  0
   -2.2458    0.0018   -2.8972 H   0  0  0  0  0  0  0  0  0  0  0  0
   -2.1165    1.4341   -1.8880 H   0  0  0  0  0  0  0  0  0  0  0  0
   -1.4530   -1.4503   -1.1208 H   0  0  0  0  0  0  0  0  0  0  0  0
   -0.1804    1.1590   -0.4297 H   0  0  0  0  0  0  0  0  0  0  0  0
    1.9978    1.1936   -0.5793 H   0  0  0  0  0  0  0  0  0  0  0  0
    6.6443    1.4193   -0.0909 H   0  0  0  0  0  0  0  0  0  0  0  0
    7.3681   -0.1804    0.1265 H   0  0  0  0  0  0  0  0  0  0  0  0
    5.7775   -2.1247    0.9824 H   0  0  0  0  0  0  0  0  0  0  0  0
    3.0976   -2.4176    0.4958 H   0  0  0  0  0  0  0  0  0  0  0  0
   -0.9016   -0.7165    1.9410 H   0  0  0  0  0  0  0  0  0  0  0  0
   -2.5492   -0.3751    3.7670 H   0  0  0  0  0  0  0  0  0  0  0  0
   -4.8854    0.2652    3.2459 H   0  0  0  0  0  0  0  0  0  0  0  0
   -5.6137    0.5654    0.8943 H   0  0  0  0  0  0  0  0  0  0  0  0
  1  2  1  0
  2  3  1  0
  2  4  1  0
  4  5  1  0
  5  6  1  0
  6  7  1  0
  7  8  2  0
  7  9  1  0
  9 10  1  0
 10 11  2  0
 11 12  1  0
 12 13  1  0
 13 14  1  0
 14 15  1  0
 14 16  1  0
 14 17  1  0
 12 18  1  0
 18 19  2  0
  5 20  1  0
 20 21  2  0
 21 22  1  0
 22 23  2  0
 23 24  1  0
 24 25  2  0
 25  2  1  0
 19 10  1  0
 25 20  1  0
  1 26  1  0
  1 27  1  0
  1 28  1  0
  3 29  1  0
  3 30  1  0
  3 31  1  0
  4 32  1  0
  4 33  1  0
  5 34  1  0
  6 35  1  0
  9 36  1  0
 13 37  1  0
 13 38  1  0
 18 39  1  0
 19 40  1  0
 21 41  1  0
 22 42  1  0
 23 43  1  0
 24 44  1  0
M  END
$$$$
OCNT-2317340
     RDKit          3D

 39 41  0  0  0  0  0  0  0  0999 V2000
   -0.1794    0.7607   -3.3192 O   0  0  0  0  0  0  0  0  0  0  0  0
   -0.7820    0.1541   -2.4359 C   0  0  0  0  0  0  0  0  0  0  0  0
   -2.2948    0.2400   -2.2800 C   0  0  0  0  0  0  0  0  0  0  0  0
   -2.7211    1.3394   -1.3841 N   0  0  0  0  0  0  0  0  0  0  0  0
   -4.1733    1.6074   -1.3920 C   0  0  0  0  0  0  0  0  0  0  0  0
   -4.3959    2.5732   -0.2293 C   0  0  0  0  0  0  0  0  0  0  0  0
   -3.6157    2.0055    0.9476 C   0  0  0  0  0  0  0  0  0  0  0  0
   -2.1482    1.2844    0.2249 S   0  0  0  0  0  0  0  0  0  0  0  0
   -1.0316    2.1876    0.3393 O   0  0  0  0  0  0  0  0  0  0  0  0
   -2.0702   -0.1096    0.6080 O   0  0  0  0  0  0  0  0  0  0  0  0
   -0.1544   -0.6737   -1.5250 N   0  0  0  0  0  0  0  0  0  0  0  0
    1.2941   -0.6431   -1.3965 C   0  0  0  0  0  0  0  0  0  0  0  0
    1.8273   -1.8807   -0.6586 C   0  0  0  0  0  0  0  0  0  0  0  0
    3.3613   -1.8712   -0.5479 C   0  0  0  0  0  0  0  0  0  0  0  0
    3.5094   -1.4296    0.8561 C   0  0  0  0  0  0  0  0  0  0  0  0
    4.6450   -1.0344    1.5413 C   0  0  0  0  0  0  0  0  0  0  0  0
    4.5144   -0.6920    2.8911 C   0  0  0  0  0  0  0  0  0  0  0  0
    3.2650   -0.7678    3.5305 C   0  0  0  0  0  0  0  0  0  0  0  0
    2.1313   -1.1813    2.8285 C   0  0  0  0  0  0  0  0  0  0  0  0
    2.2815   -1.4992    1.4949 C   0  0  0  0  0  0  0  0  0  0  0  0
    1.2601   -1.9139    0.6828 O   0  0  0  0  0  0  0  0  0  0  0  0
   -2.6944   -0.7208   -1.9342 H   0  0  0  0  0  0  0  0  0  0  0  0
   -2.7113    0.4092   -3.2806 H   0  0  0  0  0  0  0  0  0  0  0  0
   -4.4713    2.0709   -2.3356 H   0  0  0  0  0  0  0  0  0  0  0  0
   -4.7392    0.6796   -1.2467 H   0  0  0  0  0  0  0  0  0  0  0  0
   -5.4572    2.6988    0.0028 H   0  0  0  0  0  0  0  0  0  0  0  0
   -3.9910    3.5589   -0.4926 H   0  0  0  0  0  0  0  0  0  0  0  0
   -4.1747    1.2042    1.4416 H   0  0  0  0  0  0  0  0  0  0  0  0
   -3.3313    2.7709    1.6697 H   0  0  0  0  0  0  0  0  0  0  0  0
   -0.6622   -0.8689   -0.6602 H   0  0  0  0  0  0  0  0  0  0  0  0
    1.7381   -0.5780   -2.3963 H   0  0  0  0  0  0  0  0  0  0  0  0
    1.5351    0.2768   -0.8509 H   0  0  0  0  0  0  0  0  0  0  0  0
    1.4923   -2.7838   -1.1836 H   0  0  0  0  0  0  0  0  0  0  0  0
    3.7662   -2.8824   -0.6632 H   0  0  0  0  0  0  0  0  0  0  0  0
    3.8393   -1.2010   -1.2670 H   0  0  0  0  0  0  0  0  0  0  0  0
    5.6110   -0.9842    1.0501 H   0  0  0  0  0  0  0  0  0  0  0  0
    5.3858   -0.3675    3.4548 H   0  0  0  0  0  0  0  0  0  0  0  0
    3.1813   -0.4941    4.5811 H   0  0  0  0  0  0  0  0  0  0  0  0
    1.1608   -1.2443    3.3087 H   0  0  0  0  0  0  0  0  0  0  0  0
  1  2  2  0
  2  3  1  0
  3  4  1  0
  4  5  1  0
  5  6  1  0
  6  7  1  0
  7  8  1  0
  8  9  2  0
  8 10  2  0
  2 11  1  0
 11 12  1  0
 12 13  1  0
 13 14  1  0
 14 15  1  0
 15 16  2  0
 16 17  1  0
 17 18  2  0
 18 19  1  0
 19 20  2  0
 20 21  1  0
  8  4  1  0
 21 13  1  0
 20 15  1  0
  3 22  1  0
  3 23  1  0
  5 24  1  0
  5 25  1  0
  6 26  1  0
  6 27  1  0
  7 28  1  0
  7 29  1  0
 11 30  1  0
 12 31  1  0
 12 32  1  0
 13 33  1  0
 14 34  1  0
 14 35  1  0
 16 36  1  0
 17 37  1  0
 18 38  1  0
 19 39  1  0
M  END
$$$$
OCNT-2317342
     RDKit          3D

 49 51  0  0  0  0  0  0  0  0999 V2000
    8.2012   -0.9493    0.0068 C   0  0  0  0  0  0  0  0  0  0  0  0
    6.7090   -1.1263   -0.2091 C   0  0  0  0  0  0  0  0  0  0  0  0
    6.0410   -0.7264    0.9862 O   0  0  0  0  0  0  0  0  0  0  0  0
    4.6771   -0.8248    1.0016 C   0  0  0  0  0  0  0  0  0  0  0  0
    4.0812   -0.4486    2.2106 C   0  0  0  0  0  0  0  0  0  0  0  0
    2.6950   -0.4990    2.3705 C   0  0  0  0  0  0  0  0  0  0  0  0
    1.9010   -0.9220    1.3042 C   0  0  0  0  0  0  0  0  0  0  0  0
    0.1415   -1.0193    1.4908 S   0  0  0  0  0  0  0  0  0  0  0  0
   -0.1839   -0.8912    2.8941 O   0  0  0  0  0  0  0  0  0  0  0  0
   -0.3377   -2.1253    0.6922 O   0  0  0  0  0  0  0  0  0  0  0  0
   -0.3435    0.4292    0.7610 N   0  0  0  0  0  0  0  0  0  0  0  0
   -1.3870    0.4731   -0.3276 C   0  0  0  0  0  0  0  0  0  0  0  0
   -1.5811    1.8483   -1.0059 C   0  0  0  0  0  0  0  0  0  0  0  0
   -3.0993    1.5648   -1.0461 C   0  0  0  0  0  0  0  0  0  0  0  0
   -3.5886    0.9779   -2.2775 O   0  0  0  0  0  0  0  0  0  0  0  0
   -3.8818    1.8820   -3.3399 C   0  0  0  0  0  0  0  0  0  0  0  0
   -5.3555    2.2353   -3.3151 C   0  0  0  0  0  0  0  0  0  0  0  0
   -2.8785    0.5791    0.1476 C   0  0  0  0  0  0  0  0  0  0  0  0
   -3.7151   -0.6923    0.1476 C   0  0  0  0  0  0  0  0  0  0  0  0
   -3.7494   -1.0741    1.6164 C   0  0  0  0  0  0  0  0  0  0  0  0
   -3.7862    0.2649    2.3259 C   0  0  0  0  0  0  0  0  0  0  0  0
   -3.0333    1.1512    1.4855 O   0  0  0  0  0  0  0  0  0  0  0  0
    2.4833   -1.3097    0.0944 C   0  0  0  0  0  0  0  0  0  0  0  0
    3.8729   -1.2567   -0.0558 C   0  0  0  0  0  0  0  0  0  0  0  0
    8.4357    0.0942    0.2425 H   0  0  0  0  0  0  0  0  0  0  0  0
    8.7617   -1.2447   -0.8845 H   0  0  0  0  0  0  0  0  0  0  0  0
    8.5422   -1.5519    0.8552 H   0  0  0  0  0  0  0  0  0  0  0  0
    6.5018   -2.1804   -0.4268 H   0  0  0  0  0  0  0  0  0  0  0  0
    6.3924   -0.4981   -1.0498 H   0  0  0  0  0  0  0  0  0  0  0  0
    4.7065   -0.1175    3.0369 H   0  0  0  0  0  0  0  0  0  0  0  0
    2.2518   -0.2107    3.3206 H   0  0  0  0  0  0  0  0  0  0  0  0
   -0.6069    1.0659    1.5228 H   0  0  0  0  0  0  0  0  0  0  0  0
   -1.2127   -0.3205   -1.0659 H   0  0  0  0  0  0  0  0  0  0  0  0
   -1.3146    2.7105   -0.3831 H   0  0  0  0  0  0  0  0  0  0  0  0
   -1.0884    1.9555   -1.9766 H   0  0  0  0  0  0  0  0  0  0  0  0
   -3.7099    2.4318   -0.7658 H   0  0  0  0  0  0  0  0  0  0  0  0
   -3.2603    2.7811   -3.2672 H   0  0  0  0  0  0  0  0  0  0  0  0
   -3.6354    1.3788   -4.2800 H   0  0  0  0  0  0  0  0  0  0  0  0
   -5.9694    1.3308   -3.3784 H   0  0  0  0  0  0  0  0  0  0  0  0
   -5.6207    2.7348   -2.3778 H   0  0  0  0  0  0  0  0  0  0  0  0
   -5.6115    2.8954   -4.1486 H   0  0  0  0  0  0  0  0  0  0  0  0
   -3.3013   -1.4869   -0.4795 H   0  0  0  0  0  0  0  0  0  0  0  0
   -4.7352   -0.4801   -0.1942 H   0  0  0  0  0  0  0  0  0  0  0  0
   -4.5941   -1.7173    1.8770 H   0  0  0  0  0  0  0  0  0  0  0  0
   -2.8303   -1.6059    1.8807 H   0  0  0  0  0  0  0  0  0  0  0  0
   -4.8066    0.6529    2.4027 H   0  0  0  0  0  0  0  0  0  0  0  0
   -3.3346    0.2233    3.3203 H   0  0  0  0  0  0  0  0  0  0  0  0
    1.8633   -1.6537   -0.7309 H   0  0  0  0  0  0  0  0  0  0  0  0
    4.2942   -1.5618   -1.0080 H   0  0  0  0  0  0  0  0  0  0  0  0
  1  2  1  0
  2  3  1  0
  3  4  1  0
  4  5  1  0
  5  6  2  0
  6  7  1  0
  7  8  1  0
  8  9  2  0
  8 10  2  0
  8 11  1  0
 11 12  1  0
 12 13  1  0
 13 14  1  0
 14 15  1  0
 15 16  1  0
 16 17  1  0
 14 18  1  0
 18 19  1  0
 19 20  1  0
 20 21  1  0
 21 22  1  0
  7 23  2  0
 23 24  1  0
 24  4  2  0
 18 12  1  0
 22 18  1  0
  1 25  1  0
  1 26  1  0
  1 27  1  0
  2 28  1  0
  2 29  1  0
  5 30  1  0
  6 31  1  0
 11 32  1  0
 12 33  1  0
 13 34  1  0
 13 35  1  0
 14 36  1  0
 16 37  1  0
 16 38  1  0
 17 39  1  0
 17 40  1  0
 17 41  1  0
 19 42  1  0
 19 43  1  0
 20 44  1  0
 20 45  1  0
 21 46  1  0
 21 47  1  0
 23 48  1  0
 24 49  1  0
M  END
$$$$
OCNT-2317345
     RDKit          3D

 38 40  0  0  0  0  0  0  0  0999 V2000
    7.5442   -0.3819   -0.0847 C   0  0  0  0  0  0  0  0  0  0  0  0
    6.3469    0.1670    0.5029 N   0  0  0  0  0  0  0  0  0  0  0  0
    6.2661    1.0765    1.5133 C   0  0  0  0  0  0  0  0  0  0  0  0
    4.9214    1.2765    1.7207 C   0  0  0  0  0  0  0  0  0  0  0  0
    4.2650    0.4358    0.7865 C   0  0  0  0  0  0  0  0  0  0  0  0
    2.8947    0.3531    0.6677 N   0  0  0  0  0  0  0  0  0  0  0  0
    2.2158   -0.5607   -0.1036 C   0  0  0  0  0  0  0  0  0  0  0  0
    2.6689   -1.5121   -0.7245 O   0  0  0  0  0  0  0  0  0  0  0  0
    0.8556   -0.2866   -0.0848 N   0  0  0  0  0  0  0  0  0  0  0  0
   -0.0190   -1.1021   -0.8968 C   0  0  0  0  0  0  0  0  0  0  0  0
   -1.4591   -0.7480   -0.6404 C   0  0  0  0  0  0  0  0  0  0  0  0
   -2.1224   -1.2426    0.4878 C   0  0  0  0  0  0  0  0  0  0  0  0
   -3.4561   -0.8994    0.7448 C   0  0  0  0  0  0  0  0  0  0  0  0
   -4.1561   -0.0438   -0.1217 C   0  0  0  0  0  0  0  0  0  0  0  0
   -5.5132    0.3006    0.1495 N   0  0  0  0  0  0  0  0  0  0  0  0
   -6.2782   -0.1217    1.2210 C   0  0  0  0  0  0  0  0  0  0  0  0
   -7.5132    0.4624    1.0736 C   0  0  0  0  0  0  0  0  0  0  0  0
   -7.5499    1.2325   -0.0481 N   0  0  0  0  0  0  0  0  0  0  0  0
   -6.3519    1.1180   -0.5809 C   0  0  0  0  0  0  0  0  0  0  0  0
   -3.4807    0.4533   -1.2423 C   0  0  0  0  0  0  0  0  0  0  0  0
   -4.0653    1.2813   -2.1174 F   0  0  0  0  0  0  0  0  0  0  0  0
   -2.1511    0.1103   -1.4993 C   0  0  0  0  0  0  0  0  0  0  0  0
    5.1509   -0.2206    0.0385 N   0  0  0  0  0  0  0  0  0  0  0  0
    7.5276   -1.4666    0.0476 H   0  0  0  0  0  0  0  0  0  0  0  0
    8.4203    0.0411    0.4130 H   0  0  0  0  0  0  0  0  0  0  0  0
    7.5573   -0.1236   -1.1465 H   0  0  0  0  0  0  0  0  0  0  0  0
    7.1435    1.4922    1.9881 H   0  0  0  0  0  0  0  0  0  0  0  0
    4.4763    1.9358    2.4511 H   0  0  0  0  0  0  0  0  0  0  0  0
    2.3552    0.8939    1.3210 H   0  0  0  0  0  0  0  0  0  0  0  0
    0.6331    0.6967   -0.0590 H   0  0  0  0  0  0  0  0  0  0  0  0
    0.2412   -0.9461   -1.9506 H   0  0  0  0  0  0  0  0  0  0  0  0
    0.1586   -2.1614   -0.6752 H   0  0  0  0  0  0  0  0  0  0  0  0
   -1.5994   -1.9035    1.1787 H   0  0  0  0  0  0  0  0  0  0  0  0
   -3.9101   -1.3234    1.6355 H   0  0  0  0  0  0  0  0  0  0  0  0
   -5.9130   -0.7838    1.9897 H   0  0  0  0  0  0  0  0  0  0  0  0
   -8.3757    0.3647    1.7205 H   0  0  0  0  0  0  0  0  0  0  0  0
   -6.0592    1.6135   -1.4947 H   0  0  0  0  0  0  0  0  0  0  0  0
   -1.6690    0.5230   -2.3824 H   0  0  0  0  0  0  0  0  0  0  0  0
  1  2  1  0
  2  3  1  0
  3  4  2  0
  4  5  1  0
  5  6  1  0
  6  7  1  0
  7  8  2  0
  7  9  1  0
  9 10  1  0
 10 11  1  0
 11 12  1  0
 12 13  2  0
 13 14  1  0
 14 15  1  0
 15 16  1  0
 16 17  2  0
 17 18  1  0
 18 19  2  0
 14 20  2  0
 20 21  1  0
 20 22  1  0
  5 23  2  0
 23  2  1  0
 22 11  2  0
 19 15  1  0
  1 24  1  0
  1 25  1  0
  1 26  1  0
  3 27  1  0
  4 28  1  0
  6 29  1  0
  9 30  1  0
 10 31  1  0
 10 32  1  0
 12 33  1  0
 13 34  1  0
 16 35  1  0
 17 36  1  0
 19 37  1  0
 22 38  1  0
M  END
$$$$
OCNT-2317346
     RDKit          3D

 51 54  0  0  0  0  0  0  0  0999 V2000
    5.6224    0.0458   -2.3223 C   0  0  0  0  0  0  0  0  0  0  0  0
    5.1355    0.9296   -1.2151 C   0  0  0  0  0  0  0  0  0  0  0  0
    4.0272    0.5628   -0.4360 C   0  0  0  0  0  0  0  0  0  0  0  0
    3.5851    1.3739    0.6249 C   0  0  0  0  0  0  0  0  0  0  0  0
    2.4248    0.9758    1.4164 C   0  0  0  0  0  0  0  0  0  0  0  0
    1.9457    1.6791    2.4567 N   0  0  0  0  0  0  0  0  0  0  0  0
    0.8506    0.9354    2.8866 O   0  0  0  0  0  0  0  0  0  0  0  0
    0.7719   -0.1506    2.0653 C   0  0  0  0  0  0  0  0  0  0  0  0
   -0.3622   -1.1089    2.3296 C   0  0  0  0  0  0  0  0  0  0  0  0
    0.2606   -2.4225    2.8325 C   0  0  0  0  0  0  0  0  0  0  0  0
   -1.2367   -1.3056    1.1365 N   0  0  0  0  0  0  0  0  0  0  0  0
   -2.3368   -2.2437    1.3471 C   0  0  0  0  0  0  0  0  0  0  0  0
   -3.0003   -2.6089    0.0109 C   0  0  0  0  0  0  0  0  0  0  0  0
   -3.1106   -1.4370   -0.9869 C   0  0  0  0  0  0  0  0  0  0  0  0
   -4.3790   -1.5891   -1.8311 C   0  0  0  0  0  0  0  0  0  0  0  0
   -3.0409   -0.0974   -0.2288 C   0  0  0  0  0  0  0  0  0  0  0  0
   -3.1907    1.0769   -1.0773 N   0  0  0  0  0  0  0  0  0  0  0  0
   -2.4180    1.4266   -2.1504 C   0  0  0  0  0  0  0  0  0  0  0  0
   -2.9529    2.6093   -2.6045 C   0  0  0  0  0  0  0  0  0  0  0  0
   -4.0253    2.9837   -1.8385 N   0  0  0  0  0  0  0  0  0  0  0  0
   -4.1451    2.0444   -0.9283 C   0  0  0  0  0  0  0  0  0  0  0  0
   -1.7376   -0.0115    0.6090 C   0  0  0  0  0  0  0  0  0  0  0  0
    1.7155   -0.1759    1.1502 N   0  0  0  0  0  0  0  0  0  0  0  0
    4.2796    2.5616    0.9041 C   0  0  0  0  0  0  0  0  0  0  0  0
    5.3925    2.9265    0.1432 C   0  0  0  0  0  0  0  0  0  0  0  0
    5.8119    2.1098   -0.9020 C   0  0  0  0  0  0  0  0  0  0  0  0
    6.8878    2.4726   -1.6142 F   0  0  0  0  0  0  0  0  0  0  0  0
    5.9914    0.6424   -3.1631 H   0  0  0  0  0  0  0  0  0  0  0  0
    4.8148   -0.5867   -2.7047 H   0  0  0  0  0  0  0  0  0  0  0  0
    6.4296   -0.5988   -1.9602 H   0  0  0  0  0  0  0  0  0  0  0  0
    3.5013   -0.3655   -0.6585 H   0  0  0  0  0  0  0  0  0  0  0  0
   -0.9733   -0.6993    3.1457 H   0  0  0  0  0  0  0  0  0  0  0  0
   -0.4884   -3.0879    3.2722 H   0  0  0  0  0  0  0  0  0  0  0  0
    1.0057   -2.2296    3.6142 H   0  0  0  0  0  0  0  0  0  0  0  0
    0.7682   -2.9601    2.0227 H   0  0  0  0  0  0  0  0  0  0  0  0
   -3.0779   -1.8208    2.0378 H   0  0  0  0  0  0  0  0  0  0  0  0
   -1.9991   -3.1856    1.7888 H   0  0  0  0  0  0  0  0  0  0  0  0
   -3.9914   -3.0262    0.2311 H   0  0  0  0  0  0  0  0  0  0  0  0
   -2.4308   -3.4149   -0.4709 H   0  0  0  0  0  0  0  0  0  0  0  0
   -2.2531   -1.4976   -1.6721 H   0  0  0  0  0  0  0  0  0  0  0  0
   -4.4180   -0.8462   -2.6336 H   0  0  0  0  0  0  0  0  0  0  0  0
   -4.4132   -2.5780   -2.3008 H   0  0  0  0  0  0  0  0  0  0  0  0
   -5.2792   -1.4733   -1.2180 H   0  0  0  0  0  0  0  0  0  0  0  0
   -3.8894   -0.0705    0.4710 H   0  0  0  0  0  0  0  0  0  0  0  0
   -1.5819    0.8330   -2.4941 H   0  0  0  0  0  0  0  0  0  0  0  0
   -2.6225    3.2104   -3.4420 H   0  0  0  0  0  0  0  0  0  0  0  0
   -4.8970    2.0196   -0.1499 H   0  0  0  0  0  0  0  0  0  0  0  0
   -1.9320    0.6913    1.4313 H   0  0  0  0  0  0  0  0  0  0  0  0
   -0.9363    0.4291    0.0034 H   0  0  0  0  0  0  0  0  0  0  0  0
    3.9623    3.2112    1.7175 H   0  0  0  0  0  0  0  0  0  0  0  0
    5.9352    3.8413    0.3601 H   0  0  0  0  0  0  0  0  0  0  0  0
  1  2  1  0
  2  3  1  0
  3  4  2  0
  4  5  1  0
  5  6  2  0
  6  7  1  0
  7  8  1  0
  8  9  1  0
  9 10  1  0
  9 11  1  0
 11 12  1  0
 12 13  1  0
 13 14  1  0
 14 15  1  0
 14 16  1  0
 16 17  1  0
 17 18  1  0
 18 19  2  0
 19 20  1  0
 20 21  2  0
 16 22  1  0
  8 23  2  0
  4 24  1  0
 24 25  2  0
 25 26  1  0
 26 27  1  0
 26  2  2  0
 23  5  1  0
 22 11  1  0
 21 17  1  0
  1 28  1  0
  1 29  1  0
  1 30  1  0
  3 31  1  0
  9 32  1  0
 10 33  1  0
 10 34  1  0
 10 35  1  0
 12 36  1  0
 12 37  1  0
 13 38  1  0
 13 39  1  0
 14 40  1  0
 15 41  1  0
 15 42  1  0
 15 43  1  0
 16 44  1  0
 18 45  1  0
 19 46  1  0
 21 47  1  0
 22 48  1  0
 22 49  1  0
 24 50  1  0
 25 51  1  0
M  END
$$$$
OCNT-2317350
     RDKit          3D

 38 40  0  0  0  0  0  0  0  0999 V2000
    5.7113    0.0891   -2.9555 C   0  0  0  0  0  0  0  0  0  0  0  0
    4.4367    0.1356   -2.1763 C   0  0  0  0  0  0  0  0  0  0  0  0
    4.0293    1.2226   -1.4296 C   0  0  0  0  0  0  0  0  0  0  0  0
    2.5339    0.9690   -0.6580 S   0  0  0  0  0  0  0  0  0  0  0  0
    2.3791   -0.6205   -1.3011 C   0  0  0  0  0  0  0  0  0  0  0  0
    1.2085   -1.4482   -0.9924 C   0  0  0  0  0  0  0  0  0  0  0  0
    1.0407   -2.5611   -1.4829 O   0  0  0  0  0  0  0  0  0  0  0  0
    0.3113   -0.8697   -0.1164 N   0  0  0  0  0  0  0  0  0  0  0  0
   -0.8903   -1.3910    0.4118 C   0  0  0  0  0  0  0  0  0  0  0  0
   -1.3638   -2.6765    0.1648 C   0  0  0  0  0  0  0  0  0  0  0  0
   -2.5294   -3.1046    0.7915 C   0  0  0  0  0  0  0  0  0  0  0  0
   -3.1747   -2.2308    1.6473 C   0  0  0  0  0  0  0  0  0  0  0  0
   -2.7510   -0.9740    1.9040 N   0  0  0  0  0  0  0  0  0  0  0  0
   -1.6305   -0.5503    1.2808 C   0  0  0  0  0  0  0  0  0  0  0  0
   -1.1684    0.7775    1.4828 N   0  0  0  0  0  0  0  0  0  0  0  0
   -1.6407    1.6828    0.4039 C   0  0  0  0  0  0  0  0  0  0  0  0
   -3.0782    2.1719    0.6353 C   0  0  0  0  0  0  0  0  0  0  0  0
   -3.1988    2.8198    1.9099 O   0  0  0  0  0  0  0  0  0  0  0  0
   -2.9045    1.8824    2.9580 C   0  0  0  0  0  0  0  0  0  0  0  0
   -1.4805    1.3132    2.8305 C   0  0  0  0  0  0  0  0  0  0  0  0
    3.4715   -0.9306   -2.0963 C   0  0  0  0  0  0  0  0  0  0  0  0
    3.7201   -2.4155   -2.9298 Cl  0  0  0  0  0  0  0  0  0  0  0  0
    6.3504   -0.7243   -2.5970 H   0  0  0  0  0  0  0  0  0  0  0  0
    6.2726    1.0243   -2.8572 H   0  0  0  0  0  0  0  0  0  0  0  0
    5.5049   -0.0674   -4.0191 H   0  0  0  0  0  0  0  0  0  0  0  0
    4.5470    2.1642   -1.3000 H   0  0  0  0  0  0  0  0  0  0  0  0
    0.5352    0.0542    0.2460 H   0  0  0  0  0  0  0  0  0  0  0  0
   -0.8439   -3.3670   -0.4901 H   0  0  0  0  0  0  0  0  0  0  0  0
   -2.9159   -4.1037    0.6225 H   0  0  0  0  0  0  0  0  0  0  0  0
   -4.0822   -2.5273    2.1660 H   0  0  0  0  0  0  0  0  0  0  0  0
   -0.9720    2.5528    0.4054 H   0  0  0  0  0  0  0  0  0  0  0  0
   -1.5538    1.2213   -0.5869 H   0  0  0  0  0  0  0  0  0  0  0  0
   -3.3422    2.9070   -0.1318 H   0  0  0  0  0  0  0  0  0  0  0  0
   -3.8046    1.3538    0.5716 H   0  0  0  0  0  0  0  0  0  0  0  0
   -3.6715    1.1017    2.9598 H   0  0  0  0  0  0  0  0  0  0  0  0
   -2.9952    2.4182    3.9087 H   0  0  0  0  0  0  0  0  0  0  0  0
   -1.2870    0.5675    3.6115 H   0  0  0  0  0  0  0  0  0  0  0  0
   -0.7732    2.1336    3.0070 H   0  0  0  0  0  0  0  0  0  0  0  0
  1  2  1  0
  2  3  2  0
  3  4  1  0
  4  5  1  0
  5  6  1  0
  6  7  2  0
  6  8  1  0
  8  9  1  0
  9 10  1  0
 10 11  2  0
 11 12  1  0
 12 13  2  0
 13 14  1  0
 14 15  1  0
 15 16  1  0
 16 17  1  0
 17 18  1  0
 18 19  1  0
 19 20  1  0
  5 21  2  0
 21 22  1  0
 21  2  1  0
 14  9  2  0
 20 15  1  0
  1 23  1  0
  1 24  1  0
  1 25  1  0
  3 26  1  0
  8 27  1  0
 10 28  1  0
 11 29  1  0
 12 30  1  0
 16 31  1  0
 16 32  1  0
 17 33  1  0
 17 34  1  0
 19 35  1  0
 19 36  1  0
 20 37  1  0
 20 38  1  0
M  END
$$$$
OCNT-2317360
     RDKit          3D

 43 46  0  0  0  0  0  0  0  0999 V2000
   -5.1894   -1.6189    0.8186 O   0  0  0  0  0  0  0  0  0  0  0  0
   -4.8327   -0.4464    0.7249 C   0  0  0  0  0  0  0  0  0  0  0  0
   -5.7137    0.4911    1.1905 N   0  0  0  0  0  0  0  0  0  0  0  0
   -5.4311    1.8865    1.3736 C   0  0  0  0  0  0  0  0  0  0  0  0
   -4.4999    2.3615    0.2908 C   0  0  0  0  0  0  0  0  0  0  0  0
   -3.2858    1.4506    0.3053 C   0  0  0  0  0  0  0  0  0  0  0  0
   -3.6294    0.0272    0.1973 N   0  0  0  0  0  0  0  0  0  0  0  0
   -2.6238   -0.8692   -0.3268 C   0  0  0  0  0  0  0  0  0  0  0  0
   -2.9549   -2.1357   -0.8288 C   0  0  0  0  0  0  0  0  0  0  0  0
   -1.9793   -2.9922   -1.3485 C   0  0  0  0  0  0  0  0  0  0  0  0
   -0.6438   -2.5998   -1.3756 C   0  0  0  0  0  0  0  0  0  0  0  0
   -0.2664   -1.3424   -0.8937 C   0  0  0  0  0  0  0  0  0  0  0  0
    1.1408   -0.9206   -0.9206 C   0  0  0  0  0  0  0  0  0  0  0  0
    1.5427    0.1982   -1.6709 C   0  0  0  0  0  0  0  0  0  0  0  0
    2.8808    0.5979   -1.7025 C   0  0  0  0  0  0  0  0  0  0  0  0
    3.8277   -0.1145   -0.9727 C   0  0  0  0  0  0  0  0  0  0  0  0
    5.1376    0.2833   -1.0279 O   0  0  0  0  0  0  0  0  0  0  0  0
    5.5347    0.9568    0.1835 C   0  0  0  0  0  0  0  0  0  0  0  0
    7.0021    1.2859    0.2728 C   0  0  0  0  0  0  0  0  0  0  0  0
    6.4273    0.1926    1.1210 C   0  0  0  0  0  0  0  0  0  0  0  0
    3.4589   -1.2355   -0.2355 C   0  0  0  0  0  0  0  0  0  0  0  0
    2.1201   -1.6340   -0.2069 C   0  0  0  0  0  0  0  0  0  0  0  0
   -1.2671   -0.4924   -0.3804 C   0  0  0  0  0  0  0  0  0  0  0  0
   -6.5259    0.0810    1.6336 H   0  0  0  0  0  0  0  0  0  0  0  0
   -4.9844    2.0117    2.3665 H   0  0  0  0  0  0  0  0  0  0  0  0
   -6.3803    2.4316    1.3521 H   0  0  0  0  0  0  0  0  0  0  0  0
   -4.9959    2.3067   -0.6866 H   0  0  0  0  0  0  0  0  0  0  0  0
   -4.2045    3.4011    0.4592 H   0  0  0  0  0  0  0  0  0  0  0  0
   -2.7202    1.5876    1.2359 H   0  0  0  0  0  0  0  0  0  0  0  0
   -2.6548    1.7426   -0.5420 H   0  0  0  0  0  0  0  0  0  0  0  0
   -3.9830   -2.4843   -0.8576 H   0  0  0  0  0  0  0  0  0  0  0  0
   -2.2712   -3.9642   -1.7414 H   0  0  0  0  0  0  0  0  0  0  0  0
    0.1007   -3.2769   -1.7901 H   0  0  0  0  0  0  0  0  0  0  0  0
    0.8095    0.7616   -2.2486 H   0  0  0  0  0  0  0  0  0  0  0  0
    3.1805    1.4553   -2.2961 H   0  0  0  0  0  0  0  0  0  0  0  0
    4.8588    1.6993    0.6033 H   0  0  0  0  0  0  0  0  0  0  0  0
    7.6371    1.0058   -0.5570 H   0  0  0  0  0  0  0  0  0  0  0  0
    7.2837    2.2117    0.7553 H   0  0  0  0  0  0  0  0  0  0  0  0
    6.3081    0.3715    2.1790 H   0  0  0  0  0  0  0  0  0  0  0  0
    6.6828   -0.8269    0.8653 H   0  0  0  0  0  0  0  0  0  0  0  0
    4.2067   -1.8059    0.3080 H   0  0  0  0  0  0  0  0  0  0  0  0
    1.8402   -2.5043    0.3848 H   0  0  0  0  0  0  0  0  0  0  0  0
   -0.9432    0.4652    0.0162 H   0  0  0  0  0  0  0  0  0  0  0  0
  1  2  2  0
  2  3  1  0
  3  4  1  0
  4  5  1  0
  5  6  1  0
  6  7  1  0
  7  8  1  0
  8  9  2  0
  9 10  1  0
 10 11  2  0
 11 12  1  0
 12 13  1  0
 13 14  1  0
 14 15  2  0
 15 16  1  0
 16 17  1  0
 17 18  1  0
 18 19  1  0
 19 20  1  0
 16 21  2  0
 21 22  1  0
 12 23  2  0
  7  2  1  0
 23  8  1  0
 22 13  2  0
 20 18  1  0
  3 24  1  0
  4 25  1  0
  4 26  1  0
  5 27  1  0
  5 28  1  0
  6 29  1  0
  6 30  1  0
  9 31  1  0
 10 32  1  0
 11 33  1  0
 14 34  1  0
 15 35  1  0
 18 36  1  0
 19 37  1  0
 19 38  1  0
 20 39  1  0
 20 40  1  0
 21 41  1  0
 22 42  1  0
 23 43  1  0
M  END
$$$$
OCNT-2317361
     RDKit          3D

 51 55  0  0  0  0  0  0  0  0999 V2000
   -0.0227    0.3357   -2.0067 C   0  0  0  0  0  0  0  0  0  0  0  0
   -0.0852   -0.3250   -0.6585 C   0  0  0  0  0  0  0  0  0  0  0  0
    1.0704   -0.8162   -0.0372 C   0  0  0  0  0  0  0  0  0  0  0  0
    2.3391   -0.5719   -0.5750 N   0  0  0  0  0  0  0  0  0  0  0  0
    2.7502    0.8400   -0.6187 C   0  0  0  0  0  0  0  0  0  0  0  0
    4.1956    0.8553   -0.1156 C   0  0  0  0  0  0  0  0  0  0  0  0
    4.6890   -0.5547   -0.4197 C   0  0  0  0  0  0  0  0  0  0  0  0
    5.9309   -1.0255    0.2798 C   0  0  0  0  0  0  0  0  0  0  0  0
    6.2766   -0.6720    1.7049 C   0  0  0  0  0  0  0  0  0  0  0  0
    7.0789   -0.0918    0.5706 C   0  0  0  0  0  0  0  0  0  0  0  0
    3.4491   -1.3825   -0.0555 C   0  0  0  0  0  0  0  0  0  0  0  0
    0.9939   -1.5484    1.0852 N   0  0  0  0  0  0  0  0  0  0  0  0
   -0.2205   -1.7418    1.6006 C   0  0  0  0  0  0  0  0  0  0  0  0
   -1.3676   -1.2522    1.1288 N   0  0  0  0  0  0  0  0  0  0  0  0
   -1.3033   -0.5186    0.0057 C   0  0  0  0  0  0  0  0  0  0  0  0
   -2.4946    0.0228   -0.4882 N   0  0  0  0  0  0  0  0  0  0  0  0
   -2.5519    1.4894   -0.5780 C   0  0  0  0  0  0  0  0  0  0  0  0
   -3.9498    1.8700   -0.0880 C   0  0  0  0  0  0  0  0  0  0  0  0
   -4.7664    0.5973   -0.2970 C   0  0  0  0  0  0  0  0  0  0  0  0
   -6.0762    0.6349    0.4352 C   0  0  0  0  0  0  0  0  0  0  0  0
   -6.7280   -0.6143    0.9726 C   0  0  0  0  0  0  0  0  0  0  0  0
   -6.2025    0.4276    1.9244 C   0  0  0  0  0  0  0  0  0  0  0  0
   -3.7468   -0.4751    0.1004 C   0  0  0  0  0  0  0  0  0  0  0  0
    0.7949   -0.0671   -2.6140 H   0  0  0  0  0  0  0  0  0  0  0  0
    0.1130    1.4158   -1.8987 H   0  0  0  0  0  0  0  0  0  0  0  0
   -0.9307    0.1460   -2.5883 H   0  0  0  0  0  0  0  0  0  0  0  0
    2.7158    1.1938   -1.6555 H   0  0  0  0  0  0  0  0  0  0  0  0
    2.1291    1.5016   -0.0025 H   0  0  0  0  0  0  0  0  0  0  0  0
    4.1977    1.0650    0.9588 H   0  0  0  0  0  0  0  0  0  0  0  0
    4.7899    1.6320   -0.6069 H   0  0  0  0  0  0  0  0  0  0  0  0
    4.8628   -0.6335   -1.5025 H   0  0  0  0  0  0  0  0  0  0  0  0
    6.1937   -2.0285   -0.0489 H   0  0  0  0  0  0  0  0  0  0  0  0
    5.6340   -0.0074    2.2692 H   0  0  0  0  0  0  0  0  0  0  0  0
    6.7439   -1.4381    2.3156 H   0  0  0  0  0  0  0  0  0  0  0  0
    6.9746    0.9668    0.3673 H   0  0  0  0  0  0  0  0  0  0  0  0
    8.0849   -0.4670    0.4153 H   0  0  0  0  0  0  0  0  0  0  0  0
    3.4081   -1.5157    1.0339 H   0  0  0  0  0  0  0  0  0  0  0  0
    3.4746   -2.3699   -0.5290 H   0  0  0  0  0  0  0  0  0  0  0  0
   -0.2803   -2.3474    2.4973 H   0  0  0  0  0  0  0  0  0  0  0  0
   -2.4327    1.7948   -1.6233 H   0  0  0  0  0  0  0  0  0  0  0  0
   -1.7900    1.9970    0.0254 H   0  0  0  0  0  0  0  0  0  0  0  0
   -4.3580    2.7292   -0.6307 H   0  0  0  0  0  0  0  0  0  0  0  0
   -3.9111    2.1392    0.9754 H   0  0  0  0  0  0  0  0  0  0  0  0
   -4.9829    0.4910   -1.3692 H   0  0  0  0  0  0  0  0  0  0  0  0
   -6.7378    1.3751   -0.0097 H   0  0  0  0  0  0  0  0  0  0  0  0
   -6.2029   -1.5609    0.9169 H   0  0  0  0  0  0  0  0  0  0  0  0
   -7.8040   -0.7083    0.8685 H   0  0  0  0  0  0  0  0  0  0  0  0
   -5.3250    0.1873    2.5127 H   0  0  0  0  0  0  0  0  0  0  0  0
   -6.9250    1.0360    2.4583 H   0  0  0  0  0  0  0  0  0  0  0  0
   -4.0121   -1.4541   -0.3117 H   0  0  0  0  0  0  0  0  0  0  0  0
   -3.6826   -0.5558    1.1915 H   0  0  0  0  0  0  0  0  0  0  0  0
  1  2  1  0
  2  3  2  0
  3  4  1  0
  4  5  1  0
  5  6  1  0
  6  7  1  0
  7  8  1  0
  8  9  1  0
  9 10  1  0
  7 11  1  0
  3 12  1  0
 12 13  2  0
 13 14  1  0
 14 15  2  0
 15 16  1  0
 16 17  1  0
 17 18  1  0
 18 19  1  0
 19 20  1  0
 20 21  1  0
 21 22  1  0
 19 23  1  0
 15  2  1  0
 23 16  1  0
 11  4  1  0
 22 20  1  0
 10  8  1  0
  1 24  1  0
  1 25  1  0
  1 26  1  0
  5 27  1  0
  5 28  1  0
  6 29  1  0
  6 30  1  0
  7 31  1  0
  8 32  1  0
  9 33  1  0
  9 34  1  0
 10 35  1  0
 10 36  1  0
 11 37  1  0
 11 38  1  0
 13 39  1  0
 17 40  1  0
 17 41  1  0
 18 42  1  0
 18 43  1  0
 19 44  1  0
 20 45  1  0
 21 46  1  0
 21 47  1  0
 22 48  1  0
 22 49  1  0
 23 50  1  0
 23 51  1  0
M  END
$$$$
OCNT-2317386
     RDKit          3D

 46 49  0  0  0  0  0  0  0  0999 V2000
    5.2197    1.2902   -1.4745 C   0  0  0  0  0  0  0  0  0  0  0  0
    4.7057    1.2451   -0.0801 C   0  0  0  0  0  0  0  0  0  0  0  0
    3.4128    0.9231    0.3166 C   0  0  0  0  0  0  0  0  0  0  0  0
    2.2401    0.6006   -0.4794 C   0  0  0  0  0  0  0  0  0  0  0  0
    1.9639    1.2623   -1.4846 O   0  0  0  0  0  0  0  0  0  0  0  0
    1.4252   -0.4754   -0.1093 N   0  0  0  0  0  0  0  0  0  0  0  0
    1.6967   -1.4130    0.9780 C   0  0  0  0  0  0  0  0  0  0  0  0
    2.0682   -2.7844    0.4153 C   0  0  0  0  0  0  0  0  0  0  0  0
    1.1906   -3.2026   -0.7702 C   0  0  0  0  0  0  0  0  0  0  0  0
   -0.0617   -2.3382   -0.8845 C   0  0  0  0  0  0  0  0  0  0  0  0
    0.2997   -0.8384   -0.9966 C   0  0  0  0  0  0  0  0  0  0  0  0
   -0.8926    0.0310   -0.6842 C   0  0  0  0  0  0  0  0  0  0  0  0
   -2.1225   -0.3592   -0.3906 N   0  0  0  0  0  0  0  0  0  0  0  0
   -2.8355    0.7901   -0.1232 C   0  0  0  0  0  0  0  0  0  0  0  0
   -4.2338    0.7778    0.2757 C   0  0  0  0  0  0  0  0  0  0  0  0
   -5.0187   -0.3506   -0.0073 C   0  0  0  0  0  0  0  0  0  0  0  0
   -6.3638   -0.3994    0.3693 C   0  0  0  0  0  0  0  0  0  0  0  0
   -6.9401    0.6845    1.0313 C   0  0  0  0  0  0  0  0  0  0  0  0
   -6.1724    1.8135    1.3195 C   0  0  0  0  0  0  0  0  0  0  0  0
   -4.8249    1.8593    0.9461 C   0  0  0  0  0  0  0  0  0  0  0  0
   -2.0346    1.8981   -0.3000 C   0  0  0  0  0  0  0  0  0  0  0  0
   -0.8237    1.4058   -0.7069 N   0  0  0  0  0  0  0  0  0  0  0  0
    3.3054    1.0482    1.6772 O   0  0  0  0  0  0  0  0  0  0  0  0
    4.5281    1.3960    2.1505 C   0  0  0  0  0  0  0  0  0  0  0  0
    5.4246    1.5254    1.1154 C   0  0  0  0  0  0  0  0  0  0  0  0
    4.9991    0.3546   -2.0003 H   0  0  0  0  0  0  0  0  0  0  0  0
    6.3053    1.4382   -1.4899 H   0  0  0  0  0  0  0  0  0  0  0  0
    4.7587    2.1177   -2.0259 H   0  0  0  0  0  0  0  0  0  0  0  0
    2.4911   -1.0830    1.6449 H   0  0  0  0  0  0  0  0  0  0  0  0
    0.7855   -1.4823    1.5837 H   0  0  0  0  0  0  0  0  0  0  0  0
    3.1191   -2.7840    0.0942 H   0  0  0  0  0  0  0  0  0  0  0  0
    1.9948   -3.5287    1.2162 H   0  0  0  0  0  0  0  0  0  0  0  0
    0.9126   -4.2591   -0.6571 H   0  0  0  0  0  0  0  0  0  0  0  0
    1.7696   -3.1253   -1.7015 H   0  0  0  0  0  0  0  0  0  0  0  0
   -0.6927   -2.5282   -0.0065 H   0  0  0  0  0  0  0  0  0  0  0  0
   -0.6523   -2.6433   -1.7557 H   0  0  0  0  0  0  0  0  0  0  0  0
    0.6016   -0.6434   -2.0362 H   0  0  0  0  0  0  0  0  0  0  0  0
   -4.5771   -1.2021   -0.5246 H   0  0  0  0  0  0  0  0  0  0  0  0
   -6.9568   -1.2823    0.1418 H   0  0  0  0  0  0  0  0  0  0  0  0
   -7.9852    0.6445    1.3305 H   0  0  0  0  0  0  0  0  0  0  0  0
   -6.6190    2.6556    1.8435 H   0  0  0  0  0  0  0  0  0  0  0  0
   -4.2434    2.7411    1.1995 H   0  0  0  0  0  0  0  0  0  0  0  0
   -2.2141    2.9598   -0.2167 H   0  0  0  0  0  0  0  0  0  0  0  0
   -0.0176    1.9334   -1.0083 H   0  0  0  0  0  0  0  0  0  0  0  0
    4.5991    1.5233    3.2235 H   0  0  0  0  0  0  0  0  0  0  0  0
    6.4651    1.8035    1.2103 H   0  0  0  0  0  0  0  0  0  0  0  0
  1  2  1  0
  2  3  2  0
  3  4  1  0
  4  5  2  0
  4  6  1  0
  6  7  1  0
  7  8  1  0
  8  9  1  0
  9 10  1  0
 10 11  1  0
 11 12  1  0
 12 13  2  0
 13 14  1  0
 14 15  1  0
 15 16  2  0
 16 17  1  0
 17 18  2  0
 18 19  1  0
 19 20  2  0
 14 21  2  0
 21 22  1  0
  3 23  1  0
 23 24  1  0
 24 25  2  0
 25  2  1  0
 11  6  1  0
 22 12  1  0
 20 15  1  0
  1 26  1  0
  1 27  1  0
  1 28  1  0
  7 29  1  0
  7 30  1  0
  8 31  1  0
  8 32  1  0
  9 33  1  0
  9 34  1  0
 10 35  1  0
 10 36  1  0
 11 37  1  0
 16 38  1  0
 17 39  1  0
 18 40  1  0
 19 41  1  0
 20 42  1  0
 21 43  1  0
 22 44  1  0
 24 45  1  0
 25 46  1  0
M  END
$$$$
OCNT-2317433
     RDKit          3D

 47 49  0  0  0  0  0  0  0  0999 V2000
    6.3130    0.9532   -0.0238 C   0  0  0  0  0  0  0  0  0  0  0  0
    5.1647    0.4958    0.8791 C   0  0  0  0  0  0  0  0  0  0  0  0
    5.4301   -0.9073    1.4304 C   0  0  0  0  0  0  0  0  0  0  0  0
    3.8282    0.5701    0.1629 C   0  0  0  0  0  0  0  0  0  0  0  0
    3.5597   -0.1961   -0.9801 C   0  0  0  0  0  0  0  0  0  0  0  0
    2.3213   -0.1132   -1.6220 C   0  0  0  0  0  0  0  0  0  0  0  0
    1.3239    0.7399   -1.1368 C   0  0  0  0  0  0  0  0  0  0  0  0
   -0.0191    0.8151   -1.8201 C   0  0  0  0  0  0  0  0  0  0  0  0
   -0.9269   -0.3711   -1.4838 C   0  0  0  0  0  0  0  0  0  0  0  0
   -2.2571   -0.3349   -2.2481 C   0  0  0  0  0  0  0  0  0  0  0  0
   -3.3245   -0.7221   -1.2265 C   0  0  0  0  0  0  0  0  0  0  0  0
   -2.5607   -1.2492   -0.1025 N   0  0  0  0  0  0  0  0  0  0  0  0
   -3.2839   -1.3998    1.1612 C   0  0  0  0  0  0  0  0  0  0  0  0
   -3.8901   -0.1626    1.7290 C   0  0  0  0  0  0  0  0  0  0  0  0
   -3.2758    0.8258    2.3518 N   0  0  0  0  0  0  0  0  0  0  0  0
   -4.2500    1.7245    2.7087 N   0  0  0  0  0  0  0  0  0  0  0  0
   -5.4469    1.3021    2.3296 N   0  0  0  0  0  0  0  0  0  0  0  0
   -5.2275    0.1265    1.7224 N   0  0  0  0  0  0  0  0  0  0  0  0
   -6.3221   -0.6360    1.1913 C   0  0  0  0  0  0  0  0  0  0  0  0
   -1.3513   -0.4296   -0.0175 C   0  0  0  0  0  0  0  0  0  0  0  0
    1.5866    1.5057    0.0042 C   0  0  0  0  0  0  0  0  0  0  0  0
    2.8250    1.4216    0.6462 C   0  0  0  0  0  0  0  0  0  0  0  0
    6.4496    0.2870   -0.8826 H   0  0  0  0  0  0  0  0  0  0  0  0
    7.2557    0.9740    0.5337 H   0  0  0  0  0  0  0  0  0  0  0  0
    6.1295    1.9620   -0.4099 H   0  0  0  0  0  0  0  0  0  0  0  0
    5.1389    1.1795    1.7381 H   0  0  0  0  0  0  0  0  0  0  0  0
    6.3558   -0.9219    2.0159 H   0  0  0  0  0  0  0  0  0  0  0  0
    4.6139   -1.2314    2.0858 H   0  0  0  0  0  0  0  0  0  0  0  0
    5.5310   -1.6496    0.6311 H   0  0  0  0  0  0  0  0  0  0  0  0
    4.3135   -0.8685   -1.3828 H   0  0  0  0  0  0  0  0  0  0  0  0
    2.1403   -0.7220   -2.5049 H   0  0  0  0  0  0  0  0  0  0  0  0
   -0.5145    1.7596   -1.5596 H   0  0  0  0  0  0  0  0  0  0  0  0
    0.1453    0.8584   -2.9048 H   0  0  0  0  0  0  0  0  0  0  0  0
   -0.4141   -1.3096   -1.7404 H   0  0  0  0  0  0  0  0  0  0  0  0
   -2.4712    0.6553   -2.6657 H   0  0  0  0  0  0  0  0  0  0  0  0
   -2.2296   -1.0488   -3.0793 H   0  0  0  0  0  0  0  0  0  0  0  0
   -4.0154   -1.4673   -1.6332 H   0  0  0  0  0  0  0  0  0  0  0  0
   -3.8993    0.1730   -0.9623 H   0  0  0  0  0  0  0  0  0  0  0  0
   -2.5989   -1.8193    1.9095 H   0  0  0  0  0  0  0  0  0  0  0  0
   -4.0528   -2.1697    1.0253 H   0  0  0  0  0  0  0  0  0  0  0  0
   -6.0956   -0.9098    0.1585 H   0  0  0  0  0  0  0  0  0  0  0  0
   -6.4502   -1.5301    1.8061 H   0  0  0  0  0  0  0  0  0  0  0  0
   -7.2348   -0.0348    1.2161 H   0  0  0  0  0  0  0  0  0  0  0  0
   -1.5544    0.5763    0.3674 H   0  0  0  0  0  0  0  0  0  0  0  0
   -0.5841   -0.9024    0.6042 H   0  0  0  0  0  0  0  0  0  0  0  0
    0.8275    2.1727    0.4075 H   0  0  0  0  0  0  0  0  0  0  0  0
    2.9974    2.0290    1.5321 H   0  0  0  0  0  0  0  0  0  0  0  0
  1  2  1  0
  2  3  1  0
  2  4  1  0
  4  5  1  0
  5  6  2  0
  6  7  1  0
  7  8  1  0
  8  9  1  0
  9 10  1  0
 10 11  1  0
 11 12  1  0
 12 13  1  0
 13 14  1  0
 14 15  2  0
 15 16  1  0
 16 17  2  0
 17 18  1  0
 18 19  1  0
 12 20  1  0
  7 21  2  0
 21 22  1  0
 22  4  2  0
 20  9  1  0
 18 14  1  0
  1 23  1  0
  1 24  1  0
  1 25  1  0
  2 26  1  0
  3 27  1  0
  3 28  1  0
  3 29  1  0
  5 30  1  0
  6 31  1  0
  8 32  1  0
  8 33  1  0
  9 34  1  0
 10 35  1  0
 10 36  1  0
 11 37  1  0
 11 38  1  0
 13 39  1  0
 13 40  1  0
 19 41  1  0
 19 42  1  0
 19 43  1  0
 20 44  1  0
 20 45  1  0
 21 46  1  0
 22 47  1  0
M  END
$$$$
OCNT-2317441
     RDKit          3D

 43 45  0  0  0  0  0  0  0  0999 V2000
    7.5279    1.5896    0.8385 C   0  0  0  0  0  0  0  0  0  0  0  0
    6.4746    0.6998    0.3129 C   0  0  0  0  0  0  0  0  0  0  0  0
    6.4697   -0.3544   -0.5712 C   0  0  0  0  0  0  0  0  0  0  0  0
    5.1241   -0.7975   -0.6479 C   0  0  0  0  0  0  0  0  0  0  0  0
    4.3795    0.0091    0.1938 C   0  0  0  0  0  0  0  0  0  0  0  0
    2.8323   -0.0561    0.4883 C   0  0  0  0  0  0  0  0  0  0  0  0
    2.2845    0.8129    1.3495 N   0  0  0  0  0  0  0  0  0  0  0  0
    0.9898    0.4782    1.3736 N   0  0  0  0  0  0  0  0  0  0  0  0
    0.6768   -0.5748    0.5556 C   0  0  0  0  0  0  0  0  0  0  0  0
   -0.6003   -1.0883    0.4240 N   0  0  0  0  0  0  0  0  0  0  0  0
   -1.6741   -0.5744    1.1391 C   0  0  0  0  0  0  0  0  0  0  0  0
   -1.5923    0.3572    1.9414 O   0  0  0  0  0  0  0  0  0  0  0  0
   -2.9953   -1.2720    0.8234 C   0  0  0  0  0  0  0  0  0  0  0  0
   -3.9506   -0.3386    0.1199 C   0  0  0  0  0  0  0  0  0  0  0  0
   -5.1079    0.0496    0.6869 C   0  0  0  0  0  0  0  0  0  0  0  0
   -6.0748    0.9991    0.0415 C   0  0  0  0  0  0  0  0  0  0  0  0
   -5.4835    1.7369   -1.1599 C   0  0  0  0  0  0  0  0  0  0  0  0
   -4.6851    0.7865   -2.0441 C   0  0  0  0  0  0  0  0  0  0  0  0
   -3.5476    0.1277   -1.2613 C   0  0  0  0  0  0  0  0  0  0  0  0
    1.8597   -0.9553   -0.0517 C   0  0  0  0  0  0  0  0  0  0  0  0
    2.0607   -2.0497   -1.0320 C   0  0  0  0  0  0  0  0  0  0  0  0
    5.2166    0.9251    0.7777 O   0  0  0  0  0  0  0  0  0  0  0  0
    8.4833    1.4029    0.3413 H   0  0  0  0  0  0  0  0  0  0  0  0
    7.2598    2.6395    0.6810 H   0  0  0  0  0  0  0  0  0  0  0  0
    7.6642    1.4263    1.9137 H   0  0  0  0  0  0  0  0  0  0  0  0
    7.3276   -0.7561   -1.0930 H   0  0  0  0  0  0  0  0  0  0  0  0
    4.7618   -1.6146   -1.2507 H   0  0  0  0  0  0  0  0  0  0  0  0
    0.3454    0.9979    1.9647 H   0  0  0  0  0  0  0  0  0  0  0  0
   -0.7421   -1.8609   -0.2144 H   0  0  0  0  0  0  0  0  0  0  0  0
   -3.4042   -1.6326    1.7756 H   0  0  0  0  0  0  0  0  0  0  0  0
   -2.8305   -2.1618    0.2039 H   0  0  0  0  0  0  0  0  0  0  0  0
   -5.3838   -0.3108    1.6751 H   0  0  0  0  0  0  0  0  0  0  0  0
   -6.4111    1.7357    0.7799 H   0  0  0  0  0  0  0  0  0  0  0  0
   -6.9584    0.4296   -0.2703 H   0  0  0  0  0  0  0  0  0  0  0  0
   -4.8289    2.5466   -0.8106 H   0  0  0  0  0  0  0  0  0  0  0  0
   -6.2860    2.2056   -1.7367 H   0  0  0  0  0  0  0  0  0  0  0  0
   -5.3522    0.0116   -2.4437 H   0  0  0  0  0  0  0  0  0  0  0  0
   -4.2746    1.3286   -2.9039 H   0  0  0  0  0  0  0  0  0  0  0  0
   -2.7222    0.8440   -1.1623 H   0  0  0  0  0  0  0  0  0  0  0  0
   -3.1705   -0.7227   -1.8446 H   0  0  0  0  0  0  0  0  0  0  0  0
    1.1217   -2.5568   -1.2732 H   0  0  0  0  0  0  0  0  0  0  0  0
    2.4692   -1.6579   -1.9709 H   0  0  0  0  0  0  0  0  0  0  0  0
    2.7468   -2.8047   -0.6314 H   0  0  0  0  0  0  0  0  0  0  0  0
  1  2  1  0
  2  3  2  0
  3  4  1  0
  4  5  2  0
  5  6  1  0
  6  7  2  0
  7  8  1  0
  8  9  1  0
  9 10  1  0
 10 11  1  0
 11 12  2  0
 11 13  1  0
 13 14  1  0
 14 15  2  0
 15 16  1  0
 16 17  1  0
 17 18  1  0
 18 19  1  0
  9 20  2  0
 20 21  1  0
  5 22  1  0
 22  2  1  0
 20  6  1  0
 19 14  1  0
  1 23  1  0
  1 24  1  0
  1 25  1  0
  3 26  1  0
  4 27  1  0
  8 28  1  0
 10 29  1  0
 13 30  1  0
 13 31  1  0
 15 32  1  0
 16 33  1  0
 16 34  1  0
 17 35  1  0
 17 36  1  0
 18 37  1  0
 18 38  1  0
 19 39  1  0
 19 40  1  0
 21 41  1  0
 21 42  1  0
 21 43  1  0
M  END
$$$$
OCNT-2317454
     RDKit          3D

 45 47  0  0  0  0  0  0  0  0999 V2000
    7.0490    0.0758    0.4099 C   0  0  0  0  0  0  0  0  0  0  0  0
    6.3352    0.1414    1.6410 O   0  0  0  0  0  0  0  0  0  0  0  0
    5.0187    0.5268    1.4775 C   0  0  0  0  0  0  0  0  0  0  0  0
    4.2467    0.5684    2.6249 C   0  0  0  0  0  0  0  0  0  0  0  0
    2.9209    0.9635    2.5079 C   0  0  0  0  0  0  0  0  0  0  0  0
    2.4154    1.2959    1.2537 C   0  0  0  0  0  0  0  0  0  0  0  0
    3.2537    1.2088    0.1410 C   0  0  0  0  0  0  0  0  0  0  0  0
    2.7622    1.5847   -1.2415 C   0  0  0  0  0  0  0  0  0  0  0  0
    1.4241    1.1103   -1.5336 N   0  0  0  0  0  0  0  0  0  0  0  0
    1.1785   -0.1112   -2.1025 C   0  0  0  0  0  0  0  0  0  0  0  0
    2.0686   -0.8413   -2.5302 O   0  0  0  0  0  0  0  0  0  0  0  0
   -0.2630   -0.5062   -2.1747 C   0  0  0  0  0  0  0  0  0  0  0  0
   -0.5651   -1.6482   -2.8181 C   0  0  0  0  0  0  0  0  0  0  0  0
   -1.9238   -2.1087   -2.9382 C   0  0  0  0  0  0  0  0  0  0  0  0
   -2.9216   -1.3913   -2.4130 C   0  0  0  0  0  0  0  0  0  0  0  0
   -2.6742   -0.2059   -1.7425 N   0  0  0  0  0  0  0  0  0  0  0  0
   -3.7978    0.5272   -1.1577 C   0  0  0  0  0  0  0  0  0  0  0  0
   -4.2293   -0.0388    0.1764 C   0  0  0  0  0  0  0  0  0  0  0  0
   -5.3535   -0.8722    0.2719 C   0  0  0  0  0  0  0  0  0  0  0  0
   -5.7404   -1.4019    1.5044 C   0  0  0  0  0  0  0  0  0  0  0  0
   -5.0089   -1.1055    2.6530 C   0  0  0  0  0  0  0  0  0  0  0  0
   -3.8869   -0.2837    2.5701 C   0  0  0  0  0  0  0  0  0  0  0  0
   -3.4972    0.2453    1.3389 C   0  0  0  0  0  0  0  0  0  0  0  0
   -1.3793    0.2934   -1.5686 C   0  0  0  0  0  0  0  0  0  0  0  0
   -1.1330    1.3362   -0.9579 O   0  0  0  0  0  0  0  0  0  0  0  0
    4.5569    0.8462    0.2492 N   0  0  0  0  0  0  0  0  0  0  0  0
    7.1066    1.0588   -0.0711 H   0  0  0  0  0  0  0  0  0  0  0  0
    8.0725   -0.2447    0.6338 H   0  0  0  0  0  0  0  0  0  0  0  0
    6.6061   -0.6668   -0.2643 H   0  0  0  0  0  0  0  0  0  0  0  0
    4.6723    0.3013    3.5853 H   0  0  0  0  0  0  0  0  0  0  0  0
    2.2860    1.0123    3.3860 H   0  0  0  0  0  0  0  0  0  0  0  0
    1.3809    1.6099    1.1543 H   0  0  0  0  0  0  0  0  0  0  0  0
    2.7423    2.6768   -1.3207 H   0  0  0  0  0  0  0  0  0  0  0  0
    3.4547    1.2008   -1.9993 H   0  0  0  0  0  0  0  0  0  0  0  0
    0.6367    1.6294   -1.1490 H   0  0  0  0  0  0  0  0  0  0  0  0
    0.2085   -2.2651   -3.2695 H   0  0  0  0  0  0  0  0  0  0  0  0
   -2.1127   -3.0418   -3.4584 H   0  0  0  0  0  0  0  0  0  0  0  0
   -3.9542   -1.7204   -2.4879 H   0  0  0  0  0  0  0  0  0  0  0  0
   -4.6335    0.5152   -1.8683 H   0  0  0  0  0  0  0  0  0  0  0  0
   -3.5343    1.5842   -1.0297 H   0  0  0  0  0  0  0  0  0  0  0  0
   -5.9370   -1.1162   -0.6136 H   0  0  0  0  0  0  0  0  0  0  0  0
   -6.6126   -2.0484    1.5679 H   0  0  0  0  0  0  0  0  0  0  0  0
   -5.3105   -1.5188    3.6123 H   0  0  0  0  0  0  0  0  0  0  0  0
   -3.3111   -0.0583    3.4635 H   0  0  0  0  0  0  0  0  0  0  0  0
   -2.6167    0.8828    1.2898 H   0  0  0  0  0  0  0  0  0  0  0  0
  1  2  1  0
  2  3  1  0
  3  4  1  0
  4  5  2  0
  5  6  1  0
  6  7  2  0
  7  8  1  0
  8  9  1  0
  9 10  1  0
 10 11  2  0
 10 12  1  0
 12 13  2  0
 13 14  1  0
 14 15  2  0
 15 16  1  0
 16 17  1  0
 17 18  1  0
 18 19  2  0
 19 20  1  0
 20 21  2  0
 21 22  1  0
 22 23  2  0
 16 24  1  0
 24 25  2  0
  7 26  1  0
 26  3  2  0
 24 12  1  0
 23 18  1  0
  1 27  1  0
  1 28  1  0
  1 29  1  0
  4 30  1  0
  5 31  1  0
  6 32  1  0
  8 33  1  0
  8 34  1  0
  9 35  1  0
 13 36  1  0
 14 37  1  0
 15 38  1  0
 17 39  1  0
 17 40  1  0
 19 41  1  0
 20 42  1  0
 21 43  1  0
 22 44  1  0
 23 45  1  0
M  END
$$$$
OCNT-2317457
     RDKit          3D

 49 52  0  0  0  0  0  0  0  0999 V2000
    6.1461    0.5547   -1.0959 C   0  0  0  0  0  0  0  0  0  0  0  0
    5.1831    0.4899    0.0091 N   0  0  0  0  0  0  0  0  0  0  0  0
    5.8135    0.0774    1.2697 C   0  0  0  0  0  0  0  0  0  0  0  0
    4.0435   -0.2020   -0.2801 C   0  0  0  0  0  0  0  0  0  0  0  0
    3.7410   -1.4278    0.0828 N   0  0  0  0  0  0  0  0  0  0  0  0
    2.5147   -1.6887   -0.4606 C   0  0  0  0  0  0  0  0  0  0  0  0
    2.0194   -0.5905   -1.1327 C   0  0  0  0  0  0  0  0  0  0  0  0
    0.7512   -0.4166   -1.8803 C   0  0  0  0  0  0  0  0  0  0  0  0
   -0.2806    0.2763   -1.1206 N   0  0  0  0  0  0  0  0  0  0  0  0
   -0.9020   -0.5237   -0.0665 C   0  0  0  0  0  0  0  0  0  0  0  0
   -0.3151   -0.2253    1.3410 C   0  0  0  0  0  0  0  0  0  0  0  0
   -1.1912   -0.8220    2.4624 C   0  0  0  0  0  0  0  0  0  0  0  0
   -2.6081   -0.2169    2.4776 C   0  0  0  0  0  0  0  0  0  0  0  0
   -3.1566   -0.0959    1.0966 C   0  0  0  0  0  0  0  0  0  0  0  0
   -2.3642   -0.2104   -0.0285 C   0  0  0  0  0  0  0  0  0  0  0  0
   -3.1547   -0.0202   -1.1276 N   0  0  0  0  0  0  0  0  0  0  0  0
   -4.4550    0.2123   -0.7387 C   0  0  0  0  0  0  0  0  0  0  0  0
   -5.5967    0.4593   -1.5105 C   0  0  0  0  0  0  0  0  0  0  0  0
   -6.8030    0.6689   -0.8352 C   0  0  0  0  0  0  0  0  0  0  0  0
   -6.8627    0.6344    0.5562 C   0  0  0  0  0  0  0  0  0  0  0  0
   -5.7121    0.3880    1.3144 C   0  0  0  0  0  0  0  0  0  0  0  0
   -4.4843    0.1710    0.6585 C   0  0  0  0  0  0  0  0  0  0  0  0
    3.0109    0.3603   -1.0021 N   0  0  0  0  0  0  0  0  0  0  0  0
    2.9726    1.7131   -1.5039 C   0  0  0  0  0  0  0  0  0  0  0  0
    6.9794    1.2150   -0.8311 H   0  0  0  0  0  0  0  0  0  0  0  0
    6.5526   -0.4372   -1.3263 H   0  0  0  0  0  0  0  0  0  0  0  0
    5.6907    0.9625   -2.0046 H   0  0  0  0  0  0  0  0  0  0  0  0
    6.6292    0.7638    1.5229 H   0  0  0  0  0  0  0  0  0  0  0  0
    5.0944    0.1141    2.0964 H   0  0  0  0  0  0  0  0  0  0  0  0
    6.2267   -0.9360    1.2025 H   0  0  0  0  0  0  0  0  0  0  0  0
    2.0413   -2.6536   -0.3323 H   0  0  0  0  0  0  0  0  0  0  0  0
    0.9475    0.1626   -2.7906 H   0  0  0  0  0  0  0  0  0  0  0  0
    0.3792   -1.3859   -2.2348 H   0  0  0  0  0  0  0  0  0  0  0  0
    0.0795    1.1379   -0.7207 H   0  0  0  0  0  0  0  0  0  0  0  0
   -0.8117   -1.5989   -0.2722 H   0  0  0  0  0  0  0  0  0  0  0  0
   -0.2354    0.8584    1.5033 H   0  0  0  0  0  0  0  0  0  0  0  0
    0.6964   -0.6328    1.4275 H   0  0  0  0  0  0  0  0  0  0  0  0
   -1.2586   -1.9083    2.3201 H   0  0  0  0  0  0  0  0  0  0  0  0
   -0.7155   -0.6565    3.4357 H   0  0  0  0  0  0  0  0  0  0  0  0
   -2.5692    0.7825    2.9281 H   0  0  0  0  0  0  0  0  0  0  0  0
   -3.2642   -0.8340    3.1013 H   0  0  0  0  0  0  0  0  0  0  0  0
   -2.8161   -0.0240   -2.0796 H   0  0  0  0  0  0  0  0  0  0  0  0
   -5.5526    0.4886   -2.5939 H   0  0  0  0  0  0  0  0  0  0  0  0
   -7.7078    0.8626   -1.4065 H   0  0  0  0  0  0  0  0  0  0  0  0
   -7.8110    0.8010    1.0606 H   0  0  0  0  0  0  0  0  0  0  0  0
   -5.7674    0.3643    2.3982 H   0  0  0  0  0  0  0  0  0  0  0  0
    1.9520    2.0964   -1.4532 H   0  0  0  0  0  0  0  0  0  0  0  0
    3.3189    1.7008   -2.5402 H   0  0  0  0  0  0  0  0  0  0  0  0
    3.6121    2.3573   -0.8959 H   0  0  0  0  0  0  0  0  0  0  0  0
  1  2  1  0
  2  3  1  0
  2  4  1  0
  4  5  2  0
  5  6  1  0
  6  7  2  0
  7  8  1  0
  8  9  1  0
  9 10  1  0
 10 11  1  0
 11 12  1  0
 12 13  1  0
 13 14  1  0
 14 15  2  0
 15 16  1  0
 16 17  1  0
 17 18  2  0
 18 19  1  0
 19 20  2  0
 20 21  1  0
 21 22  2  0
  7 23  1  0
 23 24  1  0
 23  4  1  0
 15 10  1  0
 22 17  1  0
 22 14  1  0
  1 25  1  0
  1 26  1  0
  1 27  1  0
  3 28  1  0
  3 29  1  0
  3 30  1  0
  6 31  1  0
  8 32  1  0
  8 33  1  0
  9 34  1  0
 10 35  1  0
 11 36  1  0
 11 37  1  0
 12 38  1  0
 12 39  1  0
 13 40  1  0
 13 41  1  0
 16 42  1  0
 18 43  1  0
 19 44  1  0
 20 45  1  0
 21 46  1  0
 24 47  1  0
 24 48  1  0
 24 49  1  0
M  END
$$$$
OCNT-2317458
     RDKit          3D

 39 42  0  0  0  0  0  0  0  0999 V2000
    6.2486   -0.9096    1.2449 C   0  0  0  0  0  0  0  0  0  0  0  0
    5.6316   -0.6517   -0.0096 O   0  0  0  0  0  0  0  0  0  0  0  0
    4.2874   -0.3943    0.0023 C   0  0  0  0  0  0  0  0  0  0  0  0
    3.7316   -0.1470   -1.2644 C   0  0  0  0  0  0  0  0  0  0  0  0
    2.3691    0.1323   -1.4193 C   0  0  0  0  0  0  0  0  0  0  0  0
    1.5723    0.1604   -0.2900 C   0  0  0  0  0  0  0  0  0  0  0  0
    2.1181   -0.0839    0.9699 C   0  0  0  0  0  0  0  0  0  0  0  0
    3.4708   -0.3622    1.1346 C   0  0  0  0  0  0  0  0  0  0  0  0
    1.0789   -0.0007    2.0406 C   0  0  0  0  0  0  0  0  0  0  0  0
   -0.1881    0.3232    1.2388 C   0  0  0  0  0  0  0  0  0  0  0  0
    0.1930    0.4114   -0.1834 N   0  0  0  0  0  0  0  0  0  0  0  0
   -0.6570    0.6902   -1.2408 C   0  0  0  0  0  0  0  0  0  0  0  0
   -0.3545    0.7744   -2.4264 O   0  0  0  0  0  0  0  0  0  0  0  0
   -2.0780    0.9082   -0.8996 C   0  0  0  0  0  0  0  0  0  0  0  0
   -2.4795    2.2250   -0.6381 C   0  0  0  0  0  0  0  0  0  0  0  0
   -3.8012    2.4855   -0.2930 C   0  0  0  0  0  0  0  0  0  0  0  0
   -4.7165    1.4351   -0.2150 C   0  0  0  0  0  0  0  0  0  0  0  0
   -4.3232    0.1113   -0.4929 C   0  0  0  0  0  0  0  0  0  0  0  0
   -5.2198   -0.9584   -0.4298 C   0  0  0  0  0  0  0  0  0  0  0  0
   -4.9018   -2.2471   -0.6891 N   0  0  0  0  0  0  0  0  0  0  0  0
   -3.6265   -2.4920   -1.0459 C   0  0  0  0  0  0  0  0  0  0  0  0
   -2.6519   -1.5119   -1.1386 C   0  0  0  0  0  0  0  0  0  0  0  0
   -2.9896   -0.1735   -0.8515 C   0  0  0  0  0  0  0  0  0  0  0  0
    6.1704   -0.0425    1.9091 H   0  0  0  0  0  0  0  0  0  0  0  0
    7.3117   -1.0943    1.0629 H   0  0  0  0  0  0  0  0  0  0  0  0
    5.8304   -1.8065    1.7137 H   0  0  0  0  0  0  0  0  0  0  0  0
    4.3720   -0.1725   -2.1434 H   0  0  0  0  0  0  0  0  0  0  0  0
    1.9702    0.3194   -2.4101 H   0  0  0  0  0  0  0  0  0  0  0  0
    3.8549   -0.5459    2.1306 H   0  0  0  0  0  0  0  0  0  0  0  0
    1.3078    0.7965    2.7546 H   0  0  0  0  0  0  0  0  0  0  0  0
    0.9770   -0.9522    2.5714 H   0  0  0  0  0  0  0  0  0  0  0  0
   -0.6256    1.2765    1.5555 H   0  0  0  0  0  0  0  0  0  0  0  0
   -0.9448   -0.4591    1.3632 H   0  0  0  0  0  0  0  0  0  0  0  0
   -1.7627    3.0400   -0.7092 H   0  0  0  0  0  0  0  0  0  0  0  0
   -4.1218    3.5046   -0.0902 H   0  0  0  0  0  0  0  0  0  0  0  0
   -5.7480    1.6555    0.0548 H   0  0  0  0  0  0  0  0  0  0  0  0
   -6.2615   -0.8033   -0.1590 H   0  0  0  0  0  0  0  0  0  0  0  0
   -3.3963   -3.5309   -1.2656 H   0  0  0  0  0  0  0  0  0  0  0  0
   -1.6474   -1.7933   -1.4419 H   0  0  0  0  0  0  0  0  0  0  0  0
  1  2  1  0
  2  3  1  0
  3  4  1  0
  4  5  2  0
  5  6  1  0
  6  7  2  0
  7  8  1  0
  7  9  1  0
  9 10  1  0
 10 11  1  0
 11 12  1  0
 12 13  2  0
 12 14  1  0
 14 15  2  0
 15 16  1  0
 16 17  2  0
 17 18  1  0
 18 19  2  0
 19 20  1  0
 20 21  2  0
 21 22  1  0
 22 23  2  0
  8  3  2  0
 23 14  1  0
 11  6  1  0
 23 18  1  0
  1 24  1  0
  1 25  1  0
  1 26  1  0
  4 27  1  0
  5 28  1  0
  8 29  1  0
  9 30  1  0
  9 31  1  0
 10 32  1  0
 10 33  1  0
 15 34  1  0
 16 35  1  0
 17 36  1  0
 19 37  1  0
 21 38  1  0
 22 39  1  0
M  END
$$$$
OCNT-2317504
     RDKit          3D

 52 54  0  0  0  0  0  0  0  0999 V2000
   -7.1841    1.9870    0.1115 N   0  0  0  0  0  0  0  0  0  0  0  0
   -6.5274    0.4906   -0.2664 S   0  0  0  0  0  0  0  0  0  0  0  0
   -6.6890   -0.3044    0.9267 O   0  0  0  0  0  0  0  0  0  0  0  0
   -7.1200    0.1225   -1.5306 O   0  0  0  0  0  0  0  0  0  0  0  0
   -4.8018    0.9095   -0.5076 C   0  0  0  0  0  0  0  0  0  0  0  0
   -3.9733   -0.2639   -1.0488 C   0  0  0  0  0  0  0  0  0  0  0  0
   -2.6313    0.2619   -1.6026 C   0  0  0  0  0  0  0  0  0  0  0  0
   -1.7294   -0.8828   -2.0667 C   0  0  0  0  0  0  0  0  0  0  0  0
   -1.5345   -1.8292   -0.9707 N   0  0  0  0  0  0  0  0  0  0  0  0
   -0.4681   -1.7587   -0.0817 C   0  0  0  0  0  0  0  0  0  0  0  0
   -0.5156   -2.1848    1.0677 O   0  0  0  0  0  0  0  0  0  0  0  0
    0.6581   -1.1702   -0.6025 N   0  0  0  0  0  0  0  0  0  0  0  0
    1.8588   -1.0670    0.2143 C   0  0  0  0  0  0  0  0  0  0  0  0
    2.9136   -0.1224   -0.4062 C   0  0  0  0  0  0  0  0  0  0  0  0
    2.2992    1.2868   -0.5568 C   0  0  0  0  0  0  0  0  0  0  0  0
    3.3543    2.3199   -0.9187 C   0  0  0  0  0  0  0  0  0  0  0  0
    4.3668    2.4347    0.2121 C   0  0  0  0  0  0  0  0  0  0  0  0
    4.9209    1.0942    0.6246 C   0  0  0  0  0  0  0  0  0  0  0  0
    6.1385    1.0677    1.3260 C   0  0  0  0  0  0  0  0  0  0  0  0
    6.7059   -0.1396    1.7243 C   0  0  0  0  0  0  0  0  0  0  0  0
    6.0642   -1.3338    1.4224 C   0  0  0  0  0  0  0  0  0  0  0  0
    4.8467   -1.3196    0.7389 C   0  0  0  0  0  0  0  0  0  0  0  0
    4.2373   -0.1102    0.3564 C   0  0  0  0  0  0  0  0  0  0  0  0
   -2.7733   -2.4294   -0.4892 C   0  0  0  0  0  0  0  0  0  0  0  0
   -3.7243   -1.3460    0.0229 C   0  0  0  0  0  0  0  0  0  0  0  0
   -7.8830    2.2479   -0.5867 H   0  0  0  0  0  0  0  0  0  0  0  0
   -7.5509    1.9745    1.0654 H   0  0  0  0  0  0  0  0  0  0  0  0
   -4.7948    1.7336   -1.2301 H   0  0  0  0  0  0  0  0  0  0  0  0
   -4.4106    1.2722    0.4483 H   0  0  0  0  0  0  0  0  0  0  0  0
   -4.5163   -0.7313   -1.8812 H   0  0  0  0  0  0  0  0  0  0  0  0
   -2.8137    0.9427   -2.4423 H   0  0  0  0  0  0  0  0  0  0  0  0
   -2.1146    0.8388   -0.8246 H   0  0  0  0  0  0  0  0  0  0  0  0
   -0.7836   -0.4740   -2.4303 H   0  0  0  0  0  0  0  0  0  0  0  0
   -2.1934   -1.4245   -2.8992 H   0  0  0  0  0  0  0  0  0  0  0  0
    0.8132   -1.4357   -1.5635 H   0  0  0  0  0  0  0  0  0  0  0  0
    1.5789   -0.7248    1.2186 H   0  0  0  0  0  0  0  0  0  0  0  0
    2.2378   -2.0887    0.3189 H   0  0  0  0  0  0  0  0  0  0  0  0
    3.1503   -0.4828   -1.4178 H   0  0  0  0  0  0  0  0  0  0  0  0
    1.8062    1.5891    0.3770 H   0  0  0  0  0  0  0  0  0  0  0  0
    1.5253    1.2762   -1.3338 H   0  0  0  0  0  0  0  0  0  0  0  0
    3.8542    2.0310   -1.8516 H   0  0  0  0  0  0  0  0  0  0  0  0
    2.8839    3.2943   -1.0918 H   0  0  0  0  0  0  0  0  0  0  0  0
    3.8957    2.8978    1.0880 H   0  0  0  0  0  0  0  0  0  0  0  0
    5.1812    3.0931   -0.1136 H   0  0  0  0  0  0  0  0  0  0  0  0
    6.6556    1.9964    1.5587 H   0  0  0  0  0  0  0  0  0  0  0  0
    7.6507   -0.1476    2.2606 H   0  0  0  0  0  0  0  0  0  0  0  0
    6.5102   -2.2805    1.7164 H   0  0  0  0  0  0  0  0  0  0  0  0
    4.3882   -2.2769    0.5044 H   0  0  0  0  0  0  0  0  0  0  0  0
   -2.5713   -3.1597    0.3017 H   0  0  0  0  0  0  0  0  0  0  0  0
   -3.2288   -2.9729   -1.3255 H   0  0  0  0  0  0  0  0  0  0  0  0
   -3.2972   -0.8819    0.9209 H   0  0  0  0  0  0  0  0  0  0  0  0
   -4.6657   -1.8197    0.3181 H   0  0  0  0  0  0  0  0  0  0  0  0
  1  2  1  0
  2  3  2  0
  2  4  2  0
  2  5  1  0
  5  6  1  0
  6  7  1  0
  7  8  1  0
  8  9  1  0
  9 10  1  0
 10 11  2  0
 10 12  1  0
 12 13  1  0
 13 14  1  0
 14 15  1  0
 15 16  1  0
 16 17  1  0
 17 18  1  0
 18 19  2  0
 19 20  1  0
 20 21  2  0
 21 22  1  0
 22 23  2  0
  9 24  1  0
 24 25  1  0
 25  6  1  0
 23 14  1  0
 23 18  1  0
  1 26  1  0
  1 27  1  0
  5 28  1  0
  5 29  1  0
  6 30  1  0
  7 31  1  0
  7 32  1  0
  8 33  1  0
  8 34  1  0
 12 35  1  0
 13 36  1  0
 13 37  1  0
 14 38  1  0
 15 39  1  0
 15 40  1  0
 16 41  1  0
 16 42  1  0
 17 43  1  0
 17 44  1  0
 19 45  1  0
 20 46  1  0
 21 47  1  0
 22 48  1  0
 24 49  1  0
 24 50  1  0
 25 51  1  0
 25 52  1  0
M  END
$$$$
OCNT-2317505
     RDKit          3D

 38 40  0  0  0  0  0  0  0  0999 V2000
   -2.3641   -2.6245    0.5736 C   0  0  0  0  0  0  0  0  0  0  0  0
   -2.4056   -1.2104    0.0643 C   0  0  0  0  0  0  0  0  0  0  0  0
   -1.3169   -0.4875   -0.2942 C   0  0  0  0  0  0  0  0  0  0  0  0
    0.0522   -1.0716   -0.2156 C   0  0  0  0  0  0  0  0  0  0  0  0
    0.4322   -1.8253   -1.1091 O   0  0  0  0  0  0  0  0  0  0  0  0
    0.8315   -0.7077    0.8743 N   0  0  0  0  0  0  0  0  0  0  0  0
    0.4114    0.2345    1.9054 C   0  0  0  0  0  0  0  0  0  0  0  0
    2.2387   -1.0962    0.8639 C   0  0  0  0  0  0  0  0  0  0  0  0
    3.1287   -0.0019    0.3180 C   0  0  0  0  0  0  0  0  0  0  0  0
    3.2421    0.1935   -1.0685 C   0  0  0  0  0  0  0  0  0  0  0  0
    4.0446    1.2160   -1.5775 C   0  0  0  0  0  0  0  0  0  0  0  0
    4.7342    2.0505   -0.7040 C   0  0  0  0  0  0  0  0  0  0  0  0
    5.4964    3.0290   -1.2143 F   0  0  0  0  0  0  0  0  0  0  0  0
    4.6305    1.8733    0.6734 C   0  0  0  0  0  0  0  0  0  0  0  0
    5.4758    2.9077    1.7595 Cl  0  0  0  0  0  0  0  0  0  0  0  0
    3.8298    0.8505    1.1865 C   0  0  0  0  0  0  0  0  0  0  0  0
   -1.4760    0.8767   -0.7955 C   0  0  0  0  0  0  0  0  0  0  0  0
   -2.6844    1.4594   -0.8896 C   0  0  0  0  0  0  0  0  0  0  0  0
   -3.8320    0.7242   -0.4995 C   0  0  0  0  0  0  0  0  0  0  0  0
   -5.1856    0.9623   -0.4456 C   0  0  0  0  0  0  0  0  0  0  0  0
   -5.8564   -0.1378    0.0206 N   0  0  0  0  0  0  0  0  0  0  0  0
   -4.9254   -1.0406    0.2423 C   0  0  0  0  0  0  0  0  0  0  0  0
   -3.6603   -0.5793   -0.0476 N   0  0  0  0  0  0  0  0  0  0  0  0
   -2.8085   -2.6831    1.5731 H   0  0  0  0  0  0  0  0  0  0  0  0
   -2.9226   -3.2873   -0.0961 H   0  0  0  0  0  0  0  0  0  0  0  0
   -1.3500   -3.0258    0.6533 H   0  0  0  0  0  0  0  0  0  0  0  0
    0.9028   -0.0157    2.8502 H   0  0  0  0  0  0  0  0  0  0  0  0
    0.6952    1.2453    1.5987 H   0  0  0  0  0  0  0  0  0  0  0  0
   -0.6681    0.1997    2.0668 H   0  0  0  0  0  0  0  0  0  0  0  0
    2.5326   -1.3613    1.8868 H   0  0  0  0  0  0  0  0  0  0  0  0
    2.3832   -2.0045    0.2665 H   0  0  0  0  0  0  0  0  0  0  0  0
    2.7019   -0.4550   -1.7584 H   0  0  0  0  0  0  0  0  0  0  0  0
    4.1348    1.3667   -2.6490 H   0  0  0  0  0  0  0  0  0  0  0  0
    3.7508    0.7189    2.2632 H   0  0  0  0  0  0  0  0  0  0  0  0
   -0.5804    1.4097   -1.1035 H   0  0  0  0  0  0  0  0  0  0  0  0
   -2.7925    2.4712   -1.2681 H   0  0  0  0  0  0  0  0  0  0  0  0
   -5.7143    1.8663   -0.7186 H   0  0  0  0  0  0  0  0  0  0  0  0
   -5.1068   -2.0400    0.6129 H   0  0  0  0  0  0  0  0  0  0  0  0
  1  2  1  0
  2  3  2  0
  3  4  1  0
  4  5  2  0
  4  6  1  0
  6  7  1  0
  6  8  1  0
  8  9  1  0
  9 10  1  0
 10 11  2  0
 11 12  1  0
 12 13  1  0
 12 14  2  0
 14 15  1  0
 14 16  1  0
  3 17  1  0
 17 18  2  0
 18 19  1  0
 19 20  2  0
 20 21  1  0
 21 22  2  0
 22 23  1  0
 23  2  1  0
 16  9  2  0
 23 19  1  0
  1 24  1  0
  1 25  1  0
  1 26  1  0
  7 27  1  0
  7 28  1  0
  7 29  1  0
  8 30  1  0
  8 31  1  0
 10 32  1  0
 11 33  1  0
 16 34  1  0
 17 35  1  0
 18 36  1  0
 20 37  1  0
 22 38  1  0
M  END
$$$$
OCNT-2317519
     RDKit          3D

 38 41  0  0  0  0  0  0  0  0999 V2000
   -0.3425    2.7423   -1.0323 C   0  0  0  0  0  0  0  0  0  0  0  0
   -1.3304    2.1805   -2.0424 C   0  0  0  0  0  0  0  0  0  0  0  0
   -2.0499    0.9808   -1.4883 C   0  0  0  0  0  0  0  0  0  0  0  0
   -1.4113   -0.2027   -1.5760 N   0  0  0  0  0  0  0  0  0  0  0  0
   -1.9713   -1.3129   -1.0504 C   0  0  0  0  0  0  0  0  0  0  0  0
   -1.2873   -2.5313   -1.1185 N   0  0  0  0  0  0  0  0  0  0  0  0
    0.1669   -2.4184   -1.2872 C   0  0  0  0  0  0  0  0  0  0  0  0
    0.9422   -1.8407   -0.1477 C   0  0  0  0  0  0  0  0  0  0  0  0
    1.8017   -0.8466   -0.1171 N   0  0  0  0  0  0  0  0  0  0  0  0
    2.1460   -0.7877    1.2161 C   0  0  0  0  0  0  0  0  0  0  0  0
    3.0740    0.2102    1.7325 C   0  0  0  0  0  0  0  0  0  0  0  0
    3.4360    0.2320    3.0821 C   0  0  0  0  0  0  0  0  0  0  0  0
    4.3209    1.2058    3.5128 C   0  0  0  0  0  0  0  0  0  0  0  0
    4.8589    2.1417    2.7031 N   0  0  0  0  0  0  0  0  0  0  0  0
    4.4953    2.1050    1.4042 C   0  0  0  0  0  0  0  0  0  0  0  0
    3.6187    1.1723    0.8777 C   0  0  0  0  0  0  0  0  0  0  0  0
    1.5539   -1.7278    1.9722 N   0  0  0  0  0  0  0  0  0  0  0  0
    0.7542   -2.4249    1.0704 O   0  0  0  0  0  0  0  0  0  0  0  0
   -3.2382   -1.1986   -0.4471 C   0  0  0  0  0  0  0  0  0  0  0  0
   -4.1228   -2.1458    0.1759 C   0  0  0  0  0  0  0  0  0  0  0  0
   -5.2818   -1.5634    0.6411 C   0  0  0  0  0  0  0  0  0  0  0  0
   -5.3166    0.1179    0.3335 S   0  0  0  0  0  0  0  0  0  0  0  0
   -3.7894    0.0720   -0.4241 C   0  0  0  0  0  0  0  0  0  0  0  0
   -3.2409    1.1924   -0.9171 N   0  0  0  0  0  0  0  0  0  0  0  0
    0.4167    1.9997   -0.7636 H   0  0  0  0  0  0  0  0  0  0  0  0
   -0.8498    3.0506   -0.1118 H   0  0  0  0  0  0  0  0  0  0  0  0
    0.1696    3.6157   -1.4480 H   0  0  0  0  0  0  0  0  0  0  0  0
   -2.0587    2.9519   -2.3175 H   0  0  0  0  0  0  0  0  0  0  0  0
   -0.8027    1.8947   -2.9595 H   0  0  0  0  0  0  0  0  0  0  0  0
   -1.5621   -3.1550   -0.3681 H   0  0  0  0  0  0  0  0  0  0  0  0
    0.5470   -3.4341   -1.4539 H   0  0  0  0  0  0  0  0  0  0  0  0
    0.4030   -1.8711   -2.2088 H   0  0  0  0  0  0  0  0  0  0  0  0
    3.0419   -0.4895    3.7905 H   0  0  0  0  0  0  0  0  0  0  0  0
    4.6298    1.2604    4.5530 H   0  0  0  0  0  0  0  0  0  0  0  0
    4.9416    2.8707    0.7760 H   0  0  0  0  0  0  0  0  0  0  0  0
    3.3669    1.2004   -0.1779 H   0  0  0  0  0  0  0  0  0  0  0  0
   -3.9182   -3.2048    0.2704 H   0  0  0  0  0  0  0  0  0  0  0  0
   -6.1112   -2.0417    1.1445 H   0  0  0  0  0  0  0  0  0  0  0  0
  1  2  1  0
  2  3  1  0
  3  4  2  0
  4  5  1  0
  5  6  1  0
  6  7  1  0
  7  8  1  0
  8  9  2  0
  9 10  1  0
 10 11  1  0
 11 12  2  0
 12 13  1  0
 13 14  2  0
 14 15  1  0
 15 16  2  0
 10 17  2  0
 17 18  1  0
  5 19  2  0
 19 20  1  0
 20 21  2  0
 21 22  1  0
 22 23  1  0
 23 24  2  0
 24  3  1  0
 18  8  1  0
 23 19  1  0
 16 11  1  0
  1 25  1  0
  1 26  1  0
  1 27  1  0
  2 28  1  0
  2 29  1  0
  6 30  1  0
  7 31  1  0
  7 32  1  0
 12 33  1  0
 13 34  1  0
 15 35  1  0
 16 36  1  0
 20 37  1  0
 21 38  1  0
M  END
$$$$
OCNT-2317538
     RDKit          3D

 50 53  0  0  0  0  0  0  0  0999 V2000
   -0.9529   -0.1240    2.2818 C   0  0  0  0  0  0  0  0  0  0  0  0
   -1.8705    0.6842    1.4009 C   0  0  0  0  0  0  0  0  0  0  0  0
   -1.7539    2.0847    1.4860 C   0  0  0  0  0  0  0  0  0  0  0  0
   -2.6512    2.9226    0.8294 C   0  0  0  0  0  0  0  0  0  0  0  0
   -3.7060    2.3745    0.1103 C   0  0  0  0  0  0  0  0  0  0  0  0
   -3.8385    0.9841    0.0081 C   0  0  0  0  0  0  0  0  0  0  0  0
   -2.8687    0.1276    0.5723 C   0  0  0  0  0  0  0  0  0  0  0  0
   -2.9905   -1.2723    0.3183 N   0  0  0  0  0  0  0  0  0  0  0  0
   -1.9329   -2.1475    0.0684 C   0  0  0  0  0  0  0  0  0  0  0  0
   -2.0579   -3.3685    0.2078 O   0  0  0  0  0  0  0  0  0  0  0  0
   -0.6831   -1.5893   -0.5946 C   0  0  0  0  0  0  0  0  0  0  0  0
    0.5265   -2.4591   -0.2716 C   0  0  0  0  0  0  0  0  0  0  0  0
    1.7634   -1.8530   -0.8097 C   0  0  0  0  0  0  0  0  0  0  0  0
    2.5350   -0.9290   -0.2846 N   0  0  0  0  0  0  0  0  0  0  0  0
    3.4904   -0.7693   -1.2578 C   0  0  0  0  0  0  0  0  0  0  0  0
    4.6144    0.2011   -1.1335 C   0  0  0  0  0  0  0  0  0  0  0  0
    4.1208    1.6600   -1.1023 C   0  0  0  0  0  0  0  0  0  0  0  0
    4.8126    2.3072    0.0912 C   0  0  0  0  0  0  0  0  0  0  0  0
    5.0004    1.1589    1.0659 C   0  0  0  0  0  0  0  0  0  0  0  0
    5.4219    0.0096    0.1611 C   0  0  0  0  0  0  0  0  0  0  0  0
    3.3297   -1.5454   -2.3382 N   0  0  0  0  0  0  0  0  0  0  0  0
    2.1753   -2.2721   -2.0407 O   0  0  0  0  0  0  0  0  0  0  0  0
   -4.3245   -1.8422    0.1235 C   0  0  0  0  0  0  0  0  0  0  0  0
   -5.4642   -0.8347    0.0696 C   0  0  0  0  0  0  0  0  0  0  0  0
   -5.0248    0.3954   -0.7078 C   0  0  0  0  0  0  0  0  0  0  0  0
   -0.8887    0.3351    3.2756 H   0  0  0  0  0  0  0  0  0  0  0  0
    0.0551   -0.1636    1.8590 H   0  0  0  0  0  0  0  0  0  0  0  0
   -1.3213   -1.1405    2.4436 H   0  0  0  0  0  0  0  0  0  0  0  0
   -0.9699    2.5302    2.0965 H   0  0  0  0  0  0  0  0  0  0  0  0
   -2.5500    4.0017    0.9135 H   0  0  0  0  0  0  0  0  0  0  0  0
   -4.4326    3.0345   -0.3578 H   0  0  0  0  0  0  0  0  0  0  0  0
   -0.4857   -0.5488   -0.3425 H   0  0  0  0  0  0  0  0  0  0  0  0
   -0.8687   -1.6023   -1.6769 H   0  0  0  0  0  0  0  0  0  0  0  0
    0.3968   -3.4674   -0.6828 H   0  0  0  0  0  0  0  0  0  0  0  0
    0.6292   -2.5748    0.8141 H   0  0  0  0  0  0  0  0  0  0  0  0
    5.2918    0.0661   -1.9871 H   0  0  0  0  0  0  0  0  0  0  0  0
    4.3654    2.1866   -2.0316 H   0  0  0  0  0  0  0  0  0  0  0  0
    3.0325    1.7208   -0.9758 H   0  0  0  0  0  0  0  0  0  0  0  0
    5.7866    2.7093   -0.2121 H   0  0  0  0  0  0  0  0  0  0  0  0
    4.2249    3.1253    0.5175 H   0  0  0  0  0  0  0  0  0  0  0  0
    5.7509    1.3809    1.8308 H   0  0  0  0  0  0  0  0  0  0  0  0
    4.0544    0.9244    1.5686 H   0  0  0  0  0  0  0  0  0  0  0  0
    6.4916    0.1060   -0.0633 H   0  0  0  0  0  0  0  0  0  0  0  0
    5.2735   -0.9639    0.6397 H   0  0  0  0  0  0  0  0  0  0  0  0
   -4.5049   -2.5696    0.9244 H   0  0  0  0  0  0  0  0  0  0  0  0
   -4.3061   -2.4089   -0.8174 H   0  0  0  0  0  0  0  0  0  0  0  0
   -5.7477   -0.5490    1.0913 H   0  0  0  0  0  0  0  0  0  0  0  0
   -6.3476   -1.2906   -0.3906 H   0  0  0  0  0  0  0  0  0  0  0  0
   -4.7479    0.1424   -1.7377 H   0  0  0  0  0  0  0  0  0  0  0  0
   -5.8526    1.1127   -0.7447 H   0  0  0  0  0  0  0  0  0  0  0  0
  1  2  1  0
  2  3  1  0
  3  4  2  0
  4  5  1  0
  5  6  2  0
  6  7  1  0
  7  8  1  0
  8  9  1  0
  9 10  2  0
  9 11  1  0
 11 12  1  0
 12 13  1  0
 13 14  2  0
 14 15  1  0
 15 16  1  0
 16 17  1  0
 17 18  1  0
 18 19  1  0
 19 20  1  0
 15 21  2  0
 21 22  1  0
  8 23  1  0
 23 24  1  0
 24 25  1  0
  7  2  2  0
 22 13  1  0
 25  6  1  0
 20 16  1  0
  1 26  1  0
  1 27  1  0
  1 28  1  0
  3 29  1  0
  4 30  1  0
  5 31  1  0
 11 32  1  0
 11 33  1  0
 12 34  1  0
 12 35  1  0
 16 36  1  0
 17 37  1  0
 17 38  1  0
 18 39  1  0
 18 40  1  0
 19 41  1  0
 19 42  1  0
 20 43  1  0
 20 44  1  0
 23 45  1  0
 23 46  1  0
 24 47  1  0
 24 48  1  0
 25 49  1  0
 25 50  1  0
M  END
$$$$
OCNT-2317577
     RDKit          3D

 50 53  0  0  0  0  0  0  0  0999 V2000
    2.0172    1.4056    0.6706 O   0  0  0  0  0  0  0  0  0  0  0  0
    2.7318    0.5599    0.1245 C   0  0  0  0  0  0  0  0  0  0  0  0
    4.1098    0.6901    0.1758 N   0  0  0  0  0  0  0  0  0  0  0  0
    5.1196   -0.0366   -0.5844 C   0  0  0  0  0  0  0  0  0  0  0  0
    6.4381    0.3923    0.0433 C   0  0  0  0  0  0  0  0  0  0  0  0
    6.1607    1.8341    0.4439 C   0  0  0  0  0  0  0  0  0  0  0  0
    4.7149    1.7865    0.9180 C   0  0  0  0  0  0  0  0  0  0  0  0
    2.1170   -0.6610   -0.6330 C   0  0  0  0  0  0  0  0  0  0  0  0
    2.7323   -0.7774   -1.9337 O   0  0  0  0  0  0  0  0  0  0  0  0
    2.3768   -1.9863    0.1101 C   0  0  0  0  0  0  0  0  0  0  0  0
    1.4602   -2.1906    1.3134 C   0  0  0  0  0  0  0  0  0  0  0  0
   -0.0049   -2.0733    0.9075 C   0  0  0  0  0  0  0  0  0  0  0  0
   -0.2196   -0.7415    0.3415 N   0  0  0  0  0  0  0  0  0  0  0  0
   -1.5803   -0.4429    0.1349 C   0  0  0  0  0  0  0  0  0  0  0  0
   -1.9669    0.8902   -0.0027 C   0  0  0  0  0  0  0  0  0  0  0  0
   -3.3112    1.2121   -0.2004 C   0  0  0  0  0  0  0  0  0  0  0  0
   -4.2724    0.2020   -0.2555 C   0  0  0  0  0  0  0  0  0  0  0  0
   -5.6985    0.4917   -0.4562 C   0  0  0  0  0  0  0  0  0  0  0  0
   -6.6748   -0.0379    0.3967 C   0  0  0  0  0  0  0  0  0  0  0  0
   -8.0082    0.2652    0.1666 C   0  0  0  0  0  0  0  0  0  0  0  0
   -8.4361    1.0479   -0.8446 N   0  0  0  0  0  0  0  0  0  0  0  0
   -7.4876    1.5530   -1.6590 C   0  0  0  0  0  0  0  0  0  0  0  0
   -6.1310    1.3096   -1.5073 C   0  0  0  0  0  0  0  0  0  0  0  0
   -3.7941   -1.0972   -0.1006 C   0  0  0  0  0  0  0  0  0  0  0  0
   -2.4941   -1.4343    0.0936 N   0  0  0  0  0  0  0  0  0  0  0  0
    0.5925   -0.4533   -0.8565 C   0  0  0  0  0  0  0  0  0  0  0  0
    5.0619    0.3005   -1.6252 H   0  0  0  0  0  0  0  0  0  0  0  0
    4.9794   -1.1165   -0.5506 H   0  0  0  0  0  0  0  0  0  0  0  0
    6.6440   -0.2087    0.9372 H   0  0  0  0  0  0  0  0  0  0  0  0
    7.2838    0.2937   -0.6425 H   0  0  0  0  0  0  0  0  0  0  0  0
    6.8444    2.2057    1.2119 H   0  0  0  0  0  0  0  0  0  0  0  0
    6.2454    2.4850   -0.4348 H   0  0  0  0  0  0  0  0  0  0  0  0
    4.6512    1.5409    1.9838 H   0  0  0  0  0  0  0  0  0  0  0  0
    4.1880    2.7288    0.7386 H   0  0  0  0  0  0  0  0  0  0  0  0
    2.5723    0.0658   -2.3950 H   0  0  0  0  0  0  0  0  0  0  0  0
    2.2423   -2.8237   -0.5880 H   0  0  0  0  0  0  0  0  0  0  0  0
    3.4110   -2.0597    0.4574 H   0  0  0  0  0  0  0  0  0  0  0  0
    1.6958   -1.4480    2.0858 H   0  0  0  0  0  0  0  0  0  0  0  0
    1.6430   -3.1790    1.7500 H   0  0  0  0  0  0  0  0  0  0  0  0
   -0.6198   -2.2186    1.8049 H   0  0  0  0  0  0  0  0  0  0  0  0
   -0.2577   -2.8608    0.1853 H   0  0  0  0  0  0  0  0  0  0  0  0
   -1.2262    1.6807    0.0771 H   0  0  0  0  0  0  0  0  0  0  0  0
   -3.5955    2.2578   -0.2847 H   0  0  0  0  0  0  0  0  0  0  0  0
   -6.4086   -0.6663    1.2411 H   0  0  0  0  0  0  0  0  0  0  0  0
   -8.7894   -0.1250    0.8129 H   0  0  0  0  0  0  0  0  0  0  0  0
   -7.8562    2.1789   -2.4667 H   0  0  0  0  0  0  0  0  0  0  0  0
   -5.4280    1.7448   -2.2104 H   0  0  0  0  0  0  0  0  0  0  0  0
   -4.4679   -1.9499   -0.1377 H   0  0  0  0  0  0  0  0  0  0  0  0
    0.2656   -1.1065   -1.6794 H   0  0  0  0  0  0  0  0  0  0  0  0
    0.4300    0.5723   -1.2138 H   0  0  0  0  0  0  0  0  0  0  0  0
  1  2  2  0
  2  3  1  0
  3  4  1  0
  4  5  1  0
  5  6  1  0
  6  7  1  0
  2  8  1  0
  8  9  1  0
  8 10  1  0
 10 11  1  0
 11 12  1  0
 12 13  1  0
 13 14  1  0
 14 15  2  0
 15 16  1  0
 16 17  2  0
 17 18  1  0
 18 19  2  0
 19 20  1  0
 20 21  2  0
 21 22  1  0
 22 23  2  0
 17 24  1  0
 24 25  2  0
 13 26  1  0
  7  3  1  0
 26  8  1  0
 25 14  1  0
 23 18  1  0
  4 27  1  0
  4 28  1  0
  5 29  1  0
  5 30  1  0
  6 31  1  0
  6 32  1  0
  7 33  1  0
  7 34  1  0
  9 35  1  0
 10 36  1  0
 10 37  1  0
 11 38  1  0
 11 39  1  0
 12 40  1  0
 12 41  1  0
 15 42  1  0
 16 43  1  0
 19 44  1  0
 20 45  1  0
 22 46  1  0
 23 47  1  0
 24 48  1  0
 26 49  1  0
 26 50  1  0
M  END
$$$$
OCNT-2317579
     RDKit          3D

 45 47  0  0  0  0  0  0  0  0999 V2000
    1.3509   -2.1062    1.4348 C   0  0  0  0  0  0  0  0  0  0  0  0
    1.6233   -1.4860    0.0689 C   0  0  0  0  0  0  0  0  0  0  0  0
    1.1279   -0.0397   -0.1145 C   0  0  0  0  0  0  0  0  0  0  0  0
    1.7568    1.0143    0.8251 C   0  0  0  0  0  0  0  0  0  0  0  0
    3.2562    1.3230    0.6890 C   0  0  0  0  0  0  0  0  0  0  0  0
    4.2065    0.4041    1.4665 C   0  0  0  0  0  0  0  0  0  0  0  0
    5.5201    0.3961    0.6795 C   0  0  0  0  0  0  0  0  0  0  0  0
    5.3310    1.3823   -0.4665 C   0  0  0  0  0  0  0  0  0  0  0  0
    3.8322    1.3538   -0.7246 C   0  0  0  0  0  0  0  0  0  0  0  0
   -0.3692    0.0143   -0.0551 C   0  0  0  0  0  0  0  0  0  0  0  0
   -1.2372   -0.0356   -1.0389 N   0  0  0  0  0  0  0  0  0  0  0  0
   -2.4510    0.0339   -0.3777 C   0  0  0  0  0  0  0  0  0  0  0  0
   -3.7158    0.0309   -1.1116 C   0  0  0  0  0  0  0  0  0  0  0  0
   -3.6911    0.4201   -2.4609 C   0  0  0  0  0  0  0  0  0  0  0  0
   -4.8719    0.4410   -3.1791 C   0  0  0  0  0  0  0  0  0  0  0  0
   -6.0633    0.1014   -2.6551 N   0  0  0  0  0  0  0  0  0  0  0  0
   -6.0687   -0.2824   -1.3552 C   0  0  0  0  0  0  0  0  0  0  0  0
   -4.9427   -0.3402   -0.5364 C   0  0  0  0  0  0  0  0  0  0  0  0
   -4.9522   -0.7619    0.7639 O   0  0  0  0  0  0  0  0  0  0  0  0
   -6.2124   -1.0103    1.3728 C   0  0  0  0  0  0  0  0  0  0  0  0
   -2.3263    0.1548    0.9541 N   0  0  0  0  0  0  0  0  0  0  0  0
   -0.9536    0.1295    1.1702 O   0  0  0  0  0  0  0  0  0  0  0  0
    0.2782   -2.2222    1.6150 H   0  0  0  0  0  0  0  0  0  0  0  0
    1.7995   -3.1039    1.4840 H   0  0  0  0  0  0  0  0  0  0  0  0
    1.7738   -1.5116    2.2484 H   0  0  0  0  0  0  0  0  0  0  0  0
    1.1510   -2.1246   -0.6897 H   0  0  0  0  0  0  0  0  0  0  0  0
    2.6981   -1.5339   -0.1351 H   0  0  0  0  0  0  0  0  0  0  0  0
    1.3781    0.2504   -1.1437 H   0  0  0  0  0  0  0  0  0  0  0  0
    1.5365    0.7756    1.8735 H   0  0  0  0  0  0  0  0  0  0  0  0
    1.2324    1.9631    0.6355 H   0  0  0  0  0  0  0  0  0  0  0  0
    3.3957    2.3284    1.1160 H   0  0  0  0  0  0  0  0  0  0  0  0
    4.3619    0.7859    2.4820 H   0  0  0  0  0  0  0  0  0  0  0  0
    3.8324   -0.6162    1.5674 H   0  0  0  0  0  0  0  0  0  0  0  0
    5.7028   -0.6094    0.2823 H   0  0  0  0  0  0  0  0  0  0  0  0
    6.3766    0.6630    1.3063 H   0  0  0  0  0  0  0  0  0  0  0  0
    5.9128    1.1072   -1.3509 H   0  0  0  0  0  0  0  0  0  0  0  0
    5.6421    2.3862   -0.1535 H   0  0  0  0  0  0  0  0  0  0  0  0
    3.5831    0.4524   -1.2934 H   0  0  0  0  0  0  0  0  0  0  0  0
    3.4957    2.2267   -1.2918 H   0  0  0  0  0  0  0  0  0  0  0  0
   -2.7635    0.7094   -2.9462 H   0  0  0  0  0  0  0  0  0  0  0  0
   -4.8887    0.7406   -4.2231 H   0  0  0  0  0  0  0  0  0  0  0  0
   -7.0564   -0.5577   -1.0008 H   0  0  0  0  0  0  0  0  0  0  0  0
   -6.7126   -1.8640    0.9042 H   0  0  0  0  0  0  0  0  0  0  0  0
   -6.8469   -0.1181    1.3502 H   0  0  0  0  0  0  0  0  0  0  0  0
   -6.0326   -1.2648    2.4217 H   0  0  0  0  0  0  0  0  0  0  0  0
  1  2  1  0
  2  3  1  0
  3  4  1  0
  4  5  1  0
  5  6  1  0
  6  7  1  0
  7  8  1  0
  8  9  1  0
  3 10  1  0
 10 11  2  0
 11 12  1  0
 12 13  1  0
 13 14  2  0
 14 15  1  0
 15 16  2  0
 16 17  1  0
 17 18  2  0
 18 19  1  0
 19 20  1  0
 12 21  2  0
 21 22  1  0
  9  5  1  0
 22 10  1  0
 18 13  1  0
  1 23  1  0
  1 24  1  0
  1 25  1  0
  2 26  1  0
  2 27  1  0
  3 28  1  0
  4 29  1  0
  4 30  1  0
  5 31  1  0
  6 32  1  0
  6 33  1  0
  7 34  1  0
  7 35  1  0
  8 36  1  0
  8 37  1  0
  9 38  1  0
  9 39  1  0
 14 40  1  0
 15 41  1  0
 17 42  1  0
 20 43  1  0
 20 44  1  0
 20 45  1  0
M  END
$$$$
OCNT-2317597
     RDKit          3D

 42 44  0  0  0  0  0  0  0  0999 V2000
   -3.2582   -2.9024    0.2578 C   0  0  0  0  0  0  0  0  0  0  0  0
   -2.7297   -1.6691    0.9916 C   0  0  0  0  0  0  0  0  0  0  0  0
   -2.5775   -1.9746    2.4862 C   0  0  0  0  0  0  0  0  0  0  0  0
   -1.4130   -1.2373    0.4131 C   0  0  0  0  0  0  0  0  0  0  0  0
   -0.2870   -1.9048    0.5729 N   0  0  0  0  0  0  0  0  0  0  0  0
    0.6898   -1.0662    0.0886 C   0  0  0  0  0  0  0  0  0  0  0  0
    2.1242   -1.4539    0.0538 C   0  0  0  0  0  0  0  0  0  0  0  0
    2.4397   -2.6432   -0.0499 O   0  0  0  0  0  0  0  0  0  0  0  0
    3.1281   -0.4628    0.1225 N   0  0  0  0  0  0  0  0  0  0  0  0
    2.8597    0.9750    0.2215 C   0  0  0  0  0  0  0  0  0  0  0  0
    3.9884    1.7514    0.9093 C   0  0  0  0  0  0  0  0  0  0  0  0
    5.3471    1.2961    0.4912 C   0  0  0  0  0  0  0  0  0  0  0  0
    5.5322    0.1095   -0.0994 C   0  0  0  0  0  0  0  0  0  0  0  0
    6.7961   -0.2256   -0.4466 F   0  0  0  0  0  0  0  0  0  0  0  0
    4.4381   -0.8771   -0.3812 C   0  0  0  0  0  0  0  0  0  0  0  0
    0.1964    0.0800   -0.4031 N   0  0  0  0  0  0  0  0  0  0  0  0
   -1.1437   -0.0503   -0.2581 N   0  0  0  0  0  0  0  0  0  0  0  0
   -2.0107    0.9289   -0.8072 C   0  0  0  0  0  0  0  0  0  0  0  0
   -3.3002    0.6008   -1.2488 C   0  0  0  0  0  0  0  0  0  0  0  0
   -4.1259    1.5818   -1.8097 C   0  0  0  0  0  0  0  0  0  0  0  0
   -3.6717    2.8922   -1.9430 C   0  0  0  0  0  0  0  0  0  0  0  0
   -2.3865    3.2228   -1.5220 C   0  0  0  0  0  0  0  0  0  0  0  0
   -1.5613    2.2464   -0.9644 C   0  0  0  0  0  0  0  0  0  0  0  0
   -0.3518    2.6378   -0.5358 F   0  0  0  0  0  0  0  0  0  0  0  0
   -2.5816   -3.7574    0.3712 H   0  0  0  0  0  0  0  0  0  0  0  0
   -4.2381   -3.1954    0.6495 H   0  0  0  0  0  0  0  0  0  0  0  0
   -3.3681   -2.7128   -0.8151 H   0  0  0  0  0  0  0  0  0  0  0  0
   -3.4701   -0.8680    0.9210 H   0  0  0  0  0  0  0  0  0  0  0  0
   -2.2000   -1.0995    3.0272 H   0  0  0  0  0  0  0  0  0  0  0  0
   -1.8802   -2.8014    2.6633 H   0  0  0  0  0  0  0  0  0  0  0  0
   -3.5427   -2.2500    2.9248 H   0  0  0  0  0  0  0  0  0  0  0  0
    2.7049    1.3488   -0.7979 H   0  0  0  0  0  0  0  0  0  0  0  0
    1.9509    1.1564    0.8002 H   0  0  0  0  0  0  0  0  0  0  0  0
    3.9099    1.6320    1.9968 H   0  0  0  0  0  0  0  0  0  0  0  0
    3.8702    2.8191    0.6934 H   0  0  0  0  0  0  0  0  0  0  0  0
    6.1985    1.9392    0.6871 H   0  0  0  0  0  0  0  0  0  0  0  0
    4.3479   -1.0163   -1.4649 H   0  0  0  0  0  0  0  0  0  0  0  0
    4.7079   -1.8431    0.0599 H   0  0  0  0  0  0  0  0  0  0  0  0
   -3.6777   -0.4161   -1.2271 H   0  0  0  0  0  0  0  0  0  0  0  0
   -5.1222    1.3176   -2.1593 H   0  0  0  0  0  0  0  0  0  0  0  0
   -4.3142    3.6520   -2.3816 H   0  0  0  0  0  0  0  0  0  0  0  0
   -2.0175    4.2397   -1.6191 H   0  0  0  0  0  0  0  0  0  0  0  0
  1  2  1  0
  2  3  1  0
  2  4  1  0
  4  5  2  0
  5  6  1  0
  6  7  1  0
  7  8  2  0
  7  9  1  0
  9 10  1  0
 10 11  1  0
 11 12  1  0
 12 13  2  0
 13 14  1  0
 13 15  1  0
  6 16  2  0
 16 17  1  0
 17 18  1  0
 18 19  2  0
 19 20  1  0
 20 21  2  0
 21 22  1  0
 22 23  2  0
 23 24  1  0
 17  4  1  0
 23 18  1  0
 15  9  1  0
  1 25  1  0
  1 26  1  0
  1 27  1  0
  2 28  1  0
  3 29  1  0
  3 30  1  0
  3 31  1  0
 10 32  1  0
 10 33  1  0
 11 34  1  0
 11 35  1  0
 12 36  1  0
 15 37  1  0
 15 38  1  0
 19 39  1  0
 20 40  1  0
 21 41  1  0
 22 42  1  0
M  END
$$$$
OCNT-2317601
     RDKit          3D

  0  0  0  0  0  0  0  0  0  0999 V3000
M  V30 BEGIN CTAB
M  V30 COUNTS 42 44 0 0 0
M  V30 BEGIN ATOM
M  V30 1 C -5.577556 -1.830767 1.073222 0
M  V30 2 O -5.482557 -0.466438 0.679803 0
M  V30 3 C -4.197188 0.114775 0.954622 0 CFG=2
M  V30 4 C -4.408266 1.627786 1.075541 0
M  V30 5 C -4.678038 2.256969 -0.284038 0
M  V30 6 O -3.618334 1.949017 -1.190956 0
M  V30 7 C -3.547122 0.538870 -1.449585 0
M  V30 8 C -3.182215 -0.218012 -0.162173 0 CFG=1
M  V30 9 N -1.813946 0.122232 0.257389 0
M  V30 10 C -0.739140 -0.530267 -0.310240 0
M  V30 11 O -0.865438 -1.481646 -1.070829 0
M  V30 12 N 0.449495 0.007413 0.103671 0
M  V30 13 C 1.686322 -0.428334 -0.304725 0
M  V30 14 N 2.787151 0.122990 0.209338 0
M  V30 15 N 3.783258 -0.553370 -0.429034 0
M  V30 16 C 5.155050 -0.284662 -0.180125 0
M  V30 17 C 5.523025 0.702271 0.746074 0
M  V30 18 C 6.873741 0.962586 0.987069 0
M  V30 19 C 7.857199 0.242989 0.308493 0
M  V30 20 C 7.495472 -0.739227 -0.613298 0
M  V30 21 C 6.147214 -1.005861 -0.860266 0
M  V30 22 N 3.383311 -1.500673 -1.318763 0
M  V30 23 C 2.053355 -1.416211 -1.235060 0
M  V30 24 H -6.587712 -2.181043 0.844259 0
M  V30 25 H -4.865476 -2.451782 0.524209 0
M  V30 26 H -5.413210 -1.930073 2.150390 0
M  V30 27 H -3.838104 -0.257214 1.923214 0
M  V30 28 H -3.506106 2.079966 1.504488 0
M  V30 29 H -5.245725 1.846346 1.747674 0
M  V30 30 H -4.723311 3.346245 -0.184905 0
M  V30 31 H -5.634390 1.925651 -0.705213 0
M  V30 32 H -4.503448 0.194681 -1.860921 0
M  V30 33 H -2.784113 0.388063 -2.220397 0
M  V30 34 H -3.209394 -1.289902 -0.384358 0
M  V30 35 H -1.661984 1.113021 0.396415 0
M  V30 36 H 0.467258 0.710017 0.824627 0
M  V30 37 H 4.771750 1.274974 1.285757 0
M  V30 38 H 7.159049 1.727705 1.704840 0
M  V30 39 H 8.907956 0.447998 0.498137 0
M  V30 40 H 8.263772 -1.298838 -1.141208 0
M  V30 41 H 5.885491 -1.776200 -1.583423 0
M  V30 42 H 1.432906 -2.062047 -1.841165 0
M  V30 END ATOM
M  V30 BEGIN BOND
M  V30 1 1 1 2
M  V30 2 1 2 3
M  V30 3 1 3 4
M  V30 4 1 4 5
M  V30 5 1 5 6
M  V30 6 1 6 7
M  V30 7 1 7 8
M  V30 8 1 8 9
M  V30 9 1 9 10
M  V30 10 2 10 11
M  V30 11 1 10 12
M  V30 12 1 12 13
M  V30 13 2 13 14
M  V30 14 1 14 15
M  V30 15 1 15 16
M  V30 16 2 16 17
M  V30 17 1 17 18
M  V30 18 2 18 19
M  V30 19 1 19 20
M  V30 20 2 20 21
M  V30 21 1 15 22
M  V30 22 2 22 23
M  V30 23 1 8 3
M  V30 24 1 23 13
M  V30 25 1 21 16
M  V30 26 1 1 24
M  V30 27 1 1 25
M  V30 28 1 1 26
M  V30 29 1 3 27 CFG=1
M  V30 30 1 4 28
M  V30 31 1 4 29
M  V30 32 1 5 30
M  V30 33 1 5 31
M  V30 34 1 7 32
M  V30 35 1 7 33
M  V30 36 1 8 34 CFG=3
M  V30 37 1 9 35
M  V30 38 1 12 36
M  V30 39 1 17 37
M  V30 40 1 18 38
M  V30 41 1 19 39
M  V30 42 1 20 40
M  V30 43 1 21 41
M  V30 44 1 23 42
M  V30 END BOND
M  V30 BEGIN COLLECTION
M  V30 MDLV30/STERAC1 ATOMS=(2 3 8)
M  V30 END COLLECTION
M  V30 END CTAB
M  END
>  <_CXSMILES_Data>  (1223) 
|&1:2,7|

$$$$
OCNT-2317604
     RDKit          3D

 41 43  0  0  0  0  0  0  0  0999 V2000
    1.5432   -2.0245   -0.1166 O   0  0  0  0  0  0  0  0  0  0  0  0
    0.5103   -1.4224   -0.3971 C   0  0  0  0  0  0  0  0  0  0  0  0
    0.5341   -0.1690   -0.9458 N   0  0  0  0  0  0  0  0  0  0  0  0
    1.7922    0.4679   -1.2935 C   0  0  0  0  0  0  0  0  0  0  0  0
    2.6098    0.8869   -0.0715 C   0  0  0  0  0  0  0  0  0  0  0  0
    3.8086    1.6036   -0.4544 N   0  0  0  0  0  0  0  0  0  0  0  0
    3.9488    2.9593   -0.5483 C   0  0  0  0  0  0  0  0  0  0  0  0
    5.2488    3.1508   -0.9554 C   0  0  0  0  0  0  0  0  0  0  0  0
    5.8934    1.9500   -1.1066 N   0  0  0  0  0  0  0  0  0  0  0  0
    5.0050    1.0360   -0.7864 C   0  0  0  0  0  0  0  0  0  0  0  0
   -0.7369   -1.9388   -0.1522 N   0  0  0  0  0  0  0  0  0  0  0  0
   -0.8677   -3.3122    0.3069 C   0  0  0  0  0  0  0  0  0  0  0  0
   -2.2624   -3.7262   -0.1314 C   0  0  0  0  0  0  0  0  0  0  0  0
   -3.0522   -2.4333    0.0063 C   0  0  0  0  0  0  0  0  0  0  0  0
   -2.0507   -1.3571   -0.4422 C   0  0  0  0  0  0  0  0  0  0  0  0
   -2.3341   -0.0357    0.2440 C   0  0  0  0  0  0  0  0  0  0  0  0
   -3.1145    0.9348   -0.4109 C   0  0  0  0  0  0  0  0  0  0  0  0
   -3.3964    2.1572    0.2055 C   0  0  0  0  0  0  0  0  0  0  0  0
   -2.9062    2.4138    1.4809 C   0  0  0  0  0  0  0  0  0  0  0  0
   -3.1788    3.5884    2.0650 F   0  0  0  0  0  0  0  0  0  0  0  0
   -2.1443    1.4615    2.1437 C   0  0  0  0  0  0  0  0  0  0  0  0
   -1.6756    1.7094    3.3743 F   0  0  0  0  0  0  0  0  0  0  0  0
   -1.8599    0.2406    1.5384 C   0  0  0  0  0  0  0  0  0  0  0  0
   -0.2758    0.1049   -1.4782 H   0  0  0  0  0  0  0  0  0  0  0  0
    2.3643   -0.2204   -1.9270 H   0  0  0  0  0  0  0  0  0  0  0  0
    1.5437    1.3452   -1.9019 H   0  0  0  0  0  0  0  0  0  0  0  0
    2.9207    0.0265    0.5305 H   0  0  0  0  0  0  0  0  0  0  0  0
    2.0219    1.5429    0.5815 H   0  0  0  0  0  0  0  0  0  0  0  0
    3.1491    3.6518   -0.3266 H   0  0  0  0  0  0  0  0  0  0  0  0
    5.7552    4.0879   -1.1466 H   0  0  0  0  0  0  0  0  0  0  0  0
    5.1721   -0.0340   -0.7827 H   0  0  0  0  0  0  0  0  0  0  0  0
   -0.7786   -3.3069    1.3991 H   0  0  0  0  0  0  0  0  0  0  0  0
   -0.0899   -3.9582   -0.1113 H   0  0  0  0  0  0  0  0  0  0  0  0
   -2.2502   -4.0429   -1.1812 H   0  0  0  0  0  0  0  0  0  0  0  0
   -2.6695   -4.5430    0.4706 H   0  0  0  0  0  0  0  0  0  0  0  0
   -3.3480   -2.3011    1.0550 H   0  0  0  0  0  0  0  0  0  0  0  0
   -3.9646   -2.4297   -0.5983 H   0  0  0  0  0  0  0  0  0  0  0  0
   -2.0955   -1.2329   -1.5321 H   0  0  0  0  0  0  0  0  0  0  0  0
   -3.5116    0.7446   -1.4069 H   0  0  0  0  0  0  0  0  0  0  0  0
   -3.9968    2.9090   -0.2982 H   0  0  0  0  0  0  0  0  0  0  0  0
   -1.2610   -0.4847    2.0834 H   0  0  0  0  0  0  0  0  0  0  0  0
  1  2  2  0
  2  3  1  0
  3  4  1  0
  4  5  1  0
  5  6  1  0
  6  7  1  0
  7  8  2  0
  8  9  1  0
  9 10  2  0
  2 11  1  0
 11 12  1  0
 12 13  1  0
 13 14  1  0
 14 15  1  0
 15 16  1  0
 16 17  1  0
 17 18  2  0
 18 19  1  0
 19 20  1  0
 19 21  2  0
 21 22  1  0
 21 23  1  0
 10  6  1  0
 15 11  1  0
 23 16  2  0
  3 24  1  0
  4 25  1  0
  4 26  1  0
  5 27  1  0
  5 28  1  0
  7 29  1  0
  8 30  1  0
 10 31  1  0
 12 32  1  0
 12 33  1  0
 13 34  1  0
 13 35  1  0
 14 36  1  0
 14 37  1  0
 15 38  1  0
 17 39  1  0
 18 40  1  0
 23 41  1  0
M  END
$$$$
OCNT-2317612
     RDKit          3D

 42 44  0  0  0  0  0  0  0  0999 V2000
    4.6974   -2.1165   -1.1561 C   0  0  0  0  0  0  0  0  0  0  0  0
    4.7508   -0.6960   -1.2193 O   0  0  0  0  0  0  0  0  0  0  0  0
    4.6110   -0.0722    0.0753 C   0  0  0  0  0  0  0  0  0  0  0  0
    5.0109    1.3924   -0.0989 C   0  0  0  0  0  0  0  0  0  0  0  0
    3.2300   -0.1922    0.6540 C   0  0  0  0  0  0  0  0  0  0  0  0
    2.9581   -1.0060    1.6871 N   0  0  0  0  0  0  0  0  0  0  0  0
    1.5870   -0.8350    1.8799 O   0  0  0  0  0  0  0  0  0  0  0  0
    1.1712    0.0682    0.9439 C   0  0  0  0  0  0  0  0  0  0  0  0
   -0.2852    0.4119    0.9541 C   0  0  0  0  0  0  0  0  0  0  0  0
   -1.1130   -0.1500   -0.1549 N   0  0  0  0  0  0  0  0  0  0  0  0
   -1.1236   -1.6195   -0.2619 C   0  0  0  0  0  0  0  0  0  0  0  0
   -2.0222   -2.2385    0.7984 C   0  0  0  0  0  0  0  0  0  0  0  0
   -3.4506   -1.7617    0.5906 C   0  0  0  0  0  0  0  0  0  0  0  0
   -3.5395   -0.2967    0.2355 C   0  0  0  0  0  0  0  0  0  0  0  0
   -4.8025    0.3111    0.2743 C   0  0  0  0  0  0  0  0  0  0  0  0
   -4.9536    1.6403   -0.1002 C   0  0  0  0  0  0  0  0  0  0  0  0
   -3.8535    2.3640   -0.5610 C   0  0  0  0  0  0  0  0  0  0  0  0
   -4.1316    4.0072   -1.0246 Cl  0  0  0  0  0  0  0  0  0  0  0  0
   -2.5769    1.7730   -0.6445 C   0  0  0  0  0  0  0  0  0  0  0  0
   -1.4298    2.5555   -1.2409 C   0  0  0  0  0  0  0  0  0  0  0  0
   -2.4050    0.4383   -0.1906 C   0  0  0  0  0  0  0  0  0  0  0  0
    2.1449    0.5017    0.1721 N   0  0  0  0  0  0  0  0  0  0  0  0
    3.7071   -2.4582   -0.8414 H   0  0  0  0  0  0  0  0  0  0  0  0
    4.8912   -2.5096   -2.1582 H   0  0  0  0  0  0  0  0  0  0  0  0
    5.4673   -2.5015   -0.4792 H   0  0  0  0  0  0  0  0  0  0  0  0
    5.3367   -0.5313    0.7589 H   0  0  0  0  0  0  0  0  0  0  0  0
    4.9425    1.9444    0.8454 H   0  0  0  0  0  0  0  0  0  0  0  0
    6.0381    1.4653   -0.4741 H   0  0  0  0  0  0  0  0  0  0  0  0
    4.3732    1.8915   -0.8375 H   0  0  0  0  0  0  0  0  0  0  0  0
   -0.7135    0.1092    1.9200 H   0  0  0  0  0  0  0  0  0  0  0  0
   -0.3310    1.5074    0.9489 H   0  0  0  0  0  0  0  0  0  0  0  0
   -0.1083   -2.0214   -0.1686 H   0  0  0  0  0  0  0  0  0  0  0  0
   -1.4653   -1.9067   -1.2672 H   0  0  0  0  0  0  0  0  0  0  0  0
   -1.9829   -3.3350    0.7443 H   0  0  0  0  0  0  0  0  0  0  0  0
   -1.6793   -1.9591    1.8041 H   0  0  0  0  0  0  0  0  0  0  0  0
   -3.9025   -2.3311   -0.2300 H   0  0  0  0  0  0  0  0  0  0  0  0
   -4.0326   -1.9680    1.4972 H   0  0  0  0  0  0  0  0  0  0  0  0
   -5.6767   -0.2544    0.5944 H   0  0  0  0  0  0  0  0  0  0  0  0
   -5.9365    2.1017   -0.0530 H   0  0  0  0  0  0  0  0  0  0  0  0
   -1.0991    3.3318   -0.5441 H   0  0  0  0  0  0  0  0  0  0  0  0
   -1.7318    3.0199   -2.1849 H   0  0  0  0  0  0  0  0  0  0  0  0
   -0.5711    1.9257   -1.4874 H   0  0  0  0  0  0  0  0  0  0  0  0
  1  2  1  0
  2  3  1  0
  3  4  1  0
  3  5  1  0
  5  6  2  0
  6  7  1  0
  7  8  1  0
  8  9  1  0
  9 10  1  0
 10 11  1  0
 11 12  1  0
 12 13  1  0
 13 14  1  0
 14 15  1  0
 15 16  2  0
 16 17  1  0
 17 18  1  0
 17 19  2  0
 19 20  1  0
 19 21  1  0
  8 22  2  0
 22  5  1  0
 21 10  1  0
 21 14  2  0
  1 23  1  0
  1 24  1  0
  1 25  1  0
  3 26  1  0
  4 27  1  0
  4 28  1  0
  4 29  1  0
  9 30  1  0
  9 31  1  0
 11 32  1  0
 11 33  1  0
 12 34  1  0
 12 35  1  0
 13 36  1  0
 13 37  1  0
 15 38  1  0
 16 39  1  0
 20 40  1  0
 20 41  1  0
 20 42  1  0
M  END
$$$$
OCNT-2317666
     RDKit          3D

 44 46  0  0  0  0  0  0  0  0999 V2000
    5.7901    0.6774   -0.9853 C   0  0  0  0  0  0  0  0  0  0  0  0
    5.0870    1.0957    0.3057 C   0  0  0  0  0  0  0  0  0  0  0  0
    5.9068    0.7129    1.5373 C   0  0  0  0  0  0  0  0  0  0  0  0
    3.7310    0.5650    0.3753 N   0  0  0  0  0  0  0  0  0  0  0  0
    3.3720   -0.7548    0.4153 C   0  0  0  0  0  0  0  0  0  0  0  0
    2.0674   -0.9032    0.4716 N   0  0  0  0  0  0  0  0  0  0  0  0
    1.5568    0.3859    0.4723 C   0  0  0  0  0  0  0  0  0  0  0  0
   -0.1464    0.7700    0.5226 S   0  0  0  0  0  0  0  0  0  0  0  0
   -0.2388    1.8215    1.5163 O   0  0  0  0  0  0  0  0  0  0  0  0
   -0.4946    1.0198   -0.8605 O   0  0  0  0  0  0  0  0  0  0  0  0
   -1.0482   -0.5568    1.0801 N   0  0  0  0  0  0  0  0  0  0  0  0
   -0.9229   -1.8164    0.2968 C   0  0  0  0  0  0  0  0  0  0  0  0
   -2.0632   -2.7735    0.6471 C   0  0  0  0  0  0  0  0  0  0  0  0
   -3.3448   -2.2562    0.2807 O   0  0  0  0  0  0  0  0  0  0  0  0
   -3.5214   -0.8601    0.5732 C   0  0  0  0  0  0  0  0  0  0  0  0
   -3.6370   -0.1072   -0.7503 C   0  0  0  0  0  0  0  0  0  0  0  0
   -4.1341    1.3648   -0.6940 C   0  0  0  0  0  0  0  0  0  0  0  0
   -4.8933    1.0832   -2.0058 C   0  0  0  0  0  0  0  0  0  0  0  0
   -4.9125   -0.4013   -1.5903 C   0  0  0  0  0  0  0  0  0  0  0  0
   -2.4474   -0.2512    1.4980 C   0  0  0  0  0  0  0  0  0  0  0  0
    2.5842    1.3078    0.4075 C   0  0  0  0  0  0  0  0  0  0  0  0
    5.9394   -0.4067   -1.0320 H   0  0  0  0  0  0  0  0  0  0  0  0
    6.7722    1.1556   -1.0632 H   0  0  0  0  0  0  0  0  0  0  0  0
    5.2023    0.9698   -1.8624 H   0  0  0  0  0  0  0  0  0  0  0  0
    4.9888    2.1889    0.2951 H   0  0  0  0  0  0  0  0  0  0  0  0
    6.0645   -0.3693    1.5977 H   0  0  0  0  0  0  0  0  0  0  0  0
    6.8899    1.1949    1.5118 H   0  0  0  0  0  0  0  0  0  0  0  0
    5.4005    1.0271    2.4567 H   0  0  0  0  0  0  0  0  0  0  0  0
    4.0944   -1.5612    0.4002 H   0  0  0  0  0  0  0  0  0  0  0  0
   -0.9429   -1.6012   -0.7760 H   0  0  0  0  0  0  0  0  0  0  0  0
    0.0218   -2.3045    0.5474 H   0  0  0  0  0  0  0  0  0  0  0  0
   -1.9312   -3.7217    0.1160 H   0  0  0  0  0  0  0  0  0  0  0  0
   -2.0748   -2.9993    1.7201 H   0  0  0  0  0  0  0  0  0  0  0  0
   -4.4809   -0.7850    1.1000 H   0  0  0  0  0  0  0  0  0  0  0  0
   -2.7358   -0.2110   -1.3684 H   0  0  0  0  0  0  0  0  0  0  0  0
   -3.3570    2.1310   -0.7538 H   0  0  0  0  0  0  0  0  0  0  0  0
   -4.7926    1.5910    0.1529 H   0  0  0  0  0  0  0  0  0  0  0  0
   -5.8692    1.5642   -2.1044 H   0  0  0  0  0  0  0  0  0  0  0  0
   -4.3035    1.2815   -2.9081 H   0  0  0  0  0  0  0  0  0  0  0  0
   -5.7947   -0.6795   -1.0013 H   0  0  0  0  0  0  0  0  0  0  0  0
   -4.7884   -1.1212   -2.4035 H   0  0  0  0  0  0  0  0  0  0  0  0
   -2.5605   -0.6821    2.5015 H   0  0  0  0  0  0  0  0  0  0  0  0
   -2.6065    0.8259    1.6111 H   0  0  0  0  0  0  0  0  0  0  0  0
    2.5736    2.3893    0.3859 H   0  0  0  0  0  0  0  0  0  0  0  0
  1  2  1  0
  2  3  1  0
  2  4  1  0
  4  5  1  0
  5  6  2  0
  6  7  1  0
  7  8  1  0
  8  9  2  0
  8 10  2  0
  8 11  1  0
 11 12  1  0
 12 13  1  0
 13 14  1  0
 14 15  1  0
 15 16  1  0
 16 17  1  0
 17 18  1  0
 18 19  1  0
 15 20  1  0
  7 21  2  0
 21  4  1  0
 20 11  1  0
 19 16  1  0
  1 22  1  0
  1 23  1  0
  1 24  1  0
  2 25  1  0
  3 26  1  0
  3 27  1  0
  3 28  1  0
  5 29  1  0
 12 30  1  0
 12 31  1  0
 13 32  1  0
 13 33  1  0
 15 34  1  0
 16 35  1  0
 17 36  1  0
 17 37  1  0
 18 38  1  0
 18 39  1  0
 19 40  1  0
 19 41  1  0
 20 42  1  0
 20 43  1  0
 21 44  1  0
M  END
$$$$
OCNT-2317671
     RDKit          3D

 37 39  0  0  0  0  0  0  0  0999 V2000
    7.2518   -1.5007   -2.6879 N   0  0  0  0  0  0  0  0  0  0  0  0
    6.7058   -0.4913   -2.0028 C   0  0  0  0  0  0  0  0  0  0  0  0
    7.2683    0.5347   -1.4084 N   0  0  0  0  0  0  0  0  0  0  0  0
    6.2423    1.2830   -0.8658 N   0  0  0  0  0  0  0  0  0  0  0  0
    5.1298    0.6522   -1.1766 C   0  0  0  0  0  0  0  0  0  0  0  0
    3.7317    0.9928   -0.8384 C   0  0  0  0  0  0  0  0  0  0  0  0
    3.4042    0.5480    0.5861 C   0  0  0  0  0  0  0  0  0  0  0  0
    2.0756    0.9554    1.0223 N   0  0  0  0  0  0  0  0  0  0  0  0
    0.9510    0.3281    0.5094 C   0  0  0  0  0  0  0  0  0  0  0  0
    1.0326   -0.5147   -0.3730 O   0  0  0  0  0  0  0  0  0  0  0  0
   -0.1833    0.8068    1.1092 N   0  0  0  0  0  0  0  0  0  0  0  0
   -1.4710    0.3908    0.8957 C   0  0  0  0  0  0  0  0  0  0  0  0
   -2.4860    1.0473    1.4153 N   0  0  0  0  0  0  0  0  0  0  0  0
   -3.6600    0.4115    1.0697 C   0  0  0  0  0  0  0  0  0  0  0  0
   -3.5097   -0.7211    0.2972 C   0  0  0  0  0  0  0  0  0  0  0  0
   -4.6182   -1.5917   -0.1847 C   0  0  0  0  0  0  0  0  0  0  0  0
   -5.9644   -0.8559   -0.0460 C   0  0  0  0  0  0  0  0  0  0  0  0
   -6.0900   -0.1221    1.3018 C   0  0  0  0  0  0  0  0  0  0  0  0
   -4.9906    0.9398    1.4854 C   0  0  0  0  0  0  0  0  0  0  0  0
   -1.8613   -1.0123    0.0034 S   0  0  0  0  0  0  0  0  0  0  0  0
    5.3468   -0.4857   -1.9053 O   0  0  0  0  0  0  0  0  0  0  0  0
    6.6460   -1.9703   -3.3495 H   0  0  0  0  0  0  0  0  0  0  0  0
    8.1870   -1.3321   -3.0396 H   0  0  0  0  0  0  0  0  0  0  0  0
    3.5933    2.0769   -0.9287 H   0  0  0  0  0  0  0  0  0  0  0  0
    3.0501    0.5323   -1.5615 H   0  0  0  0  0  0  0  0  0  0  0  0
    3.4809   -0.5420    0.6823 H   0  0  0  0  0  0  0  0  0  0  0  0
    4.1129    0.9918    1.2954 H   0  0  0  0  0  0  0  0  0  0  0  0
    1.9974    1.2254    1.9929 H   0  0  0  0  0  0  0  0  0  0  0  0
   -0.1257    1.6627    1.6359 H   0  0  0  0  0  0  0  0  0  0  0  0
   -4.6422   -2.5074    0.4185 H   0  0  0  0  0  0  0  0  0  0  0  0
   -4.4673   -1.8849   -1.2296 H   0  0  0  0  0  0  0  0  0  0  0  0
   -6.7848   -1.5736   -0.1588 H   0  0  0  0  0  0  0  0  0  0  0  0
   -6.0657   -0.1244   -0.8583 H   0  0  0  0  0  0  0  0  0  0  0  0
   -7.0738    0.3544    1.3783 H   0  0  0  0  0  0  0  0  0  0  0  0
   -6.0264   -0.8579    2.1139 H   0  0  0  0  0  0  0  0  0  0  0  0
   -5.2252    1.8177    0.8717 H   0  0  0  0  0  0  0  0  0  0  0  0
   -4.9619    1.2661    2.5307 H   0  0  0  0  0  0  0  0  0  0  0  0
  1  2  1  0
  2  3  2  0
  3  4  1  0
  4  5  2  0
  5  6  1  0
  6  7  1  0
  7  8  1  0
  8  9  1  0
  9 10  2  0
  9 11  1  0
 11 12  1  0
 12 13  2  0
 13 14  1  0
 14 15  2  0
 15 16  1  0
 16 17  1  0
 17 18  1  0
 18 19  1  0
 15 20  1  0
  5 21  1  0
 21  2  1  0
 20 12  1  0
 19 14  1  0
  1 22  1  0
  1 23  1  0
  6 24  1  0
  6 25  1  0
  7 26  1  0
  7 27  1  0
  8 28  1  0
 11 29  1  0
 16 30  1  0
 16 31  1  0
 17 32  1  0
 17 33  1  0
 18 34  1  0
 18 35  1  0
 19 36  1  0
 19 37  1  0
M  END
$$$$
OCNT-2317673
     RDKit          3D

 41 44  0  0  0  0  0  0  0  0999 V2000
    4.4650    1.1415   -2.4718 C   0  0  0  0  0  0  0  0  0  0  0  0
    3.7210    2.0566   -1.7286 C   0  0  0  0  0  0  0  0  0  0  0  0
    2.7598    1.6087   -0.8166 C   0  0  0  0  0  0  0  0  0  0  0  0
    2.5392    0.2415   -0.6463 C   0  0  0  0  0  0  0  0  0  0  0  0
    1.6396   -0.3297    0.2094 O   0  0  0  0  0  0  0  0  0  0  0  0
    0.7817    0.5513    0.9454 C   0  0  0  0  0  0  0  0  0  0  0  0
   -0.2027   -0.2530    1.8248 C   0  0  2  0  0  0  0  0  0  0  0  0
    0.5666   -1.2031    2.7755 C   0  0  0  0  0  0  0  0  0  0  0  0
   -0.2158   -2.5068    2.7434 C   0  0  0  0  0  0  0  0  0  0  0  0
   -0.7529   -2.5497    1.3196 C   0  0  0  0  0  0  0  0  0  0  0  0
   -1.0936   -1.1575    1.0761 N   0  0  0  0  0  0  0  0  0  0  0  0
   -1.8553   -0.8144   -0.0246 C   0  0  0  0  0  0  0  0  0  0  0  0
   -2.0790   -1.8180   -0.9171 N   0  0  0  0  0  0  0  0  0  0  0  0
   -2.8051   -1.5615   -2.0149 C   0  0  0  0  0  0  0  0  0  0  0  0
   -3.3573   -0.3331   -2.2797 C   0  0  0  0  0  0  0  0  0  0  0  0
   -3.1709    0.6900   -1.3770 C   0  0  0  0  0  0  0  0  0  0  0  0
   -3.7506    1.8742   -1.6638 N   0  0  0  0  0  0  0  0  0  0  0  0
   -3.5858    2.8661   -0.7671 C   0  0  0  0  0  0  0  0  0  0  0  0
   -2.8591    2.6911    0.3862 C   0  0  0  0  0  0  0  0  0  0  0  0
   -2.2637    1.5184    0.6847 N   0  0  0  0  0  0  0  0  0  0  0  0
   -2.4078    0.4816   -0.2018 C   0  0  0  0  0  0  0  0  0  0  0  0
    3.2897   -0.6695   -1.3942 C   0  0  0  0  0  0  0  0  0  0  0  0
    4.2493   -0.2240   -2.3048 C   0  0  0  0  0  0  0  0  0  0  0  0
    5.2105    1.4924   -3.1803 H   0  0  0  0  0  0  0  0  0  0  0  0
    3.8883    3.1227   -1.8586 H   0  0  0  0  0  0  0  0  0  0  0  0
    2.2029    2.3521   -0.2570 H   0  0  0  0  0  0  0  0  0  0  0  0
    1.3935    1.1782    1.6065 H   0  0  0  0  0  0  0  0  0  0  0  0
    0.2418    1.1967    0.2475 H   0  0  0  0  0  0  0  0  0  0  0  0
   -0.8044    0.4307    2.4342 H   0  0  0  0  0  0  0  0  0  0  0  0
    1.5928   -1.3856    2.4374 H   0  0  0  0  0  0  0  0  0  0  0  0
    0.6310   -0.7921    3.7884 H   0  0  0  0  0  0  0  0  0  0  0  0
   -1.0450   -2.4599    3.4598 H   0  0  0  0  0  0  0  0  0  0  0  0
    0.3998   -3.3770    2.9874 H   0  0  0  0  0  0  0  0  0  0  0  0
   -1.6185   -3.2188    1.2614 H   0  0  0  0  0  0  0  0  0  0  0  0
    0.0196   -2.8905    0.6200 H   0  0  0  0  0  0  0  0  0  0  0  0
   -2.9349   -2.3979   -2.6950 H   0  0  0  0  0  0  0  0  0  0  0  0
   -3.9398   -0.1723   -3.1796 H   0  0  0  0  0  0  0  0  0  0  0  0
   -4.0612    3.8102   -1.0055 H   0  0  0  0  0  0  0  0  0  0  0  0
   -2.7327    3.4895    1.1077 H   0  0  0  0  0  0  0  0  0  0  0  0
    3.1201   -1.7359   -1.2676 H   0  0  0  0  0  0  0  0  0  0  0  0
    4.8241   -0.9431   -2.8817 H   0  0  0  0  0  0  0  0  0  0  0  0
  1  2  2  0
  2  3  1  0
  3  4  2  0
  4  5  1  0
  5  6  1  0
  6  7  1  0
  7  8  1  0
  8  9  1  0
  9 10  1  0
 10 11  1  0
 11 12  1  0
 12 13  1  0
 13 14  2  0
 14 15  1  0
 15 16  2  0
 16 17  1  0
 17 18  2  0
 18 19  1  0
 19 20  2  0
 20 21  1  0
  4 22  1  0
 22 23  2  0
 23  1  1  0
 11  7  1  0
 21 12  2  0
 21 16  1  0
  1 24  1  0
  2 25  1  0
  3 26  1  0
  6 27  1  0
  6 28  1  0
  7 29  1  1
  8 30  1  0
  8 31  1  0
  9 32  1  0
  9 33  1  0
 10 34  1  0
 10 35  1  0
 14 36  1  0
 15 37  1  0
 18 38  1  0
 19 39  1  0
 22 40  1  0
 23 41  1  0
M  END
$$$$
OCNT-2317680
     RDKit          3D

 37 39  0  0  0  0  0  0  0  0999 V2000
   -5.4175    1.4018   -1.2027 O   0  0  0  0  0  0  0  0  0  0  0  0
   -4.9342    1.4091   -0.0842 C   0  0  0  0  0  0  0  0  0  0  0  0
   -5.6497    1.8620    0.9652 O   0  0  0  0  0  0  0  0  0  0  0  0
   -3.5610    0.9394    0.3224 C   0  0  0  0  0  0  0  0  0  0  0  0
   -3.6528   -0.3833    1.0970 C   0  0  0  0  0  0  0  0  0  0  0  0
   -2.5283   -1.3596    0.7523 C   0  0  0  0  0  0  0  0  0  0  0  0
   -1.2080   -0.6366    0.5080 C   0  0  0  0  0  0  0  0  0  0  0  0
   -1.3169    0.3668   -0.5552 N   0  0  0  0  0  0  0  0  0  0  0  0
   -0.2661    0.7186   -1.4029 C   0  0  0  0  0  0  0  0  0  0  0  0
   -0.4212    1.3315   -2.4564 O   0  0  0  0  0  0  0  0  0  0  0  0
    1.1165    0.3411   -1.0302 C   0  0  0  0  0  0  0  0  0  0  0  0
    1.6564    0.7084    0.2041 C   0  0  0  0  0  0  0  0  0  0  0  0
    2.9724    0.3548    0.5176 C   0  0  0  0  0  0  0  0  0  0  0  0
    3.7694   -0.3476   -0.4021 C   0  0  0  0  0  0  0  0  0  0  0  0
    5.1384   -0.7001   -0.0389 C   0  0  0  0  0  0  0  0  0  0  0  0
    6.1541   -0.9576   -0.9444 C   0  0  0  0  0  0  0  0  0  0  0  0
    7.5711   -1.3113   -0.0422 S   0  0  0  0  0  0  0  0  0  0  0  0
    6.8007   -1.1078    1.4265 N   0  0  0  0  0  0  0  0  0  0  0  0
    5.5258   -0.7826    1.2967 N   0  0  0  0  0  0  0  0  0  0  0  0
    3.2182   -0.6908   -1.6469 C   0  0  0  0  0  0  0  0  0  0  0  0
    1.9012   -0.3408   -1.9635 C   0  0  0  0  0  0  0  0  0  0  0  0
   -2.6632    0.8267   -0.9083 C   0  0  0  0  0  0  0  0  0  0  0  0
   -6.5059    2.1344    0.5718 H   0  0  0  0  0  0  0  0  0  0  0  0
   -3.1297    1.7100    0.9762 H   0  0  0  0  0  0  0  0  0  0  0  0
   -4.6165   -0.8817    0.9338 H   0  0  0  0  0  0  0  0  0  0  0  0
   -3.6129   -0.1570    2.1706 H   0  0  0  0  0  0  0  0  0  0  0  0
   -2.4150   -2.0938    1.5577 H   0  0  0  0  0  0  0  0  0  0  0  0
   -2.8051   -1.9201   -0.1498 H   0  0  0  0  0  0  0  0  0  0  0  0
   -0.4339   -1.3673    0.2531 H   0  0  0  0  0  0  0  0  0  0  0  0
   -0.8987   -0.1133    1.4197 H   0  0  0  0  0  0  0  0  0  0  0  0
    1.0683    1.2806    0.9167 H   0  0  0  0  0  0  0  0  0  0  0  0
    3.3775    0.6465    1.4859 H   0  0  0  0  0  0  0  0  0  0  0  0
    6.1531   -0.9487   -2.0233 H   0  0  0  0  0  0  0  0  0  0  0  0
    3.7938   -1.2397   -2.3879 H   0  0  0  0  0  0  0  0  0  0  0  0
    1.4869   -0.5992   -2.9359 H   0  0  0  0  0  0  0  0  0  0  0  0
   -2.5973    1.7947   -1.4200 H   0  0  0  0  0  0  0  0  0  0  0  0
   -3.0699    0.1126   -1.6361 H   0  0  0  0  0  0  0  0  0  0  0  0
  1  2  2  0
  2  3  1  0
  2  4  1  0
  4  5  1  0
  5  6  1  0
  6  7  1  0
  7  8  1  0
  8  9  1  0
  9 10  2  0
  9 11  1  0
 11 12  1  0
 12 13  2  0
 13 14  1  0
 14 15  1  0
 15 16  2  0
 16 17  1  0
 17 18  1  0
 18 19  2  0
 14 20  2  0
 20 21  1  0
  8 22  1  0
 22  4  1  0
 21 11  2  0
 19 15  1  0
  3 23  1  0
  4 24  1  0
  5 25  1  0
  5 26  1  0
  6 27  1  0
  6 28  1  0
  7 29  1  0
  7 30  1  0
 12 31  1  0
 13 32  1  0
 16 33  1  0
 20 34  1  0
 21 35  1  0
 22 36  1  0
 22 37  1  0
M  END
$$$$
OCNT-2317688
     RDKit          3D

 39 41  0  0  0  0  0  0  0  0999 V2000
   -3.4789   -2.8080   -0.6286 C   0  0  0  0  0  0  0  0  0  0  0  0
   -2.5257   -1.8202   -0.2555 O   0  0  0  0  0  0  0  0  0  0  0  0
   -3.0059   -0.5546    0.0010 C   0  0  0  0  0  0  0  0  0  0  0  0
   -4.3565   -0.1888   -0.0312 C   0  0  0  0  0  0  0  0  0  0  0  0
   -4.7451    1.1269    0.2583 C   0  0  0  0  0  0  0  0  0  0  0  0
   -6.1901    1.5255    0.1894 C   0  0  0  0  0  0  0  0  0  0  0  0
   -3.7647    2.0777    0.5568 C   0  0  0  0  0  0  0  0  0  0  0  0
   -2.4142    1.7210    0.5921 C   0  0  0  0  0  0  0  0  0  0  0  0
   -2.0253    0.4103    0.3161 C   0  0  0  0  0  0  0  0  0  0  0  0
   -0.6817   -0.0273    0.3352 N   0  0  0  0  0  0  0  0  0  0  0  0
    0.4557    0.7200    0.5548 C   0  0  0  0  0  0  0  0  0  0  0  0
    0.5212    1.9303    0.7296 O   0  0  0  0  0  0  0  0  0  0  0  0
    1.7231   -0.0624    0.5463 C   0  0  0  0  0  0  0  0  0  0  0  0
    1.7949   -1.3426    1.1066 C   0  0  0  0  0  0  0  0  0  0  0  0
    3.0017   -2.0405    1.0870 C   0  0  0  0  0  0  0  0  0  0  0  0
    4.1404   -1.4605    0.5184 C   0  0  0  0  0  0  0  0  0  0  0  0
    4.0909   -0.1695   -0.0307 C   0  0  0  0  0  0  0  0  0  0  0  0
    5.2619    0.4709   -0.6305 C   0  0  0  0  0  0  0  0  0  0  0  0
    5.2697    1.5290   -1.4206 N   0  0  0  0  0  0  0  0  0  0  0  0
    6.5915    1.7236   -1.6961 C   0  0  0  0  0  0  0  0  0  0  0  0
    7.4234    0.8527   -1.1239 N   0  0  0  0  0  0  0  0  0  0  0  0
    6.5619    0.0769   -0.4464 N   0  0  0  0  0  0  0  0  0  0  0  0
    2.8696    0.5212   -0.0086 C   0  0  0  0  0  0  0  0  0  0  0  0
   -4.1893   -2.9965    0.1829 H   0  0  0  0  0  0  0  0  0  0  0  0
   -3.9949   -2.5307   -1.5537 H   0  0  0  0  0  0  0  0  0  0  0  0
   -2.9366   -3.7394   -0.8175 H   0  0  0  0  0  0  0  0  0  0  0  0
   -5.1303   -0.9086   -0.2770 H   0  0  0  0  0  0  0  0  0  0  0  0
   -6.8384    0.6945    0.4867 H   0  0  0  0  0  0  0  0  0  0  0  0
   -6.3995    2.3587    0.8685 H   0  0  0  0  0  0  0  0  0  0  0  0
   -6.4463    1.8280   -0.8306 H   0  0  0  0  0  0  0  0  0  0  0  0
   -4.0414    3.1089    0.7668 H   0  0  0  0  0  0  0  0  0  0  0  0
   -1.6887    2.4904    0.8365 H   0  0  0  0  0  0  0  0  0  0  0  0
   -0.5808   -1.0067    0.0903 H   0  0  0  0  0  0  0  0  0  0  0  0
    0.9283   -1.7956    1.5817 H   0  0  0  0  0  0  0  0  0  0  0  0
    3.0582   -3.0371    1.5196 H   0  0  0  0  0  0  0  0  0  0  0  0
    5.0570   -2.0443    0.5091 H   0  0  0  0  0  0  0  0  0  0  0  0
    6.9552    2.5217   -2.3307 H   0  0  0  0  0  0  0  0  0  0  0  0
    6.9219   -0.6807    0.1196 H   0  0  0  0  0  0  0  0  0  0  0  0
    2.8075    1.5258   -0.4286 H   0  0  0  0  0  0  0  0  0  0  0  0
  1  2  1  0
  2  3  1  0
  3  4  1  0
  4  5  2  0
  5  6  1  0
  5  7  1  0
  7  8  2  0
  8  9  1  0
  9 10  1  0
 10 11  1  0
 11 12  2  0
 11 13  1  0
 13 14  1  0
 14 15  2  0
 15 16  1  0
 16 17  2  0
 17 18  1  0
 18 19  2  0
 19 20  1  0
 20 21  2  0
 21 22  1  0
 17 23  1  0
  9  3  2  0
 23 13  2  0
 22 18  1  0
  1 24  1  0
  1 25  1  0
  1 26  1  0
  4 27  1  0
  6 28  1  0
  6 29  1  0
  6 30  1  0
  7 31  1  0
  8 32  1  0
 10 33  1  0
 14 34  1  0
 15 35  1  0
 16 36  1  0
 20 37  1  0
 22 38  1  0
 23 39  1  0
M  END
$$$$
OCNT-2317689
     RDKit          3D

 46 49  0  0  0  0  0  0  0  0999 V2000
    2.3040    1.8253   -2.3190 O   0  0  0  0  0  0  0  0  0  0  0  0
    2.0227    1.0314   -1.4202 C   0  0  0  0  0  0  0  0  0  0  0  0
    3.0052    0.7145   -0.3088 C   0  0  0  0  0  0  0  0  0  0  0  0
    4.2429    1.6041   -0.3799 C   0  0  0  0  0  0  0  0  0  0  0  0
    5.1671    1.3674    0.7638 C   0  0  0  0  0  0  0  0  0  0  0  0
    5.6899    2.2768    1.6589 C   0  0  0  0  0  0  0  0  0  0  0  0
    6.4837    1.5427    2.4958 N   0  0  0  0  0  0  0  0  0  0  0  0
    6.4090    0.2394    2.0959 C   0  0  0  0  0  0  0  0  0  0  0  0
    5.6234    0.1010    1.0535 N   0  0  0  0  0  0  0  0  0  0  0  0
    0.7905    0.3821   -1.3733 N   0  0  0  0  0  0  0  0  0  0  0  0
    0.4025   -0.5834   -0.3446 C   0  0  0  0  0  0  0  0  0  0  0  0
   -0.5804   -1.6303   -0.8587 C   0  0  0  0  0  0  0  0  0  0  0  0
   -1.8002   -1.0298   -1.5806 C   0  0  0  0  0  0  0  0  0  0  0  0
   -3.1044   -1.3268   -0.8785 C   0  0  0  0  0  0  0  0  0  0  0  0
   -4.0910   -2.1594   -1.3769 C   0  0  0  0  0  0  0  0  0  0  0  0
   -5.1210   -2.2069   -0.4801 N   0  0  0  0  0  0  0  0  0  0  0  0
   -4.8364   -1.4210    0.6095 C   0  0  0  0  0  0  0  0  0  0  0  0
   -5.5960   -1.1769    1.7605 C   0  0  0  0  0  0  0  0  0  0  0  0
   -5.0524   -0.3208    2.7143 C   0  0  0  0  0  0  0  0  0  0  0  0
   -5.7490   -0.0624    3.8299 F   0  0  0  0  0  0  0  0  0  0  0  0
   -3.8110    0.2724    2.5406 C   0  0  0  0  0  0  0  0  0  0  0  0
   -3.0649    0.0160    1.3843 C   0  0  0  0  0  0  0  0  0  0  0  0
   -3.5787   -0.8496    0.3921 C   0  0  0  0  0  0  0  0  0  0  0  0
   -1.6277    0.4570   -1.9122 C   0  0  0  0  0  0  0  0  0  0  0  0
   -0.2065    0.7376   -2.3805 C   0  0  0  0  0  0  0  0  0  0  0  0
    2.5058    0.8551    0.6565 H   0  0  0  0  0  0  0  0  0  0  0  0
    3.3048   -0.3350   -0.4020 H   0  0  0  0  0  0  0  0  0  0  0  0
    4.7855    1.4212   -1.3156 H   0  0  0  0  0  0  0  0  0  0  0  0
    3.9419    2.6592   -0.3936 H   0  0  0  0  0  0  0  0  0  0  0  0
    5.5730    3.3467    1.7633 H   0  0  0  0  0  0  0  0  0  0  0  0
    7.0266    1.8947    3.2725 H   0  0  0  0  0  0  0  0  0  0  0  0
    6.9443   -0.5549    2.5972 H   0  0  0  0  0  0  0  0  0  0  0  0
   -0.0330   -0.0115    0.4807 H   0  0  0  0  0  0  0  0  0  0  0  0
    1.2838   -1.0949    0.0522 H   0  0  0  0  0  0  0  0  0  0  0  0
   -0.0432   -2.2671   -1.5758 H   0  0  0  0  0  0  0  0  0  0  0  0
   -0.8775   -2.2909   -0.0357 H   0  0  0  0  0  0  0  0  0  0  0  0
   -1.8540   -1.5505   -2.5497 H   0  0  0  0  0  0  0  0  0  0  0  0
   -4.1424   -2.7243   -2.2990 H   0  0  0  0  0  0  0  0  0  0  0  0
   -5.9698   -2.7438   -0.5956 H   0  0  0  0  0  0  0  0  0  0  0  0
   -6.5692   -1.6269    1.9165 H   0  0  0  0  0  0  0  0  0  0  0  0
   -3.4238    0.9365    3.3068 H   0  0  0  0  0  0  0  0  0  0  0  0
   -2.0998    0.4939    1.2608 H   0  0  0  0  0  0  0  0  0  0  0  0
   -1.8472    1.0867   -1.0426 H   0  0  0  0  0  0  0  0  0  0  0  0
   -2.3421    0.7499   -2.6916 H   0  0  0  0  0  0  0  0  0  0  0  0
    0.0234    0.1575   -3.2825 H   0  0  0  0  0  0  0  0  0  0  0  0
   -0.1084    1.7979   -2.6399 H   0  0  0  0  0  0  0  0  0  0  0  0
  1  2  2  0
  2  3  1  0
  3  4  1  0
  4  5  1  0
  5  6  2  0
  6  7  1  0
  7  8  1  0
  8  9  2  0
  2 10  1  0
 10 11  1  0
 11 12  1  0
 12 13  1  0
 13 14  1  0
 14 15  2  0
 15 16  1  0
 16 17  1  0
 17 18  2  0
 18 19  1  0
 19 20  1  0
 19 21  2  0
 21 22  1  0
 22 23  2  0
 13 24  1  0
 24 25  1  0
  9  5  1  0
 25 10  1  0
 23 14  1  0
 23 17  1  0
  3 26  1  0
  3 27  1  0
  4 28  1  0
  4 29  1  0
  6 30  1  0
  7 31  1  0
  8 32  1  0
 11 33  1  0
 11 34  1  0
 12 35  1  0
 12 36  1  0
 13 37  1  0
 15 38  1  0
 16 39  1  0
 18 40  1  0
 21 41  1  0
 22 42  1  0
 24 43  1  0
 24 44  1  0
 25 45  1  0
 25 46  1  0
M  END
$$$$
OCNT-2317716
     RDKit          3D

 43 46  0  0  0  0  0  0  0  0999 V2000
   -3.0840    0.6614    1.8710 O   0  0  0  0  0  0  0  0  0  0  0  0
   -2.4250   -0.1465    1.2371 C   0  0  0  0  0  0  0  0  0  0  0  0
   -2.9037   -1.0654    0.3652 O   0  0  0  0  0  0  0  0  0  0  0  0
   -4.3286   -1.0817    0.1677 C   0  0  0  0  0  0  0  0  0  0  0  0
   -4.6516   -0.3741   -1.1355 C   0  0  0  0  0  0  0  0  0  0  0  0
   -4.5742    1.1765   -1.1520 C   0  0  0  0  0  0  0  0  0  0  0  0
   -5.7971    1.1528   -2.0917 C   0  0  0  0  0  0  0  0  0  0  0  0
   -6.1588   -0.2101   -1.4662 C   0  0  0  0  0  0  0  0  0  0  0  0
   -0.9504   -0.2353    1.3312 C   0  0  0  0  0  0  0  0  0  0  0  0
   -0.2086   -1.1662    0.6054 C   0  0  0  0  0  0  0  0  0  0  0  0
    1.1429   -1.3085    0.6378 N   0  0  0  0  0  0  0  0  0  0  0  0
    1.7411   -0.4269    1.4673 C   0  0  0  0  0  0  0  0  0  0  0  0
    1.1226    0.5405    2.2476 C   0  0  0  0  0  0  0  0  0  0  0  0
   -0.2739    0.6489    2.1827 C   0  0  0  0  0  0  0  0  0  0  0  0
    2.1822    1.1726    2.9321 C   0  0  0  0  0  0  0  0  0  0  0  0
    3.3790    0.6578    2.6305 N   0  0  0  0  0  0  0  0  0  0  0  0
    3.0853   -0.2978    1.7101 N   0  0  0  0  0  0  0  0  0  0  0  0
    4.1424   -1.1042    1.1249 C   0  0  0  0  0  0  0  0  0  0  0  0
    4.6360   -0.5141   -0.1726 C   0  0  0  0  0  0  0  0  0  0  0  0
    5.6017    0.5032   -0.1696 C   0  0  0  0  0  0  0  0  0  0  0  0
    6.0508    1.0564   -1.3695 C   0  0  0  0  0  0  0  0  0  0  0  0
    5.5362    0.6034   -2.5827 C   0  0  0  0  0  0  0  0  0  0  0  0
    4.5683   -0.3992   -2.5978 C   0  0  0  0  0  0  0  0  0  0  0  0
    4.1173   -0.9540   -1.3993 C   0  0  0  0  0  0  0  0  0  0  0  0
   -4.8693   -0.6516    1.0187 H   0  0  0  0  0  0  0  0  0  0  0  0
   -4.6240   -2.1344    0.1024 H   0  0  0  0  0  0  0  0  0  0  0  0
   -4.1003   -0.8234   -1.9749 H   0  0  0  0  0  0  0  0  0  0  0  0
   -3.6602    1.6015   -1.5746 H   0  0  0  0  0  0  0  0  0  0  0  0
   -4.7777    1.6550   -0.1871 H   0  0  0  0  0  0  0  0  0  0  0  0
   -5.5362    1.0956   -3.1547 H   0  0  0  0  0  0  0  0  0  0  0  0
   -6.5264    1.9530   -1.9449 H   0  0  0  0  0  0  0  0  0  0  0  0
   -6.8119   -0.1297   -0.5892 H   0  0  0  0  0  0  0  0  0  0  0  0
   -6.5772   -0.9498   -2.1537 H   0  0  0  0  0  0  0  0  0  0  0  0
   -0.6966   -1.8706   -0.0656 H   0  0  0  0  0  0  0  0  0  0  0  0
   -0.8089    1.3893    2.7702 H   0  0  0  0  0  0  0  0  0  0  0  0
    2.1292    1.9847    3.6459 H   0  0  0  0  0  0  0  0  0  0  0  0
    3.7571   -2.1199    0.9787 H   0  0  0  0  0  0  0  0  0  0  0  0
    4.9579   -1.1766    1.8544 H   0  0  0  0  0  0  0  0  0  0  0  0
    6.0011    0.8771    0.7718 H   0  0  0  0  0  0  0  0  0  0  0  0
    6.7982    1.8455   -1.3563 H   0  0  0  0  0  0  0  0  0  0  0  0
    5.8845    1.0371   -3.5164 H   0  0  0  0  0  0  0  0  0  0  0  0
    4.1599   -0.7458   -3.5436 H   0  0  0  0  0  0  0  0  0  0  0  0
    3.3508   -1.7266   -1.4273 H   0  0  0  0  0  0  0  0  0  0  0  0
  1  2  2  0
  2  3  1  0
  3  4  1  0
  4  5  1  0
  5  6  1  0
  6  7  1  0
  7  8  1  0
  2  9  1  0
  9 10  1  0
 10 11  2  0
 11 12  1  0
 12 13  2  0
 13 14  1  0
 13 15  1  0
 15 16  2  0
 16 17  1  0
 17 18  1  0
 18 19  1  0
 19 20  2  0
 20 21  1  0
 21 22  2  0
 22 23  1  0
 23 24  2  0
  8  5  1  0
 14  9  2  0
 24 19  1  0
 17 12  1  0
  4 25  1  0
  4 26  1  0
  5 27  1  0
  6 28  1  0
  6 29  1  0
  7 30  1  0
  7 31  1  0
  8 32  1  0
  8 33  1  0
 10 34  1  0
 14 35  1  0
 15 36  1  0
 18 37  1  0
 18 38  1  0
 20 39  1  0
 21 40  1  0
 22 41  1  0
 23 42  1  0
 24 43  1  0
M  END
$$$$
OCNT-2317717
     RDKit          3D

 37 39  0  0  0  0  0  0  0  0999 V2000
    4.1862    2.1176    1.4027 C   0  0  0  0  0  0  0  0  0  0  0  0
    3.2522    1.5587    0.4024 C   0  0  0  0  0  0  0  0  0  0  0  0
    2.4600    2.2208   -0.5067 C   0  0  0  0  0  0  0  0  0  0  0  0
    1.8127    1.2363   -1.1981 N   0  0  0  0  0  0  0  0  0  0  0  0
    2.1889    0.0211   -0.6805 C   0  0  0  0  0  0  0  0  0  0  0  0
    1.7449   -1.2717   -1.2057 C   0  0  0  0  0  0  0  0  0  0  0  0
    2.7514   -2.0971   -1.7452 C   0  0  0  0  0  0  0  0  0  0  0  0
    2.4856   -3.4086   -2.1391 C   0  0  0  0  0  0  0  0  0  0  0  0
    1.2099   -3.9310   -1.9719 C   0  0  0  0  0  0  0  0  0  0  0  0
    0.2002   -3.1363   -1.4272 C   0  0  0  0  0  0  0  0  0  0  0  0
    0.4418   -1.7968   -1.0732 C   0  0  0  0  0  0  0  0  0  0  0  0
   -0.6587   -1.1051   -0.5123 N   0  0  0  0  0  0  0  0  0  0  0  0
   -1.0968    0.1399   -0.9420 C   0  0  0  0  0  0  0  0  0  0  0  0
   -0.6234    0.7238   -1.9157 O   0  0  0  0  0  0  0  0  0  0  0  0
   -2.2144    0.6602   -0.1723 C   0  0  0  0  0  0  0  0  0  0  0  0
   -2.7402    0.3319    1.0671 C   0  0  0  0  0  0  0  0  0  0  0  0
   -3.8438    1.2049    1.3058 C   0  0  0  0  0  0  0  0  0  0  0  0
   -4.7504    1.3129    2.4313 C   0  0  0  0  0  0  0  0  0  0  0  0
   -4.4278    0.5680    3.5292 N   0  0  0  0  0  0  0  0  0  0  0  0
   -5.7430    2.0312    2.4339 O   0  0  0  0  0  0  0  0  0  0  0  0
   -3.9171    2.0018    0.1820 C   0  0  0  0  0  0  0  0  0  0  0  0
   -2.9385    1.6927   -0.7024 O   0  0  0  0  0  0  0  0  0  0  0  0
    3.0845    0.1994    0.2755 N   0  0  0  0  0  0  0  0  0  0  0  0
    5.1392    2.3749    0.9300 H   0  0  0  0  0  0  0  0  0  0  0  0
    4.3832    1.3931    2.1996 H   0  0  0  0  0  0  0  0  0  0  0  0
    3.7712    3.0210    1.8614 H   0  0  0  0  0  0  0  0  0  0  0  0
    2.3048    3.2684   -0.7197 H   0  0  0  0  0  0  0  0  0  0  0  0
    1.1102    1.3558   -1.9212 H   0  0  0  0  0  0  0  0  0  0  0  0
    3.7693   -1.7166   -1.8278 H   0  0  0  0  0  0  0  0  0  0  0  0
    3.2822   -4.0240   -2.5494 H   0  0  0  0  0  0  0  0  0  0  0  0
    1.0009   -4.9583   -2.2598 H   0  0  0  0  0  0  0  0  0  0  0  0
   -0.7890   -3.5724   -1.3103 H   0  0  0  0  0  0  0  0  0  0  0  0
   -1.3956   -1.6867   -0.1353 H   0  0  0  0  0  0  0  0  0  0  0  0
   -2.3624   -0.4376    1.7255 H   0  0  0  0  0  0  0  0  0  0  0  0
   -3.5122    0.1652    3.6565 H   0  0  0  0  0  0  0  0  0  0  0  0
   -4.9870    0.7370    4.3553 H   0  0  0  0  0  0  0  0  0  0  0  0
   -4.5793    2.8057   -0.1129 H   0  0  0  0  0  0  0  0  0  0  0  0
  1  2  1  0
  2  3  2  0
  3  4  1  0
  4  5  1  0
  5  6  1  0
  6  7  2  0
  7  8  1  0
  8  9  2  0
  9 10  1  0
 10 11  2  0
 11 12  1  0
 12 13  1  0
 13 14  2  0
 13 15  1  0
 15 16  2  0
 16 17  1  0
 17 18  1  0
 18 19  1  0
 18 20  2  0
 17 21  2  0
 21 22  1  0
  5 23  2  0
 23  2  1  0
 11  6  1  0
 22 15  1  0
  1 24  1  0
  1 25  1  0
  1 26  1  0
  3 27  1  0
  4 28  1  0
  7 29  1  0
  8 30  1  0
  9 31  1  0
 10 32  1  0
 12 33  1  0
 16 34  1  0
 19 35  1  0
 19 36  1  0
 21 37  1  0
M  END
$$$$
OCNT-2317730
     RDKit          3D

 44 45  0  0  0  0  0  0  0  0999 V2000
    3.2216   -0.2051    3.2817 C   0  0  0  0  0  0  0  0  0  0  0  0
    2.7707   -0.6779    2.0192 O   0  0  0  0  0  0  0  0  0  0  0  0
    3.4886   -0.3233    0.9079 C   0  0  0  0  0  0  0  0  0  0  0  0
    4.6972    0.3873    0.9494 C   0  0  0  0  0  0  0  0  0  0  0  0
    5.3777    0.6996   -0.2287 C   0  0  0  0  0  0  0  0  0  0  0  0
    4.8537    0.2993   -1.4471 C   0  0  0  0  0  0  0  0  0  0  0  0
    5.5070    0.5958   -2.5779 F   0  0  0  0  0  0  0  0  0  0  0  0
    3.6595   -0.4069   -1.5120 C   0  0  0  0  0  0  0  0  0  0  0  0
    2.9535   -0.7288   -0.3352 C   0  0  0  0  0  0  0  0  0  0  0  0
    1.6403   -1.4978   -0.4231 C   0  0  0  0  0  0  0  0  0  0  0  0
    1.8515   -2.8835   -1.0451 C   0  0  0  0  0  0  0  0  0  0  0  0
    0.6561   -0.7239   -1.1688 N   0  0  0  0  0  0  0  0  0  0  0  0
   -0.6815   -1.0029   -1.0907 C   0  0  0  0  0  0  0  0  0  0  0  0
   -1.1703   -1.8684   -0.3779 O   0  0  0  0  0  0  0  0  0  0  0  0
   -1.4055   -0.1917   -1.9242 N   0  0  0  0  0  0  0  0  0  0  0  0
   -2.8511   -0.2382   -1.9325 C   0  0  0  0  0  0  0  0  0  0  0  0
   -3.3960    0.6513   -0.8607 C   0  0  0  0  0  0  0  0  0  0  0  0
   -3.9482    0.2075    0.2836 C   0  0  0  0  0  0  0  0  0  0  0  0
   -4.4897    1.1197    1.2740 C   0  0  0  0  0  0  0  0  0  0  0  0
   -5.0656    0.5273    2.5227 C   0  0  0  0  0  0  0  0  0  0  0  0
   -4.4511    2.4384    1.0314 C   0  0  0  0  0  0  0  0  0  0  0  0
   -3.9011    2.9170   -0.1294 N   0  0  0  0  0  0  0  0  0  0  0  0
   -3.3491    2.1232   -1.1063 C   0  0  0  0  0  0  0  0  0  0  0  0
   -2.8379    2.5971   -2.1164 O   0  0  0  0  0  0  0  0  0  0  0  0
    4.1967   -0.6331    3.5360 H   0  0  0  0  0  0  0  0  0  0  0  0
    2.5051   -0.5387    4.0384 H   0  0  0  0  0  0  0  0  0  0  0  0
    3.2485    0.8893    3.3088 H   0  0  0  0  0  0  0  0  0  0  0  0
    5.1395    0.7096    1.8864 H   0  0  0  0  0  0  0  0  0  0  0  0
    6.3132    1.2491   -0.2002 H   0  0  0  0  0  0  0  0  0  0  0  0
    3.2898   -0.7043   -2.4889 H   0  0  0  0  0  0  0  0  0  0  0  0
    1.2196   -1.6582    0.5758 H   0  0  0  0  0  0  0  0  0  0  0  0
    2.6164   -3.4460   -0.4984 H   0  0  0  0  0  0  0  0  0  0  0  0
    2.1637   -2.8184   -2.0934 H   0  0  0  0  0  0  0  0  0  0  0  0
    0.9264   -3.4694   -1.0229 H   0  0  0  0  0  0  0  0  0  0  0  0
    0.9582   -0.2667   -2.0139 H   0  0  0  0  0  0  0  0  0  0  0  0
   -0.9995    0.7113   -2.1296 H   0  0  0  0  0  0  0  0  0  0  0  0
   -3.1826   -1.2744   -1.7998 H   0  0  0  0  0  0  0  0  0  0  0  0
   -3.1898    0.0887   -2.9213 H   0  0  0  0  0  0  0  0  0  0  0  0
   -3.9866   -0.8588    0.4938 H   0  0  0  0  0  0  0  0  0  0  0  0
   -5.4448    1.2992    3.2011 H   0  0  0  0  0  0  0  0  0  0  0  0
   -5.8987   -0.1421    2.2828 H   0  0  0  0  0  0  0  0  0  0  0  0
   -4.3046   -0.0452    3.0638 H   0  0  0  0  0  0  0  0  0  0  0  0
   -4.8373    3.1788    1.7244 H   0  0  0  0  0  0  0  0  0  0  0  0
   -3.8634    3.9142   -0.2999 H   0  0  0  0  0  0  0  0  0  0  0  0
  1  2  1  0
  2  3  1  0
  3  4  1  0
  4  5  2  0
  5  6  1  0
  6  7  1  0
  6  8  2  0
  8  9  1  0
  9 10  1  0
 10 11  1  0
 10 12  1  0
 12 13  1  0
 13 14  2  0
 13 15  1  0
 15 16  1  0
 16 17  1  0
 17 18  2  0
 18 19  1  0
 19 20  1  0
 19 21  2  0
 21 22  1  0
 22 23  1  0
 23 24  2  0
  9  3  2  0
 23 17  1  0
  1 25  1  0
  1 26  1  0
  1 27  1  0
  4 28  1  0
  5 29  1  0
  8 30  1  0
 10 31  1  0
 11 32  1  0
 11 33  1  0
 11 34  1  0
 12 35  1  0
 15 36  1  0
 16 37  1  0
 16 38  1  0
 18 39  1  0
 20 40  1  0
 20 41  1  0
 20 42  1  0
 21 43  1  0
 22 44  1  0
M  END
$$$$
OCNT-2317742
     RDKit          3D

 46 49  0  0  0  0  0  0  0  0999 V2000
   -2.7364   -0.3481    3.0359 C   0  0  0  0  0  0  0  0  0  0  0  0
   -2.8935   -0.8506    1.6311 C   0  0  0  0  0  0  0  0  0  0  0  0
   -2.6696    0.0040    0.5433 C   0  0  0  0  0  0  0  0  0  0  0  0
   -2.8523   -0.4504   -0.7698 C   0  0  0  0  0  0  0  0  0  0  0  0
   -2.6003    0.4328   -1.8885 C   0  0  0  0  0  0  0  0  0  0  0  0
   -1.3601    0.9368   -2.2238 C   0  0  0  0  0  0  0  0  0  0  0  0
   -0.1264    0.7367   -1.6292 N   0  0  0  0  0  0  0  0  0  0  0  0
    1.0300    1.3289   -2.1024 C   0  0  0  0  0  0  0  0  0  0  0  0
    1.0652    2.0844   -3.0714 O   0  0  0  0  0  0  0  0  0  0  0  0
    2.2345    0.9970   -1.3583 C   0  0  0  0  0  0  0  0  0  0  0  0
    2.4065    0.1597   -0.2700 C   0  0  0  0  0  0  0  0  0  0  0  0
    3.7361    0.2176    0.0568 N   0  0  0  0  0  0  0  0  0  0  0  0
    4.3485   -0.5898    1.1288 C   0  0  0  0  0  0  0  0  0  0  0  0
    5.6161    0.0449    1.7585 C   0  0  0  0  0  0  0  0  0  0  0  0
    5.0957   -0.4631    3.1196 C   0  0  0  0  0  0  0  0  0  0  0  0
    3.6784   -0.3923    2.5137 C   0  0  0  0  0  0  0  0  0  0  0  0
    4.4526    0.9915   -0.7728 N   0  0  0  0  0  0  0  0  0  0  0  0
    3.5403    1.4779   -1.6170 C   0  0  0  0  0  0  0  0  0  0  0  0
   -1.5661    1.7146   -3.3341 N   0  0  0  0  0  0  0  0  0  0  0  0
   -2.8441    1.7361   -3.7523 N   0  0  0  0  0  0  0  0  0  0  0  0
   -3.4843    0.9547   -2.8723 C   0  0  0  0  0  0  0  0  0  0  0  0
   -4.9461    0.7325   -2.9991 C   0  0  0  0  0  0  0  0  0  0  0  0
   -3.2789   -1.7621   -0.9951 C   0  0  0  0  0  0  0  0  0  0  0  0
   -3.5172   -2.6136    0.0837 C   0  0  0  0  0  0  0  0  0  0  0  0
   -3.3291   -2.1590    1.3900 C   0  0  0  0  0  0  0  0  0  0  0  0
   -2.4572   -1.1618    3.7133 H   0  0  0  0  0  0  0  0  0  0  0  0
   -3.6754    0.0943    3.3822 H   0  0  0  0  0  0  0  0  0  0  0  0
   -1.9457    0.4073    3.0932 H   0  0  0  0  0  0  0  0  0  0  0  0
   -2.3636    1.0339    0.7201 H   0  0  0  0  0  0  0  0  0  0  0  0
   -0.0940    0.1196   -0.8291 H   0  0  0  0  0  0  0  0  0  0  0  0
    1.7272   -0.4598    0.2969 H   0  0  0  0  0  0  0  0  0  0  0  0
    4.4768   -1.6406    0.8410 H   0  0  0  0  0  0  0  0  0  0  0  0
    5.6774    1.1387    1.7054 H   0  0  0  0  0  0  0  0  0  0  0  0
    6.5701   -0.3793    1.4340 H   0  0  0  0  0  0  0  0  0  0  0  0
    5.2814    0.1904    3.9754 H   0  0  0  0  0  0  0  0  0  0  0  0
    5.4216   -1.4800    3.3666 H   0  0  0  0  0  0  0  0  0  0  0  0
    2.9950   -1.1859    2.8278 H   0  0  0  0  0  0  0  0  0  0  0  0
    3.1902    0.5782    2.6655 H   0  0  0  0  0  0  0  0  0  0  0  0
    3.8549    2.1609   -2.3977 H   0  0  0  0  0  0  0  0  0  0  0  0
   -0.8621    2.2405   -3.8461 H   0  0  0  0  0  0  0  0  0  0  0  0
   -5.4031    1.4527   -3.6858 H   0  0  0  0  0  0  0  0  0  0  0  0
   -5.1448   -0.2742   -3.3802 H   0  0  0  0  0  0  0  0  0  0  0  0
   -5.4392    0.8387   -2.0274 H   0  0  0  0  0  0  0  0  0  0  0  0
   -3.4243   -2.1299   -2.0084 H   0  0  0  0  0  0  0  0  0  0  0  0
   -3.8539   -3.6321   -0.0933 H   0  0  0  0  0  0  0  0  0  0  0  0
   -3.5307   -2.8327    2.2205 H   0  0  0  0  0  0  0  0  0  0  0  0
  1  2  1  0
  2  3  1  0
  3  4  2  0
  4  5  1  0
  5  6  2  0
  6  7  1  0
  7  8  1  0
  8  9  2  0
  8 10  1  0
 10 11  2  0
 11 12  1  0
 12 13  1  0
 13 14  1  0
 14 15  1  0
 15 16  1  0
 12 17  1  0
 17 18  2  0
  6 19  1  0
 19 20  1  0
 20 21  2  0
 21 22  1  0
  4 23  1  0
 23 24  2  0
 24 25  1  0
 25  2  2  0
 21  5  1  0
 18 10  1  0
 16 13  1  0
  1 26  1  0
  1 27  1  0
  1 28  1  0
  3 29  1  0
  7 30  1  0
 11 31  1  0
 13 32  1  0
 14 33  1  0
 14 34  1  0
 15 35  1  0
 15 36  1  0
 16 37  1  0
 16 38  1  0
 18 39  1  0
 19 40  1  0
 22 41  1  0
 22 42  1  0
 22 43  1  0
 23 44  1  0
 24 45  1  0
 25 46  1  0
M  END
$$$$
OCNT-2317753
     RDKit          3D

 44 46  0  0  0  0  0  0  0  0999 V2000
    4.4884   -2.1573   -1.7895 C   0  0  0  0  0  0  0  0  0  0  0  0
    4.4863   -1.6177   -0.4055 C   0  0  0  0  0  0  0  0  0  0  0  0
    5.3087   -2.0150    0.6391 C   0  0  0  0  0  0  0  0  0  0  0  0
    5.0335   -1.0414    2.0226 S   0  0  0  0  0  0  0  0  0  0  0  0
    3.7392   -0.2478    1.1892 C   0  0  0  0  0  0  0  0  0  0  0  0
    2.8117    0.7965    1.8425 C   0  0  0  0  0  0  0  0  0  0  0  0
    3.3564    2.2042    1.5297 C   0  0  0  0  0  0  0  0  0  0  0  0
    2.6725    0.6010    3.3671 C   0  0  0  0  0  0  0  0  0  0  0  0
    1.5178    0.5663    1.1686 N   0  0  0  0  0  0  0  0  0  0  0  0
    0.3510    1.2465    1.4030 C   0  0  0  0  0  0  0  0  0  0  0  0
    0.2585    2.1507    2.2218 O   0  0  0  0  0  0  0  0  0  0  0  0
   -0.7621    0.7943    0.5911 C   0  0  0  0  0  0  0  0  0  0  0  0
   -1.9631    1.4366    0.3399 C   0  0  0  0  0  0  0  0  0  0  0  0
   -2.7785    0.6028   -0.4868 C   0  0  0  0  0  0  0  0  0  0  0  0
   -4.0773    0.7349   -1.0522 C   0  0  0  0  0  0  0  0  0  0  0  0
   -4.9056    1.9738   -0.8326 C   0  0  0  0  0  0  0  0  0  0  0  0
   -4.5964   -0.3632   -1.7865 C   0  0  0  0  0  0  0  0  0  0  0  0
   -5.9779   -0.3181   -2.3884 C   0  0  0  0  0  0  0  0  0  0  0  0
   -3.8183   -1.5118   -1.9846 C   0  0  0  0  0  0  0  0  0  0  0  0
   -2.5339   -1.6318   -1.4545 C   0  0  0  0  0  0  0  0  0  0  0  0
   -2.0480   -0.5612   -0.7049 C   0  0  0  0  0  0  0  0  0  0  0  0
   -0.8457   -0.4216   -0.0484 N   0  0  0  0  0  0  0  0  0  0  0  0
    3.5805   -0.6226   -0.0737 N   0  0  0  0  0  0  0  0  0  0  0  0
    5.3831   -1.8121   -2.3317 H   0  0  0  0  0  0  0  0  0  0  0  0
    4.4894   -3.2513   -1.7770 H   0  0  0  0  0  0  0  0  0  0  0  0
    3.6055   -1.8238   -2.3449 H   0  0  0  0  0  0  0  0  0  0  0  0
    6.0730   -2.7827    0.6424 H   0  0  0  0  0  0  0  0  0  0  0  0
    3.4284    2.3757    0.4424 H   0  0  0  0  0  0  0  0  0  0  0  0
    4.3613    2.3503    1.9531 H   0  0  0  0  0  0  0  0  0  0  0  0
    2.7115    2.9876    1.9436 H   0  0  0  0  0  0  0  0  0  0  0  0
    2.2994   -0.4059    3.6108 H   0  0  0  0  0  0  0  0  0  0  0  0
    1.9733    1.3183    3.8129 H   0  0  0  0  0  0  0  0  0  0  0  0
    3.6300    0.7456    3.8856 H   0  0  0  0  0  0  0  0  0  0  0  0
    1.6164    0.1082    0.2655 H   0  0  0  0  0  0  0  0  0  0  0  0
   -2.2235    2.4146    0.7233 H   0  0  0  0  0  0  0  0  0  0  0  0
   -5.5711    1.8311    0.0281 H   0  0  0  0  0  0  0  0  0  0  0  0
   -5.5007    2.2183   -1.7178 H   0  0  0  0  0  0  0  0  0  0  0  0
   -4.2659    2.8464   -0.6416 H   0  0  0  0  0  0  0  0  0  0  0  0
   -6.2774   -1.2961   -2.7875 H   0  0  0  0  0  0  0  0  0  0  0  0
   -6.0078    0.4035   -3.2107 H   0  0  0  0  0  0  0  0  0  0  0  0
   -6.7183   -0.0441   -1.6290 H   0  0  0  0  0  0  0  0  0  0  0  0
   -4.2174   -2.3419   -2.5590 H   0  0  0  0  0  0  0  0  0  0  0  0
   -1.9483   -2.5301   -1.6106 H   0  0  0  0  0  0  0  0  0  0  0  0
   -0.1388   -1.1401   -0.0049 H   0  0  0  0  0  0  0  0  0  0  0  0
  1  2  1  0
  2  3  2  0
  3  4  1  0
  4  5  1  0
  5  6  1  0
  6  7  1  0
  6  8  1  0
  6  9  1  0
  9 10  1  0
 10 11  2  0
 10 12  1  0
 12 13  2  0
 13 14  1  0
 14 15  2  0
 15 16  1  0
 15 17  1  0
 17 18  1  0
 17 19  2  0
 19 20  1  0
 20 21  2  0
 21 22  1  0
  5 23  2  0
 23  2  1  0
 22 12  1  0
 21 14  1  0
  1 24  1  0
  1 25  1  0
  1 26  1  0
  3 27  1  0
  7 28  1  0
  7 29  1  0
  7 30  1  0
  8 31  1  0
  8 32  1  0
  8 33  1  0
  9 34  1  0
 13 35  1  0
 16 36  1  0
 16 37  1  0
 16 38  1  0
 18 39  1  0
 18 40  1  0
 18 41  1  0
 19 42  1  0
 20 43  1  0
 22 44  1  0
M  END
$$$$
OCNT-2317761
     RDKit          3D

 35 38  0  0  0  0  0  0  0  0999 V2000
    0.6165    0.4826    1.2547 O   0  0  0  0  0  0  0  0  0  0  0  0
    1.0713    0.2425    0.1432 C   0  0  0  0  0  0  0  0  0  0  0  0
    0.3894   -0.2681   -0.9473 N   0  0  0  0  0  0  0  0  0  0  0  0
   -0.9931   -0.5468   -1.0381 C   0  0  0  0  0  0  0  0  0  0  0  0
   -1.4475   -1.1243   -2.2293 C   0  0  0  0  0  0  0  0  0  0  0  0
   -2.7986   -1.4246   -2.4021 C   0  0  0  0  0  0  0  0  0  0  0  0
   -3.7107   -1.1478   -1.3842 C   0  0  0  0  0  0  0  0  0  0  0  0
   -3.2822   -0.5669   -0.1839 C   0  0  0  0  0  0  0  0  0  0  0  0
   -4.2442   -0.2845    0.8716 C   0  0  0  0  0  0  0  0  0  0  0  0
   -4.0902    0.6618    1.8636 C   0  0  0  0  0  0  0  0  0  0  0  0
   -5.2163    0.6064    2.6325 N   0  0  0  0  0  0  0  0  0  0  0  0
   -6.1071   -0.3050    2.2116 N   0  0  0  0  0  0  0  0  0  0  0  0
   -5.5148   -0.8472    1.1440 C   0  0  0  0  0  0  0  0  0  0  0  0
   -1.9163   -0.2721   -0.0241 C   0  0  0  0  0  0  0  0  0  0  0  0
    2.5196    0.4763   -0.0709 C   0  0  0  0  0  0  0  0  0  0  0  0
    3.0073    0.9879   -1.2718 C   0  0  0  0  0  0  0  0  0  0  0  0
    4.3113    1.2225   -1.5606 N   0  0  0  0  0  0  0  0  0  0  0  0
    5.1658    0.9459   -0.5444 C   0  0  0  0  0  0  0  0  0  0  0  0
    6.5658    1.0571   -0.4416 C   0  0  0  0  0  0  0  0  0  0  0  0
    7.0235    0.6775    0.7578 N   0  0  0  0  0  0  0  0  0  0  0  0
    5.9037    0.3313    1.4234 N   0  0  0  0  0  0  0  0  0  0  0  0
    4.7552    0.4616    0.6903 C   0  0  0  0  0  0  0  0  0  0  0  0
    3.4123    0.2133    0.9732 C   0  0  0  0  0  0  0  0  0  0  0  0
    0.9347   -0.5410   -1.7553 H   0  0  0  0  0  0  0  0  0  0  0  0
   -0.7600   -1.3501   -3.0403 H   0  0  0  0  0  0  0  0  0  0  0  0
   -3.1429   -1.8718   -3.3313 H   0  0  0  0  0  0  0  0  0  0  0  0
   -4.7600   -1.3810   -1.5485 H   0  0  0  0  0  0  0  0  0  0  0  0
   -3.2998    1.3631    2.0907 H   0  0  0  0  0  0  0  0  0  0  0  0
   -5.4436    1.1600    3.4519 H   0  0  0  0  0  0  0  0  0  0  0  0
   -6.0321   -1.6339    0.6106 H   0  0  0  0  0  0  0  0  0  0  0  0
   -1.5853    0.1670    0.9106 H   0  0  0  0  0  0  0  0  0  0  0  0
    2.3316    1.2587   -2.0801 H   0  0  0  0  0  0  0  0  0  0  0  0
    7.2633    1.3994   -1.1935 H   0  0  0  0  0  0  0  0  0  0  0  0
    5.9959    0.0096    2.3809 H   0  0  0  0  0  0  0  0  0  0  0  0
    3.0774   -0.1596    1.9355 H   0  0  0  0  0  0  0  0  0  0  0  0
  1  2  2  0
  2  3  1  0
  3  4  1  0
  4  5  2  0
  5  6  1  0
  6  7  2  0
  7  8  1  0
  8  9  1  0
  9 10  2  0
 10 11  1  0
 11 12  1  0
 12 13  2  0
  8 14  2  0
  2 15  1  0
 15 16  1  0
 16 17  2  0
 17 18  1  0
 18 19  1  0
 19 20  2  0
 20 21  1  0
 21 22  1  0
 22 23  1  0
 14  4  1  0
 23 15  2  0
 13  9  1  0
 22 18  2  0
  3 24  1  0
  5 25  1  0
  6 26  1  0
  7 27  1  0
 10 28  1  0
 11 29  1  0
 13 30  1  0
 14 31  1  0
 16 32  1  0
 19 33  1  0
 21 34  1  0
 23 35  1  0
M  END
$$$$
OCNT-2317767
     RDKit          3D

 49 53  0  0  0  0  0  0  0  0999 V2000
    1.9753    3.8156   -0.8151 O   0  0  0  0  0  0  0  0  0  0  0  0
    2.2965    2.6676   -0.4783 C   0  0  0  0  0  0  0  0  0  0  0  0
    3.7602    2.2777   -0.5110 C   0  0  0  0  0  0  0  0  0  0  0  0
    4.0265    0.8793   -0.2532 N   0  0  0  0  0  0  0  0  0  0  0  0
    3.6372   -0.0477   -1.1529 N   0  0  0  0  0  0  0  0  0  0  0  0
    3.9893   -1.2407   -0.6856 N   0  0  0  0  0  0  0  0  0  0  0  0
    4.5454   -1.0559    0.5596 C   0  0  0  0  0  0  0  0  0  0  0  0
    5.0452   -1.9887    1.4810 C   0  0  0  0  0  0  0  0  0  0  0  0
    5.5444   -1.5206    2.7038 C   0  0  0  0  0  0  0  0  0  0  0  0
    5.5523   -0.1502    3.0020 C   0  0  0  0  0  0  0  0  0  0  0  0
    5.0657    0.8006    2.0911 C   0  0  0  0  0  0  0  0  0  0  0  0
    4.5692    0.3038    0.8721 C   0  0  0  0  0  0  0  0  0  0  0  0
    1.4032    1.7913    0.0991 N   0  0  0  0  0  0  0  0  0  0  0  0
    0.2214    1.5083   -0.5473 C   0  0  0  0  0  0  0  0  0  0  0  0
   -0.0902    1.9147   -1.6569 O   0  0  0  0  0  0  0  0  0  0  0  0
   -0.5455    0.6536    0.2236 N   0  0  0  0  0  0  0  0  0  0  0  0
   -1.8389    0.1059   -0.2077 C   0  0  0  0  0  0  0  0  0  0  0  0
   -2.8770    1.2125   -0.5237 C   0  0  0  0  0  0  0  0  0  0  0  0
   -4.2270    0.5861   -0.9253 C   0  0  0  0  0  0  0  0  0  0  0  0
   -4.7560   -0.2612    0.2438 C   0  0  0  0  0  0  0  0  0  0  0  0
   -3.7563   -1.3823    0.5743 C   0  0  0  0  0  0  0  0  0  0  0  0
   -3.5637   -2.2765   -0.6621 C   0  0  0  0  0  0  0  0  0  0  0  0
   -3.0278   -1.4396   -1.8369 C   0  0  0  0  0  0  0  0  0  0  0  0
   -4.0282   -0.3153   -2.1576 C   0  0  0  0  0  0  0  0  0  0  0  0
   -1.6767   -0.8147   -1.4472 C   0  0  0  0  0  0  0  0  0  0  0  0
   -2.4017   -0.7616    0.9544 C   0  0  0  0  0  0  0  0  0  0  0  0
    4.1637    2.5002   -1.5074 H   0  0  0  0  0  0  0  0  0  0  0  0
    4.2960    2.8796    0.2307 H   0  0  0  0  0  0  0  0  0  0  0  0
    5.0322   -3.0552    1.2450 H   0  0  0  0  0  0  0  0  0  0  0  0
    5.9415   -2.2342    3.4264 H   0  0  0  0  0  0  0  0  0  0  0  0
    5.9557    0.1866    3.9617 H   0  0  0  0  0  0  0  0  0  0  0  0
    5.0918    1.8604    2.3231 H   0  0  0  0  0  0  0  0  0  0  0  0
    1.7666    0.9386    0.5080 H   0  0  0  0  0  0  0  0  0  0  0  0
   -0.4522    0.8205    1.2252 H   0  0  0  0  0  0  0  0  0  0  0  0
   -2.5341    1.8642   -1.3364 H   0  0  0  0  0  0  0  0  0  0  0  0
   -3.0122    1.8616    0.3531 H   0  0  0  0  0  0  0  0  0  0  0  0
   -4.9456    1.3798   -1.1641 H   0  0  0  0  0  0  0  0  0  0  0  0
   -5.7315   -0.6933   -0.0161 H   0  0  0  0  0  0  0  0  0  0  0  0
   -4.9129    0.3766    1.1213 H   0  0  0  0  0  0  0  0  0  0  0  0
   -4.1342   -1.9841    1.4090 H   0  0  0  0  0  0  0  0  0  0  0  0
   -2.8642   -3.0906   -0.4302 H   0  0  0  0  0  0  0  0  0  0  0  0
   -4.5167   -2.7461   -0.9388 H   0  0  0  0  0  0  0  0  0  0  0  0
   -2.8954   -2.0831   -2.7159 H   0  0  0  0  0  0  0  0  0  0  0  0
   -4.9903   -0.7469   -2.4610 H   0  0  0  0  0  0  0  0  0  0  0  0
   -3.6661    0.2797   -3.0035 H   0  0  0  0  0  0  0  0  0  0  0  0
   -0.9482   -1.6108   -1.2335 H   0  0  0  0  0  0  0  0  0  0  0  0
   -1.2792   -0.2542   -2.3036 H   0  0  0  0  0  0  0  0  0  0  0  0
   -1.6896   -1.5612    1.2121 H   0  0  0  0  0  0  0  0  0  0  0  0
   -2.5179   -0.1503    1.8663 H   0  0  0  0  0  0  0  0  0  0  0  0
  1  2  2  0
  2  3  1  0
  3  4  1  0
  4  5  1  0
  5  6  2  0
  6  7  1  0
  7  8  2  0
  8  9  1  0
  9 10  2  0
 10 11  1  0
 11 12  2  0
  2 13  1  0
 13 14  1  0
 14 15  2  0
 14 16  1  0
 16 17  1  0
 17 18  1  0
 18 19  1  0
 19 20  1  0
 20 21  1  0
 21 22  1  0
 22 23  1  0
 23 24  1  0
 23 25  1  0
 21 26  1  0
 12  4  1  0
 25 17  1  0
 12  7  1  0
 26 17  1  0
 24 19  1  0
  3 27  1  0
  3 28  1  0
  8 29  1  0
  9 30  1  0
 10 31  1  0
 11 32  1  0
 13 33  1  0
 16 34  1  0
 18 35  1  0
 18 36  1  0
 19 37  1  0
 20 38  1  0
 20 39  1  0
 21 40  1  0
 22 41  1  0
 22 42  1  0
 23 43  1  0
 24 44  1  0
 24 45  1  0
 25 46  1  0
 25 47  1  0
 26 48  1  0
 26 49  1  0
M  END
$$$$
OCNT-2317783
     RDKit          3D

 37 39  0  0  0  0  0  0  0  0999 V2000
   -3.6949   -1.3543    0.0933 C   0  0  0  0  0  0  0  0  0  0  0  0
   -4.1640   -0.2338   -0.6465 O   0  0  0  0  0  0  0  0  0  0  0  0
   -3.1120    0.4852   -1.3005 C   0  0  1  0  0  0  0  0  0  0  0  0
   -3.7170    1.5689   -2.2093 C   0  0  0  0  0  0  0  0  0  0  0  0
   -3.3314    2.8817   -1.6594 N   0  0  0  0  0  0  0  0  0  0  0  0
   -2.0486    2.6251   -0.9892 C   0  0  0  0  0  0  0  0  0  0  0  0
   -2.2289    1.2657   -0.3125 C   0  0  0  0  0  0  0  0  0  0  0  0
   -0.9654    0.6054   -0.0277 N   0  0  0  0  0  0  0  0  0  0  0  0
   -0.1655    0.9852    1.0299 C   0  0  0  0  0  0  0  0  0  0  0  0
   -0.4982    1.7992    1.8823 O   0  0  0  0  0  0  0  0  0  0  0  0
    1.1804    0.3259    1.0495 C   0  0  0  0  0  0  0  0  0  0  0  0
    2.0650    0.5933    2.0810 C   0  0  0  0  0  0  0  0  0  0  0  0
    3.3025   -0.0380    2.0526 C   0  0  0  0  0  0  0  0  0  0  0  0
    3.6159   -0.9097    1.0013 C   0  0  0  0  0  0  0  0  0  0  0  0
    4.8564   -1.5658    0.9393 C   0  0  0  0  0  0  0  0  0  0  0  0
    5.1408   -2.4272   -0.1180 C   0  0  0  0  0  0  0  0  0  0  0  0
    4.1862   -2.6297   -1.1083 C   0  0  0  0  0  0  0  0  0  0  0  0
    4.5294   -3.6924   -2.4175 Cl  0  0  0  0  0  0  0  0  0  0  0  0
    2.9535   -1.9800   -1.0504 C   0  0  0  0  0  0  0  0  0  0  0  0
    2.6468   -1.1183   -0.0086 C   0  0  0  0  0  0  0  0  0  0  0  0
    1.4477   -0.5136    0.0077 N   0  0  0  0  0  0  0  0  0  0  0  0
   -3.1099   -2.0232   -0.5451 H   0  0  0  0  0  0  0  0  0  0  0  0
   -3.1004   -1.0338    0.9530 H   0  0  0  0  0  0  0  0  0  0  0  0
   -4.5639   -1.9033    0.4662 H   0  0  0  0  0  0  0  0  0  0  0  0
   -2.5299   -0.2115   -1.9175 H   0  0  0  0  0  0  0  0  0  0  0  0
   -4.8056    1.4925   -2.2981 H   0  0  0  0  0  0  0  0  0  0  0  0
   -3.2923    1.4840   -3.2164 H   0  0  0  0  0  0  0  0  0  0  0  0
   -4.0175    3.1290   -0.9418 H   0  0  0  0  0  0  0  0  0  0  0  0
   -1.2421    2.6009   -1.7325 H   0  0  0  0  0  0  0  0  0  0  0  0
   -1.8116    3.4148   -0.2691 H   0  0  0  0  0  0  0  0  0  0  0  0
   -2.7586    1.4040    0.6397 H   0  0  0  0  0  0  0  0  0  0  0  0
   -0.5061    0.0363   -0.7355 H   0  0  0  0  0  0  0  0  0  0  0  0
    1.7992    1.2735    2.8839 H   0  0  0  0  0  0  0  0  0  0  0  0
    4.0160    0.1541    2.8508 H   0  0  0  0  0  0  0  0  0  0  0  0
    5.6062   -1.4098    1.7123 H   0  0  0  0  0  0  0  0  0  0  0  0
    6.1017   -2.9333   -0.1630 H   0  0  0  0  0  0  0  0  0  0  0  0
    2.2163   -2.1471   -1.8313 H   0  0  0  0  0  0  0  0  0  0  0  0
  1  2  1  0
  2  3  1  0
  3  4  1  0
  4  5  1  0
  5  6  1  0
  6  7  1  0
  7  8  1  0
  8  9  1  0
  9 10  2  0
  9 11  1  0
 11 12  1  0
 12 13  2  0
 13 14  1  0
 14 15  2  0
 15 16  1  0
 16 17  2  0
 17 18  1  0
 17 19  1  0
 19 20  2  0
 20 21  1  0
  7  3  1  0
 21 11  2  0
 20 14  1  0
  1 22  1  0
  1 23  1  0
  1 24  1  0
  3 25  1  6
  4 26  1  0
  4 27  1  0
  5 28  1  0
  6 29  1  0
  6 30  1  0
  7 31  1  0
  8 32  1  0
 12 33  1  0
 13 34  1  0
 15 35  1  0
 16 36  1  0
 19 37  1  0
M  END
$$$$
OCNT-2317789
     RDKit          3D

 42 45  0  0  0  0  0  0  0  0999 V2000
   -1.9475   -2.6390    1.8831 C   0  0  0  0  0  0  0  0  0  0  0  0
   -2.2817   -1.3331    1.3577 N   0  0  0  0  0  0  0  0  0  0  0  0
   -3.0243   -0.5005    2.1175 N   0  0  0  0  0  0  0  0  0  0  0  0
   -3.2330    0.5747    1.3447 C   0  0  0  0  0  0  0  0  0  0  0  0
   -3.9874    1.7313    1.6008 C   0  0  0  0  0  0  0  0  0  0  0  0
   -3.9999    2.6547    0.5333 C   0  0  0  0  0  0  0  0  0  0  0  0
   -3.3137    2.4410   -0.7014 C   0  0  0  0  0  0  0  0  0  0  0  0
   -2.5458    1.2929   -0.9838 C   0  0  0  0  0  0  0  0  0  0  0  0
   -2.5375    0.4031    0.0915 C   0  0  0  0  0  0  0  0  0  0  0  0
   -1.8787   -0.8064    0.1521 C   0  0  0  0  0  0  0  0  0  0  0  0
   -1.0315   -1.5015   -0.7836 C   0  0  0  0  0  0  0  0  0  0  0  0
   -1.2027   -2.6944   -1.0279 O   0  0  0  0  0  0  0  0  0  0  0  0
    0.0095   -0.7841   -1.3883 N   0  0  0  0  0  0  0  0  0  0  0  0
    0.7992   -1.4632   -2.4122 C   0  0  0  0  0  0  0  0  0  0  0  0
    2.0590   -2.0712   -1.7977 C   0  0  0  0  0  0  0  0  0  0  0  0
    2.8764   -1.0057   -1.0609 C   0  0  0  0  0  0  0  0  0  0  0  0
    2.0107   -0.2393   -0.0421 C   0  0  0  0  0  0  0  0  0  0  0  0
    2.7550    0.8148    0.6290 N   0  0  0  0  0  0  0  0  0  0  0  0
    3.3539    1.8998    0.0503 C   0  0  0  0  0  0  0  0  0  0  0  0
    3.9161    2.5955    1.0951 C   0  0  0  0  0  0  0  0  0  0  0  0
    3.6717    1.9638    2.2854 N   0  0  0  0  0  0  0  0  0  0  0  0
    2.9704    0.8972    1.9761 C   0  0  0  0  0  0  0  0  0  0  0  0
    0.7272    0.3007   -0.7029 C   0  0  0  0  0  0  0  0  0  0  0  0
   -2.2102   -2.6818    2.9436 H   0  0  0  0  0  0  0  0  0  0  0  0
   -0.8728   -2.8010    1.7691 H   0  0  0  0  0  0  0  0  0  0  0  0
   -2.5186   -3.3866    1.3278 H   0  0  0  0  0  0  0  0  0  0  0  0
   -4.5158    1.8901    2.5303 H   0  0  0  0  0  0  0  0  0  0  0  0
   -4.5690    3.5768    0.6545 H   0  0  0  0  0  0  0  0  0  0  0  0
   -3.3939    3.2114   -1.4695 H   0  0  0  0  0  0  0  0  0  0  0  0
   -2.0419    1.1450   -1.9291 H   0  0  0  0  0  0  0  0  0  0  0  0
    1.0659   -0.7192   -3.1722 H   0  0  0  0  0  0  0  0  0  0  0  0
    0.2062   -2.2380   -2.9093 H   0  0  0  0  0  0  0  0  0  0  0  0
    1.7818   -2.8636   -1.0917 H   0  0  0  0  0  0  0  0  0  0  0  0
    2.6707   -2.5323   -2.5807 H   0  0  0  0  0  0  0  0  0  0  0  0
    3.2995   -0.3125   -1.7991 H   0  0  0  0  0  0  0  0  0  0  0  0
    3.7262   -1.4784   -0.5536 H   0  0  0  0  0  0  0  0  0  0  0  0
    1.7126   -0.9536    0.7387 H   0  0  0  0  0  0  0  0  0  0  0  0
    3.3396    2.0886   -1.0137 H   0  0  0  0  0  0  0  0  0  0  0  0
    4.4830    3.5167    1.0536 H   0  0  0  0  0  0  0  0  0  0  0  0
    2.6003    0.1651    2.6828 H   0  0  0  0  0  0  0  0  0  0  0  0
    0.1110    0.7805    0.0603 H   0  0  0  0  0  0  0  0  0  0  0  0
    0.9600    1.0617   -1.4577 H   0  0  0  0  0  0  0  0  0  0  0  0
  1  2  1  0
  2  3  1  0
  3  4  2  0
  4  5  1  0
  5  6  2  0
  6  7  1  0
  7  8  2  0
  8  9  1  0
  9 10  2  0
 10 11  1  0
 11 12  2  0
 11 13  1  0
 13 14  1  0
 14 15  1  0
 15 16  1  0
 16 17  1  0
 17 18  1  0
 18 19  1  0
 19 20  2  0
 20 21  1  0
 21 22  2  0
 17 23  1  0
 10  2  1  0
 23 13  1  0
  9  4  1  0
 22 18  1  0
  1 24  1  0
  1 25  1  0
  1 26  1  0
  5 27  1  0
  6 28  1  0
  7 29  1  0
  8 30  1  0
 14 31  1  0
 14 32  1  0
 15 33  1  0
 15 34  1  0
 16 35  1  0
 16 36  1  0
 17 37  1  0
 19 38  1  0
 20 39  1  0
 22 40  1  0
 23 41  1  0
 23 42  1  0
M  END
$$$$
OCNT-2317796
     RDKit          3D

 43 45  0  0  0  0  0  0  0  0999 V2000
    0.6777    3.1270    1.6925 C   0  0  0  0  0  0  0  0  0  0  0  0
    0.3291    1.7104    2.1553 C   0  0  0  0  0  0  0  0  0  0  0  0
   -1.0618    1.3753    1.7878 N   0  0  0  0  0  0  0  0  0  0  0  0
   -1.4620    0.9187    0.5327 C   0  0  0  0  0  0  0  0  0  0  0  0
   -0.7039    1.0277   -0.6337 C   0  0  0  0  0  0  0  0  0  0  0  0
   -1.2081    0.6012   -1.8656 C   0  0  0  0  0  0  0  0  0  0  0  0
   -2.4980    0.0810   -1.9627 C   0  0  0  0  0  0  0  0  0  0  0  0
   -3.2982   -0.0048   -0.8286 C   0  0  0  0  0  0  0  0  0  0  0  0
   -4.6214   -0.4972   -0.8322 N   0  0  0  0  0  0  0  0  0  0  0  0
   -5.3402   -0.9714   -1.9152 C   0  0  0  0  0  0  0  0  0  0  0  0
   -4.9659   -1.0508   -3.0824 O   0  0  0  0  0  0  0  0  0  0  0  0
   -6.7566   -1.4163   -1.5353 C   0  0  0  0  0  0  0  0  0  0  0  0
   -7.4046   -2.1194   -2.5830 O   0  0  0  0  0  0  0  0  0  0  0  0
   -2.7746    0.4257    0.4019 C   0  0  0  0  0  0  0  0  0  0  0  0
    1.4031    0.7165    1.8258 C   0  0  0  0  0  0  0  0  0  0  0  0
    2.4490    0.8135    1.0354 N   0  0  0  0  0  0  0  0  0  0  0  0
    3.0388   -0.4276    1.1610 C   0  0  0  0  0  0  0  0  0  0  0  0
    4.2593   -0.7859    0.4449 C   0  0  0  0  0  0  0  0  0  0  0  0
    4.7780   -2.0883    0.5037 C   0  0  0  0  0  0  0  0  0  0  0  0
    5.9501   -2.4200   -0.1824 C   0  0  0  0  0  0  0  0  0  0  0  0
    6.6174   -1.4536   -0.9317 C   0  0  0  0  0  0  0  0  0  0  0  0
    6.1137   -0.1562   -1.0003 C   0  0  0  0  0  0  0  0  0  0  0  0
    4.9399    0.1755   -0.3173 C   0  0  0  0  0  0  0  0  0  0  0  0
    2.3914   -1.2506    2.0017 N   0  0  0  0  0  0  0  0  0  0  0  0
    1.3056   -0.4981    2.4373 O   0  0  0  0  0  0  0  0  0  0  0  0
   -0.0961    3.8383    2.0019 H   0  0  0  0  0  0  0  0  0  0  0  0
    1.6278    3.4544    2.1296 H   0  0  0  0  0  0  0  0  0  0  0  0
    0.7785    3.2045    0.6064 H   0  0  0  0  0  0  0  0  0  0  0  0
    0.3217    1.7664    3.2532 H   0  0  0  0  0  0  0  0  0  0  0  0
   -1.5235    0.8577    2.5323 H   0  0  0  0  0  0  0  0  0  0  0  0
    0.3018    1.4330   -0.6282 H   0  0  0  0  0  0  0  0  0  0  0  0
   -0.5922    0.6803   -2.7584 H   0  0  0  0  0  0  0  0  0  0  0  0
   -2.8450   -0.2371   -2.9404 H   0  0  0  0  0  0  0  0  0  0  0  0
   -5.0911   -0.5030    0.0650 H   0  0  0  0  0  0  0  0  0  0  0  0
   -6.7158   -2.0699   -0.6588 H   0  0  0  0  0  0  0  0  0  0  0  0
   -7.3504   -0.5286   -1.2977 H   0  0  0  0  0  0  0  0  0  0  0  0
   -6.9110   -1.8997   -3.4007 H   0  0  0  0  0  0  0  0  0  0  0  0
   -3.4010    0.3829    1.2897 H   0  0  0  0  0  0  0  0  0  0  0  0
    4.2734   -2.8588    1.0839 H   0  0  0  0  0  0  0  0  0  0  0  0
    6.3406   -3.4334   -0.1297 H   0  0  0  0  0  0  0  0  0  0  0  0
    7.5304   -1.7124   -1.4629 H   0  0  0  0  0  0  0  0  0  0  0  0
    6.6329    0.5994   -1.5851 H   0  0  0  0  0  0  0  0  0  0  0  0
    4.5611    1.1935   -0.3822 H   0  0  0  0  0  0  0  0  0  0  0  0
  1  2  1  0
  2  3  1  0
  3  4  1  0
  4  5  2  0
  5  6  1  0
  6  7  2  0
  7  8  1  0
  8  9  1  0
  9 10  1  0
 10 11  2  0
 10 12  1  0
 12 13  1  0
  8 14  2  0
  2 15  1  0
 15 16  2  0
 16 17  1  0
 17 18  1  0
 18 19  2  0
 19 20  1  0
 20 21  2  0
 21 22  1  0
 22 23  2  0
 17 24  2  0
 24 25  1  0
 14  4  1  0
 25 15  1  0
 23 18  1  0
  1 26  1  0
  1 27  1  0
  1 28  1  0
  2 29  1  0
  3 30  1  0
  5 31  1  0
  6 32  1  0
  7 33  1  0
  9 34  1  0
 12 35  1  0
 12 36  1  0
 13 37  1  0
 14 38  1  0
 19 39  1  0
 20 40  1  0
 21 41  1  0
 22 42  1  0
 23 43  1  0
M  END
$$$$
OCNT-2317807
     RDKit          3D

 42 45  0  0  0  0  0  0  0  0999 V2000
    7.1883    1.1350    1.6258 C   0  0  0  0  0  0  0  0  0  0  0  0
    5.7470    0.9142    1.3216 C   0  0  0  0  0  0  0  0  0  0  0  0
    4.6428    1.4120    1.9805 C   0  0  0  0  0  0  0  0  0  0  0  0
    3.4232    0.9745    1.3861 C   0  0  0  0  0  0  0  0  0  0  0  0
    3.6329    0.1577    0.2935 C   0  0  0  0  0  0  0  0  0  0  0  0
    2.4338   -0.4536   -0.5347 C   0  0  0  0  0  0  0  0  0  0  0  0
    2.5301   -1.2773   -1.6447 C   0  0  0  0  0  0  0  0  0  0  0  0
    3.7049   -1.8222   -2.3768 C   0  0  0  0  0  0  0  0  0  0  0  0
    0.9445   -1.6741   -2.1846 S   0  0  0  0  0  0  0  0  0  0  0  0
    0.2764   -0.7396   -0.9376 C   0  0  0  0  0  0  0  0  0  0  0  0
   -1.0715   -0.5941   -0.7416 N   0  0  0  0  0  0  0  0  0  0  0  0
   -2.0925   -1.1036   -1.5146 C   0  0  0  0  0  0  0  0  0  0  0  0
   -1.9723   -1.7872   -2.5283 O   0  0  0  0  0  0  0  0  0  0  0  0
   -3.4913   -0.7873   -0.9736 C   0  0  0  0  0  0  0  0  0  0  0  0
   -3.7658   -1.6003    0.3211 C   0  0  0  0  0  0  0  0  0  0  0  0
   -5.0061   -1.0962    1.0897 C   0  0  0  0  0  0  0  0  0  0  0  0
   -4.8686    0.3762    1.5263 C   0  0  0  0  0  0  0  0  0  0  0  0
   -4.3234    1.1663    0.3971 C   0  0  0  0  0  0  0  0  0  0  0  0
   -3.6962    0.6745   -0.7259 C   0  0  0  0  0  0  0  0  0  0  0  0
   -3.3912    1.8187   -1.4856 C   0  0  0  0  0  0  0  0  0  0  0  0
   -3.7663    2.9441   -0.8693 N   0  0  0  0  0  0  0  0  0  0  0  0
   -4.3458    2.5217    0.2695 N   0  0  0  0  0  0  0  0  0  0  0  0
    1.1342   -0.1574   -0.1378 N   0  0  0  0  0  0  0  0  0  0  0  0
    5.2941   -0.0713   -0.0013 S   0  0  0  0  0  0  0  0  0  0  0  0
    7.3086    1.7852    2.4987 H   0  0  0  0  0  0  0  0  0  0  0  0
    7.6952    1.6122    0.7806 H   0  0  0  0  0  0  0  0  0  0  0  0
    7.6892    0.1860    1.8439 H   0  0  0  0  0  0  0  0  0  0  0  0
    4.7013    2.0599    2.8468 H   0  0  0  0  0  0  0  0  0  0  0  0
    2.4369    1.2476    1.7421 H   0  0  0  0  0  0  0  0  0  0  0  0
    4.3209   -1.0096   -2.7745 H   0  0  0  0  0  0  0  0  0  0  0  0
    3.4110   -2.4487   -3.2260 H   0  0  0  0  0  0  0  0  0  0  0  0
    4.3162   -2.4435   -1.7148 H   0  0  0  0  0  0  0  0  0  0  0  0
   -1.2918    0.0114    0.0383 H   0  0  0  0  0  0  0  0  0  0  0  0
   -4.2186   -1.0941   -1.7377 H   0  0  0  0  0  0  0  0  0  0  0  0
   -3.8996   -2.6573    0.0598 H   0  0  0  0  0  0  0  0  0  0  0  0
   -2.9010   -1.5604    0.9962 H   0  0  0  0  0  0  0  0  0  0  0  0
   -5.8879   -1.2047    0.4448 H   0  0  0  0  0  0  0  0  0  0  0  0
   -5.1777   -1.7230    1.9721 H   0  0  0  0  0  0  0  0  0  0  0  0
   -5.8420    0.7622    1.8470 H   0  0  0  0  0  0  0  0  0  0  0  0
   -4.1825    0.4435    2.3787 H   0  0  0  0  0  0  0  0  0  0  0  0
   -2.9095    1.8865   -2.4538 H   0  0  0  0  0  0  0  0  0  0  0  0
   -4.7299    3.2162    0.9027 H   0  0  0  0  0  0  0  0  0  0  0  0
  1  2  1  0
  2  3  2  0
  3  4  1  0
  4  5  2  0
  5  6  1  0
  6  7  2  0
  7  8  1  0
  7  9  1  0
  9 10  1  0
 10 11  1  0
 11 12  1  0
 12 13  2  0
 12 14  1  0
 14 15  1  0
 15 16  1  0
 16 17  1  0
 17 18  1  0
 18 19  2  0
 19 20  1  0
 20 21  2  0
 21 22  1  0
 10 23  2  0
  5 24  1  0
 24  2  1  0
 23  6  1  0
 19 14  1  0
 22 18  1  0
  1 25  1  0
  1 26  1  0
  1 27  1  0
  3 28  1  0
  4 29  1  0
  8 30  1  0
  8 31  1  0
  8 32  1  0
 11 33  1  0
 14 34  1  0
 15 35  1  0
 15 36  1  0
 16 37  1  0
 16 38  1  0
 17 39  1  0
 17 40  1  0
 20 41  1  0
 22 42  1  0
M  END
$$$$
OCNT-2317813
     RDKit          3D

 41 43  0  0  0  0  0  0  0  0999 V2000
    3.0569    2.5723    0.2161 C   0  0  0  0  0  0  0  0  0  0  0  0
    3.1049    1.5765    1.3634 C   0  0  0  0  0  0  0  0  0  0  0  0
    2.7636    0.1887    0.8927 C   0  0  0  0  0  0  0  0  0  0  0  0
    1.4552   -0.1319    0.8459 N   0  0  0  0  0  0  0  0  0  0  0  0
    1.0736   -1.3513    0.4057 C   0  0  0  0  0  0  0  0  0  0  0  0
   -0.2803   -1.6766    0.3438 N   0  0  0  0  0  0  0  0  0  0  0  0
   -1.2037   -0.9102    1.1746 C   0  0  0  0  0  0  0  0  0  0  0  0
   -2.0506    0.1105    0.3657 C   0  0  0  0  0  0  0  0  0  0  0  0
   -2.9125    0.7843    1.3017 O   0  0  0  0  0  0  0  0  0  0  0  0
   -1.2069    1.1899   -0.3281 C   0  0  0  0  0  0  0  0  0  0  0  0
   -2.0602    2.2550   -1.0300 C   0  0  0  0  0  0  0  0  0  0  0  0
   -3.3504    1.7048   -1.6222 C   0  0  0  0  0  0  0  0  0  0  0  0
   -4.3921    1.9777   -0.7962 F   0  0  0  0  0  0  0  0  0  0  0  0
   -3.6177    2.3622   -2.7821 F   0  0  0  0  0  0  0  0  0  0  0  0
   -3.3010    0.2151   -1.8936 C   0  0  0  0  0  0  0  0  0  0  0  0
   -2.9762   -0.6098   -0.6433 C   0  0  0  0  0  0  0  0  0  0  0  0
    2.0746   -2.2513   -0.0095 C   0  0  0  0  0  0  0  0  0  0  0  0
    2.0404   -3.5868   -0.5430 C   0  0  0  0  0  0  0  0  0  0  0  0
    3.2971   -4.0846   -0.8109 C   0  0  0  0  0  0  0  0  0  0  0  0
    4.5225   -2.9550   -0.4307 S   0  0  0  0  0  0  0  0  0  0  0  0
    3.3803   -1.7997    0.0879 C   0  0  0  0  0  0  0  0  0  0  0  0
    3.7818   -0.5985    0.5290 N   0  0  0  0  0  0  0  0  0  0  0  0
    3.3083    3.5757    0.5739 H   0  0  0  0  0  0  0  0  0  0  0  0
    2.0588    2.6121   -0.2337 H   0  0  0  0  0  0  0  0  0  0  0  0
    3.7688    2.3034   -0.5718 H   0  0  0  0  0  0  0  0  0  0  0  0
    2.3998    1.8778    2.1466 H   0  0  0  0  0  0  0  0  0  0  0  0
    4.1043    1.5763    1.8135 H   0  0  0  0  0  0  0  0  0  0  0  0
   -0.4420   -2.6773    0.3505 H   0  0  0  0  0  0  0  0  0  0  0  0
   -1.8921   -1.6183    1.6561 H   0  0  0  0  0  0  0  0  0  0  0  0
   -0.7052   -0.4121    2.0169 H   0  0  0  0  0  0  0  0  0  0  0  0
   -2.3565    1.3135    1.9011 H   0  0  0  0  0  0  0  0  0  0  0  0
   -0.5484    0.7269   -1.0732 H   0  0  0  0  0  0  0  0  0  0  0  0
   -0.5631    1.7015    0.3975 H   0  0  0  0  0  0  0  0  0  0  0  0
   -1.4551    2.7260   -1.8137 H   0  0  0  0  0  0  0  0  0  0  0  0
   -2.3095    3.0477   -0.3141 H   0  0  0  0  0  0  0  0  0  0  0  0
   -4.2566   -0.1216   -2.3122 H   0  0  0  0  0  0  0  0  0  0  0  0
   -2.5474    0.0188   -2.6669 H   0  0  0  0  0  0  0  0  0  0  0  0
   -2.5353   -1.5532   -0.9858 H   0  0  0  0  0  0  0  0  0  0  0  0
   -3.9190   -0.8737   -0.1462 H   0  0  0  0  0  0  0  0  0  0  0  0
    1.1343   -4.1505   -0.7251 H   0  0  0  0  0  0  0  0  0  0  0  0
    3.5566   -5.0541   -1.2143 H   0  0  0  0  0  0  0  0  0  0  0  0
  1  2  1  0
  2  3  1  0
  3  4  2  0
  4  5  1  0
  5  6  1  0
  6  7  1  0
  7  8  1  0
  8  9  1  0
  8 10  1  0
 10 11  1  0
 11 12  1  0
 12 13  1  0
 12 14  1  0
 12 15  1  0
 15 16  1  0
  5 17  2  0
 17 18  1  0
 18 19  2  0
 19 20  1  0
 20 21  1  0
 21 22  2  0
 22  3  1  0
 16  8  1  0
 21 17  1  0
  1 23  1  0
  1 24  1  0
  1 25  1  0
  2 26  1  0
  2 27  1  0
  6 28  1  0
  7 29  1  0
  7 30  1  0
  9 31  1  0
 10 32  1  0
 10 33  1  0
 11 34  1  0
 11 35  1  0
 15 36  1  0
 15 37  1  0
 16 38  1  0
 16 39  1  0
 18 40  1  0
 19 41  1  0
M  END
$$$$
OCNT-2317821
     RDKit          3D

 44 46  0  0  0  0  0  0  0  0999 V2000
    2.0484    2.5956   -0.0486 C   0  0  0  0  0  0  0  0  0  0  0  0
    2.0050    1.6905    1.1731 C   0  0  0  0  0  0  0  0  0  0  0  0
    2.7335    0.4076    0.9530 C   0  0  0  0  0  0  0  0  0  0  0  0
    4.0189    0.3057    1.3220 N   0  0  0  0  0  0  0  0  0  0  0  0
    4.3573   -0.9447    0.9636 N   0  0  0  0  0  0  0  0  0  0  0  0
    5.6952   -1.4185    1.2189 C   0  0  0  0  0  0  0  0  0  0  0  0
    3.3453   -1.6353    0.3706 C   0  0  0  0  0  0  0  0  0  0  0  0
    2.2601   -0.7935    0.3510 C   0  0  0  0  0  0  0  0  0  0  0  0
    0.9959   -1.0391   -0.1543 N   0  0  0  0  0  0  0  0  0  0  0  0
    0.5925   -2.2006   -0.7828 C   0  0  0  0  0  0  0  0  0  0  0  0
    1.2787   -3.2088   -0.9457 O   0  0  0  0  0  0  0  0  0  0  0  0
   -0.8128   -2.1501   -1.3751 C   0  0  0  0  0  0  0  0  0  0  0  0
   -0.9117   -1.1918   -2.5569 C   0  0  0  0  0  0  0  0  0  0  0  0
   -1.3355    0.1522   -1.9579 C   0  0  0  0  0  0  0  0  0  0  0  0
   -1.7559   -0.1515   -0.5787 N   0  0  0  0  0  0  0  0  0  0  0  0
   -2.8049    0.5541    0.0278 C   0  0  0  0  0  0  0  0  0  0  0  0
   -3.9097    1.0231   -0.7038 C   0  0  0  0  0  0  0  0  0  0  0  0
   -4.9642    1.7096   -0.0886 C   0  0  0  0  0  0  0  0  0  0  0  0
   -4.9455    1.9414    1.2815 C   0  0  0  0  0  0  0  0  0  0  0  0
   -3.8733    1.4817    2.0390 C   0  0  0  0  0  0  0  0  0  0  0  0
   -2.8192    0.7944    1.4232 C   0  0  0  0  0  0  0  0  0  0  0  0
   -1.5190    0.2824    2.4492 Cl  0  0  0  0  0  0  0  0  0  0  0  0
   -1.8503   -1.6147   -0.4015 C   0  0  0  0  0  0  0  0  0  0  0  0
    1.5906    2.1112   -0.9177 H   0  0  0  0  0  0  0  0  0  0  0  0
    3.0795    2.8535   -0.3131 H   0  0  0  0  0  0  0  0  0  0  0  0
    1.5045    3.5249    0.1479 H   0  0  0  0  0  0  0  0  0  0  0  0
    2.4350    2.2215    2.0311 H   0  0  0  0  0  0  0  0  0  0  0  0
    0.9619    1.4845    1.4290 H   0  0  0  0  0  0  0  0  0  0  0  0
    5.7948   -2.4442    0.8552 H   0  0  0  0  0  0  0  0  0  0  0  0
    5.8725   -1.3861    2.2968 H   0  0  0  0  0  0  0  0  0  0  0  0
    6.3981   -0.7670    0.6936 H   0  0  0  0  0  0  0  0  0  0  0  0
    3.4793   -2.6505    0.0249 H   0  0  0  0  0  0  0  0  0  0  0  0
    0.2996   -0.3071   -0.0182 H   0  0  0  0  0  0  0  0  0  0  0  0
   -1.0685   -3.1733   -1.6755 H   0  0  0  0  0  0  0  0  0  0  0  0
    0.0181   -1.1042   -3.1281 H   0  0  0  0  0  0  0  0  0  0  0  0
   -1.6924   -1.5393   -3.2449 H   0  0  0  0  0  0  0  0  0  0  0  0
   -0.4848    0.8418   -1.9236 H   0  0  0  0  0  0  0  0  0  0  0  0
   -2.1002    0.6111   -2.5897 H   0  0  0  0  0  0  0  0  0  0  0  0
   -3.9945    0.8388   -1.7703 H   0  0  0  0  0  0  0  0  0  0  0  0
   -5.8046    2.0558   -0.6860 H   0  0  0  0  0  0  0  0  0  0  0  0
   -5.7637    2.4743    1.7588 H   0  0  0  0  0  0  0  0  0  0  0  0
   -3.8581    1.6622    3.1108 H   0  0  0  0  0  0  0  0  0  0  0  0
   -1.6473   -1.9265    0.6276 H   0  0  0  0  0  0  0  0  0  0  0  0
   -2.8487   -1.9711   -0.6876 H   0  0  0  0  0  0  0  0  0  0  0  0
  1  2  1  0
  2  3  1  0
  3  4  2  0
  4  5  1  0
  5  6  1  0
  5  7  1  0
  7  8  2  0
  8  9  1  0
  9 10  1  0
 10 11  2  0
 10 12  1  0
 12 13  1  0
 13 14  1  0
 14 15  1  0
 15 16  1  0
 16 17  2  0
 17 18  1  0
 18 19  2  0
 19 20  1  0
 20 21  2  0
 21 22  1  0
 15 23  1  0
  8  3  1  0
 23 12  1  0
 21 16  1  0
  1 24  1  0
  1 25  1  0
  1 26  1  0
  2 27  1  0
  2 28  1  0
  6 29  1  0
  6 30  1  0
  6 31  1  0
  7 32  1  0
  9 33  1  0
 12 34  1  0
 13 35  1  0
 13 36  1  0
 14 37  1  0
 14 38  1  0
 17 39  1  0
 18 40  1  0
 19 41  1  0
 20 42  1  0
 23 43  1  0
 23 44  1  0
M  END
$$$$
OCNT-2317822
     RDKit          3D

 49 51  0  0  0  0  0  0  0  0999 V2000
    5.2397    0.3550    0.0824 C   0  0  0  0  0  0  0  0  0  0  0  0
    4.1888    0.0234   -0.9349 C   0  0  0  0  0  0  0  0  0  0  0  0
    3.8923    0.9536   -1.9396 C   0  0  0  0  0  0  0  0  0  0  0  0
    2.8988    0.6844   -2.8725 C   0  0  0  0  0  0  0  0  0  0  0  0
    2.2178   -0.5115   -2.7676 C   0  0  0  0  0  0  0  0  0  0  0  0
    2.4583   -1.4302   -1.8091 N   0  0  0  0  0  0  0  0  0  0  0  0
    3.4369   -1.1580   -0.9008 C   0  0  0  0  0  0  0  0  0  0  0  0
    3.6226   -2.2182    0.1562 C   0  0  0  0  0  0  0  0  0  0  0  0
    2.9806   -1.8827    1.5057 C   0  0  0  0  0  0  0  0  0  0  0  0
    1.5770   -1.5170    1.3995 N   0  0  0  0  0  0  0  0  0  0  0  0
    1.1796   -0.2117    1.5577 C   0  0  0  0  0  0  0  0  0  0  0  0
    1.9567    0.6831    1.8795 O   0  0  0  0  0  0  0  0  0  0  0  0
   -0.1752    0.0073    1.3158 N   0  0  0  0  0  0  0  0  0  0  0  0
   -0.6418    1.3855    1.4485 C   0  0  0  0  0  0  0  0  0  0  0  0
   -1.8760    1.6571    0.5929 C   0  0  0  0  0  0  0  0  0  0  0  0
   -2.9668    0.6152    0.8599 C   0  0  0  0  0  0  0  0  0  0  0  0
   -4.2255    0.8863    0.0838 C   0  0  0  0  0  0  0  0  0  0  0  0
   -5.4340    1.3667    0.5605 C   0  0  0  0  0  0  0  0  0  0  0  0
   -6.3578    1.4915   -0.4381 N   0  0  0  0  0  0  0  0  0  0  0  0
   -5.7383    1.0978   -1.5240 C   0  0  0  0  0  0  0  0  0  0  0  0
   -4.4462    0.7238   -1.2664 N   0  0  0  0  0  0  0  0  0  0  0  0
   -3.5474    0.2381   -2.2835 C   0  0  0  0  0  0  0  0  0  0  0  0
   -2.4226   -0.8046    0.6788 C   0  0  0  0  0  0  0  0  0  0  0  0
   -1.1902   -1.0230    1.5515 C   0  0  0  0  0  0  0  0  0  0  0  0
    5.8958    1.1565   -0.2748 H   0  0  0  0  0  0  0  0  0  0  0  0
    4.7745    0.6905    1.0136 H   0  0  0  0  0  0  0  0  0  0  0  0
    5.8821   -0.5070    0.2848 H   0  0  0  0  0  0  0  0  0  0  0  0
    4.4320    1.8961   -1.9941 H   0  0  0  0  0  0  0  0  0  0  0  0
    2.6613    1.3934   -3.6568 H   0  0  0  0  0  0  0  0  0  0  0  0
    1.4337   -0.7716   -3.4719 H   0  0  0  0  0  0  0  0  0  0  0  0
    3.1756   -3.1504   -0.2158 H   0  0  0  0  0  0  0  0  0  0  0  0
    4.6872   -2.4404    0.2890 H   0  0  0  0  0  0  0  0  0  0  0  0
    3.0197   -2.7722    2.1441 H   0  0  0  0  0  0  0  0  0  0  0  0
    3.5413   -1.0952    2.0182 H   0  0  0  0  0  0  0  0  0  0  0  0
    1.0774   -1.9897    0.6589 H   0  0  0  0  0  0  0  0  0  0  0  0
    0.1518    2.0837    1.1592 H   0  0  0  0  0  0  0  0  0  0  0  0
   -0.8597    1.5610    2.5092 H   0  0  0  0  0  0  0  0  0  0  0  0
   -2.2498    2.6670    0.8015 H   0  0  0  0  0  0  0  0  0  0  0  0
   -1.5806    1.6456   -0.4618 H   0  0  0  0  0  0  0  0  0  0  0  0
   -3.2387    0.7104    1.9228 H   0  0  0  0  0  0  0  0  0  0  0  0
   -5.6808    1.6292    1.5817 H   0  0  0  0  0  0  0  0  0  0  0  0
   -6.1741    1.0620   -2.5142 H   0  0  0  0  0  0  0  0  0  0  0  0
   -3.5323   -0.8532   -2.2351 H   0  0  0  0  0  0  0  0  0  0  0  0
   -3.9070    0.5558   -3.2664 H   0  0  0  0  0  0  0  0  0  0  0  0
   -2.5510    0.6498   -2.1261 H   0  0  0  0  0  0  0  0  0  0  0  0
   -3.1905   -1.5453    0.9320 H   0  0  0  0  0  0  0  0  0  0  0  0
   -2.1376   -0.9835   -0.3630 H   0  0  0  0  0  0  0  0  0  0  0  0
   -0.7999   -2.0279    1.3725 H   0  0  0  0  0  0  0  0  0  0  0  0
   -1.4577   -0.9764    2.6146 H   0  0  0  0  0  0  0  0  0  0  0  0
  1  2  1  0
  2  3  1  0
  3  4  2  0
  4  5  1  0
  5  6  2  0
  6  7  1  0
  7  8  1  0
  8  9  1  0
  9 10  1  0
 10 11  1  0
 11 12  2  0
 11 13  1  0
 13 14  1  0
 14 15  1  0
 15 16  1  0
 16 17  1  0
 17 18  2  0
 18 19  1  0
 19 20  2  0
 20 21  1  0
 21 22  1  0
 16 23  1  0
 23 24  1  0
  7  2  2  0
 24 13  1  0
 21 17  1  0
  1 25  1  0
  1 26  1  0
  1 27  1  0
  3 28  1  0
  4 29  1  0
  5 30  1  0
  8 31  1  0
  8 32  1  0
  9 33  1  0
  9 34  1  0
 10 35  1  0
 14 36  1  0
 14 37  1  0
 15 38  1  0
 15 39  1  0
 16 40  1  0
 18 41  1  0
 20 42  1  0
 22 43  1  0
 22 44  1  0
 22 45  1  0
 23 46  1  0
 23 47  1  0
 24 48  1  0
 24 49  1  0
M  END
$$$$
OCNT-2317832
     RDKit          3D

 51 55  0  0  0  0  0  0  0  0999 V2000
    3.1541    2.7806   -0.8389 C   0  0  0  0  0  0  0  0  0  0  0  0
    3.7064    1.6899   -0.0082 C   0  0  0  0  0  0  0  0  0  0  0  0
    3.6628    0.3066   -0.0773 C   0  0  0  0  0  0  0  0  0  0  0  0
    2.9906   -0.4925   -1.0851 C   0  0  0  0  0  0  0  0  0  0  0  0
    3.6138   -1.3319   -1.7305 O   0  0  0  0  0  0  0  0  0  0  0  0
    1.6231   -0.2778   -1.2864 N   0  0  0  0  0  0  0  0  0  0  0  0
    0.7376    0.3454   -0.2953 C   0  0  0  0  0  0  0  0  0  0  0  0
   -0.5657   -0.4358   -0.1468 C   0  0  0  0  0  0  0  0  0  0  0  0
   -1.3383   -0.5574   -1.4790 C   0  0  0  0  0  0  0  0  0  0  0  0
   -2.4703    0.4795   -1.6157 C   0  0  0  0  0  0  0  0  0  0  0  0
   -3.5674    0.2739   -0.6258 C   0  0  0  0  0  0  0  0  0  0  0  0
   -3.8149    1.0207    0.4306 N   0  0  0  0  0  0  0  0  0  0  0  0
   -4.8972    0.4421    1.0480 C   0  0  0  0  0  0  0  0  0  0  0  0
   -5.5709    0.8188    2.2191 C   0  0  0  0  0  0  0  0  0  0  0  0
   -6.6532    0.0397    2.6512 C   0  0  0  0  0  0  0  0  0  0  0  0
   -7.0534   -1.0919    1.9335 C   0  0  0  0  0  0  0  0  0  0  0  0
   -6.3988   -1.4765    0.7572 C   0  0  0  0  0  0  0  0  0  0  0  0
   -5.3270   -0.6792    0.3472 C   0  0  0  0  0  0  0  0  0  0  0  0
   -4.4776   -0.7497   -0.7265 N   0  0  0  0  0  0  0  0  0  0  0  0
   -0.3953   -0.4455   -2.6928 C   0  0  0  0  0  0  0  0  0  0  0  0
    0.9891   -0.9976   -2.3842 C   0  0  0  0  0  0  0  0  0  0  0  0
    4.4760   -0.1649    0.9989 C   0  0  0  0  0  0  0  0  0  0  0  0
    4.8808   -1.4246    1.4787 C   0  0  0  0  0  0  0  0  0  0  0  0
    5.7020   -1.4858    2.6142 C   0  0  0  0  0  0  0  0  0  0  0  0
    6.1103   -0.3209    3.2687 C   0  0  0  0  0  0  0  0  0  0  0  0
    5.7166    0.9419    2.8110 C   0  0  0  0  0  0  0  0  0  0  0  0
    4.9088    0.9672    1.6770 C   0  0  0  0  0  0  0  0  0  0  0  0
    4.4428    2.0889    1.0676 O   0  0  0  0  0  0  0  0  0  0  0  0
    2.2246    3.1544   -0.3990 H   0  0  0  0  0  0  0  0  0  0  0  0
    2.9434    2.4412   -1.8588 H   0  0  0  0  0  0  0  0  0  0  0  0
    3.8612    3.6155   -0.9035 H   0  0  0  0  0  0  0  0  0  0  0  0
    0.5274    1.3647   -0.6369 H   0  0  0  0  0  0  0  0  0  0  0  0
    1.2275    0.4052    0.6802 H   0  0  0  0  0  0  0  0  0  0  0  0
   -0.3223   -1.4495    0.1998 H   0  0  0  0  0  0  0  0  0  0  0  0
   -1.1778    0.0151    0.6413 H   0  0  0  0  0  0  0  0  0  0  0  0
   -1.7880   -1.5595   -1.4977 H   0  0  0  0  0  0  0  0  0  0  0  0
   -2.9000    0.4299   -2.6249 H   0  0  0  0  0  0  0  0  0  0  0  0
   -2.0649    1.4929   -1.4956 H   0  0  0  0  0  0  0  0  0  0  0  0
   -5.2493    1.6924    2.7749 H   0  0  0  0  0  0  0  0  0  0  0  0
   -7.1810    0.3156    3.5604 H   0  0  0  0  0  0  0  0  0  0  0  0
   -7.8936   -1.6833    2.2949 H   0  0  0  0  0  0  0  0  0  0  0  0
   -6.7092   -2.3555    0.2030 H   0  0  0  0  0  0  0  0  0  0  0  0
   -4.4947   -1.4562   -1.4472 H   0  0  0  0  0  0  0  0  0  0  0  0
   -0.8323   -0.9787   -3.5447 H   0  0  0  0  0  0  0  0  0  0  0  0
   -0.2949    0.6042   -2.9980 H   0  0  0  0  0  0  0  0  0  0  0  0
    1.6297   -0.9261   -3.2705 H   0  0  0  0  0  0  0  0  0  0  0  0
    0.9297   -2.0559   -2.1058 H   0  0  0  0  0  0  0  0  0  0  0  0
    4.5728   -2.3348    0.9719 H   0  0  0  0  0  0  0  0  0  0  0  0
    6.0275   -2.4569    2.9850 H   0  0  0  0  0  0  0  0  0  0  0  0
    6.7500   -0.3942    4.1463 H   0  0  0  0  0  0  0  0  0  0  0  0
    6.0292    1.8558    3.2994 H   0  0  0  0  0  0  0  0  0  0  0  0
  1  2  1  0
  2  3  2  0
  3  4  1  0
  4  5  2  0
  4  6  1  0
  6  7  1  0
  7  8  1  0
  8  9  1  0
  9 10  1  0
 10 11  1  0
 11 12  2  0
 12 13  1  0
 13 14  2  0
 14 15  1  0
 15 16  2  0
 16 17  1  0
 17 18  2  0
 18 19  1  0
  9 20  1  0
 20 21  1  0
  3 22  1  0
 22 23  2  0
 23 24  1  0
 24 25  2  0
 25 26  1  0
 26 27  2  0
 27 28  1  0
 28  2  1  0
 21  6  1  0
 27 22  1  0
 19 11  1  0
 18 13  1  0
  1 29  1  0
  1 30  1  0
  1 31  1  0
  7 32  1  0
  7 33  1  0
  8 34  1  0
  8 35  1  0
  9 36  1  0
 10 37  1  0
 10 38  1  0
 14 39  1  0
 15 40  1  0
 16 41  1  0
 17 42  1  0
 19 43  1  0
 20 44  1  0
 20 45  1  0
 21 46  1  0
 21 47  1  0
 23 48  1  0
 24 49  1  0
 25 50  1  0
 26 51  1  0
M  END
$$$$
OCNT-2317870
     RDKit          3D

 39 42  0  0  0  0  0  0  0  0999 V2000
    0.3765   -2.3506   -0.4996 O   0  0  0  0  0  0  0  0  0  0  0  0
   -0.0648   -1.2820   -0.0841 C   0  0  0  0  0  0  0  0  0  0  0  0
    0.7062   -0.2195    0.3122 N   0  0  0  0  0  0  0  0  0  0  0  0
    2.0700   -0.1082    0.2173 C   0  0  0  0  0  0  0  0  0  0  0  0
    2.7072    0.8668    0.8319 N   0  0  0  0  0  0  0  0  0  0  0  0
    4.0519    0.7632    0.5539 C   0  0  0  0  0  0  0  0  0  0  0  0
    4.4103   -0.2722   -0.2794 C   0  0  0  0  0  0  0  0  0  0  0  0
    5.7946   -0.5506   -0.7390 C   0  0  0  0  0  0  0  0  0  0  0  0
    6.7181    0.1679    0.1106 O   0  0  0  0  0  0  0  0  0  0  0  0
    6.3626    1.5529    0.2879 C   0  0  0  0  0  0  0  0  0  0  0  0
    5.0722    1.6864    1.1134 C   0  0  0  0  0  0  0  0  0  0  0  0
    3.0313   -1.1460   -0.7441 S   0  0  0  0  0  0  0  0  0  0  0  0
   -1.4427   -1.0727    0.0177 N   0  0  0  0  0  0  0  0  0  0  0  0
   -2.3316   -2.2191   -0.1526 C   0  0  0  0  0  0  0  0  0  0  0  0
   -3.4988   -1.8733   -1.0690 C   0  0  0  0  0  0  0  0  0  0  0  0
   -4.2216   -0.6448   -0.5787 C   0  0  0  0  0  0  0  0  0  0  0  0
   -5.5712   -0.4549   -0.9096 C   0  0  0  0  0  0  0  0  0  0  0  0
   -6.2498    0.6831   -0.4806 C   0  0  0  0  0  0  0  0  0  0  0  0
   -5.5828    1.6445    0.2743 C   0  0  0  0  0  0  0  0  0  0  0  0
   -4.2339    1.4719    0.5955 C   0  0  0  0  0  0  0  0  0  0  0  0
   -3.4675    2.7107    1.5274 Cl  0  0  0  0  0  0  0  0  0  0  0  0
   -3.5311    0.3302    0.1701 C   0  0  0  0  0  0  0  0  0  0  0  0
   -2.0648    0.1611    0.5045 C   0  0  0  0  0  0  0  0  0  0  0  0
    0.3196    0.4739    0.9281 H   0  0  0  0  0  0  0  0  0  0  0  0
    6.0392   -1.6144   -0.6655 H   0  0  0  0  0  0  0  0  0  0  0  0
    5.9435   -0.2233   -1.7736 H   0  0  0  0  0  0  0  0  0  0  0  0
    7.1883    2.0467    0.8101 H   0  0  0  0  0  0  0  0  0  0  0  0
    6.2617    2.0255   -0.6972 H   0  0  0  0  0  0  0  0  0  0  0  0
    4.7196    2.7223    1.1078 H   0  0  0  0  0  0  0  0  0  0  0  0
    5.2685    1.3934    2.1512 H   0  0  0  0  0  0  0  0  0  0  0  0
   -1.8009   -3.0864   -0.5576 H   0  0  0  0  0  0  0  0  0  0  0  0
   -2.6893   -2.4995    0.8465 H   0  0  0  0  0  0  0  0  0  0  0  0
   -3.1361   -1.6783   -2.0855 H   0  0  0  0  0  0  0  0  0  0  0  0
   -4.1847   -2.7274   -1.1100 H   0  0  0  0  0  0  0  0  0  0  0  0
   -6.1007   -1.1971   -1.5043 H   0  0  0  0  0  0  0  0  0  0  0  0
   -7.2973    0.8217   -0.7365 H   0  0  0  0  0  0  0  0  0  0  0  0
   -6.1187    2.5305    0.6057 H   0  0  0  0  0  0  0  0  0  0  0  0
   -1.9388    0.1585    1.5938 H   0  0  0  0  0  0  0  0  0  0  0  0
   -1.5143    1.0089    0.0816 H   0  0  0  0  0  0  0  0  0  0  0  0
  1  2  2  0
  2  3  1  0
  3  4  1  0
  4  5  2  0
  5  6  1  0
  6  7  2  0
  7  8  1  0
  8  9  1  0
  9 10  1  0
 10 11  1  0
  7 12  1  0
  2 13  1  0
 13 14  1  0
 14 15  1  0
 15 16  1  0
 16 17  2  0
 17 18  1  0
 18 19  2  0
 19 20  1  0
 20 21  1  0
 20 22  2  0
 22 23  1  0
 12  4  1  0
 23 13  1  0
 11  6  1  0
 22 16  1  0
  3 24  1  0
  8 25  1  0
  8 26  1  0
 10 27  1  0
 10 28  1  0
 11 29  1  0
 11 30  1  0
 14 31  1  0
 14 32  1  0
 15 33  1  0
 15 34  1  0
 17 35  1  0
 18 36  1  0
 19 37  1  0
 23 38  1  0
 23 39  1  0
M  END
$$$$
OCNT-2317875
     RDKit          3D

 50 53  0  0  0  0  0  0  0  0999 V2000
    7.7475   -1.3408    0.6337 C   0  0  0  0  0  0  0  0  0  0  0  0
    6.5774   -0.7704   -0.0545 C   0  0  0  0  0  0  0  0  0  0  0  0
    5.7047    0.2533    0.2201 C   0  0  0  0  0  0  0  0  0  0  0  0
    4.8080    0.2567   -0.8783 C   0  0  0  0  0  0  0  0  0  0  0  0
    3.6560    1.1863   -1.1269 C   0  0  0  0  0  0  0  0  0  0  0  0
    2.3600    0.5622   -0.7933 N   0  0  0  0  0  0  0  0  0  0  0  0
    1.2428    1.3027   -1.3736 C   0  0  0  0  0  0  0  0  0  0  0  0
    0.0189    0.4099   -1.6068 C   0  0  0  0  0  0  0  0  0  0  0  0
   -0.3245   -0.5356   -0.4597 C   0  0  0  0  0  0  0  0  0  0  0  0
   -0.3650    0.1472    0.8293 N   0  0  0  0  0  0  0  0  0  0  0  0
   -1.5069    0.3653    1.6111 C   0  0  0  0  0  0  0  0  0  0  0  0
   -1.3946    0.8003    2.7595 O   0  0  0  0  0  0  0  0  0  0  0  0
   -2.8161    0.0749    1.0718 C   0  0  0  0  0  0  0  0  0  0  0  0
   -3.3894    0.3577   -0.1579 C   0  0  0  0  0  0  0  0  0  0  0  0
   -4.7100   -0.1119   -0.0715 C   0  0  0  0  0  0  0  0  0  0  0  0
   -5.7369   -0.0074   -1.2308 C   0  0  0  0  0  0  0  0  0  0  0  0
   -5.8693   -1.1737   -2.1807 C   0  0  0  0  0  0  0  0  0  0  0  0
   -6.9829   -0.8587   -1.2205 C   0  0  0  0  0  0  0  0  0  0  0  0
   -4.9881   -0.6334    1.1207 N   0  0  0  0  0  0  0  0  0  0  0  0
   -3.8382   -0.4814    1.8089 N   0  0  0  0  0  0  0  0  0  0  0  0
   -3.7910   -0.9063    3.1893 C   0  0  0  0  0  0  0  0  0  0  0  0
    0.9034    0.6166    1.3939 C   0  0  0  0  0  0  0  0  0  0  0  0
    2.2203    0.2739    0.6519 C   0  0  0  0  0  0  0  0  0  0  0  0
    5.1343   -0.6950   -1.7672 N   0  0  0  0  0  0  0  0  0  0  0  0
    6.2396   -1.3407   -1.2421 O   0  0  0  0  0  0  0  0  0  0  0  0
    7.6310   -2.4216    0.7627 H   0  0  0  0  0  0  0  0  0  0  0  0
    7.8791   -0.8912    1.6238 H   0  0  0  0  0  0  0  0  0  0  0  0
    8.6582   -1.1594    0.0541 H   0  0  0  0  0  0  0  0  0  0  0  0
    5.7088    0.9036    1.0818 H   0  0  0  0  0  0  0  0  0  0  0  0
    3.7916    2.1219   -0.5683 H   0  0  0  0  0  0  0  0  0  0  0  0
    3.6840    1.4521   -2.1925 H   0  0  0  0  0  0  0  0  0  0  0  0
    1.5157    1.6988   -2.3622 H   0  0  0  0  0  0  0  0  0  0  0  0
    0.9856    2.1836   -0.7716 H   0  0  0  0  0  0  0  0  0  0  0  0
   -0.8333    1.0644   -1.8182 H   0  0  0  0  0  0  0  0  0  0  0  0
    0.1774   -0.1931   -2.5081 H   0  0  0  0  0  0  0  0  0  0  0  0
   -1.2704   -1.0401   -0.6706 H   0  0  0  0  0  0  0  0  0  0  0  0
    0.4088   -1.3472   -0.3885 H   0  0  0  0  0  0  0  0  0  0  0  0
   -2.9284    0.8550   -0.9965 H   0  0  0  0  0  0  0  0  0  0  0  0
   -5.8362    0.9919   -1.6461 H   0  0  0  0  0  0  0  0  0  0  0  0
   -6.0257   -0.9571   -3.2305 H   0  0  0  0  0  0  0  0  0  0  0  0
   -5.2838   -2.0675   -1.9907 H   0  0  0  0  0  0  0  0  0  0  0  0
   -7.8920   -0.4187   -1.6131 H   0  0  0  0  0  0  0  0  0  0  0  0
   -7.1431   -1.5291   -0.3824 H   0  0  0  0  0  0  0  0  0  0  0  0
   -4.6232   -1.5926    3.3816 H   0  0  0  0  0  0  0  0  0  0  0  0
   -2.8475   -1.4267    3.3726 H   0  0  0  0  0  0  0  0  0  0  0  0
   -3.8790   -0.0191    3.8212 H   0  0  0  0  0  0  0  0  0  0  0  0
    0.8205    1.7052    1.5043 H   0  0  0  0  0  0  0  0  0  0  0  0
    0.9820    0.2127    2.4105 H   0  0  0  0  0  0  0  0  0  0  0  0
    2.4130   -0.7995    0.7789 H   0  0  0  0  0  0  0  0  0  0  0  0
    3.0069    0.7859    1.2212 H   0  0  0  0  0  0  0  0  0  0  0  0
  1  2  1  0
  2  3  2  0
  3  4  1  0
  4  5  1  0
  5  6  1  0
  6  7  1  0
  7  8  1  0
  8  9  1  0
  9 10  1  0
 10 11  1  0
 11 12  2  0
 11 13  1  0
 13 14  2  0
 14 15  1  0
 15 16  1  0
 16 17  1  0
 17 18  1  0
 15 19  2  0
 19 20  1  0
 20 21  1  0
 10 22  1  0
 22 23  1  0
  4 24  2  0
 24 25  1  0
 25  2  1  0
 23  6  1  0
 20 13  1  0
 18 16  1  0
  1 26  1  0
  1 27  1  0
  1 28  1  0
  3 29  1  0
  5 30  1  0
  5 31  1  0
  7 32  1  0
  7 33  1  0
  8 34  1  0
  8 35  1  0
  9 36  1  0
  9 37  1  0
 14 38  1  0
 16 39  1  0
 17 40  1  0
 17 41  1  0
 18 42  1  0
 18 43  1  0
 21 44  1  0
 21 45  1  0
 21 46  1  0
 22 47  1  0
 22 48  1  0
 23 49  1  0
 23 50  1  0
M  END
$$$$
OCNT-2317891
     RDKit          3D

 40 42  0  0  0  0  0  0  0  0999 V2000
    6.4336    0.8367    1.5783 C   0  0  0  0  0  0  0  0  0  0  0  0
    5.0902    0.5159    1.9251 O   0  0  0  0  0  0  0  0  0  0  0  0
    4.2987    0.2265    0.8290 C   0  0  0  0  0  0  0  0  0  0  0  0
    2.9913   -0.1095    1.0987 C   0  0  0  0  0  0  0  0  0  0  0  0
    2.1758   -0.3977    0.0202 C   0  0  0  0  0  0  0  0  0  0  0  0
    0.8379   -0.7655    0.2274 N   0  0  0  0  0  0  0  0  0  0  0  0
    0.0202    0.1944    1.0168 C   0  0  0  0  0  0  0  0  0  0  0  0
   -0.4896    1.3696    0.1440 C   0  0  0  0  0  0  0  0  0  0  0  0
   -1.2002    0.9122   -1.0753 N   0  0  0  0  0  0  0  0  0  0  0  0
   -2.5354    0.5332   -0.8662 C   0  0  0  0  0  0  0  0  0  0  0  0
   -3.3684    0.2930   -1.9594 C   0  0  0  0  0  0  0  0  0  0  0  0
   -4.6975   -0.0716   -1.7586 C   0  0  0  0  0  0  0  0  0  0  0  0
   -5.1797   -0.1808   -0.4639 C   0  0  0  0  0  0  0  0  0  0  0  0
   -4.3126    0.0900    0.5847 C   0  0  0  0  0  0  0  0  0  0  0  0
   -4.7932   -0.0023    2.0015 C   0  0  0  0  0  0  0  0  0  0  0  0
   -3.0187    0.4464    0.3928 N   0  0  0  0  0  0  0  0  0  0  0  0
   -0.3915   -0.0575   -1.8580 C   0  0  0  0  0  0  0  0  0  0  0  0
    0.1137   -1.2314   -0.9813 C   0  0  0  0  0  0  0  0  0  0  0  0
    2.6742   -0.3784   -1.2301 N   0  0  0  0  0  0  0  0  0  0  0  0
    3.9632   -0.0364   -1.3801 C   0  0  0  0  0  0  0  0  0  0  0  0
    4.8172    0.2820   -0.4049 N   0  0  0  0  0  0  0  0  0  0  0  0
    6.9283   -0.0067    1.0841 H   0  0  0  0  0  0  0  0  0  0  0  0
    6.4787    1.7387    0.9583 H   0  0  0  0  0  0  0  0  0  0  0  0
    6.9765    1.0434    2.5057 H   0  0  0  0  0  0  0  0  0  0  0  0
    2.6418   -0.1699    2.1194 H   0  0  0  0  0  0  0  0  0  0  0  0
   -0.8253   -0.3626    1.4362 H   0  0  0  0  0  0  0  0  0  0  0  0
    0.5642    0.5927    1.8799 H   0  0  0  0  0  0  0  0  0  0  0  0
   -1.1106    2.0509    0.7393 H   0  0  0  0  0  0  0  0  0  0  0  0
    0.3720    1.9665   -0.1822 H   0  0  0  0  0  0  0  0  0  0  0  0
   -2.9977    0.4169   -2.9711 H   0  0  0  0  0  0  0  0  0  0  0  0
   -5.3485   -0.2559   -2.6076 H   0  0  0  0  0  0  0  0  0  0  0  0
   -6.2115   -0.4600   -0.2800 H   0  0  0  0  0  0  0  0  0  0  0  0
   -5.1437   -1.0164    2.2169 H   0  0  0  0  0  0  0  0  0  0  0  0
   -5.6109    0.7051    2.1704 H   0  0  0  0  0  0  0  0  0  0  0  0
   -3.9866    0.2353    2.7027 H   0  0  0  0  0  0  0  0  0  0  0  0
   -0.9391   -0.4565   -2.7189 H   0  0  0  0  0  0  0  0  0  0  0  0
    0.4592    0.4903   -2.2795 H   0  0  0  0  0  0  0  0  0  0  0  0
    0.7265   -1.9205   -1.5758 H   0  0  0  0  0  0  0  0  0  0  0  0
   -0.7490   -1.8206   -0.6442 H   0  0  0  0  0  0  0  0  0  0  0  0
    4.3465   -0.0171   -2.3943 H   0  0  0  0  0  0  0  0  0  0  0  0
  1  2  1  0
  2  3  1  0
  3  4  2  0
  4  5  1  0
  5  6  1  0
  6  7  1  0
  7  8  1  0
  8  9  1  0
  9 10  1  0
 10 11  1  0
 11 12  2  0
 12 13  1  0
 13 14  2  0
 14 15  1  0
 14 16  1  0
  9 17  1  0
 17 18  1  0
  5 19  2  0
 19 20  1  0
 20 21  2  0
 21  3  1  0
 18  6  1  0
 16 10  2  0
  1 22  1  0
  1 23  1  0
  1 24  1  0
  4 25  1  0
  7 26  1  0
  7 27  1  0
  8 28  1  0
  8 29  1  0
 11 30  1  0
 12 31  1  0
 13 32  1  0
 15 33  1  0
 15 34  1  0
 15 35  1  0
 17 36  1  0
 17 37  1  0
 18 38  1  0
 18 39  1  0
 20 40  1  0
M  END
$$$$
OCNT-2317901
     RDKit          3D

 54 58  0  0  0  0  0  0  0  0999 V2000
    2.2440   -0.3874    2.2551 O   0  0  0  0  0  0  0  0  0  0  0  0
    1.6756    0.3592    1.4712 C   0  0  0  0  0  0  0  0  0  0  0  0
    2.1368    1.5945    1.1005 N   0  0  0  0  0  0  0  0  0  0  0  0
    3.4293    2.0708    1.5350 C   0  0  0  0  0  0  0  0  0  0  0  0
    4.4974    1.7532    0.5156 C   0  0  0  0  0  0  0  0  0  0  0  0
    4.8266    2.6872   -0.4821 C   0  0  0  0  0  0  0  0  0  0  0  0
    5.7939    2.4097   -1.4555 C   0  0  0  0  0  0  0  0  0  0  0  0
    6.4065    1.1613   -1.3855 C   0  0  0  0  0  0  0  0  0  0  0  0
    7.3666    0.7002   -2.2362 O   0  0  0  0  0  0  0  0  0  0  0  0
    7.6938   -0.5521   -1.8213 C   0  0  0  0  0  0  0  0  0  0  0  0
    6.9533   -0.9072   -0.7172 C   0  0  0  0  0  0  0  0  0  0  0  0
    6.1133    0.2004   -0.4254 C   0  0  0  0  0  0  0  0  0  0  0  0
    5.1367    0.4952    0.5421 C   0  0  0  0  0  0  0  0  0  0  0  0
    0.4988    0.0666    0.8411 N   0  0  0  0  0  0  0  0  0  0  0  0
   -0.2406   -1.1379    1.1766 C   0  0  0  0  0  0  0  0  0  0  0  0
    0.4291   -2.4143    0.6138 C   0  0  0  0  0  0  0  0  0  0  0  0
   -0.5162   -3.6302    0.6755 C   0  0  0  0  0  0  0  0  0  0  0  0
   -1.7885   -3.4284   -0.1682 C   0  0  0  0  0  0  0  0  0  0  0  0
   -2.3455   -2.0641    0.0180 C   0  0  0  0  0  0  0  0  0  0  0  0
   -3.5518   -1.5135   -0.3399 C   0  0  0  0  0  0  0  0  0  0  0  0
   -3.5049   -0.2016    0.0504 N   0  0  0  0  0  0  0  0  0  0  0  0
   -4.5342    0.8037   -0.1016 C   0  0  0  0  0  0  0  0  0  0  0  0
   -4.7893    1.2218   -1.5543 C   0  0  0  0  0  0  0  0  0  0  0  0
   -6.2729    1.5936   -1.6299 C   0  0  0  0  0  0  0  0  0  0  0  0
   -6.8236    1.4360   -0.2160 C   0  0  0  0  0  0  0  0  0  0  0  0
   -5.9120    0.4032    0.4274 C   0  0  0  0  0  0  0  0  0  0  0  0
   -2.3285    0.1422    0.6216 N   0  0  0  0  0  0  0  0  0  0  0  0
   -1.6311   -1.0018    0.6169 C   0  0  0  0  0  0  0  0  0  0  0  0
    1.8186    1.9083    0.1962 H   0  0  0  0  0  0  0  0  0  0  0  0
    3.6907    1.6472    2.5114 H   0  0  0  0  0  0  0  0  0  0  0  0
    3.3463    3.1560    1.6647 H   0  0  0  0  0  0  0  0  0  0  0  0
    4.3259    3.6538   -0.5088 H   0  0  0  0  0  0  0  0  0  0  0  0
    6.0566    3.1227   -2.2269 H   0  0  0  0  0  0  0  0  0  0  0  0
    8.4543   -1.0520   -2.4050 H   0  0  0  0  0  0  0  0  0  0  0  0
    7.0094   -1.8469   -0.1858 H   0  0  0  0  0  0  0  0  0  0  0  0
    4.8734   -0.2407    1.2983 H   0  0  0  0  0  0  0  0  0  0  0  0
   -0.1058    0.8631    0.6769 H   0  0  0  0  0  0  0  0  0  0  0  0
   -0.3074   -1.2117    2.2700 H   0  0  0  0  0  0  0  0  0  0  0  0
    1.3455   -2.6359    1.1731 H   0  0  0  0  0  0  0  0  0  0  0  0
    0.7323   -2.2514   -0.4304 H   0  0  0  0  0  0  0  0  0  0  0  0
   -0.7975   -3.8057    1.7223 H   0  0  0  0  0  0  0  0  0  0  0  0
    0.0099   -4.5283    0.3343 H   0  0  0  0  0  0  0  0  0  0  0  0
   -2.5335   -4.1862    0.0964 H   0  0  0  0  0  0  0  0  0  0  0  0
   -1.5475   -3.5702   -1.2295 H   0  0  0  0  0  0  0  0  0  0  0  0
   -4.4164   -1.9319   -0.8353 H   0  0  0  0  0  0  0  0  0  0  0  0
   -4.2007    1.6889    0.4579 H   0  0  0  0  0  0  0  0  0  0  0  0
   -4.5716    0.4177   -2.2670 H   0  0  0  0  0  0  0  0  0  0  0  0
   -4.1525    2.0712   -1.8266 H   0  0  0  0  0  0  0  0  0  0  0  0
   -6.7895    0.9125   -2.3180 H   0  0  0  0  0  0  0  0  0  0  0  0
   -6.4198    2.6129   -2.0055 H   0  0  0  0  0  0  0  0  0  0  0  0
   -7.8731    1.1271   -0.2120 H   0  0  0  0  0  0  0  0  0  0  0  0
   -6.7492    2.3899    0.3211 H   0  0  0  0  0  0  0  0  0  0  0  0
   -5.9604    0.4341    1.5206 H   0  0  0  0  0  0  0  0  0  0  0  0
   -6.2005   -0.6051    0.1058 H   0  0  0  0  0  0  0  0  0  0  0  0
  1  2  2  0
  2  3  1  0
  3  4  1  0
  4  5  1  0
  5  6  2  0
  6  7  1  0
  7  8  2  0
  8  9  1  0
  9 10  1  0
 10 11  2  0
 11 12  1  0
 12 13  2  0
  2 14  1  0
 14 15  1  0
 15 16  1  0
 16 17  1  0
 17 18  1  0
 18 19  1  0
 19 20  2  0
 20 21  1  0
 21 22  1  0
 22 23  1  0
 23 24  1  0
 24 25  1  0
 25 26  1  0
 21 27  1  0
 27 28  2  0
 13  5  1  0
 28 15  1  0
 12  8  1  0
 28 19  1  0
 26 22  1  0
  3 29  1  0
  4 30  1  0
  4 31  1  0
  6 32  1  0
  7 33  1  0
 10 34  1  0
 11 35  1  0
 13 36  1  0
 14 37  1  0
 15 38  1  0
 16 39  1  0
 16 40  1  0
 17 41  1  0
 17 42  1  0
 18 43  1  0
 18 44  1  0
 20 45  1  0
 22 46  1  0
 23 47  1  0
 23 48  1  0
 24 49  1  0
 24 50  1  0
 25 51  1  0
 25 52  1  0
 26 53  1  0
 26 54  1  0
M  END
$$$$
OCNT-2317936
     RDKit          3D

 43 46  0  0  0  0  0  0  0  0999 V2000
    0.1110   -3.1111   -2.1199 C   0  0  0  0  0  0  0  0  0  0  0  0
   -1.1621   -2.4774   -1.6916 C   0  0  0  0  0  0  0  0  0  0  0  0
   -2.3210   -3.1071   -1.9425 N   0  0  0  0  0  0  0  0  0  0  0  0
   -3.2569   -2.2752   -1.4426 N   0  0  0  0  0  0  0  0  0  0  0  0
   -4.6499   -2.6303   -1.5427 C   0  0  0  0  0  0  0  0  0  0  0  0
   -2.7395   -1.1564   -0.8527 C   0  0  0  0  0  0  0  0  0  0  0  0
   -3.4364   -0.1768   -0.2455 N   0  0  0  0  0  0  0  0  0  0  0  0
   -2.6924    0.8346    0.2576 C   0  0  0  0  0  0  0  0  0  0  0  0
   -3.4213    1.9802    0.9249 C   0  0  0  0  0  0  0  0  0  0  0  0
   -3.1995    2.2749    2.3916 C   0  0  0  0  0  0  0  0  0  0  0  0
   -4.5050    1.6938    1.9396 C   0  0  0  0  0  0  0  0  0  0  0  0
   -1.3000    0.8601    0.1614 C   0  0  0  0  0  0  0  0  0  0  0  0
   -0.6133   -0.1889   -0.4669 C   0  0  0  0  0  0  0  0  0  0  0  0
    0.8584   -0.1476   -0.5614 C   0  0  0  0  0  0  0  0  0  0  0  0
    1.4220   -0.5064   -1.5851 O   0  0  0  0  0  0  0  0  0  0  0  0
    1.4939    0.1764    0.6231 N   0  0  0  0  0  0  0  0  0  0  0  0
    2.8246    0.4901    0.7775 C   0  0  0  0  0  0  0  0  0  0  0  0
    3.3570    0.2217    1.9328 N   0  0  0  0  0  0  0  0  0  0  0  0
    4.7099    0.4292    2.0336 C   0  0  0  0  0  0  0  0  0  0  0  0
    5.4984    0.8492    1.0356 C   0  0  0  0  0  0  0  0  0  0  0  0
    4.9697    1.1834   -0.1929 N   0  0  0  0  0  0  0  0  0  0  0  0
    5.8163    1.7708   -1.2115 C   0  0  0  0  0  0  0  0  0  0  0  0
    3.5875    1.1723   -0.3752 C   0  0  0  0  0  0  0  0  0  0  0  0
    2.9939    1.7355   -1.2840 O   0  0  0  0  0  0  0  0  0  0  0  0
   -1.3632   -1.2439   -1.0071 C   0  0  0  0  0  0  0  0  0  0  0  0
    0.5340   -2.5783   -2.9769 H   0  0  0  0  0  0  0  0  0  0  0  0
   -0.0441   -4.1535   -2.4193 H   0  0  0  0  0  0  0  0  0  0  0  0
    0.8395   -3.1113   -1.3032 H   0  0  0  0  0  0  0  0  0  0  0  0
   -4.8622   -3.3921   -0.7885 H   0  0  0  0  0  0  0  0  0  0  0  0
   -4.8407   -3.0225   -2.5452 H   0  0  0  0  0  0  0  0  0  0  0  0
   -5.2716   -1.7480   -1.3737 H   0  0  0  0  0  0  0  0  0  0  0  0
   -3.5995    2.8386    0.2808 H   0  0  0  0  0  0  0  0  0  0  0  0
   -2.5415    1.6339    2.9671 H   0  0  0  0  0  0  0  0  0  0  0  0
   -3.1879    3.3136    2.7024 H   0  0  0  0  0  0  0  0  0  0  0  0
   -4.7191    0.6600    2.1883 H   0  0  0  0  0  0  0  0  0  0  0  0
   -5.3792    2.3347    1.9354 H   0  0  0  0  0  0  0  0  0  0  0  0
   -0.7578    1.7144    0.5584 H   0  0  0  0  0  0  0  0  0  0  0  0
    1.0328   -0.0725    1.4860 H   0  0  0  0  0  0  0  0  0  0  0  0
    5.1485    0.1903    2.9999 H   0  0  0  0  0  0  0  0  0  0  0  0
    6.5693    0.9665    1.1703 H   0  0  0  0  0  0  0  0  0  0  0  0
    6.7645    1.2271   -1.2664 H   0  0  0  0  0  0  0  0  0  0  0  0
    5.3296    1.7301   -2.1907 H   0  0  0  0  0  0  0  0  0  0  0  0
    6.0035    2.8179   -0.9534 H   0  0  0  0  0  0  0  0  0  0  0  0
  1  2  1  0
  2  3  2  0
  3  4  1  0
  4  5  1  0
  4  6  1  0
  6  7  1  0
  7  8  2  0
  8  9  1  0
  9 10  1  0
 10 11  1  0
  8 12  1  0
 12 13  2  0
 13 14  1  0
 14 15  2  0
 14 16  1  0
 16 17  1  0
 17 18  2  0
 18 19  1  0
 19 20  2  0
 20 21  1  0
 21 22  1  0
 21 23  1  0
 23 24  2  0
 13 25  1  0
 25  2  1  0
 25  6  2  0
 11  9  1  0
 23 17  1  0
  1 26  1  0
  1 27  1  0
  1 28  1  0
  5 29  1  0
  5 30  1  0
  5 31  1  0
  9 32  1  0
 10 33  1  0
 10 34  1  0
 11 35  1  0
 11 36  1  0
 12 37  1  0
 16 38  1  0
 19 39  1  0
 20 40  1  0
 22 41  1  0
 22 42  1  0
 22 43  1  0
M  END
$$$$
OCNT-2317954
     RDKit          3D

 39 41  0  0  0  0  0  0  0  0999 V2000
    1.4285    1.5887   -2.4880 O   0  0  0  0  0  0  0  0  0  0  0  0
    0.5859    1.1615   -1.7100 C   0  0  0  0  0  0  0  0  0  0  0  0
    0.7352    0.8825   -0.3715 N   0  0  0  0  0  0  0  0  0  0  0  0
    1.9341    0.9949    0.2745 C   0  0  0  0  0  0  0  0  0  0  0  0
    3.1160    1.2886   -0.1976 N   0  0  0  0  0  0  0  0  0  0  0  0
    4.0334    1.2810    0.8346 C   0  0  0  0  0  0  0  0  0  0  0  0
    3.5272    0.9792    2.0844 C   0  0  0  0  0  0  0  0  0  0  0  0
    4.2407    0.8984    3.3986 C   0  0  0  0  0  0  0  0  0  0  0  0
    5.0427   -0.3947    3.5355 C   0  0  0  0  0  0  0  0  0  0  0  0
    6.2117   -0.3381    2.7227 O   0  0  0  0  0  0  0  0  0  0  0  0
    1.8418    0.6813    1.9522 S   0  0  0  0  0  0  0  0  0  0  0  0
   -0.7933    0.9426   -2.2267 C   0  0  0  0  0  0  0  0  0  0  0  0
   -1.3113    1.8431   -3.1617 C   0  0  0  0  0  0  0  0  0  0  0  0
   -2.6040    1.6691   -3.6533 C   0  0  0  0  0  0  0  0  0  0  0  0
   -3.3815    0.5941   -3.2163 C   0  0  0  0  0  0  0  0  0  0  0  0
   -2.8754   -0.3256   -2.2848 C   0  0  0  0  0  0  0  0  0  0  0  0
   -3.7181   -1.5048   -1.8558 C   0  0  0  0  0  0  0  0  0  0  0  0
   -3.7000   -1.6994   -0.4148 N   0  0  0  0  0  0  0  0  0  0  0  0
   -3.1458   -2.7556    0.2549 C   0  0  0  0  0  0  0  0  0  0  0  0
   -3.3727   -2.4883    1.5849 C   0  0  0  0  0  0  0  0  0  0  0  0
   -4.0482   -1.3051    1.7346 N   0  0  0  0  0  0  0  0  0  0  0  0
   -4.2481   -0.8607    0.5143 C   0  0  0  0  0  0  0  0  0  0  0  0
   -1.5634   -0.1523   -1.8103 C   0  0  0  0  0  0  0  0  0  0  0  0
   -0.0580    0.6518    0.2072 H   0  0  0  0  0  0  0  0  0  0  0  0
    5.0728    1.5020    0.6201 H   0  0  0  0  0  0  0  0  0  0  0  0
    3.5193    0.9605    4.2220 H   0  0  0  0  0  0  0  0  0  0  0  0
    4.9105    1.7627    3.4873 H   0  0  0  0  0  0  0  0  0  0  0  0
    5.3696   -0.5171    4.5731 H   0  0  0  0  0  0  0  0  0  0  0  0
    4.4525   -1.2704    3.2469 H   0  0  0  0  0  0  0  0  0  0  0  0
    6.6564   -1.1993    2.8030 H   0  0  0  0  0  0  0  0  0  0  0  0
   -0.7065    2.6802   -3.5064 H   0  0  0  0  0  0  0  0  0  0  0  0
   -3.0034    2.3712   -4.3817 H   0  0  0  0  0  0  0  0  0  0  0  0
   -4.3860    0.4785   -3.6201 H   0  0  0  0  0  0  0  0  0  0  0  0
   -3.3495   -2.4186   -2.3357 H   0  0  0  0  0  0  0  0  0  0  0  0
   -4.7693   -1.3708   -2.1358 H   0  0  0  0  0  0  0  0  0  0  0  0
   -2.6558   -3.5788   -0.2457 H   0  0  0  0  0  0  0  0  0  0  0  0
   -3.0866   -3.0847    2.4417 H   0  0  0  0  0  0  0  0  0  0  0  0
   -4.7658    0.0536    0.2526 H   0  0  0  0  0  0  0  0  0  0  0  0
   -1.1356   -0.8845   -1.1287 H   0  0  0  0  0  0  0  0  0  0  0  0
  1  2  2  0
  2  3  1  0
  3  4  1  0
  4  5  2  0
  5  6  1  0
  6  7  2  0
  7  8  1  0
  8  9  1  0
  9 10  1  0
  7 11  1  0
  2 12  1  0
 12 13  1  0
 13 14  2  0
 14 15  1  0
 15 16  2  0
 16 17  1  0
 17 18  1  0
 18 19  1  0
 19 20  2  0
 20 21  1  0
 21 22  2  0
 16 23  1  0
 11  4  1  0
 23 12  2  0
 22 18  1  0
  3 24  1  0
  6 25  1  0
  8 26  1  0
  8 27  1  0
  9 28  1  0
  9 29  1  0
 10 30  1  0
 13 31  1  0
 14 32  1  0
 15 33  1  0
 17 34  1  0
 17 35  1  0
 19 36  1  0
 20 37  1  0
 22 38  1  0
 23 39  1  0
M  END
$$$$
OCNT-2317961
     RDKit          3D

 39 42  0  0  0  0  0  0  0  0999 V2000
   -0.6147    1.8414    2.0945 O   0  0  0  0  0  0  0  0  0  0  0  0
   -0.9267    0.9032    1.3647 C   0  0  0  0  0  0  0  0  0  0  0  0
   -2.3252    0.5263    1.2006 C   0  0  0  0  0  0  0  0  0  0  0  0
   -3.2010    0.3137    2.2554 C   0  0  0  0  0  0  0  0  0  0  0  0
   -4.4271   -0.0139    1.7413 N   0  0  0  0  0  0  0  0  0  0  0  0
   -4.3776    0.0160    0.3761 C   0  0  0  0  0  0  0  0  0  0  0  0
   -5.4279   -0.2444   -0.4238 N   0  0  0  0  0  0  0  0  0  0  0  0
   -5.1334   -0.1086   -1.7397 C   0  0  0  0  0  0  0  0  0  0  0  0
   -3.8969    0.2595   -2.2548 C   0  0  0  0  0  0  0  0  0  0  0  0
   -3.6411    0.4142   -4.1181 Br  0  0  0  0  0  0  0  0  0  0  0  0
   -2.8401    0.5142   -1.3819 C   0  0  0  0  0  0  0  0  0  0  0  0
   -3.0863    0.3726   -0.0031 C   0  0  0  0  0  0  0  0  0  0  0  0
    0.0332    0.1593    0.6714 N   0  0  0  0  0  0  0  0  0  0  0  0
   -0.2033   -1.1904    0.1488 C   0  0  0  0  0  0  0  0  0  0  0  0
    1.0138   -2.0903    0.3409 C   0  0  0  0  0  0  0  0  0  0  0  0
    2.2635   -1.5261   -0.3388 C   0  0  0  0  0  0  0  0  0  0  0  0
    2.2952    0.0139   -0.3570 C   0  0  0  0  0  0  0  0  0  0  0  0
    3.6531    0.5343   -0.3428 N   0  0  0  0  0  0  0  0  0  0  0  0
    4.2753    1.1800   -1.3759 C   0  0  0  0  0  0  0  0  0  0  0  0
    5.5325    1.4774   -0.9043 C   0  0  0  0  0  0  0  0  0  0  0  0
    5.6877    1.0275    0.3802 N   0  0  0  0  0  0  0  0  0  0  0  0
    4.5422    0.4660    0.6929 C   0  0  0  0  0  0  0  0  0  0  0  0
    1.4231    0.6169    0.7516 C   0  0  0  0  0  0  0  0  0  0  0  0
   -3.0441    0.3694    3.3252 H   0  0  0  0  0  0  0  0  0  0  0  0
   -5.2641   -0.2223    2.2666 H   0  0  0  0  0  0  0  0  0  0  0  0
   -5.9711   -0.3121   -2.4030 H   0  0  0  0  0  0  0  0  0  0  0  0
   -1.8654    0.8193   -1.7469 H   0  0  0  0  0  0  0  0  0  0  0  0
   -1.0678   -1.6466    0.6398 H   0  0  0  0  0  0  0  0  0  0  0  0
   -0.4243   -1.0940   -0.9195 H   0  0  0  0  0  0  0  0  0  0  0  0
    1.2123   -2.1974    1.4152 H   0  0  0  0  0  0  0  0  0  0  0  0
    0.8071   -3.0954   -0.0432 H   0  0  0  0  0  0  0  0  0  0  0  0
    2.3061   -1.8852   -1.3755 H   0  0  0  0  0  0  0  0  0  0  0  0
    3.1471   -1.9481    0.1555 H   0  0  0  0  0  0  0  0  0  0  0  0
    1.8608    0.3345   -1.3153 H   0  0  0  0  0  0  0  0  0  0  0  0
    3.7972    1.3721   -2.3262 H   0  0  0  0  0  0  0  0  0  0  0  0
    6.3333    1.9903   -1.4212 H   0  0  0  0  0  0  0  0  0  0  0  0
    4.3143    0.0001    1.6432 H   0  0  0  0  0  0  0  0  0  0  0  0
    1.7978    0.3401    1.7455 H   0  0  0  0  0  0  0  0  0  0  0  0
    1.4424    1.7126    0.6982 H   0  0  0  0  0  0  0  0  0  0  0  0
  1  2  2  0
  2  3  1  0
  3  4  2  0
  4  5  1  0
  5  6  1  0
  6  7  1  0
  7  8  2  0
  8  9  1  0
  9 10  1  0
  9 11  2  0
 11 12  1  0
  2 13  1  0
 13 14  1  0
 14 15  1  0
 15 16  1  0
 16 17  1  0
 17 18  1  0
 18 19  1  0
 19 20  2  0
 20 21  1  0
 21 22  2  0
 17 23  1  0
 12  3  1  0
 23 13  1  0
 12  6  2  0
 22 18  1  0
  4 24  1  0
  5 25  1  0
  8 26  1  0
 11 27  1  0
 14 28  1  0
 14 29  1  0
 15 30  1  0
 15 31  1  0
 16 32  1  0
 16 33  1  0
 17 34  1  0
 19 35  1  0
 20 36  1  0
 22 37  1  0
 23 38  1  0
 23 39  1  0
M  END
$$$$
OCNT-2317963
     RDKit          3D

 48 50  0  0  0  0  0  0  0  0999 V2000
   -7.8188    1.9327   -0.1927 C   0  0  0  0  0  0  0  0  0  0  0  0
   -6.6429    1.0576    0.2005 C   0  0  0  0  0  0  0  0  0  0  0  0
   -5.5905    1.2842   -0.7446 O   0  0  0  0  0  0  0  0  0  0  0  0
   -4.4332    0.6613   -0.3393 C   0  0  0  0  0  0  0  0  0  0  0  0
   -3.4277    1.4175    0.2774 C   0  0  0  0  0  0  0  0  0  0  0  0
   -3.6378    3.1015    0.6025 Cl  0  0  0  0  0  0  0  0  0  0  0  0
   -2.2271    0.8182    0.6583 C   0  0  0  0  0  0  0  0  0  0  0  0
   -2.0225   -0.5405    0.4007 C   0  0  0  0  0  0  0  0  0  0  0  0
   -0.7658   -1.2364    0.7907 C   0  0  0  0  0  0  0  0  0  0  0  0
   -0.7774   -2.4416    1.0117 O   0  0  0  0  0  0  0  0  0  0  0  0
    0.3714   -0.4700    0.8562 N   0  0  0  0  0  0  0  0  0  0  0  0
    1.6675   -1.0424    1.2147 C   0  0  0  0  0  0  0  0  0  0  0  0
    1.7816   -1.2226    2.7272 C   0  0  0  0  0  0  0  0  0  0  0  0
    2.7636   -0.1599    0.6902 C   0  0  0  0  0  0  0  0  0  0  0  0
    2.6187    1.1673    0.5393 N   0  0  0  0  0  0  0  0  0  0  0  0
    3.8581    1.5655    0.0335 O   0  0  0  0  0  0  0  0  0  0  0  0
    4.6245    0.4368   -0.0699 C   0  0  0  0  0  0  0  0  0  0  0  0
    5.9809    0.5952   -0.5818 C   0  0  0  0  0  0  0  0  0  0  0  0
    6.4966    1.8467   -0.9530 C   0  0  0  0  0  0  0  0  0  0  0  0
    7.8017    1.9650   -1.4403 C   0  0  0  0  0  0  0  0  0  0  0  0
    8.6070    0.8348   -1.5626 C   0  0  0  0  0  0  0  0  0  0  0  0
    8.1106   -0.4145   -1.1987 C   0  0  0  0  0  0  0  0  0  0  0  0
    6.8064   -0.5328   -0.7117 C   0  0  0  0  0  0  0  0  0  0  0  0
    3.9932   -0.6492    0.3231 N   0  0  0  0  0  0  0  0  0  0  0  0
   -3.0278   -1.2980   -0.2225 C   0  0  0  0  0  0  0  0  0  0  0  0
   -4.2316   -0.7029   -0.6100 C   0  0  0  0  0  0  0  0  0  0  0  0
   -5.2549   -1.3550   -1.2470 O   0  0  0  0  0  0  0  0  0  0  0  0
   -5.0508   -2.7182   -1.5963 C   0  0  0  0  0  0  0  0  0  0  0  0
   -8.1559    1.6926   -1.2066 H   0  0  0  0  0  0  0  0  0  0  0  0
   -8.6548    1.7965    0.4990 H   0  0  0  0  0  0  0  0  0  0  0  0
   -7.5294    2.9888   -0.1942 H   0  0  0  0  0  0  0  0  0  0  0  0
   -6.9537    0.0070    0.1854 H   0  0  0  0  0  0  0  0  0  0  0  0
   -6.3187    1.3214    1.2147 H   0  0  0  0  0  0  0  0  0  0  0  0
   -1.4770    1.4129    1.1707 H   0  0  0  0  0  0  0  0  0  0  0  0
    0.3752    0.4981    0.5586 H   0  0  0  0  0  0  0  0  0  0  0  0
    1.7472   -2.0246    0.7328 H   0  0  0  0  0  0  0  0  0  0  0  0
    1.6776   -0.2652    3.2513 H   0  0  0  0  0  0  0  0  0  0  0  0
    2.7535   -1.6485    2.9998 H   0  0  0  0  0  0  0  0  0  0  0  0
    1.0017   -1.8913    3.1065 H   0  0  0  0  0  0  0  0  0  0  0  0
    5.8909    2.7468   -0.8685 H   0  0  0  0  0  0  0  0  0  0  0  0
    8.1888    2.9406   -1.7245 H   0  0  0  0  0  0  0  0  0  0  0  0
    9.6217    0.9277   -1.9418 H   0  0  0  0  0  0  0  0  0  0  0  0
    8.7368   -1.2983   -1.2933 H   0  0  0  0  0  0  0  0  0  0  0  0
    6.4339   -1.5174   -0.4320 H   0  0  0  0  0  0  0  0  0  0  0  0
   -2.8370   -2.3533   -0.3990 H   0  0  0  0  0  0  0  0  0  0  0  0
   -4.2001   -2.8296   -2.2767 H   0  0  0  0  0  0  0  0  0  0  0  0
   -5.9452   -3.0654   -2.1225 H   0  0  0  0  0  0  0  0  0  0  0  0
   -4.9289   -3.3390   -0.7027 H   0  0  0  0  0  0  0  0  0  0  0  0
  1  2  1  0
  2  3  1  0
  3  4  1  0
  4  5  1  0
  5  6  1  0
  5  7  2  0
  7  8  1  0
  8  9  1  0
  9 10  2  0
  9 11  1  0
 11 12  1  0
 12 13  1  0
 12 14  1  0
 14 15  2  0
 15 16  1  0
 16 17  1  0
 17 18  1  0
 18 19  2  0
 19 20  1  0
 20 21  2  0
 21 22  1  0
 22 23  2  0
 17 24  2  0
  8 25  2  0
 25 26  1  0
 26 27  1  0
 27 28  1  0
 26  4  2  0
 24 14  1  0
 23 18  1  0
  1 29  1  0
  1 30  1  0
  1 31  1  0
  2 32  1  0
  2 33  1  0
  7 34  1  0
 11 35  1  0
 12 36  1  0
 13 37  1  0
 13 38  1  0
 13 39  1  0
 19 40  1  0
 20 41  1  0
 21 42  1  0
 22 43  1  0
 23 44  1  0
 25 45  1  0
 28 46  1  0
 28 47  1  0
 28 48  1  0
M  END
$$$$
OCNT-2317966
     RDKit          3D

 48 51  0  0  0  0  0  0  0  0999 V2000
    6.6849    1.9304   -0.8527 C   0  0  0  0  0  0  0  0  0  0  0  0
    6.3685    0.4500   -0.6951 C   0  0  0  0  0  0  0  0  0  0  0  0
    4.9986    0.1818   -0.0462 C   0  0  0  0  0  0  0  0  0  0  0  0
    4.8186   -1.3413    0.1943 C   0  0  0  0  0  0  0  0  0  0  0  0
    3.5153   -1.6633    0.9470 C   0  0  0  0  0  0  0  0  0  0  0  0
    2.3702   -0.9017    0.3789 C   0  0  0  0  0  0  0  0  0  0  0  0
    2.5290    0.2005   -0.4348 C   0  0  0  0  0  0  0  0  0  0  0  0
    3.8333    0.7561   -0.8956 C   0  0  0  0  0  0  0  0  0  0  0  0
    1.0081    0.8243   -0.8770 S   0  0  0  0  0  0  0  0  0  0  0  0
    0.2616   -0.4072    0.0545 C   0  0  0  0  0  0  0  0  0  0  0  0
   -1.1019   -0.3622    0.0406 N   0  0  0  0  0  0  0  0  0  0  0  0
   -1.8908   -1.2261    0.7456 C   0  0  0  0  0  0  0  0  0  0  0  0
   -1.4652   -2.1246    1.4658 O   0  0  0  0  0  0  0  0  0  0  0  0
   -3.3488   -1.0644    0.5796 C   0  0  0  0  0  0  0  0  0  0  0  0
   -4.1735   -0.0022    0.1855 C   0  0  0  0  0  0  0  0  0  0  0  0
   -3.8710    1.3041   -0.1898 N   0  0  0  0  0  0  0  0  0  0  0  0
   -4.6462    2.4429   -0.1960 C   0  0  0  0  0  0  0  0  0  0  0  0
   -3.8832    3.4593   -0.7189 C   0  0  0  0  0  0  0  0  0  0  0  0
   -2.6490    2.8594   -0.9882 C   0  0  0  0  0  0  0  0  0  0  0  0
   -2.6312    1.5652   -0.6623 N   0  0  0  0  0  0  0  0  0  0  0  0
   -5.4621   -0.4823    0.2378 N   0  0  0  0  0  0  0  0  0  0  0  0
   -6.6897    0.0940   -0.2672 C   0  0  0  0  0  0  0  0  0  0  0  0
   -5.5508   -1.7248    0.7286 N   0  0  0  0  0  0  0  0  0  0  0  0
   -4.2854   -2.0969    0.9246 C   0  0  0  0  0  0  0  0  0  0  0  0
   -4.0068   -3.4628    1.4479 C   0  0  0  0  0  0  0  0  0  0  0  0
    1.0664   -1.2451    0.6598 N   0  0  0  0  0  0  0  0  0  0  0  0
    6.0082    2.4120   -1.5646 H   0  0  0  0  0  0  0  0  0  0  0  0
    7.7052    2.0577   -1.2288 H   0  0  0  0  0  0  0  0  0  0  0  0
    6.6099    2.4525    0.1062 H   0  0  0  0  0  0  0  0  0  0  0  0
    7.1532   -0.0040   -0.0773 H   0  0  0  0  0  0  0  0  0  0  0  0
    6.4210   -0.0350   -1.6774 H   0  0  0  0  0  0  0  0  0  0  0  0
    4.9819    0.6740    0.9368 H   0  0  0  0  0  0  0  0  0  0  0  0
    5.6655   -1.7402    0.7654 H   0  0  0  0  0  0  0  0  0  0  0  0
    4.8155   -1.8600   -0.7739 H   0  0  0  0  0  0  0  0  0  0  0  0
    3.3183   -2.7398    0.9010 H   0  0  0  0  0  0  0  0  0  0  0  0
    3.6275   -1.3929    2.0037 H   0  0  0  0  0  0  0  0  0  0  0  0
    3.9758    0.4940   -1.9515 H   0  0  0  0  0  0  0  0  0  0  0  0
    3.8241    1.8496   -0.8220 H   0  0  0  0  0  0  0  0  0  0  0  0
   -1.5281    0.3930   -0.4864 H   0  0  0  0  0  0  0  0  0  0  0  0
   -5.6479    2.4616    0.2014 H   0  0  0  0  0  0  0  0  0  0  0  0
   -4.1737    4.4906   -0.8622 H   0  0  0  0  0  0  0  0  0  0  0  0
   -1.7554    3.3121   -1.4013 H   0  0  0  0  0  0  0  0  0  0  0  0
   -6.4846    0.6345   -1.1935 H   0  0  0  0  0  0  0  0  0  0  0  0
   -7.4012   -0.7082   -0.4863 H   0  0  0  0  0  0  0  0  0  0  0  0
   -7.1047    0.7476    0.5030 H   0  0  0  0  0  0  0  0  0  0  0  0
   -3.5986   -3.4086    2.4619 H   0  0  0  0  0  0  0  0  0  0  0  0
   -3.2923   -3.9853    0.8041 H   0  0  0  0  0  0  0  0  0  0  0  0
   -4.9187   -4.0686    1.4875 H   0  0  0  0  0  0  0  0  0  0  0  0
  1  2  1  0
  2  3  1  0
  3  4  1  0
  4  5  1  0
  5  6  1  0
  6  7  2  0
  7  8  1  0
  7  9  1  0
  9 10  1  0
 10 11  1  0
 11 12  1  0
 12 13  2  0
 12 14  1  0
 14 15  2  0
 15 16  1  0
 16 17  1  0
 17 18  2  0
 18 19  1  0
 19 20  2  0
 15 21  1  0
 21 22  1  0
 21 23  1  0
 23 24  2  0
 24 25  1  0
 10 26  2  0
  8  3  1  0
 24 14  1  0
 26  6  1  0
 20 16  1  0
  1 27  1  0
  1 28  1  0
  1 29  1  0
  2 30  1  0
  2 31  1  0
  3 32  1  0
  4 33  1  0
  4 34  1  0
  5 35  1  0
  5 36  1  0
  8 37  1  0
  8 38  1  0
 11 39  1  0
 17 40  1  0
 18 41  1  0
 19 42  1  0
 22 43  1  0
 22 44  1  0
 22 45  1  0
 25 46  1  0
 25 47  1  0
 25 48  1  0
M  END
$$$$
OCNT-2317983
     RDKit          3D

 38 40  0  0  0  0  0  0  0  0999 V2000
   -1.4989    3.0366    2.2835 C   0  0  0  0  0  0  0  0  0  0  0  0
   -1.6718    1.7390    1.4982 C   0  0  0  0  0  0  0  0  0  0  0  0
   -2.4873    2.0365    0.3564 O   0  0  0  0  0  0  0  0  0  0  0  0
   -3.2375    1.0355   -0.1962 C   0  0  0  0  0  0  0  0  0  0  0  0
   -4.1691    1.4689   -1.1442 C   0  0  0  0  0  0  0  0  0  0  0  0
   -5.0012    0.5569   -1.7955 C   0  0  0  0  0  0  0  0  0  0  0  0
   -4.9017   -0.8010   -1.5058 C   0  0  0  0  0  0  0  0  0  0  0  0
   -3.9684   -1.2424   -0.5698 C   0  0  0  0  0  0  0  0  0  0  0  0
   -3.1353   -0.3278    0.0832 C   0  0  0  0  0  0  0  0  0  0  0  0
   -0.3515    1.2219    1.0400 C   0  0  0  0  0  0  0  0  0  0  0  0
    0.2812    0.1234    1.3900 N   0  0  0  0  0  0  0  0  0  0  0  0
    1.4455    0.1919    0.6462 C   0  0  0  0  0  0  0  0  0  0  0  0
    2.4633   -0.8587    0.7123 C   0  0  0  0  0  0  0  0  0  0  0  0
    2.1914   -2.0150    1.4676 C   0  0  0  0  0  0  0  0  0  0  0  0
    3.1289   -3.0458    1.5799 C   0  0  0  0  0  0  0  0  0  0  0  0
    4.3624   -2.9359    0.9465 C   0  0  0  0  0  0  0  0  0  0  0  0
    4.6556   -1.8008    0.1941 C   0  0  0  0  0  0  0  0  0  0  0  0
    3.7058   -0.7787    0.0570 C   0  0  0  0  0  0  0  0  0  0  0  0
    4.0649    0.3351   -0.6564 O   0  0  0  0  0  0  0  0  0  0  0  0
    3.9574    0.1083   -2.0585 C   0  0  0  0  0  0  0  0  0  0  0  0
    4.9809   -0.6652   -2.4879 F   0  0  0  0  0  0  0  0  0  0  0  0
    4.0361    1.2931   -2.7033 F   0  0  0  0  0  0  0  0  0  0  0  0
    2.7905   -0.4847   -2.3908 F   0  0  0  0  0  0  0  0  0  0  0  0
    1.5241    1.2917   -0.1206 N   0  0  0  0  0  0  0  0  0  0  0  0
    0.3382    1.9713    0.1348 O   0  0  0  0  0  0  0  0  0  0  0  0
   -2.4733    3.4110    2.6163 H   0  0  0  0  0  0  0  0  0  0  0  0
   -1.0566    3.8249    1.6630 H   0  0  0  0  0  0  0  0  0  0  0  0
   -0.8619    2.8915    3.1622 H   0  0  0  0  0  0  0  0  0  0  0  0
   -2.1659    1.0197    2.1623 H   0  0  0  0  0  0  0  0  0  0  0  0
   -4.2480    2.5279   -1.3782 H   0  0  0  0  0  0  0  0  0  0  0  0
   -5.7218    0.9076   -2.5294 H   0  0  0  0  0  0  0  0  0  0  0  0
   -5.5448   -1.5151   -2.0133 H   0  0  0  0  0  0  0  0  0  0  0  0
   -3.8820   -2.3040   -0.3513 H   0  0  0  0  0  0  0  0  0  0  0  0
   -2.4123   -0.7236    0.7886 H   0  0  0  0  0  0  0  0  0  0  0  0
    1.2378   -2.1217    1.9830 H   0  0  0  0  0  0  0  0  0  0  0  0
    2.8959   -3.9288    2.1704 H   0  0  0  0  0  0  0  0  0  0  0  0
    5.0987   -3.7300    1.0442 H   0  0  0  0  0  0  0  0  0  0  0  0
    5.6309   -1.7137   -0.2798 H   0  0  0  0  0  0  0  0  0  0  0  0
  1  2  1  0
  2  3  1  0
  3  4  1  0
  4  5  2  0
  5  6  1  0
  6  7  2  0
  7  8  1  0
  8  9  2  0
  2 10  1  0
 10 11  2  0
 11 12  1  0
 12 13  1  0
 13 14  2  0
 14 15  1  0
 15 16  2  0
 16 17  1  0
 17 18  2  0
 18 19  1  0
 19 20  1  0
 20 21  1  0
 20 22  1  0
 20 23  1  0
 12 24  2  0
 24 25  1  0
  9  4  1  0
 25 10  1  0
 18 13  1  0
  1 26  1  0
  1 27  1  0
  1 28  1  0
  2 29  1  0
  5 30  1  0
  6 31  1  0
  7 32  1  0
  8 33  1  0
  9 34  1  0
 14 35  1  0
 15 36  1  0
 16 37  1  0
 17 38  1  0
M  END
$$$$
OCNT-2317984
     RDKit          3D

 60 62  0  0  0  0  0  0  0  0999 V2000
    7.8750    0.3736    0.9936 C   0  0  0  0  0  0  0  0  0  0  0  0
    7.1259   -0.7982    0.3581 C   0  0  0  0  0  0  0  0  0  0  0  0
    6.7843   -0.4854   -1.1074 C   0  0  0  0  0  0  0  0  0  0  0  0
    5.5376   -1.2462   -1.5524 C   0  0  0  0  0  0  0  0  0  0  0  0
    4.3400   -0.8093   -0.8134 N   0  0  0  0  0  0  0  0  0  0  0  0
    3.2651   -1.8285   -0.9567 C   0  0  0  0  0  0  0  0  0  0  0  0
    1.8771   -1.2346   -0.6620 C   0  0  0  0  0  0  0  0  0  0  0  0
    0.9506   -1.9524   -0.2965 O   0  0  0  0  0  0  0  0  0  0  0  0
    1.8290    0.1250   -0.9124 N   0  0  0  0  0  0  0  0  0  0  0  0
    0.7424    1.0076   -0.7895 C   0  0  0  0  0  0  0  0  0  0  0  0
   -0.5546    0.6064   -0.4436 C   0  0  0  0  0  0  0  0  0  0  0  0
   -1.6225    1.5185   -0.3324 C   0  0  0  0  0  0  0  0  0  0  0  0
   -2.9023    1.1157    0.0196 N   0  0  0  0  0  0  0  0  0  0  0  0
   -3.1658   -0.2109    0.5934 C   0  0  0  0  0  0  0  0  0  0  0  0
   -4.5124   -0.2345    1.3604 C   0  0  0  0  0  0  0  0  0  0  0  0
   -5.7124    0.2156    0.6098 N   0  0  0  0  0  0  0  0  0  0  0  0
   -6.6725   -0.8747    0.3396 C   0  0  0  0  0  0  0  0  0  0  0  0
   -7.3402   -1.3317    1.6480 C   0  0  0  0  0  0  0  0  0  0  0  0
   -7.7978   -0.4753   -0.6313 C   0  0  0  0  0  0  0  0  0  0  0  0
   -5.3124    0.9796   -0.5902 C   0  0  0  0  0  0  0  0  0  0  0  0
   -4.0837    1.8961   -0.3767 C   0  0  0  0  0  0  0  0  0  0  0  0
   -1.3236    2.8676   -0.5802 C   0  0  0  0  0  0  0  0  0  0  0  0
   -0.0373    3.2873   -0.9296 C   0  0  0  0  0  0  0  0  0  0  0  0
    0.9920    2.3580   -1.0358 C   0  0  0  0  0  0  0  0  0  0  0  0
    4.6150   -0.4995    0.6056 C   0  0  0  0  0  0  0  0  0  0  0  0
    5.8695   -1.1738    1.1609 C   0  0  0  0  0  0  0  0  0  0  0  0
    7.2481    1.2702    1.0423 H   0  0  0  0  0  0  0  0  0  0  0  0
    8.7735    0.6174    0.4169 H   0  0  0  0  0  0  0  0  0  0  0  0
    8.1897    0.1253    2.0130 H   0  0  0  0  0  0  0  0  0  0  0  0
    7.8007   -1.6642    0.3813 H   0  0  0  0  0  0  0  0  0  0  0  0
    7.6343   -0.7550   -1.7457 H   0  0  0  0  0  0  0  0  0  0  0  0
    6.6208    0.5910   -1.2497 H   0  0  0  0  0  0  0  0  0  0  0  0
    5.3740   -1.0731   -2.6225 H   0  0  0  0  0  0  0  0  0  0  0  0
    5.7147   -2.3227   -1.4217 H   0  0  0  0  0  0  0  0  0  0  0  0
    3.4423   -2.6859   -0.2972 H   0  0  0  0  0  0  0  0  0  0  0  0
    3.2188   -2.1882   -1.9925 H   0  0  0  0  0  0  0  0  0  0  0  0
    2.7360    0.5177   -1.1562 H   0  0  0  0  0  0  0  0  0  0  0  0
   -0.7507   -0.4464   -0.2789 H   0  0  0  0  0  0  0  0  0  0  0  0
   -2.3813   -0.4852    1.3090 H   0  0  0  0  0  0  0  0  0  0  0  0
   -3.1817   -0.9638   -0.2039 H   0  0  0  0  0  0  0  0  0  0  0  0
   -4.6365   -1.2411    1.7735 H   0  0  0  0  0  0  0  0  0  0  0  0
   -4.4195    0.4356    2.2252 H   0  0  0  0  0  0  0  0  0  0  0  0
   -6.1432   -1.7276   -0.1053 H   0  0  0  0  0  0  0  0  0  0  0  0
   -8.0732   -2.1225    1.4516 H   0  0  0  0  0  0  0  0  0  0  0  0
   -6.6232   -1.7393    2.3663 H   0  0  0  0  0  0  0  0  0  0  0  0
   -7.8670   -0.5023    2.1330 H   0  0  0  0  0  0  0  0  0  0  0  0
   -7.4148   -0.2739   -1.6369 H   0  0  0  0  0  0  0  0  0  0  0  0
   -8.5293   -1.2852   -0.7307 H   0  0  0  0  0  0  0  0  0  0  0  0
   -8.3318    0.4146   -0.2792 H   0  0  0  0  0  0  0  0  0  0  0  0
   -6.1462    1.6157   -0.9087 H   0  0  0  0  0  0  0  0  0  0  0  0
   -5.0830    0.2905   -1.4144 H   0  0  0  0  0  0  0  0  0  0  0  0
   -4.3029    2.6440    0.3945 H   0  0  0  0  0  0  0  0  0  0  0  0
   -3.9071    2.4237   -1.3219 H   0  0  0  0  0  0  0  0  0  0  0  0
   -2.0930    3.6283   -0.4792 H   0  0  0  0  0  0  0  0  0  0  0  0
    0.1574    4.3409   -1.1099 H   0  0  0  0  0  0  0  0  0  0  0  0
    1.9861    2.7025   -1.3065 H   0  0  0  0  0  0  0  0  0  0  0  0
    3.7591   -0.7416    1.2471 H   0  0  0  0  0  0  0  0  0  0  0  0
    4.7386    0.5881    0.6842 H   0  0  0  0  0  0  0  0  0  0  0  0
    5.7312   -2.2624    1.1223 H   0  0  0  0  0  0  0  0  0  0  0  0
    5.9932   -0.9212    2.2204 H   0  0  0  0  0  0  0  0  0  0  0  0
  1  2  1  0
  2  3  1  0
  3  4  1  0
  4  5  1  0
  5  6  1  0
  6  7  1  0
  7  8  2  0
  7  9  1  0
  9 10  1  0
 10 11  2  0
 11 12  1  0
 12 13  1  0
 13 14  1  0
 14 15  1  0
 15 16  1  0
 16 17  1  0
 17 18  1  0
 17 19  1  0
 16 20  1  0
 20 21  1  0
 12 22  2  0
 22 23  1  0
 23 24  2  0
  5 25  1  0
 25 26  1  0
 26  2  1  0
 24 10  1  0
 21 13  1  0
  1 27  1  0
  1 28  1  0
  1 29  1  0
  2 30  1  0
  3 31  1  0
  3 32  1  0
  4 33  1  0
  4 34  1  0
  6 35  1  0
  6 36  1  0
  9 37  1  0
 11 38  1  0
 14 39  1  0
 14 40  1  0
 15 41  1  0
 15 42  1  0
 17 43  1  0
 18 44  1  0
 18 45  1  0
 18 46  1  0
 19 47  1  0
 19 48  1  0
 19 49  1  0
 20 50  1  0
 20 51  1  0
 21 52  1  0
 21 53  1  0
 22 54  1  0
 23 55  1  0
 24 56  1  0
 25 57  1  0
 25 58  1  0
 26 59  1  0
 26 60  1  0
M  END
$$$$
OCNT-2317986
     RDKit          3D

 40 41  0  0  0  0  0  0  0  0999 V2000
   -4.2284    1.2732    1.2792 C   0  0  0  0  0  0  0  0  0  0  0  0
   -3.2169    0.8714    0.2462 C   0  0  0  0  0  0  0  0  0  0  0  0
   -2.8058    1.7830   -0.7339 C   0  0  0  0  0  0  0  0  0  0  0  0
   -1.8785    1.4127   -1.7154 C   0  0  0  0  0  0  0  0  0  0  0  0
   -1.4596    2.3919   -2.7723 C   0  0  0  0  0  0  0  0  0  0  0  0
   -1.3890    0.1010   -1.7321 C   0  0  0  0  0  0  0  0  0  0  0  0
   -1.7979   -0.8335   -0.7677 C   0  0  0  0  0  0  0  0  0  0  0  0
   -1.2387   -2.2377   -0.7760 C   0  0  0  0  0  0  0  0  0  0  0  0
   -0.1046   -2.2219    0.1830 C   0  0  0  0  0  0  0  0  0  0  0  0
   -0.1784   -2.7854    1.3984 N   0  0  0  0  0  0  0  0  0  0  0  0
    1.0594   -2.4873    1.9691 O   0  0  0  0  0  0  0  0  0  0  0  0
    1.7581   -1.7889    1.0300 C   0  0  0  0  0  0  0  0  0  0  0  0
    3.0981   -1.2701    1.4270 C   0  0  0  0  0  0  0  0  0  0  0  0
    4.1677   -2.3349    1.2013 C   0  0  0  0  0  0  0  0  0  0  0  0
    3.4409   -0.0993    0.5888 N   0  0  0  0  0  0  0  0  0  0  0  0
    3.0393    1.4305    1.1300 S   0  0  0  0  0  0  0  0  0  0  0  0
    1.2611    1.4814    1.0106 C   0  0  0  0  0  0  0  0  0  0  0  0
    3.4092    1.5149    2.5248 O   0  0  0  0  0  0  0  0  0  0  0  0
    3.5702    2.3490    0.1474 O   0  0  0  0  0  0  0  0  0  0  0  0
    1.1019   -1.6220   -0.0988 N   0  0  0  0  0  0  0  0  0  0  0  0
   -2.7172   -0.4361    0.2162 C   0  0  0  0  0  0  0  0  0  0  0  0
   -4.1414    2.3385    1.5172 H   0  0  0  0  0  0  0  0  0  0  0  0
   -4.0757    0.7194    2.2116 H   0  0  0  0  0  0  0  0  0  0  0  0
   -5.2391    1.0740    0.9102 H   0  0  0  0  0  0  0  0  0  0  0  0
   -3.2111    2.7935   -0.7314 H   0  0  0  0  0  0  0  0  0  0  0  0
   -0.4310    2.2000   -3.0954 H   0  0  0  0  0  0  0  0  0  0  0  0
   -2.1240    2.3147   -3.6383 H   0  0  0  0  0  0  0  0  0  0  0  0
   -1.4930    3.4177   -2.3905 H   0  0  0  0  0  0  0  0  0  0  0  0
   -0.6752   -0.1939   -2.4998 H   0  0  0  0  0  0  0  0  0  0  0  0
   -2.0104   -2.9596   -0.4858 H   0  0  0  0  0  0  0  0  0  0  0  0
   -0.8928   -2.5165   -1.7775 H   0  0  0  0  0  0  0  0  0  0  0  0
    3.1000   -1.0011    2.4882 H   0  0  0  0  0  0  0  0  0  0  0  0
    5.1571   -1.9561    1.4807 H   0  0  0  0  0  0  0  0  0  0  0  0
    4.2166   -2.6420    0.1496 H   0  0  0  0  0  0  0  0  0  0  0  0
    3.9654   -3.2298    1.8001 H   0  0  0  0  0  0  0  0  0  0  0  0
    3.2680   -0.2265   -0.4108 H   0  0  0  0  0  0  0  0  0  0  0  0
    0.9425    2.4978    1.2540 H   0  0  0  0  0  0  0  0  0  0  0  0
    0.9707    1.2450   -0.0135 H   0  0  0  0  0  0  0  0  0  0  0  0
    0.8255    0.7853    1.7277 H   0  0  0  0  0  0  0  0  0  0  0  0
   -3.0431   -1.1519    0.9699 H   0  0  0  0  0  0  0  0  0  0  0  0
  1  2  1  0
  2  3  1  0
  3  4  2  0
  4  5  1  0
  4  6  1  0
  6  7  2  0
  7  8  1  0
  8  9  1  0
  9 10  2  0
 10 11  1  0
 11 12  1  0
 12 13  1  0
 13 14  1  0
 13 15  1  0
 15 16  1  0
 16 17  1  0
 16 18  2  0
 16 19  2  0
 12 20  2  0
  7 21  1  0
 21  2  2  0
 20  9  1  0
  1 22  1  0
  1 23  1  0
  1 24  1  0
  3 25  1  0
  5 26  1  0
  5 27  1  0
  5 28  1  0
  6 29  1  0
  8 30  1  0
  8 31  1  0
 13 32  1  0
 14 33  1  0
 14 34  1  0
 14 35  1  0
 15 36  1  0
 17 37  1  0
 17 38  1  0
 17 39  1  0
 21 40  1  0
M  END
$$$$
OCNT-2317998
     RDKit          3D

 44 47  0  0  0  0  0  0  0  0999 V2000
    5.8445    0.1949    2.5878 C   0  0  0  0  0  0  0  0  0  0  0  0
    4.5128   -0.0169    2.1393 O   0  0  0  0  0  0  0  0  0  0  0  0
    4.1593    0.5475    0.9420 C   0  0  0  0  0  0  0  0  0  0  0  0
    4.9855    1.3289    0.1369 C   0  0  0  0  0  0  0  0  0  0  0  0
    4.5177    1.8683   -1.0662 C   0  0  0  0  0  0  0  0  0  0  0  0
    3.1962    1.5890   -1.4280 C   0  0  0  0  0  0  0  0  0  0  0  0
    2.4650    1.9790   -2.5124 N   0  0  0  0  0  0  0  0  0  0  0  0
    1.2070    1.5255   -2.5211 N   0  0  0  0  0  0  0  0  0  0  0  0
    1.1132    0.7855   -1.4091 C   0  0  0  0  0  0  0  0  0  0  0  0
   -0.1041    0.1887   -1.1965 N   0  0  0  0  0  0  0  0  0  0  0  0
   -0.4656   -0.7522   -0.2611 C   0  0  0  0  0  0  0  0  0  0  0  0
    0.2666   -1.2689    0.5778 O   0  0  0  0  0  0  0  0  0  0  0  0
   -1.9830   -1.0972   -0.3492 C   0  0  0  0  0  0  0  0  0  0  0  0
   -2.8080   -0.0767    0.4429 C   0  0  0  0  0  0  0  0  0  0  0  0
   -3.8198    0.6900   -0.1595 C   0  0  0  0  0  0  0  0  0  0  0  0
   -4.5585    1.6143    0.5833 C   0  0  0  0  0  0  0  0  0  0  0  0
   -4.2984    1.7898    1.9397 C   0  0  0  0  0  0  0  0  0  0  0  0
   -3.2988    1.0424    2.5556 C   0  0  0  0  0  0  0  0  0  0  0  0
   -2.5600    0.1176    1.8149 C   0  0  0  0  0  0  0  0  0  0  0  0
   -2.2558   -2.5364    0.1158 C   0  0  0  0  0  0  0  0  0  0  0  0
   -3.3312   -3.0032   -0.8348 C   0  0  0  0  0  0  0  0  0  0  0  0
   -2.9097   -2.3352   -2.1195 C   0  0  0  0  0  0  0  0  0  0  0  0
   -2.3651   -1.0614   -1.7536 O   0  0  0  0  0  0  0  0  0  0  0  0
    2.3346    0.8020   -0.6655 C   0  0  0  0  0  0  0  0  0  0  0  0
    2.8371    0.2847    0.5473 C   0  0  0  0  0  0  0  0  0  0  0  0
    5.9624   -0.3255    3.5431 H   0  0  0  0  0  0  0  0  0  0  0  0
    6.0376    1.2585    2.7627 H   0  0  0  0  0  0  0  0  0  0  0  0
    6.5702   -0.2295    1.8862 H   0  0  0  0  0  0  0  0  0  0  0  0
    6.0103    1.5472    0.4199 H   0  0  0  0  0  0  0  0  0  0  0  0
    5.1615    2.4834   -1.6867 H   0  0  0  0  0  0  0  0  0  0  0  0
    2.7682    2.5659   -3.2806 H   0  0  0  0  0  0  0  0  0  0  0  0
   -0.7897    0.4061   -1.9117 H   0  0  0  0  0  0  0  0  0  0  0  0
   -4.0450    0.5790   -1.2182 H   0  0  0  0  0  0  0  0  0  0  0  0
   -5.3361    2.1998    0.0993 H   0  0  0  0  0  0  0  0  0  0  0  0
   -4.8719    2.5113    2.5154 H   0  0  0  0  0  0  0  0  0  0  0  0
   -3.0894    1.1805    3.6133 H   0  0  0  0  0  0  0  0  0  0  0  0
   -1.7791   -0.4497    2.3209 H   0  0  0  0  0  0  0  0  0  0  0  0
   -1.3693   -3.1684   -0.0244 H   0  0  0  0  0  0  0  0  0  0  0  0
   -2.5562   -2.6301    1.1639 H   0  0  0  0  0  0  0  0  0  0  0  0
   -3.3971   -4.0908   -0.9208 H   0  0  0  0  0  0  0  0  0  0  0  0
   -4.3069   -2.6224   -0.5113 H   0  0  0  0  0  0  0  0  0  0  0  0
   -3.7419   -2.1935   -2.8144 H   0  0  0  0  0  0  0  0  0  0  0  0
   -2.1232   -2.9048   -2.6263 H   0  0  0  0  0  0  0  0  0  0  0  0
    2.2142   -0.3170    1.2000 H   0  0  0  0  0  0  0  0  0  0  0  0
  1  2  1  0
  2  3  1  0
  3  4  2  0
  4  5  1  0
  5  6  2  0
  6  7  1  0
  7  8  1  0
  8  9  2  0
  9 10  1  0
 10 11  1  0
 11 12  2  0
 11 13  1  0
 13 14  1  0
 14 15  2  0
 15 16  1  0
 16 17  2  0
 17 18  1  0
 18 19  2  0
 13 20  1  0
 20 21  1  0
 21 22  1  0
 22 23  1  0
  9 24  1  0
 24 25  2  0
 25  3  1  0
 24  6  1  0
 23 13  1  0
 19 14  1  0
  1 26  1  0
  1 27  1  0
  1 28  1  0
  4 29  1  0
  5 30  1  0
  7 31  1  0
 10 32  1  0
 15 33  1  0
 16 34  1  0
 17 35  1  0
 18 36  1  0
 19 37  1  0
 20 38  1  0
 20 39  1  0
 21 40  1  0
 21 41  1  0
 22 42  1  0
 22 43  1  0
 25 44  1  0
M  END
$$$$
OCNT-2317999
     RDKit          3D

 59 62  0  0  0  0  0  0  0  0999 V2000
   -8.5382   -1.2879   -1.1478 C   0  0  0  0  0  0  0  0  0  0  0  0
   -7.9674   -0.6864    0.1389 C   0  0  0  0  0  0  0  0  0  0  0  0
   -8.8532    0.4525    0.6488 C   0  0  0  0  0  0  0  0  0  0  0  0
   -6.5298   -0.2305   -0.0413 C   0  0  0  0  0  0  0  0  0  0  0  0
   -6.1762    0.7364   -0.9910 C   0  0  0  0  0  0  0  0  0  0  0  0
   -4.8442    1.1364   -1.1350 C   0  0  0  0  0  0  0  0  0  0  0  0
   -3.8383    0.5819   -0.3403 C   0  0  0  0  0  0  0  0  0  0  0  0
   -2.5856    1.0676   -0.5908 O   0  0  0  0  0  0  0  0  0  0  0  0
   -1.4565    0.4261    0.0100 C   0  0  0  0  0  0  0  0  0  0  0  0
   -1.1328    1.0629    1.3608 C   0  0  0  0  0  0  0  0  0  0  0  0
    0.0761    0.3766    1.9876 C   0  0  0  0  0  0  0  0  0  0  0  0
    1.0962    0.0142    1.0062 N   0  0  0  0  0  0  0  0  0  0  0  0
    2.1860   -0.7184    1.4725 C   0  0  0  0  0  0  0  0  0  0  0  0
    2.3146   -1.0842    2.6376 O   0  0  0  0  0  0  0  0  0  0  0  0
    3.2255   -1.1242    0.5116 C   0  0  0  0  0  0  0  0  0  0  0  0
    2.9209   -2.0656   -0.4668 C   0  0  0  0  0  0  0  0  0  0  0  0
    3.9407   -2.4341   -1.3172 C   0  0  0  0  0  0  0  0  0  0  0  0
    5.1945   -1.9325   -1.2436 N   0  0  0  0  0  0  0  0  0  0  0  0
    5.4653   -1.0301   -0.2714 C   0  0  0  0  0  0  0  0  0  0  0  0
    6.7886   -0.5955   -0.2834 N   0  0  0  0  0  0  0  0  0  0  0  0
    7.3784    0.3476    0.5120 C   0  0  0  0  0  0  0  0  0  0  0  0
    6.8584    1.0132    1.3940 O   0  0  0  0  0  0  0  0  0  0  0  0
    8.8311    0.5160    0.2287 C   0  0  0  0  0  0  0  0  0  0  0  0
    9.3811    1.8910   -0.0731 C   0  0  0  0  0  0  0  0  0  0  0  0
    9.3264    0.8563   -1.1592 C   0  0  0  0  0  0  0  0  0  0  0  0
    4.5124   -0.6024    0.6347 C   0  0  0  0  0  0  0  0  0  0  0  0
    1.0690    0.7529   -0.2530 C   0  0  0  0  0  0  0  0  0  0  0  0
   -0.2729    0.5901   -0.9612 C   0  0  0  0  0  0  0  0  0  0  0  0
   -4.1825   -0.3712    0.6154 C   0  0  0  0  0  0  0  0  0  0  0  0
   -5.5164   -0.7752    0.7616 C   0  0  0  0  0  0  0  0  0  0  0  0
   -7.9006   -2.0976   -1.5176 H   0  0  0  0  0  0  0  0  0  0  0  0
   -8.6268   -0.5416   -1.9442 H   0  0  0  0  0  0  0  0  0  0  0  0
   -9.5364   -1.7024   -0.9681 H   0  0  0  0  0  0  0  0  0  0  0  0
   -7.9895   -1.4801    0.8982 H   0  0  0  0  0  0  0  0  0  0  0  0
   -9.8690    0.0931    0.8464 H   0  0  0  0  0  0  0  0  0  0  0  0
   -8.9238    1.2698   -0.0754 H   0  0  0  0  0  0  0  0  0  0  0  0
   -8.4579    0.8675    1.5818 H   0  0  0  0  0  0  0  0  0  0  0  0
   -6.9323    1.1907   -1.6286 H   0  0  0  0  0  0  0  0  0  0  0  0
   -4.5889    1.8880   -1.8780 H   0  0  0  0  0  0  0  0  0  0  0  0
   -1.6272   -0.6527    0.1231 H   0  0  0  0  0  0  0  0  0  0  0  0
   -1.9865    1.0211    2.0458 H   0  0  0  0  0  0  0  0  0  0  0  0
   -0.9292    2.1325    1.2182 H   0  0  0  0  0  0  0  0  0  0  0  0
    0.5336    1.0312    2.7396 H   0  0  0  0  0  0  0  0  0  0  0  0
   -0.2360   -0.5413    2.5016 H   0  0  0  0  0  0  0  0  0  0  0  0
    1.9312   -2.5010   -0.5499 H   0  0  0  0  0  0  0  0  0  0  0  0
    3.7792   -3.1671   -2.1034 H   0  0  0  0  0  0  0  0  0  0  0  0
    7.3415   -1.0465   -0.9990 H   0  0  0  0  0  0  0  0  0  0  0  0
    9.4628   -0.1172    0.8471 H   0  0  0  0  0  0  0  0  0  0  0  0
    8.6837    2.7230   -0.1175 H   0  0  0  0  0  0  0  0  0  0  0  0
   10.3482    2.1485    0.3447 H   0  0  0  0  0  0  0  0  0  0  0  0
    8.6064    1.0113   -1.9565 H   0  0  0  0  0  0  0  0  0  0  0  0
   10.2616    0.4135   -1.4853 H   0  0  0  0  0  0  0  0  0  0  0  0
    4.7308    0.1035    1.4268 H   0  0  0  0  0  0  0  0  0  0  0  0
    1.8809    0.4655   -0.9244 H   0  0  0  0  0  0  0  0  0  0  0  0
    1.2400    1.8082   -0.0041 H   0  0  0  0  0  0  0  0  0  0  0  0
   -0.2378   -0.3006   -1.6024 H   0  0  0  0  0  0  0  0  0  0  0  0
   -0.4267    1.4352   -1.6440 H   0  0  0  0  0  0  0  0  0  0  0  0
   -3.4457   -0.8170    1.2751 H   0  0  0  0  0  0  0  0  0  0  0  0
   -5.7564   -1.5211    1.5168 H   0  0  0  0  0  0  0  0  0  0  0  0
  1  2  1  0
  2  3  1  0
  2  4  1  0
  4  5  1  0
  5  6  2  0
  6  7  1  0
  7  8  1  0
  8  9  1  0
  9 10  1  0
 10 11  1  0
 11 12  1  0
 12 13  1  0
 13 14  2  0
 13 15  1  0
 15 16  2  0
 16 17  1  0
 17 18  2  0
 18 19  1  0
 19 20  1  0
 20 21  1  0
 21 22  2  0
 21 23  1  0
 23 24  1  0
 24 25  1  0
 19 26  2  0
 12 27  1  0
 27 28  1  0
  7 29  2  0
 29 30  1  0
 30  4  2  0
 28  9  1  0
 26 15  1  0
 25 23  1  0
  1 31  1  0
  1 32  1  0
  1 33  1  0
  2 34  1  0
  3 35  1  0
  3 36  1  0
  3 37  1  0
  5 38  1  0
  6 39  1  0
  9 40  1  0
 10 41  1  0
 10 42  1  0
 11 43  1  0
 11 44  1  0
 16 45  1  0
 17 46  1  0
 20 47  1  0
 23 48  1  0
 24 49  1  0
 24 50  1  0
 25 51  1  0
 25 52  1  0
 26 53  1  0
 27 54  1  0
 27 55  1  0
 28 56  1  0
 28 57  1  0
 29 58  1  0
 30 59  1  0
M  END
$$$$
OCNT-2318000
     RDKit          3D

 36 37  0  0  0  0  0  0  0  0999 V2000
   -4.7489    1.4510   -1.6903 C   0  0  0  0  0  0  0  0  0  0  0  0
   -4.8884    0.5750   -0.5779 O   0  0  0  0  0  0  0  0  0  0  0  0
   -3.7529   -0.0375   -0.1149 C   0  0  0  0  0  0  0  0  0  0  0  0
   -2.4616    0.2188   -0.5834 C   0  0  0  0  0  0  0  0  0  0  0  0
   -1.3616   -0.4567   -0.0369 C   0  0  0  0  0  0  0  0  0  0  0  0
   -0.0046   -0.1424   -0.5682 C   0  0  0  0  0  0  0  0  0  0  0  0
    0.0921    0.1205   -1.7603 O   0  0  0  0  0  0  0  0  0  0  0  0
    0.9925   -0.1434    0.3860 N   0  0  0  0  0  0  0  0  0  0  0  0
    2.3296    0.0827    0.1365 C   0  0  0  0  0  0  0  0  0  0  0  0
    2.8799    0.2536   -1.0629 N   0  0  0  0  0  0  0  0  0  0  0  0
    4.1865    0.4420   -0.8293 N   0  0  0  0  0  0  0  0  0  0  0  0
    5.0727    0.6637   -1.9501 C   0  0  0  0  0  0  0  0  0  0  0  0
    4.5087    0.3783    0.4954 C   0  0  0  0  0  0  0  0  0  0  0  0
    5.8859    0.5428    0.9808 C   0  0  0  0  0  0  0  0  0  0  0  0
    6.7388   -0.3234    0.3803 F   0  0  0  0  0  0  0  0  0  0  0  0
    5.9834    0.3330    2.3169 F   0  0  0  0  0  0  0  0  0  0  0  0
    6.3571    1.7906    0.7397 F   0  0  0  0  0  0  0  0  0  0  0  0
    3.3151    0.1464    1.1497 C   0  0  0  0  0  0  0  0  0  0  0  0
   -1.5542   -1.4158    0.9625 C   0  0  0  0  0  0  0  0  0  0  0  0
   -2.8411   -1.6725    1.4355 C   0  0  0  0  0  0  0  0  0  0  0  0
   -3.9446   -0.9826    0.9106 C   0  0  0  0  0  0  0  0  0  0  0  0
   -5.3251   -1.2799    1.4307 C   0  0  0  0  0  0  0  0  0  0  0  0
   -5.7476    1.8065   -1.9618 H   0  0  0  0  0  0  0  0  0  0  0  0
   -4.3350    0.9273   -2.5584 H   0  0  0  0  0  0  0  0  0  0  0  0
   -4.1450    2.3257   -1.4281 H   0  0  0  0  0  0  0  0  0  0  0  0
   -2.2755    0.9423   -1.3721 H   0  0  0  0  0  0  0  0  0  0  0  0
    0.7406   -0.2493    1.3563 H   0  0  0  0  0  0  0  0  0  0  0  0
    5.6917    1.5391   -1.7413 H   0  0  0  0  0  0  0  0  0  0  0  0
    4.4815    0.8417   -2.8525 H   0  0  0  0  0  0  0  0  0  0  0  0
    5.6907   -0.2282   -2.0779 H   0  0  0  0  0  0  0  0  0  0  0  0
    3.1820    0.0392    2.2173 H   0  0  0  0  0  0  0  0  0  0  0  0
   -0.7232   -1.9922    1.3591 H   0  0  0  0  0  0  0  0  0  0  0  0
   -2.9831   -2.4243    2.2095 H   0  0  0  0  0  0  0  0  0  0  0  0
   -5.2968   -1.9973    2.2577 H   0  0  0  0  0  0  0  0  0  0  0  0
   -5.9438   -1.7096    0.6363 H   0  0  0  0  0  0  0  0  0  0  0  0
   -5.7958   -0.3652    1.8054 H   0  0  0  0  0  0  0  0  0  0  0  0
  1  2  1  0
  2  3  1  0
  3  4  1  0
  4  5  2  0
  5  6  1  0
  6  7  2  0
  6  8  1  0
  8  9  1  0
  9 10  2  0
 10 11  1  0
 11 12  1  0
 11 13  1  0
 13 14  1  0
 14 15  1  0
 14 16  1  0
 14 17  1  0
 13 18  2  0
  5 19  1  0
 19 20  2  0
 20 21  1  0
 21 22  1  0
 21  3  2  0
 18  9  1  0
  1 23  1  0
  1 24  1  0
  1 25  1  0
  4 26  1  0
  8 27  1  0
 12 28  1  0
 12 29  1  0
 12 30  1  0
 18 31  1  0
 19 32  1  0
 20 33  1  0
 22 34  1  0
 22 35  1  0
 22 36  1  0
M  END
$$$$
OCNT-2318002
     RDKit          3D

 47 50  0  0  0  0  0  0  0  0999 V2000
    5.3357    2.6673   -0.6891 C   0  0  0  0  0  0  0  0  0  0  0  0
    4.1919    2.3378   -1.4141 C   0  0  0  0  0  0  0  0  0  0  0  0
    3.7646    1.0109   -1.4806 C   0  0  0  0  0  0  0  0  0  0  0  0
    4.4828   -0.0008   -0.8269 C   0  0  0  0  0  0  0  0  0  0  0  0
    4.0126   -1.4367   -0.8872 C   0  0  0  0  0  0  0  0  0  0  0  0
    3.0251   -1.7924    0.1966 C   0  0  0  0  0  0  0  0  0  0  0  0
    3.5080   -2.3116    1.3402 N   0  0  0  0  0  0  0  0  0  0  0  0
    2.5946   -2.6035    2.2769 C   0  0  0  0  0  0  0  0  0  0  0  0
    1.2453   -2.3874    2.1166 C   0  0  0  0  0  0  0  0  0  0  0  0
    0.8263   -1.8374    0.9185 C   0  0  0  0  0  0  0  0  0  0  0  0
   -0.5278   -1.6055    0.6778 N   0  0  0  0  0  0  0  0  0  0  0  0
   -1.3203   -0.9729    1.7525 C   0  0  0  0  0  0  0  0  0  0  0  0
   -2.1597    0.2308    1.2590 C   0  0  0  0  0  0  0  0  0  0  0  0
   -2.9991   -0.1255    0.1039 N   0  0  0  0  0  0  0  0  0  0  0  0
   -4.1087    0.6274   -0.2543 C   0  0  0  0  0  0  0  0  0  0  0  0
   -4.3632    1.8982    0.2861 C   0  0  0  0  0  0  0  0  0  0  0  0
   -5.4908    2.6466   -0.0762 C   0  0  0  0  0  0  0  0  0  0  0  0
   -6.4040    2.1356   -0.9899 C   0  0  0  0  0  0  0  0  0  0  0  0
   -6.1882    0.8771   -1.5364 C   0  0  0  0  0  0  0  0  0  0  0  0
   -5.0571    0.1378   -1.1692 C   0  0  0  0  0  0  0  0  0  0  0  0
   -2.3986   -1.0589   -0.8735 C   0  0  0  0  0  0  0  0  0  0  0  0
   -0.8691   -1.1877   -0.6938 C   0  0  0  0  0  0  0  0  0  0  0  0
    1.7181   -1.5613   -0.0501 N   0  0  0  0  0  0  0  0  0  0  0  0
    5.6249    0.3439   -0.0902 C   0  0  0  0  0  0  0  0  0  0  0  0
    6.0504    1.6716   -0.0253 C   0  0  0  0  0  0  0  0  0  0  0  0
    5.6666    3.7009   -0.6360 H   0  0  0  0  0  0  0  0  0  0  0  0
    3.6289    3.1148   -1.9243 H   0  0  0  0  0  0  0  0  0  0  0  0
    2.8624    0.7685   -2.0386 H   0  0  0  0  0  0  0  0  0  0  0  0
    3.5590   -1.6326   -1.8673 H   0  0  0  0  0  0  0  0  0  0  0  0
    4.8772   -2.1100   -0.8259 H   0  0  0  0  0  0  0  0  0  0  0  0
    2.9871   -3.0357    3.1922 H   0  0  0  0  0  0  0  0  0  0  0  0
    0.5493   -2.6646    2.8958 H   0  0  0  0  0  0  0  0  0  0  0  0
   -0.6901   -0.6168    2.5767 H   0  0  0  0  0  0  0  0  0  0  0  0
   -1.9940   -1.7356    2.1618 H   0  0  0  0  0  0  0  0  0  0  0  0
   -1.4925    1.0571    0.9836 H   0  0  0  0  0  0  0  0  0  0  0  0
   -2.7797    0.5600    2.1015 H   0  0  0  0  0  0  0  0  0  0  0  0
   -3.6722    2.3501    0.9912 H   0  0  0  0  0  0  0  0  0  0  0  0
   -5.6481    3.6302    0.3582 H   0  0  0  0  0  0  0  0  0  0  0  0
   -7.2800    2.7128   -1.2713 H   0  0  0  0  0  0  0  0  0  0  0  0
   -6.8995    0.4603   -2.2441 H   0  0  0  0  0  0  0  0  0  0  0  0
   -4.9426   -0.8540   -1.5985 H   0  0  0  0  0  0  0  0  0  0  0  0
   -2.8659   -2.0431   -0.7478 H   0  0  0  0  0  0  0  0  0  0  0  0
   -2.5792   -0.7238   -1.9023 H   0  0  0  0  0  0  0  0  0  0  0  0
   -0.5029   -1.9270   -1.4171 H   0  0  0  0  0  0  0  0  0  0  0  0
   -0.3990   -0.2221   -0.9242 H   0  0  0  0  0  0  0  0  0  0  0  0
    6.1846   -0.4218    0.4432 H   0  0  0  0  0  0  0  0  0  0  0  0
    6.9371    1.9291    0.5477 H   0  0  0  0  0  0  0  0  0  0  0  0
  1  2  2  0
  2  3  1  0
  3  4  2  0
  4  5  1  0
  5  6  1  0
  6  7  2  0
  7  8  1  0
  8  9  2  0
  9 10  1  0
 10 11  1  0
 11 12  1  0
 12 13  1  0
 13 14  1  0
 14 15  1  0
 15 16  2  0
 16 17  1  0
 17 18  2  0
 18 19  1  0
 19 20  2  0
 14 21  1  0
 21 22  1  0
 10 23  2  0
  4 24  1  0
 24 25  2  0
 25  1  1  0
 23  6  1  0
 22 11  1  0
 20 15  1  0
  1 26  1  0
  2 27  1  0
  3 28  1  0
  5 29  1  0
  5 30  1  0
  8 31  1  0
  9 32  1  0
 12 33  1  0
 12 34  1  0
 13 35  1  0
 13 36  1  0
 16 37  1  0
 17 38  1  0
 18 39  1  0
 19 40  1  0
 20 41  1  0
 21 42  1  0
 21 43  1  0
 22 44  1  0
 22 45  1  0
 24 46  1  0
 25 47  1  0
M  END
$$$$
OCNT-2318008
     RDKit          3D

 40 43  0  0  0  0  0  0  0  0999 V2000
   -4.0909    1.1960   -1.7079 C   0  0  0  0  0  0  0  0  0  0  0  0
   -4.1096    0.7786   -0.3120 N   0  0  0  0  0  0  0  0  0  0  0  0
   -5.3407    0.8482    0.3488 C   0  0  0  0  0  0  0  0  0  0  0  0
   -6.3862    1.2572   -0.1508 O   0  0  0  0  0  0  0  0  0  0  0  0
   -5.3707    0.3847    1.7589 C   0  0  0  0  0  0  0  0  0  0  0  0
   -4.2572   -0.0666    2.3418 C   0  0  0  0  0  0  0  0  0  0  0  0
   -3.0189   -0.0966    1.6116 C   0  0  0  0  0  0  0  0  0  0  0  0
   -2.9497    0.3204    0.3320 C   0  0  0  0  0  0  0  0  0  0  0  0
   -1.6586    0.2643   -0.3080 C   0  0  0  0  0  0  0  0  0  0  0  0
   -0.6335   -0.4964    0.0575 N   0  0  0  0  0  0  0  0  0  0  0  0
    0.3542   -0.1800   -0.8386 C   0  0  0  0  0  0  0  0  0  0  0  0
    1.7929   -0.8323   -0.7863 C   0  0  0  0  0  0  0  0  0  0  0  0
    2.7444    0.0540    0.1671 C   0  0  0  0  0  0  0  0  0  0  0  0
    2.8357   -0.1788    1.5584 C   0  0  0  0  0  0  0  0  0  0  0  0
    3.6545    0.5917    2.3894 C   0  0  0  0  0  0  0  0  0  0  0  0
    4.3987    1.6260    1.8450 C   0  0  0  0  0  0  0  0  0  0  0  0
    5.1827    2.3674    2.6380 F   0  0  0  0  0  0  0  0  0  0  0  0
    4.3331    1.9056    0.4895 C   0  0  0  0  0  0  0  0  0  0  0  0
    3.5121    1.1298   -0.3345 C   0  0  0  0  0  0  0  0  0  0  0  0
    1.7308   -2.3834   -0.5274 C   0  0  0  0  0  0  0  0  0  0  0  0
    2.8368   -2.5435   -1.5854 C   0  0  0  0  0  0  0  0  0  0  0  0
    2.3347   -1.2292   -2.2091 C   0  0  0  0  0  0  0  0  0  0  0  0
    0.0060    0.7415   -1.7394 N   0  0  0  0  0  0  0  0  0  0  0  0
   -1.3050    1.0419   -1.3969 O   0  0  0  0  0  0  0  0  0  0  0  0
   -5.0990    1.3587   -2.1001 H   0  0  0  0  0  0  0  0  0  0  0  0
   -3.6240    0.4195   -2.3218 H   0  0  0  0  0  0  0  0  0  0  0  0
   -3.5440    2.1399   -1.7920 H   0  0  0  0  0  0  0  0  0  0  0  0
   -6.3249    0.4308    2.2676 H   0  0  0  0  0  0  0  0  0  0  0  0
   -4.2633   -0.4110    3.3708 H   0  0  0  0  0  0  0  0  0  0  0  0
   -2.1435   -0.4617    2.1444 H   0  0  0  0  0  0  0  0  0  0  0  0
    2.2452   -0.9752    2.0085 H   0  0  0  0  0  0  0  0  0  0  0  0
    3.7088    0.3919    3.4546 H   0  0  0  0  0  0  0  0  0  0  0  0
    4.9131    2.7261    0.0796 H   0  0  0  0  0  0  0  0  0  0  0  0
    3.4602    1.3779   -1.3937 H   0  0  0  0  0  0  0  0  0  0  0  0
    0.7858   -2.8610   -0.8168 H   0  0  0  0  0  0  0  0  0  0  0  0
    1.9970   -2.7394    0.4711 H   0  0  0  0  0  0  0  0  0  0  0  0
    3.8526   -2.4819   -1.1783 H   0  0  0  0  0  0  0  0  0  0  0  0
    2.7632   -3.4300   -2.2201 H   0  0  0  0  0  0  0  0  0  0  0  0
    1.5608   -1.3847   -2.9718 H   0  0  0  0  0  0  0  0  0  0  0  0
    3.1162   -0.6006   -2.6436 H   0  0  0  0  0  0  0  0  0  0  0  0
  1  2  1  0
  2  3  1  0
  3  4  2  0
  3  5  1  0
  5  6  2  0
  6  7  1  0
  7  8  2  0
  8  9  1  0
  9 10  2  0
 10 11  1  0
 11 12  1  0
 12 13  1  0
 13 14  1  0
 14 15  2  0
 15 16  1  0
 16 17  1  0
 16 18  2  0
 18 19  1  0
 12 20  1  0
 20 21  1  0
 21 22  1  0
 11 23  2  0
 23 24  1  0
  8  2  1  0
 24  9  1  0
 22 12  1  0
 19 13  2  0
  1 25  1  0
  1 26  1  0
  1 27  1  0
  5 28  1  0
  6 29  1  0
  7 30  1  0
 14 31  1  0
 15 32  1  0
 18 33  1  0
 19 34  1  0
 20 35  1  0
 20 36  1  0
 21 37  1  0
 21 38  1  0
 22 39  1  0
 22 40  1  0
M  END
$$$$
OCNT-2318024
     RDKit          3D

 50 53  0  0  0  0  0  0  0  0999 V2000
   -1.9415    1.8418    1.5290 C   0  0  0  0  0  0  0  0  0  0  0  0
   -2.8668    1.5696    0.3437 C   0  0  0  0  0  0  0  0  0  0  0  0
   -2.0939    0.9024   -0.8221 C   0  0  0  0  0  0  0  0  0  0  0  0
   -1.6507   -0.4755   -0.5513 N   0  0  0  0  0  0  0  0  0  0  0  0
   -0.3330   -0.8509   -0.3500 C   0  0  0  0  0  0  0  0  0  0  0  0
   -0.0136   -1.8935    0.2137 O   0  0  0  0  0  0  0  0  0  0  0  0
    0.5974    0.0316   -0.8407 N   0  0  0  0  0  0  0  0  0  0  0  0
    2.0167   -0.2693   -0.7263 C   0  0  0  0  0  0  0  0  0  0  0  0
    2.5702   -0.1523    0.7114 C   0  0  0  0  0  0  0  0  0  0  0  0
    2.3670    1.2379    1.3224 C   0  0  0  0  0  0  0  0  0  0  0  0
    3.3465    2.2254    0.7115 C   0  0  0  0  0  0  0  0  0  0  0  0
    4.7100    1.8680    0.9426 O   0  0  0  0  0  0  0  0  0  0  0  0
    5.0070    0.5382    0.8173 C   0  0  0  0  0  0  0  0  0  0  0  0
    6.3661    0.2202    0.8295 C   0  0  0  0  0  0  0  0  0  0  0  0
    6.7798   -1.1080    0.7313 C   0  0  0  0  0  0  0  0  0  0  0  0
    5.8324   -2.1237    0.6291 C   0  0  0  0  0  0  0  0  0  0  0  0
    4.4727   -1.8107    0.6254 C   0  0  0  0  0  0  0  0  0  0  0  0
    4.0473   -0.4758    0.7195 C   0  0  0  0  0  0  0  0  0  0  0  0
   -2.6594   -1.4292   -0.0891 C   0  0  0  0  0  0  0  0  0  0  0  0
   -4.0615   -1.0833   -0.5118 C   0  0  0  0  0  0  0  0  0  0  0  0
   -4.7778   -1.8968   -1.3989 C   0  0  0  0  0  0  0  0  0  0  0  0
   -6.0860   -1.5646   -1.7583 C   0  0  0  0  0  0  0  0  0  0  0  0
   -6.6904   -0.4233   -1.2301 C   0  0  0  0  0  0  0  0  0  0  0  0
   -5.9843    0.3955   -0.3502 C   0  0  0  0  0  0  0  0  0  0  0  0
   -4.6711    0.0758   -0.0161 C   0  0  0  0  0  0  0  0  0  0  0  0
   -4.0201    0.8837    0.8701 O   0  0  0  0  0  0  0  0  0  0  0  0
   -2.4789    2.3819    2.3161 H   0  0  0  0  0  0  0  0  0  0  0  0
   -1.5876    0.9077    1.9777 H   0  0  0  0  0  0  0  0  0  0  0  0
   -1.0756    2.4394    1.2293 H   0  0  0  0  0  0  0  0  0  0  0  0
   -3.2288    2.5405   -0.0191 H   0  0  0  0  0  0  0  0  0  0  0  0
   -1.2472    1.5454   -1.0794 H   0  0  0  0  0  0  0  0  0  0  0  0
   -2.7195    0.8627   -1.7224 H   0  0  0  0  0  0  0  0  0  0  0  0
    0.3220    0.4132   -1.7334 H   0  0  0  0  0  0  0  0  0  0  0  0
    2.1739   -1.2822   -1.1181 H   0  0  0  0  0  0  0  0  0  0  0  0
    2.5383    0.4143   -1.4057 H   0  0  0  0  0  0  0  0  0  0  0  0
    2.0525   -0.8686    1.3619 H   0  0  0  0  0  0  0  0  0  0  0  0
    1.3374    1.5869    1.1961 H   0  0  0  0  0  0  0  0  0  0  0  0
    2.5562    1.1791    2.4029 H   0  0  0  0  0  0  0  0  0  0  0  0
    3.1907    2.3487   -0.3661 H   0  0  0  0  0  0  0  0  0  0  0  0
    3.1943    3.2106    1.1658 H   0  0  0  0  0  0  0  0  0  0  0  0
    7.1047    1.0123    0.9182 H   0  0  0  0  0  0  0  0  0  0  0  0
    7.8394   -1.3489    0.7408 H   0  0  0  0  0  0  0  0  0  0  0  0
    6.1511   -3.1606    0.5587 H   0  0  0  0  0  0  0  0  0  0  0  0
    3.7417   -2.6147    0.5565 H   0  0  0  0  0  0  0  0  0  0  0  0
   -2.6102   -1.4755    1.0069 H   0  0  0  0  0  0  0  0  0  0  0  0
   -2.3851   -2.4282   -0.4510 H   0  0  0  0  0  0  0  0  0  0  0  0
   -4.3250   -2.7970   -1.8084 H   0  0  0  0  0  0  0  0  0  0  0  0
   -6.6389   -2.2034   -2.4427 H   0  0  0  0  0  0  0  0  0  0  0  0
   -7.7136   -0.1754   -1.4997 H   0  0  0  0  0  0  0  0  0  0  0  0
   -6.4546    1.2787    0.0717 H   0  0  0  0  0  0  0  0  0  0  0  0
  1  2  1  0
  2  3  1  0
  3  4  1  0
  4  5  1  0
  5  6  2  0
  5  7  1  0
  7  8  1  0
  8  9  1  0
  9 10  1  0
 10 11  1  0
 11 12  1  0
 12 13  1  0
 13 14  2  0
 14 15  1  0
 15 16  2  0
 16 17  1  0
 17 18  2  0
  4 19  1  0
 19 20  1  0
 20 21  2  0
 21 22  1  0
 22 23  2  0
 23 24  1  0
 24 25  2  0
 25 26  1  0
 26  2  1  0
 18  9  1  0
 25 20  1  0
 18 13  1  0
  1 27  1  0
  1 28  1  0
  1 29  1  0
  2 30  1  0
  3 31  1  0
  3 32  1  0
  7 33  1  0
  8 34  1  0
  8 35  1  0
  9 36  1  0
 10 37  1  0
 10 38  1  0
 11 39  1  0
 11 40  1  0
 14 41  1  0
 15 42  1  0
 16 43  1  0
 17 44  1  0
 19 45  1  0
 19 46  1  0
 21 47  1  0
 22 48  1  0
 23 49  1  0
 24 50  1  0
M  END
$$$$
OCNT-2318031
     RDKit          3D

 44 46  0  0  0  0  0  0  0  0999 V2000
    7.3097    0.2302    0.8925 C   0  0  0  0  0  0  0  0  0  0  0  0
    6.6802   -0.8581    0.1377 N   0  0  0  0  0  0  0  0  0  0  0  0
    5.3120   -1.5622    0.8340 S   0  0  0  0  0  0  0  0  0  0  0  0
    5.5460   -1.7120    2.2523 O   0  0  0  0  0  0  0  0  0  0  0  0
    4.9573   -2.6887   -0.0021 O   0  0  0  0  0  0  0  0  0  0  0  0
    3.9413   -0.4199    0.6809 C   0  0  0  0  0  0  0  0  0  0  0  0
    2.6926   -0.5767    0.0888 C   0  0  0  0  0  0  0  0  0  0  0  0
    1.9633    0.6350    0.2509 C   0  0  0  0  0  0  0  0  0  0  0  0
    0.6355    1.0325   -0.1999 C   0  0  0  0  0  0  0  0  0  0  0  0
    0.4338    2.1997   -0.5294 O   0  0  0  0  0  0  0  0  0  0  0  0
   -0.3673    0.0606   -0.2685 N   0  0  0  0  0  0  0  0  0  0  0  0
   -0.3365   -1.1825    0.4988 C   0  0  0  0  0  0  0  0  0  0  0  0
   -1.6121    0.4146   -0.9656 C   0  0  0  0  0  0  0  0  0  0  0  0
   -2.1133   -0.7173   -1.9087 C   0  0  0  0  0  0  0  0  0  0  0  0
   -3.5603   -0.4781   -2.3873 C   0  0  0  0  0  0  0  0  0  0  0  0
   -4.5607   -0.4312   -1.2143 C   0  0  0  0  0  0  0  0  0  0  0  0
   -3.9998    0.4028   -0.1199 C   0  0  0  0  0  0  0  0  0  0  0  0
   -2.6802    0.7868    0.0142 C   0  0  0  0  0  0  0  0  0  0  0  0
   -2.6661    1.5926    1.1666 C   0  0  0  0  0  0  0  0  0  0  0  0
   -3.8695    1.6719    1.7442 N   0  0  0  0  0  0  0  0  0  0  0  0
   -4.6678    0.9376    0.9427 N   0  0  0  0  0  0  0  0  0  0  0  0
   -6.0693    0.8195    1.2638 C   0  0  0  0  0  0  0  0  0  0  0  0
    2.8362    1.4831    0.8984 C   0  0  0  0  0  0  0  0  0  0  0  0
    4.0078    0.8651    1.1777 O   0  0  0  0  0  0  0  0  0  0  0  0
    6.6011    1.0309    1.1119 H   0  0  0  0  0  0  0  0  0  0  0  0
    7.7521   -0.1476    1.8181 H   0  0  0  0  0  0  0  0  0  0  0  0
    8.1162    0.6535    0.2862 H   0  0  0  0  0  0  0  0  0  0  0  0
    7.3285   -1.5930   -0.1461 H   0  0  0  0  0  0  0  0  0  0  0  0
    2.3730   -1.4790   -0.4152 H   0  0  0  0  0  0  0  0  0  0  0  0
    0.3591   -1.1185    1.3386 H   0  0  0  0  0  0  0  0  0  0  0  0
   -1.3254   -1.3993    0.9130 H   0  0  0  0  0  0  0  0  0  0  0  0
   -0.0406   -1.9976   -0.1673 H   0  0  0  0  0  0  0  0  0  0  0  0
   -1.4360    1.2949   -1.5976 H   0  0  0  0  0  0  0  0  0  0  0  0
   -2.0836   -1.6927   -1.4080 H   0  0  0  0  0  0  0  0  0  0  0  0
   -1.4410   -0.7920   -2.7718 H   0  0  0  0  0  0  0  0  0  0  0  0
   -3.8570   -1.2681   -3.0864 H   0  0  0  0  0  0  0  0  0  0  0  0
   -3.5990    0.4695   -2.9402 H   0  0  0  0  0  0  0  0  0  0  0  0
   -4.7346   -1.4469   -0.8402 H   0  0  0  0  0  0  0  0  0  0  0  0
   -5.5184   -0.0331   -1.5661 H   0  0  0  0  0  0  0  0  0  0  0  0
   -1.8329    2.1238    1.6093 H   0  0  0  0  0  0  0  0  0  0  0  0
   -6.4714   -0.0912    0.8143 H   0  0  0  0  0  0  0  0  0  0  0  0
   -6.5831    1.6990    0.8688 H   0  0  0  0  0  0  0  0  0  0  0  0
   -6.1808    0.7673    2.3500 H   0  0  0  0  0  0  0  0  0  0  0  0
    2.7614    2.5146    1.2178 H   0  0  0  0  0  0  0  0  0  0  0  0
  1  2  1  0
  2  3  1  0
  3  4  2  0
  3  5  2  0
  3  6  1  0
  6  7  2  0
  7  8  1  0
  8  9  1  0
  9 10  2  0
  9 11  1  0
 11 12  1  0
 11 13  1  0
 13 14  1  0
 14 15  1  0
 15 16  1  0
 16 17  1  0
 17 18  2  0
 18 19  1  0
 19 20  2  0
 20 21  1  0
 21 22  1  0
  8 23  2  0
 23 24  1  0
 24  6  1  0
 18 13  1  0
 21 17  1  0
  1 25  1  0
  1 26  1  0
  1 27  1  0
  2 28  1  0
  7 29  1  0
 12 30  1  0
 12 31  1  0
 12 32  1  0
 13 33  1  0
 14 34  1  0
 14 35  1  0
 15 36  1  0
 15 37  1  0
 16 38  1  0
 16 39  1  0
 19 40  1  0
 22 41  1  0
 22 42  1  0
 22 43  1  0
 23 44  1  0
M  END
$$$$
OCNT-2318046
     RDKit          3D

 41 43  0  0  0  0  0  0  0  0999 V2000
   -6.0333   -1.7102    0.9892 C   0  0  0  0  0  0  0  0  0  0  0  0
   -5.3130   -0.6727    0.1871 C   0  0  0  0  0  0  0  0  0  0  0  0
   -6.0388    0.0717   -0.6627 N   0  0  0  0  0  0  0  0  0  0  0  0
   -5.3483    0.9607   -1.3915 C   0  0  0  0  0  0  0  0  0  0  0  0
   -3.9866    1.1295   -1.2935 C   0  0  0  0  0  0  0  0  0  0  0  0
   -3.3115    0.3281   -0.3889 C   0  0  0  0  0  0  0  0  0  0  0  0
   -1.9147    0.4432   -0.2520 N   0  0  0  0  0  0  0  0  0  0  0  0
   -1.4477    1.8173   -0.0152 C   0  0  0  0  0  0  0  0  0  0  0  0
   -0.1075    1.8452    0.7128 C   0  0  0  0  0  0  0  0  0  0  0  0
    0.8281    0.7672    0.1715 C   0  0  0  0  0  0  0  0  0  0  0  0
    2.0543    0.8694    0.9125 O   0  0  0  0  0  0  0  0  0  0  0  0
    3.1627    0.3316    0.2919 C   0  0  0  0  0  0  0  0  0  0  0  0
    4.3616    0.4437    0.9769 C   0  0  0  0  0  0  0  0  0  0  0  0
    5.5097   -0.0910    0.3970 C   0  0  0  0  0  0  0  0  0  0  0  0
    5.4245   -0.7221   -0.8473 C   0  0  0  0  0  0  0  0  0  0  0  0
    6.6090   -1.3219   -1.5381 C   0  0  0  0  0  0  0  0  0  0  0  0
    6.8481   -0.7530   -2.7515 F   0  0  0  0  0  0  0  0  0  0  0  0
    6.4565   -2.6538   -1.7739 F   0  0  0  0  0  0  0  0  0  0  0  0
    7.7684   -1.1985   -0.8340 F   0  0  0  0  0  0  0  0  0  0  0  0
    4.1751   -0.7827   -1.4500 C   0  0  0  0  0  0  0  0  0  0  0  0
    3.0458   -0.2711   -0.9085 N   0  0  0  0  0  0  0  0  0  0  0  0
    0.2092   -0.6282    0.3353 C   0  0  0  0  0  0  0  0  0  0  0  0
   -1.3002   -0.5981    0.5751 C   0  0  0  0  0  0  0  0  0  0  0  0
   -3.9781   -0.5852    0.3416 N   0  0  0  0  0  0  0  0  0  0  0  0
   -6.0601   -2.6521    0.4338 H   0  0  0  0  0  0  0  0  0  0  0  0
   -5.5274   -1.8782    1.9449 H   0  0  0  0  0  0  0  0  0  0  0  0
   -7.0599   -1.3931    1.1967 H   0  0  0  0  0  0  0  0  0  0  0  0
   -5.9369    1.5513   -2.0866 H   0  0  0  0  0  0  0  0  0  0  0  0
   -3.4745    1.8438   -1.9223 H   0  0  0  0  0  0  0  0  0  0  0  0
   -1.3332    2.3215   -0.9826 H   0  0  0  0  0  0  0  0  0  0  0  0
   -2.1702    2.3943    0.5772 H   0  0  0  0  0  0  0  0  0  0  0  0
    0.3526    2.8365    0.6180 H   0  0  0  0  0  0  0  0  0  0  0  0
   -0.2568    1.6973    1.7909 H   0  0  0  0  0  0  0  0  0  0  0  0
    0.9961    0.9930   -0.8909 H   0  0  0  0  0  0  0  0  0  0  0  0
    4.3988    0.9363    1.9422 H   0  0  0  0  0  0  0  0  0  0  0  0
    6.4620   -0.0138    0.9178 H   0  0  0  0  0  0  0  0  0  0  0  0
    4.0368   -1.2602   -2.4184 H   0  0  0  0  0  0  0  0  0  0  0  0
    0.4083   -1.1987   -0.5814 H   0  0  0  0  0  0  0  0  0  0  0  0
    0.6910   -1.1879    1.1462 H   0  0  0  0  0  0  0  0  0  0  0  0
   -1.6903   -1.5943    0.3293 H   0  0  0  0  0  0  0  0  0  0  0  0
   -1.5095   -0.4147    1.6373 H   0  0  0  0  0  0  0  0  0  0  0  0
  1  2  1  0
  2  3  2  0
  3  4  1  0
  4  5  2  0
  5  6  1  0
  6  7  1  0
  7  8  1  0
  8  9  1  0
  9 10  1  0
 10 11  1  0
 11 12  1  0
 12 13  2  0
 13 14  1  0
 14 15  2  0
 15 16  1  0
 16 17  1  0
 16 18  1  0
 16 19  1  0
 15 20  1  0
 20 21  2  0
 10 22  1  0
 22 23  1  0
  6 24  2  0
 24  2  1  0
 23  7  1  0
 21 12  1  0
  1 25  1  0
  1 26  1  0
  1 27  1  0
  4 28  1  0
  5 29  1  0
  8 30  1  0
  8 31  1  0
  9 32  1  0
  9 33  1  0
 10 34  1  0
 13 35  1  0
 14 36  1  0
 20 37  1  0
 22 38  1  0
 22 39  1  0
 23 40  1  0
 23 41  1  0
M  END
$$$$
OCNT-2318089
     RDKit          3D

 40 41  0  0  0  0  0  0  0  0999 V2000
   -5.8100   -0.7513    1.2746 C   0  0  0  0  0  0  0  0  0  0  0  0
   -4.5803   -0.7609    0.3758 C   0  0  0  0  0  0  0  0  0  0  0  0
   -3.4239    0.0977    0.9178 C   0  0  0  0  0  0  0  0  0  0  0  0
   -3.8109    1.5904    1.0172 C   0  0  0  0  0  0  0  0  0  0  0  0
   -2.6612    2.3596    1.3749 O   0  0  0  0  0  0  0  0  0  0  0  0
   -2.2284    0.0198    0.0486 N   0  0  0  0  0  0  0  0  0  0  0  0
   -1.4340   -1.1871    0.2871 C   0  0  0  0  0  0  0  0  0  0  0  0
   -0.2561   -1.2136   -0.6221 C   0  0  0  0  0  0  0  0  0  0  0  0
   -0.0540   -1.7064   -1.8934 C   0  0  0  0  0  0  0  0  0  0  0  0
    1.2973   -1.4297   -2.2165 C   0  0  0  0  0  0  0  0  0  0  0  0
    1.8466   -0.7804   -1.1270 C   0  0  0  0  0  0  0  0  0  0  0  0
    3.1670   -0.2351   -0.8176 C   0  0  0  0  0  0  0  0  0  0  0  0
    4.2390   -0.4156   -1.7040 C   0  0  0  0  0  0  0  0  0  0  0  0
    5.5034    0.1065   -1.4191 C   0  0  0  0  0  0  0  0  0  0  0  0
    5.7167    0.8175   -0.2395 C   0  0  0  0  0  0  0  0  0  0  0  0
    4.6688    1.0073    0.6717 C   0  0  0  0  0  0  0  0  0  0  0  0
    4.8819    1.7916    1.9426 C   0  0  0  0  0  0  0  0  0  0  0  0
    4.1820    1.2958    3.0008 F   0  0  0  0  0  0  0  0  0  0  0  0
    6.1849    1.8181    2.3430 F   0  0  0  0  0  0  0  0  0  0  0  0
    4.5050    3.0939    1.8186 F   0  0  0  0  0  0  0  0  0  0  0  0
    3.3993    0.4834    0.3672 C   0  0  0  0  0  0  0  0  0  0  0  0
    0.8948   -0.6531   -0.1532 O   0  0  0  0  0  0  0  0  0  0  0  0
   -6.5596   -1.4511    0.8902 H   0  0  0  0  0  0  0  0  0  0  0  0
   -6.2737    0.2388    1.3114 H   0  0  0  0  0  0  0  0  0  0  0  0
   -5.5541   -1.0552    2.2948 H   0  0  0  0  0  0  0  0  0  0  0  0
   -4.2546   -1.8018    0.2680 H   0  0  0  0  0  0  0  0  0  0  0  0
   -4.8699   -0.4174   -0.6255 H   0  0  0  0  0  0  0  0  0  0  0  0
   -3.1471   -0.2345    1.9275 H   0  0  0  0  0  0  0  0  0  0  0  0
   -4.5714    1.7567    1.7849 H   0  0  0  0  0  0  0  0  0  0  0  0
   -4.1882    1.9712    0.0619 H   0  0  0  0  0  0  0  0  0  0  0  0
   -1.9198    1.9141    0.9125 H   0  0  0  0  0  0  0  0  0  0  0  0
   -2.5054    0.0527   -0.9323 H   0  0  0  0  0  0  0  0  0  0  0  0
   -2.0282   -2.0909    0.1156 H   0  0  0  0  0  0  0  0  0  0  0  0
   -1.0855   -1.2104    1.3264 H   0  0  0  0  0  0  0  0  0  0  0  0
   -0.7891   -2.2037   -2.5102 H   0  0  0  0  0  0  0  0  0  0  0  0
    1.8058   -1.6735   -3.1379 H   0  0  0  0  0  0  0  0  0  0  0  0
    4.1047   -0.9675   -2.6316 H   0  0  0  0  0  0  0  0  0  0  0  0
    6.3214   -0.0422   -2.1202 H   0  0  0  0  0  0  0  0  0  0  0  0
    6.7062    1.2225   -0.0312 H   0  0  0  0  0  0  0  0  0  0  0  0
    2.5808    0.6437    1.0704 H   0  0  0  0  0  0  0  0  0  0  0  0
  1  2  1  0
  2  3  1  0
  3  4  1  0
  4  5  1  0
  3  6  1  0
  6  7  1  0
  7  8  1  0
  8  9  2  0
  9 10  1  0
 10 11  2  0
 11 12  1  0
 12 13  1  0
 13 14  2  0
 14 15  1  0
 15 16  2  0
 16 17  1  0
 17 18  1  0
 17 19  1  0
 17 20  1  0
 16 21  1  0
 11 22  1  0
 22  8  1  0
 21 12  2  0
  1 23  1  0
  1 24  1  0
  1 25  1  0
  2 26  1  0
  2 27  1  0
  3 28  1  0
  4 29  1  0
  4 30  1  0
  5 31  1  0
  6 32  1  0
  7 33  1  0
  7 34  1  0
  9 35  1  0
 10 36  1  0
 13 37  1  0
 14 38  1  0
 15 39  1  0
 21 40  1  0
M  END
$$$$
OCNT-2318097
     RDKit          3D

 53 56  0  0  0  0  0  0  0  0999 V2000
    2.5831   -1.9461    1.7574 O   0  0  0  0  0  0  0  0  0  0  0  0
    1.7870   -1.6261    0.8790 C   0  0  0  0  0  0  0  0  0  0  0  0
    0.7906   -0.4726    1.0574 C   0  0  0  0  0  0  0  0  0  0  0  0
   -0.3833   -0.6089    0.1549 N   0  0  0  0  0  0  0  0  0  0  0  0
   -1.0723    0.6942    0.0398 C   0  0  0  0  0  0  0  0  0  0  0  0
   -2.5110    0.5757   -0.4969 C   0  0  0  0  0  0  0  0  0  0  0  0
   -3.3454   -0.2744    0.3615 N   0  0  0  0  0  0  0  0  0  0  0  0
   -4.7064   -0.0921    0.5788 C   0  0  0  0  0  0  0  0  0  0  0  0
   -5.3163   -0.6169    1.5074 O   0  0  0  0  0  0  0  0  0  0  0  0
   -5.4718    0.7752   -0.3442 C   0  0  0  0  0  0  0  0  0  0  0  0
   -6.2811    1.7835    0.1953 C   0  0  0  0  0  0  0  0  0  0  0  0
   -7.0313    2.6027   -0.6507 C   0  0  0  0  0  0  0  0  0  0  0  0
   -6.9823    2.4020   -2.0302 C   0  0  0  0  0  0  0  0  0  0  0  0
   -6.1940    1.3796   -2.5512 C   0  0  0  0  0  0  0  0  0  0  0  0
   -6.1624    1.1838   -3.8758 F   0  0  0  0  0  0  0  0  0  0  0  0
   -5.4418    0.5562   -1.7232 C   0  0  0  0  0  0  0  0  0  0  0  0
   -2.6266   -1.2010    1.2362 C   0  0  0  0  0  0  0  0  0  0  0  0
   -1.3032   -1.6810    0.6132 C   0  0  0  0  0  0  0  0  0  0  0  0
    1.7398   -2.2227   -0.3632 N   0  0  0  0  0  0  0  0  0  0  0  0
    2.7553   -3.1430   -0.8296 C   0  0  0  0  0  0  0  0  0  0  0  0
    3.7743   -2.4848   -1.7626 C   0  0  0  0  0  0  0  0  0  0  0  0
    4.5334   -1.3686   -1.1121 C   0  0  0  0  0  0  0  0  0  0  0  0
    4.2439   -0.0952   -1.2782 N   0  0  0  0  0  0  0  0  0  0  0  0
    5.1118    0.6850   -0.5319 C   0  0  0  0  0  0  0  0  0  0  0  0
    5.0937    2.0922   -0.4494 C   0  0  0  0  0  0  0  0  0  0  0  0
    6.0321    2.7553    0.3484 C   0  0  0  0  0  0  0  0  0  0  0  0
    6.9850    2.0346    1.0612 C   0  0  0  0  0  0  0  0  0  0  0  0
    7.0258    0.6383    0.9944 C   0  0  0  0  0  0  0  0  0  0  0  0
    6.0787   -0.0172    0.1900 C   0  0  0  0  0  0  0  0  0  0  0  0
    5.8778   -1.7023   -0.0979 S   0  0  0  0  0  0  0  0  0  0  0  0
    1.3490    0.4401    0.8137 H   0  0  0  0  0  0  0  0  0  0  0  0
    0.4791   -0.4228    2.1072 H   0  0  0  0  0  0  0  0  0  0  0  0
   -0.4945    1.3419   -0.6296 H   0  0  0  0  0  0  0  0  0  0  0  0
   -1.1149    1.1911    1.0190 H   0  0  0  0  0  0  0  0  0  0  0  0
   -2.9526    1.5740   -0.5759 H   0  0  0  0  0  0  0  0  0  0  0  0
   -2.5002    0.1234   -1.4951 H   0  0  0  0  0  0  0  0  0  0  0  0
   -6.3286    1.9247    1.2734 H   0  0  0  0  0  0  0  0  0  0  0  0
   -7.6575    3.3880   -0.2346 H   0  0  0  0  0  0  0  0  0  0  0  0
   -7.5628    3.0271   -2.7020 H   0  0  0  0  0  0  0  0  0  0  0  0
   -4.8589   -0.2502   -2.1549 H   0  0  0  0  0  0  0  0  0  0  0  0
   -3.2672   -2.0620    1.4583 H   0  0  0  0  0  0  0  0  0  0  0  0
   -2.4355   -0.6797    2.1823 H   0  0  0  0  0  0  0  0  0  0  0  0
   -1.5495   -2.2742   -0.2772 H   0  0  0  0  0  0  0  0  0  0  0  0
   -0.8115   -2.3750    1.3054 H   0  0  0  0  0  0  0  0  0  0  0  0
    1.0749   -1.8109   -1.0138 H   0  0  0  0  0  0  0  0  0  0  0  0
    3.2563   -3.6039    0.0287 H   0  0  0  0  0  0  0  0  0  0  0  0
    2.2302   -3.9361   -1.3725 H   0  0  0  0  0  0  0  0  0  0  0  0
    4.4709   -3.2451   -2.1357 H   0  0  0  0  0  0  0  0  0  0  0  0
    3.2527   -2.0833   -2.6408 H   0  0  0  0  0  0  0  0  0  0  0  0
    4.3480    2.6494   -1.0069 H   0  0  0  0  0  0  0  0  0  0  0  0
    6.0140    3.8408    0.4103 H   0  0  0  0  0  0  0  0  0  0  0  0
    7.7082    2.5616    1.6802 H   0  0  0  0  0  0  0  0  0  0  0  0
    7.7675    0.0758    1.5531 H   0  0  0  0  0  0  0  0  0  0  0  0
  1  2  2  0
  2  3  1  0
  3  4  1  0
  4  5  1  0
  5  6  1  0
  6  7  1  0
  7  8  1  0
  8  9  2  0
  8 10  1  0
 10 11  2  0
 11 12  1  0
 12 13  2  0
 13 14  1  0
 14 15  1  0
 14 16  2  0
  7 17  1  0
 17 18  1  0
  2 19  1  0
 19 20  1  0
 20 21  1  0
 21 22  1  0
 22 23  2  0
 23 24  1  0
 24 25  2  0
 25 26  1  0
 26 27  2  0
 27 28  1  0
 28 29  2  0
 29 30  1  0
 18  4  1  0
 30 22  1  0
 16 10  1  0
 29 24  1  0
  3 31  1  0
  3 32  1  0
  5 33  1  0
  5 34  1  0
  6 35  1  0
  6 36  1  0
 11 37  1  0
 12 38  1  0
 13 39  1  0
 16 40  1  0
 17 41  1  0
 17 42  1  0
 18 43  1  0
 18 44  1  0
 19 45  1  0
 20 46  1  0
 20 47  1  0
 21 48  1  0
 21 49  1  0
 25 50  1  0
 26 51  1  0
 27 52  1  0
 28 53  1  0
M  END
$$$$
OCNT-2318098
     RDKit          3D

 41 42  0  0  0  0  0  0  0  0999 V2000
    3.2565   -0.8714    1.4467 C   0  0  0  0  0  0  0  0  0  0  0  0
    4.2605   -1.0210    0.8043 C   0  0  0  0  0  0  0  0  0  0  0  0
    5.4694   -1.2054   -0.0069 C   0  0  0  0  0  0  0  0  0  0  0  0
    5.5144   -0.1910   -1.0318 N   0  0  0  0  0  0  0  0  0  0  0  0
    5.0258   -0.4286   -2.2985 C   0  0  0  0  0  0  0  0  0  0  0  0
    4.7825   -1.5603   -2.7130 O   0  0  0  0  0  0  0  0  0  0  0  0
    4.9067    0.7873   -3.2075 C   0  0  0  0  0  0  0  0  0  0  0  0
    4.5407    2.3331   -2.3191 S   0  0  0  0  0  0  0  0  0  0  0  0
    2.9569    1.9734   -1.6693 C   0  0  0  0  0  0  0  0  0  0  0  0
    2.1898    1.0259   -2.1499 N   0  0  0  0  0  0  0  0  0  0  0  0
    1.0118    0.9126   -1.4406 N   0  0  0  0  0  0  0  0  0  0  0  0
    0.9154    1.7727   -0.4467 C   0  0  0  0  0  0  0  0  0  0  0  0
   -0.0879    1.9237    0.4514 N   0  0  0  0  0  0  0  0  0  0  0  0
   -1.2371    1.1344    0.6427 C   0  0  0  0  0  0  0  0  0  0  0  0
   -2.1700    1.5403    1.6107 C   0  0  0  0  0  0  0  0  0  0  0  0
   -3.3418    0.8126    1.8505 C   0  0  0  0  0  0  0  0  0  0  0  0
   -3.6223   -0.3479    1.1224 C   0  0  0  0  0  0  0  0  0  0  0  0
   -4.8962   -1.1266    1.3938 C   0  0  0  0  0  0  0  0  0  0  0  0
   -4.5946   -2.5435    1.8883 C   0  0  0  0  0  0  0  0  0  0  0  0
   -5.8078   -1.1605    0.1646 C   0  0  0  0  0  0  0  0  0  0  0  0
   -2.7010   -0.7544    0.1505 C   0  0  0  0  0  0  0  0  0  0  0  0
   -1.5297   -0.0218   -0.0855 C   0  0  0  0  0  0  0  0  0  0  0  0
    2.2898    2.8221   -0.3447 S   0  0  0  0  0  0  0  0  0  0  0  0
    2.3498   -0.7512    1.9942 H   0  0  0  0  0  0  0  0  0  0  0  0
    6.3641   -1.0791    0.6104 H   0  0  0  0  0  0  0  0  0  0  0  0
    5.4950   -2.2052   -0.4507 H   0  0  0  0  0  0  0  0  0  0  0  0
    5.5769    0.7709   -0.7257 H   0  0  0  0  0  0  0  0  0  0  0  0
    4.1287    0.6022   -3.9547 H   0  0  0  0  0  0  0  0  0  0  0  0
    5.8607    0.9074   -3.7303 H   0  0  0  0  0  0  0  0  0  0  0  0
    0.0152    2.6707    1.1259 H   0  0  0  0  0  0  0  0  0  0  0  0
   -1.9976    2.4396    2.1972 H   0  0  0  0  0  0  0  0  0  0  0  0
   -4.0336    1.1658    2.6120 H   0  0  0  0  0  0  0  0  0  0  0  0
   -5.4522   -0.6185    2.1930 H   0  0  0  0  0  0  0  0  0  0  0  0
   -3.9519   -2.5198    2.7754 H   0  0  0  0  0  0  0  0  0  0  0  0
   -5.5206   -3.0620    2.1594 H   0  0  0  0  0  0  0  0  0  0  0  0
   -4.0883   -3.1449    1.1254 H   0  0  0  0  0  0  0  0  0  0  0  0
   -5.3512   -1.7043   -0.6696 H   0  0  0  0  0  0  0  0  0  0  0  0
   -6.7566   -1.6533    0.4027 H   0  0  0  0  0  0  0  0  0  0  0  0
   -6.0348   -0.1462   -0.1825 H   0  0  0  0  0  0  0  0  0  0  0  0
   -2.8796   -1.6494   -0.4417 H   0  0  0  0  0  0  0  0  0  0  0  0
   -0.8559   -0.3924   -0.8526 H   0  0  0  0  0  0  0  0  0  0  0  0
  1  2  3  0
  2  3  1  0
  3  4  1  0
  4  5  1  0
  5  6  2  0
  5  7  1  0
  7  8  1  0
  8  9  1  0
  9 10  2  0
 10 11  1  0
 11 12  2  0
 12 13  1  0
 13 14  1  0
 14 15  1  0
 15 16  2  0
 16 17  1  0
 17 18  1  0
 18 19  1  0
 18 20  1  0
 17 21  2  0
 21 22  1  0
 12 23  1  0
 23  9  1  0
 22 14  2  0
  1 24  1  0
  3 25  1  0
  3 26  1  0
  4 27  1  0
  7 28  1  0
  7 29  1  0
 13 30  1  0
 15 31  1  0
 16 32  1  0
 18 33  1  0
 19 34  1  0
 19 35  1  0
 19 36  1  0
 20 37  1  0
 20 38  1  0
 20 39  1  0
 21 40  1  0
 22 41  1  0
M  END
$$$$
OCNT-2318099
     RDKit          3D

 40 43  0  0  0  0  0  0  0  0999 V2000
    2.8534   -2.5064    0.7697 O   0  0  0  0  0  0  0  0  0  0  0  0
    3.9201   -2.0265   -0.0414 C   0  0  0  0  0  0  0  0  0  0  0  0
    3.5061   -0.8700   -0.9476 C   0  0  0  0  0  0  0  0  0  0  0  0
    2.2516   -1.1719   -1.7989 C   0  0  0  0  0  0  0  0  0  0  0  0
    1.5626    0.1146   -2.0142 N   0  0  0  0  0  0  0  0  0  0  0  0
    0.1672    0.1083   -2.4722 C   0  0  0  0  0  0  0  0  0  0  0  0
   -0.8950   -0.3282   -1.5151 C   0  0  0  0  0  0  0  0  0  0  0  0
   -1.6916    0.3850   -0.7493 N   0  0  0  0  0  0  0  0  0  0  0  0
   -2.4381   -0.5827   -0.1092 C   0  0  0  0  0  0  0  0  0  0  0  0
   -3.4618   -0.2496    0.8765 C   0  0  0  0  0  0  0  0  0  0  0  0
   -3.6992    1.0891    1.2237 C   0  0  0  0  0  0  0  0  0  0  0  0
   -4.6768    1.4189    2.1662 C   0  0  0  0  0  0  0  0  0  0  0  0
   -5.4278    0.4141    2.7725 C   0  0  0  0  0  0  0  0  0  0  0  0
   -5.2029   -0.9199    2.4388 C   0  0  0  0  0  0  0  0  0  0  0  0
   -4.2253   -1.2507    1.4962 C   0  0  0  0  0  0  0  0  0  0  0  0
   -2.1378   -1.8370   -0.4877 N   0  0  0  0  0  0  0  0  0  0  0  0
   -1.1147   -1.6697   -1.4166 O   0  0  0  0  0  0  0  0  0  0  0  0
    1.9321    0.8957   -0.9082 C   0  0  0  0  0  0  0  0  0  0  0  0
    1.3553    2.0741   -0.4629 C   0  0  0  0  0  0  0  0  0  0  0  0
    1.8965    2.7170    0.6555 C   0  0  0  0  0  0  0  0  0  0  0  0
    3.0178    2.1905    1.3100 C   0  0  0  0  0  0  0  0  0  0  0  0
    3.6118    1.0141    0.8554 C   0  0  0  0  0  0  0  0  0  0  0  0
    3.0528    0.3782   -0.2445 C   0  0  0  0  0  0  0  0  0  0  0  0
    2.5028   -1.7496    1.2750 H   0  0  0  0  0  0  0  0  0  0  0  0
    4.2634   -2.8678   -0.6525 H   0  0  0  0  0  0  0  0  0  0  0  0
    4.7461   -1.7414    0.6183 H   0  0  0  0  0  0  0  0  0  0  0  0
    4.3430   -0.5996   -1.6046 H   0  0  0  0  0  0  0  0  0  0  0  0
    2.5316   -1.6228   -2.7576 H   0  0  0  0  0  0  0  0  0  0  0  0
    1.5809   -1.8745   -1.2895 H   0  0  0  0  0  0  0  0  0  0  0  0
    0.1092   -0.5332   -3.3613 H   0  0  0  0  0  0  0  0  0  0  0  0
   -0.0882    1.1123   -2.8345 H   0  0  0  0  0  0  0  0  0  0  0  0
   -3.1204    1.8865    0.7613 H   0  0  0  0  0  0  0  0  0  0  0  0
   -4.8497    2.4602    2.4260 H   0  0  0  0  0  0  0  0  0  0  0  0
   -6.1880    0.6705    3.5061 H   0  0  0  0  0  0  0  0  0  0  0  0
   -5.7871   -1.7054    2.9116 H   0  0  0  0  0  0  0  0  0  0  0  0
   -4.0653   -2.2990    1.2511 H   0  0  0  0  0  0  0  0  0  0  0  0
    0.4958    2.5079   -0.9621 H   0  0  0  0  0  0  0  0  0  0  0  0
    1.4460    3.6390    1.0148 H   0  0  0  0  0  0  0  0  0  0  0  0
    3.4311    2.7097    2.1714 H   0  0  0  0  0  0  0  0  0  0  0  0
    4.4923    0.6204    1.3523 H   0  0  0  0  0  0  0  0  0  0  0  0
  1  2  1  0
  2  3  1  0
  3  4  1  0
  4  5  1  0
  5  6  1  0
  6  7  1  0
  7  8  2  0
  8  9  1  0
  9 10  1  0
 10 11  2  0
 11 12  1  0
 12 13  2  0
 13 14  1  0
 14 15  2  0
  9 16  2  0
 16 17  1  0
  5 18  1  0
 18 19  2  0
 19 20  1  0
 20 21  2  0
 21 22  1  0
 22 23  2  0
 23  3  1  0
 17  7  1  0
 23 18  1  0
 15 10  1  0
  1 24  1  0
  2 25  1  0
  2 26  1  0
  3 27  1  0
  4 28  1  0
  4 29  1  0
  6 30  1  0
  6 31  1  0
 11 32  1  0
 12 33  1  0
 13 34  1  0
 14 35  1  0
 15 36  1  0
 19 37  1  0
 20 38  1  0
 21 39  1  0
 22 40  1  0
M  END
$$$$
OCNT-2318103
     RDKit          3D

 44 46  0  0  0  0  0  0  0  0999 V2000
   -4.8721    1.3145   -0.4460 C   0  0  0  0  0  0  0  0  0  0  0  0
   -4.7735    0.0098    0.3436 C   0  0  0  0  0  0  0  0  0  0  0  0
   -4.5734    0.2821    1.8340 C   0  0  0  0  0  0  0  0  0  0  0  0
   -3.6651   -0.8647   -0.1974 C   0  0  0  0  0  0  0  0  0  0  0  0
   -4.0107   -2.0638   -0.6941 N   0  0  0  0  0  0  0  0  0  0  0  0
   -3.0050   -2.8060   -1.1791 C   0  0  0  0  0  0  0  0  0  0  0  0
   -1.6894   -2.4040   -1.1679 C   0  0  0  0  0  0  0  0  0  0  0  0
   -1.4087   -1.1661   -0.6199 C   0  0  0  0  0  0  0  0  0  0  0  0
   -0.1033   -0.6796   -0.5899 N   0  0  0  0  0  0  0  0  0  0  0  0
    0.9759   -1.5903   -0.1609 C   0  0  0  0  0  0  0  0  0  0  0  0
    1.8085   -0.9984    1.0005 C   0  0  0  0  0  0  0  0  0  0  0  0
    2.3843    0.3254    0.6662 N   0  0  0  0  0  0  0  0  0  0  0  0
    3.7527    0.3008    0.3535 C   0  0  0  0  0  0  0  0  0  0  0  0
    4.6925   -0.2034    1.2657 C   0  0  0  0  0  0  0  0  0  0  0  0
    6.0319   -0.2634    1.0425 N   0  0  0  0  0  0  0  0  0  0  0  0
    6.4259    0.2340   -0.1451 C   0  0  0  0  0  0  0  0  0  0  0  0
    5.5269    0.7575   -1.0541 C   0  0  0  0  0  0  0  0  0  0  0  0
    4.1928    0.8009   -0.8231 N   0  0  0  0  0  0  0  0  0  0  0  0
    1.5372    1.1656   -0.2321 C   0  0  0  0  0  0  0  0  0  0  0  0
    1.6522    2.6335    0.1859 C   0  0  0  0  0  0  0  0  0  0  0  0
    0.0457    0.7281   -0.1655 C   0  0  0  0  0  0  0  0  0  0  0  0
   -2.4034   -0.3917   -0.1498 N   0  0  0  0  0  0  0  0  0  0  0  0
   -5.7136    1.9188   -0.0907 H   0  0  0  0  0  0  0  0  0  0  0  0
   -3.9619    1.9173   -0.3492 H   0  0  0  0  0  0  0  0  0  0  0  0
   -5.0272    1.1160   -1.5123 H   0  0  0  0  0  0  0  0  0  0  0  0
   -5.7239   -0.5267    0.2252 H   0  0  0  0  0  0  0  0  0  0  0  0
   -3.6510    0.8426    2.0241 H   0  0  0  0  0  0  0  0  0  0  0  0
   -4.5150   -0.6550    2.3989 H   0  0  0  0  0  0  0  0  0  0  0  0
   -5.4088    0.8653    2.2361 H   0  0  0  0  0  0  0  0  0  0  0  0
   -3.2938   -3.7646   -1.5989 H   0  0  0  0  0  0  0  0  0  0  0  0
   -0.9210   -3.0296   -1.5996 H   0  0  0  0  0  0  0  0  0  0  0  0
    1.6289   -1.7738   -1.0225 H   0  0  0  0  0  0  0  0  0  0  0  0
    0.5909   -2.5619    0.1709 H   0  0  0  0  0  0  0  0  0  0  0  0
    1.1593   -0.8662    1.8755 H   0  0  0  0  0  0  0  0  0  0  0  0
    2.5684   -1.7319    1.2942 H   0  0  0  0  0  0  0  0  0  0  0  0
    4.3807   -0.5657    2.2396 H   0  0  0  0  0  0  0  0  0  0  0  0
    7.4899    0.2056   -0.3482 H   0  0  0  0  0  0  0  0  0  0  0  0
    5.8542    1.1619   -2.0050 H   0  0  0  0  0  0  0  0  0  0  0  0
    1.8486    1.0551   -1.2795 H   0  0  0  0  0  0  0  0  0  0  0  0
    1.0224    3.2684   -0.4462 H   0  0  0  0  0  0  0  0  0  0  0  0
    2.6815    2.9962    0.0996 H   0  0  0  0  0  0  0  0  0  0  0  0
    1.3404    2.7731    1.2270 H   0  0  0  0  0  0  0  0  0  0  0  0
   -0.3294    0.8575    0.8592 H   0  0  0  0  0  0  0  0  0  0  0  0
   -0.5418    1.3767   -0.8283 H   0  0  0  0  0  0  0  0  0  0  0  0
  1  2  1  0
  2  3  1  0
  2  4  1  0
  4  5  2  0
  5  6  1  0
  6  7  2  0
  7  8  1  0
  8  9  1  0
  9 10  1  0
 10 11  1  0
 11 12  1  0
 12 13  1  0
 13 14  2  0
 14 15  1  0
 15 16  2  0
 16 17  1  0
 17 18  2  0
 12 19  1  0
 19 20  1  0
 19 21  1  0
  8 22  2  0
 22  4  1  0
 21  9  1  0
 18 13  1  0
  1 23  1  0
  1 24  1  0
  1 25  1  0
  2 26  1  0
  3 27  1  0
  3 28  1  0
  3 29  1  0
  6 30  1  0
  7 31  1  0
 10 32  1  0
 10 33  1  0
 11 34  1  0
 11 35  1  0
 14 36  1  0
 16 37  1  0
 17 38  1  0
 19 39  1  0
 20 40  1  0
 20 41  1  0
 20 42  1  0
 21 43  1  0
 21 44  1  0
M  END
$$$$
OCNT-2318111
     RDKit          3D

 37 39  0  0  0  0  0  0  0  0999 V2000
    5.0433   -1.5634   -1.5385 C   0  0  0  0  0  0  0  0  0  0  0  0
    3.8627   -1.8661   -0.6285 C   0  0  0  0  0  0  0  0  0  0  0  0
    3.7003   -0.8473    0.4477 C   0  0  0  0  0  0  0  0  0  0  0  0
    4.2446   -1.0652    1.6510 N   0  0  0  0  0  0  0  0  0  0  0  0
    3.9206    0.0363    2.4180 O   0  0  0  0  0  0  0  0  0  0  0  0
    3.1946    0.9032    1.6755 C   0  0  0  0  0  0  0  0  0  0  0  0
    3.0198    0.4018    0.4056 C   0  0  0  0  0  0  0  0  0  0  0  0
    2.2985    1.0332   -0.7262 C   0  0  0  0  0  0  0  0  0  0  0  0
    0.8710    1.0859   -0.4699 N   0  0  0  0  0  0  0  0  0  0  0  0
   -0.0471    0.0872   -0.6127 C   0  0  0  0  0  0  0  0  0  0  0  0
   -1.2347    0.6797   -0.2420 C   0  0  0  0  0  0  0  0  0  0  0  0
   -2.5353    0.0406   -0.2049 C   0  0  0  0  0  0  0  0  0  0  0  0
   -2.9241   -0.8145   -1.2496 C   0  0  0  0  0  0  0  0  0  0  0  0
   -4.1748   -1.4395   -1.2350 C   0  0  0  0  0  0  0  0  0  0  0  0
   -5.0502   -1.2252   -0.1729 C   0  0  0  0  0  0  0  0  0  0  0  0
   -4.6797   -0.3809    0.8723 C   0  0  0  0  0  0  0  0  0  0  0  0
   -3.4375    0.2630    0.8473 C   0  0  0  0  0  0  0  0  0  0  0  0
   -3.0827    1.0331    1.9264 O   0  0  0  0  0  0  0  0  0  0  0  0
   -3.7203    2.3093    1.8605 C   0  0  0  0  0  0  0  0  0  0  0  0
   -1.0025    1.9941    0.0732 N   0  0  0  0  0  0  0  0  0  0  0  0
    0.2928    2.2363   -0.0810 N   0  0  0  0  0  0  0  0  0  0  0  0
    4.9249   -0.5936   -2.0334 H   0  0  0  0  0  0  0  0  0  0  0  0
    5.9815   -1.5392   -0.9737 H   0  0  0  0  0  0  0  0  0  0  0  0
    5.1320   -2.3315   -2.3132 H   0  0  0  0  0  0  0  0  0  0  0  0
    2.9458   -1.9173   -1.2273 H   0  0  0  0  0  0  0  0  0  0  0  0
    3.9965   -2.8602   -0.1845 H   0  0  0  0  0  0  0  0  0  0  0  0
    2.8810    1.8051    2.1825 H   0  0  0  0  0  0  0  0  0  0  0  0
    2.6532    2.0568   -0.8921 H   0  0  0  0  0  0  0  0  0  0  0  0
    2.4369    0.4797   -1.6609 H   0  0  0  0  0  0  0  0  0  0  0  0
    0.2127   -0.9136   -0.9221 H   0  0  0  0  0  0  0  0  0  0  0  0
   -2.2609   -0.9935   -2.0926 H   0  0  0  0  0  0  0  0  0  0  0  0
   -4.4628   -2.0969   -2.0517 H   0  0  0  0  0  0  0  0  0  0  0  0
   -6.0172   -1.7212   -0.1538 H   0  0  0  0  0  0  0  0  0  0  0  0
   -5.3514   -0.2346    1.7137 H   0  0  0  0  0  0  0  0  0  0  0  0
   -3.6121    2.7723    0.8731 H   0  0  0  0  0  0  0  0  0  0  0  0
   -3.2398    2.9618    2.5956 H   0  0  0  0  0  0  0  0  0  0  0  0
   -4.7797    2.2246    2.1240 H   0  0  0  0  0  0  0  0  0  0  0  0
  1  2  1  0
  2  3  1  0
  3  4  2  0
  4  5  1  0
  5  6  1  0
  6  7  2  0
  7  8  1  0
  8  9  1  0
  9 10  1  0
 10 11  2  0
 11 12  1  0
 12 13  2  0
 13 14  1  0
 14 15  2  0
 15 16  1  0
 16 17  2  0
 17 18  1  0
 18 19  1  0
 11 20  1  0
 20 21  2  0
  7  3  1  0
 21  9  1  0
 17 12  1  0
  1 22  1  0
  1 23  1  0
  1 24  1  0
  2 25  1  0
  2 26  1  0
  6 27  1  0
  8 28  1  0
  8 29  1  0
 10 30  1  0
 13 31  1  0
 14 32  1  0
 15 33  1  0
 16 34  1  0
 19 35  1  0
 19 36  1  0
 19 37  1  0
M  END
$$$$
OCNT-2318112
     RDKit          3D

 42 45  0  0  0  0  0  0  0  0999 V2000
   -2.0263    3.2446    0.2047 C   0  0  0  0  0  0  0  0  0  0  0  0
   -1.1343    2.0439    0.3704 C   0  0  0  0  0  0  0  0  0  0  0  0
   -0.1593    2.0488    1.3758 C   0  0  0  0  0  0  0  0  0  0  0  0
    0.6923    0.9534    1.5580 C   0  0  0  0  0  0  0  0  0  0  0  0
    0.6280   -0.1592    0.7179 C   0  0  0  0  0  0  0  0  0  0  0  0
    1.4175   -1.3082    0.8953 N   0  0  0  0  0  0  0  0  0  0  0  0
    2.8407   -1.1255    1.2513 C   0  0  0  0  0  0  0  0  0  0  0  0
    3.3601   -2.4778    1.7597 C   0  0  0  0  0  0  0  0  0  0  0  0
    3.7003   -0.6349    0.1106 C   0  0  0  0  0  0  0  0  0  0  0  0
    4.4583    0.5145    0.0208 C   0  0  0  0  0  0  0  0  0  0  0  0
    4.9850    0.5024   -1.2411 N   0  0  0  0  0  0  0  0  0  0  0  0
    4.5452   -0.6313   -1.8622 C   0  0  0  0  0  0  0  0  0  0  0  0
    3.7675   -1.3398   -1.0773 N   0  0  0  0  0  0  0  0  0  0  0  0
   -0.3793   -0.1783   -0.2569 C   0  0  0  0  0  0  0  0  0  0  0  0
   -1.2573    0.9058   -0.4469 C   0  0  0  0  0  0  0  0  0  0  0  0
   -2.2788    0.8223   -1.4852 C   0  0  0  0  0  0  0  0  0  0  0  0
   -2.4354    1.6310   -2.5193 N   0  0  0  0  0  0  0  0  0  0  0  0
   -3.5263    1.1684   -3.2171 N   0  0  0  0  0  0  0  0  0  0  0  0
   -4.0543    0.1057   -2.6274 N   0  0  0  0  0  0  0  0  0  0  0  0
   -3.2927   -0.1038   -1.5451 N   0  0  0  0  0  0  0  0  0  0  0  0
   -3.5619   -1.1862   -0.5756 C   0  0  0  0  0  0  0  0  0  0  0  0
   -4.9490   -1.4565   -0.0383 C   0  0  0  0  0  0  0  0  0  0  0  0
   -3.8912   -0.9137    0.8743 C   0  0  0  0  0  0  0  0  0  0  0  0
   -1.8438    3.7232   -0.7628 H   0  0  0  0  0  0  0  0  0  0  0  0
   -1.8396    3.9935    0.9824 H   0  0  0  0  0  0  0  0  0  0  0  0
   -3.0792    2.9542    0.2784 H   0  0  0  0  0  0  0  0  0  0  0  0
   -0.0593    2.9046    2.0403 H   0  0  0  0  0  0  0  0  0  0  0  0
    1.3975    0.9933    2.3815 H   0  0  0  0  0  0  0  0  0  0  0  0
    1.4039   -1.8714    0.0428 H   0  0  0  0  0  0  0  0  0  0  0  0
    2.9418   -0.4319    2.0937 H   0  0  0  0  0  0  0  0  0  0  0  0
    4.4095   -2.4061    2.0666 H   0  0  0  0  0  0  0  0  0  0  0  0
    3.2899   -3.2530    0.9874 H   0  0  0  0  0  0  0  0  0  0  0  0
    2.7763   -2.8179    2.6225 H   0  0  0  0  0  0  0  0  0  0  0  0
    4.6425    1.3216    0.7153 H   0  0  0  0  0  0  0  0  0  0  0  0
    5.5817    1.2074   -1.6516 H   0  0  0  0  0  0  0  0  0  0  0  0
    4.8195   -0.8821   -2.8782 H   0  0  0  0  0  0  0  0  0  0  0  0
   -0.4657   -1.0527   -0.8993 H   0  0  0  0  0  0  0  0  0  0  0  0
   -2.9583   -2.0635   -0.7880 H   0  0  0  0  0  0  0  0  0  0  0  0
   -5.7558   -0.7945   -0.3346 H   0  0  0  0  0  0  0  0  0  0  0  0
   -5.2511   -2.4901    0.0880 H   0  0  0  0  0  0  0  0  0  0  0  0
   -3.4680   -1.5750    1.6223 H   0  0  0  0  0  0  0  0  0  0  0  0
   -3.9903    0.1146    1.2050 H   0  0  0  0  0  0  0  0  0  0  0  0
  1  2  1  0
  2  3  1  0
  3  4  2  0
  4  5  1  0
  5  6  1  0
  6  7  1  0
  7  8  1  0
  7  9  1  0
  9 10  2  0
 10 11  1  0
 11 12  1  0
 12 13  2  0
  5 14  2  0
 14 15  1  0
 15 16  1  0
 16 17  2  0
 17 18  1  0
 18 19  2  0
 19 20  1  0
 20 21  1  0
 21 22  1  0
 22 23  1  0
 15  2  2  0
 20 16  1  0
 23 21  1  0
 13  9  1  0
  1 24  1  0
  1 25  1  0
  1 26  1  0
  3 27  1  0
  4 28  1  0
  6 29  1  0
  7 30  1  0
  8 31  1  0
  8 32  1  0
  8 33  1  0
 10 34  1  0
 11 35  1  0
 12 36  1  0
 14 37  1  0
 21 38  1  0
 22 39  1  0
 22 40  1  0
 23 41  1  0
 23 42  1  0
M  END
$$$$
OCNT-2318118
     RDKit          3D

 39 42  0  0  0  0  0  0  0  0999 V2000
   -6.6834   -1.0337    2.1505 C   0  0  0  0  0  0  0  0  0  0  0  0
   -5.3170   -0.6535    2.2530 O   0  0  0  0  0  0  0  0  0  0  0  0
   -4.6192   -0.5358    1.0826 C   0  0  0  0  0  0  0  0  0  0  0  0
   -5.1198   -0.7663   -0.1983 C   0  0  0  0  0  0  0  0  0  0  0  0
   -4.2921   -0.6024   -1.3131 C   0  0  0  0  0  0  0  0  0  0  0  0
   -2.9659   -0.2043   -1.1544 C   0  0  0  0  0  0  0  0  0  0  0  0
   -2.2333   -0.0763   -2.3040 O   0  0  0  0  0  0  0  0  0  0  0  0
   -1.0032    0.6441   -2.1478 C   0  0  0  0  0  0  0  0  0  0  0  0
   -0.2010    0.1454   -0.9503 C   0  0  0  0  0  0  0  0  0  0  0  0
    1.1269    0.7965   -0.8781 C   0  0  0  0  0  0  0  0  0  0  0  0
    1.4732    2.0386   -1.1379 N   0  0  0  0  0  0  0  0  0  0  0  0
    2.8293    2.1180   -0.9001 N   0  0  0  0  0  0  0  0  0  0  0  0
    3.2184    0.9199   -0.5067 C   0  0  0  0  0  0  0  0  0  0  0  0
    4.5433    0.4534   -0.1281 C   0  0  0  0  0  0  0  0  0  0  0  0
    5.6261    1.3490   -0.1711 C   0  0  0  0  0  0  0  0  0  0  0  0
    6.9150    0.9389    0.1852 C   0  0  0  0  0  0  0  0  0  0  0  0
    7.1422   -0.3742    0.5908 C   0  0  0  0  0  0  0  0  0  0  0  0
    6.0806   -1.2747    0.6395 C   0  0  0  0  0  0  0  0  0  0  0  0
    4.7967   -0.8597    0.2827 C   0  0  0  0  0  0  0  0  0  0  0  0
    3.8106   -1.7671    0.3488 F   0  0  0  0  0  0  0  0  0  0  0  0
    2.1799    0.0259   -0.4688 O   0  0  0  0  0  0  0  0  0  0  0  0
   -1.0111    0.4190    0.3154 C   0  0  0  0  0  0  0  0  0  0  0  0
   -2.4435    0.0058    0.1242 C   0  0  0  0  0  0  0  0  0  0  0  0
   -3.2837   -0.1497    1.2363 C   0  0  0  0  0  0  0  0  0  0  0  0
   -6.7836   -2.0306    1.7086 H   0  0  0  0  0  0  0  0  0  0  0  0
   -7.2590   -0.2913    1.5878 H   0  0  0  0  0  0  0  0  0  0  0  0
   -7.0954   -1.0760    3.1634 H   0  0  0  0  0  0  0  0  0  0  0  0
   -6.1465   -1.0720   -0.3674 H   0  0  0  0  0  0  0  0  0  0  0  0
   -4.6861   -0.7802   -2.3104 H   0  0  0  0  0  0  0  0  0  0  0  0
   -0.4333    0.4994   -3.0734 H   0  0  0  0  0  0  0  0  0  0  0  0
   -1.2283    1.7172   -2.0809 H   0  0  0  0  0  0  0  0  0  0  0  0
   -0.0702   -0.9411   -1.0529 H   0  0  0  0  0  0  0  0  0  0  0  0
    5.4700    2.3809   -0.4855 H   0  0  0  0  0  0  0  0  0  0  0  0
    7.7397    1.6473    0.1451 H   0  0  0  0  0  0  0  0  0  0  0  0
    8.1434   -0.6949    0.8682 H   0  0  0  0  0  0  0  0  0  0  0  0
    6.2412   -2.3017    0.9538 H   0  0  0  0  0  0  0  0  0  0  0  0
   -0.9925    1.4872    0.5699 H   0  0  0  0  0  0  0  0  0  0  0  0
   -0.5700   -0.1268    1.1592 H   0  0  0  0  0  0  0  0  0  0  0  0
   -2.8985    0.0258    2.2389 H   0  0  0  0  0  0  0  0  0  0  0  0
  1  2  1  0
  2  3  1  0
  3  4  1  0
  4  5  2  0
  5  6  1  0
  6  7  1  0
  7  8  1  0
  8  9  1  0
  9 10  1  0
 10 11  2  0
 11 12  1  0
 12 13  2  0
 13 14  1  0
 14 15  2  0
 15 16  1  0
 16 17  2  0
 17 18  1  0
 18 19  2  0
 19 20  1  0
 13 21  1  0
  9 22  1  0
 22 23  1  0
 23 24  1  0
 24  3  2  0
 23  6  2  0
 21 10  1  0
 19 14  1  0
  1 25  1  0
  1 26  1  0
  1 27  1  0
  4 28  1  0
  5 29  1  0
  8 30  1  0
  8 31  1  0
  9 32  1  0
 15 33  1  0
 16 34  1  0
 17 35  1  0
 18 36  1  0
 22 37  1  0
 22 38  1  0
 24 39  1  0
M  END
$$$$
OCNT-2318133
     RDKit          3D

 47 50  0  0  0  0  0  0  0  0999 V2000
    4.8652   -0.7988   -0.6582 N   0  0  0  0  0  0  0  0  0  0  0  0
    4.1988   -2.3272   -0.6461 S   0  0  0  0  0  0  0  0  0  0  0  0
    4.0873   -2.7284   -2.0235 O   0  0  0  0  0  0  0  0  0  0  0  0
    4.9714   -3.0587    0.3254 O   0  0  0  0  0  0  0  0  0  0  0  0
    2.7060   -1.9718   -0.0084 N   0  0  0  0  0  0  0  0  0  0  0  0
    2.5777   -1.6794    1.4252 C   0  0  0  0  0  0  0  0  0  0  0  0
    1.5825   -0.5785    1.7719 C   0  0  0  0  0  0  0  0  0  0  0  0
    1.8515    0.7312    1.0317 C   0  0  0  0  0  0  0  0  0  0  0  0
    1.1805    0.8211   -0.2749 N   0  0  0  0  0  0  0  0  0  0  0  0
   -0.2103    1.0375   -0.2080 C   0  0  0  0  0  0  0  0  0  0  0  0
   -1.0237    0.0048   -0.4979 N   0  0  0  0  0  0  0  0  0  0  0  0
   -2.3478    0.1960   -0.3751 C   0  0  0  0  0  0  0  0  0  0  0  0
   -3.2388   -0.9417   -0.6737 C   0  0  0  0  0  0  0  0  0  0  0  0
   -2.7390   -2.1705   -1.1304 C   0  0  0  0  0  0  0  0  0  0  0  0
   -3.6169   -3.2103   -1.3956 C   0  0  0  0  0  0  0  0  0  0  0  0
   -4.9526   -3.1211   -1.2417 N   0  0  0  0  0  0  0  0  0  0  0  0
   -5.4300   -1.9390   -0.8051 C   0  0  0  0  0  0  0  0  0  0  0  0
   -4.6300   -0.8448   -0.5144 C   0  0  0  0  0  0  0  0  0  0  0  0
   -2.9195    1.3477    0.0097 N   0  0  0  0  0  0  0  0  0  0  0  0
   -2.1142    2.3835    0.2520 C   0  0  0  0  0  0  0  0  0  0  0  0
   -2.6894    3.5967    0.6125 C   0  0  0  0  0  0  0  0  0  0  0  0
   -1.9210    4.7386    0.8533 C   0  0  0  0  0  0  0  0  0  0  0  0
   -0.5416    4.6774    0.7238 C   0  0  0  0  0  0  0  0  0  0  0  0
    0.0555    3.4701    0.3688 C   0  0  0  0  0  0  0  0  0  0  0  0
   -0.7211    2.3020    0.1486 C   0  0  0  0  0  0  0  0  0  0  0  0
    1.6147   -0.1260   -1.3214 C   0  0  0  0  0  0  0  0  0  0  0  0
    1.5950   -1.6069   -0.9155 C   0  0  0  0  0  0  0  0  0  0  0  0
    5.5484   -0.7579   -1.4161 H   0  0  0  0  0  0  0  0  0  0  0  0
    5.3214   -0.6383    0.2392 H   0  0  0  0  0  0  0  0  0  0  0  0
    3.5526   -1.3961    1.8398 H   0  0  0  0  0  0  0  0  0  0  0  0
    2.2791   -2.6036    1.9338 H   0  0  0  0  0  0  0  0  0  0  0  0
    0.5547   -0.9266    1.6238 H   0  0  0  0  0  0  0  0  0  0  0  0
    1.6776   -0.3884    2.8490 H   0  0  0  0  0  0  0  0  0  0  0  0
    1.5318    1.5566    1.6784 H   0  0  0  0  0  0  0  0  0  0  0  0
    2.9290    0.8801    0.8906 H   0  0  0  0  0  0  0  0  0  0  0  0
   -1.6756   -2.3228   -1.2826 H   0  0  0  0  0  0  0  0  0  0  0  0
   -3.2541   -4.1708   -1.7504 H   0  0  0  0  0  0  0  0  0  0  0  0
   -6.5089   -1.8880   -0.6895 H   0  0  0  0  0  0  0  0  0  0  0  0
   -5.0922    0.0744   -0.1664 H   0  0  0  0  0  0  0  0  0  0  0  0
   -3.7722    3.6593    0.6998 H   0  0  0  0  0  0  0  0  0  0  0  0
   -2.4061    5.6720    1.1273 H   0  0  0  0  0  0  0  0  0  0  0  0
    0.0670    5.5624    0.8895 H   0  0  0  0  0  0  0  0  0  0  0  0
    1.1357    3.4348    0.2428 H   0  0  0  0  0  0  0  0  0  0  0  0
    2.6221    0.1655   -1.6364 H   0  0  0  0  0  0  0  0  0  0  0  0
    0.9912    0.0060   -2.2163 H   0  0  0  0  0  0  0  0  0  0  0  0
    1.6597   -2.2200   -1.8220 H   0  0  0  0  0  0  0  0  0  0  0  0
    0.6483   -1.9024   -0.4540 H   0  0  0  0  0  0  0  0  0  0  0  0
  1  2  1  0
  2  3  2  0
  2  4  2  0
  2  5  1  0
  5  6  1  0
  6  7  1  0
  7  8  1  0
  8  9  1  0
  9 10  1  0
 10 11  1  0
 11 12  2  0
 12 13  1  0
 13 14  2  0
 14 15  1  0
 15 16  2  0
 16 17  1  0
 17 18  2  0
 12 19  1  0
 19 20  2  0
 20 21  1  0
 21 22  2  0
 22 23  1  0
 23 24  2  0
 24 25  1  0
  9 26  1  0
 26 27  1  0
 27  5  1  0
 25 10  2  0
 18 13  1  0
 25 20  1  0
  1 28  1  0
  1 29  1  0
  6 30  1  0
  6 31  1  0
  7 32  1  0
  7 33  1  0
  8 34  1  0
  8 35  1  0
 14 36  1  0
 15 37  1  0
 17 38  1  0
 18 39  1  0
 21 40  1  0
 22 41  1  0
 23 42  1  0
 24 43  1  0
 26 44  1  0
 26 45  1  0
 27 46  1  0
 27 47  1  0
M  END
$$$$
OCNT-2318135
     RDKit          3D

 39 41  0  0  0  0  0  0  0  0999 V2000
   -5.7336   -0.7103    1.9396 C   0  0  0  0  0  0  0  0  0  0  0  0
   -4.9434    0.3294    1.2108 C   0  0  0  0  0  0  0  0  0  0  0  0
   -5.2583    1.6784    1.3185 C   0  0  0  0  0  0  0  0  0  0  0  0
   -4.5653    2.6660    0.7105 N   0  0  0  0  0  0  0  0  0  0  0  0
   -3.4964    2.2929   -0.0353 C   0  0  0  0  0  0  0  0  0  0  0  0
   -3.0768    0.9777   -0.2046 C   0  0  0  0  0  0  0  0  0  0  0  0
   -1.9193    0.6237   -1.0063 C   0  0  0  0  0  0  0  0  0  0  0  0
   -1.3971   -0.5589   -1.2549 N   0  0  0  0  0  0  0  0  0  0  0  0
   -0.3246   -0.2412   -2.0500 C   0  0  0  0  0  0  0  0  0  0  0  0
    0.5953   -1.2706   -2.5965 C   0  0  0  0  0  0  0  0  0  0  0  0
    1.2502   -2.1342   -1.5154 C   0  0  0  0  0  0  0  0  0  0  0  0
    2.2242   -1.3729   -0.6472 C   0  0  0  0  0  0  0  0  0  0  0  0
    1.8425   -0.9251    0.6223 C   0  0  0  0  0  0  0  0  0  0  0  0
    2.7391   -0.2069    1.4159 C   0  0  0  0  0  0  0  0  0  0  0  0
    4.0224    0.0875    0.9514 C   0  0  0  0  0  0  0  0  0  0  0  0
    4.8014    0.7964    1.8223 O   0  0  0  0  0  0  0  0  0  0  0  0
    5.8962    1.4911    1.2501 C   0  0  0  0  0  0  0  0  0  0  0  0
    6.3771    2.3379    2.1961 F   0  0  0  0  0  0  0  0  0  0  0  0
    6.8915    0.6104    0.9797 F   0  0  0  0  0  0  0  0  0  0  0  0
    4.4138   -0.3689   -0.3076 C   0  0  0  0  0  0  0  0  0  0  0  0
    3.5175   -1.0903   -1.1037 C   0  0  0  0  0  0  0  0  0  0  0  0
   -0.1825    1.0641   -2.3120 N   0  0  0  0  0  0  0  0  0  0  0  0
   -1.2407    1.6452   -1.6116 O   0  0  0  0  0  0  0  0  0  0  0  0
   -3.8246   -0.0131    0.4437 C   0  0  0  0  0  0  0  0  0  0  0  0
   -6.7790   -0.4029    2.0478 H   0  0  0  0  0  0  0  0  0  0  0  0
   -5.7292   -1.6586    1.3920 H   0  0  0  0  0  0  0  0  0  0  0  0
   -5.3091   -0.8751    2.9347 H   0  0  0  0  0  0  0  0  0  0  0  0
   -6.1023    2.0165    1.9146 H   0  0  0  0  0  0  0  0  0  0  0  0
   -2.9741    3.1246   -0.5025 H   0  0  0  0  0  0  0  0  0  0  0  0
    0.0154   -1.9230   -3.2611 H   0  0  0  0  0  0  0  0  0  0  0  0
    1.3648   -0.7972   -3.2190 H   0  0  0  0  0  0  0  0  0  0  0  0
    1.7903   -2.9607   -1.9954 H   0  0  0  0  0  0  0  0  0  0  0  0
    0.4853   -2.6081   -0.8864 H   0  0  0  0  0  0  0  0  0  0  0  0
    0.8434   -1.1285    1.0025 H   0  0  0  0  0  0  0  0  0  0  0  0
    2.4291    0.1321    2.4017 H   0  0  0  0  0  0  0  0  0  0  0  0
    5.6330    2.0710    0.3583 H   0  0  0  0  0  0  0  0  0  0  0  0
    5.4147   -0.2027   -0.6947 H   0  0  0  0  0  0  0  0  0  0  0  0
    3.8421   -1.4376   -2.0826 H   0  0  0  0  0  0  0  0  0  0  0  0
   -3.5328   -1.0581    0.3487 H   0  0  0  0  0  0  0  0  0  0  0  0
  1  2  1  0
  2  3  2  0
  3  4  1  0
  4  5  2  0
  5  6  1  0
  6  7  1  0
  7  8  2  0
  8  9  1  0
  9 10  1  0
 10 11  1  0
 11 12  1  0
 12 13  1  0
 13 14  2  0
 14 15  1  0
 15 16  1  0
 16 17  1  0
 17 18  1  0
 17 19  1  0
 15 20  2  0
 20 21  1  0
  9 22  2  0
 22 23  1  0
  6 24  2  0
 24  2  1  0
 23  7  1  0
 21 12  2  0
  1 25  1  0
  1 26  1  0
  1 27  1  0
  3 28  1  0
  5 29  1  0
 10 30  1  0
 10 31  1  0
 11 32  1  0
 11 33  1  0
 13 34  1  0
 14 35  1  0
 17 36  1  0
 20 37  1  0
 21 38  1  0
 24 39  1  0
M  END
$$$$
OCNT-2318141
     RDKit          3D

 51 55  0  0  0  0  0  0  0  0999 V2000
   -5.8439   -2.1365   -0.6438 C   0  0  0  0  0  0  0  0  0  0  0  0
   -5.0778   -2.0825    0.6702 C   0  0  0  0  0  0  0  0  0  0  0  0
   -3.6303   -2.0930    0.4645 N   0  0  0  0  0  0  0  0  0  0  0  0
   -2.9734   -3.2997    0.3851 C   0  0  0  0  0  0  0  0  0  0  0  0
   -3.5049   -4.3925    0.5666 O   0  0  0  0  0  0  0  0  0  0  0  0
   -1.6395   -3.2431    0.1098 N   0  0  0  0  0  0  0  0  0  0  0  0
   -0.8769   -2.1189    0.2409 C   0  0  0  0  0  0  0  0  0  0  0  0
    0.3113   -2.1925    0.5256 O   0  0  0  0  0  0  0  0  0  0  0  0
   -1.5751   -0.8324    0.1193 C   0  0  0  0  0  0  0  0  0  0  0  0
   -0.9689    0.4016   -0.1280 C   0  0  0  0  0  0  0  0  0  0  0  0
    0.4681    0.6632   -0.4303 C   0  0  0  0  0  0  0  0  0  0  0  0
    0.6986    1.4295   -1.3608 O   0  0  0  0  0  0  0  0  0  0  0  0
    1.4088    0.0694    0.3778 N   0  0  0  0  0  0  0  0  0  0  0  0
    2.7799    0.2673    0.2862 C   0  0  0  0  0  0  0  0  0  0  0  0
    3.7407   -0.6195    0.7299 C   0  0  0  0  0  0  0  0  0  0  0  0
    4.9812   -0.0312    0.4175 C   0  0  0  0  0  0  0  0  0  0  0  0
    6.3939   -0.6505    0.6822 C   0  0  0  0  0  0  0  0  0  0  0  0
    6.6543   -1.8801    1.2594 C   0  0  0  0  0  0  0  0  0  0  0  0
    8.0633   -2.0252    1.2992 C   0  0  0  0  0  0  0  0  0  0  0  0
    8.5785   -0.8785    0.7456 C   0  0  0  0  0  0  0  0  0  0  0  0
    7.5794   -0.0418    0.3703 O   0  0  0  0  0  0  0  0  0  0  0  0
    4.8257    1.1673   -0.1486 N   0  0  0  0  0  0  0  0  0  0  0  0
    3.4857    1.3493   -0.1950 N   0  0  0  0  0  0  0  0  0  0  0  0
    3.0200    2.6625   -0.5730 C   0  0  0  0  0  0  0  0  0  0  0  0
   -1.7782    1.5492   -0.1978 C   0  0  0  0  0  0  0  0  0  0  0  0
   -3.1516    1.4660   -0.0154 C   0  0  0  0  0  0  0  0  0  0  0  0
   -4.0824    2.6597   -0.0692 C   0  0  0  0  0  0  0  0  0  0  0  0
   -3.6640    4.0243    0.4236 C   0  0  0  0  0  0  0  0  0  0  0  0
   -3.8671    3.7905   -1.0467 C   0  0  0  0  0  0  0  0  0  0  0  0
   -3.7175    0.2595    0.2134 N   0  0  0  0  0  0  0  0  0  0  0  0
   -2.9580   -0.8625    0.2603 C   0  0  0  0  0  0  0  0  0  0  0  0
   -5.6191   -1.2691   -1.2724 H   0  0  0  0  0  0  0  0  0  0  0  0
   -6.9216   -2.1498   -0.4540 H   0  0  0  0  0  0  0  0  0  0  0  0
   -5.5859   -3.0359   -1.2126 H   0  0  0  0  0  0  0  0  0  0  0  0
   -5.3551   -2.9563    1.2722 H   0  0  0  0  0  0  0  0  0  0  0  0
   -5.3726   -1.2063    1.2588 H   0  0  0  0  0  0  0  0  0  0  0  0
   -1.1603   -4.1269    0.2151 H   0  0  0  0  0  0  0  0  0  0  0  0
    1.1319   -0.7897    0.8555 H   0  0  0  0  0  0  0  0  0  0  0  0
    3.5622   -1.5814    1.1869 H   0  0  0  0  0  0  0  0  0  0  0  0
    5.9185   -2.5895    1.6089 H   0  0  0  0  0  0  0  0  0  0  0  0
    8.6320   -2.8605    1.6822 H   0  0  0  0  0  0  0  0  0  0  0  0
    9.5806   -0.5207    0.5549 H   0  0  0  0  0  0  0  0  0  0  0  0
    3.8019    3.3952   -0.3499 H   0  0  0  0  0  0  0  0  0  0  0  0
    2.8209    2.6643   -1.6465 H   0  0  0  0  0  0  0  0  0  0  0  0
    2.1355    2.9211    0.0126 H   0  0  0  0  0  0  0  0  0  0  0  0
   -1.3235    2.5153   -0.4081 H   0  0  0  0  0  0  0  0  0  0  0  0
   -5.1265    2.4060    0.1154 H   0  0  0  0  0  0  0  0  0  0  0  0
   -2.6537    4.1804    0.7822 H   0  0  0  0  0  0  0  0  0  0  0  0
   -4.4049    4.6174    0.9495 H   0  0  0  0  0  0  0  0  0  0  0  0
   -4.7449    4.2245   -1.5138 H   0  0  0  0  0  0  0  0  0  0  0  0
   -2.9956    3.7831   -1.6908 H   0  0  0  0  0  0  0  0  0  0  0  0
  1  2  1  0
  2  3  1  0
  3  4  1  0
  4  5  2  0
  4  6  1  0
  6  7  1  0
  7  8  2  0
  7  9  1  0
  9 10  2  0
 10 11  1  0
 11 12  2  0
 11 13  1  0
 13 14  1  0
 14 15  2  0
 15 16  1  0
 16 17  1  0
 17 18  2  0
 18 19  1  0
 19 20  2  0
 20 21  1  0
 16 22  2  0
 22 23  1  0
 23 24  1  0
 10 25  1  0
 25 26  2  0
 26 27  1  0
 27 28  1  0
 28 29  1  0
 26 30  1  0
 30 31  2  0
 31  3  1  0
 31  9  1  0
 23 14  1  0
 29 27  1  0
 21 17  1  0
  1 32  1  0
  1 33  1  0
  1 34  1  0
  2 35  1  0
  2 36  1  0
  6 37  1  0
 13 38  1  0
 15 39  1  0
 18 40  1  0
 19 41  1  0
 20 42  1  0
 24 43  1  0
 24 44  1  0
 24 45  1  0
 25 46  1  0
 27 47  1  0
 28 48  1  0
 28 49  1  0
 29 50  1  0
 29 51  1  0
M  END
$$$$
OCNT-2318165
     RDKit          3D

 41 44  0  0  0  0  0  0  0  0999 V2000
    1.6220   -0.9660    0.8154 O   0  0  0  0  0  0  0  0  0  0  0  0
    1.6463    0.2300    0.5439 C   0  0  0  0  0  0  0  0  0  0  0  0
    0.4934    0.9938    0.4745 N   0  0  0  0  0  0  0  0  0  0  0  0
   -0.8139    0.4199    0.7495 C   0  0  0  0  0  0  0  0  0  0  0  0
   -1.3487   -0.4121   -0.4195 C   0  0  0  0  0  0  0  0  0  0  0  0
   -2.7343   -0.9154   -0.1637 C   0  0  0  0  0  0  0  0  0  0  0  0
   -3.0675   -2.1396    0.3824 C   0  0  0  0  0  0  0  0  0  0  0  0
   -4.4308   -2.2236    0.4580 N   0  0  0  0  0  0  0  0  0  0  0  0
   -5.0041   -1.0714   -0.0267 C   0  0  0  0  0  0  0  0  0  0  0  0
   -6.3527   -0.7137   -0.1405 C   0  0  0  0  0  0  0  0  0  0  0  0
   -6.6350    0.5391   -0.6818 C   0  0  0  0  0  0  0  0  0  0  0  0
   -7.9143    0.9189   -0.8072 F   0  0  0  0  0  0  0  0  0  0  0  0
   -5.6306    1.4041   -1.0949 C   0  0  0  0  0  0  0  0  0  0  0  0
   -4.2872    1.0310   -0.9741 C   0  0  0  0  0  0  0  0  0  0  0  0
   -3.9636   -0.2307   -0.4290 C   0  0  0  0  0  0  0  0  0  0  0  0
    2.9107    1.0215    0.2719 C   0  0  0  0  0  0  0  0  0  0  0  0
    2.9640    1.4776   -1.1912 C   0  0  0  0  0  0  0  0  0  0  0  0
    4.3319    1.4464   -1.6614 O   0  0  0  0  0  0  0  0  0  0  0  0
    4.9562    0.5945   -0.7892 C   0  0  0  0  0  0  0  0  0  0  0  0
    6.2330    0.1040   -0.9730 C   0  0  0  0  0  0  0  0  0  0  0  0
    6.7530   -0.7471    0.0035 C   0  0  0  0  0  0  0  0  0  0  0  0
    5.9931   -1.0775    1.1372 C   0  0  0  0  0  0  0  0  0  0  0  0
    4.7070   -0.5576    1.3090 C   0  0  0  0  0  0  0  0  0  0  0  0
    4.1973    0.2761    0.3268 C   0  0  0  0  0  0  0  0  0  0  0  0
    0.5588    1.9989    0.3784 H   0  0  0  0  0  0  0  0  0  0  0  0
   -1.4868    1.2571    0.9668 H   0  0  0  0  0  0  0  0  0  0  0  0
   -0.7429   -0.1921    1.6566 H   0  0  0  0  0  0  0  0  0  0  0  0
   -1.3409    0.1915   -1.3360 H   0  0  0  0  0  0  0  0  0  0  0  0
   -0.6815   -1.2608   -0.6145 H   0  0  0  0  0  0  0  0  0  0  0  0
   -2.4451   -2.9579    0.7220 H   0  0  0  0  0  0  0  0  0  0  0  0
   -4.9460   -3.0158    0.8169 H   0  0  0  0  0  0  0  0  0  0  0  0
   -7.1541   -1.3720    0.1732 H   0  0  0  0  0  0  0  0  0  0  0  0
   -5.8969    2.3696   -1.5134 H   0  0  0  0  0  0  0  0  0  0  0  0
   -3.5046    1.7085   -1.3017 H   0  0  0  0  0  0  0  0  0  0  0  0
    2.9649    1.8789    0.9534 H   0  0  0  0  0  0  0  0  0  0  0  0
    2.3698    0.8352   -1.8547 H   0  0  0  0  0  0  0  0  0  0  0  0
    2.5841    2.5000   -1.2981 H   0  0  0  0  0  0  0  0  0  0  0  0
    6.8099    0.3698   -1.8514 H   0  0  0  0  0  0  0  0  0  0  0  0
    7.7528   -1.1575   -0.1137 H   0  0  0  0  0  0  0  0  0  0  0  0
    6.4100   -1.7432    1.8894 H   0  0  0  0  0  0  0  0  0  0  0  0
    4.1232   -0.8124    2.1886 H   0  0  0  0  0  0  0  0  0  0  0  0
  1  2  2  0
  2  3  1  0
  3  4  1  0
  4  5  1  0
  5  6  1  0
  6  7  2  0
  7  8  1  0
  8  9  1  0
  9 10  2  0
 10 11  1  0
 11 12  1  0
 11 13  2  0
 13 14  1  0
 14 15  2  0
  2 16  1  0
 16 17  1  0
 17 18  1  0
 18 19  1  0
 19 20  2  0
 20 21  1  0
 21 22  2  0
 22 23  1  0
 23 24  2  0
 15  6  1  0
 24 16  1  0
 15  9  1  0
 24 19  1  0
  3 25  1  0
  4 26  1  0
  4 27  1  0
  5 28  1  0
  5 29  1  0
  7 30  1  0
  8 31  1  0
 10 32  1  0
 13 33  1  0
 14 34  1  0
 16 35  1  0
 17 36  1  0
 17 37  1  0
 20 38  1  0
 21 39  1  0
 22 40  1  0
 23 41  1  0
M  END
$$$$
OCNT-2318171
     RDKit          3D

 46 49  0  0  0  0  0  0  0  0999 V2000
    2.2514    0.3372    2.5676 C   0  0  0  0  0  0  0  0  0  0  0  0
    3.0509   -0.4129    1.5328 C   0  0  0  0  0  0  0  0  0  0  0  0
    4.0810   -1.2088    1.9136 C   0  0  0  0  0  0  0  0  0  0  0  0
    4.8947   -1.9540    0.9638 C   0  0  0  0  0  0  0  0  0  0  0  0
    4.6193   -1.8557   -0.3461 C   0  0  0  0  0  0  0  0  0  0  0  0
    3.5656   -1.0454   -0.7518 N   0  0  0  0  0  0  0  0  0  0  0  0
    3.0993   -0.7939   -2.0165 C   0  0  0  0  0  0  0  0  0  0  0  0
    2.0369    0.0713   -1.8608 C   0  0  0  0  0  0  0  0  0  0  0  0
    1.1482    0.6692   -2.8954 C   0  0  0  0  0  0  0  0  0  0  0  0
   -0.2819    0.1770   -2.7559 C   0  0  0  0  0  0  0  0  0  0  0  0
   -0.8836   -0.3577   -3.6844 O   0  0  0  0  0  0  0  0  0  0  0  0
   -0.8463    0.4150   -1.5183 N   0  0  0  0  0  0  0  0  0  0  0  0
   -2.1223   -0.1691   -1.1349 C   0  0  0  0  0  0  0  0  0  0  0  0
   -3.3178    0.5421   -1.7891 C   0  0  0  0  0  0  0  0  0  0  0  0
   -3.3660    2.0502   -1.5528 C   0  0  0  0  0  0  0  0  0  0  0  0
   -3.0177    2.4491   -0.1281 C   0  0  0  0  0  0  0  0  0  0  0  0
   -3.6955    1.6120    0.8079 O   0  0  0  0  0  0  0  0  0  0  0  0
   -2.9523    0.5379    1.2227 C   0  0  0  0  0  0  0  0  0  0  0  0
   -3.0217    0.2841    2.5954 C   0  0  0  0  0  0  0  0  0  0  0  0
   -2.2930   -0.7609    3.1458 C   0  0  0  0  0  0  0  0  0  0  0  0
   -2.3503   -0.9847    4.4662 F   0  0  0  0  0  0  0  0  0  0  0  0
   -1.4964   -1.5678    2.3490 C   0  0  0  0  0  0  0  0  0  0  0  0
   -1.4501   -1.3376    0.9739 C   0  0  0  0  0  0  0  0  0  0  0  0
   -2.1968   -0.2960    0.3803 C   0  0  0  0  0  0  0  0  0  0  0  0
    1.8419    0.3599   -0.5247 N   0  0  0  0  0  0  0  0  0  0  0  0
    2.7665   -0.3188    0.1255 C   0  0  0  0  0  0  0  0  0  0  0  0
    2.6070    0.1519    3.5867 H   0  0  0  0  0  0  0  0  0  0  0  0
    2.3106    1.4154    2.3830 H   0  0  0  0  0  0  0  0  0  0  0  0
    1.2010    0.0365    2.5234 H   0  0  0  0  0  0  0  0  0  0  0  0
    4.3424   -1.3186    2.9646 H   0  0  0  0  0  0  0  0  0  0  0  0
    5.7061   -2.5713    1.3353 H   0  0  0  0  0  0  0  0  0  0  0  0
    5.1789   -2.3789   -1.1127 H   0  0  0  0  0  0  0  0  0  0  0  0
    3.5453   -1.2436   -2.8924 H   0  0  0  0  0  0  0  0  0  0  0  0
    1.1508    1.7622   -2.8113 H   0  0  0  0  0  0  0  0  0  0  0  0
    1.5053    0.4128   -3.8981 H   0  0  0  0  0  0  0  0  0  0  0  0
   -0.1632    0.5661   -0.7731 H   0  0  0  0  0  0  0  0  0  0  0  0
   -2.1362   -1.1942   -1.5331 H   0  0  0  0  0  0  0  0  0  0  0  0
   -3.3077    0.3717   -2.8728 H   0  0  0  0  0  0  0  0  0  0  0  0
   -4.2509    0.0890   -1.4280 H   0  0  0  0  0  0  0  0  0  0  0  0
   -4.3839    2.3929   -1.7886 H   0  0  0  0  0  0  0  0  0  0  0  0
   -2.6967    2.5689   -2.2486 H   0  0  0  0  0  0  0  0  0  0  0  0
   -1.9328    2.4635    0.0460 H   0  0  0  0  0  0  0  0  0  0  0  0
   -3.3609    3.4766    0.0455 H   0  0  0  0  0  0  0  0  0  0  0  0
   -3.6302    0.9087    3.2403 H   0  0  0  0  0  0  0  0  0  0  0  0
   -0.9205   -2.3706    2.7953 H   0  0  0  0  0  0  0  0  0  0  0  0
   -0.8282   -1.9807    0.3528 H   0  0  0  0  0  0  0  0  0  0  0  0
  1  2  1  0
  2  3  2  0
  3  4  1  0
  4  5  2  0
  5  6  1  0
  6  7  1  0
  7  8  2  0
  8  9  1  0
  9 10  1  0
 10 11  2  0
 10 12  1  0
 12 13  1  0
 13 14  1  0
 14 15  1  0
 15 16  1  0
 16 17  1  0
 17 18  1  0
 18 19  1  0
 19 20  2  0
 20 21  1  0
 20 22  1  0
 22 23  2  0
 23 24  1  0
  8 25  1  0
 25 26  2  0
 26  2  1  0
 26  6  1  0
 24 13  1  0
 24 18  2  0
  1 27  1  0
  1 28  1  0
  1 29  1  0
  3 30  1  0
  4 31  1  0
  5 32  1  0
  7 33  1  0
  9 34  1  0
  9 35  1  0
 12 36  1  0
 13 37  1  0
 14 38  1  0
 14 39  1  0
 15 40  1  0
 15 41  1  0
 16 42  1  0
 16 43  1  0
 19 44  1  0
 22 45  1  0
 23 46  1  0
M  END
$$$$
OCNT-2318183
     RDKit          3D

 43 45  0  0  0  0  0  0  0  0999 V2000
    0.9726   -2.0689   -1.6942 C   0  0  0  0  0  0  0  0  0  0  0  0
    1.9244   -1.2578   -0.8562 C   0  0  0  0  0  0  0  0  0  0  0  0
    3.2883   -1.6071   -0.8770 C   0  0  0  0  0  0  0  0  0  0  0  0
    4.2358   -0.9064   -0.1286 C   0  0  0  0  0  0  0  0  0  0  0  0
    5.5144   -1.3709   -0.2547 O   0  0  0  0  0  0  0  0  0  0  0  0
    6.5492   -0.6783    0.4253 C   0  0  0  0  0  0  0  0  0  0  0  0
    6.9565    0.6573   -0.1750 C   0  0  0  0  0  0  0  0  0  0  0  0
    7.2596    1.6583    0.4565 O   0  0  0  0  0  0  0  0  0  0  0  0
    7.0119    0.6569   -1.5212 O   0  0  0  0  0  0  0  0  0  0  0  0
    3.8147    0.1609    0.6540 C   0  0  0  0  0  0  0  0  0  0  0  0
    2.4601    0.5219    0.6860 C   0  0  0  0  0  0  0  0  0  0  0  0
    1.5023   -0.1718   -0.0613 C   0  0  0  0  0  0  0  0  0  0  0  0
    0.1275    0.1625   -0.0401 N   0  0  0  0  0  0  0  0  0  0  0  0
   -0.4907    1.2241    0.6112 C   0  0  0  0  0  0  0  0  0  0  0  0
    0.0943    2.1010    1.2392 O   0  0  0  0  0  0  0  0  0  0  0  0
   -1.9688    1.2226    0.4678 C   0  0  0  0  0  0  0  0  0  0  0  0
   -2.6935    2.3395    0.6699 N   0  0  0  0  0  0  0  0  0  0  0  0
   -3.9684    1.9678    0.4747 N   0  0  0  0  0  0  0  0  0  0  0  0
   -5.0230    2.9397    0.6347 C   0  0  0  0  0  0  0  0  0  0  0  0
   -4.1042    0.6519    0.1386 C   0  0  0  0  0  0  0  0  0  0  0  0
   -5.4351   -0.0953   -0.1537 C   0  0  0  0  0  0  0  0  0  0  0  0
   -5.6968   -1.4115    0.5260 C   0  0  0  0  0  0  0  0  0  0  0  0
   -5.4348   -1.3701   -0.9517 C   0  0  0  0  0  0  0  0  0  0  0  0
   -2.8304    0.1335    0.1369 C   0  0  0  0  0  0  0  0  0  0  0  0
    0.4811   -1.4319   -2.4359 H   0  0  0  0  0  0  0  0  0  0  0  0
    1.4894   -2.8660   -2.2387 H   0  0  0  0  0  0  0  0  0  0  0  0
    0.2181   -2.5443   -1.0591 H   0  0  0  0  0  0  0  0  0  0  0  0
    3.6274   -2.4417   -1.4885 H   0  0  0  0  0  0  0  0  0  0  0  0
    6.3076   -0.5491    1.4859 H   0  0  0  0  0  0  0  0  0  0  0  0
    7.4397   -1.3160    0.3916 H   0  0  0  0  0  0  0  0  0  0  0  0
    7.2616    1.5739   -1.7573 H   0  0  0  0  0  0  0  0  0  0  0  0
    4.4980    0.7435    1.2646 H   0  0  0  0  0  0  0  0  0  0  0  0
    2.1919    1.3608    1.3206 H   0  0  0  0  0  0  0  0  0  0  0  0
   -0.4728   -0.4061   -0.6159 H   0  0  0  0  0  0  0  0  0  0  0  0
   -5.7218    2.5720    1.3902 H   0  0  0  0  0  0  0  0  0  0  0  0
   -4.5976    3.8938    0.9574 H   0  0  0  0  0  0  0  0  0  0  0  0
   -5.5244    3.0643   -0.3282 H   0  0  0  0  0  0  0  0  0  0  0  0
   -6.2951    0.5524   -0.3006 H   0  0  0  0  0  0  0  0  0  0  0  0
   -4.9323   -1.8326    1.1675 H   0  0  0  0  0  0  0  0  0  0  0  0
   -6.7083   -1.6183    0.8554 H   0  0  0  0  0  0  0  0  0  0  0  0
   -4.4986   -1.7740   -1.3159 H   0  0  0  0  0  0  0  0  0  0  0  0
   -6.2710   -1.5469   -1.6185 H   0  0  0  0  0  0  0  0  0  0  0  0
   -2.5588   -0.8938   -0.0543 H   0  0  0  0  0  0  0  0  0  0  0  0
  1  2  1  0
  2  3  1  0
  3  4  2  0
  4  5  1  0
  5  6  1  0
  6  7  1  0
  7  8  2  0
  7  9  1  0
  4 10  1  0
 10 11  2  0
 11 12  1  0
 12 13  1  0
 13 14  1  0
 14 15  2  0
 14 16  1  0
 16 17  2  0
 17 18  1  0
 18 19  1  0
 18 20  1  0
 20 21  1  0
 21 22  1  0
 22 23  1  0
 20 24  2  0
 12  2  2  0
 24 16  1  0
 23 21  1  0
  1 25  1  0
  1 26  1  0
  1 27  1  0
  3 28  1  0
  6 29  1  0
  6 30  1  0
  9 31  1  0
 10 32  1  0
 11 33  1  0
 13 34  1  0
 19 35  1  0
 19 36  1  0
 19 37  1  0
 21 38  1  0
 22 39  1  0
 22 40  1  0
 23 41  1  0
 23 42  1  0
 24 43  1  0
M  END
$$$$
OCNT-2318185
     RDKit          3D

 51 52  0  0  0  0  0  0  0  0999 V2000
   -7.0256   -1.3097   -0.4030 C   0  0  0  0  0  0  0  0  0  0  0  0
   -5.5517   -1.3434   -0.7598 C   0  0  0  0  0  0  0  0  0  0  0  0
   -4.8473   -0.5227    0.1796 O   0  0  0  0  0  0  0  0  0  0  0  0
   -3.4913   -0.5576    0.0639 C   0  0  0  0  0  0  0  0  0  0  0  0
   -2.8948   -1.2516   -0.7575 O   0  0  0  0  0  0  0  0  0  0  0  0
   -2.7930    0.3240    1.0099 C   0  0  0  0  0  0  0  0  0  0  0  0
   -1.4054    0.4172    1.0100 C   0  0  0  0  0  0  0  0  0  0  0  0
   -0.5390   -0.2934    0.1878 N   0  0  0  0  0  0  0  0  0  0  0  0
    0.8458   -0.2086    0.1361 C   0  0  0  0  0  0  0  0  0  0  0  0
    1.5642    0.5652    0.7681 O   0  0  0  0  0  0  0  0  0  0  0  0
    1.4275   -1.2566   -0.8414 C   0  0  0  0  0  0  0  0  0  0  0  0
    2.8794   -1.0859   -0.9847 N   0  0  0  0  0  0  0  0  0  0  0  0
    3.5542   -2.3162   -1.4087 C   0  0  0  0  0  0  0  0  0  0  0  0
    5.0198   -2.0835   -1.8053 C   0  0  0  0  0  0  0  0  0  0  0  0
    5.5811   -0.7920   -1.2078 C   0  0  0  0  0  0  0  0  0  0  0  0
    4.7372    0.4189   -1.6536 C   0  0  0  0  0  0  0  0  0  0  0  0
    5.2457    0.8528   -2.9312 O   0  0  0  0  0  0  0  0  0  0  0  0
    4.8927    1.5801   -0.6439 C   0  0  0  0  0  0  0  0  0  0  0  0
    4.2929    1.4520    0.5734 N   0  0  0  0  0  0  0  0  0  0  0  0
    5.5760    2.5694   -0.9105 O   0  0  0  0  0  0  0  0  0  0  0  0
    3.2483    0.0445   -1.8517 C   0  0  0  0  0  0  0  0  0  0  0  0
   -0.8274    1.5054    2.1657 S   0  0  0  0  0  0  0  0  0  0  0  0
   -2.3908    1.8900    2.7166 C   0  0  0  0  0  0  0  0  0  0  0  0
   -2.5487    2.8854    3.8213 C   0  0  0  0  0  0  0  0  0  0  0  0
   -3.3737    1.1883    2.0328 C   0  0  0  0  0  0  0  0  0  0  0  0
   -4.8391    1.3178    2.3207 C   0  0  0  0  0  0  0  0  0  0  0  0
   -7.1826   -1.7299    0.5940 H   0  0  0  0  0  0  0  0  0  0  0  0
   -7.6155   -1.8841   -1.1225 H   0  0  0  0  0  0  0  0  0  0  0  0
   -7.3990   -0.2812   -0.3749 H   0  0  0  0  0  0  0  0  0  0  0  0
   -5.1875   -2.3758   -0.7106 H   0  0  0  0  0  0  0  0  0  0  0  0
   -5.4049   -0.9457   -1.7687 H   0  0  0  0  0  0  0  0  0  0  0  0
   -0.9989   -0.9414   -0.4512 H   0  0  0  0  0  0  0  0  0  0  0  0
    0.9166   -1.1957   -1.8103 H   0  0  0  0  0  0  0  0  0  0  0  0
    1.2069   -2.2354   -0.3958 H   0  0  0  0  0  0  0  0  0  0  0  0
    3.5257   -3.0316   -0.5791 H   0  0  0  0  0  0  0  0  0  0  0  0
    3.0350   -2.7847   -2.2531 H   0  0  0  0  0  0  0  0  0  0  0  0
    5.6286   -2.9361   -1.4859 H   0  0  0  0  0  0  0  0  0  0  0  0
    5.0950   -2.0315   -2.8969 H   0  0  0  0  0  0  0  0  0  0  0  0
    5.5931   -0.8871   -0.1144 H   0  0  0  0  0  0  0  0  0  0  0  0
    6.6235   -0.6699   -1.5279 H   0  0  0  0  0  0  0  0  0  0  0  0
    5.8650    1.5832   -2.7247 H   0  0  0  0  0  0  0  0  0  0  0  0
    4.2979    2.2780    1.1586 H   0  0  0  0  0  0  0  0  0  0  0  0
    3.4471    0.8829    0.6584 H   0  0  0  0  0  0  0  0  0  0  0  0
    3.0493   -0.2113   -2.9017 H   0  0  0  0  0  0  0  0  0  0  0  0
    2.6253    0.9226   -1.6468 H   0  0  0  0  0  0  0  0  0  0  0  0
   -3.2073    3.7006    3.5046 H   0  0  0  0  0  0  0  0  0  0  0  0
   -2.9871    2.4042    4.7047 H   0  0  0  0  0  0  0  0  0  0  0  0
   -1.5967    3.3309    4.1222 H   0  0  0  0  0  0  0  0  0  0  0  0
   -5.3639    1.7402    1.4563 H   0  0  0  0  0  0  0  0  0  0  0  0
   -5.0328    1.9724    3.1757 H   0  0  0  0  0  0  0  0  0  0  0  0
   -5.2697    0.3419    2.5634 H   0  0  0  0  0  0  0  0  0  0  0  0
  1  2  1  0
  2  3  1  0
  3  4  1  0
  4  5  2  0
  4  6  1  0
  6  7  2  0
  7  8  1  0
  8  9  1  0
  9 10  2  0
  9 11  1  0
 11 12  1  0
 12 13  1  0
 13 14  1  0
 14 15  1  0
 15 16  1  0
 16 17  1  0
 16 18  1  0
 18 19  1  0
 18 20  2  0
 16 21  1  0
  7 22  1  0
 22 23  1  0
 23 24  1  0
 23 25  2  0
 25 26  1  0
 25  6  1  0
 21 12  1  0
  1 27  1  0
  1 28  1  0
  1 29  1  0
  2 30  1  0
  2 31  1  0
  8 32  1  0
 11 33  1  0
 11 34  1  0
 13 35  1  0
 13 36  1  0
 14 37  1  0
 14 38  1  0
 15 39  1  0
 15 40  1  0
 17 41  1  0
 19 42  1  0
 19 43  1  0
 21 44  1  0
 21 45  1  0
 24 46  1  0
 24 47  1  0
 24 48  1  0
 26 49  1  0
 26 50  1  0
 26 51  1  0
M  END
$$$$
OCNT-2318216
     RDKit          3D

 39 42  0  0  0  0  0  0  0  0999 V2000
   -0.5187    1.8993   -1.1760 O   0  0  0  0  0  0  0  0  0  0  0  0
   -0.1518    1.0142   -0.4043 C   0  0  0  0  0  0  0  0  0  0  0  0
   -1.0809    0.3379    0.3621 N   0  0  0  0  0  0  0  0  0  0  0  0
   -2.5159    0.5756    0.2362 C   0  0  0  0  0  0  0  0  0  0  0  0
   -3.2509    0.0547    1.4981 C   0  0  0  0  0  0  0  0  0  0  0  0
   -4.7638    0.3518    1.4654 C   0  0  0  0  0  0  0  0  0  0  0  0
   -5.3288    0.0301    0.1332 C   0  0  0  0  0  0  0  0  0  0  0  0
   -4.5557   -0.1310   -0.9928 C   0  0  0  0  0  0  0  0  0  0  0  0
   -3.0767   -0.0574   -1.0704 C   0  0  0  0  0  0  0  0  0  0  0  0
   -5.4109   -0.3882   -2.0200 N   0  0  0  0  0  0  0  0  0  0  0  0
   -6.6991   -0.4174   -1.6280 N   0  0  0  0  0  0  0  0  0  0  0  0
   -6.6466   -0.1550   -0.3174 C   0  0  0  0  0  0  0  0  0  0  0  0
    1.2404    0.6053   -0.2414 C   0  0  0  0  0  0  0  0  0  0  0  0
    1.8394   -0.3720    0.5336 C   0  0  0  0  0  0  0  0  0  0  0  0
    1.0290   -1.4614    1.5970 Cl  0  0  0  0  0  0  0  0  0  0  0  0
    3.2752   -0.4277    0.3835 C   0  0  0  0  0  0  0  0  0  0  0  0
    4.2506   -1.2645    0.9874 C   0  0  0  0  0  0  0  0  0  0  0  0
    5.6083   -1.1264    0.6763 C   0  0  0  0  0  0  0  0  0  0  0  0
    6.0362   -0.1667   -0.2412 C   0  0  0  0  0  0  0  0  0  0  0  0
    7.5045   -0.0054   -0.5573 C   0  0  0  0  0  0  0  0  0  0  0  0
    8.1104    0.9019    0.2561 F   0  0  0  0  0  0  0  0  0  0  0  0
    7.7324    0.4197   -1.8309 F   0  0  0  0  0  0  0  0  0  0  0  0
    8.2102   -1.1625   -0.4203 F   0  0  0  0  0  0  0  0  0  0  0  0
    5.0887    0.6772   -0.8427 C   0  0  0  0  0  0  0  0  0  0  0  0
    3.7226    0.5313   -0.5239 C   0  0  0  0  0  0  0  0  0  0  0  0
    2.4225    1.4530   -1.1544 S   0  0  0  0  0  0  0  0  0  0  0  0
   -0.7752   -0.4653    0.8967 H   0  0  0  0  0  0  0  0  0  0  0  0
   -2.6644    1.6631    0.1830 H   0  0  0  0  0  0  0  0  0  0  0  0
   -2.8148    0.4990    2.4013 H   0  0  0  0  0  0  0  0  0  0  0  0
   -3.0956   -1.0300    1.5809 H   0  0  0  0  0  0  0  0  0  0  0  0
   -5.2694   -0.2225    2.2494 H   0  0  0  0  0  0  0  0  0  0  0  0
   -4.9294    1.4152    1.6756 H   0  0  0  0  0  0  0  0  0  0  0  0
   -2.6742   -1.0704   -1.1962 H   0  0  0  0  0  0  0  0  0  0  0  0
   -2.7610    0.5278   -1.9413 H   0  0  0  0  0  0  0  0  0  0  0  0
   -5.1991   -0.5556   -2.9985 H   0  0  0  0  0  0  0  0  0  0  0  0
   -7.5701   -0.1097    0.2455 H   0  0  0  0  0  0  0  0  0  0  0  0
    3.9485   -2.0254    1.7049 H   0  0  0  0  0  0  0  0  0  0  0  0
    6.3309   -1.7827    1.1612 H   0  0  0  0  0  0  0  0  0  0  0  0
    5.4029    1.4400   -1.5540 H   0  0  0  0  0  0  0  0  0  0  0  0
  1  2  2  0
  2  3  1  0
  3  4  1  0
  4  5  1  0
  5  6  1  0
  6  7  1  0
  7  8  2  0
  8  9  1  0
  8 10  1  0
 10 11  1  0
 11 12  2  0
  2 13  1  0
 13 14  2  0
 14 15  1  0
 14 16  1  0
 16 17  2  0
 17 18  1  0
 18 19  2  0
 19 20  1  0
 20 21  1  0
 20 22  1  0
 20 23  1  0
 19 24  1  0
 24 25  2  0
 25 26  1  0
  9  4  1  0
 26 13  1  0
 12  7  1  0
 25 16  1  0
  3 27  1  0
  4 28  1  0
  5 29  1  0
  5 30  1  0
  6 31  1  0
  6 32  1  0
  9 33  1  0
  9 34  1  0
 10 35  1  0
 12 36  1  0
 17 37  1  0
 18 38  1  0
 24 39  1  0
M  END
$$$$
OCNT-2318230
     RDKit          3D

  0  0  0  0  0  0  0  0  0  0999 V3000
M  V30 BEGIN CTAB
M  V30 COUNTS 33 36 0 0 0
M  V30 BEGIN ATOM
M  V30 1 F 6.936866 1.906926 -0.546069 0
M  V30 2 C 5.733833 1.319891 -0.587726 0
M  V30 3 C 5.647847 -0.067086 -0.562557 0
M  V30 4 C 4.393621 -0.683224 -0.603993 0
M  V30 5 C 3.211777 0.077117 -0.663546 0
M  V30 6 C 1.855614 -0.586126 -0.725248 0 CFG=1
M  V30 7 C 1.430038 -1.549194 0.358173 0
M  V30 8 C 0.779287 -0.197204 0.270489 0 CFG=2
M  V30 9 C -0.683413 -0.076317 -0.237115 0
M  V30 10 N -1.633429 -0.932576 0.066982 0
M  V30 11 C -2.724062 -0.406468 -0.580265 0
M  V30 12 C -4.063681 -1.034930 -0.542970 0
M  V30 13 N -4.908221 -0.395028 0.446168 0
M  V30 14 C -5.381091 0.883319 0.440809 0
M  V30 15 N -6.185870 1.059468 1.463591 0
M  V30 16 C -6.188522 -0.165049 2.067122 0
M  V30 17 N -5.440022 -1.096676 1.470363 0
M  V30 18 N -2.472362 0.705304 -1.286140 0
M  V30 19 O -1.115293 0.934096 -1.049087 0
M  V30 20 C 3.351612 1.476347 -0.697564 0
M  V30 21 F 2.252466 2.243437 -0.766940 0
M  V30 22 C 4.592955 2.102798 -0.657017 0
M  V30 23 H 6.555769 -0.661060 -0.513009 0
M  V30 24 H 4.336445 -1.770214 -0.590481 0
M  V30 25 H 1.517114 -0.828953 -1.731904 0
M  V30 26 H 0.851906 -2.419614 0.066144 0
M  V30 27 H 2.088578 -1.727372 1.200566 0
M  V30 28 H 1.026925 0.518574 1.046031 0
M  V30 29 H -3.985486 -2.098361 -0.291282 0
M  V30 30 H -4.573985 -0.950988 -1.508855 0
M  V30 31 H -5.115152 1.621462 -0.303853 0
M  V30 32 H -6.757509 -0.385858 2.961348 0
M  V30 33 H 4.665443 3.183557 -0.680266 0
M  V30 END ATOM
M  V30 BEGIN BOND
M  V30 1 1 1 2
M  V30 2 1 2 3
M  V30 3 2 3 4
M  V30 4 1 4 5
M  V30 5 1 5 6
M  V30 6 1 6 7
M  V30 7 1 7 8
M  V30 8 1 8 9
M  V30 9 2 9 10
M  V30 10 1 10 11
M  V30 11 1 11 12
M  V30 12 1 12 13
M  V30 13 1 13 14
M  V30 14 2 14 15
M  V30 15 1 15 16
M  V30 16 2 16 17
M  V30 17 2 11 18
M  V30 18 1 18 19
M  V30 19 2 5 20
M  V30 20 1 20 21
M  V30 21 1 20 22
M  V30 22 2 22 2
M  V30 23 1 8 6
M  V30 24 1 19 9
M  V30 25 1 17 13
M  V30 26 1 3 23
M  V30 27 1 4 24
M  V30 28 1 6 25 CFG=3
M  V30 29 1 7 26
M  V30 30 1 7 27
M  V30 31 1 8 28 CFG=1
M  V30 32 1 12 29
M  V30 33 1 12 30
M  V30 34 1 14 31
M  V30 35 1 16 32
M  V30 36 1 22 33
M  V30 END BOND
M  V30 BEGIN COLLECTION
M  V30 MDLV30/STERAC1 ATOMS=(2 6 8)
M  V30 END COLLECTION
M  V30 END CTAB
M  END
>  <_CXSMILES_Data>  (1283) 
|&1:5,7|

$$$$
OCNT-2318232
     RDKit          3D

 42 44  0  0  0  0  0  0  0  0999 V2000
    7.7281    1.2756   -0.7452 C   0  0  0  0  0  0  0  0  0  0  0  0
    6.4620    1.8440   -0.1299 C   0  0  0  0  0  0  0  0  0  0  0  0
    5.4677    0.8244    0.1160 N   0  0  0  0  0  0  0  0  0  0  0  0
    4.3989    0.4912   -0.6576 C   0  0  0  0  0  0  0  0  0  0  0  0
    3.7879   -0.5283    0.0426 C   0  0  0  0  0  0  0  0  0  0  0  0
    2.5548   -1.3045   -0.2856 C   0  0  0  0  0  0  0  0  0  0  0  0
    1.3104   -0.5313   -0.2131 N   0  0  0  0  0  0  0  0  0  0  0  0
    0.0824   -1.1793   -0.3974 C   0  0  0  0  0  0  0  0  0  0  0  0
   -0.0626   -2.3846   -1.0912 C   0  0  0  0  0  0  0  0  0  0  0  0
   -1.3235   -2.9478   -1.2991 C   0  0  0  0  0  0  0  0  0  0  0  0
   -2.4653   -2.2916   -0.8448 C   0  0  0  0  0  0  0  0  0  0  0  0
   -2.3672   -1.0570   -0.1938 C   0  0  0  0  0  0  0  0  0  0  0  0
   -3.5951   -0.3813    0.2424 C   0  0  0  0  0  0  0  0  0  0  0  0
   -4.8035   -0.9153    0.2769 N   0  0  0  0  0  0  0  0  0  0  0  0
   -5.6569    0.0574    0.7398 C   0  0  0  0  0  0  0  0  0  0  0  0
   -7.0999   -0.2255    0.9063 C   0  0  0  0  0  0  0  0  0  0  0  0
   -4.9629    1.2238    0.9840 C   0  0  0  0  0  0  0  0  0  0  0  0
   -5.3834    2.5520    1.4789 C   0  0  0  0  0  0  0  0  0  0  0  0
   -3.6622    0.9274    0.6630 N   0  0  0  0  0  0  0  0  0  0  0  0
   -1.0874   -0.5138    0.0135 C   0  0  0  0  0  0  0  0  0  0  0  0
    4.4921   -0.7609    1.1968 N   0  0  0  0  0  0  0  0  0  0  0  0
    5.5213    0.0751    1.2297 N   0  0  0  0  0  0  0  0  0  0  0  0
    8.4546    2.0738   -0.9258 H   0  0  0  0  0  0  0  0  0  0  0  0
    8.1913    0.5352   -0.0844 H   0  0  0  0  0  0  0  0  0  0  0  0
    7.5154    0.7834   -1.7002 H   0  0  0  0  0  0  0  0  0  0  0  0
    6.6798    2.3344    0.8252 H   0  0  0  0  0  0  0  0  0  0  0  0
    6.0167    2.5907   -0.7962 H   0  0  0  0  0  0  0  0  0  0  0  0
    4.1643    0.9787   -1.5920 H   0  0  0  0  0  0  0  0  0  0  0  0
    2.6825   -1.7018   -1.3002 H   0  0  0  0  0  0  0  0  0  0  0  0
    2.4928   -2.1604    0.3988 H   0  0  0  0  0  0  0  0  0  0  0  0
    1.3036    0.0528    0.6206 H   0  0  0  0  0  0  0  0  0  0  0  0
    0.7972   -2.9182   -1.4834 H   0  0  0  0  0  0  0  0  0  0  0  0
   -1.4176   -3.8951   -1.8234 H   0  0  0  0  0  0  0  0  0  0  0  0
   -3.4435   -2.7397   -1.0139 H   0  0  0  0  0  0  0  0  0  0  0  0
   -7.4179   -0.0103    1.9311 H   0  0  0  0  0  0  0  0  0  0  0  0
   -7.6913    0.3902    0.2218 H   0  0  0  0  0  0  0  0  0  0  0  0
   -7.3204   -1.2767    0.6961 H   0  0  0  0  0  0  0  0  0  0  0  0
   -5.1556    2.6502    2.5449 H   0  0  0  0  0  0  0  0  0  0  0  0
   -6.4595    2.7001    1.3448 H   0  0  0  0  0  0  0  0  0  0  0  0
   -4.8659    3.3527    0.9407 H   0  0  0  0  0  0  0  0  0  0  0  0
   -2.8837    1.5667    0.7077 H   0  0  0  0  0  0  0  0  0  0  0  0
   -0.9785    0.4436    0.5136 H   0  0  0  0  0  0  0  0  0  0  0  0
  1  2  1  0
  2  3  1  0
  3  4  1  0
  4  5  2  0
  5  6  1  0
  6  7  1  0
  7  8  1  0
  8  9  2  0
  9 10  1  0
 10 11  2  0
 11 12  1  0
 12 13  1  0
 13 14  2  0
 14 15  1  0
 15 16  1  0
 15 17  2  0
 17 18  1  0
 17 19  1  0
 12 20  2  0
  5 21  1  0
 21 22  2  0
 22  3  1  0
 20  8  1  0
 19 13  1  0
  1 23  1  0
  1 24  1  0
  1 25  1  0
  2 26  1  0
  2 27  1  0
  4 28  1  0
  6 29  1  0
  6 30  1  0
  7 31  1  0
  9 32  1  0
 10 33  1  0
 11 34  1  0
 16 35  1  0
 16 36  1  0
 16 37  1  0
 18 38  1  0
 18 39  1  0
 18 40  1  0
 19 41  1  0
 20 42  1  0
M  END
$$$$
OCNT-2318236
     RDKit          3D

 38 40  0  0  0  0  0  0  0  0999 V2000
   -2.7826    1.1461    2.3768 O   0  0  0  0  0  0  0  0  0  0  0  0
   -1.6274    0.4346    1.9240 C   0  0  0  0  0  0  0  0  0  0  0  0
   -1.7081    0.1020    0.4115 C   0  0  0  0  0  0  0  0  0  0  0  0
   -0.5727   -0.7492   -0.0264 N   0  0  0  0  0  0  0  0  0  0  0  0
    0.7492   -0.2745    0.0379 C   0  0  0  0  0  0  0  0  0  0  0  0
    0.9730    0.9732    0.4723 N   0  0  0  0  0  0  0  0  0  0  0  0
    2.2442    1.4183    0.5125 C   0  0  0  0  0  0  0  0  0  0  0  0
    2.4899    2.8361    1.0002 C   0  0  0  0  0  0  0  0  0  0  0  0
    2.0150    3.0684    2.2612 F   0  0  0  0  0  0  0  0  0  0  0  0
    1.9178    3.7917    0.2080 F   0  0  0  0  0  0  0  0  0  0  0  0
    3.3127    0.6828    0.1440 N   0  0  0  0  0  0  0  0  0  0  0  0
    3.0879   -0.5675   -0.2689 C   0  0  0  0  0  0  0  0  0  0  0  0
    4.1757   -1.3492   -0.6400 C   0  0  0  0  0  0  0  0  0  0  0  0
    4.0257   -2.6700   -1.0713 C   0  0  0  0  0  0  0  0  0  0  0  0
    2.7596   -3.2340   -1.1318 C   0  0  0  0  0  0  0  0  0  0  0  0
    1.6540   -2.4689   -0.7674 C   0  0  0  0  0  0  0  0  0  0  0  0
    1.8048   -1.1240   -0.3404 C   0  0  0  0  0  0  0  0  0  0  0  0
   -1.8582    1.3591   -0.4858 C   0  0  0  0  0  0  0  0  0  0  0  0
   -3.2372    1.2727   -1.1313 C   0  0  0  0  0  0  0  0  0  0  0  0
   -3.5042   -0.2161   -1.2179 C   0  0  0  0  0  0  0  0  0  0  0  0
   -3.0032   -0.7180    0.1279 C   0  0  0  0  0  0  0  0  0  0  0  0
   -2.6057    1.3957    3.3003 H   0  0  0  0  0  0  0  0  0  0  0  0
   -0.7606    1.0555    2.1627 H   0  0  0  0  0  0  0  0  0  0  0  0
   -1.5490   -0.4876    2.5112 H   0  0  0  0  0  0  0  0  0  0  0  0
   -0.7310   -1.1038   -0.9670 H   0  0  0  0  0  0  0  0  0  0  0  0
    3.5652    3.0381    1.0211 H   0  0  0  0  0  0  0  0  0  0  0  0
    5.1742   -0.9198   -0.5892 H   0  0  0  0  0  0  0  0  0  0  0  0
    4.8998   -3.2527   -1.3507 H   0  0  0  0  0  0  0  0  0  0  0  0
    2.6313   -4.2639   -1.4550 H   0  0  0  0  0  0  0  0  0  0  0  0
    0.6679   -2.9270   -0.8005 H   0  0  0  0  0  0  0  0  0  0  0  0
   -1.1050    1.3770   -1.2830 H   0  0  0  0  0  0  0  0  0  0  0  0
   -1.7519    2.2941    0.0749 H   0  0  0  0  0  0  0  0  0  0  0  0
   -3.9830    1.7555   -0.4886 H   0  0  0  0  0  0  0  0  0  0  0  0
   -3.2673    1.7599   -2.1101 H   0  0  0  0  0  0  0  0  0  0  0  0
   -4.5627   -0.4408   -1.3763 H   0  0  0  0  0  0  0  0  0  0  0  0
   -2.9293   -0.6651   -2.0361 H   0  0  0  0  0  0  0  0  0  0  0  0
   -3.7772   -0.5285    0.8810 H   0  0  0  0  0  0  0  0  0  0  0  0
   -2.8317   -1.8002    0.1103 H   0  0  0  0  0  0  0  0  0  0  0  0
  1  2  1  0
  2  3  1  0
  3  4  1  0
  4  5  1  0
  5  6  1  0
  6  7  2  0
  7  8  1  0
  8  9  1  0
  8 10  1  0
  7 11  1  0
 11 12  2  0
 12 13  1  0
 13 14  2  0
 14 15  1  0
 15 16  2  0
 16 17  1  0
  3 18  1  0
 18 19  1  0
 19 20  1  0
 20 21  1  0
 21  3  1  0
 17  5  2  0
 17 12  1  0
  1 22  1  0
  2 23  1  0
  2 24  1  0
  4 25  1  0
  8 26  1  0
 13 27  1  0
 14 28  1  0
 15 29  1  0
 16 30  1  0
 18 31  1  0
 18 32  1  0
 19 33  1  0
 19 34  1  0
 20 35  1  0
 20 36  1  0
 21 37  1  0
 21 38  1  0
M  END
$$$$
OCNT-2318243
     RDKit          3D

 35 38  0  0  0  0  0  0  0  0999 V2000
   -1.6298    2.7057    0.9836 O   0  0  0  0  0  0  0  0  0  0  0  0
   -1.1334    1.6444    0.6027 C   0  0  0  0  0  0  0  0  0  0  0  0
    0.3353    1.5413    0.5505 C   0  0  0  0  0  0  0  0  0  0  0  0
    1.0585    0.4740    0.1650 N   0  0  0  0  0  0  0  0  0  0  0  0
    2.3428    0.9053    0.3039 N   0  0  0  0  0  0  0  0  0  0  0  0
    3.4522    0.0744   -0.0021 C   0  0  0  0  0  0  0  0  0  0  0  0
    4.7584    0.5601    0.1558 C   0  0  0  0  0  0  0  0  0  0  0  0
    5.8478   -0.2596   -0.1459 C   0  0  0  0  0  0  0  0  0  0  0  0
    5.6394   -1.5603   -0.6040 C   0  0  0  0  0  0  0  0  0  0  0  0
    4.3421   -2.0474   -0.7625 C   0  0  0  0  0  0  0  0  0  0  0  0
    3.2468   -1.2344   -0.4631 C   0  0  0  0  0  0  0  0  0  0  0  0
    2.4953    2.1770    0.7523 N   0  0  0  0  0  0  0  0  0  0  0  0
    1.2313    2.5715    0.9055 C   0  0  0  0  0  0  0  0  0  0  0  0
   -1.9093    0.5508    0.2239 N   0  0  0  0  0  0  0  0  0  0  0  0
   -1.4380   -0.7662   -0.2473 C   0  0  0  0  0  0  0  0  0  0  0  0
   -2.6725   -1.6313   -0.5402 C   0  0  0  0  0  0  0  0  0  0  0  0
   -3.7916   -0.7057   -0.2007 C   0  0  0  0  0  0  0  0  0  0  0  0
   -5.1500   -0.9595   -0.2760 C   0  0  0  0  0  0  0  0  0  0  0  0
   -5.9985    0.0711    0.0979 C   0  0  0  0  0  0  0  0  0  0  0  0
   -5.5779    1.2887    0.5243 N   0  0  0  0  0  0  0  0  0  0  0  0
   -4.2370    1.4989    0.5844 C   0  0  0  0  0  0  0  0  0  0  0  0
   -3.3197    0.5293    0.2314 C   0  0  0  0  0  0  0  0  0  0  0  0
    4.9428    1.5721    0.5120 H   0  0  0  0  0  0  0  0  0  0  0  0
    6.8602    0.1178   -0.0232 H   0  0  0  0  0  0  0  0  0  0  0  0
    6.4903   -2.1955   -0.8379 H   0  0  0  0  0  0  0  0  0  0  0  0
    4.1841   -3.0620   -1.1199 H   0  0  0  0  0  0  0  0  0  0  0  0
    2.2439   -1.6343   -0.5939 H   0  0  0  0  0  0  0  0  0  0  0  0
    1.0100    3.5695    1.2611 H   0  0  0  0  0  0  0  0  0  0  0  0
   -0.8211   -1.2297    0.5303 H   0  0  0  0  0  0  0  0  0  0  0  0
   -0.8392   -0.6333   -1.1549 H   0  0  0  0  0  0  0  0  0  0  0  0
   -2.7054   -1.9272   -1.5933 H   0  0  0  0  0  0  0  0  0  0  0  0
   -2.6874   -2.5239    0.0928 H   0  0  0  0  0  0  0  0  0  0  0  0
   -5.5408   -1.9127   -0.6092 H   0  0  0  0  0  0  0  0  0  0  0  0
   -7.0776   -0.0541    0.0651 H   0  0  0  0  0  0  0  0  0  0  0  0
   -3.9520    2.4854    0.9305 H   0  0  0  0  0  0  0  0  0  0  0  0
  1  2  2  0
  2  3  1  0
  3  4  2  0
  4  5  1  0
  5  6  1  0
  6  7  2  0
  7  8  1  0
  8  9  2  0
  9 10  1  0
 10 11  2  0
  5 12  1  0
 12 13  2  0
  2 14  1  0
 14 15  1  0
 15 16  1  0
 16 17  1  0
 17 18  2  0
 18 19  1  0
 19 20  2  0
 20 21  1  0
 21 22  2  0
 13  3  1  0
 22 14  1  0
 11  6  1  0
 22 17  1  0
  7 23  1  0
  8 24  1  0
  9 25  1  0
 10 26  1  0
 11 27  1  0
 13 28  1  0
 15 29  1  0
 15 30  1  0
 16 31  1  0
 16 32  1  0
 18 33  1  0
 19 34  1  0
 21 35  1  0
M  END
$$$$
OCNT-2318257
     RDKit          3D

 47 51  0  0  0  0  0  0  0  0999 V2000
    8.1868   -1.2928    0.1380 C   0  0  0  0  0  0  0  0  0  0  0  0
    7.5198   -0.4973   -0.9727 C   0  0  0  0  0  0  0  0  0  0  0  0
    6.3961    0.3454   -0.4658 C   0  0  0  0  0  0  0  0  0  0  0  0
    6.4600    1.6783   -0.1014 C   0  0  0  0  0  0  0  0  0  0  0  0
    4.9201    2.2197    0.4240 S   0  0  0  0  0  0  0  0  0  0  0  0
    4.2913    0.6595    0.1327 C   0  0  0  0  0  0  0  0  0  0  0  0
    2.9347    0.4057    0.3889 N   0  0  0  0  0  0  0  0  0  0  0  0
    1.9372    1.2337    0.8615 C   0  0  0  0  0  0  0  0  0  0  0  0
    0.7673    0.4992    0.9200 C   0  0  0  0  0  0  0  0  0  0  0  0
   -0.5127    0.9991    1.3969 C   0  0  0  0  0  0  0  0  0  0  0  0
   -0.5408    1.8555    2.2798 O   0  0  0  0  0  0  0  0  0  0  0  0
   -1.6855    0.4914    0.8360 N   0  0  0  0  0  0  0  0  0  0  0  0
   -2.9390    0.9275    1.4593 C   0  0  0  0  0  0  0  0  0  0  0  0
   -4.1416    0.1000    1.0726 C   0  0  0  0  0  0  0  0  0  0  0  0
   -5.1600   -0.1844    1.9926 C   0  0  0  0  0  0  0  0  0  0  0  0
   -6.2660   -0.9350    1.5986 C   0  0  0  0  0  0  0  0  0  0  0  0
   -6.3464   -1.3904    0.2878 C   0  0  0  0  0  0  0  0  0  0  0  0
   -7.4067   -2.1349   -0.1398 O   0  0  0  0  0  0  0  0  0  0  0  0
   -5.3454   -1.1018   -0.6363 C   0  0  0  0  0  0  0  0  0  0  0  0
   -4.2315   -0.3380   -0.2644 C   0  0  0  0  0  0  0  0  0  0  0  0
   -3.0763    0.0301   -1.1699 C   0  0  0  0  0  0  0  0  0  0  0  0
   -3.2522    1.2461   -2.0648 C   0  0  0  0  0  0  0  0  0  0  0  0
   -3.1420   -0.1190   -2.6761 C   0  0  0  0  0  0  0  0  0  0  0  0
   -1.7330   -0.1520   -0.4859 C   0  0  0  0  0  0  0  0  0  0  0  0
    1.1689   -0.7851    0.5076 C   0  0  0  0  0  0  0  0  0  0  0  0
    2.4522   -0.8453    0.1529 N   0  0  0  0  0  0  0  0  0  0  0  0
    5.1437   -0.2318   -0.3302 N   0  0  0  0  0  0  0  0  0  0  0  0
    9.0011   -1.9018   -0.2669 H   0  0  0  0  0  0  0  0  0  0  0  0
    8.6049   -0.6298    0.9031 H   0  0  0  0  0  0  0  0  0  0  0  0
    7.4721   -1.9622    0.6289 H   0  0  0  0  0  0  0  0  0  0  0  0
    8.2664    0.1370   -1.4651 H   0  0  0  0  0  0  0  0  0  0  0  0
    7.1387   -1.1866   -1.7355 H   0  0  0  0  0  0  0  0  0  0  0  0
    7.3146    2.3395   -0.1171 H   0  0  0  0  0  0  0  0  0  0  0  0
    2.1268    2.2656    1.1207 H   0  0  0  0  0  0  0  0  0  0  0  0
   -3.1136    1.9706    1.1665 H   0  0  0  0  0  0  0  0  0  0  0  0
   -2.8081    0.9074    2.5482 H   0  0  0  0  0  0  0  0  0  0  0  0
   -5.0921    0.1736    3.0173 H   0  0  0  0  0  0  0  0  0  0  0  0
   -7.0458   -1.1540    2.3210 H   0  0  0  0  0  0  0  0  0  0  0  0
   -8.0185   -2.2599    0.6040 H   0  0  0  0  0  0  0  0  0  0  0  0
   -5.4443   -1.4813   -1.6484 H   0  0  0  0  0  0  0  0  0  0  0  0
   -4.2206    1.7350   -2.0921 H   0  0  0  0  0  0  0  0  0  0  0  0
   -2.4185    1.9288   -2.1851 H   0  0  0  0  0  0  0  0  0  0  0  0
   -4.0292   -0.5247   -3.1471 H   0  0  0  0  0  0  0  0  0  0  0  0
   -2.2307   -0.3606   -3.2133 H   0  0  0  0  0  0  0  0  0  0  0  0
   -0.9232    0.2366   -1.1132 H   0  0  0  0  0  0  0  0  0  0  0  0
   -1.5614   -1.2235   -0.3316 H   0  0  0  0  0  0  0  0  0  0  0  0
    0.5824   -1.6934    0.4548 H   0  0  0  0  0  0  0  0  0  0  0  0
  1  2  1  0
  2  3  1  0
  3  4  2  0
  4  5  1  0
  5  6  1  0
  6  7  1  0
  7  8  1  0
  8  9  2  0
  9 10  1  0
 10 11  2  0
 10 12  1  0
 12 13  1  0
 13 14  1  0
 14 15  1  0
 15 16  2  0
 16 17  1  0
 17 18  1  0
 17 19  2  0
 19 20  1  0
 20 21  1  0
 21 22  1  0
 22 23  1  0
 21 24  1  0
  9 25  1  0
 25 26  2  0
  6 27  2  0
 27  3  1  0
 26  7  1  0
 24 12  1  0
 20 14  2  0
 23 21  1  0
  1 28  1  0
  1 29  1  0
  1 30  1  0
  2 31  1  0
  2 32  1  0
  4 33  1  0
  8 34  1  0
 13 35  1  0
 13 36  1  0
 15 37  1  0
 16 38  1  0
 18 39  1  0
 19 40  1  0
 22 41  1  0
 22 42  1  0
 23 43  1  0
 23 44  1  0
 24 45  1  0
 24 46  1  0
 25 47  1  0
M  END
$$$$
OCNT-2318269
     RDKit          3D

 41 44  0  0  0  0  0  0  0  0999 V2000
    1.4321   -2.4063   -0.5595 O   0  0  0  0  0  0  0  0  0  0  0  0
    0.7620   -1.3767   -0.6622 C   0  0  0  0  0  0  0  0  0  0  0  0
    1.2763   -0.1093   -0.5148 N   0  0  0  0  0  0  0  0  0  0  0  0
    2.5987    0.1247   -0.2438 C   0  0  0  0  0  0  0  0  0  0  0  0
    3.1236    1.3175   -0.1034 N   0  0  0  0  0  0  0  0  0  0  0  0
    4.4640    1.1050    0.1575 C   0  0  0  0  0  0  0  0  0  0  0  0
    5.5260    1.9929    0.3961 C   0  0  0  0  0  0  0  0  0  0  0  0
    5.1579    3.6593    0.3719 Cl  0  0  0  0  0  0  0  0  0  0  0  0
    6.8145    1.5143    0.6388 C   0  0  0  0  0  0  0  0  0  0  0  0
    7.0539    0.1386    0.6449 C   0  0  0  0  0  0  0  0  0  0  0  0
    6.0227   -0.7818    0.4110 C   0  0  0  0  0  0  0  0  0  0  0  0
    4.7467   -0.2611    0.1721 C   0  0  0  0  0  0  0  0  0  0  0  0
    3.5412   -0.8577   -0.0867 N   0  0  0  0  0  0  0  0  0  0  0  0
   -0.7195   -1.4494   -0.9754 C   0  0  0  0  0  0  0  0  0  0  0  0
   -1.1242   -0.7009   -2.2414 C   0  0  0  0  0  0  0  0  0  0  0  0
   -2.6075   -0.4325   -2.0237 C   0  0  0  0  0  0  0  0  0  0  0  0
   -2.7051   -0.2109   -0.5858 N   0  0  0  0  0  0  0  0  0  0  0  0
   -3.8770    0.1485    0.0589 C   0  0  0  0  0  0  0  0  0  0  0  0
   -5.0476    0.4454   -0.6627 C   0  0  0  0  0  0  0  0  0  0  0  0
   -6.2414    0.8236   -0.0304 C   0  0  0  0  0  0  0  0  0  0  0  0
   -6.3003    0.9253    1.3542 C   0  0  0  0  0  0  0  0  0  0  0  0
   -5.1627    0.6521    2.1021 C   0  0  0  0  0  0  0  0  0  0  0  0
   -3.9790    0.2759    1.4614 C   0  0  0  0  0  0  0  0  0  0  0  0
   -2.9148    0.0439    2.2484 F   0  0  0  0  0  0  0  0  0  0  0  0
   -1.5855   -0.8348    0.1270 C   0  0  0  0  0  0  0  0  0  0  0  0
    0.7037    0.7225   -0.5934 H   0  0  0  0  0  0  0  0  0  0  0  0
    7.6291    2.2091    0.8225 H   0  0  0  0  0  0  0  0  0  0  0  0
    8.0613   -0.2276    0.8353 H   0  0  0  0  0  0  0  0  0  0  0  0
    6.2123   -1.8506    0.4167 H   0  0  0  0  0  0  0  0  0  0  0  0
    3.3423   -1.8481   -0.1558 H   0  0  0  0  0  0  0  0  0  0  0  0
   -0.9896   -2.5079   -1.0909 H   0  0  0  0  0  0  0  0  0  0  0  0
   -0.5859    0.2473   -2.3512 H   0  0  0  0  0  0  0  0  0  0  0  0
   -0.9415   -1.2868   -3.1478 H   0  0  0  0  0  0  0  0  0  0  0  0
   -2.9232    0.4387   -2.6072 H   0  0  0  0  0  0  0  0  0  0  0  0
   -3.2026   -1.3048   -2.3186 H   0  0  0  0  0  0  0  0  0  0  0  0
   -5.0601    0.3859   -1.7472 H   0  0  0  0  0  0  0  0  0  0  0  0
   -7.1229    1.0403   -0.6292 H   0  0  0  0  0  0  0  0  0  0  0  0
   -7.2232    1.2201    1.8456 H   0  0  0  0  0  0  0  0  0  0  0  0
   -5.1781    0.7319    3.1844 H   0  0  0  0  0  0  0  0  0  0  0  0
   -1.9262   -1.6315    0.7995 H   0  0  0  0  0  0  0  0  0  0  0  0
   -1.0506   -0.0845    0.7187 H   0  0  0  0  0  0  0  0  0  0  0  0
  1  2  2  0
  2  3  1  0
  3  4  1  0
  4  5  2  0
  5  6  1  0
  6  7  2  0
  7  8  1  0
  7  9  1  0
  9 10  2  0
 10 11  1  0
 11 12  2  0
 12 13  1  0
  2 14  1  0
 14 15  1  0
 15 16  1  0
 16 17  1  0
 17 18  1  0
 18 19  2  0
 19 20  1  0
 20 21  2  0
 21 22  1  0
 22 23  2  0
 23 24  1  0
 17 25  1  0
 13  4  1  0
 25 14  1  0
 12  6  1  0
 23 18  1  0
  3 26  1  0
  9 27  1  0
 10 28  1  0
 11 29  1  0
 13 30  1  0
 14 31  1  0
 15 32  1  0
 15 33  1  0
 16 34  1  0
 16 35  1  0
 19 36  1  0
 20 37  1  0
 21 38  1  0
 22 39  1  0
 25 40  1  0
 25 41  1  0
M  END
$$$$
OCNT-2318270
     RDKit          3D

 44 47  0  0  0  0  0  0  0  0999 V2000
   -5.5510   -1.9086    1.0114 C   0  0  0  0  0  0  0  0  0  0  0  0
   -4.3829   -2.5900    0.5635 O   0  0  0  0  0  0  0  0  0  0  0  0
   -3.3977   -1.6105    0.2162 N   0  0  0  0  0  0  0  0  0  0  0  0
   -3.0157   -1.8647   -1.1635 C   0  0  0  0  0  0  0  0  0  0  0  0
   -2.4105   -1.5733    1.2151 C   0  0  0  0  0  0  0  0  0  0  0  0
   -2.4724   -2.1518    2.2972 O   0  0  0  0  0  0  0  0  0  0  0  0
   -1.2292   -0.7257    0.9578 C   0  0  0  0  0  0  0  0  0  0  0  0
   -1.3465    0.5590    0.4094 C   0  0  0  0  0  0  0  0  0  0  0  0
   -0.1994    1.3264    0.1920 C   0  0  0  0  0  0  0  0  0  0  0  0
   -0.2599    2.6788   -0.3932 C   0  0  0  0  0  0  0  0  0  0  0  0
   -1.3278    3.5631   -0.1758 C   0  0  0  0  0  0  0  0  0  0  0  0
   -1.3336    4.8290   -0.7633 C   0  0  0  0  0  0  0  0  0  0  0  0
   -0.2631    5.1888   -1.5616 C   0  0  0  0  0  0  0  0  0  0  0  0
    0.7898    4.3831   -1.7994 N   0  0  0  0  0  0  0  0  0  0  0  0
    0.7697    3.1616   -1.2060 C   0  0  0  0  0  0  0  0  0  0  0  0
    1.0505    0.8902    0.4822 N   0  0  0  0  0  0  0  0  0  0  0  0
    1.1104   -0.3378    1.0301 C   0  0  0  0  0  0  0  0  0  0  0  0
    0.0472   -1.1802    1.3055 C   0  0  0  0  0  0  0  0  0  0  0  0
    0.6407   -2.3213    1.8863 C   0  0  0  0  0  0  0  0  0  0  0  0
    1.9738   -2.2322    1.9617 N   0  0  0  0  0  0  0  0  0  0  0  0
    2.2374   -1.0128    1.4230 N   0  0  0  0  0  0  0  0  0  0  0  0
    3.6042   -0.5276    1.3305 C   0  0  0  0  0  0  0  0  0  0  0  0
    4.2034   -0.8965    0.0240 C   0  0  0  0  0  0  0  0  0  0  0  0
    4.5062   -2.1020   -0.5776 C   0  0  0  0  0  0  0  0  0  0  0  0
    5.0741   -1.7901   -1.8357 C   0  0  0  0  0  0  0  0  0  0  0  0
    5.0876   -0.4180   -1.9206 C   0  0  0  0  0  0  0  0  0  0  0  0
    4.5652    0.1334   -0.7956 O   0  0  0  0  0  0  0  0  0  0  0  0
   -5.9436   -1.2639    0.2188 H   0  0  0  0  0  0  0  0  0  0  0  0
   -6.3086   -2.6557    1.2623 H   0  0  0  0  0  0  0  0  0  0  0  0
   -5.3325   -1.3175    1.9063 H   0  0  0  0  0  0  0  0  0  0  0  0
   -2.3677   -1.0698   -1.5379 H   0  0  0  0  0  0  0  0  0  0  0  0
   -3.9157   -1.9103   -1.7836 H   0  0  0  0  0  0  0  0  0  0  0  0
   -2.4772   -2.8161   -1.2214 H   0  0  0  0  0  0  0  0  0  0  0  0
   -2.3281    0.9446    0.1524 H   0  0  0  0  0  0  0  0  0  0  0  0
   -2.1585    3.2900    0.4699 H   0  0  0  0  0  0  0  0  0  0  0  0
   -2.1521    5.5201   -0.5948 H   0  0  0  0  0  0  0  0  0  0  0  0
   -0.2203    6.1628   -2.0402 H   0  0  0  0  0  0  0  0  0  0  0  0
    1.6454    2.5505   -1.4198 H   0  0  0  0  0  0  0  0  0  0  0  0
    0.1506   -3.2139    2.2575 H   0  0  0  0  0  0  0  0  0  0  0  0
    3.5881    0.5573    1.4788 H   0  0  0  0  0  0  0  0  0  0  0  0
    4.1721   -0.9698    2.1563 H   0  0  0  0  0  0  0  0  0  0  0  0
    4.3291   -3.0829   -0.1559 H   0  0  0  0  0  0  0  0  0  0  0  0
    5.4303   -2.4792   -2.5884 H   0  0  0  0  0  0  0  0  0  0  0  0
    5.4185    0.2835   -2.6739 H   0  0  0  0  0  0  0  0  0  0  0  0
  1  2  1  0
  2  3  1  0
  3  4  1  0
  3  5  1  0
  5  6  2  0
  5  7  1  0
  7  8  2  0
  8  9  1  0
  9 10  1  0
 10 11  1  0
 11 12  2  0
 12 13  1  0
 13 14  2  0
 14 15  1  0
  9 16  2  0
 16 17  1  0
 17 18  2  0
 18 19  1  0
 19 20  2  0
 20 21  1  0
 21 22  1  0
 22 23  1  0
 23 24  2  0
 24 25  1  0
 25 26  2  0
 26 27  1  0
 18  7  1  0
 27 23  1  0
 15 10  2  0
 21 17  1  0
  1 28  1  0
  1 29  1  0
  1 30  1  0
  4 31  1  0
  4 32  1  0
  4 33  1  0
  8 34  1  0
 11 35  1  0
 12 36  1  0
 13 37  1  0
 15 38  1  0
 19 39  1  0
 22 40  1  0
 22 41  1  0
 24 42  1  0
 25 43  1  0
 26 44  1  0
M  END
$$$$
OCNT-2318281
     RDKit          3D

 44 46  0  0  0  0  0  0  0  0999 V2000
    3.5686    1.2545   -1.2330 C   0  0  0  0  0  0  0  0  0  0  0  0
    2.8640    1.6015    0.0747 C   0  0  0  0  0  0  0  0  0  0  0  0
    3.2556    0.6702    1.1978 C   0  0  0  0  0  0  0  0  0  0  0  0
    4.3054    1.0768    2.0278 C   0  0  0  0  0  0  0  0  0  0  0  0
    4.7898    0.3669    3.0712 N   0  0  0  0  0  0  0  0  0  0  0  0
    4.2148   -0.8250    3.3075 C   0  0  0  0  0  0  0  0  0  0  0  0
    3.1772   -1.3350    2.5480 C   0  0  0  0  0  0  0  0  0  0  0  0
    2.6751   -0.5891    1.4641 C   0  0  0  0  0  0  0  0  0  0  0  0
    1.5766   -1.1681    0.6805 C   0  0  0  0  0  0  0  0  0  0  0  0
    0.9523   -2.3135    1.0206 N   0  0  0  0  0  0  0  0  0  0  0  0
    0.0013   -2.4948    0.0227 O   0  0  0  0  0  0  0  0  0  0  0  0
    0.1309   -1.4363   -0.8250 C   0  0  0  0  0  0  0  0  0  0  0  0
   -0.7949   -1.3778   -1.9817 C   0  0  0  0  0  0  0  0  0  0  0  0
   -2.2655   -1.1913   -1.5543 C   0  0  0  0  0  0  0  0  0  0  0  0
   -3.1901   -1.2926   -2.7745 C   0  0  0  0  0  0  0  0  0  0  0  0
   -2.5131    0.1170   -0.8032 C   0  0  0  0  0  0  0  0  0  0  0  0
   -2.2363    1.3485   -1.4356 C   0  0  0  0  0  0  0  0  0  0  0  0
   -2.4448    2.5638   -0.7797 C   0  0  0  0  0  0  0  0  0  0  0  0
   -2.9357    2.5758    0.5208 C   0  0  0  0  0  0  0  0  0  0  0  0
   -3.2193    1.3715    1.1657 C   0  0  0  0  0  0  0  0  0  0  0  0
   -3.0139    0.1369    0.5218 C   0  0  0  0  0  0  0  0  0  0  0  0
   -3.3374   -1.1225    1.2851 C   0  0  0  0  0  0  0  0  0  0  0  0
    1.0928   -0.6136   -0.4832 N   0  0  0  0  0  0  0  0  0  0  0  0
    3.2731    1.9550   -2.0201 H   0  0  0  0  0  0  0  0  0  0  0  0
    4.6557    1.3117   -1.1196 H   0  0  0  0  0  0  0  0  0  0  0  0
    3.3267    0.2419   -1.5734 H   0  0  0  0  0  0  0  0  0  0  0  0
    1.7757    1.6326   -0.0507 H   0  0  0  0  0  0  0  0  0  0  0  0
    3.1327    2.6349    0.3464 H   0  0  0  0  0  0  0  0  0  0  0  0
    4.8100    2.0303    1.8668 H   0  0  0  0  0  0  0  0  0  0  0  0
    4.6192   -1.3836    4.1492 H   0  0  0  0  0  0  0  0  0  0  0  0
    2.7756   -2.3136    2.8020 H   0  0  0  0  0  0  0  0  0  0  0  0
   -0.4759   -0.5695   -2.6527 H   0  0  0  0  0  0  0  0  0  0  0  0
   -0.6919   -2.3103   -2.5538 H   0  0  0  0  0  0  0  0  0  0  0  0
   -2.5257   -2.0389   -0.9109 H   0  0  0  0  0  0  0  0  0  0  0  0
   -3.0931   -2.2759   -3.2501 H   0  0  0  0  0  0  0  0  0  0  0  0
   -2.9539   -0.5367   -3.5301 H   0  0  0  0  0  0  0  0  0  0  0  0
   -4.2386   -1.1623   -2.4838 H   0  0  0  0  0  0  0  0  0  0  0  0
   -1.8516    1.3750   -2.4535 H   0  0  0  0  0  0  0  0  0  0  0  0
   -2.2198    3.4992   -1.2850 H   0  0  0  0  0  0  0  0  0  0  0  0
   -3.0954    3.5219    1.0355 H   0  0  0  0  0  0  0  0  0  0  0  0
   -3.6030    1.3992    2.1850 H   0  0  0  0  0  0  0  0  0  0  0  0
   -2.4384   -1.7340    1.4157 H   0  0  0  0  0  0  0  0  0  0  0  0
   -4.1059   -1.6984    0.7597 H   0  0  0  0  0  0  0  0  0  0  0  0
   -3.7288   -0.9021    2.2854 H   0  0  0  0  0  0  0  0  0  0  0  0
  1  2  1  0
  2  3  1  0
  3  4  2  0
  4  5  1  0
  5  6  2  0
  6  7  1  0
  7  8  2  0
  8  9  1  0
  9 10  2  0
 10 11  1  0
 11 12  1  0
 12 13  1  0
 13 14  1  0
 14 15  1  0
 14 16  1  0
 16 17  2  0
 17 18  1  0
 18 19  2  0
 19 20  1  0
 20 21  2  0
 21 22  1  0
 12 23  2  0
  8  3  1  0
 23  9  1  0
 21 16  1  0
  1 24  1  0
  1 25  1  0
  1 26  1  0
  2 27  1  0
  2 28  1  0
  4 29  1  0
  6 30  1  0
  7 31  1  0
 13 32  1  0
 13 33  1  0
 14 34  1  0
 15 35  1  0
 15 36  1  0
 15 37  1  0
 17 38  1  0
 18 39  1  0
 19 40  1  0
 20 41  1  0
 22 42  1  0
 22 43  1  0
 22 44  1  0
M  END
$$$$
OCNT-2318305
     RDKit          3D

 48 52  0  0  0  0  0  0  0  0999 V2000
    0.3288   -0.5111   -3.2592 O   0  0  0  0  0  0  0  0  0  0  0  0
   -0.1176   -0.7593   -2.1376 C   0  0  0  0  0  0  0  0  0  0  0  0
    0.7512   -1.1212   -1.0299 C   0  0  0  0  0  0  0  0  0  0  0  0
    0.6234   -2.0068    0.0223 C   0  0  0  0  0  0  0  0  0  0  0  0
    1.8279   -1.9354    0.7644 C   0  0  0  0  0  0  0  0  0  0  0  0
    2.6550   -1.0195    0.1312 C   0  0  0  0  0  0  0  0  0  0  0  0
    3.9844   -0.5792    0.4754 C   0  0  0  0  0  0  0  0  0  0  0  0
    4.6317    0.3116   -0.2443 N   0  0  0  0  0  0  0  0  0  0  0  0
    5.8792    0.5535    0.3020 C   0  0  0  0  0  0  0  0  0  0  0  0
    6.8452    1.4455   -0.2061 C   0  0  0  0  0  0  0  0  0  0  0  0
    8.0701    1.5935    0.4522 C   0  0  0  0  0  0  0  0  0  0  0  0
    8.3418    0.8661    1.6066 C   0  0  0  0  0  0  0  0  0  0  0  0
    7.4003   -0.0251    2.1308 C   0  0  0  0  0  0  0  0  0  0  0  0
    6.1736   -0.1659    1.4606 C   0  0  0  0  0  0  0  0  0  0  0  0
    4.8301   -1.1680    1.8497 S   0  0  0  0  0  0  0  0  0  0  0  0
    1.9883   -0.5405   -0.9712 O   0  0  0  0  0  0  0  0  0  0  0  0
   -1.5016   -0.7184   -1.9129 N   0  0  0  0  0  0  0  0  0  0  0  0
   -2.3735   -0.5475   -3.0723 C   0  0  0  0  0  0  0  0  0  0  0  0
   -3.8142   -0.9374   -2.7630 C   0  0  0  0  0  0  0  0  0  0  0  0
   -4.4022   -0.1249   -1.6065 C   0  0  0  0  0  0  0  0  0  0  0  0
   -3.3323    0.3848   -0.6266 C   0  0  0  0  0  0  0  0  0  0  0  0
   -3.8865    0.6706    0.6925 N   0  0  0  0  0  0  0  0  0  0  0  0
   -4.5210    1.9368    1.0004 C   0  0  0  0  0  0  0  0  0  0  0  0
   -4.9641    1.7586    2.4459 C   0  0  0  0  0  0  0  0  0  0  0  0
   -5.0324    0.3317    2.5924 N   0  0  0  0  0  0  0  0  0  0  0  0
   -4.3022   -0.3025    1.6004 C   0  0  0  0  0  0  0  0  0  0  0  0
   -4.0786   -1.4986    1.5591 O   0  0  0  0  0  0  0  0  0  0  0  0
   -2.1190   -0.5675   -0.5872 C   0  0  0  0  0  0  0  0  0  0  0  0
   -0.2297   -2.6402    0.2234 H   0  0  0  0  0  0  0  0  0  0  0  0
    2.0651   -2.4980    1.6568 H   0  0  0  0  0  0  0  0  0  0  0  0
    6.6274    2.0103   -1.1077 H   0  0  0  0  0  0  0  0  0  0  0  0
    8.8123    2.2824    0.0560 H   0  0  0  0  0  0  0  0  0  0  0  0
    9.2988    0.9905    2.1087 H   0  0  0  0  0  0  0  0  0  0  0  0
    7.6140   -0.5928    3.0314 H   0  0  0  0  0  0  0  0  0  0  0  0
   -1.9931   -1.1557   -3.9008 H   0  0  0  0  0  0  0  0  0  0  0  0
   -2.3163    0.5030   -3.3810 H   0  0  0  0  0  0  0  0  0  0  0  0
   -3.8438   -2.0019   -2.4958 H   0  0  0  0  0  0  0  0  0  0  0  0
   -4.4405   -0.8201   -3.6543 H   0  0  0  0  0  0  0  0  0  0  0  0
   -4.9483    0.7394   -2.0061 H   0  0  0  0  0  0  0  0  0  0  0  0
   -5.1530   -0.7393   -1.0947 H   0  0  0  0  0  0  0  0  0  0  0  0
   -2.9604    1.3475   -1.0060 H   0  0  0  0  0  0  0  0  0  0  0  0
   -3.8230    2.7679    0.8688 H   0  0  0  0  0  0  0  0  0  0  0  0
   -5.3829    2.0615    0.3361 H   0  0  0  0  0  0  0  0  0  0  0  0
   -4.2092    2.1311    3.1456 H   0  0  0  0  0  0  0  0  0  0  0  0
   -5.9316    2.2167    2.6635 H   0  0  0  0  0  0  0  0  0  0  0  0
   -5.2702   -0.1729    3.4360 H   0  0  0  0  0  0  0  0  0  0  0  0
   -2.4139   -1.5719   -0.2668 H   0  0  0  0  0  0  0  0  0  0  0  0
   -1.3877   -0.1811    0.1297 H   0  0  0  0  0  0  0  0  0  0  0  0
  1  2  2  0
  2  3  1  0
  3  4  2  0
  4  5  1  0
  5  6  2  0
  6  7  1  0
  7  8  2  0
  8  9  1  0
  9 10  2  0
 10 11  1  0
 11 12  2  0
 12 13  1  0
 13 14  2  0
 14 15  1  0
  6 16  1  0
  2 17  1  0
 17 18  1  0
 18 19  1  0
 19 20  1  0
 20 21  1  0
 21 22  1  0
 22 23  1  0
 23 24  1  0
 24 25  1  0
 25 26  1  0
 26 27  2  0
 21 28  1  0
 16  3  1  0
 28 17  1  0
 15  7  1  0
 26 22  1  0
 14  9  1  0
  4 29  1  0
  5 30  1  0
 10 31  1  0
 11 32  1  0
 12 33  1  0
 13 34  1  0
 18 35  1  0
 18 36  1  0
 19 37  1  0
 19 38  1  0
 20 39  1  0
 20 40  1  0
 21 41  1  0
 23 42  1  0
 23 43  1  0
 24 44  1  0
 24 45  1  0
 25 46  1  0
 28 47  1  0
 28 48  1  0
M  END
$$$$
OCNT-2318306
     RDKit          3D

 38 40  0  0  0  0  0  0  0  0999 V2000
    8.1857    0.3506   -0.5526 C   0  0  0  0  0  0  0  0  0  0  0  0
    7.3597    1.2683    0.1556 O   0  0  0  0  0  0  0  0  0  0  0  0
    6.0497    0.9382    0.1776 C   0  0  0  0  0  0  0  0  0  0  0  0
    5.5861   -0.1629   -0.4184 N   0  0  0  0  0  0  0  0  0  0  0  0
    4.2206   -0.1520   -0.1778 O   0  0  0  0  0  0  0  0  0  0  0  0
    3.8932    0.9533    0.5566 C   0  0  0  0  0  0  0  0  0  0  0  0
    2.5137    1.1767    0.9305 C   0  0  0  0  0  0  0  0  0  0  0  0
    2.1816    2.1557    1.5904 O   0  0  0  0  0  0  0  0  0  0  0  0
    1.6547    0.1917    0.4711 N   0  0  0  0  0  0  0  0  0  0  0  0
    0.2606    0.0974    0.6511 C   0  0  0  0  0  0  0  0  0  0  0  0
   -0.3816   -1.0073    0.0791 C   0  0  0  0  0  0  0  0  0  0  0  0
   -1.7634   -1.1785    0.2080 C   0  0  0  0  0  0  0  0  0  0  0  0
   -2.5327   -0.2438    0.9104 C   0  0  0  0  0  0  0  0  0  0  0  0
   -4.0275   -0.4220    1.0533 C   0  0  0  0  0  0  0  0  0  0  0  0
   -4.7860   -0.3505   -0.2511 C   0  0  0  0  0  0  0  0  0  0  0  0
   -5.5259   -1.4444   -0.7095 C   0  0  0  0  0  0  0  0  0  0  0  0
   -6.2125   -1.3286   -1.9089 C   0  0  0  0  0  0  0  0  0  0  0  0
   -6.2139   -0.2148   -2.6707 N   0  0  0  0  0  0  0  0  0  0  0  0
   -5.4960    0.8318   -2.2109 C   0  0  0  0  0  0  0  0  0  0  0  0
   -4.7793    0.8149   -1.0243 C   0  0  0  0  0  0  0  0  0  0  0  0
   -1.8882    0.8582    1.4845 C   0  0  0  0  0  0  0  0  0  0  0  0
   -0.5041    1.0271    1.3553 C   0  0  0  0  0  0  0  0  0  0  0  0
    5.0379    1.6769    0.8045 C   0  0  0  0  0  0  0  0  0  0  0  0
    8.1669   -0.6417   -0.0884 H   0  0  0  0  0  0  0  0  0  0  0  0
    9.2143    0.7209   -0.5023 H   0  0  0  0  0  0  0  0  0  0  0  0
    7.9038    0.2957   -1.6100 H   0  0  0  0  0  0  0  0  0  0  0  0
    2.0872   -0.5530   -0.0638 H   0  0  0  0  0  0  0  0  0  0  0  0
    0.1806   -1.7524   -0.4784 H   0  0  0  0  0  0  0  0  0  0  0  0
   -2.2360   -2.0444   -0.2511 H   0  0  0  0  0  0  0  0  0  0  0  0
   -4.4414    0.3370    1.7300 H   0  0  0  0  0  0  0  0  0  0  0  0
   -4.2083   -1.3846    1.5495 H   0  0  0  0  0  0  0  0  0  0  0  0
   -5.5721   -2.3726   -0.1499 H   0  0  0  0  0  0  0  0  0  0  0  0
   -6.7982   -2.1558   -2.2995 H   0  0  0  0  0  0  0  0  0  0  0  0
   -5.5109    1.7161   -2.8414 H   0  0  0  0  0  0  0  0  0  0  0  0
   -4.2221    1.6937   -0.7165 H   0  0  0  0  0  0  0  0  0  0  0  0
   -2.4556    1.6022    2.0401 H   0  0  0  0  0  0  0  0  0  0  0  0
   -0.0592    1.9011    1.8203 H   0  0  0  0  0  0  0  0  0  0  0  0
    5.1183    2.6002    1.3574 H   0  0  0  0  0  0  0  0  0  0  0  0
  1  2  1  0
  2  3  1  0
  3  4  2  0
  4  5  1  0
  5  6  1  0
  6  7  1  0
  7  8  2  0
  7  9  1  0
  9 10  1  0
 10 11  1  0
 11 12  2  0
 12 13  1  0
 13 14  1  0
 14 15  1  0
 15 16  2  0
 16 17  1  0
 17 18  2  0
 18 19  1  0
 19 20  2  0
 13 21  2  0
 21 22  1  0
  6 23  2  0
 23  3  1  0
 22 10  2  0
 20 15  1  0
  1 24  1  0
  1 25  1  0
  1 26  1  0
  9 27  1  0
 11 28  1  0
 12 29  1  0
 14 30  1  0
 14 31  1  0
 16 32  1  0
 17 33  1  0
 19 34  1  0
 20 35  1  0
 21 36  1  0
 22 37  1  0
 23 38  1  0
M  END
$$$$
OCNT-2318307
     RDKit          3D

 44 47  0  0  0  0  0  0  0  0999 V2000
    4.5557    2.4951   -2.9573 Cl  0  0  0  0  0  0  0  0  0  0  0  0
    3.8164    1.4965   -1.7532 C   0  0  0  0  0  0  0  0  0  0  0  0
    2.5004    1.7884   -1.3809 C   0  0  0  0  0  0  0  0  0  0  0  0
    1.8565    1.0279   -0.3971 C   0  0  0  0  0  0  0  0  0  0  0  0
    0.4889    1.3279    0.0122 C   0  0  0  0  0  0  0  0  0  0  0  0
   -0.2400    2.3394   -0.4886 N   0  0  0  0  0  0  0  0  0  0  0  0
   -1.4548    2.2401    0.1833 O   0  0  0  0  0  0  0  0  0  0  0  0
   -1.3469    1.1734    1.0255 C   0  0  0  0  0  0  0  0  0  0  0  0
   -2.5319    0.8673    1.8640 C   0  0  0  0  0  0  0  0  0  0  0  0
   -3.3570   -0.0789    1.1744 O   0  0  0  0  0  0  0  0  0  0  0  0
   -4.3765    0.5132    0.3582 C   0  0  0  0  0  0  0  0  0  0  0  0
   -5.6240    0.8009    1.1967 C   0  0  0  0  0  0  0  0  0  0  0  0
   -6.3043   -0.4942    1.6226 C   0  0  0  0  0  0  0  0  0  0  0  0
   -6.6201   -1.2902    0.4811 O   0  0  0  0  0  0  0  0  0  0  0  0
   -5.4447   -1.6904   -0.2245 C   0  0  0  0  0  0  0  0  0  0  0  0
   -4.7074   -0.4716   -0.7637 C   0  0  0  0  0  0  0  0  0  0  0  0
   -0.1712    0.5885    0.9698 N   0  0  0  0  0  0  0  0  0  0  0  0
    2.5498   -0.0403    0.1884 C   0  0  0  0  0  0  0  0  0  0  0  0
    3.8582   -0.3520   -0.2001 C   0  0  0  0  0  0  0  0  0  0  0  0
    4.5187    0.4435   -1.1487 C   0  0  0  0  0  0  0  0  0  0  0  0
    5.8202    0.2500   -1.5465 O   0  0  0  0  0  0  0  0  0  0  0  0
    6.6928   -0.1539   -0.4918 C   0  0  0  0  0  0  0  0  0  0  0  0
    6.6825   -1.6641   -0.3346 C   0  0  0  0  0  0  0  0  0  0  0  0
    5.2704   -2.2206   -0.3840 C   0  0  0  0  0  0  0  0  0  0  0  0
    4.3895   -1.4493    0.4336 O   0  0  0  0  0  0  0  0  0  0  0  0
    1.9829    2.6182   -1.8595 H   0  0  0  0  0  0  0  0  0  0  0  0
   -2.1989    0.3905    2.7918 H   0  0  0  0  0  0  0  0  0  0  0  0
   -3.0861    1.7721    2.1345 H   0  0  0  0  0  0  0  0  0  0  0  0
   -4.0024    1.4410   -0.0906 H   0  0  0  0  0  0  0  0  0  0  0  0
   -6.3243    1.3849    0.5873 H   0  0  0  0  0  0  0  0  0  0  0  0
   -5.3789    1.3892    2.0864 H   0  0  0  0  0  0  0  0  0  0  0  0
   -5.6811   -1.0723    2.3150 H   0  0  0  0  0  0  0  0  0  0  0  0
   -7.2429   -0.2663    2.1383 H   0  0  0  0  0  0  0  0  0  0  0  0
   -5.7582   -2.3307   -1.0556 H   0  0  0  0  0  0  0  0  0  0  0  0
   -4.8082   -2.2940    0.4333 H   0  0  0  0  0  0  0  0  0  0  0  0
   -3.7937   -0.7960   -1.2738 H   0  0  0  0  0  0  0  0  0  0  0  0
   -5.3469    0.0350   -1.4968 H   0  0  0  0  0  0  0  0  0  0  0  0
    2.0650   -0.6582    0.9433 H   0  0  0  0  0  0  0  0  0  0  0  0
    6.4482    0.3594    0.4484 H   0  0  0  0  0  0  0  0  0  0  0  0
    7.7040    0.1728   -0.7608 H   0  0  0  0  0  0  0  0  0  0  0  0
    7.1620   -1.9190    0.6176 H   0  0  0  0  0  0  0  0  0  0  0  0
    7.2707   -2.1345   -1.1308 H   0  0  0  0  0  0  0  0  0  0  0  0
    5.2738   -3.2423    0.0132 H   0  0  0  0  0  0  0  0  0  0  0  0
    4.8936   -2.2966   -1.4133 H   0  0  0  0  0  0  0  0  0  0  0  0
  1  2  1  0
  2  3  2  0
  3  4  1  0
  4  5  1  0
  5  6  2  0
  6  7  1  0
  7  8  1  0
  8  9  1  0
  9 10  1  0
 10 11  1  0
 11 12  1  0
 12 13  1  0
 13 14  1  0
 14 15  1  0
 15 16  1  0
  8 17  2  0
  4 18  2  0
 18 19  1  0
 19 20  2  0
 20 21  1  0
 21 22  1  0
 22 23  1  0
 23 24  1  0
 24 25  1  0
 20  2  1  0
 17  5  1  0
 25 19  1  0
 16 11  1  0
  3 26  1  0
  9 27  1  0
  9 28  1  0
 11 29  1  0
 12 30  1  0
 12 31  1  0
 13 32  1  0
 13 33  1  0
 15 34  1  0
 15 35  1  0
 16 36  1  0
 16 37  1  0
 18 38  1  0
 22 39  1  0
 22 40  1  0
 23 41  1  0
 23 42  1  0
 24 43  1  0
 24 44  1  0
M  END
$$$$
OCNT-2318312
     RDKit          3D

 43 45  0  0  0  0  0  0  0  0999 V2000
    1.1941    5.2563   -0.9784 C   0  0  0  0  0  0  0  0  0  0  0  0
    0.8472    3.9052   -0.6121 N   0  0  0  0  0  0  0  0  0  0  0  0
   -0.3798    3.4395   -0.2631 C   0  0  0  0  0  0  0  0  0  0  0  0
   -0.2315    2.0869   -0.0037 C   0  0  0  0  0  0  0  0  0  0  0  0
   -1.3236    1.1647    0.4198 C   0  0  0  0  0  0  0  0  0  0  0  0
   -1.9266    0.6057   -0.7885 N   0  0  0  0  0  0  0  0  0  0  0  0
   -2.9813   -0.4101   -0.5642 C   0  0  0  0  0  0  0  0  0  0  0  0
   -4.1063    0.0722    0.3805 C   0  0  0  0  0  0  0  0  0  0  0  0
   -3.7159   -0.0640    1.7433 O   0  0  0  0  0  0  0  0  0  0  0  0
   -2.3729   -1.7623   -0.1566 C   0  0  0  0  0  0  0  0  0  0  0  0
   -3.3909   -2.8814   -0.1356 C   0  0  0  0  0  0  0  0  0  0  0  0
   -4.3324   -2.7203    0.8138 F   0  0  0  0  0  0  0  0  0  0  0  0
   -2.7775   -4.0641    0.1016 F   0  0  0  0  0  0  0  0  0  0  0  0
   -4.0200   -2.9858   -1.3270 F   0  0  0  0  0  0  0  0  0  0  0  0
    1.1557    1.8433   -0.2366 C   0  0  0  0  0  0  0  0  0  0  0  0
    1.9688    0.4973   -0.1414 C   0  0  0  0  0  0  0  0  0  0  0  0
    1.5077   -0.7629    0.1909 C   0  0  0  0  0  0  0  0  0  0  0  0
    2.6156   -1.6504    0.1312 C   0  0  0  0  0  0  0  0  0  0  0  0
    2.8187   -3.0245    0.3490 C   0  0  0  0  0  0  0  0  0  0  0  0
    4.1099   -3.5468    0.1821 C   0  0  0  0  0  0  0  0  0  0  0  0
    5.1769   -2.7251   -0.1925 C   0  0  0  0  0  0  0  0  0  0  0  0
    4.9923   -1.3562   -0.4128 C   0  0  0  0  0  0  0  0  0  0  0  0
    3.6994   -0.8691   -0.2389 C   0  0  0  0  0  0  0  0  0  0  0  0
    3.3141    0.4218   -0.4039 O   0  0  0  0  0  0  0  0  0  0  0  0
    1.7982    2.9647   -0.5964 N   0  0  0  0  0  0  0  0  0  0  0  0
    0.3015    5.8854   -0.9372 H   0  0  0  0  0  0  0  0  0  0  0  0
    1.9424    5.6242   -0.2719 H   0  0  0  0  0  0  0  0  0  0  0  0
    1.5963    5.2459   -1.9946 H   0  0  0  0  0  0  0  0  0  0  0  0
   -1.2503    4.0798   -0.2305 H   0  0  0  0  0  0  0  0  0  0  0  0
   -0.9415    0.4000    1.0987 H   0  0  0  0  0  0  0  0  0  0  0  0
   -2.0625    1.7510    0.9780 H   0  0  0  0  0  0  0  0  0  0  0  0
   -1.1956    0.2299   -1.3919 H   0  0  0  0  0  0  0  0  0  0  0  0
   -3.4463   -0.5377   -1.5504 H   0  0  0  0  0  0  0  0  0  0  0  0
   -4.3619    1.1198    0.1859 H   0  0  0  0  0  0  0  0  0  0  0  0
   -5.0141   -0.5193    0.2223 H   0  0  0  0  0  0  0  0  0  0  0  0
   -4.4828    0.1999    2.2825 H   0  0  0  0  0  0  0  0  0  0  0  0
   -1.5860   -2.0349   -0.8713 H   0  0  0  0  0  0  0  0  0  0  0  0
   -1.8950   -1.7018    0.8273 H   0  0  0  0  0  0  0  0  0  0  0  0
    0.5008   -1.0384    0.4496 H   0  0  0  0  0  0  0  0  0  0  0  0
    1.9981   -3.6725    0.6413 H   0  0  0  0  0  0  0  0  0  0  0  0
    4.2828   -4.6083    0.3476 H   0  0  0  0  0  0  0  0  0  0  0  0
    6.1689   -3.1551   -0.3149 H   0  0  0  0  0  0  0  0  0  0  0  0
    5.8054   -0.7023   -0.7032 H   0  0  0  0  0  0  0  0  0  0  0  0
  1  2  1  0
  2  3  1  0
  3  4  2  0
  4  5  1  0
  5  6  1  0
  6  7  1  0
  7  8  1  0
  8  9  1  0
  7 10  1  0
 10 11  1  0
 11 12  1  0
 11 13  1  0
 11 14  1  0
  4 15  1  0
 15 16  1  0
 16 17  2  0
 17 18  1  0
 18 19  2  0
 19 20  1  0
 20 21  2  0
 21 22  1  0
 22 23  2  0
 23 24  1  0
 15 25  2  0
 25  2  1  0
 24 16  1  0
 23 18  1  0
  1 26  1  0
  1 27  1  0
  1 28  1  0
  3 29  1  0
  5 30  1  0
  5 31  1  0
  6 32  1  0
  7 33  1  0
  8 34  1  0
  8 35  1  0
  9 36  1  0
 10 37  1  0
 10 38  1  0
 17 39  1  0
 19 40  1  0
 20 41  1  0
 21 42  1  0
 22 43  1  0
M  END
$$$$
OCNT-2318316
     RDKit          3D

 44 46  0  0  0  0  0  0  0  0999 V2000
    7.8942   -0.5065   -0.2996 C   0  0  0  0  0  0  0  0  0  0  0  0
    7.0000   -0.6571    0.7960 O   0  0  0  0  0  0  0  0  0  0  0  0
    5.6752   -0.4283    0.5533 C   0  0  0  0  0  0  0  0  0  0  0  0
    4.8411   -0.6026    1.6552 C   0  0  0  0  0  0  0  0  0  0  0  0
    3.4619   -0.3999    1.5425 C   0  0  0  0  0  0  0  0  0  0  0  0
    2.8814   -0.0207    0.3428 C   0  0  0  0  0  0  0  0  0  0  0  0
    1.5522    0.1640    0.2862 N   0  0  0  0  0  0  0  0  0  0  0  0
    1.0092    0.5435   -0.8995 C   0  0  0  0  0  0  0  0  0  0  0  0
   -0.4813    0.7005   -0.9822 C   0  0  0  0  0  0  0  0  0  0  0  0
   -1.0201    0.4405   -2.0618 O   0  0  0  0  0  0  0  0  0  0  0  0
   -1.2283    1.1266    0.1274 N   0  0  0  0  0  0  0  0  0  0  0  0
   -0.6570    1.4560    1.4254 C   0  0  0  0  0  0  0  0  0  0  0  0
   -2.6820    0.9690    0.0627 C   0  0  0  0  0  0  0  0  0  0  0  0
   -3.1258   -0.4469    0.4454 C   0  0  0  0  0  0  0  0  0  0  0  0
   -4.6251   -0.6044    0.3721 C   0  0  0  0  0  0  0  0  0  0  0  0
   -5.4158   -0.4510    1.5207 C   0  0  0  0  0  0  0  0  0  0  0  0
   -6.8030   -0.5813    1.4418 C   0  0  0  0  0  0  0  0  0  0  0  0
   -7.3977   -0.8601    0.2169 C   0  0  0  0  0  0  0  0  0  0  0  0
   -8.7295   -0.9837    0.1437 F   0  0  0  0  0  0  0  0  0  0  0  0
   -6.6319   -1.0104   -0.9326 C   0  0  0  0  0  0  0  0  0  0  0  0
   -5.2449   -0.8810   -0.8566 C   0  0  0  0  0  0  0  0  0  0  0  0
    1.7575    0.7251   -2.0549 C   0  0  0  0  0  0  0  0  0  0  0  0
    3.1330    0.5345   -1.9876 C   0  0  0  0  0  0  0  0  0  0  0  0
    3.7239    0.1562   -0.7758 C   0  0  0  0  0  0  0  0  0  0  0  0
    5.1137   -0.0484   -0.6642 C   0  0  0  0  0  0  0  0  0  0  0  0
    7.6608   -1.2165   -1.0999 H   0  0  0  0  0  0  0  0  0  0  0  0
    7.8924    0.5235   -0.6711 H   0  0  0  0  0  0  0  0  0  0  0  0
    8.9035   -0.7294    0.0596 H   0  0  0  0  0  0  0  0  0  0  0  0
    5.2638   -0.9004    2.6120 H   0  0  0  0  0  0  0  0  0  0  0  0
    2.8296   -0.5443    2.4150 H   0  0  0  0  0  0  0  0  0  0  0  0
   -1.3413    2.1094    1.9748 H   0  0  0  0  0  0  0  0  0  0  0  0
    0.2864    1.9942    1.3078 H   0  0  0  0  0  0  0  0  0  0  0  0
   -0.5030    0.5343    1.9933 H   0  0  0  0  0  0  0  0  0  0  0  0
   -3.1466    1.7177    0.7157 H   0  0  0  0  0  0  0  0  0  0  0  0
   -3.0186    1.2006   -0.9554 H   0  0  0  0  0  0  0  0  0  0  0  0
   -2.7791   -0.6897    1.4579 H   0  0  0  0  0  0  0  0  0  0  0  0
   -2.6521   -1.1881   -0.2111 H   0  0  0  0  0  0  0  0  0  0  0  0
   -4.9563   -0.2314    2.4818 H   0  0  0  0  0  0  0  0  0  0  0  0
   -7.4225   -0.4672    2.3252 H   0  0  0  0  0  0  0  0  0  0  0  0
   -7.1175   -1.2257   -1.8788 H   0  0  0  0  0  0  0  0  0  0  0  0
   -4.6469   -0.9957   -1.7593 H   0  0  0  0  0  0  0  0  0  0  0  0
    1.2795    1.0042   -2.9888 H   0  0  0  0  0  0  0  0  0  0  0  0
    3.7335    0.6754   -2.8828 H   0  0  0  0  0  0  0  0  0  0  0  0
    5.7332    0.0954   -1.5437 H   0  0  0  0  0  0  0  0  0  0  0  0
  1  2  1  0
  2  3  1  0
  3  4  2  0
  4  5  1  0
  5  6  2  0
  6  7  1  0
  7  8  2  0
  8  9  1  0
  9 10  2  0
  9 11  1  0
 11 12  1  0
 11 13  1  0
 13 14  1  0
 14 15  1  0
 15 16  1  0
 16 17  2  0
 17 18  1  0
 18 19  1  0
 18 20  2  0
 20 21  1  0
  8 22  1  0
 22 23  2  0
 23 24  1  0
 24 25  2  0
 25  3  1  0
 24  6  1  0
 21 15  2  0
  1 26  1  0
  1 27  1  0
  1 28  1  0
  4 29  1  0
  5 30  1  0
 12 31  1  0
 12 32  1  0
 12 33  1  0
 13 34  1  0
 13 35  1  0
 14 36  1  0
 14 37  1  0
 16 38  1  0
 17 39  1  0
 20 40  1  0
 21 41  1  0
 22 42  1  0
 23 43  1  0
 25 44  1  0
M  END
$$$$
OCNT-2318324
     RDKit          3D

 45 47  0  0  0  0  0  0  0  0999 V2000
   -5.4466    1.1611   -1.0539 C   0  0  0  0  0  0  0  0  0  0  0  0
   -5.2150    0.2880    0.1811 C   0  0  0  0  0  0  0  0  0  0  0  0
   -6.4685   -0.3536    0.4670 O   0  0  0  0  0  0  0  0  0  0  0  0
   -4.8491    1.1710    1.3922 C   0  0  0  0  0  0  0  0  0  0  0  0
   -3.8730    0.4539    2.3191 C   0  0  0  0  0  0  0  0  0  0  0  0
   -2.5767    0.1508    1.5725 C   0  0  0  0  0  0  0  0  0  0  0  0
   -2.7897   -0.4001    0.2334 N   0  0  0  0  0  0  0  0  0  0  0  0
   -1.7579   -0.7877   -0.6263 C   0  0  0  0  0  0  0  0  0  0  0  0
   -1.9895   -1.3871   -1.6745 O   0  0  0  0  0  0  0  0  0  0  0  0
   -0.4981   -0.4479   -0.2055 N   0  0  0  0  0  0  0  0  0  0  0  0
    0.6736   -0.7297   -0.8657 C   0  0  0  0  0  0  0  0  0  0  0  0
    1.8195   -0.3034   -0.3323 N   0  0  0  0  0  0  0  0  0  0  0  0
    2.7885   -0.7197   -1.1886 N   0  0  0  0  0  0  0  0  0  0  0  0
    4.1596   -0.4317   -0.9295 C   0  0  0  0  0  0  0  0  0  0  0  0
    5.1692   -0.8560   -1.8027 C   0  0  0  0  0  0  0  0  0  0  0  0
    6.5062   -0.5635   -1.5218 C   0  0  0  0  0  0  0  0  0  0  0  0
    6.8451    0.1533   -0.3739 C   0  0  0  0  0  0  0  0  0  0  0  0
    5.8493    0.5953    0.5085 C   0  0  0  0  0  0  0  0  0  0  0  0
    6.2097    1.3515    1.7637 C   0  0  0  0  0  0  0  0  0  0  0  0
    7.4041    2.0017    1.6740 F   0  0  0  0  0  0  0  0  0  0  0  0
    5.2945    2.3046    2.0950 F   0  0  0  0  0  0  0  0  0  0  0  0
    6.3104    0.5353    2.8487 F   0  0  0  0  0  0  0  0  0  0  0  0
    4.5068    0.2907    0.2250 C   0  0  0  0  0  0  0  0  0  0  0  0
    2.2521   -1.4077   -2.2520 C   0  0  0  0  0  0  0  0  0  0  0  0
    0.8902   -1.4278   -2.0665 C   0  0  0  0  0  0  0  0  0  0  0  0
   -4.1549   -0.8049   -0.1058 C   0  0  0  0  0  0  0  0  0  0  0  0
   -6.2185    1.9145   -0.8586 H   0  0  0  0  0  0  0  0  0  0  0  0
   -5.8091    0.5599   -1.8956 H   0  0  0  0  0  0  0  0  0  0  0  0
   -4.5301    1.6738   -1.3635 H   0  0  0  0  0  0  0  0  0  0  0  0
   -6.3650   -0.8778    1.2796 H   0  0  0  0  0  0  0  0  0  0  0  0
   -5.7481    1.4483    1.9556 H   0  0  0  0  0  0  0  0  0  0  0  0
   -4.3777    2.1047    1.0590 H   0  0  0  0  0  0  0  0  0  0  0  0
   -4.3244   -0.4759    2.6862 H   0  0  0  0  0  0  0  0  0  0  0  0
   -3.6569    1.0720    3.1975 H   0  0  0  0  0  0  0  0  0  0  0  0
   -1.9685   -0.5563    2.1479 H   0  0  0  0  0  0  0  0  0  0  0  0
   -1.9986    1.0758    1.4614 H   0  0  0  0  0  0  0  0  0  0  0  0
   -0.3513    0.0880    0.6303 H   0  0  0  0  0  0  0  0  0  0  0  0
    4.9542   -1.4164   -2.7075 H   0  0  0  0  0  0  0  0  0  0  0  0
    7.2879   -0.8978   -2.2009 H   0  0  0  0  0  0  0  0  0  0  0  0
    7.8934    0.3684   -0.1700 H   0  0  0  0  0  0  0  0  0  0  0  0
    3.7340    0.6265    0.9176 H   0  0  0  0  0  0  0  0  0  0  0  0
    2.8555   -1.8226   -3.0438 H   0  0  0  0  0  0  0  0  0  0  0  0
    0.1593   -1.8869   -2.7175 H   0  0  0  0  0  0  0  0  0  0  0  0
   -4.2306   -1.1316   -1.1492 H   0  0  0  0  0  0  0  0  0  0  0  0
   -4.3653   -1.7032    0.4903 H   0  0  0  0  0  0  0  0  0  0  0  0
  1  2  1  0
  2  3  1  0
  2  4  1  0
  4  5  1  0
  5  6  1  0
  6  7  1  0
  7  8  1  0
  8  9  2  0
  8 10  1  0
 10 11  1  0
 11 12  2  0
 12 13  1  0
 13 14  1  0
 14 15  1  0
 15 16  2  0
 16 17  1  0
 17 18  2  0
 18 19  1  0
 19 20  1  0
 19 21  1  0
 19 22  1  0
 18 23  1  0
 13 24  1  0
 24 25  2  0
  7 26  1  0
 26  2  1  0
 25 11  1  0
 23 14  2  0
  1 27  1  0
  1 28  1  0
  1 29  1  0
  3 30  1  0
  4 31  1  0
  4 32  1  0
  5 33  1  0
  5 34  1  0
  6 35  1  0
  6 36  1  0
 10 37  1  0
 15 38  1  0
 16 39  1  0
 17 40  1  0
 23 41  1  0
 24 42  1  0
 25 43  1  0
 26 44  1  0
 26 45  1  0
M  END
$$$$
OCNT-2318328
     RDKit          3D

 46 49  0  0  0  0  0  0  0  0999 V2000
    0.8872   -1.2691    2.2556 O   0  0  0  0  0  0  0  0  0  0  0  0
    0.1390   -0.9404    1.3356 C   0  0  0  0  0  0  0  0  0  0  0  0
   -1.3711   -0.9856    1.5460 C   0  0  0  0  0  0  0  0  0  0  0  0
   -2.2944    0.0546    0.3805 S   0  0  0  0  0  0  0  0  0  0  0  0
   -3.9284   -0.2282    0.9077 C   0  0  0  0  0  0  0  0  0  0  0  0
   -4.2451   -1.0367    1.9196 N   0  0  0  0  0  0  0  0  0  0  0  0
   -5.5821   -0.9169    1.9501 N   0  0  0  0  0  0  0  0  0  0  0  0
   -6.0425   -0.0722    0.9736 C   0  0  0  0  0  0  0  0  0  0  0  0
   -7.4412    0.2717    0.7340 C   0  0  0  0  0  0  0  0  0  0  0  0
   -7.7765    1.1729   -0.2814 C   0  0  0  0  0  0  0  0  0  0  0  0
   -9.1099    1.5037   -0.5157 C   0  0  0  0  0  0  0  0  0  0  0  0
  -10.0802    0.9205    0.2794 C   0  0  0  0  0  0  0  0  0  0  0  0
   -9.8050    0.0487    1.2729 N   0  0  0  0  0  0  0  0  0  0  0  0
   -8.4991   -0.2528    1.4737 C   0  0  0  0  0  0  0  0  0  0  0  0
   -4.9956    0.3691    0.2990 N   0  0  0  0  0  0  0  0  0  0  0  0
    0.5436   -0.5843    0.0628 N   0  0  0  0  0  0  0  0  0  0  0  0
    1.8538   -0.5094   -0.4471 C   0  0  0  0  0  0  0  0  0  0  0  0
    2.0011   -0.0277   -1.7544 C   0  0  0  0  0  0  0  0  0  0  0  0
    3.2674    0.0825   -2.3352 C   0  0  0  0  0  0  0  0  0  0  0  0
    4.4000   -0.2803   -1.6101 C   0  0  0  0  0  0  0  0  0  0  0  0
    5.6095   -0.1761   -2.2576 O   0  0  0  0  0  0  0  0  0  0  0  0
    6.6843    0.2857   -1.5332 C   0  0  0  0  0  0  0  0  0  0  0  0
    7.8815   -0.4199   -1.6546 C   0  0  0  0  0  0  0  0  0  0  0  0
    9.0157    0.0112   -0.9660 C   0  0  0  0  0  0  0  0  0  0  0  0
    8.9555    1.1568   -0.1727 C   0  0  0  0  0  0  0  0  0  0  0  0
    7.7646    1.8772   -0.0732 C   0  0  0  0  0  0  0  0  0  0  0  0
    6.6281    1.4474   -0.7598 C   0  0  0  0  0  0  0  0  0  0  0  0
    4.2617   -0.7921   -0.3199 C   0  0  0  0  0  0  0  0  0  0  0  0
    2.9928   -0.8960    0.2620 C   0  0  0  0  0  0  0  0  0  0  0  0
   -1.5726   -0.6437    2.5667 H   0  0  0  0  0  0  0  0  0  0  0  0
   -1.6841   -2.0297    1.4408 H   0  0  0  0  0  0  0  0  0  0  0  0
   -6.1039   -1.4331    2.6479 H   0  0  0  0  0  0  0  0  0  0  0  0
   -6.9975    1.6212   -0.8960 H   0  0  0  0  0  0  0  0  0  0  0  0
   -9.3812    2.1994   -1.3014 H   0  0  0  0  0  0  0  0  0  0  0  0
  -11.1337    1.1446    0.1354 H   0  0  0  0  0  0  0  0  0  0  0  0
   -8.3472   -0.9599    2.2831 H   0  0  0  0  0  0  0  0  0  0  0  0
   -0.2005   -0.2869   -0.5597 H   0  0  0  0  0  0  0  0  0  0  0  0
    1.1348    0.2712   -2.3391 H   0  0  0  0  0  0  0  0  0  0  0  0
    3.3699    0.4558   -3.3502 H   0  0  0  0  0  0  0  0  0  0  0  0
    7.9279   -1.3077   -2.2789 H   0  0  0  0  0  0  0  0  0  0  0  0
    9.9441   -0.5462   -1.0492 H   0  0  0  0  0  0  0  0  0  0  0  0
    9.8397    1.4923    0.3639 H   0  0  0  0  0  0  0  0  0  0  0  0
    7.7218    2.7747    0.5377 H   0  0  0  0  0  0  0  0  0  0  0  0
    5.7058    2.0180   -0.6866 H   0  0  0  0  0  0  0  0  0  0  0  0
    5.1307   -1.1202    0.2447 H   0  0  0  0  0  0  0  0  0  0  0  0
    2.9312   -1.2954    1.2693 H   0  0  0  0  0  0  0  0  0  0  0  0
  1  2  2  0
  2  3  1  0
  3  4  1  0
  4  5  1  0
  5  6  2  0
  6  7  1  0
  7  8  1  0
  8  9  1  0
  9 10  1  0
 10 11  2  0
 11 12  1  0
 12 13  2  0
 13 14  1  0
  8 15  2  0
  2 16  1  0
 16 17  1  0
 17 18  1  0
 18 19  2  0
 19 20  1  0
 20 21  1  0
 21 22  1  0
 22 23  2  0
 23 24  1  0
 24 25  2  0
 25 26  1  0
 26 27  2  0
 20 28  2  0
 28 29  1  0
 15  5  1  0
 29 17  2  0
 14  9  2  0
 27 22  1  0
  3 30  1  0
  3 31  1  0
  7 32  1  0
 10 33  1  0
 11 34  1  0
 12 35  1  0
 14 36  1  0
 16 37  1  0
 18 38  1  0
 19 39  1  0
 23 40  1  0
 24 41  1  0
 25 42  1  0
 26 43  1  0
 27 44  1  0
 28 45  1  0
 29 46  1  0
M  END
$$$$
OCNT-2318330
     RDKit          3D

 36 38  0  0  0  0  0  0  0  0999 V2000
   -1.1388    1.1642    1.5245 C   0  0  0  0  0  0  0  0  0  0  0  0
   -1.1032   -0.1642    0.8692 C   0  0  0  0  0  0  0  0  0  0  0  0
   -2.0773   -0.7712    0.0978 C   0  0  0  0  0  0  0  0  0  0  0  0
   -3.4072   -0.4104   -0.3793 C   0  0  0  0  0  0  0  0  0  0  0  0
   -3.7243    0.9170   -0.7015 C   0  0  0  0  0  0  0  0  0  0  0  0
   -5.0018    1.2567   -1.1566 C   0  0  0  0  0  0  0  0  0  0  0  0
   -5.9782    0.2733   -1.2973 C   0  0  0  0  0  0  0  0  0  0  0  0
   -5.6782   -1.0509   -0.9866 C   0  0  0  0  0  0  0  0  0  0  0  0
   -4.4010   -1.3904   -0.5320 C   0  0  0  0  0  0  0  0  0  0  0  0
   -1.6279   -1.9960   -0.3001 O   0  0  0  0  0  0  0  0  0  0  0  0
   -0.3526   -2.2111    0.1792 N   0  0  0  0  0  0  0  0  0  0  0  0
   -0.0427   -1.1176    0.8878 C   0  0  0  0  0  0  0  0  0  0  0  0
    1.3013   -1.0178    1.5319 C   0  0  0  0  0  0  0  0  0  0  0  0
    2.2466   -0.5115    0.5139 N   0  0  0  0  0  0  0  0  0  0  0  0
    3.8143   -0.3487    1.0964 S   0  0  0  0  0  0  0  0  0  0  0  0
    4.3822   -1.6728    1.1888 O   0  0  0  0  0  0  0  0  0  0  0  0
    3.7808    0.5570    2.2222 O   0  0  0  0  0  0  0  0  0  0  0  0
    4.7540    0.4427   -0.0857 C   0  0  0  0  0  0  0  0  0  0  0  0
    5.5506    1.5439    0.1316 C   0  0  0  0  0  0  0  0  0  0  0  0
    6.1648    1.9196   -1.0232 O   0  0  0  0  0  0  0  0  0  0  0  0
    5.7596    1.0451   -1.9846 C   0  0  0  0  0  0  0  0  0  0  0  0
    4.8942    0.1233   -1.4494 C   0  0  0  0  0  0  0  0  0  0  0  0
    4.0727   -1.2813   -2.3756 Br  0  0  0  0  0  0  0  0  0  0  0  0
   -0.4903    1.1943    2.4058 H   0  0  0  0  0  0  0  0  0  0  0  0
   -0.8030    1.9398    0.8284 H   0  0  0  0  0  0  0  0  0  0  0  0
   -2.1508    1.4134    1.8604 H   0  0  0  0  0  0  0  0  0  0  0  0
   -2.9767    1.7018   -0.6204 H   0  0  0  0  0  0  0  0  0  0  0  0
   -5.2318    2.2898   -1.4071 H   0  0  0  0  0  0  0  0  0  0  0  0
   -6.9709    0.5375   -1.6530 H   0  0  0  0  0  0  0  0  0  0  0  0
   -6.4368   -1.8217   -1.0968 H   0  0  0  0  0  0  0  0  0  0  0  0
   -4.1898   -2.4310   -0.2908 H   0  0  0  0  0  0  0  0  0  0  0  0
    1.6180   -2.0078    1.8805 H   0  0  0  0  0  0  0  0  0  0  0  0
    1.2621   -0.3407    2.3904 H   0  0  0  0  0  0  0  0  0  0  0  0
    2.2376   -1.1333   -0.3002 H   0  0  0  0  0  0  0  0  0  0  0  0
    5.7748    2.1462    1.0025 H   0  0  0  0  0  0  0  0  0  0  0  0
    6.1696    1.2127   -2.9709 H   0  0  0  0  0  0  0  0  0  0  0  0
  1  2  1  0
  2  3  2  0
  3  4  1  0
  4  5  2  0
  5  6  1  0
  6  7  2  0
  7  8  1  0
  8  9  2  0
  3 10  1  0
 10 11  1  0
 11 12  2  0
 12 13  1  0
 13 14  1  0
 14 15  1  0
 15 16  2  0
 15 17  2  0
 15 18  1  0
 18 19  2  0
 19 20  1  0
 20 21  1  0
 21 22  2  0
 22 23  1  0
 12  2  1  0
 22 18  1  0
  9  4  1  0
  1 24  1  0
  1 25  1  0
  1 26  1  0
  5 27  1  0
  6 28  1  0
  7 29  1  0
  8 30  1  0
  9 31  1  0
 13 32  1  0
 13 33  1  0
 14 34  1  0
 19 35  1  0
 21 36  1  0
M  END
$$$$
OCNT-2318340
     RDKit          3D

 37 39  0  0  0  0  0  0  0  0999 V2000
    1.7814   -2.3968    0.9945 O   0  0  0  0  0  0  0  0  0  0  0  0
    2.0395   -1.2102    1.1603 C   0  0  0  0  0  0  0  0  0  0  0  0
    1.2402   -0.3474    1.8791 N   0  0  0  0  0  0  0  0  0  0  0  0
   -0.0233   -0.7805    2.4330 C   0  0  0  0  0  0  0  0  0  0  0  0
   -1.1590   -0.4536    1.4987 C   0  0  0  0  0  0  0  0  0  0  0  0
   -1.4798   -1.3134    0.4426 C   0  0  0  0  0  0  0  0  0  0  0  0
   -2.5179   -1.0059   -0.4463 C   0  0  0  0  0  0  0  0  0  0  0  0
   -3.2586    0.1788   -0.3012 C   0  0  0  0  0  0  0  0  0  0  0  0
   -4.3133    0.4832   -1.2119 N   0  0  0  0  0  0  0  0  0  0  0  0
   -5.1422    1.5855   -1.2256 C   0  0  0  0  0  0  0  0  0  0  0  0
   -5.9922    1.4242   -2.2936 C   0  0  0  0  0  0  0  0  0  0  0  0
   -5.7269    0.2608   -2.9496 N   0  0  0  0  0  0  0  0  0  0  0  0
   -4.7275   -0.2798   -2.2877 C   0  0  0  0  0  0  0  0  0  0  0  0
   -2.9245    1.0372    0.7531 C   0  0  0  0  0  0  0  0  0  0  0  0
   -3.5685    2.1920    0.9673 F   0  0  0  0  0  0  0  0  0  0  0  0
   -1.8888    0.7298    1.6395 C   0  0  0  0  0  0  0  0  0  0  0  0
    3.2546   -0.6216    0.5330 C   0  0  0  0  0  0  0  0  0  0  0  0
    3.7695   -1.2322   -0.6195 C   0  0  0  0  0  0  0  0  0  0  0  0
    4.9087   -0.7190   -1.2447 C   0  0  0  0  0  0  0  0  0  0  0  0
    5.5397    0.4032   -0.7106 C   0  0  0  0  0  0  0  0  0  0  0  0
    6.6533    0.9108   -1.3196 O   0  0  0  0  0  0  0  0  0  0  0  0
    5.0403    1.0073    0.4484 C   0  0  0  0  0  0  0  0  0  0  0  0
    5.8067    2.3891    1.1437 Cl  0  0  0  0  0  0  0  0  0  0  0  0
    3.9016    0.4949    1.0748 C   0  0  0  0  0  0  0  0  0  0  0  0
    1.3803    0.6486    1.7869 H   0  0  0  0  0  0  0  0  0  0  0  0
   -0.0037   -1.8547    2.6491 H   0  0  0  0  0  0  0  0  0  0  0  0
   -0.1548   -0.2606    3.3885 H   0  0  0  0  0  0  0  0  0  0  0  0
   -0.9127   -2.2346    0.3022 H   0  0  0  0  0  0  0  0  0  0  0  0
   -2.7087   -1.7230   -1.2393 H   0  0  0  0  0  0  0  0  0  0  0  0
   -5.0831    2.3862   -0.5060 H   0  0  0  0  0  0  0  0  0  0  0  0
   -6.7810    2.0904   -2.6189 H   0  0  0  0  0  0  0  0  0  0  0  0
   -4.2759   -1.2234   -2.5571 H   0  0  0  0  0  0  0  0  0  0  0  0
   -1.6665    1.4311    2.4396 H   0  0  0  0  0  0  0  0  0  0  0  0
    3.2796   -2.1122   -1.0343 H   0  0  0  0  0  0  0  0  0  0  0  0
    5.2853   -1.2073   -2.1389 H   0  0  0  0  0  0  0  0  0  0  0  0
    6.8792    0.3676   -2.0922 H   0  0  0  0  0  0  0  0  0  0  0  0
    3.5492    0.9556    1.9925 H   0  0  0  0  0  0  0  0  0  0  0  0
  1  2  2  0
  2  3  1  0
  3  4  1  0
  4  5  1  0
  5  6  1  0
  6  7  2  0
  7  8  1  0
  8  9  1  0
  9 10  1  0
 10 11  2  0
 11 12  1  0
 12 13  2  0
  8 14  2  0
 14 15  1  0
 14 16  1  0
  2 17  1  0
 17 18  1  0
 18 19  2  0
 19 20  1  0
 20 21  1  0
 20 22  2  0
 22 23  1  0
 22 24  1  0
 16  5  2  0
 24 17  2  0
 13  9  1  0
  3 25  1  0
  4 26  1  0
  4 27  1  0
  6 28  1  0
  7 29  1  0
 10 30  1  0
 11 31  1  0
 13 32  1  0
 16 33  1  0
 18 34  1  0
 19 35  1  0
 21 36  1  0
 24 37  1  0
M  END
$$$$
OCNT-2318346
     RDKit          3D

 50 53  0  0  0  0  0  0  0  0999 V2000
   -1.9262   -0.4974   -3.6768 C   0  0  0  0  0  0  0  0  0  0  0  0
   -0.5928    0.1121   -3.4621 C   0  0  0  0  0  0  0  0  0  0  0  0
   -0.0014    0.7938   -4.4526 N   0  0  0  0  0  0  0  0  0  0  0  0
    1.2232    1.2053   -3.9479 O   0  0  0  0  0  0  0  0  0  0  0  0
    1.3595    0.7756   -2.6630 C   0  0  0  0  0  0  0  0  0  0  0  0
    2.4443    1.0125   -1.9041 N   0  0  0  0  0  0  0  0  0  0  0  0
    2.4006    0.4712   -0.6631 C   0  0  0  0  0  0  0  0  0  0  0  0
    3.6115    0.6987    0.1584 C   0  0  0  0  0  0  0  0  0  0  0  0
    4.3390    1.8974    0.0441 C   0  0  0  0  0  0  0  0  0  0  0  0
    5.4783    2.1385    0.8159 C   0  0  0  0  0  0  0  0  0  0  0  0
    5.9243    1.1781    1.7195 C   0  0  0  0  0  0  0  0  0  0  0  0
    5.2420   -0.0376    1.8498 C   0  0  0  0  0  0  0  0  0  0  0  0
    5.7096   -1.0837    2.8321 C   0  0  0  0  0  0  0  0  0  0  0  0
    5.5519   -2.3540    2.3663 F   0  0  0  0  0  0  0  0  0  0  0  0
    7.0250   -0.9682    3.1640 F   0  0  0  0  0  0  0  0  0  0  0  0
    5.0196   -1.0293    4.0048 F   0  0  0  0  0  0  0  0  0  0  0  0
    4.0896   -0.2617    1.0708 C   0  0  0  0  0  0  0  0  0  0  0  0
    1.2996   -0.2325   -0.1742 C   0  0  0  0  0  0  0  0  0  0  0  0
    0.1782   -0.4024   -0.9920 C   0  0  0  0  0  0  0  0  0  0  0  0
   -0.9832   -1.1530   -0.5087 C   0  0  0  0  0  0  0  0  0  0  0  0
   -1.1268   -2.2828   -0.9660 O   0  0  0  0  0  0  0  0  0  0  0  0
   -1.8463   -0.5614    0.4177 N   0  0  0  0  0  0  0  0  0  0  0  0
   -1.7332    0.8238    0.8982 C   0  0  0  0  0  0  0  0  0  0  0  0
   -2.4208    1.8293   -0.0283 C   0  0  0  0  0  0  0  0  0  0  0  0
   -4.2348    1.9153    0.1256 S   0  0  0  0  0  0  0  0  0  0  0  0
   -4.6926    0.1590   -0.0698 C   0  0  0  0  0  0  0  0  0  0  0  0
   -4.2851   -0.6787    1.1487 C   0  0  0  0  0  0  0  0  0  0  0  0
   -5.3580   -1.7353    1.4443 C   0  0  0  0  0  0  0  0  0  0  0  0
   -2.9359   -1.3866    0.9421 C   0  0  0  0  0  0  0  0  0  0  0  0
    0.2166    0.0865   -2.2996 C   0  0  0  0  0  0  0  0  0  0  0  0
   -2.3431   -0.2207   -4.6509 H   0  0  0  0  0  0  0  0  0  0  0  0
   -2.6298   -0.1656   -2.9079 H   0  0  0  0  0  0  0  0  0  0  0  0
   -1.8577   -1.5889   -3.6388 H   0  0  0  0  0  0  0  0  0  0  0  0
    4.0154    2.6640   -0.6600 H   0  0  0  0  0  0  0  0  0  0  0  0
    6.0171    3.0769    0.7056 H   0  0  0  0  0  0  0  0  0  0  0  0
    6.8138    1.3783    2.3154 H   0  0  0  0  0  0  0  0  0  0  0  0
    3.5787   -1.2196    1.1717 H   0  0  0  0  0  0  0  0  0  0  0  0
    1.2923   -0.6385    0.8331 H   0  0  0  0  0  0  0  0  0  0  0  0
   -0.6752    1.0913    0.9545 H   0  0  0  0  0  0  0  0  0  0  0  0
   -2.1046    0.8863    1.9274 H   0  0  0  0  0  0  0  0  0  0  0  0
   -2.1763    1.6381   -1.0770 H   0  0  0  0  0  0  0  0  0  0  0  0
   -2.0500    2.8323    0.2086 H   0  0  0  0  0  0  0  0  0  0  0  0
   -4.2827   -0.2337   -1.0060 H   0  0  0  0  0  0  0  0  0  0  0  0
   -5.7825    0.1594   -0.1808 H   0  0  0  0  0  0  0  0  0  0  0  0
   -4.2247   -0.0457    2.0435 H   0  0  0  0  0  0  0  0  0  0  0  0
   -6.3167   -1.2597    1.6776 H   0  0  0  0  0  0  0  0  0  0  0  0
   -5.0731   -2.3486    2.3059 H   0  0  0  0  0  0  0  0  0  0  0  0
   -5.5094   -2.4008    0.5874 H   0  0  0  0  0  0  0  0  0  0  0  0
   -2.5857   -1.7802    1.9049 H   0  0  0  0  0  0  0  0  0  0  0  0
   -3.0815   -2.2568    0.2915 H   0  0  0  0  0  0  0  0  0  0  0  0
  1  2  1  0
  2  3  2  0
  3  4  1  0
  4  5  1  0
  5  6  2  0
  6  7  1  0
  7  8  1  0
  8  9  1  0
  9 10  2  0
 10 11  1  0
 11 12  2  0
 12 13  1  0
 13 14  1  0
 13 15  1  0
 13 16  1  0
 12 17  1  0
  7 18  2  0
 18 19  1  0
 19 20  1  0
 20 21  2  0
 20 22  1  0
 22 23  1  0
 23 24  1  0
 24 25  1  0
 25 26  1  0
 26 27  1  0
 27 28  1  0
 27 29  1  0
 19 30  2  0
 30  2  1  0
 30  5  1  0
 17  8  2  0
 29 22  1  0
  1 31  1  0
  1 32  1  0
  1 33  1  0
  9 34  1  0
 10 35  1  0
 11 36  1  0
 17 37  1  0
 18 38  1  0
 23 39  1  0
 23 40  1  0
 24 41  1  0
 24 42  1  0
 26 43  1  0
 26 44  1  0
 27 45  1  0
 28 46  1  0
 28 47  1  0
 28 48  1  0
 29 49  1  0
 29 50  1  0
M  END
$$$$
