OCNT-2309634
     RDKit          3D

 52 56  0  0  0  0  0  0  0  0999 V2000
   -7.0381   -0.0051    1.1067 C   0  0  0  0  0  0  0  0  0  0  0  0
   -6.0607    0.3820    0.0325 C   0  0  0  0  0  0  0  0  0  0  0  0
   -6.4376    0.8915   -1.2276 C   0  0  0  0  0  0  0  0  0  0  0  0
   -7.6535    1.1964   -1.8852 C   0  0  0  0  0  0  0  0  0  0  0  0
   -7.4734    1.6733   -3.1195 N   0  0  0  0  0  0  0  0  0  0  0  0
   -6.1367    1.6782   -3.2557 N   0  0  0  0  0  0  0  0  0  0  0  0
   -5.4576    1.2165   -2.1580 C   0  0  0  0  0  0  0  0  0  0  0  0
   -4.0882    1.0645   -1.9126 C   0  0  0  0  0  0  0  0  0  0  0  0
   -3.7036    0.5714   -0.6576 C   0  0  0  0  0  0  0  0  0  0  0  0
   -2.3200    0.4114   -0.4323 N   0  0  0  0  0  0  0  0  0  0  0  0
   -1.6871    0.2156    0.7775 C   0  0  0  0  0  0  0  0  0  0  0  0
   -2.2244    0.3285    1.8758 O   0  0  0  0  0  0  0  0  0  0  0  0
   -0.3247   -0.0941    0.6464 N   0  0  0  0  0  0  0  0  0  0  0  0
    0.1250   -0.9703   -0.4369 C   0  0  0  0  0  0  0  0  0  0  0  0
    1.6155   -1.0992   -0.4785 C   0  0  0  0  0  0  0  0  0  0  0  0
    2.4451   -0.6239    0.4648 C   0  0  0  0  0  0  0  0  0  0  0  0
    3.8651   -0.7303    0.3926 C   0  0  0  0  0  0  0  0  0  0  0  0
    4.6242   -1.6783    1.0524 C   0  0  0  0  0  0  0  0  0  0  0  0
    4.2460   -2.7860    1.9661 C   0  0  0  0  0  0  0  0  0  0  0  0
    5.9377   -1.4371    0.7244 N   0  0  0  0  0  0  0  0  0  0  0  0
    6.0386   -0.3678   -0.1361 C   0  0  0  0  0  0  0  0  0  0  0  0
    7.1689    0.2158   -0.7216 C   0  0  0  0  0  0  0  0  0  0  0  0
    6.9680    1.3105   -1.5684 C   0  0  0  0  0  0  0  0  0  0  0  0
    5.6880    1.8004   -1.8176 C   0  0  0  0  0  0  0  0  0  0  0  0
    4.5693    1.2043   -1.2245 C   0  0  0  0  0  0  0  0  0  0  0  0
    4.7445    0.0982   -0.3665 C   0  0  0  0  0  0  0  0  0  0  0  0
    1.9209    0.0787    1.6865 C   0  0  0  0  0  0  0  0  0  0  0  0
    0.4319   -0.2005    1.8945 C   0  0  0  0  0  0  0  0  0  0  0  0
   -4.6775    0.2308    0.2864 C   0  0  0  0  0  0  0  0  0  0  0  0
   -6.8678    0.5962    2.0059 H   0  0  0  0  0  0  0  0  0  0  0  0
   -8.0718    0.1532    0.7853 H   0  0  0  0  0  0  0  0  0  0  0  0
   -6.9212   -1.0642    1.3577 H   0  0  0  0  0  0  0  0  0  0  0  0
   -8.6628    1.0864   -1.5102 H   0  0  0  0  0  0  0  0  0  0  0  0
   -5.7464    2.0126   -4.1292 H   0  0  0  0  0  0  0  0  0  0  0  0
   -3.3584    1.3296   -2.6697 H   0  0  0  0  0  0  0  0  0  0  0  0
   -1.7109    0.7281   -1.1704 H   0  0  0  0  0  0  0  0  0  0  0  0
   -0.3314   -1.9555   -0.2884 H   0  0  0  0  0  0  0  0  0  0  0  0
   -0.2190   -0.5862   -1.4007 H   0  0  0  0  0  0  0  0  0  0  0  0
    2.0304   -1.6113   -1.3439 H   0  0  0  0  0  0  0  0  0  0  0  0
    3.2850   -3.2229    1.6773 H   0  0  0  0  0  0  0  0  0  0  0  0
    4.1620   -2.4164    2.9929 H   0  0  0  0  0  0  0  0  0  0  0  0
    4.9925   -3.5865    1.9493 H   0  0  0  0  0  0  0  0  0  0  0  0
    6.7274   -1.9683    1.0635 H   0  0  0  0  0  0  0  0  0  0  0  0
    8.1675   -0.1614   -0.5282 H   0  0  0  0  0  0  0  0  0  0  0  0
    7.8250    1.7888   -2.0364 H   0  0  0  0  0  0  0  0  0  0  0  0
    5.5545    2.6551   -2.4754 H   0  0  0  0  0  0  0  0  0  0  0  0
    3.5746    1.5932   -1.4193 H   0  0  0  0  0  0  0  0  0  0  0  0
    2.0745    1.1585    1.5616 H   0  0  0  0  0  0  0  0  0  0  0  0
    2.4606   -0.2252    2.5910 H   0  0  0  0  0  0  0  0  0  0  0  0
    0.2750   -1.2113    2.2933 H   0  0  0  0  0  0  0  0  0  0  0  0
    0.0407    0.5046    2.6370 H   0  0  0  0  0  0  0  0  0  0  0  0
   -4.3855   -0.1727    1.2538 H   0  0  0  0  0  0  0  0  0  0  0  0
  1  2  1  0
  2  3  2  0
  3  4  1  0
  4  5  2  0
  5  6  1  0
  6  7  1  0
  7  8  2  0
  8  9  1  0
  9 10  1  0
 10 11  1  0
 11 12  2  0
 11 13  1  0
 13 14  1  0
 14 15  1  0
 15 16  2  0
 16 17  1  0
 17 18  2  0
 18 19  1  0
 18 20  1  0
 20 21  1  0
 21 22  2  0
 22 23  1  0
 23 24  2  0
 24 25  1  0
 25 26  2  0
 16 27  1  0
 27 28  1  0
  9 29  2  0
 29  2  1  0
  7  3  1  0
 28 13  1  0
 26 17  1  0
 26 21  1  0
  1 30  1  0
  1 31  1  0
  1 32  1  0
  4 33  1  0
  6 34  1  0
  8 35  1  0
 10 36  1  0
 14 37  1  0
 14 38  1  0
 15 39  1  0
 19 40  1  0
 19 41  1  0
 19 42  1  0
 20 43  1  0
 22 44  1  0
 23 45  1  0
 24 46  1  0
 25 47  1  0
 27 48  1  0
 27 49  1  0
 28 50  1  0
 28 51  1  0
 29 52  1  0
M  END
$$$$
OCNT-2309635
     RDKit          3D

 41 45  0  0  0  0  0  0  0  0999 V2000
   -1.4269    1.6544    0.7373 O   0  0  0  0  0  0  0  0  0  0  0  0
   -1.7822    0.4967    0.9416 C   0  0  0  0  0  0  0  0  0  0  0  0
   -0.9362   -0.5867    1.0108 N   0  0  0  0  0  0  0  0  0  0  0  0
    0.4351   -0.6242    0.6803 C   0  0  0  0  0  0  0  0  0  0  0  0
    1.1500   -1.7613    1.0674 C   0  0  0  0  0  0  0  0  0  0  0  0
    2.5127   -1.8954    0.7716 C   0  0  0  0  0  0  0  0  0  0  0  0
    3.1782   -0.8754    0.0667 C   0  0  0  0  0  0  0  0  0  0  0  0
    4.5149   -0.8764   -0.2920 N   0  0  0  0  0  0  0  0  0  0  0  0
    4.7894    0.2322   -0.9369 C   0  0  0  0  0  0  0  0  0  0  0  0
    6.2267    0.5236   -1.4786 C   0  0  0  0  0  0  0  0  0  0  0  0
    7.4203    0.0923   -0.6647 C   0  0  0  0  0  0  0  0  0  0  0  0
    7.0816    1.5497   -0.7791 C   0  0  0  0  0  0  0  0  0  0  0  0
    3.4989    1.3246   -1.1716 S   0  0  0  0  0  0  0  0  0  0  0  0
    2.4503    0.2497   -0.3241 C   0  0  0  0  0  0  0  0  0  0  0  0
    1.0805    0.3938   -0.0318 C   0  0  0  0  0  0  0  0  0  0  0  0
   -3.1225    0.1855    1.1715 N   0  0  0  0  0  0  0  0  0  0  0  0
   -4.0649    1.3070    1.2558 C   0  0  0  0  0  0  0  0  0  0  0  0
   -4.6451    1.6163   -0.1222 C   0  0  0  0  0  0  0  0  0  0  0  0
   -5.0867    0.3820   -0.7437 N   0  0  0  0  0  0  0  0  0  0  0  0
   -5.9445    0.2411   -1.7886 C   0  0  0  0  0  0  0  0  0  0  0  0
   -6.1109   -1.0271   -2.0938 N   0  0  0  0  0  0  0  0  0  0  0  0
   -5.3178   -1.7247   -1.2159 C   0  0  0  0  0  0  0  0  0  0  0  0
   -4.6660   -0.8675   -0.3565 C   0  0  0  0  0  0  0  0  0  0  0  0
   -3.7282   -1.0919    0.7779 C   0  0  0  0  0  0  0  0  0  0  0  0
   -1.2814   -1.3613    1.5564 H   0  0  0  0  0  0  0  0  0  0  0  0
    0.6637   -2.5673    1.6114 H   0  0  0  0  0  0  0  0  0  0  0  0
    3.0637   -2.7787    1.0787 H   0  0  0  0  0  0  0  0  0  0  0  0
    6.3143    0.4450   -2.5567 H   0  0  0  0  0  0  0  0  0  0  0  0
    7.2435   -0.4008    0.2851 H   0  0  0  0  0  0  0  0  0  0  0  0
    8.2876   -0.2764   -1.1992 H   0  0  0  0  0  0  0  0  0  0  0  0
    7.7217    2.1749   -1.3904 H   0  0  0  0  0  0  0  0  0  0  0  0
    6.6871    2.0450    0.1011 H   0  0  0  0  0  0  0  0  0  0  0  0
    0.5582    1.2813   -0.3711 H   0  0  0  0  0  0  0  0  0  0  0  0
   -3.5776    2.1952    1.6722 H   0  0  0  0  0  0  0  0  0  0  0  0
   -4.8589    1.0144    1.9545 H   0  0  0  0  0  0  0  0  0  0  0  0
   -5.5001    2.2953   -0.0490 H   0  0  0  0  0  0  0  0  0  0  0  0
   -3.8901    2.0484   -0.7877 H   0  0  0  0  0  0  0  0  0  0  0  0
   -6.4155    1.0772   -2.2888 H   0  0  0  0  0  0  0  0  0  0  0  0
   -5.2659   -2.8055   -1.2502 H   0  0  0  0  0  0  0  0  0  0  0  0
   -4.2789   -1.4729    1.6449 H   0  0  0  0  0  0  0  0  0  0  0  0
   -2.9781   -1.8323    0.4891 H   0  0  0  0  0  0  0  0  0  0  0  0
  1  2  2  0
  2  3  1  0
  3  4  1  0
  4  5  2  0
  5  6  1  0
  6  7  2  0
  7  8  1  0
  8  9  2  0
  9 10  1  0
 10 11  1  0
 11 12  1  0
  9 13  1  0
 13 14  1  0
 14 15  2  0
  2 16  1  0
 16 17  1  0
 17 18  1  0
 18 19  1  0
 19 20  1  0
 20 21  2  0
 21 22  1  0
 22 23  2  0
 23 24  1  0
 15  4  1  0
 24 16  1  0
 14  7  1  0
 23 19  1  0
 12 10  1  0
  3 25  1  0
  5 26  1  0
  6 27  1  0
 10 28  1  0
 11 29  1  0
 11 30  1  0
 12 31  1  0
 12 32  1  0
 15 33  1  0
 17 34  1  0
 17 35  1  0
 18 36  1  0
 18 37  1  0
 20 38  1  0
 22 39  1  0
 24 40  1  0
 24 41  1  0
M  END
$$$$
OCNT-2309641
     RDKit          3D

 50 53  0  0  0  0  0  0  0  0999 V2000
    1.1910   -2.8476    0.7787 C   0  0  0  0  0  0  0  0  0  0  0  0
    1.8914   -1.5705    0.4906 C   0  0  0  0  0  0  0  0  0  0  0  0
    3.2220   -1.5595    0.3865 N   0  0  0  0  0  0  0  0  0  0  0  0
    3.5331   -0.3038   -0.0240 N   0  0  0  0  0  0  0  0  0  0  0  0
    4.8733   -0.0233   -0.4015 C   0  0  0  0  0  0  0  0  0  0  0  0
    5.8957   -0.6696    0.3211 C   0  0  0  0  0  0  0  0  0  0  0  0
    7.2381   -0.4153    0.0355 C   0  0  0  0  0  0  0  0  0  0  0  0
    7.5671    0.4653   -0.9889 C   0  0  0  0  0  0  0  0  0  0  0  0
    9.2200    0.7831   -1.3439 Cl  0  0  0  0  0  0  0  0  0  0  0  0
    6.5677    1.0725   -1.7461 C   0  0  0  0  0  0  0  0  0  0  0  0
    5.2174    0.8194   -1.4677 C   0  0  0  0  0  0  0  0  0  0  0  0
    4.0828    1.4502   -2.6104 Cl  0  0  0  0  0  0  0  0  0  0  0  0
    2.4441    0.5460    0.1216 C   0  0  0  0  0  0  0  0  0  0  0  0
    2.5131    2.0327    0.1212 C   0  0  0  0  0  0  0  0  0  0  0  0
    1.3421   -0.2716    0.3408 C   0  0  0  0  0  0  0  0  0  0  0  0
   -0.0934    0.1363    0.4938 C   0  0  0  0  0  0  0  0  0  0  0  0
   -1.0232   -0.4590   -0.5509 C   0  0  0  0  0  0  0  0  0  0  0  0
   -0.5815   -1.0768   -1.5269 O   0  0  0  0  0  0  0  0  0  0  0  0
   -2.3918   -0.3183   -0.3893 N   0  0  0  0  0  0  0  0  0  0  0  0
   -3.2845   -0.9345   -1.3819 C   0  0  0  0  0  0  0  0  0  0  0  0
   -4.7197   -0.8271   -0.8539 C   0  0  0  0  0  0  0  0  0  0  0  0
   -5.6933   -0.3904   -1.9461 C   0  0  0  0  0  0  0  0  0  0  0  0
   -7.0461   -0.5583   -1.5286 O   0  0  0  0  0  0  0  0  0  0  0  0
   -4.5371    0.1592    0.2704 C   0  0  0  0  0  0  0  0  0  0  0  0
   -5.5408    0.7487    1.0311 C   0  0  0  0  0  0  0  0  0  0  0  0
   -5.1778    1.6062    2.0656 C   0  0  0  0  0  0  0  0  0  0  0  0
   -3.8273    1.8577    2.3277 C   0  0  0  0  0  0  0  0  0  0  0  0
   -2.8216    1.2548    1.5606 C   0  0  0  0  0  0  0  0  0  0  0  0
   -3.1804    0.3986    0.5314 C   0  0  0  0  0  0  0  0  0  0  0  0
    1.7609   -3.4550    1.4891 H   0  0  0  0  0  0  0  0  0  0  0  0
    0.2032   -2.6730    1.2147 H   0  0  0  0  0  0  0  0  0  0  0  0
    1.0614   -3.4234   -0.1423 H   0  0  0  0  0  0  0  0  0  0  0  0
    5.6516   -1.3581    1.1301 H   0  0  0  0  0  0  0  0  0  0  0  0
    8.0152   -0.9077    0.6147 H   0  0  0  0  0  0  0  0  0  0  0  0
    6.8413    1.7197   -2.5761 H   0  0  0  0  0  0  0  0  0  0  0  0
    3.5341    2.4113    0.2165 H   0  0  0  0  0  0  0  0  0  0  0  0
    2.0576    2.4433   -0.7845 H   0  0  0  0  0  0  0  0  0  0  0  0
    1.9553    2.4293    0.9770 H   0  0  0  0  0  0  0  0  0  0  0  0
   -0.4217   -0.1866    1.4874 H   0  0  0  0  0  0  0  0  0  0  0  0
   -0.1668    1.2257    0.4171 H   0  0  0  0  0  0  0  0  0  0  0  0
   -2.9983   -1.9799   -1.5462 H   0  0  0  0  0  0  0  0  0  0  0  0
   -3.1444   -0.3976   -2.3287 H   0  0  0  0  0  0  0  0  0  0  0  0
   -5.0324   -1.7830   -0.4155 H   0  0  0  0  0  0  0  0  0  0  0  0
   -5.5525    0.6616   -2.2154 H   0  0  0  0  0  0  0  0  0  0  0  0
   -5.5573   -0.9926   -2.8509 H   0  0  0  0  0  0  0  0  0  0  0  0
   -7.1959   -1.5079   -1.3799 H   0  0  0  0  0  0  0  0  0  0  0  0
   -6.5897    0.5492    0.8287 H   0  0  0  0  0  0  0  0  0  0  0  0
   -5.9461    2.0818    2.6705 H   0  0  0  0  0  0  0  0  0  0  0  0
   -3.5561    2.5335    3.1362 H   0  0  0  0  0  0  0  0  0  0  0  0
   -1.7998    1.5042    1.8049 H   0  0  0  0  0  0  0  0  0  0  0  0
  1  2  1  0
  2  3  2  0
  3  4  1  0
  4  5  1  0
  5  6  1  0
  6  7  2  0
  7  8  1  0
  8  9  1  0
  8 10  2  0
 10 11  1  0
 11 12  1  0
  4 13  1  0
 13 14  1  0
 13 15  2  0
 15 16  1  0
 16 17  1  0
 17 18  2  0
 17 19  1  0
 19 20  1  0
 20 21  1  0
 21 22  1  0
 22 23  1  0
 21 24  1  0
 24 25  2  0
 25 26  1  0
 26 27  2  0
 27 28  1  0
 28 29  2  0
 15  2  1  0
 29 19  1  0
 11  5  2  0
 29 24  1  0
  1 30  1  0
  1 31  1  0
  1 32  1  0
  6 33  1  0
  7 34  1  0
 10 35  1  0
 14 36  1  0
 14 37  1  0
 14 38  1  0
 16 39  1  0
 16 40  1  0
 20 41  1  0
 20 42  1  0
 21 43  1  0
 22 44  1  0
 22 45  1  0
 23 46  1  0
 25 47  1  0
 26 48  1  0
 27 49  1  0
 28 50  1  0
M  END
$$$$
OCNT-2309655
     RDKit          3D

 58 60  0  0  0  0  0  0  0  0999 V2000
    9.7096    0.4989    1.0191 C   0  0  0  0  0  0  0  0  0  0  0  0
    9.0890   -0.7498    1.2979 O   0  0  0  0  0  0  0  0  0  0  0  0
    7.8124   -0.9231    0.8407 C   0  0  0  0  0  0  0  0  0  0  0  0
    7.0559    0.0161    0.1403 C   0  0  0  0  0  0  0  0  0  0  0  0
    5.7515   -0.2888   -0.2740 C   0  0  0  0  0  0  0  0  0  0  0  0
    5.1946   -1.5422    0.0131 C   0  0  0  0  0  0  0  0  0  0  0  0
    3.8777   -1.8704   -0.4000 N   0  0  0  0  0  0  0  0  0  0  0  0
    2.9769   -1.1042   -1.0991 C   0  0  0  0  0  0  0  0  0  0  0  0
    1.8573   -1.8959   -1.2306 C   0  0  0  0  0  0  0  0  0  0  0  0
    0.5537   -1.5952   -1.8722 C   0  0  0  0  0  0  0  0  0  0  0  0
   -0.3144   -0.9481   -0.9111 N   0  0  0  0  0  0  0  0  0  0  0  0
   -0.2695    0.4095   -0.7352 C   0  0  0  0  0  0  0  0  0  0  0  0
    0.4593    1.1280   -1.4161 O   0  0  0  0  0  0  0  0  0  0  0  0
   -1.1168    0.9061    0.2457 N   0  0  0  0  0  0  0  0  0  0  0  0
   -1.0800    2.3382    0.4932 C   0  0  0  0  0  0  0  0  0  0  0  0
   -2.2168    0.1526    0.8674 C   0  0  0  0  0  0  0  0  0  0  0  0
   -3.3725   -0.1801   -0.0859 C   0  0  0  0  0  0  0  0  0  0  0  0
   -4.3619    0.9796   -0.3433 C   0  0  0  0  0  0  0  0  0  0  0  0
   -5.3148    0.6239   -1.5016 C   0  0  0  0  0  0  0  0  0  0  0  0
   -6.2866   -0.5002   -1.1507 C   0  0  0  0  0  0  0  0  0  0  0  0
   -6.7715   -0.4137    0.2940 C   0  0  0  0  0  0  0  0  0  0  0  0
   -6.5126    0.9631    0.8983 C   0  0  0  0  0  0  0  0  0  0  0  0
   -5.0804    1.3017    0.9106 N   0  0  0  0  0  0  0  0  0  0  0  0
   -4.9103    2.7048    1.2921 C   0  0  0  0  0  0  0  0  0  0  0  0
    2.0904   -3.0990   -0.6261 N   0  0  0  0  0  0  0  0  0  0  0  0
    3.3192   -3.0780   -0.1280 N   0  0  0  0  0  0  0  0  0  0  0  0
    5.9546   -2.4843    0.7187 C   0  0  0  0  0  0  0  0  0  0  0  0
    7.2542   -2.1708    1.1270 C   0  0  0  0  0  0  0  0  0  0  0  0
    9.8133    0.6549   -0.0599 H   0  0  0  0  0  0  0  0  0  0  0  0
   10.7151    0.4763    1.4506 H   0  0  0  0  0  0  0  0  0  0  0  0
    9.1648    1.3251    1.4881 H   0  0  0  0  0  0  0  0  0  0  0  0
    7.4486    0.9986   -0.1009 H   0  0  0  0  0  0  0  0  0  0  0  0
    5.2015    0.4762   -0.8148 H   0  0  0  0  0  0  0  0  0  0  0  0
    3.1715   -0.0942   -1.4242 H   0  0  0  0  0  0  0  0  0  0  0  0
    0.6846   -0.9618   -2.7557 H   0  0  0  0  0  0  0  0  0  0  0  0
    0.0599   -2.5214   -2.1827 H   0  0  0  0  0  0  0  0  0  0  0  0
   -0.4980   -1.4896   -0.0819 H   0  0  0  0  0  0  0  0  0  0  0  0
   -1.2619    2.5320    1.5543 H   0  0  0  0  0  0  0  0  0  0  0  0
   -0.1058    2.7624    0.2321 H   0  0  0  0  0  0  0  0  0  0  0  0
   -1.8451    2.8286   -0.1130 H   0  0  0  0  0  0  0  0  0  0  0  0
   -2.5652    0.6893    1.7563 H   0  0  0  0  0  0  0  0  0  0  0  0
   -1.7986   -0.7879    1.2424 H   0  0  0  0  0  0  0  0  0  0  0  0
   -3.9162   -1.0317    0.3425 H   0  0  0  0  0  0  0  0  0  0  0  0
   -2.9740   -0.5304   -1.0455 H   0  0  0  0  0  0  0  0  0  0  0  0
   -3.7784    1.8427   -0.6850 H   0  0  0  0  0  0  0  0  0  0  0  0
   -4.7460    0.3496   -2.3984 H   0  0  0  0  0  0  0  0  0  0  0  0
   -5.8896    1.5197   -1.7736 H   0  0  0  0  0  0  0  0  0  0  0  0
   -5.8141   -1.4758   -1.3150 H   0  0  0  0  0  0  0  0  0  0  0  0
   -7.1417   -0.4571   -1.8355 H   0  0  0  0  0  0  0  0  0  0  0  0
   -6.2673   -1.1785    0.8978 H   0  0  0  0  0  0  0  0  0  0  0  0
   -7.8414   -0.6482    0.3382 H   0  0  0  0  0  0  0  0  0  0  0  0
   -7.0914    1.7129    0.3425 H   0  0  0  0  0  0  0  0  0  0  0  0
   -6.8891    0.9682    1.9283 H   0  0  0  0  0  0  0  0  0  0  0  0
   -5.4059    2.9083    2.2481 H   0  0  0  0  0  0  0  0  0  0  0  0
   -5.3191    3.3871    0.5381 H   0  0  0  0  0  0  0  0  0  0  0  0
   -3.8521    2.9423    1.4367 H   0  0  0  0  0  0  0  0  0  0  0  0
    5.5560   -3.4679    0.9614 H   0  0  0  0  0  0  0  0  0  0  0  0
    7.8371   -2.9087    1.6735 H   0  0  0  0  0  0  0  0  0  0  0  0
  1  2  1  0
  2  3  1  0
  3  4  1  0
  4  5  2  0
  5  6  1  0
  6  7  1  0
  7  8  1  0
  8  9  2  0
  9 10  1  0
 10 11  1  0
 11 12  1  0
 12 13  2  0
 12 14  1  0
 14 15  1  0
 14 16  1  0
 16 17  1  0
 17 18  1  0
 18 19  1  0
 19 20  1  0
 20 21  1  0
 21 22  1  0
 22 23  1  0
 23 24  1  0
  9 25  1  0
 25 26  2  0
  6 27  2  0
 27 28  1  0
 28  3  2  0
 26  7  1  0
 23 18  1  0
  1 29  1  0
  1 30  1  0
  1 31  1  0
  4 32  1  0
  5 33  1  0
  8 34  1  0
 10 35  1  0
 10 36  1  0
 11 37  1  0
 15 38  1  0
 15 39  1  0
 15 40  1  0
 16 41  1  0
 16 42  1  0
 17 43  1  0
 17 44  1  0
 18 45  1  0
 19 46  1  0
 19 47  1  0
 20 48  1  0
 20 49  1  0
 21 50  1  0
 21 51  1  0
 22 52  1  0
 22 53  1  0
 24 54  1  0
 24 55  1  0
 24 56  1  0
 27 57  1  0
 28 58  1  0
M  END
$$$$
OCNT-2309658
     RDKit          3D

 48 52  0  0  0  0  0  0  0  0999 V2000
   -6.6734    0.6931   -2.1554 C   0  0  0  0  0  0  0  0  0  0  0  0
   -6.4681    0.3195   -0.7211 C   0  0  0  0  0  0  0  0  0  0  0  0
   -5.2559    0.1992   -0.1456 C   0  0  0  0  0  0  0  0  0  0  0  0
   -5.1567   -0.1543    1.2023 N   0  0  0  0  0  0  0  0  0  0  0  0
   -4.0610   -0.3396    2.0125 C   0  0  0  0  0  0  0  0  0  0  0  0
   -2.5684   -0.2039    1.6468 C   0  0  0  0  0  0  0  0  0  0  0  0
   -1.5916   -0.4138    2.5388 N   0  0  0  0  0  0  0  0  0  0  0  0
   -0.4283   -0.1892    1.8030 O   0  0  0  0  0  0  0  0  0  0  0  0
   -0.8243    0.1349    0.5363 C   0  0  0  0  0  0  0  0  0  0  0  0
    0.2187    0.4210   -0.4432 C   0  0  0  0  0  0  0  0  0  0  0  0
   -0.1472    0.7583   -1.7548 C   0  0  0  0  0  0  0  0  0  0  0  0
    0.8238    1.0392   -2.7146 C   0  0  0  0  0  0  0  0  0  0  0  0
    2.1743    0.9845   -2.3724 C   0  0  0  0  0  0  0  0  0  0  0  0
    2.5667    0.6484   -1.0721 C   0  0  0  0  0  0  0  0  0  0  0  0
    3.9476    0.6179   -0.8111 N   0  0  0  0  0  0  0  0  0  0  0  0
    4.5965    0.2619    0.3603 C   0  0  0  0  0  0  0  0  0  0  0  0
    4.0684   -0.0933    1.4083 O   0  0  0  0  0  0  0  0  0  0  0  0
    6.1254    0.4218    0.2210 C   0  0  0  0  0  0  0  0  0  0  0  0
    6.9026   -0.6134    1.0165 C   0  0  0  0  0  0  0  0  0  0  0  0
    7.1136   -1.7046   -0.0041 C   0  0  0  0  0  0  0  0  0  0  0  0
    7.3246   -0.9109   -1.2734 C   0  0  0  0  0  0  0  0  0  0  0  0
    6.5272    0.2777   -1.1576 O   0  0  0  0  0  0  0  0  0  0  0  0
    1.5853    0.3707   -0.1150 C   0  0  0  0  0  0  0  0  0  0  0  0
   -2.1326    0.1385    0.3932 N   0  0  0  0  0  0  0  0  0  0  0  0
   -4.5638   -0.6794    3.2486 C   0  0  0  0  0  0  0  0  0  0  0  0
   -5.9344   -0.7121    3.2364 N   0  0  0  0  0  0  0  0  0  0  0  0
   -6.2736   -0.3955    2.0042 C   0  0  0  0  0  0  0  0  0  0  0  0
   -7.5542   -0.2688    1.3974 C   0  0  0  0  0  0  0  0  0  0  0  0
   -7.6517    0.0719    0.0984 C   0  0  0  0  0  0  0  0  0  0  0  0
   -7.2547    1.6179   -2.2328 H   0  0  0  0  0  0  0  0  0  0  0  0
   -5.7213    0.8546   -2.6724 H   0  0  0  0  0  0  0  0  0  0  0  0
   -7.2097   -0.1002   -2.6868 H   0  0  0  0  0  0  0  0  0  0  0  0
   -4.3341    0.3664   -0.6871 H   0  0  0  0  0  0  0  0  0  0  0  0
   -1.1985    0.8046   -2.0352 H   0  0  0  0  0  0  0  0  0  0  0  0
    0.5282    1.3004   -3.7277 H   0  0  0  0  0  0  0  0  0  0  0  0
    2.9153    1.2076   -3.1365 H   0  0  0  0  0  0  0  0  0  0  0  0
    4.5790    0.8173   -1.5845 H   0  0  0  0  0  0  0  0  0  0  0  0
    6.3688    1.4386    0.5489 H   0  0  0  0  0  0  0  0  0  0  0  0
    7.8752   -0.1985    1.3083 H   0  0  0  0  0  0  0  0  0  0  0  0
    6.4025   -0.9678    1.9215 H   0  0  0  0  0  0  0  0  0  0  0  0
    7.9512   -2.3672    0.2285 H   0  0  0  0  0  0  0  0  0  0  0  0
    6.2063   -2.3143   -0.0894 H   0  0  0  0  0  0  0  0  0  0  0  0
    7.0317   -1.4641   -2.1699 H   0  0  0  0  0  0  0  0  0  0  0  0
    8.3701   -0.6018   -1.3787 H   0  0  0  0  0  0  0  0  0  0  0  0
    1.8701    0.1132    0.9011 H   0  0  0  0  0  0  0  0  0  0  0  0
   -4.0071   -0.9030    4.1504 H   0  0  0  0  0  0  0  0  0  0  0  0
   -8.4330   -0.4523    2.0049 H   0  0  0  0  0  0  0  0  0  0  0  0
   -8.6294    0.1688   -0.3655 H   0  0  0  0  0  0  0  0  0  0  0  0
  1  2  1  0
  2  3  2  0
  3  4  1  0
  4  5  1  0
  5  6  1  0
  6  7  2  0
  7  8  1  0
  8  9  1  0
  9 10  1  0
 10 11  1  0
 11 12  2  0
 12 13  1  0
 13 14  2  0
 14 15  1  0
 15 16  1  0
 16 17  2  0
 16 18  1  0
 18 19  1  0
 19 20  1  0
 20 21  1  0
 21 22  1  0
 14 23  1  0
  9 24  2  0
  5 25  2  0
 25 26  1  0
 26 27  2  0
 27 28  1  0
 28 29  2  0
 29  2  1  0
 27  4  1  0
 24  6  1  0
 23 10  2  0
 22 18  1  0
  1 30  1  0
  1 31  1  0
  1 32  1  0
  3 33  1  0
 11 34  1  0
 12 35  1  0
 13 36  1  0
 15 37  1  0
 18 38  1  0
 19 39  1  0
 19 40  1  0
 20 41  1  0
 20 42  1  0
 21 43  1  0
 21 44  1  0
 23 45  1  0
 25 46  1  0
 28 47  1  0
 29 48  1  0
M  END
$$$$
OCNT-2309659
     RDKit          3D

 38 41  0  0  0  0  0  0  0  0999 V2000
   -8.5393    0.7607    0.8714 Cl  0  0  0  0  0  0  0  0  0  0  0  0
   -7.0387   -0.0108    0.5302 C   0  0  0  0  0  0  0  0  0  0  0  0
   -7.0301   -1.3172    0.0516 C   0  0  0  0  0  0  0  0  0  0  0  0
   -5.8154   -1.9381   -0.2234 C   0  0  0  0  0  0  0  0  0  0  0  0
   -4.6163   -1.2475   -0.0174 C   0  0  0  0  0  0  0  0  0  0  0  0
   -4.5977    0.0766    0.4668 C   0  0  0  0  0  0  0  0  0  0  0  0
   -3.3291    0.8023    0.6828 C   0  0  0  0  0  0  0  0  0  0  0  0
   -3.3967    2.0655    1.1363 N   0  0  0  0  0  0  0  0  0  0  0  0
   -2.2246    2.6889    1.3276 C   0  0  0  0  0  0  0  0  0  0  0  0
   -1.0040    2.1086    1.0746 C   0  0  0  0  0  0  0  0  0  0  0  0
   -1.0208    0.8170    0.5985 C   0  0  0  0  0  0  0  0  0  0  0  0
    0.1258    0.0782    0.2925 N   0  0  0  0  0  0  0  0  0  0  0  0
    1.4309    0.3789    0.1374 C   0  0  0  0  0  0  0  0  0  0  0  0
    2.4126   -0.5675   -0.0098 C   0  0  0  0  0  0  0  0  0  0  0  0
    3.6090    0.1044   -0.1541 N   0  0  0  0  0  0  0  0  0  0  0  0
    4.8933   -0.4967   -0.3199 C   0  0  0  0  0  0  0  0  0  0  0  0
    6.0132    0.3221   -0.4560 C   0  0  0  0  0  0  0  0  0  0  0  0
    7.2606   -0.2766   -0.6172 C   0  0  0  0  0  0  0  0  0  0  0  0
    7.3558   -1.6632   -0.6379 C   0  0  0  0  0  0  0  0  0  0  0  0
    6.1940   -2.4032   -0.4960 C   0  0  0  0  0  0  0  0  0  0  0  0
    4.9685   -1.8572   -0.3381 N   0  0  0  0  0  0  0  0  0  0  0  0
    3.4291    1.4554   -0.1253 N   0  0  0  0  0  0  0  0  0  0  0  0
    2.1108    1.6047    0.0358 C   0  0  0  0  0  0  0  0  0  0  0  0
   -2.1780    0.1548    0.4137 N   0  0  0  0  0  0  0  0  0  0  0  0
   -5.8423    0.6792    0.7360 C   0  0  0  0  0  0  0  0  0  0  0  0
   -7.9614   -1.8533   -0.1084 H   0  0  0  0  0  0  0  0  0  0  0  0
   -5.7964   -2.9585   -0.5981 H   0  0  0  0  0  0  0  0  0  0  0  0
   -3.6797   -1.7572   -0.2413 H   0  0  0  0  0  0  0  0  0  0  0  0
   -2.2942    3.7029    1.7110 H   0  0  0  0  0  0  0  0  0  0  0  0
   -0.0975    2.6523    1.2841 H   0  0  0  0  0  0  0  0  0  0  0  0
   -0.1862   -0.8669    0.0778 H   0  0  0  0  0  0  0  0  0  0  0  0
    2.3891   -1.6478   -0.0175 H   0  0  0  0  0  0  0  0  0  0  0  0
    5.9304    1.4049   -0.4390 H   0  0  0  0  0  0  0  0  0  0  0  0
    8.1506    0.3373   -0.7257 H   0  0  0  0  0  0  0  0  0  0  0  0
    8.3139   -2.1558   -0.7618 H   0  0  0  0  0  0  0  0  0  0  0  0
    6.2198   -3.4894   -0.5061 H   0  0  0  0  0  0  0  0  0  0  0  0
    1.7198    2.6114    0.0522 H   0  0  0  0  0  0  0  0  0  0  0  0
   -5.8788    1.7006    1.1113 H   0  0  0  0  0  0  0  0  0  0  0  0
  1  2  1  0
  2  3  1  0
  3  4  2  0
  4  5  1  0
  5  6  2  0
  6  7  1  0
  7  8  2  0
  8  9  1  0
  9 10  2  0
 10 11  1  0
 11 12  1  0
 12 13  1  0
 13 14  2  0
 14 15  1  0
 15 16  1  0
 16 17  2  0
 17 18  1  0
 18 19  2  0
 19 20  1  0
 20 21  2  0
 15 22  1  0
 22 23  2  0
 11 24  2  0
  6 25  1  0
 25  2  2  0
 24  7  1  0
 23 13  1  0
 21 16  1  0
  3 26  1  0
  4 27  1  0
  5 28  1  0
  9 29  1  0
 10 30  1  0
 12 31  1  0
 14 32  1  0
 17 33  1  0
 18 34  1  0
 19 35  1  0
 20 36  1  0
 23 37  1  0
 25 38  1  0
M  END
$$$$
OCNT-2309661
     RDKit          3D

 40 42  0  0  0  0  0  0  0  0999 V2000
    5.7146    4.2861    0.7131 N   0  0  0  0  0  0  0  0  0  0  0  0
    5.4034    3.1653    0.7081 C   0  0  0  0  0  0  0  0  0  0  0  0
    5.0251    1.7813    0.6964 C   0  0  0  0  0  0  0  0  0  0  0  0
    6.0066    0.7867    0.6416 C   0  0  0  0  0  0  0  0  0  0  0  0
    5.6394   -0.5605    0.6209 C   0  0  0  0  0  0  0  0  0  0  0  0
    4.2912   -0.9183    0.6551 C   0  0  0  0  0  0  0  0  0  0  0  0
    3.2942    0.0686    0.7194 C   0  0  0  0  0  0  0  0  0  0  0  0
    1.8361   -0.3131    0.7220 C   0  0  0  0  0  0  0  0  0  0  0  0
    1.3114   -0.3107   -0.6217 N   0  0  0  0  0  0  0  0  0  0  0  0
    0.5591    0.7285   -1.1242 C   0  0  0  0  0  0  0  0  0  0  0  0
    0.2915    1.7353   -0.4669 O   0  0  0  0  0  0  0  0  0  0  0  0
    0.1387    0.6030   -2.5825 C   0  0  0  0  0  0  0  0  0  0  0  0
   -0.1743   -1.1068   -3.1139 S   0  0  0  0  0  0  0  0  0  0  0  0
   -1.4490   -1.5517   -2.0159 C   0  0  0  0  0  0  0  0  0  0  0  0
   -1.7953   -2.8051   -1.7993 N   0  0  0  0  0  0  0  0  0  0  0  0
   -2.7822   -2.7152   -0.8491 C   0  0  0  0  0  0  0  0  0  0  0  0
   -3.0012   -1.3982   -0.5105 C   0  0  0  0  0  0  0  0  0  0  0  0
   -3.8745   -0.6864    0.4112 C   0  0  0  0  0  0  0  0  0  0  0  0
   -4.8350   -1.3829    1.1623 C   0  0  0  0  0  0  0  0  0  0  0  0
   -5.6876   -0.7056    2.0408 C   0  0  0  0  0  0  0  0  0  0  0  0
   -5.5918    0.6778    2.1810 C   0  0  0  0  0  0  0  0  0  0  0  0
   -4.6383    1.3827    1.4505 C   0  0  0  0  0  0  0  0  0  0  0  0
   -3.7842    0.7063    0.5740 C   0  0  0  0  0  0  0  0  0  0  0  0
   -2.1543   -0.6419   -1.2788 O   0  0  0  0  0  0  0  0  0  0  0  0
    3.6727    1.4216    0.7327 C   0  0  0  0  0  0  0  0  0  0  0  0
    7.0616    1.0543    0.6113 H   0  0  0  0  0  0  0  0  0  0  0  0
    6.4050   -1.3329    0.5756 H   0  0  0  0  0  0  0  0  0  0  0  0
    4.0228   -1.9737    0.6305 H   0  0  0  0  0  0  0  0  0  0  0  0
    1.2629    0.3659    1.3641 H   0  0  0  0  0  0  0  0  0  0  0  0
    1.7053   -1.3248    1.1229 H   0  0  0  0  0  0  0  0  0  0  0  0
    1.5456   -1.0854   -1.2331 H   0  0  0  0  0  0  0  0  0  0  0  0
    0.9403    1.0205   -3.1976 H   0  0  0  0  0  0  0  0  0  0  0  0
   -0.7640    1.2001   -2.7473 H   0  0  0  0  0  0  0  0  0  0  0  0
   -3.2693   -3.5993   -0.4587 H   0  0  0  0  0  0  0  0  0  0  0  0
   -4.9432   -2.4617    1.0680 H   0  0  0  0  0  0  0  0  0  0  0  0
   -6.4298   -1.2580    2.6123 H   0  0  0  0  0  0  0  0  0  0  0  0
   -6.2582    1.2055    2.8607 H   0  0  0  0  0  0  0  0  0  0  0  0
   -4.5521    2.4627    1.5647 H   0  0  0  0  0  0  0  0  0  0  0  0
   -3.0448    1.2838    0.0201 H   0  0  0  0  0  0  0  0  0  0  0  0
    2.9017    2.1960    0.7629 H   0  0  0  0  0  0  0  0  0  0  0  0
  1  2  3  0
  2  3  1  0
  3  4  1  0
  4  5  2  0
  5  6  1  0
  6  7  2  0
  7  8  1  0
  8  9  1  0
  9 10  1  0
 10 11  2  0
 10 12  1  0
 12 13  1  0
 13 14  1  0
 14 15  2  0
 15 16  1  0
 16 17  2  0
 17 18  1  0
 18 19  2  0
 19 20  1  0
 20 21  2  0
 21 22  1  0
 22 23  2  0
 17 24  1  0
  7 25  1  0
 25  3  2  0
 24 14  1  0
 23 18  1  0
  4 26  1  0
  5 27  1  0
  6 28  1  0
  8 29  1  0
  8 30  1  0
  9 31  1  0
 12 32  1  0
 12 33  1  0
 16 34  1  0
 19 35  1  0
 20 36  1  0
 21 37  1  0
 22 38  1  0
 23 39  1  0
 25 40  1  0
M  END
$$$$
OCNT-2309664
     RDKit          3D

 40 43  0  0  0  0  0  0  0  0999 V2000
    0.9733   -3.8644    1.1115 O   0  0  0  0  0  0  0  0  0  0  0  0
    1.0893   -2.6593    0.9163 C   0  0  0  0  0  0  0  0  0  0  0  0
    0.2227   -1.9516    0.1163 N   0  0  0  0  0  0  0  0  0  0  0  0
   -0.9256   -2.6264   -0.4454 C   0  0  0  0  0  0  0  0  0  0  0  0
   -1.6630   -1.6624   -1.3133 C   0  0  0  0  0  0  0  0  0  0  0  0
   -2.0863   -0.4846   -0.8147 N   0  0  0  0  0  0  0  0  0  0  0  0
   -2.7424    0.1154   -1.8482 N   0  0  0  0  0  0  0  0  0  0  0  0
   -3.4016    1.3655   -1.6669 C   0  0  0  0  0  0  0  0  0  0  0  0
   -3.3925    1.9765   -0.4033 C   0  0  0  0  0  0  0  0  0  0  0  0
   -4.0464    3.1960   -0.2079 C   0  0  0  0  0  0  0  0  0  0  0  0
   -4.7308    3.8027   -1.2620 C   0  0  0  0  0  0  0  0  0  0  0  0
   -4.7504    3.1995   -2.5117 C   0  0  0  0  0  0  0  0  0  0  0  0
   -4.0773    1.9905   -2.7215 C   0  0  0  0  0  0  0  0  0  0  0  0
   -2.6659   -0.6502   -2.9963 C   0  0  0  0  0  0  0  0  0  0  0  0
   -1.9830   -1.7971   -2.6743 C   0  0  0  0  0  0  0  0  0  0  0  0
    2.1252   -1.8454    1.5097 C   0  0  0  0  0  0  0  0  0  0  0  0
    2.7934   -2.0379    2.7054 C   0  0  0  0  0  0  0  0  0  0  0  0
    3.7810   -1.0207    2.8336 C   0  0  0  0  0  0  0  0  0  0  0  0
    4.7497   -0.7187    3.8074 C   0  0  0  0  0  0  0  0  0  0  0  0
    5.6050    0.3613    3.5844 C   0  0  0  0  0  0  0  0  0  0  0  0
    6.5352    0.6557    4.5031 F   0  0  0  0  0  0  0  0  0  0  0  0
    5.5218    1.1376    2.4346 C   0  0  0  0  0  0  0  0  0  0  0  0
    4.5649    0.8579    1.4576 C   0  0  0  0  0  0  0  0  0  0  0  0
    3.7062   -0.2249    1.6891 C   0  0  0  0  0  0  0  0  0  0  0  0
    2.6928   -0.7391    0.9176 N   0  0  0  0  0  0  0  0  0  0  0  0
    0.0546   -0.9876    0.3744 H   0  0  0  0  0  0  0  0  0  0  0  0
   -1.5643   -2.9763    0.3736 H   0  0  0  0  0  0  0  0  0  0  0  0
   -0.5831   -3.4994   -1.0129 H   0  0  0  0  0  0  0  0  0  0  0  0
   -2.8785    1.5154    0.4381 H   0  0  0  0  0  0  0  0  0  0  0  0
   -4.0149    3.6806    0.7644 H   0  0  0  0  0  0  0  0  0  0  0  0
   -5.2558    4.7415   -1.1007 H   0  0  0  0  0  0  0  0  0  0  0  0
   -5.2875    3.6653   -3.3310 H   0  0  0  0  0  0  0  0  0  0  0  0
   -4.1066    1.5689   -3.7207 H   0  0  0  0  0  0  0  0  0  0  0  0
   -3.1031   -0.3355   -3.9315 H   0  0  0  0  0  0  0  0  0  0  0  0
   -1.7496   -2.6144   -3.3331 H   0  0  0  0  0  0  0  0  0  0  0  0
    2.5961   -2.8479    3.4041 H   0  0  0  0  0  0  0  0  0  0  0  0
    4.8441   -1.3092    4.7099 H   0  0  0  0  0  0  0  0  0  0  0  0
    6.2131    1.9637    2.3028 H   0  0  0  0  0  0  0  0  0  0  0  0
    4.4975    1.4589    0.5570 H   0  0  0  0  0  0  0  0  0  0  0  0
    2.4426   -0.3995    0.0067 H   0  0  0  0  0  0  0  0  0  0  0  0
  1  2  2  0
  2  3  1  0
  3  4  1  0
  4  5  1  0
  5  6  2  0
  6  7  1  0
  7  8  1  0
  8  9  2  0
  9 10  1  0
 10 11  2  0
 11 12  1  0
 12 13  2  0
  7 14  1  0
 14 15  2  0
  2 16  1  0
 16 17  2  0
 17 18  1  0
 18 19  2  0
 19 20  1  0
 20 21  1  0
 20 22  2  0
 22 23  1  0
 23 24  2  0
 24 25  1  0
 15  5  1  0
 25 16  1  0
 13  8  1  0
 24 18  1  0
  3 26  1  0
  4 27  1  0
  4 28  1  0
  9 29  1  0
 10 30  1  0
 11 31  1  0
 12 32  1  0
 13 33  1  0
 14 34  1  0
 15 35  1  0
 17 36  1  0
 19 37  1  0
 22 38  1  0
 23 39  1  0
 25 40  1  0
M  END
$$$$
OCNT-2309665
     RDKit          3D

 41 44  0  0  0  0  0  0  0  0999 V2000
    7.6637    1.5293   -0.6063 C   0  0  0  0  0  0  0  0  0  0  0  0
    6.2046    1.2531   -0.3762 C   0  0  0  0  0  0  0  0  0  0  0  0
    5.5465    1.8309    0.7126 C   0  0  0  0  0  0  0  0  0  0  0  0
    4.1804    1.6131    0.9252 C   0  0  0  0  0  0  0  0  0  0  0  0
    3.4509    0.8078    0.0299 C   0  0  0  0  0  0  0  0  0  0  0  0
    2.1009    0.5127    0.1159 N   0  0  0  0  0  0  0  0  0  0  0  0
    1.7616   -0.2619   -0.8786 C   0  0  0  0  0  0  0  0  0  0  0  0
    0.5455   -0.8030   -1.1844 N   0  0  0  0  0  0  0  0  0  0  0  0
   -0.6009   -0.5093   -0.4835 C   0  0  0  0  0  0  0  0  0  0  0  0
   -0.6773    0.2830    0.4471 O   0  0  0  0  0  0  0  0  0  0  0  0
   -1.7725   -1.2234   -0.9875 C   0  0  0  0  0  0  0  0  0  0  0  0
   -1.8250   -2.4485   -1.6479 C   0  0  0  0  0  0  0  0  0  0  0  0
   -3.1716   -2.7445   -1.9527 C   0  0  0  0  0  0  0  0  0  0  0  0
   -3.9277   -1.7039   -1.4754 C   0  0  0  0  0  0  0  0  0  0  0  0
   -3.0883   -0.7991   -0.8614 N   0  0  0  0  0  0  0  0  0  0  0  0
   -3.5652    0.4589   -0.2851 C   0  0  0  0  0  0  0  0  0  0  0  0
   -4.2621    0.2475    1.0349 C   0  0  0  0  0  0  0  0  0  0  0  0
   -5.6562    0.3219    1.1293 C   0  0  0  0  0  0  0  0  0  0  0  0
   -6.2545    0.1176    2.3639 C   0  0  0  0  0  0  0  0  0  0  0  0
   -5.5715   -0.1546    3.4946 N   0  0  0  0  0  0  0  0  0  0  0  0
   -4.2275   -0.2236    3.3849 C   0  0  0  0  0  0  0  0  0  0  0  0
   -3.5380   -0.0319    2.1975 C   0  0  0  0  0  0  0  0  0  0  0  0
    2.9961   -0.6929   -1.9735 S   0  0  0  0  0  0  0  0  0  0  0  0
    4.1191    0.2415   -1.0582 C   0  0  0  0  0  0  0  0  0  0  0  0
    5.4894    0.4571   -1.2856 C   0  0  0  0  0  0  0  0  0  0  0  0
    8.1331    0.7166   -1.1712 H   0  0  0  0  0  0  0  0  0  0  0  0
    8.1982    1.6135    0.3457 H   0  0  0  0  0  0  0  0  0  0  0  0
    7.7833    2.4626   -1.1657 H   0  0  0  0  0  0  0  0  0  0  0  0
    6.0917    2.4626    1.4123 H   0  0  0  0  0  0  0  0  0  0  0  0
    3.6728    2.0636    1.7723 H   0  0  0  0  0  0  0  0  0  0  0  0
    0.5039   -1.3821   -2.0066 H   0  0  0  0  0  0  0  0  0  0  0  0
   -0.9799   -3.0858   -1.8761 H   0  0  0  0  0  0  0  0  0  0  0  0
   -3.5508   -3.6212   -2.4610 H   0  0  0  0  0  0  0  0  0  0  0  0
   -4.9973   -1.5391   -1.5032 H   0  0  0  0  0  0  0  0  0  0  0  0
   -4.2535    0.8933   -1.0222 H   0  0  0  0  0  0  0  0  0  0  0  0
   -2.7430    1.1720   -0.1913 H   0  0  0  0  0  0  0  0  0  0  0  0
   -6.2734    0.5335    0.2628 H   0  0  0  0  0  0  0  0  0  0  0  0
   -7.3336    0.1680    2.4780 H   0  0  0  0  0  0  0  0  0  0  0  0
   -3.6979   -0.4481    4.3060 H   0  0  0  0  0  0  0  0  0  0  0  0
   -2.4544   -0.0998    2.1882 H   0  0  0  0  0  0  0  0  0  0  0  0
    5.9804    0.0126   -2.1472 H   0  0  0  0  0  0  0  0  0  0  0  0
  1  2  1  0
  2  3  2  0
  3  4  1  0
  4  5  2  0
  5  6  1  0
  6  7  2  0
  7  8  1  0
  8  9  1  0
  9 10  2  0
  9 11  1  0
 11 12  2  0
 12 13  1  0
 13 14  2  0
 14 15  1  0
 15 16  1  0
 16 17  1  0
 17 18  2  0
 18 19  1  0
 19 20  2  0
 20 21  1  0
 21 22  2  0
  7 23  1  0
 23 24  1  0
 24 25  2  0
 25  2  1  0
 24  5  1  0
 15 11  1  0
 22 17  1  0
  1 26  1  0
  1 27  1  0
  1 28  1  0
  3 29  1  0
  4 30  1  0
  8 31  1  0
 12 32  1  0
 13 33  1  0
 14 34  1  0
 16 35  1  0
 16 36  1  0
 18 37  1  0
 19 38  1  0
 21 39  1  0
 22 40  1  0
 25 41  1  0
M  END
$$$$
OCNT-2309684
     RDKit          3D

 49 53  0  0  0  0  0  0  0  0999 V2000
    1.9640    0.7027   -1.4980 C   0  0  0  0  0  0  0  0  0  0  0  0
    3.2714    0.9677   -1.9051 C   0  0  0  0  0  0  0  0  0  0  0  0
    4.2917    0.1609   -1.4265 C   0  0  0  0  0  0  0  0  0  0  0  0
    5.5605    0.4618   -1.8728 O   0  0  0  0  0  0  0  0  0  0  0  0
    6.6204   -0.2294   -1.2090 C   0  0  0  0  0  0  0  0  0  0  0  0
    7.1109    0.5840   -0.0479 C   0  0  0  0  0  0  0  0  0  0  0  0
    8.0126   -0.0389    0.9884 C   0  0  0  0  0  0  0  0  0  0  0  0
    6.6015    0.3340    1.3488 C   0  0  0  0  0  0  0  0  0  0  0  0
    4.0854   -0.8830   -0.5985 N   0  0  0  0  0  0  0  0  0  0  0  0
    2.8034   -1.1178   -0.2186 C   0  0  0  0  0  0  0  0  0  0  0  0
    1.7092   -0.3632   -0.6307 C   0  0  0  0  0  0  0  0  0  0  0  0
    0.3621   -0.6663   -0.1803 C   0  0  0  0  0  0  0  0  0  0  0  0
    0.0560   -1.6753    0.6512 N   0  0  0  0  0  0  0  0  0  0  0  0
   -1.3229   -1.5767    0.8030 O   0  0  0  0  0  0  0  0  0  0  0  0
   -1.7250   -0.5079    0.0553 C   0  0  0  0  0  0  0  0  0  0  0  0
   -3.1926   -0.1840    0.0193 C   0  0  0  0  0  0  0  0  0  0  0  0
   -3.3932    1.3633    0.0466 C   0  0  0  0  0  0  0  0  0  0  0  0
   -4.3432    1.8231    1.1556 C   0  0  0  0  0  0  0  0  0  0  0  0
   -5.6097    0.9663    1.2406 C   0  0  0  0  0  0  0  0  0  0  0  0
   -5.3768   -0.4873    1.1701 N   0  0  0  0  0  0  0  0  0  0  0  0
   -5.9861   -1.0871   -0.0299 C   0  0  0  0  0  0  0  0  0  0  0  0
   -5.3181   -0.6554   -1.3400 C   0  0  0  0  0  0  0  0  0  0  0  0
   -3.7932   -0.7866   -1.2805 C   0  0  0  0  0  0  0  0  0  0  0  0
   -3.9425   -0.8204    1.2146 C   0  0  0  0  0  0  0  0  0  0  0  0
   -0.7305    0.0752   -0.5775 N   0  0  0  0  0  0  0  0  0  0  0  0
    1.1526    1.3298   -1.8604 H   0  0  0  0  0  0  0  0  0  0  0  0
    3.4901    1.7884   -2.5789 H   0  0  0  0  0  0  0  0  0  0  0  0
    7.4383   -0.3009   -1.9355 H   0  0  0  0  0  0  0  0  0  0  0  0
    6.3722   -1.2643   -0.9429 H   0  0  0  0  0  0  0  0  0  0  0  0
    7.3249    1.6075   -0.3372 H   0  0  0  0  0  0  0  0  0  0  0  0
    8.8155    0.5675    1.3922 H   0  0  0  0  0  0  0  0  0  0  0  0
    8.2514   -1.0931    0.9067 H   0  0  0  0  0  0  0  0  0  0  0  0
    6.4429    1.1946    1.9874 H   0  0  0  0  0  0  0  0  0  0  0  0
    5.8871   -0.4673    1.5039 H   0  0  0  0  0  0  0  0  0  0  0  0
    2.6876   -1.9660    0.4529 H   0  0  0  0  0  0  0  0  0  0  0  0
   -2.4420    1.8918    0.1913 H   0  0  0  0  0  0  0  0  0  0  0  0
   -3.7745    1.7199   -0.9183 H   0  0  0  0  0  0  0  0  0  0  0  0
   -4.6164    2.8732    0.9966 H   0  0  0  0  0  0  0  0  0  0  0  0
   -3.8144    1.7898    2.1176 H   0  0  0  0  0  0  0  0  0  0  0  0
   -6.3201    1.3019    0.4744 H   0  0  0  0  0  0  0  0  0  0  0  0
   -6.0995    1.1780    2.1991 H   0  0  0  0  0  0  0  0  0  0  0  0
   -7.0583   -0.8573   -0.0643 H   0  0  0  0  0  0  0  0  0  0  0  0
   -5.9261   -2.1800    0.0582 H   0  0  0  0  0  0  0  0  0  0  0  0
   -5.7036   -1.2664   -2.1643 H   0  0  0  0  0  0  0  0  0  0  0  0
   -5.5903    0.3798   -1.5747 H   0  0  0  0  0  0  0  0  0  0  0  0
   -3.3500   -0.3189   -2.1694 H   0  0  0  0  0  0  0  0  0  0  0  0
   -3.5374   -1.8539   -1.3410 H   0  0  0  0  0  0  0  0  0  0  0  0
   -3.5134   -0.4997    2.1743 H   0  0  0  0  0  0  0  0  0  0  0  0
   -3.8316   -1.9143    1.2123 H   0  0  0  0  0  0  0  0  0  0  0  0
  1  2  1  0
  2  3  2  0
  3  4  1  0
  4  5  1  0
  5  6  1  0
  6  7  1  0
  7  8  1  0
  3  9  1  0
  9 10  2  0
 10 11  1  0
 11 12  1  0
 12 13  2  0
 13 14  1  0
 14 15  1  0
 15 16  1  0
 16 17  1  0
 17 18  1  0
 18 19  1  0
 19 20  1  0
 20 21  1  0
 21 22  1  0
 22 23  1  0
 20 24  1  0
 15 25  2  0
 11  1  2  0
 25 12  1  0
  8  6  1  0
 23 16  1  0
 24 16  1  0
  1 26  1  0
  2 27  1  0
  5 28  1  0
  5 29  1  0
  6 30  1  0
  7 31  1  0
  7 32  1  0
  8 33  1  0
  8 34  1  0
 10 35  1  0
 17 36  1  0
 17 37  1  0
 18 38  1  0
 18 39  1  0
 19 40  1  0
 19 41  1  0
 21 42  1  0
 21 43  1  0
 22 44  1  0
 22 45  1  0
 23 46  1  0
 23 47  1  0
 24 48  1  0
 24 49  1  0
M  END
$$$$
OCNT-2309695
     RDKit          3D

 54 58  0  0  0  0  0  0  0  0999 V2000
   -2.1954   -3.1055   -1.7567 C   0  0  0  0  0  0  0  0  0  0  0  0
   -3.2995   -3.0410   -0.7347 C   0  0  0  0  0  0  0  0  0  0  0  0
   -4.2980   -4.0313   -0.7651 C   0  0  0  0  0  0  0  0  0  0  0  0
   -5.3528   -4.0139    0.1462 C   0  0  0  0  0  0  0  0  0  0  0  0
   -5.4255   -3.0085    1.1022 C   0  0  0  0  0  0  0  0  0  0  0  0
   -4.4344   -2.0280    1.1540 C   0  0  0  0  0  0  0  0  0  0  0  0
   -3.3494   -2.0314    0.2550 C   0  0  0  0  0  0  0  0  0  0  0  0
   -2.3220   -0.9842    0.3872 C   0  0  0  0  0  0  0  0  0  0  0  0
   -1.0104   -1.2973    0.7369 C   0  0  0  0  0  0  0  0  0  0  0  0
   -0.0669   -0.2709    0.8531 C   0  0  0  0  0  0  0  0  0  0  0  0
    1.3307   -0.6101    1.1878 C   0  0  0  0  0  0  0  0  0  0  0  0
    1.5179   -1.4959    2.0096 O   0  0  0  0  0  0  0  0  0  0  0  0
    2.2818    0.0857    0.4719 N   0  0  0  0  0  0  0  0  0  0  0  0
    3.6680   -0.0478    0.6510 C   0  0  0  0  0  0  0  0  0  0  0  0
    4.4993    0.6632   -0.2012 C   0  0  0  0  0  0  0  0  0  0  0  0
    5.8904    0.5699   -0.0507 C   0  0  0  0  0  0  0  0  0  0  0  0
    6.7761    1.2680   -0.8926 C   0  0  0  0  0  0  0  0  0  0  0  0
    8.1547    1.1553   -0.7169 C   0  0  0  0  0  0  0  0  0  0  0  0
    8.6559    0.3473    0.2977 C   0  0  0  0  0  0  0  0  0  0  0  0
    7.7747   -0.3457    1.1314 C   0  0  0  0  0  0  0  0  0  0  0  0
    6.3964   -0.2473    0.9728 C   0  0  0  0  0  0  0  0  0  0  0  0
    5.5600   -0.9160    1.7769 N   0  0  0  0  0  0  0  0  0  0  0  0
    4.1906   -0.8169    1.6169 N   0  0  0  0  0  0  0  0  0  0  0  0
   -0.4991    1.0492    0.6661 C   0  0  0  0  0  0  0  0  0  0  0  0
    0.0221    2.3578    0.7481 C   0  0  0  0  0  0  0  0  0  0  0  0
   -0.8714    3.2959    0.4244 N   0  0  0  0  0  0  0  0  0  0  0  0
   -2.0054    2.5891    0.1910 N   0  0  0  0  0  0  0  0  0  0  0  0
   -3.2305    3.2976   -0.1614 C   0  0  0  0  0  0  0  0  0  0  0  0
   -4.3323    3.0952    0.8786 C   0  0  0  0  0  0  0  0  0  0  0  0
   -3.7107    2.9453   -1.5690 C   0  0  0  0  0  0  0  0  0  0  0  0
   -1.8313    1.2342    0.3266 C   0  0  0  0  0  0  0  0  0  0  0  0
   -2.7655    0.2780    0.1667 N   0  0  0  0  0  0  0  0  0  0  0  0
   -1.9801   -2.1126   -2.1643 H   0  0  0  0  0  0  0  0  0  0  0  0
   -1.2889   -3.5237   -1.3091 H   0  0  0  0  0  0  0  0  0  0  0  0
   -2.4778   -3.7386   -2.6051 H   0  0  0  0  0  0  0  0  0  0  0  0
   -4.2621   -4.8239   -1.5101 H   0  0  0  0  0  0  0  0  0  0  0  0
   -6.1195   -4.7833    0.1052 H   0  0  0  0  0  0  0  0  0  0  0  0
   -6.2493   -2.9862    1.8105 H   0  0  0  0  0  0  0  0  0  0  0  0
   -4.5032   -1.2485    1.9115 H   0  0  0  0  0  0  0  0  0  0  0  0
   -0.7189   -2.3286    0.9212 H   0  0  0  0  0  0  0  0  0  0  0  0
    1.9784    0.6852   -0.2809 H   0  0  0  0  0  0  0  0  0  0  0  0
    4.0831    1.2892   -0.9833 H   0  0  0  0  0  0  0  0  0  0  0  0
    6.3979    1.9027   -1.6917 H   0  0  0  0  0  0  0  0  0  0  0  0
    8.8354    1.6959   -1.3704 H   0  0  0  0  0  0  0  0  0  0  0  0
    9.7291    0.2520    0.4434 H   0  0  0  0  0  0  0  0  0  0  0  0
    8.1684   -0.9779    1.9241 H   0  0  0  0  0  0  0  0  0  0  0  0
    1.0193    2.6730    1.0289 H   0  0  0  0  0  0  0  0  0  0  0  0
   -2.9712    4.3650   -0.1605 H   0  0  0  0  0  0  0  0  0  0  0  0
   -4.6883    2.0600    0.9019 H   0  0  0  0  0  0  0  0  0  0  0  0
   -3.9733    3.3467    1.8828 H   0  0  0  0  0  0  0  0  0  0  0  0
   -5.1919    3.7367    0.6576 H   0  0  0  0  0  0  0  0  0  0  0  0
   -4.5562    3.5793   -1.8567 H   0  0  0  0  0  0  0  0  0  0  0  0
   -2.9115    3.0951   -2.3035 H   0  0  0  0  0  0  0  0  0  0  0  0
   -4.0373    1.9026   -1.6406 H   0  0  0  0  0  0  0  0  0  0  0  0
  1  2  1  0
  2  3  2  0
  3  4  1  0
  4  5  2  0
  5  6  1  0
  6  7  2  0
  7  8  1  0
  8  9  1  0
  9 10  2  0
 10 11  1  0
 11 12  2  0
 11 13  1  0
 13 14  1  0
 14 15  2  0
 15 16  1  0
 16 17  2  0
 17 18  1  0
 18 19  2  0
 19 20  1  0
 20 21  2  0
 21 22  1  0
 22 23  2  0
 10 24  1  0
 24 25  1  0
 25 26  2  0
 26 27  1  0
 27 28  1  0
 28 29  1  0
 28 30  1  0
 27 31  1  0
 31 32  1  0
  7  2  1  0
 32  8  2  0
 23 14  1  0
 31 24  2  0
 21 16  1  0
  1 33  1  0
  1 34  1  0
  1 35  1  0
  3 36  1  0
  4 37  1  0
  5 38  1  0
  6 39  1  0
  9 40  1  0
 13 41  1  0
 15 42  1  0
 17 43  1  0
 18 44  1  0
 19 45  1  0
 20 46  1  0
 25 47  1  0
 28 48  1  0
 29 49  1  0
 29 50  1  0
 29 51  1  0
 30 52  1  0
 30 53  1  0
 30 54  1  0
M  END
$$$$
OCNT-2309734
     RDKit          3D

 37 39  0  0  0  0  0  0  0  0999 V2000
   -2.9837   -2.5543    1.8841 C   0  0  0  0  0  0  0  0  0  0  0  0
   -3.2495   -1.2116    1.4781 O   0  0  0  0  0  0  0  0  0  0  0  0
   -2.4827   -0.7921    0.4396 C   0  0  0  0  0  0  0  0  0  0  0  0
   -1.6476   -1.4608   -0.1506 O   0  0  0  0  0  0  0  0  0  0  0  0
   -2.7757    0.6312    0.1186 C   0  0  0  0  0  0  0  0  0  0  0  0
   -4.0719    1.1290    0.3489 C   0  0  0  0  0  0  0  0  0  0  0  0
   -4.3956    2.4399    0.0073 C   0  0  0  0  0  0  0  0  0  0  0  0
   -3.4307    3.2576   -0.5691 C   0  0  0  0  0  0  0  0  0  0  0  0
   -2.1399    2.7714   -0.8036 C   0  0  0  0  0  0  0  0  0  0  0  0
   -1.7885    1.4573   -0.4667 C   0  0  0  0  0  0  0  0  0  0  0  0
   -0.4760    0.9546   -0.6615 N   0  0  0  0  0  0  0  0  0  0  0  0
    0.5694    1.5320   -1.3499 C   0  0  0  0  0  0  0  0  0  0  0  0
    0.5093    2.5821   -1.9812 O   0  0  0  0  0  0  0  0  0  0  0  0
    1.8085    0.7602   -1.3420 C   0  0  0  0  0  0  0  0  0  0  0  0
    2.7850    0.9024   -2.3192 C   0  0  0  0  0  0  0  0  0  0  0  0
    3.8388    0.0699   -2.1047 O   0  0  0  0  0  0  0  0  0  0  0  0
    3.5474   -0.5953   -0.9688 C   0  0  0  0  0  0  0  0  0  0  0  0
    2.3362   -0.2103   -0.4384 C   0  0  0  0  0  0  0  0  0  0  0  0
    1.8764   -0.7820    0.8109 C   0  0  0  0  0  0  0  0  0  0  0  0
    0.7892   -0.5273    1.3134 O   0  0  0  0  0  0  0  0  0  0  0  0
    2.7609   -1.6601    1.4145 N   0  0  0  0  0  0  0  0  0  0  0  0
    4.1896   -1.6952    1.0914 C   0  0  0  0  0  0  0  0  0  0  0  0
    4.4800   -1.5972   -0.4161 C   0  0  0  0  0  0  0  0  0  0  0  0
   -3.2104   -3.2519    1.0718 H   0  0  0  0  0  0  0  0  0  0  0  0
   -3.6343   -2.7869    2.7317 H   0  0  0  0  0  0  0  0  0  0  0  0
   -1.9432   -2.6594    2.2075 H   0  0  0  0  0  0  0  0  0  0  0  0
   -4.8416    0.4952    0.7834 H   0  0  0  0  0  0  0  0  0  0  0  0
   -5.3981    2.8205    0.1859 H   0  0  0  0  0  0  0  0  0  0  0  0
   -3.6750    4.2829   -0.8382 H   0  0  0  0  0  0  0  0  0  0  0  0
   -1.4226    3.4601   -1.2398 H   0  0  0  0  0  0  0  0  0  0  0  0
   -0.3118    0.0204   -0.2815 H   0  0  0  0  0  0  0  0  0  0  0  0
    2.8560    1.5263   -3.2009 H   0  0  0  0  0  0  0  0  0  0  0  0
    2.4613   -1.9560    2.3352 H   0  0  0  0  0  0  0  0  0  0  0  0
    4.6451   -0.8459    1.6152 H   0  0  0  0  0  0  0  0  0  0  0  0
    4.6097   -2.6154    1.5091 H   0  0  0  0  0  0  0  0  0  0  0  0
    4.2900   -2.5643   -0.8951 H   0  0  0  0  0  0  0  0  0  0  0  0
    5.5259   -1.3273   -0.5898 H   0  0  0  0  0  0  0  0  0  0  0  0
  1  2  1  0
  2  3  1  0
  3  4  2  0
  3  5  1  0
  5  6  2  0
  6  7  1  0
  7  8  2  0
  8  9  1  0
  9 10  2  0
 10 11  1  0
 11 12  1  0
 12 13  2  0
 12 14  1  0
 14 15  2  0
 15 16  1  0
 16 17  1  0
 17 18  2  0
 18 19  1  0
 19 20  2  0
 19 21  1  0
 21 22  1  0
 22 23  1  0
 10  5  1  0
 18 14  1  0
 23 17  1  0
  1 24  1  0
  1 25  1  0
  1 26  1  0
  6 27  1  0
  7 28  1  0
  8 29  1  0
  9 30  1  0
 11 31  1  0
 15 32  1  0
 21 33  1  0
 22 34  1  0
 22 35  1  0
 23 36  1  0
 23 37  1  0
M  END
$$$$
OCNT-2309736
     RDKit          3D

 46 48  0  0  0  0  0  0  0  0999 V2000
    3.6006   -2.4294   -2.2490 C   0  0  0  0  0  0  0  0  0  0  0  0
    2.7035   -1.8169   -1.2288 C   0  0  0  0  0  0  0  0  0  0  0  0
    2.8899   -0.7349   -0.3813 C   0  0  0  0  0  0  0  0  0  0  0  0
    4.0943    0.0834   -0.3172 C   0  0  0  0  0  0  0  0  0  0  0  0
    4.6622    0.3642    0.9363 C   0  0  0  0  0  0  0  0  0  0  0  0
    5.8103    1.1544    1.0335 C   0  0  0  0  0  0  0  0  0  0  0  0
    6.3910    1.6733   -0.1243 C   0  0  0  0  0  0  0  0  0  0  0  0
    7.8165    2.6349   -0.0098 Cl  0  0  0  0  0  0  0  0  0  0  0  0
    5.8269    1.4201   -1.3752 C   0  0  0  0  0  0  0  0  0  0  0  0
    4.6779    0.6287   -1.4713 C   0  0  0  0  0  0  0  0  0  0  0  0
    1.8454   -0.4833    0.4927 N   0  0  0  0  0  0  0  0  0  0  0  0
    0.8408   -1.3118    0.2663 C   0  0  0  0  0  0  0  0  0  0  0  0
   -0.4734   -1.3213    1.0275 C   0  0  0  0  0  0  0  0  0  0  0  0
   -0.2061   -1.2717    2.5327 C   0  0  0  0  0  0  0  0  0  0  0  0
   -1.2946   -0.1969    0.6145 N   0  0  0  0  0  0  0  0  0  0  0  0
   -2.0529   -0.2495   -0.5280 C   0  0  0  0  0  0  0  0  0  0  0  0
   -1.9848   -1.1674   -1.3458 O   0  0  0  0  0  0  0  0  0  0  0  0
   -2.9777    0.9348   -0.7449 C   0  0  0  0  0  0  0  0  0  0  0  0
   -4.1883    1.0059    0.1948 C   0  0  0  0  0  0  0  0  0  0  0  0
   -3.7697    1.5933    1.5431 C   0  0  0  0  0  0  0  0  0  0  0  0
   -4.1393    2.7708    1.8320 O   0  0  0  0  0  0  0  0  0  0  0  0
   -3.0200    0.8627    2.2707 O   0  0  0  0  0  0  0  0  0  0  0  0
   -5.0525   -0.2967    0.3071 C   0  0  0  0  0  0  0  0  0  0  0  0
   -6.3062    0.5987    0.2939 C   0  0  0  0  0  0  0  0  0  0  0  0
   -5.4627    1.6555   -0.4490 C   0  0  0  0  0  0  0  0  0  0  0  0
    1.1433   -2.4870   -0.9585 S   0  0  0  0  0  0  0  0  0  0  0  0
    3.4974   -1.9133   -3.2108 H   0  0  0  0  0  0  0  0  0  0  0  0
    4.6480   -2.3749   -1.9370 H   0  0  0  0  0  0  0  0  0  0  0  0
    3.3715   -3.4900   -2.4091 H   0  0  0  0  0  0  0  0  0  0  0  0
    4.1981   -0.0291    1.8421 H   0  0  0  0  0  0  0  0  0  0  0  0
    6.2362    1.3631    2.0128 H   0  0  0  0  0  0  0  0  0  0  0  0
    6.2696    1.8406   -2.2757 H   0  0  0  0  0  0  0  0  0  0  0  0
    4.2299    0.4627   -2.4496 H   0  0  0  0  0  0  0  0  0  0  0  0
   -1.0309   -2.2440    0.8143 H   0  0  0  0  0  0  0  0  0  0  0  0
    0.3024   -0.3454    2.8259 H   0  0  0  0  0  0  0  0  0  0  0  0
   -1.1471   -1.3213    3.0936 H   0  0  0  0  0  0  0  0  0  0  0  0
    0.4191   -2.1137    2.8472 H   0  0  0  0  0  0  0  0  0  0  0  0
   -1.7482    0.3202    1.3882 H   0  0  0  0  0  0  0  0  0  0  0  0
   -2.3843    1.8576   -0.6931 H   0  0  0  0  0  0  0  0  0  0  0  0
   -3.3179    0.8629   -1.7885 H   0  0  0  0  0  0  0  0  0  0  0  0
   -4.9898   -0.9615   -0.5640 H   0  0  0  0  0  0  0  0  0  0  0  0
   -4.9198   -0.8997    1.2110 H   0  0  0  0  0  0  0  0  0  0  0  0
   -6.6341    0.9151    1.2922 H   0  0  0  0  0  0  0  0  0  0  0  0
   -7.1668    0.2034   -0.2549 H   0  0  0  0  0  0  0  0  0  0  0  0
   -5.5210    1.5576   -1.5424 H   0  0  0  0  0  0  0  0  0  0  0  0
   -5.6868    2.6961   -0.1950 H   0  0  0  0  0  0  0  0  0  0  0  0
  1  2  1  0
  2  3  2  0
  3  4  1  0
  4  5  1  0
  5  6  2  0
  6  7  1  0
  7  8  1  0
  7  9  2  0
  9 10  1  0
  3 11  1  0
 11 12  2  0
 12 13  1  0
 13 14  1  0
 13 15  1  0
 15 16  1  0
 16 17  2  0
 16 18  1  0
 18 19  1  0
 19 20  1  0
 20 21  2  0
 20 22  1  0
 19 23  1  0
 23 24  1  0
 24 25  1  0
 12 26  1  0
 26  2  1  0
 10  4  2  0
 25 19  1  0
  1 27  1  0
  1 28  1  0
  1 29  1  0
  5 30  1  0
  6 31  1  0
  9 32  1  0
 10 33  1  0
 13 34  1  0
 14 35  1  0
 14 36  1  0
 14 37  1  0
 15 38  1  0
 18 39  1  0
 18 40  1  0
 23 41  1  0
 23 42  1  0
 24 43  1  0
 24 44  1  0
 25 45  1  0
 25 46  1  0
M  CHG  1  22  -1
M  END
$$$$
OCNT-2309752
     RDKit          3D

 56 61  0  0  0  0  0  0  0  0999 V2000
    0.2246   -3.1660   -4.5288 N   0  0  0  0  0  0  0  0  0  0  0  0
   -0.5135   -2.4771   -3.6267 C   0  0  0  0  0  0  0  0  0  0  0  0
   -1.5795   -1.8420   -3.9820 N   0  0  0  0  0  0  0  0  0  0  0  0
   -2.2546   -1.1813   -3.0067 C   0  0  0  0  0  0  0  0  0  0  0  0
   -3.4152   -0.5619   -3.0872 N   0  0  0  0  0  0  0  0  0  0  0  0
   -3.6738   -0.0638   -1.8340 C   0  0  0  0  0  0  0  0  0  0  0  0
   -4.7733    0.6792   -1.3811 C   0  0  0  0  0  0  0  0  0  0  0  0
   -4.8215    1.0529   -0.0335 C   0  0  0  0  0  0  0  0  0  0  0  0
   -3.7820    0.7174    0.8414 C   0  0  0  0  0  0  0  0  0  0  0  0
   -2.6600    0.0071    0.3971 C   0  0  0  0  0  0  0  0  0  0  0  0
   -2.6482   -0.3791   -0.9477 C   0  0  0  0  0  0  0  0  0  0  0  0
   -1.7564   -1.0624   -1.7288 N   0  0  0  0  0  0  0  0  0  0  0  0
   -0.4858   -1.6667   -1.3622 C   0  0  0  0  0  0  0  0  0  0  0  0
    0.5657   -0.6162   -1.0405 C   0  0  0  0  0  0  0  0  0  0  0  0
    0.9099    0.3883   -1.9584 C   0  0  0  0  0  0  0  0  0  0  0  0
    1.8891    1.3291   -1.6419 C   0  0  0  0  0  0  0  0  0  0  0  0
    2.5436    1.2809   -0.4090 C   0  0  0  0  0  0  0  0  0  0  0  0
    2.2217    0.2892    0.5149 C   0  0  0  0  0  0  0  0  0  0  0  0
    2.7862    0.1144    1.7481 O   0  0  0  0  0  0  0  0  0  0  0  0
    3.6634    1.1302    2.2463 C   0  0  0  0  0  0  0  0  0  0  0  0
    5.0896    0.9322    1.7958 C   0  0  0  0  0  0  0  0  0  0  0  0
    5.6527   -0.3485    1.6805 C   0  0  0  0  0  0  0  0  0  0  0  0
    6.9846   -0.4989    1.2890 C   0  0  0  0  0  0  0  0  0  0  0  0
    7.7560    0.6281    1.0240 C   0  0  0  0  0  0  0  0  0  0  0  0
    9.0332    0.4782    0.6502 F   0  0  0  0  0  0  0  0  0  0  0  0
    7.2250    1.9037    1.1454 C   0  0  0  0  0  0  0  0  0  0  0  0
    5.8984    2.0440    1.5351 C   0  0  0  0  0  0  0  0  0  0  0  0
    5.3900    3.2785    1.6562 F   0  0  0  0  0  0  0  0  0  0  0  0
    1.2438   -0.6574    0.1903 C   0  0  0  0  0  0  0  0  0  0  0  0
    0.0249   -2.5716   -2.3834 N   0  0  0  0  0  0  0  0  0  0  0  0
   -3.7442    1.1400    2.1453 O   0  0  0  0  0  0  0  0  0  0  0  0
   -4.8250    0.6104    2.9137 C   0  0  0  0  0  0  0  0  0  0  0  0
   -6.1023    1.4157    2.7347 C   0  0  0  0  0  0  0  0  0  0  0  0
   -6.6830    1.2188    1.3432 C   0  0  0  0  0  0  0  0  0  0  0  0
   -5.8797    1.8396    0.3403 O   0  0  0  0  0  0  0  0  0  0  0  0
   -0.2640   -3.1982   -5.4208 H   0  0  0  0  0  0  0  0  0  0  0  0
    0.4448   -4.1056   -4.2210 H   0  0  0  0  0  0  0  0  0  0  0  0
   -5.5634    0.9563   -2.0694 H   0  0  0  0  0  0  0  0  0  0  0  0
   -1.8418   -0.2137    1.0729 H   0  0  0  0  0  0  0  0  0  0  0  0
   -0.6962   -2.2656   -0.4672 H   0  0  0  0  0  0  0  0  0  0  0  0
    0.4170    0.4485   -2.9288 H   0  0  0  0  0  0  0  0  0  0  0  0
    2.1446    2.1049   -2.3606 H   0  0  0  0  0  0  0  0  0  0  0  0
    3.3028    2.0306   -0.2127 H   0  0  0  0  0  0  0  0  0  0  0  0
    3.2769    2.1315    2.0211 H   0  0  0  0  0  0  0  0  0  0  0  0
    3.6509    1.0438    3.3397 H   0  0  0  0  0  0  0  0  0  0  0  0
    5.0539   -1.2327    1.8908 H   0  0  0  0  0  0  0  0  0  0  0  0
    7.4254   -1.4864    1.1908 H   0  0  0  0  0  0  0  0  0  0  0  0
    7.8352    2.7755    0.9418 H   0  0  0  0  0  0  0  0  0  0  0  0
    1.0103   -1.4308    0.9202 H   0  0  0  0  0  0  0  0  0  0  0  0
    1.0355   -2.6434   -2.3892 H   0  0  0  0  0  0  0  0  0  0  0  0
   -4.5159    0.6756    3.9632 H   0  0  0  0  0  0  0  0  0  0  0  0
   -4.9785   -0.4564    2.7016 H   0  0  0  0  0  0  0  0  0  0  0  0
   -6.8378    1.0964    3.4809 H   0  0  0  0  0  0  0  0  0  0  0  0
   -5.8857    2.4790    2.8907 H   0  0  0  0  0  0  0  0  0  0  0  0
   -6.8561    0.1582    1.1159 H   0  0  0  0  0  0  0  0  0  0  0  0
   -7.6623    1.7088    1.3006 H   0  0  0  0  0  0  0  0  0  0  0  0
  1  2  1  0
  2  3  2  0
  3  4  1  0
  4  5  2  0
  5  6  1  0
  6  7  2  0
  7  8  1  0
  8  9  2  0
  9 10  1  0
 10 11  2  0
 11 12  1  0
 12 13  1  0
 13 14  1  0
 14 15  2  0
 15 16  1  0
 16 17  2  0
 17 18  1  0
 18 19  1  0
 19 20  1  0
 20 21  1  0
 21 22  1  0
 22 23  2  0
 23 24  1  0
 24 25  1  0
 24 26  2  0
 26 27  1  0
 27 28  1  0
 18 29  2  0
 13 30  1  0
  9 31  1  0
 31 32  1  0
 32 33  1  0
 33 34  1  0
 34 35  1  0
 30  2  1  0
 12  4  1  0
 29 14  1  0
 11  6  1  0
 27 21  2  0
 35  8  1  0
  1 36  1  0
  1 37  1  0
  7 38  1  0
 10 39  1  0
 13 40  1  0
 15 41  1  0
 16 42  1  0
 17 43  1  0
 20 44  1  0
 20 45  1  0
 22 46  1  0
 23 47  1  0
 26 48  1  0
 29 49  1  0
 30 50  1  0
 32 51  1  0
 32 52  1  0
 33 53  1  0
 33 54  1  0
 34 55  1  0
 34 56  1  0
M  END
$$$$
OCNT-2309757
     RDKit          3D

 39 41  0  0  0  0  0  0  0  0999 V2000
    4.3660    0.0390   -0.8883 C   0  0  0  0  0  0  0  0  0  0  0  0
    4.1496   -0.0189    0.5965 C   0  0  0  0  0  0  0  0  0  0  0  0
    5.2544   -0.0742    1.4566 C   0  0  0  0  0  0  0  0  0  0  0  0
    5.0589   -0.1406    2.8282 C   0  0  0  0  0  0  0  0  0  0  0  0
    3.7596   -0.1508    3.2927 C   0  0  0  0  0  0  0  0  0  0  0  0
    2.6728   -0.0924    2.4931 N   0  0  0  0  0  0  0  0  0  0  0  0
    2.8625   -0.0080    1.1572 C   0  0  0  0  0  0  0  0  0  0  0  0
    1.7472    0.0271    0.3091 N   0  0  0  0  0  0  0  0  0  0  0  0
    0.4617    0.1755    0.9904 C   0  0  0  0  0  0  0  0  0  0  0  0
   -0.6880    0.4261    0.0501 C   0  0  0  0  0  0  0  0  0  0  0  0
   -1.8930   -0.2369   -0.0713 C   0  0  0  0  0  0  0  0  0  0  0  0
   -2.4868   -1.3849    0.6690 C   0  0  0  0  0  0  0  0  0  0  0  0
   -3.6585   -2.0072   -0.0944 C   0  0  0  0  0  0  0  0  0  0  0  0
   -4.5969   -0.9245   -0.6286 C   0  0  0  0  0  0  0  0  0  0  0  0
   -3.8590    0.0092   -1.5891 C   0  0  0  0  0  0  0  0  0  0  0  0
   -2.5569    0.4102   -1.0849 N   0  0  0  0  0  0  0  0  0  0  0  0
   -1.7529    1.4186   -1.5628 C   0  0  0  0  0  0  0  0  0  0  0  0
   -2.1721    2.3019   -2.6933 C   0  0  0  0  0  0  0  0  0  0  0  0
   -2.5490    1.5774   -3.7828 F   0  0  0  0  0  0  0  0  0  0  0  0
   -1.1973    3.1505   -3.1074 F   0  0  0  0  0  0  0  0  0  0  0  0
   -3.2460    3.0679   -2.3595 F   0  0  0  0  0  0  0  0  0  0  0  0
   -0.6166    1.4479   -0.8799 N   0  0  0  0  0  0  0  0  0  0  0  0
    5.4217   -0.1006   -1.1448 H   0  0  0  0  0  0  0  0  0  0  0  0
    4.0537    1.0131   -1.2780 H   0  0  0  0  0  0  0  0  0  0  0  0
    3.8029   -0.7536   -1.3916 H   0  0  0  0  0  0  0  0  0  0  0  0
    6.2659   -0.0733    1.0590 H   0  0  0  0  0  0  0  0  0  0  0  0
    5.8962   -0.1893    3.5143 H   0  0  0  0  0  0  0  0  0  0  0  0
    3.5461   -0.2087    4.3558 H   0  0  0  0  0  0  0  0  0  0  0  0
    1.8422    0.7790   -0.3690 H   0  0  0  0  0  0  0  0  0  0  0  0
    0.4903    1.0298    1.6803 H   0  0  0  0  0  0  0  0  0  0  0  0
    0.2518   -0.7257    1.5796 H   0  0  0  0  0  0  0  0  0  0  0  0
   -2.8364   -1.0276    1.6454 H   0  0  0  0  0  0  0  0  0  0  0  0
   -1.7275   -2.1521    0.8571 H   0  0  0  0  0  0  0  0  0  0  0  0
   -4.2062   -2.6904    0.5643 H   0  0  0  0  0  0  0  0  0  0  0  0
   -3.2790   -2.6042   -0.9334 H   0  0  0  0  0  0  0  0  0  0  0  0
   -5.4508   -1.3811   -1.1410 H   0  0  0  0  0  0  0  0  0  0  0  0
   -4.9976   -0.3459    0.2135 H   0  0  0  0  0  0  0  0  0  0  0  0
   -4.4534    0.9108   -1.7659 H   0  0  0  0  0  0  0  0  0  0  0  0
   -3.6795   -0.4933   -2.5463 H   0  0  0  0  0  0  0  0  0  0  0  0
  1  2  1  0
  2  3  1  0
  3  4  2  0
  4  5  1  0
  5  6  2  0
  6  7  1  0
  7  8  1  0
  8  9  1  0
  9 10  1  0
 10 11  2  0
 11 12  1  0
 12 13  1  0
 13 14  1  0
 14 15  1  0
 15 16  1  0
 16 17  1  0
 17 18  1  0
 18 19  1  0
 18 20  1  0
 18 21  1  0
 17 22  2  0
  7  2  2  0
 22 10  1  0
 16 11  1  0
  1 23  1  0
  1 24  1  0
  1 25  1  0
  3 26  1  0
  4 27  1  0
  5 28  1  0
  8 29  1  0
  9 30  1  0
  9 31  1  0
 12 32  1  0
 12 33  1  0
 13 34  1  0
 13 35  1  0
 14 36  1  0
 14 37  1  0
 15 38  1  0
 15 39  1  0
M  END
$$$$
OCNT-2309758
     RDKit          3D

 39 42  0  0  0  0  0  0  0  0999 V2000
   -3.3712   -1.6202   -3.5185 C   0  0  0  0  0  0  0  0  0  0  0  0
   -3.0774   -0.6122   -2.4460 C   0  0  0  0  0  0  0  0  0  0  0  0
   -3.7713    0.6019   -2.4111 C   0  0  0  0  0  0  0  0  0  0  0  0
   -3.5391    1.5482   -1.4068 C   0  0  0  0  0  0  0  0  0  0  0  0
   -2.5923    1.2353   -0.4254 C   0  0  0  0  0  0  0  0  0  0  0  0
   -2.1697    1.9667    0.6641 N   0  0  0  0  0  0  0  0  0  0  0  0
   -1.2297    1.2590    1.3589 C   0  0  0  0  0  0  0  0  0  0  0  0
   -1.0292    0.0557    0.7156 C   0  0  0  0  0  0  0  0  0  0  0  0
   -0.0726   -0.9764    1.2174 C   0  0  0  0  0  0  0  0  0  0  0  0
    0.9199   -0.3833    2.2559 C   0  0  0  0  0  0  0  0  0  0  0  0
    2.0078    0.3494    1.5958 N   0  0  0  0  0  0  0  0  0  0  0  0
    3.0685   -0.2963    1.0484 C   0  0  0  0  0  0  0  0  0  0  0  0
    3.6718    0.1435   -0.0326 N   0  0  0  0  0  0  0  0  0  0  0  0
    4.7190   -0.7109   -0.3507 C   0  0  0  0  0  0  0  0  0  0  0  0
    5.5598   -0.4397   -1.5395 C   0  0  0  0  0  0  0  0  0  0  0  0
    4.9628   -1.7739    0.4178 N   0  0  0  0  0  0  0  0  0  0  0  0
    3.8335   -1.7297    1.6444 S   0  0  0  0  0  0  0  0  0  0  0  0
    0.2079    0.5675    3.2526 C   0  0  0  0  0  0  0  0  0  0  0  0
   -0.5286    1.7390    2.5778 C   0  0  0  0  0  0  0  0  0  0  0  0
   -1.8887    0.0288   -0.4178 C   0  0  0  0  0  0  0  0  0  0  0  0
   -2.1422   -0.9085   -1.4397 C   0  0  0  0  0  0  0  0  0  0  0  0
   -2.4907   -2.2370   -3.7277 H   0  0  0  0  0  0  0  0  0  0  0  0
   -3.6489   -1.1240   -4.4546 H   0  0  0  0  0  0  0  0  0  0  0  0
   -4.1928   -2.2714   -3.2044 H   0  0  0  0  0  0  0  0  0  0  0  0
   -4.5088    0.8269   -3.1792 H   0  0  0  0  0  0  0  0  0  0  0  0
   -4.0800    2.4885   -1.3950 H   0  0  0  0  0  0  0  0  0  0  0  0
   -2.5108    2.8880    0.9013 H   0  0  0  0  0  0  0  0  0  0  0  0
    0.4661   -1.4341    0.3799 H   0  0  0  0  0  0  0  0  0  0  0  0
   -0.6565   -1.7691    1.7024 H   0  0  0  0  0  0  0  0  0  0  0  0
    1.3324   -1.2093    2.8475 H   0  0  0  0  0  0  0  0  0  0  0  0
    1.6619    1.0847    0.9805 H   0  0  0  0  0  0  0  0  0  0  0  0
    5.2020    0.4434   -2.0787 H   0  0  0  0  0  0  0  0  0  0  0  0
    6.5975   -0.2588   -1.2419 H   0  0  0  0  0  0  0  0  0  0  0  0
    5.5377   -1.2899   -2.2289 H   0  0  0  0  0  0  0  0  0  0  0  0
    0.9272    0.9665    3.9783 H   0  0  0  0  0  0  0  0  0  0  0  0
   -0.5212   -0.0223    3.8246 H   0  0  0  0  0  0  0  0  0  0  0  0
    0.1911    2.5167    2.2967 H   0  0  0  0  0  0  0  0  0  0  0  0
   -1.2362    2.1864    3.2846 H   0  0  0  0  0  0  0  0  0  0  0  0
   -1.6088   -1.8547   -1.4460 H   0  0  0  0  0  0  0  0  0  0  0  0
  1  2  1  0
  2  3  2  0
  3  4  1  0
  4  5  2  0
  5  6  1  0
  6  7  1  0
  7  8  2  0
  8  9  1  0
  9 10  1  0
 10 11  1  0
 11 12  1  0
 12 13  2  0
 13 14  1  0
 14 15  1  0
 14 16  2  0
 16 17  1  0
 10 18  1  0
 18 19  1  0
  8 20  1  0
 20 21  2  0
 21  2  1  0
 20  5  1  0
 19  7  1  0
 17 12  1  0
  1 22  1  0
  1 23  1  0
  1 24  1  0
  3 25  1  0
  4 26  1  0
  6 27  1  0
  9 28  1  0
  9 29  1  0
 10 30  1  0
 11 31  1  0
 15 32  1  0
 15 33  1  0
 15 34  1  0
 18 35  1  0
 18 36  1  0
 19 37  1  0
 19 38  1  0
 21 39  1  0
M  END
$$$$
OCNT-2309765
     RDKit          3D

 34 38  0  0  0  0  0  0  0  0999 V2000
    6.4860    1.6413   -0.5244 C   0  0  0  0  0  0  0  0  0  0  0  0
    5.1091    1.7063   -0.5342 C   0  0  0  0  0  0  0  0  0  0  0  0
    4.5093    0.4753   -0.1260 C   0  0  0  0  0  0  0  0  0  0  0  0
    3.0608    0.2758   -0.0485 C   0  0  0  0  0  0  0  0  0  0  0  0
    2.1485    1.2092   -0.3428 N   0  0  0  0  0  0  0  0  0  0  0  0
    0.9400    0.5489   -0.1209 O   0  0  0  0  0  0  0  0  0  0  0  0
    1.2477   -0.7204    0.2934 C   0  0  0  0  0  0  0  0  0  0  0  0
    0.1980   -1.8002    0.6564 C   0  0  0  0  0  0  0  0  0  0  0  0
   -1.1789   -1.6891    0.6382 C   0  0  0  0  0  0  0  0  0  0  0  0
   -2.0866   -0.5931    0.3304 C   0  0  0  0  0  0  0  0  0  0  0  0
   -2.0225    0.6096    1.0680 C   0  0  0  0  0  0  0  0  0  0  0  0
   -2.8917    1.6708    0.7917 C   0  0  0  0  0  0  0  0  0  0  0  0
   -3.8100    1.4989   -0.2198 C   0  0  0  0  0  0  0  0  0  0  0  0
   -4.7285    2.4151   -0.6250 O   0  0  0  0  0  0  0  0  0  0  0  0
   -5.3779    1.6955   -1.6938 C   0  0  0  0  0  0  0  0  0  0  0  0
   -4.8531    0.3653   -1.8904 O   0  0  0  0  0  0  0  0  0  0  0  0
   -3.8807    0.3305   -0.9402 C   0  0  0  0  0  0  0  0  0  0  0  0
   -3.0373   -0.7325   -0.6913 C   0  0  0  0  0  0  0  0  0  0  0  0
   -1.6294   -2.9308    1.0197 N   0  0  0  0  0  0  0  0  0  0  0  0
   -0.6513   -3.8147    1.2849 N   0  0  0  0  0  0  0  0  0  0  0  0
    0.4661   -3.1190    1.0617 C   0  0  0  0  0  0  0  0  0  0  0  0
    2.5467   -0.9305    0.3505 N   0  0  0  0  0  0  0  0  0  0  0  0
    5.4578   -0.4789    0.1784 C   0  0  0  0  0  0  0  0  0  0  0  0
    7.0537    0.1058   -0.0261 S   0  0  0  0  0  0  0  0  0  0  0  0
    7.1880    2.4214   -0.7860 H   0  0  0  0  0  0  0  0  0  0  0  0
    4.5619    2.5969   -0.8218 H   0  0  0  0  0  0  0  0  0  0  0  0
   -1.2937    0.7250    1.8686 H   0  0  0  0  0  0  0  0  0  0  0  0
   -2.8446    2.5972    1.3531 H   0  0  0  0  0  0  0  0  0  0  0  0
   -6.4473    1.6198   -1.4661 H   0  0  0  0  0  0  0  0  0  0  0  0
   -5.2552    2.2622   -2.6241 H   0  0  0  0  0  0  0  0  0  0  0  0
   -3.1109   -1.6349   -1.2891 H   0  0  0  0  0  0  0  0  0  0  0  0
   -2.5922   -3.2317    1.1306 H   0  0  0  0  0  0  0  0  0  0  0  0
    1.4265   -3.6005    1.1982 H   0  0  0  0  0  0  0  0  0  0  0  0
    5.2919   -1.4947    0.5121 H   0  0  0  0  0  0  0  0  0  0  0  0
  1  2  2  0
  2  3  1  0
  3  4  1  0
  4  5  2  0
  5  6  1  0
  6  7  1  0
  7  8  1  0
  8  9  2  0
  9 10  1  0
 10 11  1  0
 11 12  2  0
 12 13  1  0
 13 14  1  0
 14 15  1  0
 15 16  1  0
 16 17  1  0
 17 18  1  0
  9 19  1  0
 19 20  1  0
 20 21  2  0
  7 22  2  0
  3 23  2  0
 23 24  1  0
 24  1  1  0
 22  4  1  0
 21  8  1  0
 18 10  2  0
 17 13  2  0
  1 25  1  0
  2 26  1  0
 11 27  1  0
 12 28  1  0
 15 29  1  0
 15 30  1  0
 18 31  1  0
 19 32  1  0
 21 33  1  0
 23 34  1  0
M  END
$$$$
OCNT-2309780
     RDKit          3D

 43 45  0  0  0  0  0  0  0  0999 V2000
    7.9756    0.1251    0.6051 C   0  0  0  0  0  0  0  0  0  0  0  0
    6.8011    0.9420    0.3529 N   0  0  0  0  0  0  0  0  0  0  0  0
    5.5490    0.3347    0.2289 C   0  0  0  0  0  0  0  0  0  0  0  0
    5.3649   -1.0123   -0.0923 C   0  0  0  0  0  0  0  0  0  0  0  0
    4.0814   -1.5318   -0.2746 C   0  0  0  0  0  0  0  0  0  0  0  0
    3.0002   -0.6715   -0.1578 C   0  0  0  0  0  0  0  0  0  0  0  0
    1.6052   -1.1910   -0.3387 C   0  0  0  0  0  0  0  0  0  0  0  0
    1.3835   -2.3821   -0.5217 O   0  0  0  0  0  0  0  0  0  0  0  0
    0.6289   -0.2187   -0.2651 N   0  0  0  0  0  0  0  0  0  0  0  0
   -0.7816   -0.5420   -0.1880 C   0  0  0  0  0  0  0  0  0  0  0  0
   -1.6524    0.6000   -0.7097 C   0  0  0  0  0  0  0  0  0  0  0  0
   -3.1151    0.3012   -0.5929 C   0  0  0  0  0  0  0  0  0  0  0  0
   -3.9182   -0.2916   -1.5553 C   0  0  0  0  0  0  0  0  0  0  0  0
   -3.5946   -0.7835   -2.9195 C   0  0  0  0  0  0  0  0  0  0  0  0
   -5.1879   -0.3801   -1.0418 N   0  0  0  0  0  0  0  0  0  0  0  0
   -5.2328    0.1336    0.2320 C   0  0  0  0  0  0  0  0  0  0  0  0
   -6.3076    0.2418    1.1230 C   0  0  0  0  0  0  0  0  0  0  0  0
   -6.0576    0.8142    2.3734 C   0  0  0  0  0  0  0  0  0  0  0  0
   -4.7833    1.2592    2.7158 C   0  0  0  0  0  0  0  0  0  0  0  0
   -3.7208    1.1431    1.8118 C   0  0  0  0  0  0  0  0  0  0  0  0
   -3.9464    0.5698    0.5430 C   0  0  0  0  0  0  0  0  0  0  0  0
    3.1180    0.6553    0.1182 N   0  0  0  0  0  0  0  0  0  0  0  0
    4.3841    1.1124    0.2821 C   0  0  0  0  0  0  0  0  0  0  0  0
    8.8418    0.7783    0.7517 H   0  0  0  0  0  0  0  0  0  0  0  0
    7.8541   -0.4785    1.5106 H   0  0  0  0  0  0  0  0  0  0  0  0
    8.2005   -0.5253   -0.2461 H   0  0  0  0  0  0  0  0  0  0  0  0
    6.7715    1.7769    0.9345 H   0  0  0  0  0  0  0  0  0  0  0  0
    6.2090   -1.6844   -0.2101 H   0  0  0  0  0  0  0  0  0  0  0  0
    3.9335   -2.5805   -0.5113 H   0  0  0  0  0  0  0  0  0  0  0  0
    0.9596    0.6927    0.0444 H   0  0  0  0  0  0  0  0  0  0  0  0
   -0.9726   -1.4633   -0.7505 H   0  0  0  0  0  0  0  0  0  0  0  0
   -1.0039   -0.7528    0.8645 H   0  0  0  0  0  0  0  0  0  0  0  0
   -1.4218    1.5223   -0.1614 H   0  0  0  0  0  0  0  0  0  0  0  0
   -1.3980    0.8069   -1.7570 H   0  0  0  0  0  0  0  0  0  0  0  0
   -2.7199   -1.4410   -2.8923 H   0  0  0  0  0  0  0  0  0  0  0  0
   -3.3729    0.0587   -3.5826 H   0  0  0  0  0  0  0  0  0  0  0  0
   -4.4261   -1.3485   -3.3528 H   0  0  0  0  0  0  0  0  0  0  0  0
   -5.9843   -0.7718   -1.5242 H   0  0  0  0  0  0  0  0  0  0  0  0
   -7.3009   -0.1052    0.8589 H   0  0  0  0  0  0  0  0  0  0  0  0
   -6.8709    0.9121    3.0887 H   0  0  0  0  0  0  0  0  0  0  0  0
   -4.6094    1.7007    3.6938 H   0  0  0  0  0  0  0  0  0  0  0  0
   -2.7317    1.4928    2.0906 H   0  0  0  0  0  0  0  0  0  0  0  0
    4.4487    2.1820    0.4675 H   0  0  0  0  0  0  0  0  0  0  0  0
  1  2  1  0
  2  3  1  0
  3  4  2  0
  4  5  1  0
  5  6  2  0
  6  7  1  0
  7  8  2  0
  7  9  1  0
  9 10  1  0
 10 11  1  0
 11 12  1  0
 12 13  2  0
 13 14  1  0
 13 15  1  0
 15 16  1  0
 16 17  2  0
 17 18  1  0
 18 19  2  0
 19 20  1  0
 20 21  2  0
  6 22  1  0
 22 23  2  0
 23  3  1  0
 21 12  1  0
 21 16  1  0
  1 24  1  0
  1 25  1  0
  1 26  1  0
  2 27  1  0
  4 28  1  0
  5 29  1  0
  9 30  1  0
 10 31  1  0
 10 32  1  0
 11 33  1  0
 11 34  1  0
 14 35  1  0
 14 36  1  0
 14 37  1  0
 15 38  1  0
 17 39  1  0
 18 40  1  0
 19 41  1  0
 20 42  1  0
 23 43  1  0
M  END
$$$$
OCNT-2309782
     RDKit          3D

 46 48  0  0  0  0  0  0  0  0999 V2000
    4.7128    2.3141   -0.9897 C   0  0  0  0  0  0  0  0  0  0  0  0
    3.9573    1.1103   -1.0040 O   0  0  0  0  0  0  0  0  0  0  0  0
    4.1700    0.2273    0.0211 C   0  0  0  0  0  0  0  0  0  0  0  0
    4.8619    0.5316    1.1978 C   0  0  0  0  0  0  0  0  0  0  0  0
    5.0600   -0.4467    2.1779 C   0  0  0  0  0  0  0  0  0  0  0  0
    4.5666   -1.7363    1.9936 C   0  0  0  0  0  0  0  0  0  0  0  0
    3.8634   -2.0483    0.8331 C   0  0  0  0  0  0  0  0  0  0  0  0
    3.6464   -1.0656   -0.1355 C   0  0  0  0  0  0  0  0  0  0  0  0
    2.9630   -1.4679   -1.2555 O   0  0  0  0  0  0  0  0  0  0  0  0
    1.6977   -0.7981   -1.3744 C   0  0  0  0  0  0  0  0  0  0  0  0
    0.7681   -1.6693   -2.2321 C   0  0  0  0  0  0  0  0  0  0  0  0
    0.3714   -2.8554   -1.5279 O   0  0  0  0  0  0  0  0  0  0  0  0
   -0.4640   -0.9049   -2.7466 C   0  0  0  0  0  0  0  0  0  0  0  0
   -1.1619   -0.1199   -1.7508 N   0  0  0  0  0  0  0  0  0  0  0  0
   -1.7541    1.0720   -2.0769 N   0  0  0  0  0  0  0  0  0  0  0  0
   -2.5226    1.4266   -1.1321 N   0  0  0  0  0  0  0  0  0  0  0  0
   -2.4745    0.4852   -0.1389 N   0  0  0  0  0  0  0  0  0  0  0  0
   -3.4241    0.4359    0.9413 C   0  0  0  0  0  0  0  0  0  0  0  0
   -4.7865   -0.1098    0.5167 C   0  0  0  0  0  0  0  0  0  0  0  0
   -5.7533    0.3723    1.5965 C   0  0  0  0  0  0  0  0  0  0  0  0
   -5.0389    1.4961    2.3483 C   0  0  0  0  0  0  0  0  0  0  0  0
   -3.7763    1.7893    1.5493 C   0  0  0  0  0  0  0  0  0  0  0  0
   -1.6850   -0.5678   -0.5546 C   0  0  0  0  0  0  0  0  0  0  0  0
   -1.4937   -1.6431   -0.0117 O   0  0  0  0  0  0  0  0  0  0  0  0
    4.3758    2.9748   -0.1856 H   0  0  0  0  0  0  0  0  0  0  0  0
    5.7868    2.1138   -0.9174 H   0  0  0  0  0  0  0  0  0  0  0  0
    4.5354    2.8304   -1.9380 H   0  0  0  0  0  0  0  0  0  0  0  0
    5.2640    1.5212    1.3831 H   0  0  0  0  0  0  0  0  0  0  0  0
    5.6057   -0.2002    3.0858 H   0  0  0  0  0  0  0  0  0  0  0  0
    4.7334   -2.4988    2.7497 H   0  0  0  0  0  0  0  0  0  0  0  0
    3.4769   -3.0513    0.6799 H   0  0  0  0  0  0  0  0  0  0  0  0
    1.8501    0.1659   -1.8714 H   0  0  0  0  0  0  0  0  0  0  0  0
    1.2553   -0.6410   -0.3823 H   0  0  0  0  0  0  0  0  0  0  0  0
    1.3265   -2.0336   -3.1024 H   0  0  0  0  0  0  0  0  0  0  0  0
   -0.1821   -2.5898   -0.7632 H   0  0  0  0  0  0  0  0  0  0  0  0
   -1.1907   -1.6145   -3.1597 H   0  0  0  0  0  0  0  0  0  0  0  0
   -0.1528   -0.2189   -3.5432 H   0  0  0  0  0  0  0  0  0  0  0  0
   -3.0131   -0.2207    1.7200 H   0  0  0  0  0  0  0  0  0  0  0  0
   -4.7832   -1.2008    0.4235 H   0  0  0  0  0  0  0  0  0  0  0  0
   -5.0883    0.2985   -0.4556 H   0  0  0  0  0  0  0  0  0  0  0  0
   -6.0063   -0.4413    2.2851 H   0  0  0  0  0  0  0  0  0  0  0  0
   -6.6896    0.7219    1.1482 H   0  0  0  0  0  0  0  0  0  0  0  0
   -4.7735    1.1528    3.3555 H   0  0  0  0  0  0  0  0  0  0  0  0
   -5.6696    2.3838    2.4580 H   0  0  0  0  0  0  0  0  0  0  0  0
   -3.9922    2.5360    0.7773 H   0  0  0  0  0  0  0  0  0  0  0  0
   -2.9722    2.1842    2.1767 H   0  0  0  0  0  0  0  0  0  0  0  0
  1  2  1  0
  2  3  1  0
  3  4  2  0
  4  5  1  0
  5  6  2  0
  6  7  1  0
  7  8  2  0
  8  9  1  0
  9 10  1  0
 10 11  1  0
 11 12  1  0
 11 13  1  0
 13 14  1  0
 14 15  1  0
 15 16  2  0
 16 17  1  0
 17 18  1  0
 18 19  1  0
 19 20  1  0
 20 21  1  0
 21 22  1  0
 17 23  1  0
 23 24  2  0
  8  3  1  0
 23 14  1  0
 22 18  1  0
  1 25  1  0
  1 26  1  0
  1 27  1  0
  4 28  1  0
  5 29  1  0
  6 30  1  0
  7 31  1  0
 10 32  1  0
 10 33  1  0
 11 34  1  0
 12 35  1  0
 13 36  1  0
 13 37  1  0
 18 38  1  0
 19 39  1  0
 19 40  1  0
 20 41  1  0
 20 42  1  0
 21 43  1  0
 21 44  1  0
 22 45  1  0
 22 46  1  0
M  END
$$$$
OCNT-2309787
     RDKit          3D

 35 37  0  0  0  0  0  0  0  0999 V2000
    6.3994   -0.7104   -1.4310 F   0  0  0  0  0  0  0  0  0  0  0  0
    5.1231   -0.3945   -1.1743 C   0  0  0  0  0  0  0  0  0  0  0  0
    4.1094   -1.2451   -1.5993 C   0  0  0  0  0  0  0  0  0  0  0  0
    2.7785   -0.9194   -1.3322 C   0  0  0  0  0  0  0  0  0  0  0  0
    2.4626    0.2627   -0.6437 C   0  0  0  0  0  0  0  0  0  0  0  0
    1.0249    0.6180   -0.3404 C   0  0  0  0  0  0  0  0  0  0  0  0
    0.7328    0.4114    1.0779 N   0  0  0  0  0  0  0  0  0  0  0  0
   -0.6807    0.7389    1.4234 C   0  0  0  0  0  0  0  0  0  0  0  0
   -1.7566   -0.2216    0.8726 C   0  0  0  0  0  0  0  0  0  0  0  0
   -1.8455   -1.4579    1.4089 N   0  0  0  0  0  0  0  0  0  0  0  0
   -2.7724   -2.2900    0.9057 C   0  0  0  0  0  0  0  0  0  0  0  0
   -3.6125   -1.9520   -0.1249 C   0  0  0  0  0  0  0  0  0  0  0  0
   -3.4576   -0.6815   -0.6474 C   0  0  0  0  0  0  0  0  0  0  0  0
   -4.3670   -0.2349   -1.7806 C   0  0  0  0  0  0  0  0  0  0  0  0
   -5.6101    0.1162   -1.3424 F   0  0  0  0  0  0  0  0  0  0  0  0
   -4.5719   -1.2214   -2.7036 F   0  0  0  0  0  0  0  0  0  0  0  0
   -3.8989    0.8334   -2.4844 F   0  0  0  0  0  0  0  0  0  0  0  0
   -2.5353    0.1860   -0.1530 N   0  0  0  0  0  0  0  0  0  0  0  0
   -0.9060    1.2942    2.8204 C   0  0  0  0  0  0  0  0  0  0  0  0
   -1.0333    2.1993    1.6348 C   0  0  0  0  0  0  0  0  0  0  0  0
    3.5036    1.1041   -0.2167 C   0  0  0  0  0  0  0  0  0  0  0  0
    4.8331    0.7760   -0.4844 C   0  0  0  0  0  0  0  0  0  0  0  0
    4.3619   -2.1556   -2.1328 H   0  0  0  0  0  0  0  0  0  0  0  0
    1.9903   -1.5918   -1.6632 H   0  0  0  0  0  0  0  0  0  0  0  0
    0.3611    0.0133   -0.9700 H   0  0  0  0  0  0  0  0  0  0  0  0
    0.8586    1.6656   -0.6203 H   0  0  0  0  0  0  0  0  0  0  0  0
    0.9016   -0.5698    1.3051 H   0  0  0  0  0  0  0  0  0  0  0  0
   -2.8194   -3.2696    1.3737 H   0  0  0  0  0  0  0  0  0  0  0  0
   -4.3506   -2.6484   -0.5039 H   0  0  0  0  0  0  0  0  0  0  0  0
   -0.0438    1.4189    3.4652 H   0  0  0  0  0  0  0  0  0  0  0  0
   -1.8108    1.0126    3.3465 H   0  0  0  0  0  0  0  0  0  0  0  0
   -0.2593    2.9416    1.4799 H   0  0  0  0  0  0  0  0  0  0  0  0
   -2.0250    2.5355    1.3543 H   0  0  0  0  0  0  0  0  0  0  0  0
    3.2750    2.0142    0.3346 H   0  0  0  0  0  0  0  0  0  0  0  0
    5.6406    1.4220   -0.1559 H   0  0  0  0  0  0  0  0  0  0  0  0
  1  2  1  0
  2  3  1  0
  3  4  2  0
  4  5  1  0
  5  6  1  0
  6  7  1  0
  7  8  1  0
  8  9  1  0
  9 10  2  0
 10 11  1  0
 11 12  2  0
 12 13  1  0
 13 14  1  0
 14 15  1  0
 14 16  1  0
 14 17  1  0
 13 18  2  0
  8 19  1  0
 19 20  1  0
  5 21  2  0
 21 22  1  0
 22  2  2  0
 20  8  1  0
 18  9  1  0
  3 23  1  0
  4 24  1  0
  6 25  1  0
  6 26  1  0
  7 27  1  0
 11 28  1  0
 12 29  1  0
 19 30  1  0
 19 31  1  0
 20 32  1  0
 20 33  1  0
 21 34  1  0
 22 35  1  0
M  END
$$$$
OCNT-2309794
     RDKit          3D

 41 43  0  0  0  0  0  0  0  0999 V2000
   -3.7094    2.3259   -0.9045 C   0  0  0  0  0  0  0  0  0  0  0  0
   -2.8996    1.0504   -1.0747 C   0  0  0  0  0  0  0  0  0  0  0  0
   -2.8809    0.2248    0.2124 C   0  0  0  0  0  0  0  0  0  0  0  0
   -2.0823   -1.0215    0.0507 C   0  0  0  0  0  0  0  0  0  0  0  0
   -0.7323   -1.2910    0.1971 C   0  0  0  0  0  0  0  0  0  0  0  0
    0.3863   -0.2756    0.5832 C   0  0  0  0  0  0  0  0  0  0  0  0
    1.6609   -0.5881    0.7100 N   0  0  0  0  0  0  0  0  0  0  0  0
    2.2355    0.6114    1.0379 C   0  0  0  0  0  0  0  0  0  0  0  0
    3.6981    0.7508    1.2799 C   0  0  0  0  0  0  0  0  0  0  0  0
    4.5542    0.8888    0.0349 C   0  0  0  0  0  0  0  0  0  0  0  0
    4.5211   -0.2836   -0.9108 C   0  0  0  0  0  0  0  0  0  0  0  0
    5.8643    1.6597    0.1516 C   0  0  0  0  0  0  0  0  0  0  0  0
    4.6998    2.2482   -0.5543 C   0  0  0  0  0  0  0  0  0  0  0  0
    4.0619    3.3397   -0.0143 F   0  0  0  0  0  0  0  0  0  0  0  0
    4.7503    2.4326   -1.9168 F   0  0  0  0  0  0  0  0  0  0  0  0
    1.3830    1.6380    1.1305 N   0  0  0  0  0  0  0  0  0  0  0  0
    0.1531    1.0548    0.8265 O   0  0  0  0  0  0  0  0  0  0  0  0
   -0.4937   -2.6142   -0.0559 N   0  0  0  0  0  0  0  0  0  0  0  0
   -1.6475   -3.1883   -0.3636 N   0  0  0  0  0  0  0  0  0  0  0  0
   -2.6016   -2.2419   -0.3082 N   0  0  0  0  0  0  0  0  0  0  0  0
   -3.9680   -2.5999   -0.6253 C   0  0  0  0  0  0  0  0  0  0  0  0
   -4.7328   -3.0833    0.5930 C   0  0  0  0  0  0  0  0  0  0  0  0
   -3.2845    2.9569   -0.1176 H   0  0  0  0  0  0  0  0  0  0  0  0
   -4.7474    2.0995   -0.6416 H   0  0  0  0  0  0  0  0  0  0  0  0
   -3.7133    2.9003   -1.8357 H   0  0  0  0  0  0  0  0  0  0  0  0
   -3.3263    0.4609   -1.8958 H   0  0  0  0  0  0  0  0  0  0  0  0
   -1.8771    1.3119   -1.3721 H   0  0  0  0  0  0  0  0  0  0  0  0
   -3.9067   -0.0160    0.5147 H   0  0  0  0  0  0  0  0  0  0  0  0
   -2.4641    0.8233    1.0315 H   0  0  0  0  0  0  0  0  0  0  0  0
    3.8650    1.6050    1.9497 H   0  0  0  0  0  0  0  0  0  0  0  0
    4.0426   -0.1287    1.8383 H   0  0  0  0  0  0  0  0  0  0  0  0
    4.7123   -1.2168   -0.3711 H   0  0  0  0  0  0  0  0  0  0  0  0
    5.2779   -0.1962   -1.6986 H   0  0  0  0  0  0  0  0  0  0  0  0
    3.5451   -0.3596   -1.4010 H   0  0  0  0  0  0  0  0  0  0  0  0
    6.1349    2.0963    1.1050 H   0  0  0  0  0  0  0  0  0  0  0  0
    6.7083    1.3575   -0.4559 H   0  0  0  0  0  0  0  0  0  0  0  0
   -4.4568   -1.7269   -1.0685 H   0  0  0  0  0  0  0  0  0  0  0  0
   -3.9377   -3.3811   -1.3934 H   0  0  0  0  0  0  0  0  0  0  0  0
   -5.7575   -3.3496    0.3162 H   0  0  0  0  0  0  0  0  0  0  0  0
   -4.2573   -3.9657    1.0330 H   0  0  0  0  0  0  0  0  0  0  0  0
   -4.7776   -2.3088    1.3656 H   0  0  0  0  0  0  0  0  0  0  0  0
  1  2  1  0
  2  3  1  0
  3  4  1  0
  4  5  2  0
  5  6  1  0
  6  7  2  0
  7  8  1  0
  8  9  1  0
  9 10  1  0
 10 11  1  0
 10 12  1  0
 12 13  1  0
 13 14  1  0
 13 15  1  0
  8 16  2  0
 16 17  1  0
  5 18  1  0
 18 19  2  0
 19 20  1  0
 20 21  1  0
 21 22  1  0
 20  4  1  0
 17  6  1  0
 13 10  1  0
  1 23  1  0
  1 24  1  0
  1 25  1  0
  2 26  1  0
  2 27  1  0
  3 28  1  0
  3 29  1  0
  9 30  1  0
  9 31  1  0
 11 32  1  0
 11 33  1  0
 11 34  1  0
 12 35  1  0
 12 36  1  0
 21 37  1  0
 21 38  1  0
 22 39  1  0
 22 40  1  0
 22 41  1  0
M  END
$$$$
OCNT-2309801
     RDKit          3D

 37 39  0  0  0  0  0  0  0  0999 V2000
    3.7684    0.3994   -3.5202 C   0  0  0  0  0  0  0  0  0  0  0  0
    3.1940    0.4475   -2.1138 C   0  0  0  0  0  0  0  0  0  0  0  0
    3.2169    1.8120   -1.6222 N   0  0  0  0  0  0  0  0  0  0  0  0
    2.6309    2.0864   -0.4351 C   0  0  0  0  0  0  0  0  0  0  0  0
    1.7548    1.3194    0.1693 N   0  0  0  0  0  0  0  0  0  0  0  0
    1.3246    1.8951    1.3659 C   0  0  0  0  0  0  0  0  0  0  0  0
    0.3531    1.2696    2.2848 C   0  0  0  0  0  0  0  0  0  0  0  0
    0.2988    1.6481    3.4568 O   0  0  0  0  0  0  0  0  0  0  0  0
   -0.4974    0.2627    1.8125 N   0  0  0  0  0  0  0  0  0  0  0  0
   -1.2140   -0.5553    2.7848 C   0  0  0  0  0  0  0  0  0  0  0  0
   -2.6740   -0.7435    2.3853 C   0  0  0  0  0  0  0  0  0  0  0  0
   -2.7822   -1.2690    0.9780 C   0  0  0  0  0  0  0  0  0  0  0  0
   -3.9169   -1.9889    0.5786 C   0  0  0  0  0  0  0  0  0  0  0  0
   -4.0276   -2.4465   -0.7331 C   0  0  0  0  0  0  0  0  0  0  0  0
   -5.4247   -3.3284   -1.2153 Cl  0  0  0  0  0  0  0  0  0  0  0  0
   -3.0203   -2.1879   -1.6585 C   0  0  0  0  0  0  0  0  0  0  0  0
   -1.8926   -1.4627   -1.2698 C   0  0  0  0  0  0  0  0  0  0  0  0
   -1.7640   -0.9924    0.0474 C   0  0  0  0  0  0  0  0  0  0  0  0
   -0.5337   -0.1902    0.4229 C   0  0  0  0  0  0  0  0  0  0  0  0
    1.9413    3.1021    1.6521 C   0  0  0  0  0  0  0  0  0  0  0  0
    3.0217    3.5372    0.4019 S   0  0  0  0  0  0  0  0  0  0  0  0
    3.7309   -0.6215   -3.9130 H   0  0  0  0  0  0  0  0  0  0  0  0
    3.2053    1.0504   -4.1969 H   0  0  0  0  0  0  0  0  0  0  0  0
    4.8121    0.7305   -3.5293 H   0  0  0  0  0  0  0  0  0  0  0  0
    3.7863   -0.1998   -1.4567 H   0  0  0  0  0  0  0  0  0  0  0  0
    2.1674    0.0612   -2.1381 H   0  0  0  0  0  0  0  0  0  0  0  0
    4.0536    2.3441   -1.8382 H   0  0  0  0  0  0  0  0  0  0  0  0
   -1.1671   -0.1201    3.7883 H   0  0  0  0  0  0  0  0  0  0  0  0
   -0.6972   -1.5228    2.8316 H   0  0  0  0  0  0  0  0  0  0  0  0
   -3.1499   -1.4373    3.0883 H   0  0  0  0  0  0  0  0  0  0  0  0
   -3.2057    0.2141    2.4382 H   0  0  0  0  0  0  0  0  0  0  0  0
   -4.7145   -2.1902    1.2903 H   0  0  0  0  0  0  0  0  0  0  0  0
   -3.1109   -2.5376   -2.6840 H   0  0  0  0  0  0  0  0  0  0  0  0
   -1.1145   -1.2567   -2.0024 H   0  0  0  0  0  0  0  0  0  0  0  0
    0.3516   -0.8155    0.2617 H   0  0  0  0  0  0  0  0  0  0  0  0
   -0.5017    0.6858   -0.2328 H   0  0  0  0  0  0  0  0  0  0  0  0
    1.7977    3.7305    2.5205 H   0  0  0  0  0  0  0  0  0  0  0  0
  1  2  1  0
  2  3  1  0
  3  4  1  0
  4  5  2  0
  5  6  1  0
  6  7  1  0
  7  8  2  0
  7  9  1  0
  9 10  1  0
 10 11  1  0
 11 12  1  0
 12 13  1  0
 13 14  2  0
 14 15  1  0
 14 16  1  0
 16 17  2  0
 17 18  1  0
 18 19  1  0
  6 20  2  0
 20 21  1  0
 21  4  1  0
 19  9  1  0
 18 12  2  0
  1 22  1  0
  1 23  1  0
  1 24  1  0
  2 25  1  0
  2 26  1  0
  3 27  1  0
 10 28  1  0
 10 29  1  0
 11 30  1  0
 11 31  1  0
 13 32  1  0
 16 33  1  0
 17 34  1  0
 19 35  1  0
 19 36  1  0
 20 37  1  0
M  END
$$$$
OCNT-2309804
     RDKit          3D

 44 46  0  0  0  0  0  0  0  0999 V2000
   -6.0201    2.7051   -0.6202 C   0  0  0  0  0  0  0  0  0  0  0  0
   -5.6691    1.3390   -0.4454 O   0  0  0  0  0  0  0  0  0  0  0  0
   -5.2310    1.0737    0.8869 C   0  0  0  0  0  0  0  0  0  0  0  0
   -4.8547   -0.4030    1.0180 C   0  0  0  0  0  0  0  0  0  0  0  0
   -3.6353   -0.8082    0.1895 C   0  0  0  0  0  0  0  0  0  0  0  0
   -2.3679   -0.0498    0.5511 C   0  0  0  0  0  0  0  0  0  0  0  0
   -1.1596   -0.6631    0.0440 N   0  0  0  0  0  0  0  0  0  0  0  0
    0.0646   -0.1692    0.4539 C   0  0  0  0  0  0  0  0  0  0  0  0
    0.1723    0.7272    1.2795 O   0  0  0  0  0  0  0  0  0  0  0  0
    1.0880   -0.8381   -0.1819 N   0  0  0  0  0  0  0  0  0  0  0  0
    2.4694   -0.5815   -0.0935 C   0  0  0  0  0  0  0  0  0  0  0  0
    3.3328   -1.4927   -0.7114 C   0  0  0  0  0  0  0  0  0  0  0  0
    4.7188   -1.3035   -0.6748 C   0  0  0  0  0  0  0  0  0  0  0  0
    5.2615   -0.1912   -0.0179 C   0  0  0  0  0  0  0  0  0  0  0  0
    6.6682   -0.0120    0.0130 N   0  0  0  0  0  0  0  0  0  0  0  0
    7.4009    0.9958    0.5987 C   0  0  0  0  0  0  0  0  0  0  0  0
    8.7092    0.6815    0.3264 C   0  0  0  0  0  0  0  0  0  0  0  0
    8.7597   -0.4703   -0.3953 N   0  0  0  0  0  0  0  0  0  0  0  0
    7.5155   -0.8888   -0.5834 N   0  0  0  0  0  0  0  0  0  0  0  0
    4.4012    0.7259    0.5962 C   0  0  0  0  0  0  0  0  0  0  0  0
    3.0139    0.5288    0.5537 C   0  0  0  0  0  0  0  0  0  0  0  0
   -3.5652   -2.2696   -0.2310 C   0  0  0  0  0  0  0  0  0  0  0  0
   -3.8761   -1.2151   -1.2545 C   0  0  0  0  0  0  0  0  0  0  0  0
   -5.1537    3.3489   -0.4403 H   0  0  0  0  0  0  0  0  0  0  0  0
   -6.3513    2.8461   -1.6525 H   0  0  0  0  0  0  0  0  0  0  0  0
   -6.8399    2.9792    0.0507 H   0  0  0  0  0  0  0  0  0  0  0  0
   -4.3854    1.7231    1.1369 H   0  0  0  0  0  0  0  0  0  0  0  0
   -6.0517    1.2943    1.5794 H   0  0  0  0  0  0  0  0  0  0  0  0
   -5.7188   -1.0125    0.7239 H   0  0  0  0  0  0  0  0  0  0  0  0
   -4.6471   -0.6286    2.0709 H   0  0  0  0  0  0  0  0  0  0  0  0
   -2.2781    0.0265    1.6412 H   0  0  0  0  0  0  0  0  0  0  0  0
   -2.4112    0.9670    0.1441 H   0  0  0  0  0  0  0  0  0  0  0  0
   -1.1884   -0.9346   -0.9257 H   0  0  0  0  0  0  0  0  0  0  0  0
    0.8135   -1.6915   -0.6448 H   0  0  0  0  0  0  0  0  0  0  0  0
    2.9439   -2.3662   -1.2288 H   0  0  0  0  0  0  0  0  0  0  0  0
    5.3577   -2.0368   -1.1647 H   0  0  0  0  0  0  0  0  0  0  0  0
    6.9573    1.8167    1.1377 H   0  0  0  0  0  0  0  0  0  0  0  0
    9.6054    1.2155    0.6078 H   0  0  0  0  0  0  0  0  0  0  0  0
    4.7661    1.6064    1.1166 H   0  0  0  0  0  0  0  0  0  0  0  0
    2.3813    1.2684    1.0364 H   0  0  0  0  0  0  0  0  0  0  0  0
   -2.6058   -2.7702   -0.2775 H   0  0  0  0  0  0  0  0  0  0  0  0
   -4.3697   -2.9349    0.0668 H   0  0  0  0  0  0  0  0  0  0  0  0
   -4.8903   -1.1599   -1.6392 H   0  0  0  0  0  0  0  0  0  0  0  0
   -3.1309   -0.9778   -2.0034 H   0  0  0  0  0  0  0  0  0  0  0  0
  1  2  1  0
  2  3  1  0
  3  4  1  0
  4  5  1  0
  5  6  1  0
  6  7  1  0
  7  8  1  0
  8  9  2  0
  8 10  1  0
 10 11  1  0
 11 12  1  0
 12 13  2  0
 13 14  1  0
 14 15  1  0
 15 16  1  0
 16 17  2  0
 17 18  1  0
 18 19  2  0
 14 20  2  0
 20 21  1  0
  5 22  1  0
 22 23  1  0
 23  5  1  0
 21 11  2  0
 19 15  1  0
  1 24  1  0
  1 25  1  0
  1 26  1  0
  3 27  1  0
  3 28  1  0
  4 29  1  0
  4 30  1  0
  6 31  1  0
  6 32  1  0
  7 33  1  0
 10 34  1  0
 12 35  1  0
 13 36  1  0
 16 37  1  0
 17 38  1  0
 20 39  1  0
 21 40  1  0
 22 41  1  0
 22 42  1  0
 23 43  1  0
 23 44  1  0
M  END
$$$$
OCNT-2309805
     RDKit          3D

 39 42  0  0  0  0  0  0  0  0999 V2000
   -0.8250   -0.1057    2.7770 O   0  0  0  0  0  0  0  0  0  0  0  0
   -0.9949   -0.1599    1.5616 C   0  0  0  0  0  0  0  0  0  0  0  0
   -2.3787   -0.2115    1.0685 C   0  0  0  0  0  0  0  0  0  0  0  0
   -3.0802   -1.4230    1.1383 C   0  0  0  0  0  0  0  0  0  0  0  0
   -4.3914   -1.4965    0.6744 C   0  0  0  0  0  0  0  0  0  0  0  0
   -5.0320   -0.3713    0.1417 C   0  0  0  0  0  0  0  0  0  0  0  0
   -4.3170    0.8339    0.0993 C   0  0  0  0  0  0  0  0  0  0  0  0
   -3.0016    0.9468    0.5572 C   0  0  0  0  0  0  0  0  0  0  0  0
   -2.6130    2.3049    0.3712 C   0  0  0  0  0  0  0  0  0  0  0  0
   -3.6749    2.9735   -0.1926 C   0  0  0  0  0  0  0  0  0  0  0  0
   -4.6997    2.0785   -0.3491 N   0  0  0  0  0  0  0  0  0  0  0  0
    0.0488   -0.2017    0.6376 N   0  0  0  0  0  0  0  0  0  0  0  0
   -0.1245   -0.1081   -0.8117 C   0  0  0  0  0  0  0  0  0  0  0  0
    0.8697   -1.0033   -1.5470 C   0  0  0  0  0  0  0  0  0  0  0  0
    2.2826   -0.7661   -1.0802 C   0  0  0  0  0  0  0  0  0  0  0  0
    3.3603   -1.0874   -1.9192 C   0  0  0  0  0  0  0  0  0  0  0  0
    4.6736   -0.9017   -1.4866 C   0  0  0  0  0  0  0  0  0  0  0  0
    4.9099   -0.4003   -0.2019 C   0  0  0  0  0  0  0  0  0  0  0  0
    6.2901   -0.2010    0.2574 N   0  0  0  0  0  0  0  0  0  0  0  0
    6.4588    0.2707    1.3910 O   0  0  0  0  0  0  0  0  0  0  0  0
    7.2067   -0.5136   -0.5163 O   0  0  0  0  0  0  0  0  0  0  0  0
    3.8416   -0.0892    0.6505 C   0  0  0  0  0  0  0  0  0  0  0  0
    2.5182   -0.2772    0.2181 C   0  0  0  0  0  0  0  0  0  0  0  0
    1.3838    0.0637    1.1601 C   0  0  0  0  0  0  0  0  0  0  0  0
   -2.6001   -2.3028    1.5597 H   0  0  0  0  0  0  0  0  0  0  0  0
   -4.9294   -2.4404    0.7332 H   0  0  0  0  0  0  0  0  0  0  0  0
   -6.0562   -0.4348   -0.2132 H   0  0  0  0  0  0  0  0  0  0  0  0
   -1.6576    2.7433    0.6309 H   0  0  0  0  0  0  0  0  0  0  0  0
   -3.7931    4.0085   -0.4849 H   0  0  0  0  0  0  0  0  0  0  0  0
   -5.6111    2.2964   -0.7285 H   0  0  0  0  0  0  0  0  0  0  0  0
    0.0199    0.9440   -1.0875 H   0  0  0  0  0  0  0  0  0  0  0  0
   -1.1361   -0.3916   -1.1125 H   0  0  0  0  0  0  0  0  0  0  0  0
    0.7878   -0.8163   -2.6240 H   0  0  0  0  0  0  0  0  0  0  0  0
    0.6239   -2.0571   -1.3666 H   0  0  0  0  0  0  0  0  0  0  0  0
    3.1799   -1.4859   -2.9161 H   0  0  0  0  0  0  0  0  0  0  0  0
    5.4933   -1.1536   -2.1562 H   0  0  0  0  0  0  0  0  0  0  0  0
    4.0253    0.2949    1.6534 H   0  0  0  0  0  0  0  0  0  0  0  0
    1.5148   -0.4940    2.0952 H   0  0  0  0  0  0  0  0  0  0  0  0
    1.4275    1.1353    1.3922 H   0  0  0  0  0  0  0  0  0  0  0  0
  1  2  2  0
  2  3  1  0
  3  4  1  0
  4  5  2  0
  5  6  1  0
  6  7  2  0
  7  8  1  0
  8  9  1  0
  9 10  2  0
 10 11  1  0
  2 12  1  0
 12 13  1  0
 13 14  1  0
 14 15  1  0
 15 16  1  0
 16 17  2  0
 17 18  1  0
 18 19  1  0
 19 20  2  0
 19 21  1  0
 18 22  2  0
 22 23  1  0
 23 24  1  0
  8  3  2  0
 24 12  1  0
 11  7  1  0
 23 15  2  0
  4 25  1  0
  5 26  1  0
  6 27  1  0
  9 28  1  0
 10 29  1  0
 11 30  1  0
 13 31  1  0
 13 32  1  0
 14 33  1  0
 14 34  1  0
 16 35  1  0
 17 36  1  0
 22 37  1  0
 24 38  1  0
 24 39  1  0
M  CHG  2  19   1  21  -1
M  END
$$$$
OCNT-2309809
     RDKit          3D

 47 51  0  0  0  0  0  0  0  0999 V2000
   -2.7331   -0.8634   -1.4589 O   0  0  0  0  0  0  0  0  0  0  0  0
   -1.9354   -0.6454   -0.5457 C   0  0  0  0  0  0  0  0  0  0  0  0
   -2.3336   -0.7355    0.9286 C   0  0  0  0  0  0  0  0  0  0  0  0
   -3.8028   -0.9170    1.1516 C   0  0  0  0  0  0  0  0  0  0  0  0
   -4.4518   -2.1057    1.4279 C   0  0  0  0  0  0  0  0  0  0  0  0
   -5.7875   -1.8436    1.5700 N   0  0  0  0  0  0  0  0  0  0  0  0
   -6.0291   -0.4989    1.4162 C   0  0  0  0  0  0  0  0  0  0  0  0
   -7.2311    0.2154    1.4896 C   0  0  0  0  0  0  0  0  0  0  0  0
   -7.1786    1.5959    1.2770 C   0  0  0  0  0  0  0  0  0  0  0  0
   -5.9719    2.2329    0.9993 C   0  0  0  0  0  0  0  0  0  0  0  0
   -4.7794    1.5030    0.9293 C   0  0  0  0  0  0  0  0  0  0  0  0
   -4.8034    0.1093    1.1440 C   0  0  0  0  0  0  0  0  0  0  0  0
   -0.5969   -0.3291   -0.8132 N   0  0  0  0  0  0  0  0  0  0  0  0
   -0.2214   -0.0869   -2.2286 C   0  0  0  0  0  0  0  0  0  0  0  0
    1.1677   -0.6448   -2.5936 C   0  0  0  0  0  0  0  0  0  0  0  0
    2.0842   -0.2970   -1.4938 C   0  0  0  0  0  0  0  0  0  0  0  0
    1.7338    0.0598   -0.2163 C   0  0  0  0  0  0  0  0  0  0  0  0
    2.9610    0.2840    0.4557 C   0  0  0  0  0  0  0  0  0  0  0  0
    3.9740    0.0450   -0.4626 C   0  0  0  0  0  0  0  0  0  0  0  0
    5.4346    0.0969   -0.4091 C   0  0  0  0  0  0  0  0  0  0  0  0
    6.2162   -0.2170   -1.5318 C   0  0  0  0  0  0  0  0  0  0  0  0
    7.6122   -0.1657   -1.4754 C   0  0  0  0  0  0  0  0  0  0  0  0
    8.2490    0.2010   -0.2931 C   0  0  0  0  0  0  0  0  0  0  0  0
    7.4912    0.5161    0.8317 C   0  0  0  0  0  0  0  0  0  0  0  0
    6.0947    0.4642    0.7737 C   0  0  0  0  0  0  0  0  0  0  0  0
    3.4217   -0.3143   -1.6673 O   0  0  0  0  0  0  0  0  0  0  0  0
    0.3238    0.1631    0.2358 C   0  0  0  0  0  0  0  0  0  0  0  0
   -1.7921   -1.5787    1.3739 H   0  0  0  0  0  0  0  0  0  0  0  0
   -2.0227    0.1811    1.4423 H   0  0  0  0  0  0  0  0  0  0  0  0
   -4.0777   -3.1166    1.5207 H   0  0  0  0  0  0  0  0  0  0  0  0
   -6.4999   -2.5342    1.7597 H   0  0  0  0  0  0  0  0  0  0  0  0
   -8.1736   -0.2794    1.6989 H   0  0  0  0  0  0  0  0  0  0  0  0
   -8.0955    2.1789    1.3234 H   0  0  0  0  0  0  0  0  0  0  0  0
   -5.9544    3.3064    0.8292 H   0  0  0  0  0  0  0  0  0  0  0  0
   -3.8473    2.0104    0.7020 H   0  0  0  0  0  0  0  0  0  0  0  0
   -0.2429    1.0016   -2.3704 H   0  0  0  0  0  0  0  0  0  0  0  0
   -0.9628   -0.5123   -2.9127 H   0  0  0  0  0  0  0  0  0  0  0  0
    1.5053   -0.2329   -3.5494 H   0  0  0  0  0  0  0  0  0  0  0  0
    1.1163   -1.7354   -2.6871 H   0  0  0  0  0  0  0  0  0  0  0  0
    3.0965    0.5839    1.4850 H   0  0  0  0  0  0  0  0  0  0  0  0
    5.7420   -0.5071   -2.4673 H   0  0  0  0  0  0  0  0  0  0  0  0
    8.1984   -0.4131   -2.3566 H   0  0  0  0  0  0  0  0  0  0  0  0
    9.3342    0.2409   -0.2487 H   0  0  0  0  0  0  0  0  0  0  0  0
    7.9854    0.8026    1.7564 H   0  0  0  0  0  0  0  0  0  0  0  0
    5.5316    0.7158    1.6684 H   0  0  0  0  0  0  0  0  0  0  0  0
    0.1884   -0.4163    1.1532 H   0  0  0  0  0  0  0  0  0  0  0  0
    0.0628    1.2078    0.4381 H   0  0  0  0  0  0  0  0  0  0  0  0
  1  2  2  0
  2  3  1  0
  3  4  1  0
  4  5  2  0
  5  6  1  0
  6  7  1  0
  7  8  2  0
  8  9  1  0
  9 10  2  0
 10 11  1  0
 11 12  2  0
  2 13  1  0
 13 14  1  0
 14 15  1  0
 15 16  1  0
 16 17  2  0
 17 18  1  0
 18 19  2  0
 19 20  1  0
 20 21  2  0
 21 22  1  0
 22 23  2  0
 23 24  1  0
 24 25  2  0
 19 26  1  0
 17 27  1  0
 12  4  1  0
 27 13  1  0
 12  7  1  0
 26 16  1  0
 25 20  1  0
  3 28  1  0
  3 29  1  0
  5 30  1  0
  6 31  1  0
  8 32  1  0
  9 33  1  0
 10 34  1  0
 11 35  1  0
 14 36  1  0
 14 37  1  0
 15 38  1  0
 15 39  1  0
 18 40  1  0
 21 41  1  0
 22 42  1  0
 23 43  1  0
 24 44  1  0
 25 45  1  0
 27 46  1  0
 27 47  1  0
M  END
$$$$
OCNT-2309810
     RDKit          3D

 63 68  0  0  0  0  0  0  0  0999 V2000
    0.6713   -1.9404   -1.9471 O   0  0  0  0  0  0  0  0  0  0  0  0
    0.0510   -1.2578   -1.1286 C   0  0  0  0  0  0  0  0  0  0  0  0
    0.5079   -1.1859    0.3340 C   0  0  0  0  0  0  0  0  0  0  0  0
    1.0245    0.2290    0.6543 C   0  0  0  0  0  0  0  0  0  0  0  0
    2.2377    0.2255    1.5811 C   0  0  0  0  0  0  0  0  0  0  0  0
    3.3052   -0.5704    1.0005 N   0  0  0  0  0  0  0  0  0  0  0  0
    4.5738   -0.1077    1.0343 C   0  0  0  0  0  0  0  0  0  0  0  0
    5.0348    0.9849    1.6123 N   0  0  0  0  0  0  0  0  0  0  0  0
    6.3766    0.9683    1.3334 C   0  0  0  0  0  0  0  0  0  0  0  0
    7.4043    1.8552    1.6799 C   0  0  0  0  0  0  0  0  0  0  0  0
    8.7034    1.5689    1.2323 C   0  0  0  0  0  0  0  0  0  0  0  0
    8.9689    0.4306    0.4594 C   0  0  0  0  0  0  0  0  0  0  0  0
    7.9515   -0.4658    0.1087 C   0  0  0  0  0  0  0  0  0  0  0  0
    6.6829   -0.1472    0.5752 C   0  0  0  0  0  0  0  0  0  0  0  0
    5.5291   -0.8430    0.3784 O   0  0  0  0  0  0  0  0  0  0  0  0
    2.9768   -1.7842    0.2656 C   0  0  0  0  0  0  0  0  0  0  0  0
    1.5718   -2.2610    0.6277 C   0  0  0  0  0  0  0  0  0  0  0  0
   -1.0604   -0.5172   -1.5139 N   0  0  0  0  0  0  0  0  0  0  0  0
   -1.3696   -0.4707   -2.9401 C   0  0  0  0  0  0  0  0  0  0  0  0
   -2.4187    0.5797   -3.2777 C   0  0  0  0  0  0  0  0  0  0  0  0
   -3.7135    0.3339   -2.5023 C   0  0  0  0  0  0  0  0  0  0  0  0
   -3.4805    0.0011   -0.9891 C   0  0  0  0  0  0  0  0  0  0  0  0
   -3.8976   -1.4870   -0.7800 C   0  0  0  0  0  0  0  0  0  0  0  0
   -4.0291   -1.8682    0.6872 C   0  0  0  0  0  0  0  0  0  0  0  0
   -5.1359   -1.0474    1.3300 C   0  0  0  0  0  0  0  0  0  0  0  0
   -5.0282    0.4274    1.0312 C   0  0  0  0  0  0  0  0  0  0  0  0
   -5.7330    1.3153    1.8638 C   0  0  0  0  0  0  0  0  0  0  0  0
   -5.6900    2.6900    1.6462 C   0  0  0  0  0  0  0  0  0  0  0  0
   -4.9443    3.1962    0.5900 C   0  0  0  0  0  0  0  0  0  0  0  0
   -4.2524    2.3257   -0.2537 C   0  0  0  0  0  0  0  0  0  0  0  0
   -4.2931    0.9281   -0.0643 C   0  0  0  0  0  0  0  0  0  0  0  0
   -1.9762    0.1936   -0.6155 C   0  0  0  0  0  0  0  0  0  0  0  0
   -0.3510   -1.4341    0.9672 H   0  0  0  0  0  0  0  0  0  0  0  0
    1.2935    0.7531   -0.2727 H   0  0  0  0  0  0  0  0  0  0  0  0
    0.2270    0.8201    1.1188 H   0  0  0  0  0  0  0  0  0  0  0  0
    1.9648   -0.1862    2.5610 H   0  0  0  0  0  0  0  0  0  0  0  0
    2.5417    1.2660    1.7505 H   0  0  0  0  0  0  0  0  0  0  0  0
    7.1950    2.7337    2.2787 H   0  0  0  0  0  0  0  0  0  0  0  0
    9.5165    2.2436    1.4910 H   0  0  0  0  0  0  0  0  0  0  0  0
    9.9863    0.2368    0.1248 H   0  0  0  0  0  0  0  0  0  0  0  0
    8.1346   -1.3495   -0.4887 H   0  0  0  0  0  0  0  0  0  0  0  0
    3.0544   -1.5973   -0.8120 H   0  0  0  0  0  0  0  0  0  0  0  0
    3.6839   -2.5853    0.5152 H   0  0  0  0  0  0  0  0  0  0  0  0
    1.3471   -3.1964    0.1022 H   0  0  0  0  0  0  0  0  0  0  0  0
    1.5453   -2.5013    1.6997 H   0  0  0  0  0  0  0  0  0  0  0  0
   -0.4465   -0.2679   -3.4955 H   0  0  0  0  0  0  0  0  0  0  0  0
   -1.7166   -1.4680   -3.2360 H   0  0  0  0  0  0  0  0  0  0  0  0
   -2.6260    0.5682   -4.3538 H   0  0  0  0  0  0  0  0  0  0  0  0
   -2.0351    1.5798   -3.0403 H   0  0  0  0  0  0  0  0  0  0  0  0
   -4.3749    1.1975   -2.6453 H   0  0  0  0  0  0  0  0  0  0  0  0
   -4.2401   -0.4944   -2.9958 H   0  0  0  0  0  0  0  0  0  0  0  0
   -4.8691   -1.6740   -1.2583 H   0  0  0  0  0  0  0  0  0  0  0  0
   -3.1854   -2.1632   -1.2674 H   0  0  0  0  0  0  0  0  0  0  0  0
   -3.0814   -1.7180    1.2161 H   0  0  0  0  0  0  0  0  0  0  0  0
   -4.2698   -2.9353    0.7734 H   0  0  0  0  0  0  0  0  0  0  0  0
   -5.1098   -1.2151    2.4138 H   0  0  0  0  0  0  0  0  0  0  0  0
   -6.1102   -1.3982    0.9676 H   0  0  0  0  0  0  0  0  0  0  0  0
   -6.3183    0.9339    2.6977 H   0  0  0  0  0  0  0  0  0  0  0  0
   -6.2347    3.3629    2.3030 H   0  0  0  0  0  0  0  0  0  0  0  0
   -4.8994    4.2693    0.4204 H   0  0  0  0  0  0  0  0  0  0  0  0
   -3.6700    2.7589   -1.0652 H   0  0  0  0  0  0  0  0  0  0  0  0
   -1.8100   -0.0906    0.4238 H   0  0  0  0  0  0  0  0  0  0  0  0
   -1.6907    1.2514   -0.6814 H   0  0  0  0  0  0  0  0  0  0  0  0
  1  2  2  0
  2  3  1  0
  3  4  1  0
  4  5  1  0
  5  6  1  0
  6  7  1  0
  7  8  2  0
  8  9  1  0
  9 10  2  0
 10 11  1  0
 11 12  2  0
 12 13  1  0
 13 14  2  0
 14 15  1  0
  6 16  1  0
 16 17  1  0
  2 18  1  0
 18 19  1  0
 19 20  1  0
 20 21  1  0
 21 22  1  0
 22 23  1  0
 23 24  1  0
 24 25  1  0
 25 26  1  0
 26 27  2  0
 27 28  1  0
 28 29  2  0
 29 30  1  0
 30 31  2  0
 22 32  1  0
 17  3  1  0
 32 18  1  0
 15  7  1  0
 31 22  1  0
 14  9  1  0
 31 26  1  0
  3 33  1  0
  4 34  1  0
  4 35  1  0
  5 36  1  0
  5 37  1  0
 10 38  1  0
 11 39  1  0
 12 40  1  0
 13 41  1  0
 16 42  1  0
 16 43  1  0
 17 44  1  0
 17 45  1  0
 19 46  1  0
 19 47  1  0
 20 48  1  0
 20 49  1  0
 21 50  1  0
 21 51  1  0
 23 52  1  0
 23 53  1  0
 24 54  1  0
 24 55  1  0
 25 56  1  0
 25 57  1  0
 27 58  1  0
 28 59  1  0
 29 60  1  0
 30 61  1  0
 32 62  1  0
 32 63  1  0
M  END
$$$$
OCNT-2309811
     RDKit          3D

 43 46  0  0  0  0  0  0  0  0999 V2000
   -2.5526   -0.8581   -1.6097 O   0  0  0  0  0  0  0  0  0  0  0  0
   -2.4242   -0.4482   -0.4643 C   0  0  0  0  0  0  0  0  0  0  0  0
   -1.2361   -0.0180    0.0556 O   0  0  0  0  0  0  0  0  0  0  0  0
   -0.1468   -0.1120   -0.8688 C   0  0  0  0  0  0  0  0  0  0  0  0
    1.0578    0.3888   -0.1688 C   0  0  0  0  0  0  0  0  0  0  0  0
    2.0142   -0.2709    0.4484 N   0  0  0  0  0  0  0  0  0  0  0  0
    2.8425    0.7458    0.8642 C   0  0  0  0  0  0  0  0  0  0  0  0
    4.0839    0.4997    1.6392 C   0  0  0  0  0  0  0  0  0  0  0  0
    5.1749    0.2525    0.6230 C   0  0  0  0  0  0  0  0  0  0  0  0
    5.9484    1.3190    0.1327 C   0  0  0  0  0  0  0  0  0  0  0  0
    6.9530    1.0891   -0.8085 C   0  0  0  0  0  0  0  0  0  0  0  0
    7.1848   -0.2034   -1.2625 C   0  0  0  0  0  0  0  0  0  0  0  0
    8.1490   -0.4221   -2.1663 F   0  0  0  0  0  0  0  0  0  0  0  0
    6.4298   -1.2722   -0.7955 C   0  0  0  0  0  0  0  0  0  0  0  0
    5.4243   -1.0461    0.1455 C   0  0  0  0  0  0  0  0  0  0  0  0
    2.4152    1.9794    0.5555 N   0  0  0  0  0  0  0  0  0  0  0  0
    1.2305    1.7429   -0.1430 O   0  0  0  0  0  0  0  0  0  0  0  0
   -3.5355   -0.2749    0.5784 C   0  0  0  0  0  0  0  0  0  0  0  0
   -4.6674   -1.2863    0.5526 C   0  0  0  0  0  0  0  0  0  0  0  0
   -4.4865   -2.7021    0.0578 C   0  0  0  0  0  0  0  0  0  0  0  0
   -5.3627   -1.7444   -0.7057 C   0  0  0  0  0  0  0  0  0  0  0  0
   -3.9890    1.1767    0.6072 C   0  0  0  0  0  0  0  0  0  0  0  0
   -5.4142    1.6201    0.8519 C   0  0  0  0  0  0  0  0  0  0  0  0
   -4.8080    1.7661   -0.5161 C   0  0  0  0  0  0  0  0  0  0  0  0
    0.0051   -1.1565   -1.1633 H   0  0  0  0  0  0  0  0  0  0  0  0
   -0.3485    0.4991   -1.7560 H   0  0  0  0  0  0  0  0  0  0  0  0
    3.9667   -0.3689    2.2969 H   0  0  0  0  0  0  0  0  0  0  0  0
    4.3360    1.3538    2.2782 H   0  0  0  0  0  0  0  0  0  0  0  0
    5.7658    2.3355    0.4769 H   0  0  0  0  0  0  0  0  0  0  0  0
    7.5518    1.9088   -1.1921 H   0  0  0  0  0  0  0  0  0  0  0  0
    6.6254   -2.2721   -1.1691 H   0  0  0  0  0  0  0  0  0  0  0  0
    4.8287   -1.8856    0.4997 H   0  0  0  0  0  0  0  0  0  0  0  0
   -3.0504   -0.4612    1.5483 H   0  0  0  0  0  0  0  0  0  0  0  0
   -5.2798   -1.1866    1.4459 H   0  0  0  0  0  0  0  0  0  0  0  0
   -4.9733   -3.4993    0.6097 H   0  0  0  0  0  0  0  0  0  0  0  0
   -3.5532   -3.0034   -0.4032 H   0  0  0  0  0  0  0  0  0  0  0  0
   -6.4361   -1.8944   -0.6641 H   0  0  0  0  0  0  0  0  0  0  0  0
   -5.0120   -1.3971   -1.6704 H   0  0  0  0  0  0  0  0  0  0  0  0
   -3.2063    1.8113    1.0173 H   0  0  0  0  0  0  0  0  0  0  0  0
   -5.5690    2.5221    1.4349 H   0  0  0  0  0  0  0  0  0  0  0  0
   -6.2071    0.8918    0.9684 H   0  0  0  0  0  0  0  0  0  0  0  0
   -4.5583    2.7653   -0.8566 H   0  0  0  0  0  0  0  0  0  0  0  0
   -5.1709    1.1162   -1.3040 H   0  0  0  0  0  0  0  0  0  0  0  0
  1  2  2  0
  2  3  1  0
  3  4  1  0
  4  5  1  0
  5  6  2  0
  6  7  1  0
  7  8  1  0
  8  9  1  0
  9 10  1  0
 10 11  2  0
 11 12  1  0
 12 13  1  0
 12 14  2  0
 14 15  1  0
  7 16  2  0
 16 17  1  0
  2 18  1  0
 18 19  1  0
 19 20  1  0
 20 21  1  0
 18 22  1  0
 22 23  1  0
 23 24  1  0
 17  5  1  0
 21 19  1  0
 24 22  1  0
 15  9  2  0
  4 25  1  0
  4 26  1  0
  8 27  1  0
  8 28  1  0
 10 29  1  0
 11 30  1  0
 14 31  1  0
 15 32  1  0
 18 33  1  0
 19 34  1  0
 20 35  1  0
 20 36  1  0
 21 37  1  0
 21 38  1  0
 22 39  1  0
 23 40  1  0
 23 41  1  0
 24 42  1  0
 24 43  1  0
M  END
$$$$
OCNT-2309836
     RDKit          3D

 58 61  0  0  0  0  0  0  0  0999 V2000
   -2.5611   -3.0224   -0.9656 O   0  0  0  0  0  0  0  0  0  0  0  0
   -3.0823   -1.9688   -0.6216 C   0  0  0  0  0  0  0  0  0  0  0  0
   -2.4442   -0.7814   -0.3114 N   0  0  0  0  0  0  0  0  0  0  0  0
   -1.0645   -0.5033   -0.4030 C   0  0  0  0  0  0  0  0  0  0  0  0
   -0.6347    0.7554    0.0319 C   0  0  0  0  0  0  0  0  0  0  0  0
    0.7165    1.1078   -0.0403 C   0  0  0  0  0  0  0  0  0  0  0  0
    1.6592    0.2129   -0.5456 C   0  0  0  0  0  0  0  0  0  0  0  0
    2.9401    0.6869   -0.5674 O   0  0  0  0  0  0  0  0  0  0  0  0
    3.9555   -0.1926   -1.0560 C   0  0  0  0  0  0  0  0  0  0  0  0
    5.3155    0.5333   -1.0490 C   0  0  0  0  0  0  0  0  0  0  0  0
    5.7878    1.0398    0.2545 N   0  0  0  0  0  0  0  0  0  0  0  0
    7.0403    1.8044    0.1107 C   0  0  0  0  0  0  0  0  0  0  0  0
    8.2548    1.2048    0.8306 C   0  0  0  0  0  0  0  0  0  0  0  0
    8.3108   -0.3062    0.6545 C   0  0  0  0  0  0  0  0  0  0  0  0
    7.0085   -0.9722    1.1030 C   0  0  0  0  0  0  0  0  0  0  0  0
    5.8721    0.0318    1.3101 C   0  0  0  0  0  0  0  0  0  0  0  0
    1.2364   -1.0419   -0.9795 C   0  0  0  0  0  0  0  0  0  0  0  0
   -0.1192   -1.3961   -0.9097 C   0  0  0  0  0  0  0  0  0  0  0  0
   -4.5642   -1.9343   -0.4799 C   0  0  0  0  0  0  0  0  0  0  0  0
   -5.2175   -3.0694    0.0107 C   0  0  0  0  0  0  0  0  0  0  0  0
   -6.6047   -3.0685    0.1550 C   0  0  0  0  0  0  0  0  0  0  0  0
   -7.3453   -1.9384   -0.1991 C   0  0  0  0  0  0  0  0  0  0  0  0
   -6.7083   -0.7967   -0.7100 C   0  0  0  0  0  0  0  0  0  0  0  0
   -7.5130    0.4178   -1.1025 C   0  0  0  0  0  0  0  0  0  0  0  0
   -7.2130    1.5520   -0.2470 N   0  0  0  0  0  0  0  0  0  0  0  0
   -6.4748    2.6538   -0.5824 C   0  0  0  0  0  0  0  0  0  0  0  0
   -6.4860    3.4424    0.5464 C   0  0  0  0  0  0  0  0  0  0  0  0
   -7.2149    2.8515    1.5469 N   0  0  0  0  0  0  0  0  0  0  0  0
   -7.6445    1.7174    1.0415 C   0  0  0  0  0  0  0  0  0  0  0  0
   -5.3098   -0.8072   -0.8562 C   0  0  0  0  0  0  0  0  0  0  0  0
   -3.0128   -0.0429    0.0862 H   0  0  0  0  0  0  0  0  0  0  0  0
   -1.3368    1.4816    0.4327 H   0  0  0  0  0  0  0  0  0  0  0  0
    1.0381    2.0887    0.3024 H   0  0  0  0  0  0  0  0  0  0  0  0
    4.0021   -1.1078   -0.4539 H   0  0  0  0  0  0  0  0  0  0  0  0
    3.7313   -0.4649   -2.0964 H   0  0  0  0  0  0  0  0  0  0  0  0
    6.0653   -0.1297   -1.4990 H   0  0  0  0  0  0  0  0  0  0  0  0
    5.2083    1.4007   -1.7154 H   0  0  0  0  0  0  0  0  0  0  0  0
    7.3010    1.9504   -0.9464 H   0  0  0  0  0  0  0  0  0  0  0  0
    6.8691    2.8116    0.5112 H   0  0  0  0  0  0  0  0  0  0  0  0
    8.2098    1.4466    1.8997 H   0  0  0  0  0  0  0  0  0  0  0  0
    9.1739    1.6610    0.4455 H   0  0  0  0  0  0  0  0  0  0  0  0
    8.4902   -0.5407   -0.4016 H   0  0  0  0  0  0  0  0  0  0  0  0
    9.1568   -0.7213    1.2124 H   0  0  0  0  0  0  0  0  0  0  0  0
    7.1793   -1.5065    2.0456 H   0  0  0  0  0  0  0  0  0  0  0  0
    6.7184   -1.7320    0.3673 H   0  0  0  0  0  0  0  0  0  0  0  0
    6.0216    0.5510    2.2658 H   0  0  0  0  0  0  0  0  0  0  0  0
    4.9230   -0.4981    1.4411 H   0  0  0  0  0  0  0  0  0  0  0  0
    1.9287   -1.7749   -1.3785 H   0  0  0  0  0  0  0  0  0  0  0  0
   -0.4014   -2.3826   -1.2662 H   0  0  0  0  0  0  0  0  0  0  0  0
   -4.6452   -3.9555    0.2823 H   0  0  0  0  0  0  0  0  0  0  0  0
   -7.1083   -3.9520    0.5430 H   0  0  0  0  0  0  0  0  0  0  0  0
   -8.4273   -1.9638   -0.0759 H   0  0  0  0  0  0  0  0  0  0  0  0
   -8.5897    0.2327   -1.0277 H   0  0  0  0  0  0  0  0  0  0  0  0
   -7.2972    0.6970   -2.1396 H   0  0  0  0  0  0  0  0  0  0  0  0
   -6.0174    2.7868   -1.5528 H   0  0  0  0  0  0  0  0  0  0  0  0
   -6.0109    4.4039    0.6916 H   0  0  0  0  0  0  0  0  0  0  0  0
   -8.2573    0.9890    1.5615 H   0  0  0  0  0  0  0  0  0  0  0  0
   -4.8082    0.0596   -1.2836 H   0  0  0  0  0  0  0  0  0  0  0  0
  1  2  2  0
  2  3  1  0
  3  4  1  0
  4  5  1  0
  5  6  2  0
  6  7  1  0
  7  8  1  0
  8  9  1  0
  9 10  1  0
 10 11  1  0
 11 12  1  0
 12 13  1  0
 13 14  1  0
 14 15  1  0
 15 16  1  0
  7 17  2  0
 17 18  1  0
  2 19  1  0
 19 20  1  0
 20 21  2  0
 21 22  1  0
 22 23  2  0
 23 24  1  0
 24 25  1  0
 25 26  1  0
 26 27  2  0
 27 28  1  0
 28 29  2  0
 23 30  1  0
 18  4  2  0
 30 19  2  0
 16 11  1  0
 29 25  1  0
  3 31  1  0
  5 32  1  0
  6 33  1  0
  9 34  1  0
  9 35  1  0
 10 36  1  0
 10 37  1  0
 12 38  1  0
 12 39  1  0
 13 40  1  0
 13 41  1  0
 14 42  1  0
 14 43  1  0
 15 44  1  0
 15 45  1  0
 16 46  1  0
 16 47  1  0
 17 48  1  0
 18 49  1  0
 20 50  1  0
 21 51  1  0
 22 52  1  0
 24 53  1  0
 24 54  1  0
 26 55  1  0
 27 56  1  0
 29 57  1  0
 30 58  1  0
M  END
$$$$
OCNT-2309846
     RDKit          3D

 49 51  0  0  0  0  0  0  0  0999 V2000
   -7.1194    1.3611    0.3633 C   0  0  0  0  0  0  0  0  0  0  0  0
   -5.8907    0.5346    0.1184 C   0  0  0  0  0  0  0  0  0  0  0  0
   -5.8758   -0.8245    0.4610 C   0  0  0  0  0  0  0  0  0  0  0  0
   -4.7525   -1.6212    0.2027 C   0  0  0  0  0  0  0  0  0  0  0  0
   -4.7638   -3.0832    0.5398 C   0  0  0  0  0  0  0  0  0  0  0  0
   -3.6428   -1.0494   -0.4313 C   0  0  0  0  0  0  0  0  0  0  0  0
   -3.6424    0.3076   -0.7769 C   0  0  0  0  0  0  0  0  0  0  0  0
   -2.4363    0.8672   -1.4455 C   0  0  0  0  0  0  0  0  0  0  0  0
   -1.6578    0.1424   -2.0592 O   0  0  0  0  0  0  0  0  0  0  0  0
   -2.2032    2.2150   -1.2769 N   0  0  0  0  0  0  0  0  0  0  0  0
   -1.0249    2.8498   -1.8450 C   0  0  0  0  0  0  0  0  0  0  0  0
    0.2119    2.6353   -0.9646 C   0  0  0  0  0  0  0  0  0  0  0  0
    0.6959    3.5647   -0.3244 O   0  0  0  0  0  0  0  0  0  0  0  0
    0.6579    1.3254   -0.9943 N   0  0  0  0  0  0  0  0  0  0  0  0
    1.7662    0.7698   -0.3310 C   0  0  0  0  0  0  0  0  0  0  0  0
    1.9678   -0.6077   -0.4720 C   0  0  0  0  0  0  0  0  0  0  0  0
    3.0476   -1.2405    0.1514 C   0  0  0  0  0  0  0  0  0  0  0  0
    3.9479   -0.5041    0.9314 C   0  0  0  0  0  0  0  0  0  0  0  0
    5.1208   -1.1756    1.5976 C   0  0  0  0  0  0  0  0  0  0  0  0
    6.2352   -1.3377    0.6820 N   0  0  0  0  0  0  0  0  0  0  0  0
    7.2033   -0.4120    0.4046 C   0  0  0  0  0  0  0  0  0  0  0  0
    8.0570   -1.0440   -0.4693 C   0  0  0  0  0  0  0  0  0  0  0  0
    7.6416   -2.3275   -0.7136 N   0  0  0  0  0  0  0  0  0  0  0  0
    6.5433   -2.4759   -0.0076 C   0  0  0  0  0  0  0  0  0  0  0  0
    3.7471    0.8761    1.0641 C   0  0  0  0  0  0  0  0  0  0  0  0
    2.6646    1.5064    0.4394 C   0  0  0  0  0  0  0  0  0  0  0  0
   -4.7726    1.0930   -0.5150 C   0  0  0  0  0  0  0  0  0  0  0  0
   -7.6260    1.0427    1.2806 H   0  0  0  0  0  0  0  0  0  0  0  0
   -6.8622    2.4187    0.4852 H   0  0  0  0  0  0  0  0  0  0  0  0
   -7.8114    1.2611   -0.4786 H   0  0  0  0  0  0  0  0  0  0  0  0
   -6.7531   -1.2697    0.9289 H   0  0  0  0  0  0  0  0  0  0  0  0
   -3.7543   -3.4381    0.7732 H   0  0  0  0  0  0  0  0  0  0  0  0
   -5.1553   -3.6587   -0.3046 H   0  0  0  0  0  0  0  0  0  0  0  0
   -5.3868   -3.2762    1.4195 H   0  0  0  0  0  0  0  0  0  0  0  0
   -2.7723   -1.6629   -0.6580 H   0  0  0  0  0  0  0  0  0  0  0  0
   -2.6743    2.7038   -0.5261 H   0  0  0  0  0  0  0  0  0  0  0  0
   -1.2283    3.9222   -1.9223 H   0  0  0  0  0  0  0  0  0  0  0  0
   -0.8319    2.4575   -2.8494 H   0  0  0  0  0  0  0  0  0  0  0  0
    0.0712    0.6752   -1.5227 H   0  0  0  0  0  0  0  0  0  0  0  0
    1.2867   -1.2065   -1.0731 H   0  0  0  0  0  0  0  0  0  0  0  0
    3.1788   -2.3119    0.0155 H   0  0  0  0  0  0  0  0  0  0  0  0
    5.4767   -0.5946    2.4568 H   0  0  0  0  0  0  0  0  0  0  0  0
    4.8375   -2.1651    1.9755 H   0  0  0  0  0  0  0  0  0  0  0  0
    7.2026    0.5830    0.8262 H   0  0  0  0  0  0  0  0  0  0  0  0
    8.9497   -0.6444   -0.9326 H   0  0  0  0  0  0  0  0  0  0  0  0
    5.9435   -3.3754    0.0384 H   0  0  0  0  0  0  0  0  0  0  0  0
    4.4333    1.4819    1.6528 H   0  0  0  0  0  0  0  0  0  0  0  0
    2.5559    2.5786    0.5698 H   0  0  0  0  0  0  0  0  0  0  0  0
   -4.8058    2.1338   -0.8261 H   0  0  0  0  0  0  0  0  0  0  0  0
  1  2  1  0
  2  3  1  0
  3  4  2  0
  4  5  1  0
  4  6  1  0
  6  7  2  0
  7  8  1  0
  8  9  2  0
  8 10  1  0
 10 11  1  0
 11 12  1  0
 12 13  2  0
 12 14  1  0
 14 15  1  0
 15 16  1  0
 16 17  2  0
 17 18  1  0
 18 19  1  0
 19 20  1  0
 20 21  1  0
 21 22  2  0
 22 23  1  0
 23 24  2  0
 18 25  2  0
 25 26  1  0
  7 27  1  0
 27  2  2  0
 26 15  2  0
 24 20  1  0
  1 28  1  0
  1 29  1  0
  1 30  1  0
  3 31  1  0
  5 32  1  0
  5 33  1  0
  5 34  1  0
  6 35  1  0
 10 36  1  0
 11 37  1  0
 11 38  1  0
 14 39  1  0
 16 40  1  0
 17 41  1  0
 19 42  1  0
 19 43  1  0
 21 44  1  0
 22 45  1  0
 24 46  1  0
 25 47  1  0
 26 48  1  0
 27 49  1  0
M  END
$$$$
OCNT-2309850
     RDKit          3D

 47 50  0  0  0  0  0  0  0  0999 V2000
   -1.3528    2.2219   -1.6319 O   0  0  0  0  0  0  0  0  0  0  0  0
   -1.1656    1.1621   -1.0504 C   0  0  0  0  0  0  0  0  0  0  0  0
   -2.1794    0.2526   -0.8263 N   0  0  0  0  0  0  0  0  0  0  0  0
   -3.5299    0.5963   -1.2127 C   0  0  0  0  0  0  0  0  0  0  0  0
   -4.4575   -0.5668   -0.9726 C   0  0  0  0  0  0  0  0  0  0  0  0
   -4.5231   -1.6014   -1.9307 C   0  0  0  0  0  0  0  0  0  0  0  0
   -5.3453   -2.7123   -1.7531 C   0  0  0  0  0  0  0  0  0  0  0  0
   -6.1320   -2.8452   -0.6090 C   0  0  0  0  0  0  0  0  0  0  0  0
   -6.0584   -1.8275    0.3475 C   0  0  0  0  0  0  0  0  0  0  0  0
   -5.2460   -0.7018    0.1972 C   0  0  0  0  0  0  0  0  0  0  0  0
   -5.4307    0.0947    1.3661 C   0  0  0  0  0  0  0  0  0  0  0  0
   -6.3342   -0.5474    2.1806 C   0  0  0  0  0  0  0  0  0  0  0  0
   -6.7101   -1.7046    1.5545 N   0  0  0  0  0  0  0  0  0  0  0  0
    0.0260    0.6851   -0.5511 N   0  0  0  0  0  0  0  0  0  0  0  0
    1.2727    1.3427   -0.5137 C   0  0  0  0  0  0  0  0  0  0  0  0
    1.4506    2.6781   -0.8572 C   0  0  0  0  0  0  0  0  0  0  0  0
    2.7176    3.2492   -0.7769 C   0  0  0  0  0  0  0  0  0  0  0  0
    3.8098    2.4872   -0.3502 C   0  0  0  0  0  0  0  0  0  0  0  0
    3.6782    1.1383    0.0080 C   0  0  0  0  0  0  0  0  0  0  0  0
    4.7535    0.3907    0.4303 N   0  0  0  0  0  0  0  0  0  0  0  0
    6.0931    0.9322    0.6492 C   0  0  0  0  0  0  0  0  0  0  0  0
    6.8384   -0.2056    1.3420 C   0  0  0  0  0  0  0  0  0  0  0  0
    6.1940   -1.4456    0.7486 C   0  0  0  0  0  0  0  0  0  0  0  0
    4.7219   -1.0543    0.6434 C   0  0  0  0  0  0  0  0  0  0  0  0
    2.3839    0.5945   -0.0826 C   0  0  0  0  0  0  0  0  0  0  0  0
   -2.1018   -0.2696    0.0334 H   0  0  0  0  0  0  0  0  0  0  0  0
   -3.5412    0.8894   -2.2693 H   0  0  0  0  0  0  0  0  0  0  0  0
   -3.8412    1.4731   -0.6336 H   0  0  0  0  0  0  0  0  0  0  0  0
   -3.9168   -1.5339   -2.8332 H   0  0  0  0  0  0  0  0  0  0  0  0
   -5.3733   -3.4867   -2.5163 H   0  0  0  0  0  0  0  0  0  0  0  0
   -6.7722   -3.7104   -0.4717 H   0  0  0  0  0  0  0  0  0  0  0  0
   -4.9544    1.0415    1.5857 H   0  0  0  0  0  0  0  0  0  0  0  0
   -6.7430   -0.2790    3.1455 H   0  0  0  0  0  0  0  0  0  0  0  0
   -7.3694   -2.3779    1.9195 H   0  0  0  0  0  0  0  0  0  0  0  0
    0.0251   -0.2937   -0.3082 H   0  0  0  0  0  0  0  0  0  0  0  0
    0.6254    3.3012   -1.1858 H   0  0  0  0  0  0  0  0  0  0  0  0
    2.8574    4.2923   -1.0479 H   0  0  0  0  0  0  0  0  0  0  0  0
    4.7777    2.9784   -0.3124 H   0  0  0  0  0  0  0  0  0  0  0  0
    6.0893    1.8238    1.2852 H   0  0  0  0  0  0  0  0  0  0  0  0
    6.5653    1.1709   -0.3107 H   0  0  0  0  0  0  0  0  0  0  0  0
    7.9179   -0.1631    1.1734 H   0  0  0  0  0  0  0  0  0  0  0  0
    6.6571   -0.1712    2.4231 H   0  0  0  0  0  0  0  0  0  0  0  0
    6.3467   -2.3399    1.3591 H   0  0  0  0  0  0  0  0  0  0  0  0
    6.6042   -1.6377   -0.2502 H   0  0  0  0  0  0  0  0  0  0  0  0
    4.1953   -1.2845    1.5766 H   0  0  0  0  0  0  0  0  0  0  0  0
    4.2483   -1.5942   -0.1836 H   0  0  0  0  0  0  0  0  0  0  0  0
    2.2285   -0.4424    0.1981 H   0  0  0  0  0  0  0  0  0  0  0  0
  1  2  2  0
  2  3  1  0
  3  4  1  0
  4  5  1  0
  5  6  1  0
  6  7  2  0
  7  8  1  0
  8  9  2  0
  9 10  1  0
 10 11  1  0
 11 12  2  0
 12 13  1  0
  2 14  1  0
 14 15  1  0
 15 16  1  0
 16 17  2  0
 17 18  1  0
 18 19  2  0
 19 20  1  0
 20 21  1  0
 21 22  1  0
 22 23  1  0
 23 24  1  0
 19 25  1  0
 10  5  2  0
 25 15  2  0
 13  9  1  0
 24 20  1  0
  3 26  1  0
  4 27  1  0
  4 28  1  0
  6 29  1  0
  7 30  1  0
  8 31  1  0
 11 32  1  0
 12 33  1  0
 13 34  1  0
 14 35  1  0
 16 36  1  0
 17 37  1  0
 18 38  1  0
 21 39  1  0
 21 40  1  0
 22 41  1  0
 22 42  1  0
 23 43  1  0
 23 44  1  0
 24 45  1  0
 24 46  1  0
 25 47  1  0
M  END
$$$$
OCNT-2309854
     RDKit          3D

 56 59  0  0  0  0  0  0  0  0999 V2000
    0.7401    4.9854    0.3854 C   0  0  0  0  0  0  0  0  0  0  0  0
    0.8913    4.2059   -0.7901 O   0  0  0  0  0  0  0  0  0  0  0  0
    1.3351    2.9224   -0.6349 C   0  0  0  0  0  0  0  0  0  0  0  0
    1.8080    2.3572    0.5488 C   0  0  0  0  0  0  0  0  0  0  0  0
    2.2430    1.0257    0.5650 C   0  0  0  0  0  0  0  0  0  0  0  0
    2.2096    0.2498   -0.5985 C   0  0  0  0  0  0  0  0  0  0  0  0
    2.6379   -1.1448   -0.5720 C   0  0  0  0  0  0  0  0  0  0  0  0
    1.9248   -2.3184   -0.7928 C   0  0  0  0  0  0  0  0  0  0  0  0
    0.4612   -2.4239   -1.1106 C   0  0  0  0  0  0  0  0  0  0  0  0
   -0.4015   -2.2149    0.1304 C   0  0  0  0  0  0  0  0  0  0  0  0
   -1.8646   -2.0704   -0.2244 C   0  0  0  0  0  0  0  0  0  0  0  0
   -2.3306   -2.3274   -1.3291 O   0  0  0  0  0  0  0  0  0  0  0  0
   -2.6293   -1.6288    0.8361 N   0  0  0  0  0  0  0  0  0  0  0  0
   -4.0206   -1.2790    0.6572 C   0  0  0  0  0  0  0  0  0  0  0  0
   -4.1019    0.1750    0.2725 C   0  0  0  0  0  0  0  0  0  0  0  0
   -4.5327    0.5807   -0.9321 C   0  0  0  0  0  0  0  0  0  0  0  0
   -4.5892    2.0412   -1.2299 C   0  0  0  0  0  0  0  0  0  0  0  0
   -5.0660    2.3984   -2.3029 O   0  0  0  0  0  0  0  0  0  0  0  0
   -4.1074    2.9284   -0.2885 N   0  0  0  0  0  0  0  0  0  0  0  0
   -3.7036    2.4526    0.8399 C   0  0  0  0  0  0  0  0  0  0  0  0
   -3.0716    3.5036    2.0887 S   0  0  0  0  0  0  0  0  0  0  0  0
   -3.2609    5.1156    1.2975 C   0  0  0  0  0  0  0  0  0  0  0  0
   -3.7156    1.1350    1.1786 N   0  0  0  0  0  0  0  0  0  0  0  0
    2.8413   -3.4091   -0.6362 C   0  0  0  0  0  0  0  0  0  0  0  0
    2.7244   -4.8119   -0.7291 C   0  0  0  0  0  0  0  0  0  0  0  0
    3.8506   -5.6143   -0.5121 C   0  0  0  0  0  0  0  0  0  0  0  0
    5.0818   -5.0404   -0.2051 C   0  0  0  0  0  0  0  0  0  0  0  0
    5.2246   -3.6533   -0.1050 C   0  0  0  0  0  0  0  0  0  0  0  0
    4.0873   -2.8668   -0.3255 C   0  0  0  0  0  0  0  0  0  0  0  0
    3.9364   -1.5015   -0.2967 N   0  0  0  0  0  0  0  0  0  0  0  0
    1.7410    0.8221   -1.7828 C   0  0  0  0  0  0  0  0  0  0  0  0
    1.3047    2.1492   -1.7962 C   0  0  0  0  0  0  0  0  0  0  0  0
    0.0352    4.5193    1.0794 H   0  0  0  0  0  0  0  0  0  0  0  0
    1.7057    5.1659    0.8639 H   0  0  0  0  0  0  0  0  0  0  0  0
    0.3288    5.9563    0.0929 H   0  0  0  0  0  0  0  0  0  0  0  0
    1.8510    2.9228    1.4724 H   0  0  0  0  0  0  0  0  0  0  0  0
    2.5950    0.5948    1.4988 H   0  0  0  0  0  0  0  0  0  0  0  0
    0.2049   -1.6867   -1.8808 H   0  0  0  0  0  0  0  0  0  0  0  0
    0.2381   -3.4022   -1.5530 H   0  0  0  0  0  0  0  0  0  0  0  0
   -0.0901   -1.3104    0.6672 H   0  0  0  0  0  0  0  0  0  0  0  0
   -0.2919   -3.0632    0.8169 H   0  0  0  0  0  0  0  0  0  0  0  0
   -2.1590   -1.3433    1.6836 H   0  0  0  0  0  0  0  0  0  0  0  0
   -4.5336   -1.4468    1.6097 H   0  0  0  0  0  0  0  0  0  0  0  0
   -4.4773   -1.9294   -0.0949 H   0  0  0  0  0  0  0  0  0  0  0  0
   -4.8458   -0.0905   -1.7219 H   0  0  0  0  0  0  0  0  0  0  0  0
   -4.3115    5.3213    1.0677 H   0  0  0  0  0  0  0  0  0  0  0  0
   -2.6646    5.1718    0.3819 H   0  0  0  0  0  0  0  0  0  0  0  0
   -2.9026    5.8922    1.9834 H   0  0  0  0  0  0  0  0  0  0  0  0
   -3.3271    0.8594    2.0693 H   0  0  0  0  0  0  0  0  0  0  0  0
    1.7706   -5.2713   -0.9724 H   0  0  0  0  0  0  0  0  0  0  0  0
    3.7613   -6.6953   -0.5878 H   0  0  0  0  0  0  0  0  0  0  0  0
    5.9466   -5.6795   -0.0435 H   0  0  0  0  0  0  0  0  0  0  0  0
    6.1859   -3.2087    0.1323 H   0  0  0  0  0  0  0  0  0  0  0  0
    4.6827   -0.8466   -0.1142 H   0  0  0  0  0  0  0  0  0  0  0  0
    1.7155    0.2414   -2.7006 H   0  0  0  0  0  0  0  0  0  0  0  0
    0.9342    2.5855   -2.7218 H   0  0  0  0  0  0  0  0  0  0  0  0
  1  2  1  0
  2  3  1  0
  3  4  1  0
  4  5  2  0
  5  6  1  0
  6  7  1  0
  7  8  2  0
  8  9  1  0
  9 10  1  0
 10 11  1  0
 11 12  2  0
 11 13  1  0
 13 14  1  0
 14 15  1  0
 15 16  2  0
 16 17  1  0
 17 18  2  0
 17 19  1  0
 19 20  2  0
 20 21  1  0
 21 22  1  0
 20 23  1  0
  8 24  1  0
 24 25  2  0
 25 26  1  0
 26 27  2  0
 27 28  1  0
 28 29  2  0
 29 30  1  0
  6 31  2  0
 31 32  1  0
 32  3  2  0
 30  7  1  0
 23 15  1  0
 29 24  1  0
  1 33  1  0
  1 34  1  0
  1 35  1  0
  4 36  1  0
  5 37  1  0
  9 38  1  0
  9 39  1  0
 10 40  1  0
 10 41  1  0
 13 42  1  0
 14 43  1  0
 14 44  1  0
 16 45  1  0
 22 46  1  0
 22 47  1  0
 22 48  1  0
 23 49  1  0
 25 50  1  0
 26 51  1  0
 27 52  1  0
 28 53  1  0
 30 54  1  0
 31 55  1  0
 32 56  1  0
M  END
$$$$
OCNT-2309866
     RDKit          3D

 55 58  0  0  0  0  0  0  0  0999 V2000
    2.0624    1.2192    1.3403 O   0  0  0  0  0  0  0  0  0  0  0  0
    2.0290    0.0395    1.0116 C   0  0  0  0  0  0  0  0  0  0  0  0
    0.9707   -0.8373    1.1707 N   0  0  0  0  0  0  0  0  0  0  0  0
   -0.3149   -0.5432    1.6717 C   0  0  0  0  0  0  0  0  0  0  0  0
   -0.7416    0.7368    2.0266 C   0  0  0  0  0  0  0  0  0  0  0  0
   -2.0392    0.9454    2.5108 C   0  0  0  0  0  0  0  0  0  0  0  0
   -2.9316   -0.1205    2.6324 C   0  0  0  0  0  0  0  0  0  0  0  0
   -4.5770    0.1777    3.2471 S   0  0  0  0  0  0  0  0  0  0  0  0
   -5.5653   -0.2961    1.7786 C   0  0  0  0  0  0  0  0  0  0  0  0
   -5.4184    0.7207    0.6362 C   0  0  0  0  0  0  0  0  0  0  0  0
   -6.2692    0.3932   -0.5183 N   0  0  0  0  0  0  0  0  0  0  0  0
   -6.2490    1.4603   -1.5234 C   0  0  0  0  0  0  0  0  0  0  0  0
   -6.8585    0.7927   -2.7456 C   0  0  0  0  0  0  0  0  0  0  0  0
   -6.5637   -0.6927   -2.5734 C   0  0  0  0  0  0  0  0  0  0  0  0
   -5.8350   -0.8045   -1.2417 C   0  0  0  0  0  0  0  0  0  0  0  0
   -2.5060   -1.4044    2.2892 C   0  0  0  0  0  0  0  0  0  0  0  0
   -1.2085   -1.6129    1.8083 C   0  0  0  0  0  0  0  0  0  0  0  0
    3.2584   -0.5566    0.4127 C   0  0  0  0  0  0  0  0  0  0  0  0
    3.1973   -1.5553   -0.5664 C   0  0  0  0  0  0  0  0  0  0  0  0
    4.3758   -2.0761   -1.1026 C   0  0  0  0  0  0  0  0  0  0  0  0
    5.6153   -1.5974   -0.6732 C   0  0  0  0  0  0  0  0  0  0  0  0
    5.6942   -0.5835    0.2931 C   0  0  0  0  0  0  0  0  0  0  0  0
    7.0294   -0.0372    0.7334 C   0  0  0  0  0  0  0  0  0  0  0  0
    7.5946    0.8561   -0.2616 N   0  0  0  0  0  0  0  0  0  0  0  0
    7.2366    2.1572   -0.4861 C   0  0  0  0  0  0  0  0  0  0  0  0
    8.0734    2.5860   -1.4900 C   0  0  0  0  0  0  0  0  0  0  0  0
    8.9343    1.5867   -1.8666 N   0  0  0  0  0  0  0  0  0  0  0  0
    8.6255    0.5596   -1.1075 C   0  0  0  0  0  0  0  0  0  0  0  0
    4.5045   -0.0652    0.8275 C   0  0  0  0  0  0  0  0  0  0  0  0
    1.1475   -1.8123    0.9698 H   0  0  0  0  0  0  0  0  0  0  0  0
   -0.0902    1.6010    1.9411 H   0  0  0  0  0  0  0  0  0  0  0  0
   -2.3417    1.9537    2.7857 H   0  0  0  0  0  0  0  0  0  0  0  0
   -6.6125   -0.3412    2.0977 H   0  0  0  0  0  0  0  0  0  0  0  0
   -5.2806   -1.3042    1.4628 H   0  0  0  0  0  0  0  0  0  0  0  0
   -5.7187    1.7064    1.0156 H   0  0  0  0  0  0  0  0  0  0  0  0
   -4.3706    0.8026    0.3213 H   0  0  0  0  0  0  0  0  0  0  0  0
   -6.8305    2.3332   -1.2102 H   0  0  0  0  0  0  0  0  0  0  0  0
   -5.2248    1.7843   -1.7495 H   0  0  0  0  0  0  0  0  0  0  0  0
   -7.9427    0.9540   -2.7763 H   0  0  0  0  0  0  0  0  0  0  0  0
   -6.4347    1.1873   -3.6744 H   0  0  0  0  0  0  0  0  0  0  0  0
   -5.9559   -1.0839   -3.3962 H   0  0  0  0  0  0  0  0  0  0  0  0
   -7.5036   -1.2572   -2.5522 H   0  0  0  0  0  0  0  0  0  0  0  0
   -6.1062   -1.7285   -0.7219 H   0  0  0  0  0  0  0  0  0  0  0  0
   -4.7508   -0.8041   -1.4123 H   0  0  0  0  0  0  0  0  0  0  0  0
   -3.1731   -2.2556    2.4010 H   0  0  0  0  0  0  0  0  0  0  0  0
   -0.9100   -2.6256    1.5504 H   0  0  0  0  0  0  0  0  0  0  0  0
    2.2454   -1.9124   -0.9496 H   0  0  0  0  0  0  0  0  0  0  0  0
    4.3306   -2.8443   -1.8717 H   0  0  0  0  0  0  0  0  0  0  0  0
    6.5208   -2.0087   -1.1165 H   0  0  0  0  0  0  0  0  0  0  0  0
    7.7373   -0.8557    0.9097 H   0  0  0  0  0  0  0  0  0  0  0  0
    6.9451    0.5258    1.6705 H   0  0  0  0  0  0  0  0  0  0  0  0
    6.4422    2.6507    0.0568 H   0  0  0  0  0  0  0  0  0  0  0  0
    8.1030    3.5609   -1.9595 H   0  0  0  0  0  0  0  0  0  0  0  0
    9.1120   -0.4068   -1.1318 H   0  0  0  0  0  0  0  0  0  0  0  0
    4.5392    0.7326    1.5691 H   0  0  0  0  0  0  0  0  0  0  0  0
  1  2  2  0
  2  3  1  0
  3  4  1  0
  4  5  1  0
  5  6  2  0
  6  7  1  0
  7  8  1  0
  8  9  1  0
  9 10  1  0
 10 11  1  0
 11 12  1  0
 12 13  1  0
 13 14  1  0
 14 15  1  0
  7 16  2  0
 16 17  1  0
  2 18  1  0
 18 19  1  0
 19 20  2  0
 20 21  1  0
 21 22  2  0
 22 23  1  0
 23 24  1  0
 24 25  1  0
 25 26  2  0
 26 27  1  0
 27 28  2  0
 22 29  1  0
 17  4  2  0
 29 18  2  0
 15 11  1  0
 28 24  1  0
  3 30  1  0
  5 31  1  0
  6 32  1  0
  9 33  1  0
  9 34  1  0
 10 35  1  0
 10 36  1  0
 12 37  1  0
 12 38  1  0
 13 39  1  0
 13 40  1  0
 14 41  1  0
 14 42  1  0
 15 43  1  0
 15 44  1  0
 16 45  1  0
 17 46  1  0
 19 47  1  0
 20 48  1  0
 21 49  1  0
 23 50  1  0
 23 51  1  0
 25 52  1  0
 26 53  1  0
 28 54  1  0
 29 55  1  0
M  END
$$$$
OCNT-2309871
     RDKit          3D

 43 45  0  0  0  0  0  0  0  0999 V2000
    3.7062    2.1478   -0.5412 C   0  0  0  0  0  0  0  0  0  0  0  0
    3.6863    0.7128   -0.8227 N   0  0  0  0  0  0  0  0  0  0  0  0
    4.3567    0.3261   -1.9835 C   0  0  0  0  0  0  0  0  0  0  0  0
    4.7278    1.1347   -2.8342 O   0  0  0  0  0  0  0  0  0  0  0  0
    4.5251   -1.1561   -2.2304 C   0  0  0  0  0  0  0  0  0  0  0  0
    4.7815   -1.9325   -0.9566 C   0  0  0  0  0  0  0  0  0  0  0  0
    3.6417   -1.6716    0.0052 C   0  0  0  0  0  0  0  0  0  0  0  0
    3.5663   -0.1828    0.3529 C   0  0  0  0  0  0  0  0  0  0  0  0
    2.2339    0.0307    1.1105 C   0  0  0  0  0  0  0  0  0  0  0  0
    2.1574   -0.1789    2.3172 O   0  0  0  0  0  0  0  0  0  0  0  0
    1.1768    0.3170    0.2591 N   0  0  0  0  0  0  0  0  0  0  0  0
   -0.1801    0.4935    0.5872 C   0  0  0  0  0  0  0  0  0  0  0  0
   -1.0476    0.8286   -0.4611 C   0  0  0  0  0  0  0  0  0  0  0  0
   -2.4117    1.0187   -0.2263 C   0  0  0  0  0  0  0  0  0  0  0  0
   -2.9241    0.8579    1.0631 C   0  0  0  0  0  0  0  0  0  0  0  0
   -4.2588    1.0774    1.3212 O   0  0  0  0  0  0  0  0  0  0  0  0
   -5.1654    0.3284    0.6055 C   0  0  0  0  0  0  0  0  0  0  0  0
   -6.2985    0.9885    0.1443 C   0  0  0  0  0  0  0  0  0  0  0  0
   -7.2355    0.2515   -0.5567 C   0  0  0  0  0  0  0  0  0  0  0  0
   -7.1155   -1.0706   -0.8070 N   0  0  0  0  0  0  0  0  0  0  0  0
   -6.0177   -1.6876   -0.3178 C   0  0  0  0  0  0  0  0  0  0  0  0
   -5.0228   -1.0401    0.3932 C   0  0  0  0  0  0  0  0  0  0  0  0
   -2.0617    0.5454    2.1168 C   0  0  0  0  0  0  0  0  0  0  0  0
   -2.6528    0.3641    3.7292 Cl  0  0  0  0  0  0  0  0  0  0  0  0
   -0.6959    0.3561    1.8782 C   0  0  0  0  0  0  0  0  0  0  0  0
    4.6812    2.4064   -0.1158 H   0  0  0  0  0  0  0  0  0  0  0  0
    3.5570    2.7238   -1.4598 H   0  0  0  0  0  0  0  0  0  0  0  0
    2.9171    2.4174    0.1646 H   0  0  0  0  0  0  0  0  0  0  0  0
    3.6223   -1.5178   -2.7360 H   0  0  0  0  0  0  0  0  0  0  0  0
    5.3713   -1.2978   -2.9123 H   0  0  0  0  0  0  0  0  0  0  0  0
    5.7332   -1.6266   -0.5056 H   0  0  0  0  0  0  0  0  0  0  0  0
    4.8506   -3.0030   -1.1782 H   0  0  0  0  0  0  0  0  0  0  0  0
    2.7002   -2.0150   -0.4440 H   0  0  0  0  0  0  0  0  0  0  0  0
    3.7791   -2.2606    0.9201 H   0  0  0  0  0  0  0  0  0  0  0  0
    4.3914    0.0819    1.0264 H   0  0  0  0  0  0  0  0  0  0  0  0
    1.4409    0.4670   -0.7107 H   0  0  0  0  0  0  0  0  0  0  0  0
   -0.6748    0.9533   -1.4754 H   0  0  0  0  0  0  0  0  0  0  0  0
   -3.0659    1.2959   -1.0491 H   0  0  0  0  0  0  0  0  0  0  0  0
   -6.4447    2.0468    0.3240 H   0  0  0  0  0  0  0  0  0  0  0  0
   -8.1362    0.7166   -0.9466 H   0  0  0  0  0  0  0  0  0  0  0  0
   -5.9602   -2.7542   -0.5156 H   0  0  0  0  0  0  0  0  0  0  0  0
   -4.1762   -1.5965    0.7765 H   0  0  0  0  0  0  0  0  0  0  0  0
   -0.0579    0.1035    2.7190 H   0  0  0  0  0  0  0  0  0  0  0  0
  1  2  1  0
  2  3  1  0
  3  4  2  0
  3  5  1  0
  5  6  1  0
  6  7  1  0
  7  8  1  0
  8  9  1  0
  9 10  2  0
  9 11  1  0
 11 12  1  0
 12 13  1  0
 13 14  2  0
 14 15  1  0
 15 16  1  0
 16 17  1  0
 17 18  2  0
 18 19  1  0
 19 20  2  0
 20 21  1  0
 21 22  2  0
 15 23  2  0
 23 24  1  0
 23 25  1  0
  8  2  1  0
 25 12  2  0
 22 17  1  0
  1 26  1  0
  1 27  1  0
  1 28  1  0
  5 29  1  0
  5 30  1  0
  6 31  1  0
  6 32  1  0
  7 33  1  0
  7 34  1  0
  8 35  1  0
 11 36  1  0
 13 37  1  0
 14 38  1  0
 18 39  1  0
 19 40  1  0
 21 41  1  0
 22 42  1  0
 25 43  1  0
M  END
$$$$
OCNT-2309879
     RDKit          3D

 40 43  0  0  0  0  0  0  0  0999 V2000
    4.2338   -2.8840   -0.1692 C   0  0  0  0  0  0  0  0  0  0  0  0
    3.3182   -1.6905   -0.4083 C   0  0  0  0  0  0  0  0  0  0  0  0
    2.0077   -1.8439    0.3604 C   0  0  0  0  0  0  0  0  0  0  0  0
    1.1522   -0.6877    0.0812 N   0  0  0  0  0  0  0  0  0  0  0  0
   -0.1853   -0.9257   -0.2242 C   0  0  0  0  0  0  0  0  0  0  0  0
   -0.7089   -2.0098    0.0623 O   0  0  0  0  0  0  0  0  0  0  0  0
   -0.9451    0.0754   -1.0956 C   0  0  0  0  0  0  0  0  0  0  0  0
   -2.1638    0.6820   -0.4631 C   0  0  0  0  0  0  0  0  0  0  0  0
   -2.4032    2.0410   -0.3084 C   0  0  0  0  0  0  0  0  0  0  0  0
   -3.6278    2.2058    0.2831 N   0  0  0  0  0  0  0  0  0  0  0  0
   -4.2130    0.9897    0.4811 C   0  0  0  0  0  0  0  0  0  0  0  0
   -5.4335    0.8208    1.0222 N   0  0  0  0  0  0  0  0  0  0  0  0
   -5.7982   -0.4789    1.0959 C   0  0  0  0  0  0  0  0  0  0  0  0
   -5.0379   -1.5579    0.6678 C   0  0  0  0  0  0  0  0  0  0  0  0
   -3.7799   -1.3207    0.1118 C   0  0  0  0  0  0  0  0  0  0  0  0
   -3.3379    0.0109    0.0190 C   0  0  0  0  0  0  0  0  0  0  0  0
    1.8240    0.5593    0.2358 C   0  0  0  0  0  0  0  0  0  0  0  0
    1.1534    1.7466    0.5406 C   0  0  0  0  0  0  0  0  0  0  0  0
    1.8523    2.9458    0.7181 C   0  0  0  0  0  0  0  0  0  0  0  0
    3.2399    2.9686    0.6227 C   0  0  0  0  0  0  0  0  0  0  0  0
    3.9310    1.7868    0.3725 C   0  0  0  0  0  0  0  0  0  0  0  0
    3.2327    0.5899    0.1885 C   0  0  0  0  0  0  0  0  0  0  0  0
    4.0296   -0.5144   -0.0001 O   0  0  0  0  0  0  0  0  0  0  0  0
    4.4964   -2.9702    0.8910 H   0  0  0  0  0  0  0  0  0  0  0  0
    3.7638   -3.8179   -0.4920 H   0  0  0  0  0  0  0  0  0  0  0  0
    5.1744   -2.7594   -0.7167 H   0  0  0  0  0  0  0  0  0  0  0  0
    3.1219   -1.6077   -1.4857 H   0  0  0  0  0  0  0  0  0  0  0  0
    1.5124   -2.7760    0.0678 H   0  0  0  0  0  0  0  0  0  0  0  0
    2.1747   -1.8727    1.4448 H   0  0  0  0  0  0  0  0  0  0  0  0
   -1.2656   -0.4823   -1.9867 H   0  0  0  0  0  0  0  0  0  0  0  0
   -0.2786    0.8491   -1.4873 H   0  0  0  0  0  0  0  0  0  0  0  0
   -1.8066    2.9046   -0.5720 H   0  0  0  0  0  0  0  0  0  0  0  0
   -4.0707    3.0803    0.5230 H   0  0  0  0  0  0  0  0  0  0  0  0
   -6.7798   -0.6459    1.5332 H   0  0  0  0  0  0  0  0  0  0  0  0
   -5.4141   -2.5702    0.7657 H   0  0  0  0  0  0  0  0  0  0  0  0
   -3.1658   -2.1471   -0.2307 H   0  0  0  0  0  0  0  0  0  0  0  0
    0.0859    1.7591    0.7179 H   0  0  0  0  0  0  0  0  0  0  0  0
    1.3102    3.8575    0.9579 H   0  0  0  0  0  0  0  0  0  0  0  0
    3.7843    3.8976    0.7698 H   0  0  0  0  0  0  0  0  0  0  0  0
    5.0170    1.7916    0.3280 H   0  0  0  0  0  0  0  0  0  0  0  0
  1  2  1  0
  2  3  1  0
  3  4  1  0
  4  5  1  0
  5  6  2  0
  5  7  1  0
  7  8  1  0
  8  9  2  0
  9 10  1  0
 10 11  1  0
 11 12  1  0
 12 13  2  0
 13 14  1  0
 14 15  2  0
 15 16  1  0
  4 17  1  0
 17 18  2  0
 18 19  1  0
 19 20  2  0
 20 21  1  0
 21 22  2  0
 22 23  1  0
 23  2  1  0
 16  8  1  0
 22 17  1  0
 16 11  2  0
  1 24  1  0
  1 25  1  0
  1 26  1  0
  2 27  1  0
  3 28  1  0
  3 29  1  0
  7 30  1  0
  7 31  1  0
  9 32  1  0
 10 33  1  0
 13 34  1  0
 14 35  1  0
 15 36  1  0
 18 37  1  0
 19 38  1  0
 20 39  1  0
 21 40  1  0
M  END
$$$$
OCNT-2309883
     RDKit          3D

 45 48  0  0  0  0  0  0  0  0999 V2000
   -4.3819   -2.3678   -0.1732 C   0  0  0  0  0  0  0  0  0  0  0  0
   -3.7909   -1.2697   -1.0454 C   0  0  0  0  0  0  0  0  0  0  0  0
   -3.8142    0.0736   -0.3850 C   0  0  0  0  0  0  0  0  0  0  0  0
   -4.9555    0.8252   -0.1496 C   0  0  0  0  0  0  0  0  0  0  0  0
   -4.5798    2.0143    0.4116 N   0  0  0  0  0  0  0  0  0  0  0  0
   -3.2208    2.0600    0.5316 C   0  0  0  0  0  0  0  0  0  0  0  0
   -2.5495    3.1169    1.0083 N   0  0  0  0  0  0  0  0  0  0  0  0
   -1.2281    2.9020    0.9823 C   0  0  0  0  0  0  0  0  0  0  0  0
   -0.5737    1.7964    0.5805 N   0  0  0  0  0  0  0  0  0  0  0  0
   -1.2864    0.7257    0.1394 C   0  0  0  0  0  0  0  0  0  0  0  0
   -0.6137   -0.4409   -0.2421 N   0  0  0  0  0  0  0  0  0  0  0  0
   -0.7159   -1.5187    0.7519 C   0  0  0  0  0  0  0  0  0  0  0  0
    0.3196   -1.3646    1.8673 C   0  0  0  0  0  0  0  0  0  0  0  0
    1.7342   -1.2581    1.3026 C   0  0  0  0  0  0  0  0  0  0  0  0
    1.8262   -0.1088    0.2888 C   0  0  0  0  0  0  0  0  0  0  0  0
    3.1526   -0.0128   -0.3098 N   0  0  0  0  0  0  0  0  0  0  0  0
    3.9976    1.0601   -0.2464 C   0  0  0  0  0  0  0  0  0  0  0  0
    5.1316    0.7089   -0.9477 C   0  0  0  0  0  0  0  0  0  0  0  0
    6.3477    1.5162   -1.1859 C   0  0  0  0  0  0  0  0  0  0  0  0
    4.8620   -0.6025   -1.3973 C   0  0  0  0  0  0  0  0  0  0  0  0
    3.6629   -1.0438   -1.0121 N   0  0  0  0  0  0  0  0  0  0  0  0
    0.7435   -0.2414   -0.7938 C   0  0  0  0  0  0  0  0  0  0  0  0
   -2.6953    0.8578    0.0767 C   0  0  0  0  0  0  0  0  0  0  0  0
   -5.4363   -2.1724    0.0499 H   0  0  0  0  0  0  0  0  0  0  0  0
   -3.8510   -2.4536    0.7797 H   0  0  0  0  0  0  0  0  0  0  0  0
   -4.3200   -3.3328   -0.6863 H   0  0  0  0  0  0  0  0  0  0  0  0
   -4.3634   -1.2124   -1.9798 H   0  0  0  0  0  0  0  0  0  0  0  0
   -2.7727   -1.5451   -1.3344 H   0  0  0  0  0  0  0  0  0  0  0  0
   -5.9980    0.6159   -0.3513 H   0  0  0  0  0  0  0  0  0  0  0  0
   -5.1910    2.7727    0.6764 H   0  0  0  0  0  0  0  0  0  0  0  0
   -0.6057    3.7199    1.3319 H   0  0  0  0  0  0  0  0  0  0  0  0
   -1.7165   -1.5742    1.1937 H   0  0  0  0  0  0  0  0  0  0  0  0
   -0.5544   -2.4746    0.2381 H   0  0  0  0  0  0  0  0  0  0  0  0
    0.0976   -0.4725    2.4655 H   0  0  0  0  0  0  0  0  0  0  0  0
    0.2589   -2.2246    2.5439 H   0  0  0  0  0  0  0  0  0  0  0  0
    2.4485   -1.0994    2.1196 H   0  0  0  0  0  0  0  0  0  0  0  0
    2.0052   -2.2114    0.8310 H   0  0  0  0  0  0  0  0  0  0  0  0
    1.6852    0.8285    0.8395 H   0  0  0  0  0  0  0  0  0  0  0  0
    3.7270    1.9656    0.2791 H   0  0  0  0  0  0  0  0  0  0  0  0
    7.2417    0.8842   -1.1829 H   0  0  0  0  0  0  0  0  0  0  0  0
    6.2854    2.0197   -2.1558 H   0  0  0  0  0  0  0  0  0  0  0  0
    6.4726    2.2791   -0.4106 H   0  0  0  0  0  0  0  0  0  0  0  0
    5.4922   -1.2528   -1.9908 H   0  0  0  0  0  0  0  0  0  0  0  0
    0.7629    0.6227   -1.4722 H   0  0  0  0  0  0  0  0  0  0  0  0
    0.9599   -1.1105   -1.4296 H   0  0  0  0  0  0  0  0  0  0  0  0
  1  2  1  0
  2  3  1  0
  3  4  2  0
  4  5  1  0
  5  6  1  0
  6  7  2  0
  7  8  1  0
  8  9  2  0
  9 10  1  0
 10 11  1  0
 11 12  1  0
 12 13  1  0
 13 14  1  0
 14 15  1  0
 15 16  1  0
 16 17  1  0
 17 18  2  0
 18 19  1  0
 18 20  1  0
 20 21  2  0
 15 22  1  0
 10 23  2  0
 23  3  1  0
 23  6  1  0
 22 11  1  0
 21 16  1  0
  1 24  1  0
  1 25  1  0
  1 26  1  0
  2 27  1  0
  2 28  1  0
  4 29  1  0
  5 30  1  0
  8 31  1  0
 12 32  1  0
 12 33  1  0
 13 34  1  0
 13 35  1  0
 14 36  1  0
 14 37  1  0
 15 38  1  0
 17 39  1  0
 19 40  1  0
 19 41  1  0
 19 42  1  0
 20 43  1  0
 22 44  1  0
 22 45  1  0
M  END
$$$$
OCNT-2309897
     RDKit          3D

 47 50  0  0  0  0  0  0  0  0999 V2000
   -7.1201   -1.6769   -1.7229 O   0  0  0  0  0  0  0  0  0  0  0  0
   -6.7833   -0.8147   -0.9279 C   0  0  0  0  0  0  0  0  0  0  0  0
   -7.6985    0.2368   -0.3477 C   0  0  0  0  0  0  0  0  0  0  0  0
   -6.7420    1.1710    0.3810 C   0  0  0  0  0  0  0  0  0  0  0  0
   -5.5787    0.2725    0.7486 C   0  0  0  0  0  0  0  0  0  0  0  0
   -5.5280   -0.6601   -0.3508 N   0  0  0  0  0  0  0  0  0  0  0  0
   -4.5272   -1.7090   -0.4324 C   0  0  0  0  0  0  0  0  0  0  0  0
   -3.1175   -1.1808   -0.3710 C   0  0  0  0  0  0  0  0  0  0  0  0
   -2.3170   -1.3897    0.7555 C   0  0  0  0  0  0  0  0  0  0  0  0
   -1.0163   -0.8761    0.8034 C   0  0  0  0  0  0  0  0  0  0  0  0
   -0.4671   -0.1681   -0.2744 C   0  0  0  0  0  0  0  0  0  0  0  0
    0.8102    0.3784   -0.1306 N   0  0  0  0  0  0  0  0  0  0  0  0
    1.5892    0.7230   -1.3219 C   0  0  0  0  0  0  0  0  0  0  0  0
    3.0348    1.0191   -1.0595 C   0  0  0  0  0  0  0  0  0  0  0  0
    3.7833    0.2433   -0.2586 N   0  0  0  0  0  0  0  0  0  0  0  0
    4.9953    0.8675   -0.2941 N   0  0  0  0  0  0  0  0  0  0  0  0
    6.1136    0.3877    0.4361 C   0  0  0  0  0  0  0  0  0  0  0  0
    5.9955   -0.7637    1.2282 C   0  0  0  0  0  0  0  0  0  0  0  0
    7.0980   -1.2309    1.9467 C   0  0  0  0  0  0  0  0  0  0  0  0
    8.3160   -0.5549    1.8773 C   0  0  0  0  0  0  0  0  0  0  0  0
    8.4377    0.5903    1.0902 C   0  0  0  0  0  0  0  0  0  0  0  0
    7.3403    1.0644    0.3688 C   0  0  0  0  0  0  0  0  0  0  0  0
    5.0636    1.9784   -1.0804 N   0  0  0  0  0  0  0  0  0  0  0  0
    3.8198    2.0711   -1.5516 C   0  0  0  0  0  0  0  0  0  0  0  0
   -1.2918    0.0729   -1.3781 C   0  0  0  0  0  0  0  0  0  0  0  0
   -2.5944   -0.4376   -1.4348 C   0  0  0  0  0  0  0  0  0  0  0  0
   -8.3924   -0.2453    0.3477 H   0  0  0  0  0  0  0  0  0  0  0  0
   -8.2492    0.7554   -1.1362 H   0  0  0  0  0  0  0  0  0  0  0  0
   -6.4036    1.9567   -0.3063 H   0  0  0  0  0  0  0  0  0  0  0  0
   -7.1969    1.6561    1.2489 H   0  0  0  0  0  0  0  0  0  0  0  0
   -4.6446    0.8318    0.8415 H   0  0  0  0  0  0  0  0  0  0  0  0
   -5.7782   -0.2831    1.6713 H   0  0  0  0  0  0  0  0  0  0  0  0
   -4.7207   -2.4136    0.3854 H   0  0  0  0  0  0  0  0  0  0  0  0
   -4.6615   -2.2725   -1.3634 H   0  0  0  0  0  0  0  0  0  0  0  0
   -2.6983   -1.9424    1.6111 H   0  0  0  0  0  0  0  0  0  0  0  0
   -0.4263   -1.0349    1.7034 H   0  0  0  0  0  0  0  0  0  0  0  0
    1.3910   -0.1567    0.5159 H   0  0  0  0  0  0  0  0  0  0  0  0
    1.5529   -0.1054   -2.0416 H   0  0  0  0  0  0  0  0  0  0  0  0
    1.1391    1.6003   -1.8024 H   0  0  0  0  0  0  0  0  0  0  0  0
    5.0541   -1.3053    1.2954 H   0  0  0  0  0  0  0  0  0  0  0  0
    7.0059   -2.1231    2.5612 H   0  0  0  0  0  0  0  0  0  0  0  0
    9.1723   -0.9209    2.4383 H   0  0  0  0  0  0  0  0  0  0  0  0
    9.3881    1.1156    1.0382 H   0  0  0  0  0  0  0  0  0  0  0  0
    7.4550    1.9601   -0.2391 H   0  0  0  0  0  0  0  0  0  0  0  0
    3.5527    2.8820   -2.2153 H   0  0  0  0  0  0  0  0  0  0  0  0
   -0.9467    0.6691   -2.2167 H   0  0  0  0  0  0  0  0  0  0  0  0
   -3.2082   -0.2379   -2.3112 H   0  0  0  0  0  0  0  0  0  0  0  0
  1  2  2  0
  2  3  1  0
  3  4  1  0
  4  5  1  0
  5  6  1  0
  6  7  1  0
  7  8  1  0
  8  9  1  0
  9 10  2  0
 10 11  1  0
 11 12  1  0
 12 13  1  0
 13 14  1  0
 14 15  2  0
 15 16  1  0
 16 17  1  0
 17 18  2  0
 18 19  1  0
 19 20  2  0
 20 21  1  0
 21 22  2  0
 16 23  1  0
 23 24  2  0
 11 25  2  0
 25 26  1  0
  6  2  1  0
 26  8  2  0
 24 14  1  0
 22 17  1  0
  3 27  1  0
  3 28  1  0
  4 29  1  0
  4 30  1  0
  5 31  1  0
  5 32  1  0
  7 33  1  0
  7 34  1  0
  9 35  1  0
 10 36  1  0
 12 37  1  0
 13 38  1  0
 13 39  1  0
 18 40  1  0
 19 41  1  0
 20 42  1  0
 21 43  1  0
 22 44  1  0
 24 45  1  0
 25 46  1  0
 26 47  1  0
M  END
$$$$
OCNT-2309901
     RDKit          3D

 49 52  0  0  0  0  0  0  0  0999 V2000
    6.5921    2.3787   -1.1978 C   0  0  0  0  0  0  0  0  0  0  0  0
    5.3010    2.0222   -1.9205 C   0  0  0  0  0  0  0  0  0  0  0  0
    4.6920    0.7183   -1.4113 C   0  0  0  0  0  0  0  0  0  0  0  0
    4.3138    0.8886   -0.0395 O   0  0  0  0  0  0  0  0  0  0  0  0
    3.7961   -0.2803    0.4533 C   0  0  0  0  0  0  0  0  0  0  0  0
    4.6370   -1.1629    1.1229 C   0  0  0  0  0  0  0  0  0  0  0  0
    4.1343   -2.3502    1.6613 C   0  0  0  0  0  0  0  0  0  0  0  0
    2.7636   -2.6007    1.5132 C   0  0  0  0  0  0  0  0  0  0  0  0
    2.0088   -3.6680    1.9405 N   0  0  0  0  0  0  0  0  0  0  0  0
    0.6984   -3.4934    1.5869 C   0  0  0  0  0  0  0  0  0  0  0  0
    0.5841   -2.2893    0.9200 C   0  0  0  0  0  0  0  0  0  0  0  0
   -0.6737   -1.6987    0.3692 C   0  0  0  0  0  0  0  0  0  0  0  0
   -1.3514   -0.7453    1.3531 C   0  0  0  0  0  0  0  0  0  0  0  0
   -2.5458   -0.1449    0.7806 N   0  0  0  0  0  0  0  0  0  0  0  0
   -3.5440    0.3544    1.5924 C   0  0  0  0  0  0  0  0  0  0  0  0
   -3.5489    0.2430    2.8128 O   0  0  0  0  0  0  0  0  0  0  0  0
   -4.6157    1.1132    0.9238 C   0  0  0  0  0  0  0  0  0  0  0  0
   -5.2080    2.1756    1.5986 C   0  0  0  0  0  0  0  0  0  0  0  0
   -6.1809    2.9707    1.0887 N   0  0  0  0  0  0  0  0  0  0  0  0
   -6.6403    2.7237   -0.1569 C   0  0  0  0  0  0  0  0  0  0  0  0
   -6.1133    1.6569   -0.8764 C   0  0  0  0  0  0  0  0  0  0  0  0
   -5.1075    0.8291   -0.3650 C   0  0  0  0  0  0  0  0  0  0  0  0
   -4.8650   -0.1679   -1.3584 C   0  0  0  0  0  0  0  0  0  0  0  0
   -5.6811    0.0922   -2.4350 C   0  0  0  0  0  0  0  0  0  0  0  0
   -6.4292    1.1980   -2.1355 N   0  0  0  0  0  0  0  0  0  0  0  0
    1.8967   -1.7186    0.8655 C   0  0  0  0  0  0  0  0  0  0  0  0
    2.4255   -0.5259    0.3316 C   0  0  0  0  0  0  0  0  0  0  0  0
    7.3388    1.5876   -1.3183 H   0  0  0  0  0  0  0  0  0  0  0  0
    7.0095    3.3042   -1.6063 H   0  0  0  0  0  0  0  0  0  0  0  0
    6.4213    2.5303   -0.1274 H   0  0  0  0  0  0  0  0  0  0  0  0
    4.5861    2.8412   -1.7792 H   0  0  0  0  0  0  0  0  0  0  0  0
    5.5008    1.9345   -2.9938 H   0  0  0  0  0  0  0  0  0  0  0  0
    3.8073    0.4804   -2.0150 H   0  0  0  0  0  0  0  0  0  0  0  0
    5.4208   -0.0962   -1.5121 H   0  0  0  0  0  0  0  0  0  0  0  0
    5.6921   -0.9263    1.2305 H   0  0  0  0  0  0  0  0  0  0  0  0
    4.7862   -3.0441    2.1816 H   0  0  0  0  0  0  0  0  0  0  0  0
    2.3744   -4.4609    2.4492 H   0  0  0  0  0  0  0  0  0  0  0  0
   -0.0444   -4.2364    1.8466 H   0  0  0  0  0  0  0  0  0  0  0  0
   -1.3710   -2.5027    0.1003 H   0  0  0  0  0  0  0  0  0  0  0  0
   -0.4514   -1.1705   -0.5667 H   0  0  0  0  0  0  0  0  0  0  0  0
   -1.6172   -1.2716    2.2775 H   0  0  0  0  0  0  0  0  0  0  0  0
   -0.6797    0.0769    1.6274 H   0  0  0  0  0  0  0  0  0  0  0  0
   -2.4704    0.2467   -0.1498 H   0  0  0  0  0  0  0  0  0  0  0  0
   -4.8952    2.4343    2.6085 H   0  0  0  0  0  0  0  0  0  0  0  0
   -7.4198    3.3757   -0.5324 H   0  0  0  0  0  0  0  0  0  0  0  0
   -4.1770   -1.0014   -1.2907 H   0  0  0  0  0  0  0  0  0  0  0  0
   -5.8037   -0.4226   -3.3791 H   0  0  0  0  0  0  0  0  0  0  0  0
   -7.1306    1.6076   -2.7390 H   0  0  0  0  0  0  0  0  0  0  0  0
    1.7846    0.1950   -0.1640 H   0  0  0  0  0  0  0  0  0  0  0  0
  1  2  1  0
  2  3  1  0
  3  4  1  0
  4  5  1  0
  5  6  2  0
  6  7  1  0
  7  8  2  0
  8  9  1  0
  9 10  1  0
 10 11  2  0
 11 12  1  0
 12 13  1  0
 13 14  1  0
 14 15  1  0
 15 16  2  0
 15 17  1  0
 17 18  1  0
 18 19  2  0
 19 20  1  0
 20 21  2  0
 21 22  1  0
 22 23  1  0
 23 24  2  0
 24 25  1  0
 11 26  1  0
 26 27  2  0
 27  5  1  0
 26  8  1  0
 22 17  2  0
 25 21  1  0
  1 28  1  0
  1 29  1  0
  1 30  1  0
  2 31  1  0
  2 32  1  0
  3 33  1  0
  3 34  1  0
  6 35  1  0
  7 36  1  0
  9 37  1  0
 10 38  1  0
 12 39  1  0
 12 40  1  0
 13 41  1  0
 13 42  1  0
 14 43  1  0
 18 44  1  0
 20 45  1  0
 23 46  1  0
 24 47  1  0
 25 48  1  0
 27 49  1  0
M  END
$$$$
OCNT-2309918
     RDKit          3D

 40 42  0  0  0  0  0  0  0  0999 V2000
    7.2450   -0.0895    0.2367 N   0  0  0  0  0  0  0  0  0  0  0  0
    6.4907    1.3892   -0.0467 S   0  0  0  0  0  0  0  0  0  0  0  0
    6.7867    2.2590    1.0665 O   0  0  0  0  0  0  0  0  0  0  0  0
    6.8072    1.7376   -1.4123 O   0  0  0  0  0  0  0  0  0  0  0  0
    4.7794    0.9334    0.0356 C   0  0  0  0  0  0  0  0  0  0  0  0
    4.0959    1.0344    1.2485 C   0  0  0  0  0  0  0  0  0  0  0  0
    2.7456    0.6791    1.3084 C   0  0  0  0  0  0  0  0  0  0  0  0
    2.0766    0.2197    0.1655 C   0  0  0  0  0  0  0  0  0  0  0  0
    0.7121   -0.1076    0.2986 N   0  0  0  0  0  0  0  0  0  0  0  0
   -0.0523   -0.8369   -0.5878 C   0  0  0  0  0  0  0  0  0  0  0  0
    0.4014   -1.4764   -1.5326 O   0  0  0  0  0  0  0  0  0  0  0  0
   -1.4230   -0.8175   -0.2963 N   0  0  0  0  0  0  0  0  0  0  0  0
   -2.2782   -1.6199   -1.1681 C   0  0  0  0  0  0  0  0  0  0  0  0
   -3.5491   -2.0618   -0.4482 C   0  0  0  0  0  0  0  0  0  0  0  0
   -4.2480   -0.9019    0.2121 C   0  0  0  0  0  0  0  0  0  0  0  0
   -5.6122   -0.9937    0.5279 C   0  0  0  0  0  0  0  0  0  0  0  0
   -6.2497    0.0661    1.1636 C   0  0  0  0  0  0  0  0  0  0  0  0
   -7.5539   -0.0309    1.4553 F   0  0  0  0  0  0  0  0  0  0  0  0
   -5.5419    1.2127    1.4946 C   0  0  0  0  0  0  0  0  0  0  0  0
   -6.1571    2.2343    2.1056 F   0  0  0  0  0  0  0  0  0  0  0  0
   -4.1855    1.3139    1.1995 C   0  0  0  0  0  0  0  0  0  0  0  0
   -3.5204    0.2523    0.5636 C   0  0  0  0  0  0  0  0  0  0  0  0
   -2.0472    0.3900    0.2486 C   0  0  0  0  0  0  0  0  0  0  0  0
    2.7698    0.1479   -1.0472 C   0  0  0  0  0  0  0  0  0  0  0  0
    4.1200    0.5052   -1.1171 C   0  0  0  0  0  0  0  0  0  0  0  0
    7.7711   -0.3556   -0.5978 H   0  0  0  0  0  0  0  0  0  0  0  0
    6.5986   -0.8227    0.5262 H   0  0  0  0  0  0  0  0  0  0  0  0
    4.6015    1.3904    2.1443 H   0  0  0  0  0  0  0  0  0  0  0  0
    2.2274    0.7649    2.2605 H   0  0  0  0  0  0  0  0  0  0  0  0
    0.3312   -0.0472    1.2305 H   0  0  0  0  0  0  0  0  0  0  0  0
   -1.7421   -2.5100   -1.5165 H   0  0  0  0  0  0  0  0  0  0  0  0
   -2.5142   -1.0129   -2.0517 H   0  0  0  0  0  0  0  0  0  0  0  0
   -4.2167   -2.5489   -1.1683 H   0  0  0  0  0  0  0  0  0  0  0  0
   -3.2978   -2.7935    0.3296 H   0  0  0  0  0  0  0  0  0  0  0  0
   -6.1863   -1.8832    0.2836 H   0  0  0  0  0  0  0  0  0  0  0  0
   -3.6586    2.2245    1.4717 H   0  0  0  0  0  0  0  0  0  0  0  0
   -1.5269    0.6875    1.1642 H   0  0  0  0  0  0  0  0  0  0  0  0
   -1.9135    1.1870   -0.4937 H   0  0  0  0  0  0  0  0  0  0  0  0
    2.2763   -0.1702   -1.9621 H   0  0  0  0  0  0  0  0  0  0  0  0
    4.6382    0.4512   -2.0724 H   0  0  0  0  0  0  0  0  0  0  0  0
  1  2  1  0
  2  3  2  0
  2  4  2  0
  2  5  1  0
  5  6  1  0
  6  7  2  0
  7  8  1  0
  8  9  1  0
  9 10  1  0
 10 11  2  0
 10 12  1  0
 12 13  1  0
 13 14  1  0
 14 15  1  0
 15 16  1  0
 16 17  2  0
 17 18  1  0
 17 19  1  0
 19 20  1  0
 19 21  2  0
 21 22  1  0
 22 23  1  0
  8 24  2  0
 24 25  1  0
 25  5  2  0
 23 12  1  0
 22 15  2  0
  1 26  1  0
  1 27  1  0
  6 28  1  0
  7 29  1  0
  9 30  1  0
 13 31  1  0
 13 32  1  0
 14 33  1  0
 14 34  1  0
 16 35  1  0
 21 36  1  0
 23 37  1  0
 23 38  1  0
 24 39  1  0
 25 40  1  0
M  END
$$$$
OCNT-2309929
     RDKit          3D

 43 45  0  0  0  0  0  0  0  0999 V2000
    3.7846   -2.3911   -0.8440 C   0  0  0  0  0  0  0  0  0  0  0  0
    2.8427   -1.4265   -0.3973 O   0  0  0  0  0  0  0  0  0  0  0  0
    3.2534   -0.1133   -0.4030 C   0  0  0  0  0  0  0  0  0  0  0  0
    4.4094    0.3559   -1.0378 C   0  0  0  0  0  0  0  0  0  0  0  0
    4.7168    1.7165   -0.9834 C   0  0  0  0  0  0  0  0  0  0  0  0
    6.2639    2.3495   -1.8669 Br  0  0  0  0  0  0  0  0  0  0  0  0
    3.8890    2.6131   -0.2996 C   0  0  0  0  0  0  0  0  0  0  0  0
    2.7372    2.1473    0.3392 C   0  0  0  0  0  0  0  0  0  0  0  0
    2.4091    0.7888    0.2894 C   0  0  0  0  0  0  0  0  0  0  0  0
    1.2559    0.2468    0.8992 N   0  0  0  0  0  0  0  0  0  0  0  0
    0.3477    0.8682    1.7522 C   0  0  0  0  0  0  0  0  0  0  0  0
    0.4235    2.0262    2.1640 O   0  0  0  0  0  0  0  0  0  0  0  0
   -0.7787   -0.0837    2.1931 C   0  0  0  0  0  0  0  0  0  0  0  0
   -1.6541    0.5363    3.2830 C   0  0  0  0  0  0  0  0  0  0  0  0
   -1.5994   -0.5348    1.0061 C   0  0  0  0  0  0  0  0  0  0  0  0
   -1.8138   -1.8442    0.6145 C   0  0  0  0  0  0  0  0  0  0  0  0
   -2.5957   -1.8340   -0.5194 N   0  0  0  0  0  0  0  0  0  0  0  0
   -3.0128   -3.0192   -1.2339 C   0  0  0  0  0  0  0  0  0  0  0  0
   -2.9272   -0.5404   -0.8669 C   0  0  0  0  0  0  0  0  0  0  0  0
   -3.7170   -0.0376   -1.9173 C   0  0  0  0  0  0  0  0  0  0  0  0
   -3.8714    1.3457   -2.0176 C   0  0  0  0  0  0  0  0  0  0  0  0
   -3.2549    2.2036   -1.1133 C   0  0  0  0  0  0  0  0  0  0  0  0
   -2.4684    1.6958   -0.0782 C   0  0  0  0  0  0  0  0  0  0  0  0
   -2.3045    0.2988    0.0640 C   0  0  0  0  0  0  0  0  0  0  0  0
    3.9752   -2.2918   -1.9155 H   0  0  0  0  0  0  0  0  0  0  0  0
    4.7109   -2.3305   -0.2704 H   0  0  0  0  0  0  0  0  0  0  0  0
    3.3494   -3.3780   -0.6728 H   0  0  0  0  0  0  0  0  0  0  0  0
    5.0741   -0.3132   -1.5819 H   0  0  0  0  0  0  0  0  0  0  0  0
    4.1202    3.6752   -0.2629 H   0  0  0  0  0  0  0  0  0  0  0  0
    2.1021    2.8716    0.8523 H   0  0  0  0  0  0  0  0  0  0  0  0
    1.1174   -0.7420    0.6966 H   0  0  0  0  0  0  0  0  0  0  0  0
   -0.2831   -0.9581    2.6381 H   0  0  0  0  0  0  0  0  0  0  0  0
   -1.0480    0.8631    4.1339 H   0  0  0  0  0  0  0  0  0  0  0  0
   -2.3920   -0.1860    3.6489 H   0  0  0  0  0  0  0  0  0  0  0  0
   -2.2014    1.4120    2.9175 H   0  0  0  0  0  0  0  0  0  0  0  0
   -1.4649   -2.7778    1.0465 H   0  0  0  0  0  0  0  0  0  0  0  0
   -4.0631   -3.2103   -0.9892 H   0  0  0  0  0  0  0  0  0  0  0  0
   -2.8880   -2.8513   -2.3078 H   0  0  0  0  0  0  0  0  0  0  0  0
   -2.3932   -3.8662   -0.9275 H   0  0  0  0  0  0  0  0  0  0  0  0
   -4.2014   -0.6967   -2.6308 H   0  0  0  0  0  0  0  0  0  0  0  0
   -4.4797    1.7552   -2.8143 H   0  0  0  0  0  0  0  0  0  0  0  0
   -3.3818    3.2757   -1.2037 H   0  0  0  0  0  0  0  0  0  0  0  0
   -1.9879    2.3812    0.6170 H   0  0  0  0  0  0  0  0  0  0  0  0
  1  2  1  0
  2  3  1  0
  3  4  1  0
  4  5  2  0
  5  6  1  0
  5  7  1  0
  7  8  2  0
  8  9  1  0
  9 10  1  0
 10 11  1  0
 11 12  2  0
 11 13  1  0
 13 14  1  0
 13 15  1  0
 15 16  2  0
 16 17  1  0
 17 18  1  0
 17 19  1  0
 19 20  2  0
 20 21  1  0
 21 22  2  0
 22 23  1  0
 23 24  2  0
  9  3  2  0
 24 15  1  0
 24 19  1  0
  1 25  1  0
  1 26  1  0
  1 27  1  0
  4 28  1  0
  7 29  1  0
  8 30  1  0
 10 31  1  0
 13 32  1  0
 14 33  1  0
 14 34  1  0
 14 35  1  0
 16 36  1  0
 18 37  1  0
 18 38  1  0
 18 39  1  0
 20 40  1  0
 21 41  1  0
 22 42  1  0
 23 43  1  0
M  END
$$$$
OCNT-2309931
     RDKit          3D

 56 60  0  0  0  0  0  0  0  0999 V2000
    6.1033   -4.3564    0.0565 C   0  0  0  0  0  0  0  0  0  0  0  0
    5.1240   -3.2968    0.0736 N   0  0  0  0  0  0  0  0  0  0  0  0
    3.8856   -3.3182   -0.4884 C   0  0  0  0  0  0  0  0  0  0  0  0
    3.3421   -2.0767   -0.2517 C   0  0  0  0  0  0  0  0  0  0  0  0
    2.0921   -1.7126   -0.7303 N   0  0  0  0  0  0  0  0  0  0  0  0
    1.7608   -0.4201   -1.0779 C   0  0  0  0  0  0  0  0  0  0  0  0
    2.5241    0.5324   -1.1581 O   0  0  0  0  0  0  0  0  0  0  0  0
    0.4199   -0.3270   -1.3772 N   0  0  0  0  0  0  0  0  0  0  0  0
   -0.1443    0.9616   -1.7108 C   0  0  0  0  0  0  0  0  0  0  0  0
   -1.5990    0.9294   -1.4091 C   0  0  0  0  0  0  0  0  0  0  0  0
   -2.6266    0.6029   -2.2758 C   0  0  0  0  0  0  0  0  0  0  0  0
   -3.8031    0.6551   -1.5626 N   0  0  0  0  0  0  0  0  0  0  0  0
   -5.1256    0.4013   -2.0280 C   0  0  0  0  0  0  0  0  0  0  0  0
   -6.2016    0.4930   -1.1287 C   0  0  0  0  0  0  0  0  0  0  0  0
   -7.5066    0.2453   -1.5605 C   0  0  0  0  0  0  0  0  0  0  0  0
   -7.7470   -0.0953   -2.8845 C   0  0  0  0  0  0  0  0  0  0  0  0
   -6.6849   -0.1917   -3.7848 C   0  0  0  0  0  0  0  0  0  0  0  0
   -5.3754    0.0582   -3.3623 C   0  0  0  0  0  0  0  0  0  0  0  0
   -3.5711    0.9740   -0.2646 N   0  0  0  0  0  0  0  0  0  0  0  0
   -2.2516    1.1806   -0.1684 C   0  0  0  0  0  0  0  0  0  0  0  0
   -1.6633    1.5646    1.1103 C   0  0  0  0  0  0  0  0  0  0  0  0
   -0.8103    2.6634    1.2082 C   0  0  0  0  0  0  0  0  0  0  0  0
   -0.2835    2.9747    2.4490 C   0  0  0  0  0  0  0  0  0  0  0  0
   -0.5469    2.2738    3.5744 N   0  0  0  0  0  0  0  0  0  0  0  0
   -1.3941    1.2297    3.4595 C   0  0  0  0  0  0  0  0  0  0  0  0
   -1.9714    0.8400    2.2646 C   0  0  0  0  0  0  0  0  0  0  0  0
    4.3089   -1.3957    0.5580 C   0  0  0  0  0  0  0  0  0  0  0  0
    4.2155   -0.1187    1.2631 C   0  0  0  0  0  0  0  0  0  0  0  0
    5.2813    0.7836    1.2325 C   0  0  0  0  0  0  0  0  0  0  0  0
    5.1722    1.9535    1.9631 C   0  0  0  0  0  0  0  0  0  0  0  0
    4.0966    2.2767    2.7173 N   0  0  0  0  0  0  0  0  0  0  0  0
    3.0864    1.3775    2.7458 C   0  0  0  0  0  0  0  0  0  0  0  0
    3.0944    0.1828    2.0451 C   0  0  0  0  0  0  0  0  0  0  0  0
    5.4125   -2.1543    0.7079 N   0  0  0  0  0  0  0  0  0  0  0  0
    7.0529   -3.9494   -0.3157 H   0  0  0  0  0  0  0  0  0  0  0  0
    6.2190   -4.7285    1.0832 H   0  0  0  0  0  0  0  0  0  0  0  0
    5.7585   -5.1632   -0.6018 H   0  0  0  0  0  0  0  0  0  0  0  0
    3.5205   -4.1803   -1.0273 H   0  0  0  0  0  0  0  0  0  0  0  0
    1.5871   -2.4227   -1.2381 H   0  0  0  0  0  0  0  0  0  0  0  0
   -0.1738   -0.9842   -0.8936 H   0  0  0  0  0  0  0  0  0  0  0  0
    0.0316    1.1313   -2.7789 H   0  0  0  0  0  0  0  0  0  0  0  0
    0.3677    1.7571   -1.1622 H   0  0  0  0  0  0  0  0  0  0  0  0
   -2.5989    0.3368   -3.3228 H   0  0  0  0  0  0  0  0  0  0  0  0
   -6.0413    0.7577   -0.0866 H   0  0  0  0  0  0  0  0  0  0  0  0
   -8.3327    0.3212   -0.8559 H   0  0  0  0  0  0  0  0  0  0  0  0
   -8.7618   -0.2888   -3.2196 H   0  0  0  0  0  0  0  0  0  0  0  0
   -6.8764   -0.4547   -4.8201 H   0  0  0  0  0  0  0  0  0  0  0  0
   -4.5839   -0.0168   -4.1009 H   0  0  0  0  0  0  0  0  0  0  0  0
   -0.5663    3.2805    0.3510 H   0  0  0  0  0  0  0  0  0  0  0  0
    0.3874    3.8209    2.5750 H   0  0  0  0  0  0  0  0  0  0  0  0
   -1.6068    0.6996    4.3849 H   0  0  0  0  0  0  0  0  0  0  0  0
   -2.6518   -0.0043    2.2358 H   0  0  0  0  0  0  0  0  0  0  0  0
    6.1747    0.5737    0.6547 H   0  0  0  0  0  0  0  0  0  0  0  0
    5.9788    2.6805    1.9689 H   0  0  0  0  0  0  0  0  0  0  0  0
    2.2464    1.6420    3.3809 H   0  0  0  0  0  0  0  0  0  0  0  0
    2.2554   -0.4991    2.1304 H   0  0  0  0  0  0  0  0  0  0  0  0
  1  2  1  0
  2  3  1  0
  3  4  2  0
  4  5  1  0
  5  6  1  0
  6  7  2  0
  6  8  1  0
  8  9  1  0
  9 10  1  0
 10 11  2  0
 11 12  1  0
 12 13  1  0
 13 14  2  0
 14 15  1  0
 15 16  2  0
 16 17  1  0
 17 18  2  0
 12 19  1  0
 19 20  2  0
 20 21  1  0
 21 22  2  0
 22 23  1  0
 23 24  2  0
 24 25  1  0
 25 26  2  0
  4 27  1  0
 27 28  1  0
 28 29  2  0
 29 30  1  0
 30 31  2  0
 31 32  1  0
 32 33  2  0
 27 34  2  0
 34  2  1  0
 20 10  1  0
 26 21  1  0
 33 28  1  0
 18 13  1  0
  1 35  1  0
  1 36  1  0
  1 37  1  0
  3 38  1  0
  5 39  1  0
  8 40  1  0
  9 41  1  0
  9 42  1  0
 11 43  1  0
 14 44  1  0
 15 45  1  0
 16 46  1  0
 17 47  1  0
 18 48  1  0
 22 49  1  0
 23 50  1  0
 25 51  1  0
 26 52  1  0
 29 53  1  0
 30 54  1  0
 32 55  1  0
 33 56  1  0
M  END
$$$$
OCNT-2309935
     RDKit          3D

 46 49  0  0  0  0  0  0  0  0999 V2000
   -0.6800    2.6389    1.5409 C   0  0  0  0  0  0  0  0  0  0  0  0
   -1.0200    1.5588    0.6727 O   0  0  0  0  0  0  0  0  0  0  0  0
   -2.1414    0.8761    1.0407 C   0  0  0  0  0  0  0  0  0  0  0  0
   -2.8530    1.1936    1.9877 O   0  0  0  0  0  0  0  0  0  0  0  0
   -2.4308   -0.2498    0.1646 C   0  0  0  0  0  0  0  0  0  0  0  0
   -3.6070   -0.9862    0.1428 C   0  0  0  0  0  0  0  0  0  0  0  0
   -4.8621   -0.9038    0.9464 C   0  0  0  0  0  0  0  0  0  0  0  0
   -6.0102   -1.6846    0.2981 C   0  0  0  0  0  0  0  0  0  0  0  0
   -5.5430   -3.0637   -0.1712 C   0  0  0  0  0  0  0  0  0  0  0  0
   -4.4246   -2.9328   -1.2041 C   0  0  0  0  0  0  0  0  0  0  0  0
   -3.4341   -1.9482   -0.8105 N   0  0  0  0  0  0  0  0  0  0  0  0
   -2.2567   -1.8811   -1.4449 N   0  0  0  0  0  0  0  0  0  0  0  0
   -1.6165   -0.8699   -0.8336 C   0  0  0  0  0  0  0  0  0  0  0  0
   -0.2111   -0.5288   -1.2346 C   0  0  0  0  0  0  0  0  0  0  0  0
    0.6871   -0.6863   -0.1301 O   0  0  0  0  0  0  0  0  0  0  0  0
    1.9321   -0.1324   -0.2626 C   0  0  0  0  0  0  0  0  0  0  0  0
    2.5518    0.1170   -1.4861 C   0  0  0  0  0  0  0  0  0  0  0  0
    3.8377    0.6742   -1.5272 C   0  0  0  0  0  0  0  0  0  0  0  0
    4.5544    0.9946   -0.3609 C   0  0  0  0  0  0  0  0  0  0  0  0
    5.9441    1.5954   -0.4693 C   0  0  0  0  0  0  0  0  0  0  0  0
    6.4457    2.6034    0.5363 C   0  0  0  0  0  0  0  0  0  0  0  0
    7.0334    1.2213    0.5067 C   0  0  0  0  0  0  0  0  0  0  0  0
    3.9164    0.7214    0.8607 C   0  0  0  0  0  0  0  0  0  0  0  0
    2.6318    0.1645    0.9125 C   0  0  0  0  0  0  0  0  0  0  0  0
    1.9354   -0.1218    2.4706 Cl  0  0  0  0  0  0  0  0  0  0  0  0
   -1.4460    3.4189    1.4960 H   0  0  0  0  0  0  0  0  0  0  0  0
    0.2676    3.0628    1.1973 H   0  0  0  0  0  0  0  0  0  0  0  0
   -0.5455    2.2847    2.5679 H   0  0  0  0  0  0  0  0  0  0  0  0
   -5.1680    0.1405    1.0731 H   0  0  0  0  0  0  0  0  0  0  0  0
   -4.6644   -1.3105    1.9457 H   0  0  0  0  0  0  0  0  0  0  0  0
   -6.3990   -1.1232   -0.5614 H   0  0  0  0  0  0  0  0  0  0  0  0
   -6.8344   -1.7884    1.0127 H   0  0  0  0  0  0  0  0  0  0  0  0
   -5.1818   -3.6352    0.6931 H   0  0  0  0  0  0  0  0  0  0  0  0
   -6.3803   -3.6237   -0.6013 H   0  0  0  0  0  0  0  0  0  0  0  0
   -4.8257   -2.6013   -2.1686 H   0  0  0  0  0  0  0  0  0  0  0  0
   -3.9145   -3.8916   -1.3435 H   0  0  0  0  0  0  0  0  0  0  0  0
   -0.1963    0.5037   -1.6068 H   0  0  0  0  0  0  0  0  0  0  0  0
    0.1044   -1.1981   -2.0448 H   0  0  0  0  0  0  0  0  0  0  0  0
    2.0736   -0.1246   -2.4301 H   0  0  0  0  0  0  0  0  0  0  0  0
    4.2928    0.8551   -2.5003 H   0  0  0  0  0  0  0  0  0  0  0  0
    6.2895    1.7657   -1.4898 H   0  0  0  0  0  0  0  0  0  0  0  0
    7.0551    3.4216    0.1680 H   0  0  0  0  0  0  0  0  0  0  0  0
    5.8202    2.8769    1.3775 H   0  0  0  0  0  0  0  0  0  0  0  0
    8.0393    1.1047    0.1178 H   0  0  0  0  0  0  0  0  0  0  0  0
    6.8072    0.5493    1.3260 H   0  0  0  0  0  0  0  0  0  0  0  0
    4.4272    0.9427    1.7947 H   0  0  0  0  0  0  0  0  0  0  0  0
  1  2  1  0
  2  3  1  0
  3  4  2  0
  3  5  1  0
  5  6  2  0
  6  7  1  0
  7  8  1  0
  8  9  1  0
  9 10  1  0
 10 11  1  0
 11 12  1  0
 12 13  2  0
 13 14  1  0
 14 15  1  0
 15 16  1  0
 16 17  1  0
 17 18  2  0
 18 19  1  0
 19 20  1  0
 20 21  1  0
 21 22  1  0
 19 23  2  0
 23 24  1  0
 24 25  1  0
 13  5  1  0
 24 16  2  0
 11  6  1  0
 22 20  1  0
  1 26  1  0
  1 27  1  0
  1 28  1  0
  7 29  1  0
  7 30  1  0
  8 31  1  0
  8 32  1  0
  9 33  1  0
  9 34  1  0
 10 35  1  0
 10 36  1  0
 14 37  1  0
 14 38  1  0
 17 39  1  0
 18 40  1  0
 20 41  1  0
 21 42  1  0
 21 43  1  0
 22 44  1  0
 22 45  1  0
 23 46  1  0
M  END
$$$$
OCNT-2309940
     RDKit          3D

 38 40  0  0  0  0  0  0  0  0999 V2000
    6.3837   -1.3027    1.3113 N   0  0  0  0  0  0  0  0  0  0  0  0
    5.0341   -1.3293    0.7419 C   0  0  0  0  0  0  0  0  0  0  0  0
    4.5597    0.0630    0.3059 C   0  0  0  0  0  0  0  0  0  0  0  0
    3.1845    0.0376   -0.2833 C   0  0  0  0  0  0  0  0  0  0  0  0
    2.8706   -0.0064   -1.6286 C   0  0  0  0  0  0  0  0  0  0  0  0
    1.5080   -0.0244   -1.7513 N   0  0  0  0  0  0  0  0  0  0  0  0
    0.9172    0.0191   -0.5110 C   0  0  0  0  0  0  0  0  0  0  0  0
    1.9431    0.0497    0.4327 C   0  0  0  0  0  0  0  0  0  0  0  0
    1.5954    0.0791    1.7990 C   0  0  0  0  0  0  0  0  0  0  0  0
    0.2445    0.0623    2.1677 C   0  0  0  0  0  0  0  0  0  0  0  0
   -0.7578    0.0325    1.1995 C   0  0  0  0  0  0  0  0  0  0  0  0
   -0.4378    0.0346   -0.1618 C   0  0  0  0  0  0  0  0  0  0  0  0
   -1.3869   -0.0121   -1.1483 O   0  0  0  0  0  0  0  0  0  0  0  0
   -2.3252    1.0715   -1.0777 C   0  0  0  0  0  0  0  0  0  0  0  0
   -3.6700    0.6277   -0.5478 C   0  0  0  0  0  0  0  0  0  0  0  0
   -4.4402    1.5034    0.2317 C   0  0  0  0  0  0  0  0  0  0  0  0
   -5.6949    1.1151    0.7052 C   0  0  0  0  0  0  0  0  0  0  0  0
   -6.1972   -0.1476    0.3974 C   0  0  0  0  0  0  0  0  0  0  0  0
   -5.4476   -1.0218   -0.3869 C   0  0  0  0  0  0  0  0  0  0  0  0
   -4.1933   -0.6349   -0.8615 C   0  0  0  0  0  0  0  0  0  0  0  0
    7.0348   -0.9252    0.6238 H   0  0  0  0  0  0  0  0  0  0  0  0
    6.4064   -0.6628    2.1043 H   0  0  0  0  0  0  0  0  0  0  0  0
    5.0280   -2.0156   -0.1127 H   0  0  0  0  0  0  0  0  0  0  0  0
    4.3494   -1.7483    1.4880 H   0  0  0  0  0  0  0  0  0  0  0  0
    4.5726    0.7473    1.1638 H   0  0  0  0  0  0  0  0  0  0  0  0
    5.2609    0.4773   -0.4303 H   0  0  0  0  0  0  0  0  0  0  0  0
    3.5015   -0.0325   -2.5072 H   0  0  0  0  0  0  0  0  0  0  0  0
    0.9900   -0.0685   -2.6181 H   0  0  0  0  0  0  0  0  0  0  0  0
    2.3660    0.0982    2.5640 H   0  0  0  0  0  0  0  0  0  0  0  0
   -0.0241    0.0626    3.2213 H   0  0  0  0  0  0  0  0  0  0  0  0
   -1.7959   -0.0089    1.5183 H   0  0  0  0  0  0  0  0  0  0  0  0
   -2.4715    1.4324   -2.1028 H   0  0  0  0  0  0  0  0  0  0  0  0
   -1.9275    1.9188   -0.5022 H   0  0  0  0  0  0  0  0  0  0  0  0
   -4.0663    2.4946    0.4788 H   0  0  0  0  0  0  0  0  0  0  0  0
   -6.2816    1.7988    1.3132 H   0  0  0  0  0  0  0  0  0  0  0  0
   -7.1737   -0.4499    0.7663 H   0  0  0  0  0  0  0  0  0  0  0  0
   -5.8388   -2.0062   -0.6303 H   0  0  0  0  0  0  0  0  0  0  0  0
   -3.6199   -1.3283   -1.4739 H   0  0  0  0  0  0  0  0  0  0  0  0
  1  2  1  0
  2  3  1  0
  3  4  1  0
  4  5  2  0
  5  6  1  0
  6  7  1  0
  7  8  1  0
  8  9  2  0
  9 10  1  0
 10 11  2  0
 11 12  1  0
 12 13  1  0
 13 14  1  0
 14 15  1  0
 15 16  2  0
 16 17  1  0
 17 18  2  0
 18 19  1  0
 19 20  2  0
  8  4  1  0
 20 15  1  0
 12  7  2  0
  1 21  1  0
  1 22  1  0
  2 23  1  0
  2 24  1  0
  3 25  1  0
  3 26  1  0
  5 27  1  0
  6 28  1  0
  9 29  1  0
 10 30  1  0
 11 31  1  0
 14 32  1  0
 14 33  1  0
 16 34  1  0
 17 35  1  0
 18 36  1  0
 19 37  1  0
 20 38  1  0
M  END
$$$$
OCNT-2309950
     RDKit          3D

 38 40  0  0  0  0  0  0  0  0999 V2000
    2.8518    1.1999    1.5971 O   0  0  0  0  0  0  0  0  0  0  0  0
    3.0936    0.1441    1.0242 C   0  0  0  0  0  0  0  0  0  0  0  0
    2.1107   -0.6911    0.5352 N   0  0  0  0  0  0  0  0  0  0  0  0
    0.7029   -0.3532    0.6696 C   0  0  0  0  0  0  0  0  0  0  0  0
    0.2648    0.7063   -0.3418 C   0  0  0  0  0  0  0  0  0  0  0  0
   -1.1856    0.9941   -0.2242 C   0  0  0  0  0  0  0  0  0  0  0  0
   -2.1868    0.1491   -0.3358 N   0  0  0  0  0  0  0  0  0  0  0  0
   -3.3090    0.9375   -0.1695 C   0  0  0  0  0  0  0  0  0  0  0  0
   -4.6607    0.3907   -0.2435 C   0  0  0  0  0  0  0  0  0  0  0  0
   -5.7833    1.2326   -0.2425 C   0  0  0  0  0  0  0  0  0  0  0  0
   -7.0725    0.7001   -0.3331 C   0  0  0  0  0  0  0  0  0  0  0  0
   -7.2530   -0.6810   -0.4239 C   0  0  0  0  0  0  0  0  0  0  0  0
   -6.1469   -1.5296   -0.4200 C   0  0  0  0  0  0  0  0  0  0  0  0
   -4.8580   -0.9957   -0.3286 C   0  0  0  0  0  0  0  0  0  0  0  0
   -3.0261    2.2331    0.0472 N   0  0  0  0  0  0  0  0  0  0  0  0
   -1.6859    2.2402    0.0161 N   0  0  0  0  0  0  0  0  0  0  0  0
    4.5027   -0.2718    0.7851 C   0  0  0  0  0  0  0  0  0  0  0  0
    4.8655   -1.6194    0.6303 C   0  0  0  0  0  0  0  0  0  0  0  0
    6.2027   -1.9639    0.4116 C   0  0  0  0  0  0  0  0  0  0  0  0
    7.1716   -0.9655    0.3674 C   0  0  0  0  0  0  0  0  0  0  0  0
    8.4514   -1.3068    0.1665 F   0  0  0  0  0  0  0  0  0  0  0  0
    6.8178    0.3676    0.5444 C   0  0  0  0  0  0  0  0  0  0  0  0
    7.7580    1.3222    0.5222 F   0  0  0  0  0  0  0  0  0  0  0  0
    5.4905    0.7240    0.7552 C   0  0  0  0  0  0  0  0  0  0  0  0
    2.3527   -1.4331   -0.1082 H   0  0  0  0  0  0  0  0  0  0  0  0
    0.1391   -1.2825    0.5359 H   0  0  0  0  0  0  0  0  0  0  0  0
    0.5257    0.0014    1.6926 H   0  0  0  0  0  0  0  0  0  0  0  0
    0.8491    1.6260   -0.2050 H   0  0  0  0  0  0  0  0  0  0  0  0
    0.4757    0.3540   -1.3610 H   0  0  0  0  0  0  0  0  0  0  0  0
   -5.6578    2.3120   -0.1778 H   0  0  0  0  0  0  0  0  0  0  0  0
   -7.9333    1.3629   -0.3384 H   0  0  0  0  0  0  0  0  0  0  0  0
   -8.2553   -1.0948   -0.5003 H   0  0  0  0  0  0  0  0  0  0  0  0
   -6.2847   -2.6077   -0.4943 H   0  0  0  0  0  0  0  0  0  0  0  0
   -4.0028   -1.6690   -0.3285 H   0  0  0  0  0  0  0  0  0  0  0  0
   -1.1887    3.1129    0.1570 H   0  0  0  0  0  0  0  0  0  0  0  0
    4.1302   -2.4142    0.7208 H   0  0  0  0  0  0  0  0  0  0  0  0
    6.4975   -3.0030    0.2959 H   0  0  0  0  0  0  0  0  0  0  0  0
    5.2363    1.7714    0.9010 H   0  0  0  0  0  0  0  0  0  0  0  0
  1  2  2  0
  2  3  1  0
  3  4  1  0
  4  5  1  0
  5  6  1  0
  6  7  2  0
  7  8  1  0
  8  9  1  0
  9 10  2  0
 10 11  1  0
 11 12  2  0
 12 13  1  0
 13 14  2  0
  8 15  2  0
 15 16  1  0
  2 17  1  0
 17 18  1  0
 18 19  2  0
 19 20  1  0
 20 21  1  0
 20 22  2  0
 22 23  1  0
 22 24  1  0
 16  6  1  0
 24 17  2  0
 14  9  1  0
  3 25  1  0
  4 26  1  0
  4 27  1  0
  5 28  1  0
  5 29  1  0
 10 30  1  0
 11 31  1  0
 12 32  1  0
 13 33  1  0
 14 34  1  0
 16 35  1  0
 18 36  1  0
 19 37  1  0
 24 38  1  0
M  END
$$$$
OCNT-2309967
     RDKit          3D

 50 52  0  0  0  0  0  0  0  0999 V2000
    8.5222   -2.2386    1.2101 C   0  0  0  0  0  0  0  0  0  0  0  0
    7.5235   -2.6570    0.2884 O   0  0  0  0  0  0  0  0  0  0  0  0
    6.3792   -1.9111    0.2379 C   0  0  0  0  0  0  0  0  0  0  0  0
    6.1026   -0.7779    0.9974 C   0  0  0  0  0  0  0  0  0  0  0  0
    4.8812   -0.1082    0.8406 C   0  0  0  0  0  0  0  0  0  0  0  0
    3.9104   -0.5488   -0.0758 C   0  0  0  0  0  0  0  0  0  0  0  0
    2.6441    0.2050   -0.1897 C   0  0  0  0  0  0  0  0  0  0  0  0
    2.3009    1.1871    0.6214 N   0  0  0  0  0  0  0  0  0  0  0  0
    1.0619    1.7104    0.2853 C   0  0  0  0  0  0  0  0  0  0  0  0
    0.5392    2.8084    1.1401 C   0  0  0  0  0  0  0  0  0  0  0  0
    0.4604    1.1226   -0.8182 C   0  0  0  0  0  0  0  0  0  0  0  0
   -0.8492    1.3912   -1.5144 C   0  0  0  0  0  0  0  0  0  0  0  0
   -0.8126    2.7089   -2.2847 C   0  0  0  0  0  0  0  0  0  0  0  0
   -1.9321    1.3991   -0.5451 N   0  0  0  0  0  0  0  0  0  0  0  0
   -2.5326    0.2288   -0.1574 C   0  0  0  0  0  0  0  0  0  0  0  0
   -2.2890   -0.8665   -0.6419 O   0  0  0  0  0  0  0  0  0  0  0  0
   -3.4429    0.4492    0.8422 N   0  0  0  0  0  0  0  0  0  0  0  0
   -4.2689   -0.6269    1.3416 C   0  0  0  0  0  0  0  0  0  0  0  0
   -5.6345   -0.4768    0.7719 C   0  0  0  0  0  0  0  0  0  0  0  0
   -6.7207    0.1632    1.3352 C   0  0  0  0  0  0  0  0  0  0  0  0
   -7.7463    0.0337    0.4482 N   0  0  0  0  0  0  0  0  0  0  0  0
   -7.4099   -0.6332   -0.6629 N   0  0  0  0  0  0  0  0  0  0  0  0
   -6.1241   -0.9581   -0.4757 C   0  0  0  0  0  0  0  0  0  0  0  0
   -5.3894   -1.7174   -1.5199 C   0  0  0  0  0  0  0  0  0  0  0  0
    1.4944   -0.1113   -1.4273 S   0  0  0  0  0  0  0  0  0  0  0  0
    4.2041   -1.6946   -0.8292 C   0  0  0  0  0  0  0  0  0  0  0  0
    5.4246   -2.3641   -0.6730 C   0  0  0  0  0  0  0  0  0  0  0  0
    8.8932   -1.2383    0.9631 H   0  0  0  0  0  0  0  0  0  0  0  0
    9.3631   -2.9343    1.1303 H   0  0  0  0  0  0  0  0  0  0  0  0
    8.1519   -2.2806    2.2398 H   0  0  0  0  0  0  0  0  0  0  0  0
    6.8080   -0.3844    1.7213 H   0  0  0  0  0  0  0  0  0  0  0  0
    4.6879    0.7755    1.4481 H   0  0  0  0  0  0  0  0  0  0  0  0
    0.1453    3.6301    0.5367 H   0  0  0  0  0  0  0  0  0  0  0  0
   -0.2565    2.4361    1.7924 H   0  0  0  0  0  0  0  0  0  0  0  0
    1.3316    3.2163    1.7763 H   0  0  0  0  0  0  0  0  0  0  0  0
   -1.0591    0.5927   -2.2379 H   0  0  0  0  0  0  0  0  0  0  0  0
   -1.7558    2.8657   -2.8201 H   0  0  0  0  0  0  0  0  0  0  0  0
   -0.0008    2.7138   -3.0203 H   0  0  0  0  0  0  0  0  0  0  0  0
   -0.6704    3.5696   -1.6233 H   0  0  0  0  0  0  0  0  0  0  0  0
   -1.9212    2.1233    0.1536 H   0  0  0  0  0  0  0  0  0  0  0  0
   -3.8557    1.3684    0.8651 H   0  0  0  0  0  0  0  0  0  0  0  0
   -4.3001   -0.5262    2.4317 H   0  0  0  0  0  0  0  0  0  0  0  0
   -3.8388   -1.6048    1.1043 H   0  0  0  0  0  0  0  0  0  0  0  0
   -6.8517    0.6815    2.2741 H   0  0  0  0  0  0  0  0  0  0  0  0
   -8.6983    0.3746    0.5320 H   0  0  0  0  0  0  0  0  0  0  0  0
   -6.0796   -2.2315   -2.1972 H   0  0  0  0  0  0  0  0  0  0  0  0
   -4.7422   -2.4756   -1.0687 H   0  0  0  0  0  0  0  0  0  0  0  0
   -4.7708   -1.0392   -2.1157 H   0  0  0  0  0  0  0  0  0  0  0  0
    3.4949   -2.0984   -1.5471 H   0  0  0  0  0  0  0  0  0  0  0  0
    5.6290   -3.2512   -1.2683 H   0  0  0  0  0  0  0  0  0  0  0  0
  1  2  1  0
  2  3  1  0
  3  4  1  0
  4  5  2  0
  5  6  1  0
  6  7  1  0
  7  8  2  0
  8  9  1  0
  9 10  1  0
  9 11  2  0
 11 12  1  0
 12 13  1  0
 12 14  1  0
 14 15  1  0
 15 16  2  0
 15 17  1  0
 17 18  1  0
 18 19  1  0
 19 20  2  0
 20 21  1  0
 21 22  1  0
 22 23  2  0
 23 24  1  0
 11 25  1  0
  6 26  2  0
 26 27  1  0
 27  3  2  0
 25  7  1  0
 23 19  1  0
  1 28  1  0
  1 29  1  0
  1 30  1  0
  4 31  1  0
  5 32  1  0
 10 33  1  0
 10 34  1  0
 10 35  1  0
 12 36  1  0
 13 37  1  0
 13 38  1  0
 13 39  1  0
 14 40  1  0
 17 41  1  0
 18 42  1  0
 18 43  1  0
 20 44  1  0
 21 45  1  0
 24 46  1  0
 24 47  1  0
 24 48  1  0
 26 49  1  0
 27 50  1  0
M  END
$$$$
OCNT-2309977
     RDKit          3D

  0  0  0  0  0  0  0  0  0  0999 V3000
M  V30 BEGIN CTAB
M  V30 COUNTS 43 45 0 0 0
M  V30 BEGIN ATOM
M  V30 1 C 3.248748 2.337136 1.155986 0
M  V30 2 O 3.210144 1.281378 2.108412 0
M  V30 3 C 3.989097 0.152195 1.711410 0
M  V30 4 C 3.229109 -0.724464 0.746208 0
M  V30 5 C 3.838498 -1.195678 -0.425947 0
M  V30 6 C 3.130255 -2.011785 -1.312089 0
M  V30 7 Cl 3.895131 -2.566975 -2.749960 0
M  V30 8 C 1.813136 -2.373886 -1.049138 0
M  V30 9 C 1.207844 -1.913432 0.121047 0
M  V30 10 S -0.482986 -2.328692 0.451262 0
M  V30 11 O -0.475563 -3.200016 1.604241 0
M  V30 12 O -1.121308 -2.706768 -0.788738 0
M  V30 13 N -1.142658 -0.880333 0.968879 0
M  V30 14 C -1.690894 0.158025 0.073291 0 CFG=2
M  V30 15 C -1.928284 1.435039 0.922567 0
M  V30 16 C -3.281175 1.980563 0.494594 0
M  V30 17 C -4.076827 0.722409 0.206027 0
M  V30 18 C -3.085924 -0.230718 -0.470381 0 CFG=1
M  V30 19 C -2.975395 -0.020625 -1.985427 0
M  V30 20 N -1.857576 0.909592 -2.170751 0
M  V30 21 C -0.863122 0.464061 -1.188243 0
M  V30 22 C 1.906625 -1.101201 1.020563 0
M  V30 23 H 2.835890 2.014445 0.195648 0
M  V30 24 H 2.637751 3.160991 1.534756 0
M  V30 25 H 4.273624 2.697291 1.024634 0
M  V30 26 H 4.951767 0.479746 1.300976 0
M  V30 27 H 4.203217 -0.435053 2.611437 0
M  V30 28 H 4.867724 -0.925482 -0.653309 0
M  V30 29 H 1.266030 -3.004138 -1.746206 0
M  V30 30 H -1.576590 -0.977601 1.887431 0
M  V30 31 H -1.136309 2.181841 0.802387 0
M  V30 32 H -1.971362 1.195329 1.993212 0
M  V30 33 H -3.186363 2.599205 -0.404238 0
M  V30 34 H -3.743900 2.592134 1.274831 0
M  V30 35 H -4.964942 0.922580 -0.400737 0
M  V30 36 H -4.414116 0.281319 1.152445 0
M  V30 37 H -3.373759 -1.267215 -0.262513 0
M  V30 38 H -2.742809 -0.972859 -2.477730 0
M  V30 39 H -3.894532 0.370410 -2.431573 0
M  V30 40 H -1.486187 0.826416 -3.116802 0
M  V30 41 H -0.104417 1.234567 -1.018793 0
M  V30 42 H -0.352124 -0.409534 -1.596517 0
M  V30 43 H 1.424531 -0.750218 1.932327 0
M  V30 END ATOM
M  V30 BEGIN BOND
M  V30 1 1 1 2
M  V30 2 1 2 3
M  V30 3 1 3 4
M  V30 4 1 4 5
M  V30 5 2 5 6
M  V30 6 1 6 7
M  V30 7 1 6 8
M  V30 8 2 8 9
M  V30 9 1 9 10
M  V30 10 2 10 11
M  V30 11 2 10 12
M  V30 12 1 10 13
M  V30 13 1 14 13 CFG=1
M  V30 14 1 14 15
M  V30 15 1 15 16
M  V30 16 1 16 17
M  V30 17 1 17 18
M  V30 18 1 18 19
M  V30 19 1 19 20
M  V30 20 1 20 21
M  V30 21 1 9 22
M  V30 22 2 22 4
M  V30 23 1 18 14
M  V30 24 1 21 14
M  V30 25 1 1 23
M  V30 26 1 1 24
M  V30 27 1 1 25
M  V30 28 1 3 26
M  V30 29 1 3 27
M  V30 30 1 5 28
M  V30 31 1 8 29
M  V30 32 1 13 30
M  V30 33 1 15 31
M  V30 34 1 15 32
M  V30 35 1 16 33
M  V30 36 1 16 34
M  V30 37 1 17 35
M  V30 38 1 17 36
M  V30 39 1 18 37 CFG=3
M  V30 40 1 19 38
M  V30 41 1 19 39
M  V30 42 1 20 40
M  V30 43 1 21 41
M  V30 44 1 21 42
M  V30 45 1 22 43
M  V30 END BOND
M  V30 BEGIN COLLECTION
M  V30 MDLV30/STERAC1 ATOMS=(2 14 18)
M  V30 END COLLECTION
M  V30 END CTAB
M  END
>  <_CXSMILES_Data>  (245) 
|&1:13,17|

$$$$
OCNT-2309981
     RDKit          3D

 43 45  0  0  0  0  0  0  0  0999 V2000
    5.8869    0.0546    1.1845 C   0  0  0  0  0  0  0  0  0  0  0  0
    4.6675   -0.6319    0.9347 O   0  0  0  0  0  0  0  0  0  0  0  0
    3.7293   -0.0052    0.1504 C   0  0  0  0  0  0  0  0  0  0  0  0
    3.9240    1.2385   -0.4540 C   0  0  0  0  0  0  0  0  0  0  0  0
    2.9224    1.7967   -1.2436 C   0  0  0  0  0  0  0  0  0  0  0  0
    1.7153    1.1225   -1.4321 C   0  0  0  0  0  0  0  0  0  0  0  0
    1.4800   -0.1217   -0.8296 C   0  0  0  0  0  0  0  0  0  0  0  0
    2.5060   -0.6901   -0.0434 C   0  0  0  0  0  0  0  0  0  0  0  0
    2.2808   -2.0033    0.5665 C   0  0  0  0  0  0  0  0  0  0  0  0
    1.1507   -2.6743    0.3398 C   0  0  0  0  0  0  0  0  0  0  0  0
    0.0761   -2.1292   -0.5155 C   0  0  0  0  0  0  0  0  0  0  0  0
   -0.8938   -2.8509   -0.7486 O   0  0  0  0  0  0  0  0  0  0  0  0
    0.2441   -0.8347   -1.0070 N   0  0  0  0  0  0  0  0  0  0  0  0
   -0.8700   -0.2596   -1.7590 C   0  0  0  0  0  0  0  0  0  0  0  0
   -1.5605    0.8375   -0.9415 C   0  0  0  0  0  0  0  0  0  0  0  0
   -2.8294    1.3741   -1.6548 C   0  0  0  0  0  0  0  0  0  0  0  0
   -3.6637    0.4498   -0.7534 C   0  0  0  0  0  0  0  0  0  0  0  0
   -2.5029    0.5103    0.2936 C   0  0  0  0  0  0  0  0  0  0  0  0
   -2.1455   -0.7023    0.9933 O   0  0  0  0  0  0  0  0  0  0  0  0
   -3.1509   -1.6751    1.2255 C   0  0  0  0  0  0  0  0  0  0  0  0
   -2.5897    1.6413    1.2061 O   0  0  0  0  0  0  0  0  0  0  0  0
   -3.4349    1.5014    2.3349 C   0  0  0  0  0  0  0  0  0  0  0  0
    5.7088    1.0010    1.7056 H   0  0  0  0  0  0  0  0  0  0  0  0
    6.4487    0.2101    0.2577 H   0  0  0  0  0  0  0  0  0  0  0  0
    6.4962   -0.5753    1.8399 H   0  0  0  0  0  0  0  0  0  0  0  0
    4.8456    1.7984   -0.3362 H   0  0  0  0  0  0  0  0  0  0  0  0
    3.0811    2.7626   -1.7176 H   0  0  0  0  0  0  0  0  0  0  0  0
    0.9774    1.6009   -2.0669 H   0  0  0  0  0  0  0  0  0  0  0  0
    3.0513   -2.4282    1.1998 H   0  0  0  0  0  0  0  0  0  0  0  0
    0.9674   -3.6505    0.7701 H   0  0  0  0  0  0  0  0  0  0  0  0
   -0.4941    0.1309   -2.7116 H   0  0  0  0  0  0  0  0  0  0  0  0
   -1.5903   -1.0403   -2.0273 H   0  0  0  0  0  0  0  0  0  0  0  0
   -0.8698    1.6590   -0.7149 H   0  0  0  0  0  0  0  0  0  0  0  0
   -2.9120    1.1841   -2.7286 H   0  0  0  0  0  0  0  0  0  0  0  0
   -3.0133    2.4410   -1.4785 H   0  0  0  0  0  0  0  0  0  0  0  0
   -4.6205    0.8734   -0.4353 H   0  0  0  0  0  0  0  0  0  0  0  0
   -3.8518   -0.5363   -1.1910 H   0  0  0  0  0  0  0  0  0  0  0  0
   -4.0625   -1.2152    1.6157 H   0  0  0  0  0  0  0  0  0  0  0  0
   -2.7754   -2.3878    1.9645 H   0  0  0  0  0  0  0  0  0  0  0  0
   -3.3721   -2.2183    0.3034 H   0  0  0  0  0  0  0  0  0  0  0  0
   -4.4427    1.2079    2.0294 H   0  0  0  0  0  0  0  0  0  0  0  0
   -3.4931    2.4671    2.8440 H   0  0  0  0  0  0  0  0  0  0  0  0
   -3.0206    0.7673    3.0311 H   0  0  0  0  0  0  0  0  0  0  0  0
  1  2  1  0
  2  3  1  0
  3  4  1  0
  4  5  2  0
  5  6  1  0
  6  7  2  0
  7  8  1  0
  8  9  1  0
  9 10  2  0
 10 11  1  0
 11 12  2  0
 11 13  1  0
 13 14  1  0
 14 15  1  0
 15 16  1  0
 16 17  1  0
 17 18  1  0
 18 19  1  0
 19 20  1  0
 18 21  1  0
 21 22  1  0
  8  3  2  0
 18 15  1  0
 13  7  1  0
  1 23  1  0
  1 24  1  0
  1 25  1  0
  4 26  1  0
  5 27  1  0
  6 28  1  0
  9 29  1  0
 10 30  1  0
 14 31  1  0
 14 32  1  0
 15 33  1  0
 16 34  1  0
 16 35  1  0
 17 36  1  0
 17 37  1  0
 20 38  1  0
 20 39  1  0
 20 40  1  0
 22 41  1  0
 22 42  1  0
 22 43  1  0
M  END
$$$$
OCNT-2309991
     RDKit          3D

 34 36  0  0  0  0  0  0  0  0999 V2000
   -3.4610    0.2620   -2.4186 C   0  0  0  0  0  0  0  0  0  0  0  0
   -3.8839   -0.0504   -1.0150 C   0  0  0  0  0  0  0  0  0  0  0  0
   -5.1622    0.2786   -0.6895 N   0  0  0  0  0  0  0  0  0  0  0  0
   -5.5505   -0.0043    0.5723 C   0  0  0  0  0  0  0  0  0  0  0  0
   -4.7037   -0.5926    1.4890 C   0  0  0  0  0  0  0  0  0  0  0  0
   -3.4306   -0.9250    1.1848 N   0  0  0  0  0  0  0  0  0  0  0  0
   -3.0253   -0.6547   -0.0862 C   0  0  0  0  0  0  0  0  0  0  0  0
   -1.5985   -1.0094   -0.4038 C   0  0  0  0  0  0  0  0  0  0  0  0
   -0.6511    0.1275   -0.0176 C   0  0  0  0  0  0  0  0  0  0  0  0
    0.7173   -0.2313   -0.3793 N   0  0  0  0  0  0  0  0  0  0  0  0
    1.6750    0.7585   -0.1226 C   0  0  0  0  0  0  0  0  0  0  0  0
    1.3550    2.0728   -0.2111 N   0  0  0  0  0  0  0  0  0  0  0  0
    2.3097    2.9936    0.0172 C   0  0  0  0  0  0  0  0  0  0  0  0
    3.5931    2.7848    0.3406 N   0  0  0  0  0  0  0  0  0  0  0  0
    3.8737    1.4747    0.4231 C   0  0  0  0  0  0  0  0  0  0  0  0
    3.0034    0.4190    0.2150 C   0  0  0  0  0  0  0  0  0  0  0  0
    3.5626   -0.8466    0.3810 N   0  0  0  0  0  0  0  0  0  0  0  0
    4.8454   -0.7297    0.6948 C   0  0  0  0  0  0  0  0  0  0  0  0
    5.8076   -1.8575    0.9479 C   0  0  0  0  0  0  0  0  0  0  0  0
    6.3383   -1.8061    2.1996 F   0  0  0  0  0  0  0  0  0  0  0  0
    5.2237   -3.0797    0.8278 F   0  0  0  0  0  0  0  0  0  0  0  0
    6.8545   -1.8430    0.0795 F   0  0  0  0  0  0  0  0  0  0  0  0
    5.4247    0.8961    0.8176 S   0  0  0  0  0  0  0  0  0  0  0  0
   -4.2602    0.7823   -2.9572 H   0  0  0  0  0  0  0  0  0  0  0  0
   -3.2372   -0.6602   -2.9632 H   0  0  0  0  0  0  0  0  0  0  0  0
   -2.5813    0.9120   -2.4224 H   0  0  0  0  0  0  0  0  0  0  0  0
   -6.5704    0.2585    0.8270 H   0  0  0  0  0  0  0  0  0  0  0  0
   -5.0261   -0.8139    2.4996 H   0  0  0  0  0  0  0  0  0  0  0  0
   -1.3279   -1.9176    0.1509 H   0  0  0  0  0  0  0  0  0  0  0  0
   -1.4840   -1.2701   -1.4621 H   0  0  0  0  0  0  0  0  0  0  0  0
   -0.9568    1.0433   -0.5386 H   0  0  0  0  0  0  0  0  0  0  0  0
   -0.7155    0.3197    1.0613 H   0  0  0  0  0  0  0  0  0  0  0  0
    1.0423   -1.1224   -0.0047 H   0  0  0  0  0  0  0  0  0  0  0  0
    2.0000    4.0311   -0.0716 H   0  0  0  0  0  0  0  0  0  0  0  0
  1  2  1  0
  2  3  1  0
  3  4  2  0
  4  5  1  0
  5  6  2  0
  6  7  1  0
  7  8  1  0
  8  9  1  0
  9 10  1  0
 10 11  1  0
 11 12  1  0
 12 13  2  0
 13 14  1  0
 14 15  2  0
 15 16  1  0
 16 17  1  0
 17 18  2  0
 18 19  1  0
 19 20  1  0
 19 21  1  0
 19 22  1  0
 18 23  1  0
  7  2  2  0
 16 11  2  0
 23 15  1  0
  1 24  1  0
  1 25  1  0
  1 26  1  0
  4 27  1  0
  5 28  1  0
  8 29  1  0
  8 30  1  0
  9 31  1  0
  9 32  1  0
 10 33  1  0
 13 34  1  0
M  END
$$$$
OCNT-2309995
     RDKit          3D

 57 60  0  0  0  0  0  0  0  0999 V2000
   -1.2768   -1.7885   -2.3504 C   0  0  0  0  0  0  0  0  0  0  0  0
   -2.3070   -1.2444   -1.5226 O   0  0  0  0  0  0  0  0  0  0  0  0
   -1.9182   -0.1553   -0.8023 C   0  0  0  0  0  0  0  0  0  0  0  0
   -0.8083    0.3617   -0.8714 O   0  0  0  0  0  0  0  0  0  0  0  0
   -2.9467    0.3497    0.0913 C   0  0  0  0  0  0  0  0  0  0  0  0
   -4.3097    0.0939    0.0819 C   0  0  0  0  0  0  0  0  0  0  0  0
   -5.1819   -0.7484   -0.7886 C   0  0  0  0  0  0  0  0  0  0  0  0
   -6.6624   -0.3790   -0.6502 C   0  0  0  0  0  0  0  0  0  0  0  0
   -7.0556   -0.2204    0.8190 C   0  0  0  0  0  0  0  0  0  0  0  0
   -6.2342    0.8842    1.4817 C   0  0  0  0  0  0  0  0  0  0  0  0
   -4.8282    0.8004    1.1316 N   0  0  0  0  0  0  0  0  0  0  0  0
   -3.9184    1.4954    1.8259 N   0  0  0  0  0  0  0  0  0  0  0  0
   -2.7607    1.2433    1.1957 C   0  0  0  0  0  0  0  0  0  0  0  0
   -1.4726    1.8137    1.7310 C   0  0  0  0  0  0  0  0  0  0  0  0
   -0.7589    2.5555    0.6785 N   0  0  0  0  0  0  0  0  0  0  0  0
    0.7265    3.2137    1.1049 S   0  0  0  0  0  0  0  0  0  0  0  0
    0.5755    3.9040    2.3662 O   0  0  0  0  0  0  0  0  0  0  0  0
    1.2717    3.8659   -0.0638 O   0  0  0  0  0  0  0  0  0  0  0  0
    1.7292    1.7700    1.3952 C   0  0  0  0  0  0  0  0  0  0  0  0
    2.1588    1.4614    2.6918 C   0  0  0  0  0  0  0  0  0  0  0  0
    2.9342    0.3193    2.9052 C   0  0  0  0  0  0  0  0  0  0  0  0
    3.2796   -0.4966    1.8286 C   0  0  0  0  0  0  0  0  0  0  0  0
    4.0043   -1.5990    2.0658 F   0  0  0  0  0  0  0  0  0  0  0  0
    2.8720   -0.1711    0.5359 C   0  0  0  0  0  0  0  0  0  0  0  0
    3.1947   -1.0487   -0.6004 C   0  0  0  0  0  0  0  0  0  0  0  0
    2.2633   -1.5843   -1.1965 O   0  0  0  0  0  0  0  0  0  0  0  0
    4.5171   -1.1925   -0.9635 N   0  0  0  0  0  0  0  0  0  0  0  0
    5.6695   -0.4823   -0.4255 C   0  0  0  0  0  0  0  0  0  0  0  0
    6.7643   -0.7053   -1.4601 C   0  0  0  0  0  0  0  0  0  0  0  0
    6.4141   -2.0720   -2.0357 C   0  0  0  0  0  0  0  0  0  0  0  0
    4.8939   -2.0380   -2.0817 C   0  0  0  0  0  0  0  0  0  0  0  0
    2.0891    0.9643    0.3097 C   0  0  0  0  0  0  0  0  0  0  0  0
   -0.9151   -1.0398   -3.0623 H   0  0  0  0  0  0  0  0  0  0  0  0
   -1.7028   -2.6232   -2.9140 H   0  0  0  0  0  0  0  0  0  0  0  0
   -0.4575   -2.1700   -1.7338 H   0  0  0  0  0  0  0  0  0  0  0  0
   -5.0422   -1.8001   -0.5103 H   0  0  0  0  0  0  0  0  0  0  0  0
   -4.8877   -0.6456   -1.8389 H   0  0  0  0  0  0  0  0  0  0  0  0
   -6.8595    0.5615   -1.1805 H   0  0  0  0  0  0  0  0  0  0  0  0
   -7.2796   -1.1500   -1.1247 H   0  0  0  0  0  0  0  0  0  0  0  0
   -6.8876   -1.1702    1.3424 H   0  0  0  0  0  0  0  0  0  0  0  0
   -8.1232    0.0103    0.9046 H   0  0  0  0  0  0  0  0  0  0  0  0
   -6.3178    0.8251    2.5719 H   0  0  0  0  0  0  0  0  0  0  0  0
   -6.5771    1.8714    1.1524 H   0  0  0  0  0  0  0  0  0  0  0  0
   -0.8642    0.9776    2.0911 H   0  0  0  0  0  0  0  0  0  0  0  0
   -1.6840    2.4814    2.5734 H   0  0  0  0  0  0  0  0  0  0  0  0
   -0.6728    2.0297   -0.1992 H   0  0  0  0  0  0  0  0  0  0  0  0
    1.8911    2.0962    3.5350 H   0  0  0  0  0  0  0  0  0  0  0  0
    3.2662    0.0552    3.9056 H   0  0  0  0  0  0  0  0  0  0  0  0
    5.9376   -0.9444    0.5301 H   0  0  0  0  0  0  0  0  0  0  0  0
    5.4471    0.5767   -0.2682 H   0  0  0  0  0  0  0  0  0  0  0  0
    6.6978    0.0556   -2.2471 H   0  0  0  0  0  0  0  0  0  0  0  0
    7.7678   -0.6659   -1.0279 H   0  0  0  0  0  0  0  0  0  0  0  0
    6.7526   -2.8596   -1.3517 H   0  0  0  0  0  0  0  0  0  0  0  0
    6.8621   -2.2519   -3.0166 H   0  0  0  0  0  0  0  0  0  0  0  0
    4.4406   -3.0297   -1.9905 H   0  0  0  0  0  0  0  0  0  0  0  0
    4.5316   -1.5644   -3.0012 H   0  0  0  0  0  0  0  0  0  0  0  0
    1.7586    1.2036   -0.6995 H   0  0  0  0  0  0  0  0  0  0  0  0
  1  2  1  0
  2  3  1  0
  3  4  2  0
  3  5  1  0
  5  6  2  0
  6  7  1  0
  7  8  1  0
  8  9  1  0
  9 10  1  0
 10 11  1  0
 11 12  1  0
 12 13  2  0
 13 14  1  0
 14 15  1  0
 15 16  1  0
 16 17  2  0
 16 18  2  0
 16 19  1  0
 19 20  1  0
 20 21  2  0
 21 22  1  0
 22 23  1  0
 22 24  2  0
 24 25  1  0
 25 26  2  0
 25 27  1  0
 27 28  1  0
 28 29  1  0
 29 30  1  0
 30 31  1  0
 24 32  1  0
 13  5  1  0
 32 19  2  0
 11  6  1  0
 31 27  1  0
  1 33  1  0
  1 34  1  0
  1 35  1  0
  7 36  1  0
  7 37  1  0
  8 38  1  0
  8 39  1  0
  9 40  1  0
  9 41  1  0
 10 42  1  0
 10 43  1  0
 14 44  1  0
 14 45  1  0
 15 46  1  0
 20 47  1  0
 21 48  1  0
 28 49  1  0
 28 50  1  0
 29 51  1  0
 29 52  1  0
 30 53  1  0
 30 54  1  0
 31 55  1  0
 31 56  1  0
 32 57  1  0
M  END
$$$$
OCNT-2310008
     RDKit          3D

 41 45  0  0  0  0  0  0  0  0999 V2000
   -2.6632   -3.6336   -0.2928 F   0  0  0  0  0  0  0  0  0  0  0  0
   -3.0041   -2.6623    0.5854 C   0  0  0  0  0  0  0  0  0  0  0  0
   -2.5887   -3.0429    1.8156 F   0  0  0  0  0  0  0  0  0  0  0  0
   -4.3574   -2.6029    0.6164 F   0  0  0  0  0  0  0  0  0  0  0  0
   -2.4036   -1.3361    0.1926 C   0  0  0  0  0  0  0  0  0  0  0  0
   -0.8391   -1.4010    0.1487 C   0  0  0  0  0  0  0  0  0  0  0  0
   -0.0814   -0.3773   -0.1788 N   0  0  0  0  0  0  0  0  0  0  0  0
    1.1888   -0.8954   -0.0761 C   0  0  0  0  0  0  0  0  0  0  0  0
    2.3778   -0.0742   -0.3603 C   0  0  0  0  0  0  0  0  0  0  0  0
    2.3388    1.2158   -0.7371 N   0  0  0  0  0  0  0  0  0  0  0  0
    3.6326    1.5478   -0.8839 N   0  0  0  0  0  0  0  0  0  0  0  0
    4.4873    0.5235   -0.6091 C   0  0  0  0  0  0  0  0  0  0  0  0
    6.0269    0.5665   -0.6951 C   0  0  0  0  0  0  0  0  0  0  0  0
    6.7701    1.6247    0.0755 C   0  0  0  0  0  0  0  0  0  0  0  0
    6.8364    0.1924    0.5173 C   0  0  0  0  0  0  0  0  0  0  0  0
    3.7080   -0.5542   -0.2707 C   0  0  0  0  0  0  0  0  0  0  0  0
    1.2309   -2.1828    0.2983 N   0  0  0  0  0  0  0  0  0  0  0  0
   -0.1123   -2.5206    0.4479 O   0  0  0  0  0  0  0  0  0  0  0  0
   -3.0218   -0.6996   -1.0967 C   0  0  0  0  0  0  0  0  0  0  0  0
   -3.7299    0.2916   -0.2132 C   0  0  0  0  0  0  0  0  0  0  0  0
   -3.7612    1.7505   -0.6061 C   0  0  0  0  0  0  0  0  0  0  0  0
   -5.1748    1.8013    0.0261 C   0  0  0  0  0  0  0  0  0  0  0  0
   -5.2411    0.2608   -0.1270 C   0  0  0  0  0  0  0  0  0  0  0  0
   -2.9363   -0.1113    1.0083 C   0  0  0  0  0  0  0  0  0  0  0  0
    3.8612    2.4927   -1.1730 H   0  0  0  0  0  0  0  0  0  0  0  0
    6.4326    0.2812   -1.6616 H   0  0  0  0  0  0  0  0  0  0  0  0
    6.2158    2.3134    0.7025 H   0  0  0  0  0  0  0  0  0  0  0  0
    7.6546    2.0560   -0.3791 H   0  0  0  0  0  0  0  0  0  0  0  0
    7.7632   -0.3475    0.3594 H   0  0  0  0  0  0  0  0  0  0  0  0
    6.3186   -0.0796    1.4304 H   0  0  0  0  0  0  0  0  0  0  0  0
    4.0403   -1.5454    0.0042 H   0  0  0  0  0  0  0  0  0  0  0  0
   -2.2983   -0.2478   -1.7854 H   0  0  0  0  0  0  0  0  0  0  0  0
   -3.6684   -1.3620   -1.6819 H   0  0  0  0  0  0  0  0  0  0  0  0
   -3.7651    1.9269   -1.6879 H   0  0  0  0  0  0  0  0  0  0  0  0
   -3.0183    2.4064   -0.1449 H   0  0  0  0  0  0  0  0  0  0  0  0
   -5.9246    2.3659   -0.5337 H   0  0  0  0  0  0  0  0  0  0  0  0
   -5.1771    2.1387    1.0690 H   0  0  0  0  0  0  0  0  0  0  0  0
   -5.7412   -0.0604   -1.0478 H   0  0  0  0  0  0  0  0  0  0  0  0
   -5.6833   -0.2722    0.7186 H   0  0  0  0  0  0  0  0  0  0  0  0
   -2.1708    0.6140    1.3082 H   0  0  0  0  0  0  0  0  0  0  0  0
   -3.5219   -0.3610    1.8995 H   0  0  0  0  0  0  0  0  0  0  0  0
  1  2  1  0
  2  3  1  0
  2  4  1  0
  2  5  1  0
  5  6  1  0
  6  7  2  0
  7  8  1  0
  8  9  1  0
  9 10  2  0
 10 11  1  0
 11 12  1  0
 12 13  1  0
 13 14  1  0
 14 15  1  0
 12 16  2  0
  8 17  2  0
 17 18  1  0
  5 19  1  0
 19 20  1  0
 20 21  1  0
 21 22  1  0
 22 23  1  0
 20 24  1  0
 24  5  1  0
 18  6  1  0
 23 20  1  0
 16  9  1  0
 15 13  1  0
 11 25  1  0
 13 26  1  0
 14 27  1  0
 14 28  1  0
 15 29  1  0
 15 30  1  0
 16 31  1  0
 19 32  1  0
 19 33  1  0
 21 34  1  0
 21 35  1  0
 22 36  1  0
 22 37  1  0
 23 38  1  0
 23 39  1  0
 24 40  1  0
 24 41  1  0
M  END
$$$$
OCNT-2310018
     RDKit          3D

 40 43  0  0  0  0  0  0  0  0999 V2000
   -6.5032   -0.3249   -1.0929 O   0  0  0  0  0  0  0  0  0  0  0  0
   -5.2443   -0.4211   -0.5796 C   0  0  0  0  0  0  0  0  0  0  0  0
   -5.0333   -1.3197    0.4507 C   0  0  0  0  0  0  0  0  0  0  0  0
   -3.7561   -1.4520    0.9920 C   0  0  0  0  0  0  0  0  0  0  0  0
   -2.6717   -0.6923    0.5069 C   0  0  0  0  0  0  0  0  0  0  0  0
   -1.3230   -0.9223    1.1583 C   0  0  0  0  0  0  0  0  0  0  0  0
   -0.1155   -0.7966    0.2251 C   0  0  0  0  0  0  0  0  0  0  0  0
    0.3244    0.5947    0.0409 N   0  0  0  0  0  0  0  0  0  0  0  0
    1.5282    1.0143    0.6095 C   0  0  0  0  0  0  0  0  0  0  0  0
    1.5293    2.0911    1.3665 N   0  0  0  0  0  0  0  0  0  0  0  0
    2.6997    2.5123    1.9575 C   0  0  0  0  0  0  0  0  0  0  0  0
    3.8750    1.8912    1.8038 C   0  0  0  0  0  0  0  0  0  0  0  0
    3.9301    0.7737    0.9962 N   0  0  0  0  0  0  0  0  0  0  0  0
    5.0063    0.0103    0.6885 N   0  0  0  0  0  0  0  0  0  0  0  0
    4.5495   -0.9059   -0.1882 C   0  0  0  0  0  0  0  0  0  0  0  0
    5.4404   -1.9456   -0.8146 C   0  0  0  0  0  0  0  0  0  0  0  0
    4.7383   -2.7803   -1.6321 F   0  0  0  0  0  0  0  0  0  0  0  0
    6.0462   -2.7384    0.1085 F   0  0  0  0  0  0  0  0  0  0  0  0
    6.4216   -1.3987   -1.5795 F   0  0  0  0  0  0  0  0  0  0  0  0
    3.1597   -0.7376   -0.4178 C   0  0  0  0  0  0  0  0  0  0  0  0
    2.7867    0.3208    0.3772 C   0  0  0  0  0  0  0  0  0  0  0  0
   -0.7385    1.5998   -0.1301 C   0  0  0  0  0  0  0  0  0  0  0  0
   -1.8301    1.1461   -1.1012 C   0  0  0  0  0  0  0  0  0  0  0  0
   -2.9035    0.2511   -0.5144 C   0  0  0  0  0  0  0  0  0  0  0  0
   -4.1985    0.3573   -1.0648 C   0  0  0  0  0  0  0  0  0  0  0  0
   -6.5020    0.3433   -1.7973 H   0  0  0  0  0  0  0  0  0  0  0  0
   -5.8560   -1.9181    0.8307 H   0  0  0  0  0  0  0  0  0  0  0  0
   -3.6094   -2.1658    1.8009 H   0  0  0  0  0  0  0  0  0  0  0  0
   -1.3091   -1.9480    1.5510 H   0  0  0  0  0  0  0  0  0  0  0  0
   -1.2254   -0.2542    2.0229 H   0  0  0  0  0  0  0  0  0  0  0  0
   -0.3190   -1.2489   -0.7530 H   0  0  0  0  0  0  0  0  0  0  0  0
    0.6925   -1.3872    0.6714 H   0  0  0  0  0  0  0  0  0  0  0  0
    2.6231    3.3992    2.5807 H   0  0  0  0  0  0  0  0  0  0  0  0
    4.7975    2.2125    2.2652 H   0  0  0  0  0  0  0  0  0  0  0  0
    2.5279   -1.3140   -1.0795 H   0  0  0  0  0  0  0  0  0  0  0  0
   -1.1643    1.8867    0.8396 H   0  0  0  0  0  0  0  0  0  0  0  0
   -0.2820    2.5015   -0.5593 H   0  0  0  0  0  0  0  0  0  0  0  0
   -2.3181    2.0580   -1.4710 H   0  0  0  0  0  0  0  0  0  0  0  0
   -1.3925    0.6458   -1.9740 H   0  0  0  0  0  0  0  0  0  0  0  0
   -4.3807    1.0619   -1.8723 H   0  0  0  0  0  0  0  0  0  0  0  0
  1  2  1  0
  2  3  1  0
  3  4  2  0
  4  5  1  0
  5  6  1  0
  6  7  1  0
  7  8  1  0
  8  9  1  0
  9 10  2  0
 10 11  1  0
 11 12  2  0
 12 13  1  0
 13 14  1  0
 14 15  2  0
 15 16  1  0
 16 17  1  0
 16 18  1  0
 16 19  1  0
 15 20  1  0
 20 21  2  0
  8 22  1  0
 22 23  1  0
 23 24  1  0
 24 25  1  0
 25  2  2  0
 24  5  2  0
 21  9  1  0
 21 13  1  0
  1 26  1  0
  3 27  1  0
  4 28  1  0
  6 29  1  0
  6 30  1  0
  7 31  1  0
  7 32  1  0
 11 33  1  0
 12 34  1  0
 20 35  1  0
 22 36  1  0
 22 37  1  0
 23 38  1  0
 23 39  1  0
 25 40  1  0
M  END
$$$$
OCNT-2310022
     RDKit          3D

 42 45  0  0  0  0  0  0  0  0999 V2000
    5.5225    1.9815    0.1849 C   0  0  0  0  0  0  0  0  0  0  0  0
    4.6142    0.7510    0.0859 C   0  0  0  0  0  0  0  0  0  0  0  0
    4.8791   -0.1691    1.2879 C   0  0  0  0  0  0  0  0  0  0  0  0
    3.2717    1.2366    0.1965 O   0  0  0  0  0  0  0  0  0  0  0  0
    2.3210    0.4612   -0.4100 C   0  0  0  0  0  0  0  0  0  0  0  0
    0.9951    0.7056   -0.0492 C   0  0  0  0  0  0  0  0  0  0  0  0
   -0.0577   -0.0189   -0.6334 C   0  0  0  0  0  0  0  0  0  0  0  0
   -1.4563    0.2339   -0.2489 C   0  0  0  0  0  0  0  0  0  0  0  0
   -1.9951    1.5294   -0.2933 C   0  0  0  0  0  0  0  0  0  0  0  0
   -3.3208    1.7744    0.0767 C   0  0  0  0  0  0  0  0  0  0  0  0
   -4.1417    0.7262    0.5060 C   0  0  0  0  0  0  0  0  0  0  0  0
   -5.5821    0.9931    0.8763 C   0  0  0  0  0  0  0  0  0  0  0  0
   -6.1964   -0.0866    1.5902 O   0  0  0  0  0  0  0  0  0  0  0  0
   -5.9714   -1.3356    0.9352 C   0  0  0  0  0  0  0  0  0  0  0  0
   -4.4948   -1.7074    1.0307 C   0  0  0  0  0  0  0  0  0  0  0  0
   -3.6259   -0.5789    0.5380 C   0  0  0  0  0  0  0  0  0  0  0  0
   -2.2909   -0.8133    0.1754 C   0  0  0  0  0  0  0  0  0  0  0  0
    0.2630   -0.9884   -1.6002 C   0  0  0  0  0  0  0  0  0  0  0  0
    1.5893   -1.2263   -1.9753 C   0  0  0  0  0  0  0  0  0  0  0  0
    2.6148   -0.5010   -1.3752 C   0  0  0  0  0  0  0  0  0  0  0  0
    3.9334   -0.7111   -1.7742 N   0  0  0  0  0  0  0  0  0  0  0  0
    4.9728   -0.0288   -1.2009 C   0  0  0  0  0  0  0  0  0  0  0  0
    6.1113   -0.1278   -1.6541 O   0  0  0  0  0  0  0  0  0  0  0  0
    5.3573    2.6486   -0.6694 H   0  0  0  0  0  0  0  0  0  0  0  0
    6.5839    1.7118    0.2014 H   0  0  0  0  0  0  0  0  0  0  0  0
    5.2989    2.5645    1.0858 H   0  0  0  0  0  0  0  0  0  0  0  0
    5.9180   -0.5161    1.3092 H   0  0  0  0  0  0  0  0  0  0  0  0
    4.2345   -1.0551    1.2596 H   0  0  0  0  0  0  0  0  0  0  0  0
    4.6623    0.3458    2.2308 H   0  0  0  0  0  0  0  0  0  0  0  0
    0.7864    1.4614    0.7052 H   0  0  0  0  0  0  0  0  0  0  0  0
   -1.3823    2.3646   -0.6278 H   0  0  0  0  0  0  0  0  0  0  0  0
   -3.7065    2.7904    0.0280 H   0  0  0  0  0  0  0  0  0  0  0  0
   -6.1656    1.1888   -0.0309 H   0  0  0  0  0  0  0  0  0  0  0  0
   -5.6427    1.8761    1.5210 H   0  0  0  0  0  0  0  0  0  0  0  0
   -6.5787   -2.0952    1.4378 H   0  0  0  0  0  0  0  0  0  0  0  0
   -6.3117   -1.2742   -0.1062 H   0  0  0  0  0  0  0  0  0  0  0  0
   -4.2311   -1.8975    2.0781 H   0  0  0  0  0  0  0  0  0  0  0  0
   -4.3088   -2.6194    0.4532 H   0  0  0  0  0  0  0  0  0  0  0  0
   -1.8938   -1.8250    0.2397 H   0  0  0  0  0  0  0  0  0  0  0  0
   -0.5296   -1.5565   -2.0845 H   0  0  0  0  0  0  0  0  0  0  0  0
    1.8012   -1.9731   -2.7351 H   0  0  0  0  0  0  0  0  0  0  0  0
    4.1530   -1.3012   -2.5651 H   0  0  0  0  0  0  0  0  0  0  0  0
  1  2  1  0
  2  3  1  0
  2  4  1  0
  4  5  1  0
  5  6  1  0
  6  7  2  0
  7  8  1  0
  8  9  1  0
  9 10  2  0
 10 11  1  0
 11 12  1  0
 12 13  1  0
 13 14  1  0
 14 15  1  0
 15 16  1  0
 16 17  1  0
  7 18  1  0
 18 19  2  0
 19 20  1  0
 20 21  1  0
 21 22  1  0
 22 23  2  0
 22  2  1  0
 20  5  2  0
 17  8  2  0
 16 11  2  0
  1 24  1  0
  1 25  1  0
  1 26  1  0
  3 27  1  0
  3 28  1  0
  3 29  1  0
  6 30  1  0
  9 31  1  0
 10 32  1  0
 12 33  1  0
 12 34  1  0
 14 35  1  0
 14 36  1  0
 15 37  1  0
 15 38  1  0
 17 39  1  0
 18 40  1  0
 19 41  1  0
 21 42  1  0
M  END
$$$$
OCNT-2310028
     RDKit          3D

 45 47  0  0  0  0  0  0  0  0999 V2000
    8.2430   -0.8244    0.4019 C   0  0  0  0  0  0  0  0  0  0  0  0
    6.8077   -1.0488    0.1080 C   0  0  0  0  0  0  0  0  0  0  0  0
    5.7282   -0.2075    0.3366 C   0  0  0  0  0  0  0  0  0  0  0  0
    5.7481    1.1798    0.8664 C   0  0  0  0  0  0  0  0  0  0  0  0
    4.6118   -0.9051   -0.1207 N   0  0  0  0  0  0  0  0  0  0  0  0
    3.2287   -0.5529   -0.0783 C   0  0  0  0  0  0  0  0  0  0  0  0
    2.7274    0.3321    0.8799 C   0  0  0  0  0  0  0  0  0  0  0  0
    1.3626    0.6510    0.9082 C   0  0  0  0  0  0  0  0  0  0  0  0
    0.4718    0.0888   -0.0116 C   0  0  0  0  0  0  0  0  0  0  0  0
   -0.8830    0.4693    0.0835 N   0  0  0  0  0  0  0  0  0  0  0  0
   -1.9440   -0.0182   -0.6586 C   0  0  0  0  0  0  0  0  0  0  0  0
   -1.9086   -0.9234   -1.4834 O   0  0  0  0  0  0  0  0  0  0  0  0
   -3.2622    0.6126   -0.3640 C   0  0  0  0  0  0  0  0  0  0  0  0
   -3.3770    1.9665   -0.0314 C   0  0  0  0  0  0  0  0  0  0  0  0
   -4.6340    2.5046    0.2409 C   0  0  0  0  0  0  0  0  0  0  0  0
   -5.7761    1.7005    0.1705 C   0  0  0  0  0  0  0  0  0  0  0  0
   -5.6772    0.3545   -0.1880 C   0  0  0  0  0  0  0  0  0  0  0  0
   -6.7823   -0.5123   -0.2900 N   0  0  0  0  0  0  0  0  0  0  0  0
   -8.1084   -0.1946   -0.1713 C   0  0  0  0  0  0  0  0  0  0  0  0
   -8.9035   -1.2998   -0.2759 N   0  0  0  0  0  0  0  0  0  0  0  0
   -8.6170    0.9028    0.0001 O   0  0  0  0  0  0  0  0  0  0  0  0
   -4.4133   -0.1837   -0.4552 C   0  0  0  0  0  0  0  0  0  0  0  0
    0.9694   -0.7988   -0.9627 C   0  0  0  0  0  0  0  0  0  0  0  0
    2.3331   -1.1241   -0.9938 C   0  0  0  0  0  0  0  0  0  0  0  0
    5.1100   -2.0795   -0.6506 C   0  0  0  0  0  0  0  0  0  0  0  0
    6.4087   -2.1984   -0.5116 N   0  0  0  0  0  0  0  0  0  0  0  0
    8.6525   -0.0577   -0.2629 H   0  0  0  0  0  0  0  0  0  0  0  0
    8.8200   -1.7435    0.2596 H   0  0  0  0  0  0  0  0  0  0  0  0
    8.3786   -0.4972    1.4374 H   0  0  0  0  0  0  0  0  0  0  0  0
    5.5198    1.1900    1.9362 H   0  0  0  0  0  0  0  0  0  0  0  0
    5.0467    1.8285    0.3335 H   0  0  0  0  0  0  0  0  0  0  0  0
    6.7408    1.6267    0.7429 H   0  0  0  0  0  0  0  0  0  0  0  0
    3.3533    0.7563    1.6564 H   0  0  0  0  0  0  0  0  0  0  0  0
    1.0097    1.3367    1.6748 H   0  0  0  0  0  0  0  0  0  0  0  0
   -1.1025    1.1209    0.8252 H   0  0  0  0  0  0  0  0  0  0  0  0
   -2.5101    2.6206   -0.0095 H   0  0  0  0  0  0  0  0  0  0  0  0
   -4.7353    3.5569    0.4975 H   0  0  0  0  0  0  0  0  0  0  0  0
   -6.7358    2.1600    0.3906 H   0  0  0  0  0  0  0  0  0  0  0  0
   -6.5980   -1.4507   -0.6140 H   0  0  0  0  0  0  0  0  0  0  0  0
   -9.8770   -1.0815   -0.0970 H   0  0  0  0  0  0  0  0  0  0  0  0
   -8.5844   -2.1311    0.2001 H   0  0  0  0  0  0  0  0  0  0  0  0
   -4.3073   -1.2293   -0.7371 H   0  0  0  0  0  0  0  0  0  0  0  0
    0.3246   -1.2548   -1.7082 H   0  0  0  0  0  0  0  0  0  0  0  0
    2.6621   -1.8026   -1.7771 H   0  0  0  0  0  0  0  0  0  0  0  0
    4.4785   -2.8391   -1.0897 H   0  0  0  0  0  0  0  0  0  0  0  0
  1  2  1  0
  2  3  2  0
  3  4  1  0
  3  5  1  0
  5  6  1  0
  6  7  1  0
  7  8  2  0
  8  9  1  0
  9 10  1  0
 10 11  1  0
 11 12  2  0
 11 13  1  0
 13 14  1  0
 14 15  2  0
 15 16  1  0
 16 17  2  0
 17 18  1  0
 18 19  1  0
 19 20  1  0
 19 21  2  0
 17 22  1  0
  9 23  2  0
 23 24  1  0
  5 25  1  0
 25 26  2  0
 26  2  1  0
 24  6  2  0
 22 13  2  0
  1 27  1  0
  1 28  1  0
  1 29  1  0
  4 30  1  0
  4 31  1  0
  4 32  1  0
  7 33  1  0
  8 34  1  0
 10 35  1  0
 14 36  1  0
 15 37  1  0
 16 38  1  0
 18 39  1  0
 20 40  1  0
 20 41  1  0
 22 42  1  0
 23 43  1  0
 24 44  1  0
 25 45  1  0
M  END
$$$$
OCNT-2310035
     RDKit          3D

 34 36  0  0  0  0  0  0  0  0999 V2000
    0.7706   -0.6469    2.0053 O   0  0  0  0  0  0  0  0  0  0  0  0
    0.5218   -0.8410    0.8187 C   0  0  0  0  0  0  0  0  0  0  0  0
    1.4346   -0.6990   -0.2036 N   0  0  0  0  0  0  0  0  0  0  0  0
    2.7203   -0.1264   -0.1236 C   0  0  0  0  0  0  0  0  0  0  0  0
    3.1573    0.6479    0.9566 C   0  0  0  0  0  0  0  0  0  0  0  0
    4.4439    1.2020    0.9644 C   0  0  0  0  0  0  0  0  0  0  0  0
    5.2983    0.9901   -0.1142 C   0  0  0  0  0  0  0  0  0  0  0  0
    6.8761    1.6754   -0.0986 Cl  0  0  0  0  0  0  0  0  0  0  0  0
    4.8615    0.2300   -1.1948 C   0  0  0  0  0  0  0  0  0  0  0  0
    5.6616    0.0154   -2.2501 F   0  0  0  0  0  0  0  0  0  0  0  0
    3.5821   -0.3239   -1.2075 C   0  0  0  0  0  0  0  0  0  0  0  0
   -0.7320   -1.2822    0.3987 N   0  0  0  0  0  0  0  0  0  0  0  0
   -1.7205   -1.5923    1.4282 C   0  0  0  0  0  0  0  0  0  0  0  0
   -2.5822   -0.3646    1.7224 C   0  0  0  0  0  0  0  0  0  0  0  0
   -3.1181    0.2321    0.4470 C   0  0  0  0  0  0  0  0  0  0  0  0
   -4.2076    1.0953    0.4704 C   0  0  0  0  0  0  0  0  0  0  0  0
   -4.7299    1.6823   -0.6283 N   0  0  0  0  0  0  0  0  0  0  0  0
   -4.1317    1.4083   -1.8057 C   0  0  0  0  0  0  0  0  0  0  0  0
   -3.0327    0.5744   -1.9381 C   0  0  0  0  0  0  0  0  0  0  0  0
   -2.5013   -0.0216   -0.7904 C   0  0  0  0  0  0  0  0  0  0  0  0
   -1.3139   -0.9547   -0.9044 C   0  0  0  0  0  0  0  0  0  0  0  0
    1.2485   -1.2683   -1.0151 H   0  0  0  0  0  0  0  0  0  0  0  0
    2.5128    0.8465    1.8092 H   0  0  0  0  0  0  0  0  0  0  0  0
    4.7644    1.7975    1.8157 H   0  0  0  0  0  0  0  0  0  0  0  0
    3.2844   -0.9082   -2.0722 H   0  0  0  0  0  0  0  0  0  0  0  0
   -2.3374   -2.4194    1.0545 H   0  0  0  0  0  0  0  0  0  0  0  0
   -1.2323   -1.9414    2.3446 H   0  0  0  0  0  0  0  0  0  0  0  0
   -3.4066   -0.6539    2.3840 H   0  0  0  0  0  0  0  0  0  0  0  0
   -1.9853    0.3996    2.2347 H   0  0  0  0  0  0  0  0  0  0  0  0
   -4.7087    1.3473    1.4015 H   0  0  0  0  0  0  0  0  0  0  0  0
   -4.5734    1.8940   -2.6714 H   0  0  0  0  0  0  0  0  0  0  0  0
   -2.6033    0.4003   -2.9190 H   0  0  0  0  0  0  0  0  0  0  0  0
   -1.6477   -1.8979   -1.3522 H   0  0  0  0  0  0  0  0  0  0  0  0
   -0.5737   -0.4964   -1.5659 H   0  0  0  0  0  0  0  0  0  0  0  0
  1  2  2  0
  2  3  1  0
  3  4  1  0
  4  5  1  0
  5  6  2  0
  6  7  1  0
  7  8  1  0
  7  9  2  0
  9 10  1  0
  9 11  1  0
  2 12  1  0
 12 13  1  0
 13 14  1  0
 14 15  1  0
 15 16  2  0
 16 17  1  0
 17 18  2  0
 18 19  1  0
 19 20  2  0
 20 21  1  0
 11  4  2  0
 21 12  1  0
 20 15  1  0
  3 22  1  0
  5 23  1  0
  6 24  1  0
 11 25  1  0
 13 26  1  0
 13 27  1  0
 14 28  1  0
 14 29  1  0
 16 30  1  0
 18 31  1  0
 19 32  1  0
 21 33  1  0
 21 34  1  0
M  END
$$$$
OCNT-2310036
     RDKit          3D

 33 35  0  0  0  0  0  0  0  0999 V2000
    8.6606   -1.1430   -0.2456 N   0  0  0  0  0  0  0  0  0  0  0  0
    7.5184   -0.9373   -0.2472 C   0  0  0  0  0  0  0  0  0  0  0  0
    6.1094   -0.6729   -0.2534 C   0  0  0  0  0  0  0  0  0  0  0  0
    5.2013   -1.6786    0.0827 C   0  0  0  0  0  0  0  0  0  0  0  0
    3.8241   -1.4205    0.0764 C   0  0  0  0  0  0  0  0  0  0  0  0
    3.3389   -0.1558   -0.2636 C   0  0  0  0  0  0  0  0  0  0  0  0
    1.9701    0.1882   -0.2990 N   0  0  0  0  0  0  0  0  0  0  0  0
    0.8868   -0.6129    0.0436 C   0  0  0  0  0  0  0  0  0  0  0  0
    0.9738   -1.7570    0.4762 O   0  0  0  0  0  0  0  0  0  0  0  0
   -0.4246    0.0248   -0.1366 C   0  0  0  0  0  0  0  0  0  0  0  0
   -0.7364    1.1857   -0.8122 C   0  0  0  0  0  0  0  0  0  0  0  0
   -2.0794    1.3935   -0.7297 O   0  0  0  0  0  0  0  0  0  0  0  0
   -2.5445    0.3291   -0.0024 C   0  0  0  0  0  0  0  0  0  0  0  0
   -3.9814    0.2748    0.2515 C   0  0  0  0  0  0  0  0  0  0  0  0
   -4.5133   -0.7955    0.9872 C   0  0  0  0  0  0  0  0  0  0  0  0
   -5.8837   -0.8758    1.2471 C   0  0  0  0  0  0  0  0  0  0  0  0
   -6.7411    0.1147    0.7740 C   0  0  0  0  0  0  0  0  0  0  0  0
   -6.2302    1.1844    0.0417 C   0  0  0  0  0  0  0  0  0  0  0  0
   -4.8588    1.2642   -0.2182 C   0  0  0  0  0  0  0  0  0  0  0  0
   -1.5994   -0.5106    0.3703 N   0  0  0  0  0  0  0  0  0  0  0  0
    4.2566    0.8484   -0.6028 C   0  0  0  0  0  0  0  0  0  0  0  0
    5.6328    0.5937   -0.5974 C   0  0  0  0  0  0  0  0  0  0  0  0
    5.5513   -2.6737    0.3530 H   0  0  0  0  0  0  0  0  0  0  0  0
    3.1610   -2.2388    0.3423 H   0  0  0  0  0  0  0  0  0  0  0  0
    1.7722    1.1419   -0.5627 H   0  0  0  0  0  0  0  0  0  0  0  0
   -0.1859    1.9248   -1.3740 H   0  0  0  0  0  0  0  0  0  0  0  0
   -3.8546   -1.5779    1.3628 H   0  0  0  0  0  0  0  0  0  0  0  0
   -6.2784   -1.7123    1.8184 H   0  0  0  0  0  0  0  0  0  0  0  0
   -7.8075    0.0525    0.9758 H   0  0  0  0  0  0  0  0  0  0  0  0
   -6.8987    1.9577   -0.3284 H   0  0  0  0  0  0  0  0  0  0  0  0
   -4.4837    2.1084   -0.7924 H   0  0  0  0  0  0  0  0  0  0  0  0
    3.9185    1.8456   -0.8746 H   0  0  0  0  0  0  0  0  0  0  0  0
    6.3257    1.3903   -0.8628 H   0  0  0  0  0  0  0  0  0  0  0  0
  1  2  3  0
  2  3  1  0
  3  4  1  0
  4  5  2  0
  5  6  1  0
  6  7  1  0
  7  8  1  0
  8  9  2  0
  8 10  1  0
 10 11  2  0
 11 12  1  0
 12 13  1  0
 13 14  1  0
 14 15  2  0
 15 16  1  0
 16 17  2  0
 17 18  1  0
 18 19  2  0
 13 20  2  0
  6 21  2  0
 21 22  1  0
 22  3  2  0
 20 10  1  0
 19 14  1  0
  4 23  1  0
  5 24  1  0
  7 25  1  0
 11 26  1  0
 15 27  1  0
 16 28  1  0
 17 29  1  0
 18 30  1  0
 19 31  1  0
 21 32  1  0
 22 33  1  0
M  END
$$$$
OCNT-2310045
     RDKit          3D

 39 40  0  0  0  0  0  0  0  0999 V2000
   -3.6513   -0.7988    1.7526 C   0  0  0  0  0  0  0  0  0  0  0  0
   -3.9805   -0.1323    0.5403 O   0  0  0  0  0  0  0  0  0  0  0  0
   -3.1624   -0.3452   -0.5389 C   0  0  0  0  0  0  0  0  0  0  0  0
   -2.0528   -1.1973   -0.5439 C   0  0  0  0  0  0  0  0  0  0  0  0
   -1.2631   -1.3480   -1.6966 C   0  0  0  0  0  0  0  0  0  0  0  0
   -0.0593   -2.2634   -1.6818 C   0  0  0  0  0  0  0  0  0  0  0  0
    0.9583   -1.9332   -0.5964 C   0  0  0  0  0  0  0  0  0  0  0  0
    1.3543   -2.8169    0.1584 O   0  0  0  0  0  0  0  0  0  0  0  0
    1.3579   -0.6089   -0.6234 N   0  0  0  0  0  0  0  0  0  0  0  0
    2.2597   -0.0311    0.2420 C   0  0  0  0  0  0  0  0  0  0  0  0
    2.9505   -0.6668    1.1850 N   0  0  0  0  0  0  0  0  0  0  0  0
    3.6840    0.2817    1.7859 N   0  0  0  0  0  0  0  0  0  0  0  0
    4.5565   -0.1045    2.8728 C   0  0  0  0  0  0  0  0  0  0  0  0
    3.5045    1.5212    1.2426 C   0  0  0  0  0  0  0  0  0  0  0  0
    4.2166    2.7109    1.7296 C   0  0  0  0  0  0  0  0  0  0  0  0
    4.0086    3.7908    0.9355 F   0  0  0  0  0  0  0  0  0  0  0  0
    5.5571    2.5092    1.7828 F   0  0  0  0  0  0  0  0  0  0  0  0
    3.8197    3.0546    2.9799 F   0  0  0  0  0  0  0  0  0  0  0  0
    2.5775    1.3465    0.2341 C   0  0  0  0  0  0  0  0  0  0  0  0
   -1.6117   -0.6507   -2.8578 C   0  0  0  0  0  0  0  0  0  0  0  0
   -2.7195    0.1968   -2.8620 C   0  0  0  0  0  0  0  0  0  0  0  0
   -3.4987    0.3605   -1.7075 C   0  0  0  0  0  0  0  0  0  0  0  0
   -4.6936    1.2745   -1.7352 C   0  0  0  0  0  0  0  0  0  0  0  0
   -2.6679   -0.4872    2.1203 H   0  0  0  0  0  0  0  0  0  0  0  0
   -4.3931   -0.5116    2.5039 H   0  0  0  0  0  0  0  0  0  0  0  0
   -3.7057   -1.8854    1.6336 H   0  0  0  0  0  0  0  0  0  0  0  0
   -1.7778   -1.7596    0.3446 H   0  0  0  0  0  0  0  0  0  0  0  0
   -0.4088   -3.2929   -1.5363 H   0  0  0  0  0  0  0  0  0  0  0  0
    0.4662   -2.2374   -2.6446 H   0  0  0  0  0  0  0  0  0  0  0  0
    0.8954    0.0194   -1.2645 H   0  0  0  0  0  0  0  0  0  0  0  0
    5.5434   -0.3168    2.4552 H   0  0  0  0  0  0  0  0  0  0  0  0
    4.1499   -0.9958    3.3585 H   0  0  0  0  0  0  0  0  0  0  0  0
    4.6113    0.7074    3.6013 H   0  0  0  0  0  0  0  0  0  0  0  0
    2.1858    2.1172   -0.4160 H   0  0  0  0  0  0  0  0  0  0  0  0
   -1.0320   -0.7651   -3.7722 H   0  0  0  0  0  0  0  0  0  0  0  0
   -2.9780    0.7260   -3.7764 H   0  0  0  0  0  0  0  0  0  0  0  0
   -4.5953    2.0527   -0.9709 H   0  0  0  0  0  0  0  0  0  0  0  0
   -5.6105    0.7036   -1.5560 H   0  0  0  0  0  0  0  0  0  0  0  0
   -4.7950    1.7758   -2.7038 H   0  0  0  0  0  0  0  0  0  0  0  0
  1  2  1  0
  2  3  1  0
  3  4  1  0
  4  5  2  0
  5  6  1  0
  6  7  1  0
  7  8  2  0
  7  9  1  0
  9 10  1  0
 10 11  2  0
 11 12  1  0
 12 13  1  0
 12 14  1  0
 14 15  1  0
 15 16  1  0
 15 17  1  0
 15 18  1  0
 14 19  2  0
  5 20  1  0
 20 21  2  0
 21 22  1  0
 22 23  1  0
 22  3  2  0
 19 10  1  0
  1 24  1  0
  1 25  1  0
  1 26  1  0
  4 27  1  0
  6 28  1  0
  6 29  1  0
  9 30  1  0
 13 31  1  0
 13 32  1  0
 13 33  1  0
 19 34  1  0
 20 35  1  0
 21 36  1  0
 23 37  1  0
 23 38  1  0
 23 39  1  0
M  END
$$$$
OCNT-2310046
     RDKit          3D

 47 50  0  0  0  0  0  0  0  0999 V2000
    2.8817    1.2584    2.9536 C   0  0  0  0  0  0  0  0  0  0  0  0
    3.7509    0.3556    2.2796 O   0  0  0  0  0  0  0  0  0  0  0  0
    3.2323   -0.3282    1.2163 C   0  0  0  0  0  0  0  0  0  0  0  0
    4.1056   -1.2302    0.6170 C   0  0  0  0  0  0  0  0  0  0  0  0
    3.6946   -2.0068   -0.4748 C   0  0  0  0  0  0  0  0  0  0  0  0
    4.5090   -2.9245   -1.1053 O   0  0  0  0  0  0  0  0  0  0  0  0
    5.8174   -3.1191   -0.5884 C   0  0  0  0  0  0  0  0  0  0  0  0
    2.3944   -1.8883   -1.0017 C   0  0  0  0  0  0  0  0  0  0  0  0
    2.0043   -2.6495   -2.0397 N   0  0  0  0  0  0  0  0  0  0  0  0
    0.7544   -2.5018   -2.4817 C   0  0  0  0  0  0  0  0  0  0  0  0
   -0.1540   -1.6483   -2.0065 N   0  0  0  0  0  0  0  0  0  0  0  0
    0.2326   -0.8677   -0.9832 C   0  0  0  0  0  0  0  0  0  0  0  0
   -0.6857    0.0900   -0.4931 N   0  0  0  0  0  0  0  0  0  0  0  0
   -0.3946    1.4480   -1.0148 C   0  0  0  0  0  0  0  0  0  0  0  0
   -1.5975    2.0407   -1.7633 C   0  0  0  0  0  0  0  0  0  0  0  0
   -2.7847    2.0755   -0.9613 O   0  0  0  0  0  0  0  0  0  0  0  0
   -3.0262    0.8527   -0.2279 C   0  0  0  0  0  0  0  0  0  0  0  0
   -4.5059    0.4932   -0.3953 C   0  0  0  0  0  0  0  0  0  0  0  0
   -5.2474    1.4857    0.4979 C   0  0  0  0  0  0  0  0  0  0  0  0
   -4.2510    1.9129    1.5743 C   0  0  0  0  0  0  0  0  0  0  0  0
   -2.9514    1.1682    1.2714 C   0  0  0  0  0  0  0  0  0  0  0  0
   -2.0999   -0.3117   -0.6512 C   0  0  0  0  0  0  0  0  0  0  0  0
    1.5211   -0.9610   -0.4128 C   0  0  0  0  0  0  0  0  0  0  0  0
    1.9476   -0.1982    0.7047 C   0  0  0  0  0  0  0  0  0  0  0  0
    2.0208    0.7332    3.3806 H   0  0  0  0  0  0  0  0  0  0  0  0
    2.5624    2.0679    2.2890 H   0  0  0  0  0  0  0  0  0  0  0  0
    3.4415    1.7070    3.7798 H   0  0  0  0  0  0  0  0  0  0  0  0
    5.1055   -1.3126    1.0300 H   0  0  0  0  0  0  0  0  0  0  0  0
    6.3044   -3.8901   -1.1933 H   0  0  0  0  0  0  0  0  0  0  0  0
    6.4147   -2.2054   -0.6725 H   0  0  0  0  0  0  0  0  0  0  0  0
    5.7853   -3.4797    0.4450 H   0  0  0  0  0  0  0  0  0  0  0  0
    0.4509   -3.1334   -3.3091 H   0  0  0  0  0  0  0  0  0  0  0  0
   -0.1713    2.0852   -0.1510 H   0  0  0  0  0  0  0  0  0  0  0  0
    0.4822    1.4700   -1.6745 H   0  0  0  0  0  0  0  0  0  0  0  0
   -1.8111    1.4769   -2.6789 H   0  0  0  0  0  0  0  0  0  0  0  0
   -1.3762    3.0699   -2.0637 H   0  0  0  0  0  0  0  0  0  0  0  0
   -4.8447    0.5761   -1.4332 H   0  0  0  0  0  0  0  0  0  0  0  0
   -4.7033   -0.5278   -0.0466 H   0  0  0  0  0  0  0  0  0  0  0  0
   -6.1468    1.0358    0.9304 H   0  0  0  0  0  0  0  0  0  0  0  0
   -5.5656    2.3596   -0.0823 H   0  0  0  0  0  0  0  0  0  0  0  0
   -4.6148    1.6811    2.5805 H   0  0  0  0  0  0  0  0  0  0  0  0
   -4.0924    2.9964    1.5256 H   0  0  0  0  0  0  0  0  0  0  0  0
   -2.0864    1.7841    1.5371 H   0  0  0  0  0  0  0  0  0  0  0  0
   -2.9146    0.2460    1.8639 H   0  0  0  0  0  0  0  0  0  0  0  0
   -2.2992   -1.1988   -0.0369 H   0  0  0  0  0  0  0  0  0  0  0  0
   -2.3250   -0.5697   -1.6949 H   0  0  0  0  0  0  0  0  0  0  0  0
    1.2363    0.4827    1.1616 H   0  0  0  0  0  0  0  0  0  0  0  0
  1  2  1  0
  2  3  1  0
  3  4  1  0
  4  5  2  0
  5  6  1  0
  6  7  1  0
  5  8  1  0
  8  9  2  0
  9 10  1  0
 10 11  2  0
 11 12  1  0
 12 13  1  0
 13 14  1  0
 14 15  1  0
 15 16  1  0
 16 17  1  0
 17 18  1  0
 18 19  1  0
 19 20  1  0
 20 21  1  0
 17 22  1  0
 12 23  2  0
 23 24  1  0
 24  3  2  0
 23  8  1  0
 22 13  1  0
 21 17  1  0
  1 25  1  0
  1 26  1  0
  1 27  1  0
  4 28  1  0
  7 29  1  0
  7 30  1  0
  7 31  1  0
 10 32  1  0
 14 33  1  0
 14 34  1  0
 15 35  1  0
 15 36  1  0
 18 37  1  0
 18 38  1  0
 19 39  1  0
 19 40  1  0
 20 41  1  0
 20 42  1  0
 21 43  1  0
 21 44  1  0
 22 45  1  0
 22 46  1  0
 24 47  1  0
M  END
$$$$
OCNT-2310055
     RDKit          3D

 38 41  0  0  0  0  0  0  0  0999 V2000
    4.7829   -0.7566    1.4779 C   0  0  0  0  0  0  0  0  0  0  0  0
    3.8445   -0.5328    0.2910 C   0  0  0  0  0  0  0  0  0  0  0  0
    4.5770   -0.8450   -1.0201 C   0  0  0  0  0  0  0  0  0  0  0  0
    2.5523   -1.3709    0.4344 C   0  0  0  0  0  0  0  0  0  0  0  0
    1.5390   -0.3425    0.1064 C   0  0  0  0  0  0  0  0  0  0  0  0
    0.1743   -0.4841   -0.0880 C   0  0  0  0  0  0  0  0  0  0  0  0
   -0.6008    0.6607   -0.3467 C   0  0  0  0  0  0  0  0  0  0  0  0
   -2.0473    0.5528   -0.5593 C   0  0  0  0  0  0  0  0  0  0  0  0
   -2.6184    0.8360   -1.8153 C   0  0  0  0  0  0  0  0  0  0  0  0
   -4.0068    0.7405   -2.0367 C   0  0  0  0  0  0  0  0  0  0  0  0
   -4.8668    0.3625   -1.0064 C   0  0  0  0  0  0  0  0  0  0  0  0
   -4.2986    0.0920    0.2188 C   0  0  0  0  0  0  0  0  0  0  0  0
   -2.9247    0.1780    0.4522 C   0  0  0  0  0  0  0  0  0  0  0  0
   -2.6528   -0.1657    1.8904 C   0  0  0  0  0  0  0  0  0  0  0  0
   -4.0564   -0.4603    2.4276 C   0  0  0  0  0  0  0  0  0  0  0  0
   -4.3479   -0.7908    3.5650 O   0  0  0  0  0  0  0  0  0  0  0  0
   -4.9512   -0.2864    1.3805 N   0  0  0  0  0  0  0  0  0  0  0  0
    0.0368    1.9217   -0.3971 C   0  0  0  0  0  0  0  0  0  0  0  0
    1.4141    2.0479   -0.1917 C   0  0  0  0  0  0  0  0  0  0  0  0
    2.1383    0.9016    0.0538 C   0  0  0  0  0  0  0  0  0  0  0  0
    3.4889    0.8800    0.2724 O   0  0  0  0  0  0  0  0  0  0  0  0
    5.6796   -0.1327    1.3896 H   0  0  0  0  0  0  0  0  0  0  0  0
    5.0926   -1.8039    1.5536 H   0  0  0  0  0  0  0  0  0  0  0  0
    4.2982   -0.4673    2.4174 H   0  0  0  0  0  0  0  0  0  0  0  0
    5.4554   -0.2002   -1.1374 H   0  0  0  0  0  0  0  0  0  0  0  0
    4.9041   -1.8891   -1.0578 H   0  0  0  0  0  0  0  0  0  0  0  0
    3.9346   -0.6521   -1.8868 H   0  0  0  0  0  0  0  0  0  0  0  0
    2.4001   -1.7248    1.4599 H   0  0  0  0  0  0  0  0  0  0  0  0
    2.5237   -2.2239   -0.2503 H   0  0  0  0  0  0  0  0  0  0  0  0
   -0.2861   -1.4672   -0.0426 H   0  0  0  0  0  0  0  0  0  0  0  0
   -1.9765    1.1309   -2.6448 H   0  0  0  0  0  0  0  0  0  0  0  0
   -4.4080    0.9652   -3.0225 H   0  0  0  0  0  0  0  0  0  0  0  0
   -5.9356    0.2906   -1.1701 H   0  0  0  0  0  0  0  0  0  0  0  0
   -2.2258    0.6835    2.4298 H   0  0  0  0  0  0  0  0  0  0  0  0
   -2.0371   -1.0640    1.9801 H   0  0  0  0  0  0  0  0  0  0  0  0
   -5.9458   -0.4182    1.4848 H   0  0  0  0  0  0  0  0  0  0  0  0
   -0.5501    2.8183   -0.5889 H   0  0  0  0  0  0  0  0  0  0  0  0
    1.9005    3.0163   -0.2248 H   0  0  0  0  0  0  0  0  0  0  0  0
  1  2  1  0
  2  3  1  0
  2  4  1  0
  4  5  1  0
  5  6  1  0
  6  7  2  0
  7  8  1  0
  8  9  1  0
  9 10  2  0
 10 11  1  0
 11 12  2  0
 12 13  1  0
 13 14  1  0
 14 15  1  0
 15 16  2  0
 15 17  1  0
  7 18  1  0
 18 19  2  0
 19 20  1  0
 20 21  1  0
 21  2  1  0
 20  5  2  0
 13  8  2  0
 17 12  1  0
  1 22  1  0
  1 23  1  0
  1 24  1  0
  3 25  1  0
  3 26  1  0
  3 27  1  0
  4 28  1  0
  4 29  1  0
  6 30  1  0
  9 31  1  0
 10 32  1  0
 11 33  1  0
 14 34  1  0
 14 35  1  0
 17 36  1  0
 18 37  1  0
 19 38  1  0
M  END
$$$$
OCNT-2310081
     RDKit          3D

 34 35  0  0  0  0  0  0  0  0999 V2000
   -0.9554    1.3590   -3.3381 O   0  0  0  0  0  0  0  0  0  0  0  0
   -1.0931    0.3015   -2.3597 S   0  0  0  0  0  0  0  0  0  0  0  0
   -1.1786   -1.0924   -2.7395 O   0  0  0  0  0  0  0  0  0  0  0  0
   -2.4720    0.6834   -1.4407 N   0  0  0  0  0  0  0  0  0  0  0  0
   -2.8190   -0.2440   -0.3522 C   0  0  0  0  0  0  0  0  0  0  0  0
   -4.2147    0.1069    0.1584 C   0  0  0  0  0  0  0  0  0  0  0  0
   -4.6481   -0.8342    1.2809 C   0  0  0  0  0  0  0  0  0  0  0  0
   -6.0250   -0.4860    1.8018 C   0  0  0  0  0  0  0  0  0  0  0  0
   -6.9555   -0.5760    0.8294 F   0  0  0  0  0  0  0  0  0  0  0  0
   -6.0556    0.7691    2.2971 F   0  0  0  0  0  0  0  0  0  0  0  0
   -6.3822   -1.3291    2.7946 F   0  0  0  0  0  0  0  0  0  0  0  0
    0.3294    0.4393   -1.3278 C   0  0  0  0  0  0  0  0  0  0  0  0
    0.3299    0.8517   -0.0789 N   0  0  0  0  0  0  0  0  0  0  0  0
    1.6072    0.8420    0.4440 N   0  0  0  0  0  0  0  0  0  0  0  0
    2.5219    0.4356   -0.4241 C   0  0  0  0  0  0  0  0  0  0  0  0
    3.9641    0.3353   -0.1277 C   0  0  0  0  0  0  0  0  0  0  0  0
    4.4209    0.7097    1.1492 C   0  0  0  0  0  0  0  0  0  0  0  0
    5.7753    0.6355    1.4873 C   0  0  0  0  0  0  0  0  0  0  0  0
    6.7013    0.1842    0.5525 C   0  0  0  0  0  0  0  0  0  0  0  0
    6.2737   -0.1922   -0.7175 C   0  0  0  0  0  0  0  0  0  0  0  0
    4.9175   -0.1177   -1.0554 C   0  0  0  0  0  0  0  0  0  0  0  0
    1.8516    0.0272   -1.9639 S   0  0  0  0  0  0  0  0  0  0  0  0
   -2.4513    1.6696   -1.1741 H   0  0  0  0  0  0  0  0  0  0  0  0
   -2.0946   -0.1495    0.4622 H   0  0  0  0  0  0  0  0  0  0  0  0
   -2.8142   -1.2764   -0.7160 H   0  0  0  0  0  0  0  0  0  0  0  0
   -4.2251    1.1437    0.5176 H   0  0  0  0  0  0  0  0  0  0  0  0
   -4.9336    0.0541   -0.6689 H   0  0  0  0  0  0  0  0  0  0  0  0
   -4.6518   -1.8685    0.9179 H   0  0  0  0  0  0  0  0  0  0  0  0
   -3.9287   -0.7835    2.1062 H   0  0  0  0  0  0  0  0  0  0  0  0
    3.7172    1.0674    1.9003 H   0  0  0  0  0  0  0  0  0  0  0  0
    6.1031    0.9314    2.4808 H   0  0  0  0  0  0  0  0  0  0  0  0
    7.7551    0.1258    0.8132 H   0  0  0  0  0  0  0  0  0  0  0  0
    6.9961   -0.5455   -1.4497 H   0  0  0  0  0  0  0  0  0  0  0  0
    4.6340   -0.4233   -2.0594 H   0  0  0  0  0  0  0  0  0  0  0  0
  1  2  2  0
  2  3  2  0
  2  4  1  0
  4  5  1  0
  5  6  1  0
  6  7  1  0
  7  8  1  0
  8  9  1  0
  8 10  1  0
  8 11  1  0
  2 12  1  0
 12 13  2  0
 13 14  1  0
 14 15  2  0
 15 16  1  0
 16 17  2  0
 17 18  1  0
 18 19  2  0
 19 20  1  0
 20 21  2  0
 15 22  1  0
 22 12  1  0
 21 16  1  0
  4 23  1  0
  5 24  1  0
  5 25  1  0
  6 26  1  0
  6 27  1  0
  7 28  1  0
  7 29  1  0
 17 30  1  0
 18 31  1  0
 19 32  1  0
 20 33  1  0
 21 34  1  0
M  END
$$$$
OCNT-2310083
     RDKit          3D

 45 47  0  0  0  0  0  0  0  0999 V2000
    4.4855    2.8787    0.9059 C   0  0  0  0  0  0  0  0  0  0  0  0
    5.0860    1.6109    0.6673 O   0  0  0  0  0  0  0  0  0  0  0  0
    4.2444    0.5867    0.3208 C   0  0  0  0  0  0  0  0  0  0  0  0
    4.8910   -0.6377    0.0840 C   0  0  0  0  0  0  0  0  0  0  0  0
    4.1690   -1.7750   -0.2806 C   0  0  0  0  0  0  0  0  0  0  0  0
    2.7920   -1.6682   -0.4036 C   0  0  0  0  0  0  0  0  0  0  0  0
    2.1397   -0.4575   -0.1623 C   0  0  0  0  0  0  0  0  0  0  0  0
    2.8543    0.6774    0.1965 C   0  0  0  0  0  0  0  0  0  0  0  0
    0.7491   -0.6101   -0.3366 N   0  0  0  0  0  0  0  0  0  0  0  0
   -0.2026    0.3888   -0.1883 C   0  0  0  0  0  0  0  0  0  0  0  0
    0.0544    1.5621    0.0786 O   0  0  0  0  0  0  0  0  0  0  0  0
   -1.6466   -0.0642   -0.4025 C   0  0  0  0  0  0  0  0  0  0  0  0
   -2.6899    1.0357   -0.1306 C   0  0  0  0  0  0  0  0  0  0  0  0
   -4.0462    0.6290   -0.7373 C   0  0  0  0  0  0  0  0  0  0  0  0
   -5.2038    1.2991   -0.0055 C   0  0  0  0  0  0  0  0  0  0  0  0
   -5.2863    0.8849    1.3960 N   0  0  0  0  0  0  0  0  0  0  0  0
   -3.9905    0.6008    2.0132 C   0  0  0  0  0  0  0  0  0  0  0  0
   -2.8288    1.3549    1.3719 C   0  0  0  0  0  0  0  0  0  0  0  0
    0.4735   -2.0262   -0.6409 C   0  0  0  0  0  0  0  0  0  0  0  0
    1.8263   -2.7463   -0.7996 C   0  0  0  0  0  0  0  0  0  0  0  0
    2.0521   -3.2362   -2.2249 C   0  0  0  0  0  0  0  0  0  0  0  0
    3.7961    2.8354    1.7555 H   0  0  0  0  0  0  0  0  0  0  0  0
    5.2835    3.5826    1.1615 H   0  0  0  0  0  0  0  0  0  0  0  0
    3.9859    3.2551    0.0071 H   0  0  0  0  0  0  0  0  0  0  0  0
    5.9725   -0.6968    0.1848 H   0  0  0  0  0  0  0  0  0  0  0  0
    4.6816   -2.7137   -0.4643 H   0  0  0  0  0  0  0  0  0  0  0  0
    2.3359    1.6089    0.3784 H   0  0  0  0  0  0  0  0  0  0  0  0
   -1.8535   -0.9280    0.2388 H   0  0  0  0  0  0  0  0  0  0  0  0
   -1.7297   -0.3799   -1.4498 H   0  0  0  0  0  0  0  0  0  0  0  0
   -2.3604    1.9566   -0.6306 H   0  0  0  0  0  0  0  0  0  0  0  0
   -4.1779   -0.4606   -0.6972 H   0  0  0  0  0  0  0  0  0  0  0  0
   -4.0669    0.9033   -1.7990 H   0  0  0  0  0  0  0  0  0  0  0  0
   -6.1490    1.0500   -0.4994 H   0  0  0  0  0  0  0  0  0  0  0  0
   -5.0923    2.3890   -0.0619 H   0  0  0  0  0  0  0  0  0  0  0  0
   -5.7719    1.6091    1.9253 H   0  0  0  0  0  0  0  0  0  0  0  0
   -3.8038   -0.4781    1.9526 H   0  0  0  0  0  0  0  0  0  0  0  0
   -4.0440    0.8429    3.0807 H   0  0  0  0  0  0  0  0  0  0  0  0
   -3.0009    2.4332    1.4908 H   0  0  0  0  0  0  0  0  0  0  0  0
   -1.9029    1.1350    1.9148 H   0  0  0  0  0  0  0  0  0  0  0  0
   -0.0877   -2.4466    0.2023 H   0  0  0  0  0  0  0  0  0  0  0  0
   -0.1554   -2.0980   -1.5348 H   0  0  0  0  0  0  0  0  0  0  0  0
    1.8859   -3.5880   -0.1001 H   0  0  0  0  0  0  0  0  0  0  0  0
    2.0097   -2.4131   -2.9473 H   0  0  0  0  0  0  0  0  0  0  0  0
    1.2902   -3.9717   -2.5039 H   0  0  0  0  0  0  0  0  0  0  0  0
    3.0325   -3.7142   -2.3261 H   0  0  0  0  0  0  0  0  0  0  0  0
  1  2  1  0
  2  3  1  0
  3  4  1  0
  4  5  2  0
  5  6  1  0
  6  7  2  0
  7  8  1  0
  7  9  1  0
  9 10  1  0
 10 11  2  0
 10 12  1  0
 12 13  1  0
 13 14  1  0
 14 15  1  0
 15 16  1  0
 16 17  1  0
 17 18  1  0
  9 19  1  0
 19 20  1  0
 20 21  1  0
  8  3  2  0
 18 13  1  0
 20  6  1  0
  1 22  1  0
  1 23  1  0
  1 24  1  0
  4 25  1  0
  5 26  1  0
  8 27  1  0
 12 28  1  0
 12 29  1  0
 13 30  1  0
 14 31  1  0
 14 32  1  0
 15 33  1  0
 15 34  1  0
 16 35  1  0
 17 36  1  0
 17 37  1  0
 18 38  1  0
 18 39  1  0
 19 40  1  0
 19 41  1  0
 20 42  1  0
 21 43  1  0
 21 44  1  0
 21 45  1  0
M  END
$$$$
OCNT-2310084
     RDKit          3D

 36 38  0  0  0  0  0  0  0  0999 V2000
    1.5159    1.0335    2.3729 O   0  0  0  0  0  0  0  0  0  0  0  0
    2.0458    0.4668    1.4187 C   0  0  0  0  0  0  0  0  0  0  0  0
    3.3183    0.8065    1.0602 N   0  0  0  0  0  0  0  0  0  0  0  0
    3.9830    0.2720   -0.0398 C   0  0  0  0  0  0  0  0  0  0  0  0
    5.2905    0.6646   -0.3254 C   0  0  0  0  0  0  0  0  0  0  0  0
    5.9430    0.1309   -1.4395 C   0  0  0  0  0  0  0  0  0  0  0  0
    5.2900   -0.7875   -2.2643 C   0  0  0  0  0  0  0  0  0  0  0  0
    3.9808   -1.1760   -1.9769 C   0  0  0  0  0  0  0  0  0  0  0  0
    3.3315   -0.6426   -0.8594 C   0  0  0  0  0  0  0  0  0  0  0  0
    1.9461   -1.0240   -0.5261 C   0  0  0  0  0  0  0  0  0  0  0  0
    1.3194   -1.7533   -1.2903 O   0  0  0  0  0  0  0  0  0  0  0  0
    1.4167   -0.5000    0.6515 N   0  0  0  0  0  0  0  0  0  0  0  0
    0.0555   -0.8893    1.0216 C   0  0  0  0  0  0  0  0  0  0  0  0
   -0.9813    0.0339    0.4048 C   0  0  0  0  0  0  0  0  0  0  0  0
   -2.6115   -0.4724    0.9092 S   0  0  0  0  0  0  0  0  0  0  0  0
   -2.7516   -0.2422    2.3301 O   0  0  0  0  0  0  0  0  0  0  0  0
   -2.9093   -1.7532    0.3087 O   0  0  0  0  0  0  0  0  0  0  0  0
   -3.5496    0.7296    0.1488 N   0  0  0  0  0  0  0  0  0  0  0  0
   -4.8957    0.2796   -0.2437 C   0  0  0  0  0  0  0  0  0  0  0  0
   -6.0534    0.3512    0.7087 C   0  0  0  0  0  0  0  0  0  0  0  0
   -5.9942    1.2795   -0.4704 C   0  0  0  0  0  0  0  0  0  0  0  0
    3.7665    1.4981    1.6476 H   0  0  0  0  0  0  0  0  0  0  0  0
    5.8120    1.3797    0.3049 H   0  0  0  0  0  0  0  0  0  0  0  0
    6.9635    0.4319   -1.6670 H   0  0  0  0  0  0  0  0  0  0  0  0
    5.8005   -1.2003   -3.1316 H   0  0  0  0  0  0  0  0  0  0  0  0
    3.4718   -1.8903   -2.6207 H   0  0  0  0  0  0  0  0  0  0  0  0
   -0.1199   -1.9241    0.7039 H   0  0  0  0  0  0  0  0  0  0  0  0
   -0.0300   -0.8806    2.1150 H   0  0  0  0  0  0  0  0  0  0  0  0
   -0.9431   -0.0019   -0.6884 H   0  0  0  0  0  0  0  0  0  0  0  0
   -0.8364    1.0677    0.7338 H   0  0  0  0  0  0  0  0  0  0  0  0
   -3.5872    1.5478    0.7625 H   0  0  0  0  0  0  0  0  0  0  0  0
   -4.8651   -0.5619   -0.9336 H   0  0  0  0  0  0  0  0  0  0  0  0
   -5.8848    0.7621    1.6970 H   0  0  0  0  0  0  0  0  0  0  0  0
   -6.7702   -0.4619    0.6859 H   0  0  0  0  0  0  0  0  0  0  0  0
   -6.6763    1.0992   -1.2934 H   0  0  0  0  0  0  0  0  0  0  0  0
   -5.7911    2.3268   -0.2845 H   0  0  0  0  0  0  0  0  0  0  0  0
  1  2  2  0
  2  3  1  0
  3  4  1  0
  4  5  2  0
  5  6  1  0
  6  7  2  0
  7  8  1  0
  8  9  2  0
  9 10  1  0
 10 11  2  0
 10 12  1  0
 12 13  1  0
 13 14  1  0
 14 15  1  0
 15 16  2  0
 15 17  2  0
 15 18  1  0
 18 19  1  0
 19 20  1  0
 20 21  1  0
 12  2  1  0
 21 19  1  0
  9  4  1  0
  3 22  1  0
  5 23  1  0
  6 24  1  0
  7 25  1  0
  8 26  1  0
 13 27  1  0
 13 28  1  0
 14 29  1  0
 14 30  1  0
 18 31  1  0
 19 32  1  0
 20 33  1  0
 20 34  1  0
 21 35  1  0
 21 36  1  0
M  END
$$$$
OCNT-2310088
     RDKit          3D

 42 44  0  0  0  0  0  0  0  0999 V2000
    7.5708    0.8674   -1.4066 C   0  0  0  0  0  0  0  0  0  0  0  0
    7.6805    0.5207    0.0140 N   0  0  0  0  0  0  0  0  0  0  0  0
    6.4324   -0.4101    0.6574 S   0  0  0  0  0  0  0  0  0  0  0  0
    6.0630   -1.4154   -0.3128 O   0  0  0  0  0  0  0  0  0  0  0  0
    6.7952   -0.7403    2.0150 O   0  0  0  0  0  0  0  0  0  0  0  0
    5.0283    0.5861    0.8239 C   0  0  0  0  0  0  0  0  0  0  0  0
    5.0695    1.8775    1.2963 C   0  0  0  0  0  0  0  0  0  0  0  0
    3.5185    2.5922    1.3122 S   0  0  0  0  0  0  0  0  0  0  0  0
    2.7636    1.1625    0.7200 C   0  0  0  0  0  0  0  0  0  0  0  0
    1.3114    1.1630    0.5186 C   0  0  0  0  0  0  0  0  0  0  0  0
    0.6637    2.2010    0.4222 O   0  0  0  0  0  0  0  0  0  0  0  0
    0.7564   -0.1088    0.4604 N   0  0  0  0  0  0  0  0  0  0  0  0
   -0.5937   -0.4576    0.2425 C   0  0  0  0  0  0  0  0  0  0  0  0
   -0.9115   -1.8212    0.2813 C   0  0  0  0  0  0  0  0  0  0  0  0
   -2.2242   -2.2546    0.0723 C   0  0  0  0  0  0  0  0  0  0  0  0
   -3.2410   -1.3320   -0.1716 C   0  0  0  0  0  0  0  0  0  0  0  0
   -4.4924   -1.8742   -0.3739 O   0  0  0  0  0  0  0  0  0  0  0  0
   -5.5781   -1.0417   -0.2499 C   0  0  0  0  0  0  0  0  0  0  0  0
   -6.1686   -0.5658   -1.4245 C   0  0  0  0  0  0  0  0  0  0  0  0
   -7.2927    0.2571   -1.3530 C   0  0  0  0  0  0  0  0  0  0  0  0
   -7.8366    0.5889   -0.1115 C   0  0  0  0  0  0  0  0  0  0  0  0
   -7.2632    0.0905    1.0611 C   0  0  0  0  0  0  0  0  0  0  0  0
   -6.1377   -0.7339    0.9947 C   0  0  0  0  0  0  0  0  0  0  0  0
   -5.4872   -1.3591    2.4653 Cl  0  0  0  0  0  0  0  0  0  0  0  0
   -2.9304    0.0272   -0.2230 C   0  0  0  0  0  0  0  0  0  0  0  0
   -1.6132    0.4600   -0.0153 C   0  0  0  0  0  0  0  0  0  0  0  0
    3.7023    0.1687    0.4942 C   0  0  0  0  0  0  0  0  0  0  0  0
    8.3523    1.5926   -1.6517 H   0  0  0  0  0  0  0  0  0  0  0  0
    7.7243   -0.0169   -2.0308 H   0  0  0  0  0  0  0  0  0  0  0  0
    6.6038    1.3246   -1.6312 H   0  0  0  0  0  0  0  0  0  0  0  0
    8.5798    0.1141    0.2755 H   0  0  0  0  0  0  0  0  0  0  0  0
    5.9352    2.4377    1.6253 H   0  0  0  0  0  0  0  0  0  0  0  0
    1.3751   -0.8843    0.6474 H   0  0  0  0  0  0  0  0  0  0  0  0
   -0.1474   -2.5693    0.4759 H   0  0  0  0  0  0  0  0  0  0  0  0
   -2.4551   -3.3164    0.1085 H   0  0  0  0  0  0  0  0  0  0  0  0
   -5.7477   -0.8319   -2.3905 H   0  0  0  0  0  0  0  0  0  0  0  0
   -7.7473    0.6364   -2.2652 H   0  0  0  0  0  0  0  0  0  0  0  0
   -8.7142    1.2290   -0.0563 H   0  0  0  0  0  0  0  0  0  0  0  0
   -7.7029    0.3428    2.0227 H   0  0  0  0  0  0  0  0  0  0  0  0
   -3.6892    0.7769   -0.4264 H   0  0  0  0  0  0  0  0  0  0  0  0
   -1.4251    1.5279   -0.0657 H   0  0  0  0  0  0  0  0  0  0  0  0
    3.4733   -0.8113    0.0916 H   0  0  0  0  0  0  0  0  0  0  0  0
  1  2  1  0
  2  3  1  0
  3  4  2  0
  3  5  2  0
  3  6  1  0
  6  7  2  0
  7  8  1  0
  8  9  1  0
  9 10  1  0
 10 11  2  0
 10 12  1  0
 12 13  1  0
 13 14  1  0
 14 15  2  0
 15 16  1  0
 16 17  1  0
 17 18  1  0
 18 19  2  0
 19 20  1  0
 20 21  2  0
 21 22  1  0
 22 23  2  0
 23 24  1  0
 16 25  2  0
 25 26  1  0
  9 27  2  0
 27  6  1  0
 26 13  2  0
 23 18  1  0
  1 28  1  0
  1 29  1  0
  1 30  1  0
  2 31  1  0
  7 32  1  0
 12 33  1  0
 14 34  1  0
 15 35  1  0
 19 36  1  0
 20 37  1  0
 21 38  1  0
 22 39  1  0
 25 40  1  0
 26 41  1  0
 27 42  1  0
M  END
$$$$
OCNT-2310093
     RDKit          3D

 47 49  0  0  0  0  0  0  0  0999 V2000
   -1.3457   -2.1562    1.8347 C   0  0  0  0  0  0  0  0  0  0  0  0
   -1.9442   -1.7648    0.4920 C   0  0  0  0  0  0  0  0  0  0  0  0
   -1.8911   -0.3460    0.3051 O   0  0  0  0  0  0  0  0  0  0  0  0
   -2.9749    0.3606    0.7881 C   0  0  0  0  0  0  0  0  0  0  0  0
   -3.9222   -0.3176    1.4834 N   0  0  0  0  0  0  0  0  0  0  0  0
   -4.9913    0.3753    1.9441 C   0  0  0  0  0  0  0  0  0  0  0  0
   -6.0286   -0.3869    2.7139 C   0  0  0  0  0  0  0  0  0  0  0  0
   -5.1460    1.7407    1.7320 C   0  0  0  0  0  0  0  0  0  0  0  0
   -4.1622    2.4194    1.0174 C   0  0  0  0  0  0  0  0  0  0  0  0
   -3.0448    1.7300    0.5346 C   0  0  0  0  0  0  0  0  0  0  0  0
   -2.0300    2.5047   -0.2275 C   0  0  0  0  0  0  0  0  0  0  0  0
   -2.3328    3.5819   -0.7272 O   0  0  0  0  0  0  0  0  0  0  0  0
   -0.7630    1.9764   -0.3211 N   0  0  0  0  0  0  0  0  0  0  0  0
    0.2426    2.6074   -1.1471 C   0  0  0  0  0  0  0  0  0  0  0  0
    1.5504    1.9179   -0.9643 C   0  0  0  0  0  0  0  0  0  0  0  0
    2.5227    2.5072   -0.2573 N   0  0  0  0  0  0  0  0  0  0  0  0
    3.5865    1.6315   -0.2797 O   0  0  0  0  0  0  0  0  0  0  0  0
    3.2636    0.5158   -0.9952 C   0  0  0  0  0  0  0  0  0  0  0  0
    4.3234   -0.4836   -1.0995 C   0  0  0  0  0  0  0  0  0  0  0  0
    5.2750   -0.6217   -0.0761 C   0  0  0  0  0  0  0  0  0  0  0  0
    6.2933   -1.5743   -0.1643 C   0  0  0  0  0  0  0  0  0  0  0  0
    6.3761   -2.4028   -1.2809 C   0  0  0  0  0  0  0  0  0  0  0  0
    5.4433   -2.2786   -2.3081 C   0  0  0  0  0  0  0  0  0  0  0  0
    4.4252   -1.3238   -2.2193 C   0  0  0  0  0  0  0  0  0  0  0  0
    1.9639    0.6411   -1.4543 C   0  0  0  0  0  0  0  0  0  0  0  0
    1.1699   -0.3199   -2.2564 C   0  0  0  0  0  0  0  0  0  0  0  0
   -1.9580   -1.7878    2.6651 H   0  0  0  0  0  0  0  0  0  0  0  0
   -1.2660   -3.2453    1.9197 H   0  0  0  0  0  0  0  0  0  0  0  0
   -0.3493   -1.7163    1.9579 H   0  0  0  0  0  0  0  0  0  0  0  0
   -2.9503   -2.1751    0.3475 H   0  0  0  0  0  0  0  0  0  0  0  0
   -1.3264   -2.2006   -0.3025 H   0  0  0  0  0  0  0  0  0  0  0  0
   -6.0712   -0.0290    3.7496 H   0  0  0  0  0  0  0  0  0  0  0  0
   -7.0140   -0.2617    2.2498 H   0  0  0  0  0  0  0  0  0  0  0  0
   -5.7933   -1.4568    2.7290 H   0  0  0  0  0  0  0  0  0  0  0  0
   -6.0167    2.2748    2.1119 H   0  0  0  0  0  0  0  0  0  0  0  0
   -4.2663    3.4881    0.8423 H   0  0  0  0  0  0  0  0  0  0  0  0
   -0.6024    1.0318    0.0133 H   0  0  0  0  0  0  0  0  0  0  0  0
    0.3016    3.6694   -0.8868 H   0  0  0  0  0  0  0  0  0  0  0  0
   -0.0822    2.5407   -2.1914 H   0  0  0  0  0  0  0  0  0  0  0  0
    5.2292    0.0143    0.8067 H   0  0  0  0  0  0  0  0  0  0  0  0
    7.0208   -1.6644    0.6385 H   0  0  0  0  0  0  0  0  0  0  0  0
    7.1690   -3.1417   -1.3512 H   0  0  0  0  0  0  0  0  0  0  0  0
    5.5119   -2.9186   -3.1858 H   0  0  0  0  0  0  0  0  0  0  0  0
    3.7265   -1.2358   -3.0484 H   0  0  0  0  0  0  0  0  0  0  0  0
    0.0952   -0.1421   -2.1488 H   0  0  0  0  0  0  0  0  0  0  0  0
    1.4212   -0.2280   -3.3190 H   0  0  0  0  0  0  0  0  0  0  0  0
    1.3618   -1.3496   -1.9386 H   0  0  0  0  0  0  0  0  0  0  0  0
  1  2  1  0
  2  3  1  0
  3  4  1  0
  4  5  2  0
  5  6  1  0
  6  7  1  0
  6  8  2  0
  8  9  1  0
  9 10  2  0
 10 11  1  0
 11 12  2  0
 11 13  1  0
 13 14  1  0
 14 15  1  0
 15 16  2  0
 16 17  1  0
 17 18  1  0
 18 19  1  0
 19 20  2  0
 20 21  1  0
 21 22  2  0
 22 23  1  0
 23 24  2  0
 18 25  2  0
 25 26  1  0
 10  4  1  0
 25 15  1  0
 24 19  1  0
  1 27  1  0
  1 28  1  0
  1 29  1  0
  2 30  1  0
  2 31  1  0
  7 32  1  0
  7 33  1  0
  7 34  1  0
  8 35  1  0
  9 36  1  0
 13 37  1  0
 14 38  1  0
 14 39  1  0
 20 40  1  0
 21 41  1  0
 22 42  1  0
 23 43  1  0
 24 44  1  0
 26 45  1  0
 26 46  1  0
 26 47  1  0
M  END
$$$$
OCNT-2310094
     RDKit          3D

 33 35  0  0  0  0  0  0  0  0999 V2000
    6.5175   -1.5315   -0.2147 C   0  0  0  0  0  0  0  0  0  0  0  0
    5.5693   -0.4489   -0.1053 N   0  0  0  0  0  0  0  0  0  0  0  0
    4.2052   -0.5427   -0.0953 C   0  0  0  0  0  0  0  0  0  0  0  0
    3.7258    0.7503    0.0266 C   0  0  0  0  0  0  0  0  0  0  0  0
    2.3580    1.2372    0.0885 C   0  0  0  0  0  0  0  0  0  0  0  0
    2.1051    2.4357    0.1988 O   0  0  0  0  0  0  0  0  0  0  0  0
    1.3884    0.2628    0.0146 N   0  0  0  0  0  0  0  0  0  0  0  0
    0.0527    0.5640    0.0595 C   0  0  0  0  0  0  0  0  0  0  0  0
   -0.9232   -0.3076   -0.0051 N   0  0  0  0  0  0  0  0  0  0  0  0
   -2.0628    0.4688    0.0796 C   0  0  0  0  0  0  0  0  0  0  0  0
   -3.4036   -0.1088    0.0462 C   0  0  0  0  0  0  0  0  0  0  0  0
   -3.5748   -1.4958   -0.0753 C   0  0  0  0  0  0  0  0  0  0  0  0
   -4.8535   -2.0573   -0.1081 C   0  0  0  0  0  0  0  0  0  0  0  0
   -5.9770   -1.2359   -0.0197 C   0  0  0  0  0  0  0  0  0  0  0  0
   -5.8240    0.1490    0.1018 C   0  0  0  0  0  0  0  0  0  0  0  0
   -6.9793    0.9929    0.1927 C   0  0  0  0  0  0  0  0  0  0  0  0
   -7.9206    1.6680    0.2657 N   0  0  0  0  0  0  0  0  0  0  0  0
   -4.5412    0.7086    0.1345 C   0  0  0  0  0  0  0  0  0  0  0  0
   -1.8181    1.7845    0.1937 N   0  0  0  0  0  0  0  0  0  0  0  0
   -0.4758    1.8188    0.1786 N   0  0  0  0  0  0  0  0  0  0  0  0
    4.9003    1.5380    0.0810 C   0  0  0  0  0  0  0  0  0  0  0  0
    6.0173    0.8117    0.0011 N   0  0  0  0  0  0  0  0  0  0  0  0
    7.1459   -1.5306    0.6794 H   0  0  0  0  0  0  0  0  0  0  0  0
    5.9794   -2.4794   -0.2921 H   0  0  0  0  0  0  0  0  0  0  0  0
    7.1217   -1.3708   -1.1110 H   0  0  0  0  0  0  0  0  0  0  0  0
    3.7164   -1.5030   -0.1744 H   0  0  0  0  0  0  0  0  0  0  0  0
    1.6192   -0.7146   -0.0757 H   0  0  0  0  0  0  0  0  0  0  0  0
   -2.7070   -2.1498   -0.1454 H   0  0  0  0  0  0  0  0  0  0  0  0
   -4.9708   -3.1344   -0.2027 H   0  0  0  0  0  0  0  0  0  0  0  0
   -6.9697   -1.6819   -0.0461 H   0  0  0  0  0  0  0  0  0  0  0  0
   -4.4250    1.7882    0.2292 H   0  0  0  0  0  0  0  0  0  0  0  0
    0.0267    2.6994    0.2504 H   0  0  0  0  0  0  0  0  0  0  0  0
    4.9775    2.6148    0.1761 H   0  0  0  0  0  0  0  0  0  0  0  0
  1  2  1  0
  2  3  1  0
  3  4  2  0
  4  5  1  0
  5  6  2  0
  5  7  1  0
  7  8  1  0
  8  9  2  0
  9 10  1  0
 10 11  1  0
 11 12  2  0
 12 13  1  0
 13 14  2  0
 14 15  1  0
 15 16  1  0
 16 17  3  0
 15 18  2  0
 10 19  2  0
 19 20  1  0
  4 21  1  0
 21 22  2  0
 22  2  1  0
 20  8  1  0
 18 11  1  0
  1 23  1  0
  1 24  1  0
  1 25  1  0
  3 26  1  0
  7 27  1  0
 12 28  1  0
 13 29  1  0
 14 30  1  0
 18 31  1  0
 20 32  1  0
 21 33  1  0
M  END
$$$$
OCNT-2310098
     RDKit          3D

 38 41  0  0  0  0  0  0  0  0999 V2000
    2.9531    1.5933    1.5711 O   0  0  0  0  0  0  0  0  0  0  0  0
    3.2037    0.5576    0.9640 C   0  0  0  0  0  0  0  0  0  0  0  0
    2.2736   -0.2557    0.3405 N   0  0  0  0  0  0  0  0  0  0  0  0
    0.8789   -0.0912    0.2595 C   0  0  0  0  0  0  0  0  0  0  0  0
    0.1814    0.9666    0.8405 C   0  0  0  0  0  0  0  0  0  0  0  0
   -1.2144    1.0628    0.7117 C   0  0  0  0  0  0  0  0  0  0  0  0
   -1.9252    0.0871    0.0015 C   0  0  0  0  0  0  0  0  0  0  0  0
   -1.2348   -0.9887   -0.5778 C   0  0  0  0  0  0  0  0  0  0  0  0
    0.1616   -1.0680   -0.4408 C   0  0  0  0  0  0  0  0  0  0  0  0
   -1.9648   -2.0928   -1.2969 C   0  0  0  0  0  0  0  0  0  0  0  0
   -3.3437   -1.6461   -1.7577 C   0  0  0  0  0  0  0  0  0  0  0  0
   -4.0761   -0.9683   -0.6111 C   0  0  0  0  0  0  0  0  0  0  0  0
   -3.3391    0.1829   -0.1033 N   0  0  0  0  0  0  0  0  0  0  0  0
   -4.0486    1.2851    0.3601 C   0  0  0  0  0  0  0  0  0  0  0  0
   -5.2778    1.3236    0.4253 O   0  0  0  0  0  0  0  0  0  0  0  0
   -3.2247    2.5110    0.6772 C   0  0  0  0  0  0  0  0  0  0  0  0
   -1.9612    2.1513    1.4276 C   0  0  0  0  0  0  0  0  0  0  0  0
    4.5600    0.0541    0.8286 C   0  0  0  0  0  0  0  0  0  0  0  0
    5.7650    0.5488    1.2908 C   0  0  0  0  0  0  0  0  0  0  0  0
    6.7684   -0.3530    0.8631 C   0  0  0  0  0  0  0  0  0  0  0  0
    6.1200   -1.3442    0.1658 C   0  0  0  0  0  0  0  0  0  0  0  0
    4.7822   -1.1112    0.1365 O   0  0  0  0  0  0  0  0  0  0  0  0
    2.6707   -1.0699   -0.1164 H   0  0  0  0  0  0  0  0  0  0  0  0
    0.6967    1.7304    1.4153 H   0  0  0  0  0  0  0  0  0  0  0  0
    0.6849   -1.9113   -0.8868 H   0  0  0  0  0  0  0  0  0  0  0  0
   -2.0591   -2.9466   -0.6147 H   0  0  0  0  0  0  0  0  0  0  0  0
   -1.3882   -2.4234   -2.1688 H   0  0  0  0  0  0  0  0  0  0  0  0
   -3.9153   -2.5068   -2.1216 H   0  0  0  0  0  0  0  0  0  0  0  0
   -3.2440   -0.9428   -2.5947 H   0  0  0  0  0  0  0  0  0  0  0  0
   -4.2270   -1.6610    0.2262 H   0  0  0  0  0  0  0  0  0  0  0  0
   -5.0683   -0.6549   -0.9547 H   0  0  0  0  0  0  0  0  0  0  0  0
   -2.9919    3.0099   -0.2714 H   0  0  0  0  0  0  0  0  0  0  0  0
   -3.8273    3.1992    1.2801 H   0  0  0  0  0  0  0  0  0  0  0  0
   -1.3369    3.0466    1.5286 H   0  0  0  0  0  0  0  0  0  0  0  0
   -2.2053    1.7968    2.4366 H   0  0  0  0  0  0  0  0  0  0  0  0
    5.8892    1.4557    1.8679 H   0  0  0  0  0  0  0  0  0  0  0  0
    7.8328   -0.2884    1.0411 H   0  0  0  0  0  0  0  0  0  0  0  0
    6.4513   -2.2384   -0.3443 H   0  0  0  0  0  0  0  0  0  0  0  0
  1  2  2  0
  2  3  1  0
  3  4  1  0
  4  5  2  0
  5  6  1  0
  6  7  2  0
  7  8  1  0
  8  9  2  0
  8 10  1  0
 10 11  1  0
 11 12  1  0
 12 13  1  0
 13 14  1  0
 14 15  2  0
 14 16  1  0
 16 17  1  0
  2 18  1  0
 18 19  2  0
 19 20  1  0
 20 21  2  0
 21 22  1  0
  9  4  1  0
 22 18  1  0
 17  6  1  0
 13  7  1  0
  3 23  1  0
  5 24  1  0
  9 25  1  0
 10 26  1  0
 10 27  1  0
 11 28  1  0
 11 29  1  0
 12 30  1  0
 12 31  1  0
 16 32  1  0
 16 33  1  0
 17 34  1  0
 17 35  1  0
 19 36  1  0
 20 37  1  0
 21 38  1  0
M  END
$$$$
OCNT-2310110
     RDKit          3D

 44 46  0  0  0  0  0  0  0  0999 V2000
   -2.7478    2.0527    0.2383 C   0  0  0  0  0  0  0  0  0  0  0  0
   -3.2196    0.5817    0.3265 C   0  0  0  0  0  0  0  0  0  0  0  0
   -3.0438    0.1366    1.7938 C   0  0  0  0  0  0  0  0  0  0  0  0
   -2.3948   -0.3058   -0.6425 C   0  0  0  0  0  0  0  0  0  0  0  0
   -0.9508   -0.2665   -0.4410 N   0  0  0  0  0  0  0  0  0  0  0  0
   -0.2979   -1.1776    0.3611 C   0  0  0  0  0  0  0  0  0  0  0  0
   -0.8784   -2.0578    0.9863 O   0  0  0  0  0  0  0  0  0  0  0  0
    1.1790   -1.0289    0.4846 C   0  0  0  0  0  0  0  0  0  0  0  0
    1.8016   -1.5270    1.6251 C   0  0  0  0  0  0  0  0  0  0  0  0
    3.1822   -1.4010    1.7689 C   0  0  0  0  0  0  0  0  0  0  0  0
    3.9732   -0.7754    0.7876 C   0  0  0  0  0  0  0  0  0  0  0  0
    5.2877   -0.7684    1.1535 O   0  0  0  0  0  0  0  0  0  0  0  0
    6.1285    0.2197    0.5774 C   0  0  0  0  0  0  0  0  0  0  0  0
    6.4048   -0.1201   -0.8699 C   0  0  0  0  0  0  0  0  0  0  0  0
    5.3757    0.4057   -1.7284 N   0  0  0  0  0  0  0  0  0  0  0  0
    4.0228    0.3299   -1.5721 C   0  0  0  0  0  0  0  0  0  0  0  0
    3.3285    0.8134   -2.4676 O   0  0  0  0  0  0  0  0  0  0  0  0
    3.3680   -0.3004   -0.3841 C   0  0  0  0  0  0  0  0  0  0  0  0
    1.9627   -0.4393   -0.5141 C   0  0  0  0  0  0  0  0  0  0  0  0
   -4.6367    0.4768   -0.0908 N   0  0  0  0  0  0  0  0  0  0  0  0
   -5.5890   -0.3977    0.3645 C   0  0  0  0  0  0  0  0  0  0  0  0
   -6.7303   -0.1459   -0.3592 C   0  0  0  0  0  0  0  0  0  0  0  0
   -6.3679    0.8772   -1.2483 C   0  0  0  0  0  0  0  0  0  0  0  0
   -5.0945    1.2473   -1.1049 N   0  0  0  0  0  0  0  0  0  0  0  0
   -3.4011    2.7115    0.8228 H   0  0  0  0  0  0  0  0  0  0  0  0
   -2.7473    2.4186   -0.7950 H   0  0  0  0  0  0  0  0  0  0  0  0
   -1.7290    2.1718    0.6241 H   0  0  0  0  0  0  0  0  0  0  0  0
   -2.0265    0.3262    2.1535 H   0  0  0  0  0  0  0  0  0  0  0  0
   -3.7280    0.6804    2.4561 H   0  0  0  0  0  0  0  0  0  0  0  0
   -3.2402   -0.9335    1.9211 H   0  0  0  0  0  0  0  0  0  0  0  0
   -2.7283   -1.3493   -0.5758 H   0  0  0  0  0  0  0  0  0  0  0  0
   -2.5580    0.0104   -1.6803 H   0  0  0  0  0  0  0  0  0  0  0  0
   -0.4456    0.5069   -0.8534 H   0  0  0  0  0  0  0  0  0  0  0  0
    1.2192   -2.0131    2.4055 H   0  0  0  0  0  0  0  0  0  0  0  0
    3.6551   -1.7926    2.6688 H   0  0  0  0  0  0  0  0  0  0  0  0
    5.7105    1.2242    0.7196 H   0  0  0  0  0  0  0  0  0  0  0  0
    7.0694    0.1795    1.1369 H   0  0  0  0  0  0  0  0  0  0  0  0
    7.3419    0.3422   -1.1952 H   0  0  0  0  0  0  0  0  0  0  0  0
    6.4623   -1.2007   -1.0366 H   0  0  0  0  0  0  0  0  0  0  0  0
    5.6464    0.7920   -2.6258 H   0  0  0  0  0  0  0  0  0  0  0  0
    1.4863   -0.1111   -1.4362 H   0  0  0  0  0  0  0  0  0  0  0  0
   -5.3896   -1.1155    1.1472 H   0  0  0  0  0  0  0  0  0  0  0  0
   -7.6858   -0.6410   -0.2644 H   0  0  0  0  0  0  0  0  0  0  0  0
   -6.9749    1.3641   -2.0005 H   0  0  0  0  0  0  0  0  0  0  0  0
  1  2  1  0
  2  3  1  0
  2  4  1  0
  4  5  1  0
  5  6  1  0
  6  7  2  0
  6  8  1  0
  8  9  1  0
  9 10  2  0
 10 11  1  0
 11 12  1  0
 12 13  1  0
 13 14  1  0
 14 15  1  0
 15 16  1  0
 16 17  2  0
 16 18  1  0
 18 19  1  0
  2 20  1  0
 20 21  1  0
 21 22  2  0
 22 23  1  0
 23 24  2  0
 19  8  2  0
 24 20  1  0
 18 11  2  0
  1 25  1  0
  1 26  1  0
  1 27  1  0
  3 28  1  0
  3 29  1  0
  3 30  1  0
  4 31  1  0
  4 32  1  0
  5 33  1  0
  9 34  1  0
 10 35  1  0
 13 36  1  0
 13 37  1  0
 14 38  1  0
 14 39  1  0
 15 40  1  0
 19 41  1  0
 21 42  1  0
 22 43  1  0
 23 44  1  0
M  END
$$$$
OCNT-2310114
     RDKit          3D

 47 50  0  0  0  0  0  0  0  0999 V2000
   -8.5077   -1.4235    0.0685 C   0  0  0  0  0  0  0  0  0  0  0  0
   -8.2922    0.3360   -0.0831 S   0  0  0  0  0  0  0  0  0  0  0  0
   -9.5048    0.8771   -0.6609 O   0  0  0  0  0  0  0  0  0  0  0  0
   -7.7524    0.8583    1.1515 O   0  0  0  0  0  0  0  0  0  0  0  0
   -7.1345    0.4242   -1.3171 N   0  0  0  0  0  0  0  0  0  0  0  0
   -5.7779    0.5984   -0.9183 C   0  0  0  0  0  0  0  0  0  0  0  0
   -5.2657    1.8798   -0.7249 C   0  0  0  0  0  0  0  0  0  0  0  0
   -3.9468    2.0462   -0.2871 C   0  0  0  0  0  0  0  0  0  0  0  0
   -3.1329    0.9329   -0.0292 C   0  0  0  0  0  0  0  0  0  0  0  0
   -1.7519    1.0670    0.4281 C   0  0  0  0  0  0  0  0  0  0  0  0
   -1.2375    2.1801    1.0591 C   0  0  0  0  0  0  0  0  0  0  0  0
    0.4081    1.9229    1.4500 S   0  0  0  0  0  0  0  0  0  0  0  0
    0.3447    0.3553    0.7275 C   0  0  0  0  0  0  0  0  0  0  0  0
    1.3646   -0.5343    0.7039 N   0  0  0  0  0  0  0  0  0  0  0  0
    2.7556   -0.3362    0.6314 C   0  0  0  0  0  0  0  0  0  0  0  0
    3.5915   -1.3859    1.0414 C   0  0  0  0  0  0  0  0  0  0  0  0
    4.9836   -1.2549    1.0343 C   0  0  0  0  0  0  0  0  0  0  0  0
    5.5816   -0.0611    0.6152 C   0  0  0  0  0  0  0  0  0  0  0  0
    7.0826    0.0838    0.6045 C   0  0  0  0  0  0  0  0  0  0  0  0
    7.6997   -0.7812   -0.3838 N   0  0  0  0  0  0  0  0  0  0  0  0
    7.6684   -0.6517   -1.7383 C   0  0  0  0  0  0  0  0  0  0  0  0
    8.3878   -1.6034   -2.2872 N   0  0  0  0  0  0  0  0  0  0  0  0
    8.8464   -2.3022   -1.2068 C   0  0  0  0  0  0  0  0  0  0  0  0
    8.4592   -1.8339   -0.0171 N   0  0  0  0  0  0  0  0  0  0  0  0
    4.7562    0.9941    0.2110 C   0  0  0  0  0  0  0  0  0  0  0  0
    3.3622    0.8556    0.2236 C   0  0  0  0  0  0  0  0  0  0  0  0
   -0.8463    0.0269    0.2740 N   0  0  0  0  0  0  0  0  0  0  0  0
   -3.6694   -0.3491   -0.2266 C   0  0  0  0  0  0  0  0  0  0  0  0
   -4.9882   -0.5175   -0.6593 C   0  0  0  0  0  0  0  0  0  0  0  0
   -7.5822   -1.8684    0.4362 H   0  0  0  0  0  0  0  0  0  0  0  0
   -9.3120   -1.6016    0.7858 H   0  0  0  0  0  0  0  0  0  0  0  0
   -8.7836   -1.8333   -0.9049 H   0  0  0  0  0  0  0  0  0  0  0  0
   -7.4641    1.0852   -2.0237 H   0  0  0  0  0  0  0  0  0  0  0  0
   -5.8850    2.7559   -0.8965 H   0  0  0  0  0  0  0  0  0  0  0  0
   -3.5740    3.0586   -0.1571 H   0  0  0  0  0  0  0  0  0  0  0  0
   -1.7259    3.1051    1.3272 H   0  0  0  0  0  0  0  0  0  0  0  0
    1.0886   -1.4651    0.4103 H   0  0  0  0  0  0  0  0  0  0  0  0
    3.1592   -2.3232    1.3862 H   0  0  0  0  0  0  0  0  0  0  0  0
    5.5966   -2.0950    1.3594 H   0  0  0  0  0  0  0  0  0  0  0  0
    7.3874    1.1093    0.3659 H   0  0  0  0  0  0  0  0  0  0  0  0
    7.4940   -0.1619    1.5904 H   0  0  0  0  0  0  0  0  0  0  0  0
    7.1230    0.1255   -2.2548 H   0  0  0  0  0  0  0  0  0  0  0  0
    9.4824   -3.1742   -1.2905 H   0  0  0  0  0  0  0  0  0  0  0  0
    5.1823    1.9384   -0.1222 H   0  0  0  0  0  0  0  0  0  0  0  0
    2.7668    1.6922   -0.1298 H   0  0  0  0  0  0  0  0  0  0  0  0
   -3.0592   -1.2306   -0.0368 H   0  0  0  0  0  0  0  0  0  0  0  0
   -5.3781   -1.5201   -0.8040 H   0  0  0  0  0  0  0  0  0  0  0  0
  1  2  1  0
  2  3  2  0
  2  4  2  0
  2  5  1  0
  5  6  1  0
  6  7  1  0
  7  8  2  0
  8  9  1  0
  9 10  1  0
 10 11  2  0
 11 12  1  0
 12 13  1  0
 13 14  1  0
 14 15  1  0
 15 16  1  0
 16 17  2  0
 17 18  1  0
 18 19  1  0
 19 20  1  0
 20 21  1  0
 21 22  2  0
 22 23  1  0
 23 24  2  0
 18 25  2  0
 25 26  1  0
 13 27  2  0
  9 28  2  0
 28 29  1  0
 29  6  2  0
 27 10  1  0
 26 15  2  0
 24 20  1  0
  1 30  1  0
  1 31  1  0
  1 32  1  0
  5 33  1  0
  7 34  1  0
  8 35  1  0
 11 36  1  0
 14 37  1  0
 16 38  1  0
 17 39  1  0
 19 40  1  0
 19 41  1  0
 21 42  1  0
 23 43  1  0
 25 44  1  0
 26 45  1  0
 28 46  1  0
 29 47  1  0
M  END
$$$$
OCNT-2310115
     RDKit          3D

 43 44  0  0  0  0  0  0  0  0999 V2000
   -2.8730   -1.8016    0.6253 C   0  0  0  0  0  0  0  0  0  0  0  0
   -3.2370   -0.4892    1.2998 C   0  0  0  0  0  0  0  0  0  0  0  0
   -3.9041    0.4498    0.3924 N   0  0  0  0  0  0  0  0  0  0  0  0
   -5.3575    0.3484    0.2589 C   0  0  0  0  0  0  0  0  0  0  0  0
   -5.7829   -0.4036   -0.9936 C   0  0  0  0  0  0  0  0  0  0  0  0
   -3.2553    1.4088   -0.3714 C   0  0  0  0  0  0  0  0  0  0  0  0
   -3.8503    2.2324   -1.0634 O   0  0  0  0  0  0  0  0  0  0  0  0
   -1.8918    1.3977   -0.2911 N   0  0  0  0  0  0  0  0  0  0  0  0
   -1.1225    2.2908   -1.1224 C   0  0  0  0  0  0  0  0  0  0  0  0
    0.3160    2.0771   -0.8064 C   0  0  0  0  0  0  0  0  0  0  0  0
    0.9357    0.9169   -0.6947 N   0  0  0  0  0  0  0  0  0  0  0  0
    2.2460    1.2114   -0.3801 C   0  0  0  0  0  0  0  0  0  0  0  0
    3.2639    0.1906   -0.1745 C   0  0  0  0  0  0  0  0  0  0  0  0
    2.9428   -1.1559   -0.3956 C   0  0  0  0  0  0  0  0  0  0  0  0
    3.8943   -2.1637   -0.2084 C   0  0  0  0  0  0  0  0  0  0  0  0
    5.1875   -1.8456    0.2165 C   0  0  0  0  0  0  0  0  0  0  0  0
    6.2193   -2.9207    0.3850 C   0  0  0  0  0  0  0  0  0  0  0  0
    5.5194   -0.5033    0.4263 C   0  0  0  0  0  0  0  0  0  0  0  0
    4.5657    0.5042    0.2379 C   0  0  0  0  0  0  0  0  0  0  0  0
    2.4132    2.5773   -0.3002 C   0  0  0  0  0  0  0  0  0  0  0  0
    1.1828    3.1128   -0.5698 N   0  0  0  0  0  0  0  0  0  0  0  0
   -2.3054   -2.4352    1.3142 H   0  0  0  0  0  0  0  0  0  0  0  0
   -3.7689   -2.3536    0.3274 H   0  0  0  0  0  0  0  0  0  0  0  0
   -2.2658   -1.6394   -0.2705 H   0  0  0  0  0  0  0  0  0  0  0  0
   -2.3306   -0.0247    1.7024 H   0  0  0  0  0  0  0  0  0  0  0  0
   -3.8904   -0.6739    2.1598 H   0  0  0  0  0  0  0  0  0  0  0  0
   -5.7766    1.3610    0.2244 H   0  0  0  0  0  0  0  0  0  0  0  0
   -5.7728   -0.1360    1.1492 H   0  0  0  0  0  0  0  0  0  0  0  0
   -6.8748   -0.4332   -1.0629 H   0  0  0  0  0  0  0  0  0  0  0  0
   -5.4175   -1.4340   -0.9845 H   0  0  0  0  0  0  0  0  0  0  0  0
   -5.3984    0.0772   -1.8987 H   0  0  0  0  0  0  0  0  0  0  0  0
   -1.4553    0.4970   -0.1595 H   0  0  0  0  0  0  0  0  0  0  0  0
   -1.4397    3.3212   -0.9300 H   0  0  0  0  0  0  0  0  0  0  0  0
   -1.3203    2.0528   -2.1729 H   0  0  0  0  0  0  0  0  0  0  0  0
    1.9413   -1.4286   -0.7233 H   0  0  0  0  0  0  0  0  0  0  0  0
    3.6141   -3.1973   -0.3977 H   0  0  0  0  0  0  0  0  0  0  0  0
    6.7549   -3.0762   -0.5566 H   0  0  0  0  0  0  0  0  0  0  0  0
    5.7543   -3.8648    0.6879 H   0  0  0  0  0  0  0  0  0  0  0  0
    6.9412   -2.6505    1.1629 H   0  0  0  0  0  0  0  0  0  0  0  0
    6.5243   -0.2296    0.7400 H   0  0  0  0  0  0  0  0  0  0  0  0
    4.8620    1.5329    0.4200 H   0  0  0  0  0  0  0  0  0  0  0  0
    3.2651    3.2047   -0.0835 H   0  0  0  0  0  0  0  0  0  0  0  0
    0.9470    4.0958   -0.5839 H   0  0  0  0  0  0  0  0  0  0  0  0
  1  2  1  0
  2  3  1  0
  3  4  1  0
  4  5  1  0
  3  6  1  0
  6  7  2  0
  6  8  1  0
  8  9  1  0
  9 10  1  0
 10 11  2  0
 11 12  1  0
 12 13  1  0
 13 14  1  0
 14 15  2  0
 15 16  1  0
 16 17  1  0
 16 18  2  0
 18 19  1  0
 12 20  2  0
 20 21  1  0
 21 10  1  0
 19 13  2  0
  1 22  1  0
  1 23  1  0
  1 24  1  0
  2 25  1  0
  2 26  1  0
  4 27  1  0
  4 28  1  0
  5 29  1  0
  5 30  1  0
  5 31  1  0
  8 32  1  0
  9 33  1  0
  9 34  1  0
 14 35  1  0
 15 36  1  0
 17 37  1  0
 17 38  1  0
 17 39  1  0
 18 40  1  0
 19 41  1  0
 20 42  1  0
 21 43  1  0
M  END
$$$$
OCNT-2310119
     RDKit          3D

 41 43  0  0  0  0  0  0  0  0999 V2000
   -0.3759    1.5288    0.5722 C   0  0  0  0  0  0  0  0  0  0  0  0
   -0.5582    0.5371   -0.4341 O   0  0  0  0  0  0  0  0  0  0  0  0
   -1.4553   -0.5103   -0.0272 C   0  0  0  0  0  0  0  0  0  0  0  0
   -1.2694   -1.7072   -0.9814 C   0  0  0  0  0  0  0  0  0  0  0  0
    0.1252   -2.8210   -0.5847 S   0  0  0  0  0  0  0  0  0  0  0  0
    1.4226   -1.6629   -0.3848 C   0  0  0  0  0  0  0  0  0  0  0  0
    1.6752   -1.3046    0.8316 N   0  0  0  0  0  0  0  0  0  0  0  0
    2.7011   -0.3812    1.0482 C   0  0  0  0  0  0  0  0  0  0  0  0
    2.9947    0.0066    2.3580 C   0  0  0  0  0  0  0  0  0  0  0  0
    3.9980    0.9448    2.6149 C   0  0  0  0  0  0  0  0  0  0  0  0
    4.7172    1.5046    1.5595 C   0  0  0  0  0  0  0  0  0  0  0  0
    4.4340    1.1233    0.2486 C   0  0  0  0  0  0  0  0  0  0  0  0
    3.4274    0.1813    0.0034 C   0  0  0  0  0  0  0  0  0  0  0  0
    3.1077   -0.2554   -1.3668 C   0  0  0  0  0  0  0  0  0  0  0  0
    3.7220    0.2425   -2.3081 O   0  0  0  0  0  0  0  0  0  0  0  0
    2.1153   -1.2225   -1.4991 N   0  0  0  0  0  0  0  0  0  0  0  0
    1.8391   -1.7001   -2.8473 C   0  0  0  0  0  0  0  0  0  0  0  0
   -2.8953   -0.0193   -0.1140 C   0  0  0  0  0  0  0  0  0  0  0  0
   -3.8039   -0.3277    0.9107 C   0  0  0  0  0  0  0  0  0  0  0  0
   -5.1311    0.1022    0.8343 C   0  0  0  0  0  0  0  0  0  0  0  0
   -5.5589    0.8401   -0.2672 C   0  0  0  0  0  0  0  0  0  0  0  0
   -7.1936    1.3689   -0.3588 Cl  0  0  0  0  0  0  0  0  0  0  0  0
   -4.6721    1.1518   -1.2946 C   0  0  0  0  0  0  0  0  0  0  0  0
   -3.3455    0.7219   -1.2196 C   0  0  0  0  0  0  0  0  0  0  0  0
   -0.0388    1.0784    1.5101 H   0  0  0  0  0  0  0  0  0  0  0  0
   -1.2998    2.0898    0.7385 H   0  0  0  0  0  0  0  0  0  0  0  0
    0.3914    2.2265    0.2258 H   0  0  0  0  0  0  0  0  0  0  0  0
   -1.2297   -0.8112    1.0043 H   0  0  0  0  0  0  0  0  0  0  0  0
   -2.1584   -2.3481   -0.9650 H   0  0  0  0  0  0  0  0  0  0  0  0
   -1.1395   -1.3597   -2.0119 H   0  0  0  0  0  0  0  0  0  0  0  0
    2.4345   -0.4275    3.1824 H   0  0  0  0  0  0  0  0  0  0  0  0
    4.2173    1.2368    3.6391 H   0  0  0  0  0  0  0  0  0  0  0  0
    5.4988    2.2342    1.7575 H   0  0  0  0  0  0  0  0  0  0  0  0
    4.9953    1.5552   -0.5770 H   0  0  0  0  0  0  0  0  0  0  0  0
    1.7684   -2.7915   -2.8549 H   0  0  0  0  0  0  0  0  0  0  0  0
    0.8908   -1.2727   -3.1852 H   0  0  0  0  0  0  0  0  0  0  0  0
    2.6202   -1.4100   -3.5555 H   0  0  0  0  0  0  0  0  0  0  0  0
   -3.4855   -0.9053    1.7765 H   0  0  0  0  0  0  0  0  0  0  0  0
   -5.8241   -0.1417    1.6352 H   0  0  0  0  0  0  0  0  0  0  0  0
   -5.0040    1.7290   -2.1535 H   0  0  0  0  0  0  0  0  0  0  0  0
   -2.6572    0.9761   -2.0241 H   0  0  0  0  0  0  0  0  0  0  0  0
  1  2  1  0
  2  3  1  0
  3  4  1  0
  4  5  1  0
  5  6  1  0
  6  7  2  0
  7  8  1  0
  8  9  2  0
  9 10  1  0
 10 11  2  0
 11 12  1  0
 12 13  2  0
 13 14  1  0
 14 15  2  0
 14 16  1  0
 16 17  1  0
  3 18  1  0
 18 19  1  0
 19 20  2  0
 20 21  1  0
 21 22  1  0
 21 23  2  0
 23 24  1  0
 16  6  1  0
 24 18  2  0
 13  8  1  0
  1 25  1  0
  1 26  1  0
  1 27  1  0
  3 28  1  0
  4 29  1  0
  4 30  1  0
  9 31  1  0
 10 32  1  0
 11 33  1  0
 12 34  1  0
 17 35  1  0
 17 36  1  0
 17 37  1  0
 19 38  1  0
 20 39  1  0
 23 40  1  0
 24 41  1  0
M  END
$$$$
OCNT-2310141
     RDKit          3D

 50 52  0  0  0  0  0  0  0  0999 V2000
    6.9542    2.6266    0.8725 C   0  0  0  0  0  0  0  0  0  0  0  0
    5.6624    2.0351    0.9297 O   0  0  0  0  0  0  0  0  0  0  0  0
    5.4771    0.8833    0.2156 C   0  0  0  0  0  0  0  0  0  0  0  0
    6.4466    0.2166   -0.5330 C   0  0  0  0  0  0  0  0  0  0  0  0
    6.1194   -0.9567   -1.2174 C   0  0  0  0  0  0  0  0  0  0  0  0
    4.8238   -1.4693   -1.1556 C   0  0  0  0  0  0  0  0  0  0  0  0
    3.8375   -0.8164   -0.4033 C   0  0  0  0  0  0  0  0  0  0  0  0
    2.4225   -1.3463   -0.3317 C   0  0  0  0  0  0  0  0  0  0  0  0
    2.4513   -2.7607   -0.0845 O   0  0  0  0  0  0  0  0  0  0  0  0
    1.6394   -1.0818   -1.6314 C   0  0  0  0  0  0  0  0  0  0  0  0
    0.2562   -1.5280   -1.5365 N   0  0  0  0  0  0  0  0  0  0  0  0
   -0.6749   -0.7788   -0.8488 C   0  0  0  0  0  0  0  0  0  0  0  0
   -0.4159    0.3364   -0.4062 O   0  0  0  0  0  0  0  0  0  0  0  0
   -1.9692   -1.4212   -0.6689 C   0  0  0  0  0  0  0  0  0  0  0  0
   -2.9818   -1.0451    0.2109 C   0  0  0  0  0  0  0  0  0  0  0  0
   -3.0473    0.0608    1.2220 C   0  0  0  0  0  0  0  0  0  0  0  0
   -3.9594    1.1980    0.8172 C   0  0  0  0  0  0  0  0  0  0  0  0
   -5.0960    1.5103    1.5778 C   0  0  0  0  0  0  0  0  0  0  0  0
   -5.9350    2.5611    1.2015 C   0  0  0  0  0  0  0  0  0  0  0  0
   -5.6437    3.3152    0.0667 C   0  0  0  0  0  0  0  0  0  0  0  0
   -4.5111    3.0234   -0.6901 C   0  0  0  0  0  0  0  0  0  0  0  0
   -3.6714    1.9734   -0.3155 C   0  0  0  0  0  0  0  0  0  0  0  0
   -4.0111   -1.9311   -0.0028 N   0  0  0  0  0  0  0  0  0  0  0  0
   -5.3097   -1.9568    0.6304 C   0  0  0  0  0  0  0  0  0  0  0  0
   -3.7331   -2.8603   -0.9350 N   0  0  0  0  0  0  0  0  0  0  0  0
   -2.5085   -2.5381   -1.3473 C   0  0  0  0  0  0  0  0  0  0  0  0
    4.1796    0.3642    0.2744 C   0  0  0  0  0  0  0  0  0  0  0  0
    6.9311    3.5383    1.4773 H   0  0  0  0  0  0  0  0  0  0  0  0
    7.2130    2.9131   -0.1521 H   0  0  0  0  0  0  0  0  0  0  0  0
    7.7116    1.9620    1.3011 H   0  0  0  0  0  0  0  0  0  0  0  0
    7.4653    0.5821   -0.6057 H   0  0  0  0  0  0  0  0  0  0  0  0
    6.8781   -1.4722   -1.8013 H   0  0  0  0  0  0  0  0  0  0  0  0
    4.5866   -2.3838   -1.6968 H   0  0  0  0  0  0  0  0  0  0  0  0
    1.9009   -0.8992    0.5225 H   0  0  0  0  0  0  0  0  0  0  0  0
    3.1219   -2.9016    0.6074 H   0  0  0  0  0  0  0  0  0  0  0  0
    1.6504   -0.0148   -1.8814 H   0  0  0  0  0  0  0  0  0  0  0  0
    2.0776   -1.6371   -2.4682 H   0  0  0  0  0  0  0  0  0  0  0  0
    0.1133   -2.5275   -1.5890 H   0  0  0  0  0  0  0  0  0  0  0  0
   -3.3726   -0.3570    2.1834 H   0  0  0  0  0  0  0  0  0  0  0  0
   -2.0525    0.4731    1.4231 H   0  0  0  0  0  0  0  0  0  0  0  0
   -5.3360    0.9396    2.4717 H   0  0  0  0  0  0  0  0  0  0  0  0
   -6.8139    2.7949    1.7962 H   0  0  0  0  0  0  0  0  0  0  0  0
   -6.2954    4.1344   -0.2253 H   0  0  0  0  0  0  0  0  0  0  0  0
   -4.2765    3.6147   -1.5712 H   0  0  0  0  0  0  0  0  0  0  0  0
   -2.7842    1.7633   -0.9106 H   0  0  0  0  0  0  0  0  0  0  0  0
   -5.9330   -1.1915    0.1624 H   0  0  0  0  0  0  0  0  0  0  0  0
   -5.1933   -1.7686    1.6996 H   0  0  0  0  0  0  0  0  0  0  0  0
   -5.7610   -2.9431    0.4886 H   0  0  0  0  0  0  0  0  0  0  0  0
   -2.0621   -3.1308   -2.1350 H   0  0  0  0  0  0  0  0  0  0  0  0
    3.4292    0.8980    0.8566 H   0  0  0  0  0  0  0  0  0  0  0  0
  1  2  1  0
  2  3  1  0
  3  4  1  0
  4  5  2  0
  5  6  1  0
  6  7  2  0
  7  8  1  0
  8  9  1  0
  8 10  1  0
 10 11  1  0
 11 12  1  0
 12 13  2  0
 12 14  1  0
 14 15  2  0
 15 16  1  0
 16 17  1  0
 17 18  2  0
 18 19  1  0
 19 20  2  0
 20 21  1  0
 21 22  2  0
 15 23  1  0
 23 24  1  0
 23 25  1  0
 25 26  2  0
  7 27  1  0
 27  3  2  0
 26 14  1  0
 22 17  1  0
  1 28  1  0
  1 29  1  0
  1 30  1  0
  4 31  1  0
  5 32  1  0
  6 33  1  0
  8 34  1  0
  9 35  1  0
 10 36  1  0
 10 37  1  0
 11 38  1  0
 16 39  1  0
 16 40  1  0
 18 41  1  0
 19 42  1  0
 20 43  1  0
 21 44  1  0
 22 45  1  0
 24 46  1  0
 24 47  1  0
 24 48  1  0
 26 49  1  0
 27 50  1  0
M  END
$$$$
OCNT-2310144
     RDKit          3D

 52 55  0  0  0  0  0  0  0  0999 V2000
    6.9736    1.5626   -0.0197 C   0  0  0  0  0  0  0  0  0  0  0  0
    5.8297    0.6581    0.0896 N   0  0  0  0  0  0  0  0  0  0  0  0
    5.4780    0.1065   -1.2220 C   0  0  0  0  0  0  0  0  0  0  0  0
    4.3122   -0.8785   -1.1196 C   0  0  0  0  0  0  0  0  0  0  0  0
    3.0733   -0.2221   -0.4824 C   0  0  0  0  0  0  0  0  0  0  0  0
    1.9681   -1.1896   -0.3082 N   0  0  0  0  0  0  0  0  0  0  0  0
    1.5141   -1.8084   -1.5548 C   0  0  0  0  0  0  0  0  0  0  0  0
    0.2201   -2.4902   -1.1408 C   0  0  0  0  0  0  0  0  0  0  0  0
   -0.3897   -1.5620   -0.0907 C   0  0  0  0  0  0  0  0  0  0  0  0
   -1.5920   -0.9018   -0.5870 N   0  0  0  0  0  0  0  0  0  0  0  0
   -2.2908   -0.0193    0.2148 C   0  0  0  0  0  0  0  0  0  0  0  0
   -1.8945    0.3818    1.3001 O   0  0  0  0  0  0  0  0  0  0  0  0
   -3.5958    0.4265   -0.3387 C   0  0  0  0  0  0  0  0  0  0  0  0
   -3.5924    0.9461   -1.6419 C   0  0  0  0  0  0  0  0  0  0  0  0
   -4.7826    1.3810   -2.2076 C   0  0  0  0  0  0  0  0  0  0  0  0
   -4.7840    2.0819   -3.9633 Br  0  0  0  0  0  0  0  0  0  0  0  0
   -5.9747    1.3054   -1.4919 C   0  0  0  0  0  0  0  0  0  0  0  0
   -5.9951    0.7918   -0.1850 C   0  0  0  0  0  0  0  0  0  0  0  0
   -7.2064    0.7199    0.5228 C   0  0  0  0  0  0  0  0  0  0  0  0
   -7.2524    0.2086    1.8186 C   0  0  0  0  0  0  0  0  0  0  0  0
   -6.0866   -0.2388    2.4250 C   0  0  0  0  0  0  0  0  0  0  0  0
   -4.8740   -0.1744    1.7355 C   0  0  0  0  0  0  0  0  0  0  0  0
   -4.7936    0.3427    0.4201 C   0  0  0  0  0  0  0  0  0  0  0  0
    0.7490   -0.5833    0.2598 C   0  0  0  0  0  0  0  0  0  0  0  0
    3.4922    0.4010    0.8626 C   0  0  0  0  0  0  0  0  0  0  0  0
    4.6845    1.3442    0.6968 C   0  0  0  0  0  0  0  0  0  0  0  0
    7.8436    1.0354   -0.4266 H   0  0  0  0  0  0  0  0  0  0  0  0
    6.7604    2.4242   -0.6628 H   0  0  0  0  0  0  0  0  0  0  0  0
    7.2665    1.9340    0.9686 H   0  0  0  0  0  0  0  0  0  0  0  0
    6.3390   -0.4289   -1.6407 H   0  0  0  0  0  0  0  0  0  0  0  0
    5.2204    0.9075   -1.9277 H   0  0  0  0  0  0  0  0  0  0  0  0
    4.0849   -1.2381   -2.1297 H   0  0  0  0  0  0  0  0  0  0  0  0
    4.6214   -1.7519   -0.5298 H   0  0  0  0  0  0  0  0  0  0  0  0
    2.7398    0.5882   -1.1467 H   0  0  0  0  0  0  0  0  0  0  0  0
    1.3162   -1.0587   -2.3314 H   0  0  0  0  0  0  0  0  0  0  0  0
    2.2236   -2.5450   -1.9436 H   0  0  0  0  0  0  0  0  0  0  0  0
   -0.4313   -2.6805   -1.9997 H   0  0  0  0  0  0  0  0  0  0  0  0
    0.4501   -3.4580   -0.6768 H   0  0  0  0  0  0  0  0  0  0  0  0
   -0.6813   -2.1443    0.7921 H   0  0  0  0  0  0  0  0  0  0  0  0
   -2.1131   -1.3631   -1.3223 H   0  0  0  0  0  0  0  0  0  0  0  0
   -2.6605    1.0267   -2.1961 H   0  0  0  0  0  0  0  0  0  0  0  0
   -6.8980    1.6519   -1.9526 H   0  0  0  0  0  0  0  0  0  0  0  0
   -8.1331    1.0652    0.0678 H   0  0  0  0  0  0  0  0  0  0  0  0
   -8.1975    0.1624    2.3535 H   0  0  0  0  0  0  0  0  0  0  0  0
   -6.1134   -0.6350    3.4370 H   0  0  0  0  0  0  0  0  0  0  0  0
   -3.9812   -0.5298    2.2481 H   0  0  0  0  0  0  0  0  0  0  0  0
    0.5595    0.4047   -0.1797 H   0  0  0  0  0  0  0  0  0  0  0  0
    0.8322   -0.4714    1.3459 H   0  0  0  0  0  0  0  0  0  0  0  0
    3.7489   -0.3900    1.5801 H   0  0  0  0  0  0  0  0  0  0  0  0
    2.6663    0.9735    1.3004 H   0  0  0  0  0  0  0  0  0  0  0  0
    4.9621    1.7187    1.6898 H   0  0  0  0  0  0  0  0  0  0  0  0
    4.3844    2.2126    0.0953 H   0  0  0  0  0  0  0  0  0  0  0  0
  1  2  1  0
  2  3  1  0
  3  4  1  0
  4  5  1  0
  5  6  1  0
  6  7  1  0
  7  8  1  0
  8  9  1  0
  9 10  1  0
 10 11  1  0
 11 12  2  0
 11 13  1  0
 13 14  2  0
 14 15  1  0
 15 16  1  0
 15 17  2  0
 17 18  1  0
 18 19  2  0
 19 20  1  0
 20 21  2  0
 21 22  1  0
 22 23  2  0
  9 24  1  0
  5 25  1  0
 25 26  1  0
 26  2  1  0
 24  6  1  0
 23 13  1  0
 23 18  1  0
  1 27  1  0
  1 28  1  0
  1 29  1  0
  3 30  1  0
  3 31  1  0
  4 32  1  0
  4 33  1  0
  5 34  1  0
  7 35  1  0
  7 36  1  0
  8 37  1  0
  8 38  1  0
  9 39  1  0
 10 40  1  0
 14 41  1  0
 17 42  1  0
 19 43  1  0
 20 44  1  0
 21 45  1  0
 22 46  1  0
 24 47  1  0
 24 48  1  0
 25 49  1  0
 25 50  1  0
 26 51  1  0
 26 52  1  0
M  END
$$$$
OCNT-2310153
     RDKit          3D

 41 43  0  0  0  0  0  0  0  0999 V2000
    6.1351    0.7794   -1.6860 C   0  0  0  0  0  0  0  0  0  0  0  0
    5.1594    1.5373   -0.9440 N   0  0  0  0  0  0  0  0  0  0  0  0
    5.3851    2.8375   -0.6819 N   0  0  0  0  0  0  0  0  0  0  0  0
    4.3534    3.2905    0.0115 N   0  0  0  0  0  0  0  0  0  0  0  0
    3.4752    2.2594    0.1765 C   0  0  0  0  0  0  0  0  0  0  0  0
    3.9561    1.1161   -0.4325 C   0  0  0  0  0  0  0  0  0  0  0  0
    3.4274   -0.2147   -0.5475 C   0  0  0  0  0  0  0  0  0  0  0  0
    4.0423   -1.1368   -1.0746 O   0  0  0  0  0  0  0  0  0  0  0  0
    2.1629   -0.3925   -0.0364 N   0  0  0  0  0  0  0  0  0  0  0  0
    1.4364   -1.6520   -0.1921 C   0  0  0  0  0  0  0  0  0  0  0  0
    0.7518   -1.7250   -1.5539 C   0  0  0  0  0  0  0  0  0  0  0  0
   -0.5162   -0.8870   -1.3677 C   0  0  0  0  0  0  0  0  0  0  0  0
   -0.7922   -0.9424    0.0726 N   0  0  0  0  0  0  0  0  0  0  0  0
   -2.0215   -0.6357    0.6134 C   0  0  0  0  0  0  0  0  0  0  0  0
   -2.3714   -0.9990    1.9207 C   0  0  0  0  0  0  0  0  0  0  0  0
   -3.6161   -0.6729    2.4706 C   0  0  0  0  0  0  0  0  0  0  0  0
   -4.5519    0.0391    1.7250 C   0  0  0  0  0  0  0  0  0  0  0  0
   -4.2395    0.4295    0.4279 C   0  0  0  0  0  0  0  0  0  0  0  0
   -5.0420    1.1362   -0.4227 O   0  0  0  0  0  0  0  0  0  0  0  0
   -6.3193    1.5298    0.0470 C   0  0  0  0  0  0  0  0  0  0  0  0
   -6.2166    2.3390    1.1233 F   0  0  0  0  0  0  0  0  0  0  0  0
   -6.9484    2.2161   -0.9332 F   0  0  0  0  0  0  0  0  0  0  0  0
   -7.0781    0.4568    0.3591 F   0  0  0  0  0  0  0  0  0  0  0  0
   -2.9852    0.0911   -0.1067 C   0  0  0  0  0  0  0  0  0  0  0  0
    0.2345   -1.7277    0.7649 C   0  0  0  0  0  0  0  0  0  0  0  0
    5.6579    0.3793   -2.5837 H   0  0  0  0  0  0  0  0  0  0  0  0
    6.5097   -0.0244   -1.0481 H   0  0  0  0  0  0  0  0  0  0  0  0
    6.9628    1.4331   -1.9744 H   0  0  0  0  0  0  0  0  0  0  0  0
    2.5568    2.4035    0.7263 H   0  0  0  0  0  0  0  0  0  0  0  0
    1.6075    0.4115    0.2267 H   0  0  0  0  0  0  0  0  0  0  0  0
    2.1338   -2.4815   -0.0371 H   0  0  0  0  0  0  0  0  0  0  0  0
    0.4722   -2.7637   -1.7693 H   0  0  0  0  0  0  0  0  0  0  0  0
    1.3648   -1.3606   -2.3837 H   0  0  0  0  0  0  0  0  0  0  0  0
   -1.3304   -1.3057   -1.9698 H   0  0  0  0  0  0  0  0  0  0  0  0
   -0.3388    0.1506   -1.6726 H   0  0  0  0  0  0  0  0  0  0  0  0
   -1.6802   -1.5557    2.5468 H   0  0  0  0  0  0  0  0  0  0  0  0
   -3.8516   -0.9774    3.4876 H   0  0  0  0  0  0  0  0  0  0  0  0
   -5.5036    0.2698    2.1935 H   0  0  0  0  0  0  0  0  0  0  0  0
   -2.7665    0.4255   -1.1178 H   0  0  0  0  0  0  0  0  0  0  0  0
    0.4851   -1.3110    1.7465 H   0  0  0  0  0  0  0  0  0  0  0  0
   -0.1008   -2.7655    0.8777 H   0  0  0  0  0  0  0  0  0  0  0  0
  1  2  1  0
  2  3  1  0
  3  4  2  0
  4  5  1  0
  5  6  2  0
  6  7  1  0
  7  8  2  0
  7  9  1  0
  9 10  1  0
 10 11  1  0
 11 12  1  0
 12 13  1  0
 13 14  1  0
 14 15  2  0
 15 16  1  0
 16 17  2  0
 17 18  1  0
 18 19  1  0
 19 20  1  0
 20 21  1  0
 20 22  1  0
 20 23  1  0
 18 24  2  0
 13 25  1  0
  6  2  1  0
 25 10  1  0
 24 14  1  0
  1 26  1  0
  1 27  1  0
  1 28  1  0
  5 29  1  0
  9 30  1  0
 10 31  1  0
 11 32  1  0
 11 33  1  0
 12 34  1  0
 12 35  1  0
 15 36  1  0
 16 37  1  0
 17 38  1  0
 24 39  1  0
 25 40  1  0
 25 41  1  0
M  END
$$$$
OCNT-2310158
     RDKit          3D

 37 39  0  0  0  0  0  0  0  0999 V2000
    7.3474    0.6605   -0.5925 C   0  0  0  0  0  0  0  0  0  0  0  0
    5.9105    0.3330   -0.7630 C   0  0  0  0  0  0  0  0  0  0  0  0
    5.3510   -0.0281   -1.8943 N   0  0  0  0  0  0  0  0  0  0  0  0
    4.0018   -0.2668   -1.7457 N   0  0  0  0  0  0  0  0  0  0  0  0
    3.5600   -0.0930   -0.5126 C   0  0  0  0  0  0  0  0  0  0  0  0
    2.2595   -0.2611   -0.1318 N   0  0  0  0  0  0  0  0  0  0  0  0
    1.2738   -0.6544   -1.1417 C   0  0  0  0  0  0  0  0  0  0  0  0
   -0.1182   -0.0976   -0.7920 C   0  0  0  0  0  0  0  0  0  0  0  0
   -0.5569   -0.4184    0.5733 N   0  0  0  0  0  0  0  0  0  0  0  0
   -1.8768   -0.4298    1.0068 C   0  0  0  0  0  0  0  0  0  0  0  0
   -2.1912   -0.9421    2.0771 O   0  0  0  0  0  0  0  0  0  0  0  0
   -2.7615    0.1821    0.1488 N   0  0  0  0  0  0  0  0  0  0  0  0
   -4.1667    0.2219    0.2703 C   0  0  0  0  0  0  0  0  0  0  0  0
   -4.8728    1.0402   -0.6154 C   0  0  0  0  0  0  0  0  0  0  0  0
   -6.2637    1.1058   -0.5473 C   0  0  0  0  0  0  0  0  0  0  0  0
   -6.9114    0.3417    0.4073 C   0  0  0  0  0  0  0  0  0  0  0  0
   -6.2703   -0.4660    1.2756 N   0  0  0  0  0  0  0  0  0  0  0  0
   -4.9143   -0.5090    1.1898 C   0  0  0  0  0  0  0  0  0  0  0  0
    0.4722   -0.9549    1.4682 C   0  0  0  0  0  0  0  0  0  0  0  0
    1.8434   -0.2821    1.2745 C   0  0  0  0  0  0  0  0  0  0  0  0
    4.8284    0.4073    0.5612 S   0  0  0  0  0  0  0  0  0  0  0  0
    7.4741    1.6913   -0.2469 H   0  0  0  0  0  0  0  0  0  0  0  0
    7.8177   -0.0130    0.1310 H   0  0  0  0  0  0  0  0  0  0  0  0
    7.8797    0.5570   -1.5435 H   0  0  0  0  0  0  0  0  0  0  0  0
    1.2350   -1.7495   -1.1956 H   0  0  0  0  0  0  0  0  0  0  0  0
    1.5409   -0.2844   -2.1390 H   0  0  0  0  0  0  0  0  0  0  0  0
   -0.1065    0.9965   -0.8665 H   0  0  0  0  0  0  0  0  0  0  0  0
   -0.8545   -0.4780   -1.5083 H   0  0  0  0  0  0  0  0  0  0  0  0
   -2.3601    0.7958   -0.5408 H   0  0  0  0  0  0  0  0  0  0  0  0
   -4.3563    1.6345   -1.3632 H   0  0  0  0  0  0  0  0  0  0  0  0
   -6.8282    1.7376   -1.2237 H   0  0  0  0  0  0  0  0  0  0  0  0
   -7.9934    0.3576    0.5014 H   0  0  0  0  0  0  0  0  0  0  0  0
   -4.4581   -1.1830    1.9070 H   0  0  0  0  0  0  0  0  0  0  0  0
    0.1619   -0.8508    2.5137 H   0  0  0  0  0  0  0  0  0  0  0  0
    0.5471   -2.0287    1.2556 H   0  0  0  0  0  0  0  0  0  0  0  0
    2.5682   -0.8231    1.8941 H   0  0  0  0  0  0  0  0  0  0  0  0
    1.7882    0.7514    1.6378 H   0  0  0  0  0  0  0  0  0  0  0  0
  1  2  1  0
  2  3  2  0
  3  4  1  0
  4  5  2  0
  5  6  1  0
  6  7  1  0
  7  8  1  0
  8  9  1  0
  9 10  1  0
 10 11  2  0
 10 12  1  0
 12 13  1  0
 13 14  1  0
 14 15  2  0
 15 16  1  0
 16 17  2  0
 17 18  1  0
  9 19  1  0
 19 20  1  0
  5 21  1  0
 21  2  1  0
 20  6  1  0
 18 13  2  0
  1 22  1  0
  1 23  1  0
  1 24  1  0
  7 25  1  0
  7 26  1  0
  8 27  1  0
  8 28  1  0
 12 29  1  0
 14 30  1  0
 15 31  1  0
 16 32  1  0
 18 33  1  0
 19 34  1  0
 19 35  1  0
 20 36  1  0
 20 37  1  0
M  END
$$$$
OCNT-2310161
     RDKit          3D

 44 47  0  0  0  0  0  0  0  0999 V2000
   -4.6774    3.1391    1.5950 C   0  0  0  0  0  0  0  0  0  0  0  0
   -4.2955    2.6298    2.8329 C   0  0  0  0  0  0  0  0  0  0  0  0
   -3.3051    1.6487    2.9089 C   0  0  0  0  0  0  0  0  0  0  0  0
   -2.6773    1.1647    1.7469 C   0  0  0  0  0  0  0  0  0  0  0  0
   -1.6174    0.0682    1.8771 C   0  0  0  0  0  0  0  0  0  0  0  0
   -0.6700    0.0818    0.7419 N   0  0  0  0  0  0  0  0  0  0  0  0
    0.4577   -0.8271    0.9786 C   0  0  0  0  0  0  0  0  0  0  0  0
    1.5260   -0.6238   -0.0719 C   0  0  0  0  0  0  0  0  0  0  0  0
    1.3091   -1.0329   -1.3933 C   0  0  0  0  0  0  0  0  0  0  0  0
    2.2926   -0.8485   -2.3727 C   0  0  0  0  0  0  0  0  0  0  0  0
    3.5137   -0.2413   -2.0466 C   0  0  0  0  0  0  0  0  0  0  0  0
    4.5228   -0.0561   -3.0371 N   0  0  0  0  0  0  0  0  0  0  0  0
    5.7539    0.5478   -2.8793 C   0  0  0  0  0  0  0  0  0  0  0  0
    6.3785    0.4790   -4.1021 C   0  0  0  0  0  0  0  0  0  0  0  0
    5.5794   -0.1373   -5.0197 N   0  0  0  0  0  0  0  0  0  0  0  0
    4.4813   -0.4435   -4.3615 C   0  0  0  0  0  0  0  0  0  0  0  0
    3.7288    0.1770   -0.7246 C   0  0  0  0  0  0  0  0  0  0  0  0
    2.7426   -0.0132    0.2505 C   0  0  0  0  0  0  0  0  0  0  0  0
   -2.2548   -1.2854    2.0651 C   0  0  0  0  0  0  0  0  0  0  0  0
   -2.0178   -2.1440    3.0416 N   0  0  0  0  0  0  0  0  0  0  0  0
   -2.8243   -3.2232    2.7887 C   0  0  0  0  0  0  0  0  0  0  0  0
   -3.5548   -3.0293    1.6408 C   0  0  0  0  0  0  0  0  0  0  0  0
   -3.1727   -1.8013    1.1799 N   0  0  0  0  0  0  0  0  0  0  0  0
   -3.0857    1.6813    0.5048 C   0  0  0  0  0  0  0  0  0  0  0  0
   -4.0751    2.6649    0.4320 C   0  0  0  0  0  0  0  0  0  0  0  0
   -5.4462    3.9032    1.5356 H   0  0  0  0  0  0  0  0  0  0  0  0
   -4.7701    2.9927    3.7404 H   0  0  0  0  0  0  0  0  0  0  0  0
   -3.0278    1.2525    3.8860 H   0  0  0  0  0  0  0  0  0  0  0  0
   -1.0448    0.3040    2.7862 H   0  0  0  0  0  0  0  0  0  0  0  0
   -0.2907    1.0269    0.6862 H   0  0  0  0  0  0  0  0  0  0  0  0
    0.1396   -1.8761    0.9388 H   0  0  0  0  0  0  0  0  0  0  0  0
    0.8929   -0.6583    1.9718 H   0  0  0  0  0  0  0  0  0  0  0  0
    0.3630   -1.4973   -1.6652 H   0  0  0  0  0  0  0  0  0  0  0  0
    2.0615   -1.1908   -3.3771 H   0  0  0  0  0  0  0  0  0  0  0  0
    6.0915    0.9743   -1.9462 H   0  0  0  0  0  0  0  0  0  0  0  0
    7.3614    0.8476   -4.3666 H   0  0  0  0  0  0  0  0  0  0  0  0
    3.6340   -0.9468   -4.8067 H   0  0  0  0  0  0  0  0  0  0  0  0
    4.6529    0.6518   -0.4098 H   0  0  0  0  0  0  0  0  0  0  0  0
    2.9369    0.3180    1.2680 H   0  0  0  0  0  0  0  0  0  0  0  0
   -2.8336   -4.0850    3.4443 H   0  0  0  0  0  0  0  0  0  0  0  0
   -4.2811   -3.6412    1.1250 H   0  0  0  0  0  0  0  0  0  0  0  0
   -3.4888   -1.3398    0.3370 H   0  0  0  0  0  0  0  0  0  0  0  0
   -2.6334    1.3253   -0.4198 H   0  0  0  0  0  0  0  0  0  0  0  0
   -4.3759    3.0636   -0.5343 H   0  0  0  0  0  0  0  0  0  0  0  0
  1  2  2  0
  2  3  1  0
  3  4  2  0
  4  5  1  0
  5  6  1  0
  6  7  1  0
  7  8  1  0
  8  9  1  0
  9 10  2  0
 10 11  1  0
 11 12  1  0
 12 13  1  0
 13 14  2  0
 14 15  1  0
 15 16  2  0
 11 17  2  0
 17 18  1  0
  5 19  1  0
 19 20  2  0
 20 21  1  0
 21 22  2  0
 22 23  1  0
  4 24  1  0
 24 25  2  0
 25  1  1  0
 18  8  2  0
 23 19  1  0
 16 12  1  0
  1 26  1  0
  2 27  1  0
  3 28  1  0
  5 29  1  0
  6 30  1  0
  7 31  1  0
  7 32  1  0
  9 33  1  0
 10 34  1  0
 13 35  1  0
 14 36  1  0
 16 37  1  0
 17 38  1  0
 18 39  1  0
 21 40  1  0
 22 41  1  0
 23 42  1  0
 24 43  1  0
 25 44  1  0
M  END
$$$$
OCNT-2310163
     RDKit          3D

 44 46  0  0  0  0  0  0  0  0999 V2000
   -5.2983    2.1025   -1.3810 C   0  0  0  0  0  0  0  0  0  0  0  0
   -4.2844    1.3449   -0.7352 O   0  0  0  0  0  0  0  0  0  0  0  0
   -4.6429    0.1346   -0.1936 C   0  0  0  0  0  0  0  0  0  0  0  0
   -5.9701   -0.2937   -0.0528 C   0  0  0  0  0  0  0  0  0  0  0  0
   -6.2606   -1.5401    0.5073 C   0  0  0  0  0  0  0  0  0  0  0  0
   -5.2308   -2.3693    0.9370 C   0  0  0  0  0  0  0  0  0  0  0  0
   -3.9063   -1.9524    0.8083 C   0  0  0  0  0  0  0  0  0  0  0  0
   -3.5922   -0.7029    0.2427 C   0  0  0  0  0  0  0  0  0  0  0  0
   -2.1820   -0.2928    0.1382 C   0  0  0  0  0  0  0  0  0  0  0  0
   -1.5778    0.8579    0.6066 C   0  0  0  0  0  0  0  0  0  0  0  0
   -0.1858    0.9062    0.3066 C   0  0  0  0  0  0  0  0  0  0  0  0
    0.2464   -0.2150   -0.3777 C   0  0  0  0  0  0  0  0  0  0  0  0
    1.5811   -0.5451   -0.8658 C   0  0  0  0  0  0  0  0  0  0  0  0
    1.8057   -1.3583   -1.7611 O   0  0  0  0  0  0  0  0  0  0  0  0
    2.6221    0.2330   -0.3126 N   0  0  0  0  0  0  0  0  0  0  0  0
    3.5698    0.6824   -1.3366 C   0  0  0  0  0  0  0  0  0  0  0  0
    4.6746    1.6017   -0.8328 C   0  0  0  0  0  0  0  0  0  0  0  0
    5.7313    0.9211    0.0385 C   0  0  0  0  0  0  0  0  0  0  0  0
    5.5702   -0.5065    0.1959 N   0  0  0  0  0  0  0  0  0  0  0  0
    4.4787   -1.1189    0.7640 C   0  0  0  0  0  0  0  0  0  0  0  0
    4.5693   -2.2943    1.1118 O   0  0  0  0  0  0  0  0  0  0  0  0
    3.2101   -0.2508    0.9670 C   0  0  2  0  0  0  0  0  0  0  0  0
    2.2528   -0.9674    1.9261 C   0  0  0  0  0  0  0  0  0  0  0  0
   -1.0513   -1.2913   -0.6786 S   0  0  0  0  0  0  0  0  0  0  0  0
   -5.7813    1.5265   -2.1774 H   0  0  0  0  0  0  0  0  0  0  0  0
   -6.0318    2.4722   -0.6572 H   0  0  0  0  0  0  0  0  0  0  0  0
   -4.8216    2.9725   -1.8430 H   0  0  0  0  0  0  0  0  0  0  0  0
   -6.8057    0.3230   -0.3666 H   0  0  0  0  0  0  0  0  0  0  0  0
   -7.2942   -1.8615    0.6092 H   0  0  0  0  0  0  0  0  0  0  0  0
   -5.4550   -3.3387    1.3746 H   0  0  0  0  0  0  0  0  0  0  0  0
   -3.1140   -2.6101    1.1605 H   0  0  0  0  0  0  0  0  0  0  0  0
   -2.1177    1.6341    1.1359 H   0  0  0  0  0  0  0  0  0  0  0  0
    0.4652    1.7275    0.5792 H   0  0  0  0  0  0  0  0  0  0  0  0
    3.9951   -0.1852   -1.8577 H   0  0  0  0  0  0  0  0  0  0  0  0
    2.9811    1.2233   -2.0896 H   0  0  0  0  0  0  0  0  0  0  0  0
    4.2424    2.4483   -0.2849 H   0  0  0  0  0  0  0  0  0  0  0  0
    5.1819    2.0384   -1.7025 H   0  0  0  0  0  0  0  0  0  0  0  0
    5.7357    1.3669    1.0398 H   0  0  0  0  0  0  0  0  0  0  0  0
    6.7267    1.0866   -0.3882 H   0  0  0  0  0  0  0  0  0  0  0  0
    6.3890   -1.1042    0.1600 H   0  0  0  0  0  0  0  0  0  0  0  0
    3.5302    0.6550    1.4977 H   0  0  0  0  0  0  0  0  0  0  0  0
    1.4278   -0.3170    2.2281 H   0  0  0  0  0  0  0  0  0  0  0  0
    1.8393   -1.8813    1.4867 H   0  0  0  0  0  0  0  0  0  0  0  0
    2.7775   -1.2617    2.8426 H   0  0  0  0  0  0  0  0  0  0  0  0
  1  2  1  0
  2  3  1  0
  3  4  2  0
  4  5  1  0
  5  6  2  0
  6  7  1  0
  7  8  2  0
  8  9  1  0
  9 10  2  0
 10 11  1  0
 11 12  2  0
 12 13  1  0
 13 14  2  0
 13 15  1  0
 15 16  1  0
 16 17  1  0
 17 18  1  0
 18 19  1  0
 19 20  1  0
 20 21  2  0
 20 22  1  0
 22 23  1  0
 12 24  1  0
  8  3  1  0
 24  9  1  0
 22 15  1  0
  1 25  1  0
  1 26  1  0
  1 27  1  0
  4 28  1  0
  5 29  1  0
  6 30  1  0
  7 31  1  0
 10 32  1  0
 11 33  1  0
 16 34  1  0
 16 35  1  0
 17 36  1  0
 17 37  1  0
 18 38  1  0
 18 39  1  0
 19 40  1  0
 22 41  1  1
 23 42  1  0
 23 43  1  0
 23 44  1  0
M  END
$$$$
OCNT-2310174
     RDKit          3D

 43 47  0  0  0  0  0  0  0  0999 V2000
   -6.7431    1.5185    2.0411 Cl  0  0  0  0  0  0  0  0  0  0  0  0
   -6.0341    0.3427    1.0211 C   0  0  0  0  0  0  0  0  0  0  0  0
   -6.7120   -0.8210    0.6617 C   0  0  0  0  0  0  0  0  0  0  0  0
   -6.0909   -1.7481   -0.1690 C   0  0  0  0  0  0  0  0  0  0  0  0
   -4.7945   -1.5295   -0.6510 C   0  0  0  0  0  0  0  0  0  0  0  0
   -4.1342   -0.3450   -0.2793 C   0  0  0  0  0  0  0  0  0  0  0  0
   -4.7299    0.6064    0.5601 C   0  0  0  0  0  0  0  0  0  0  0  0
   -3.7808    1.6570    0.7354 C   0  0  0  0  0  0  0  0  0  0  0  0
   -2.6468    1.3369    0.0179 C   0  0  0  0  0  0  0  0  0  0  0  0
   -1.3618    2.0740   -0.1678 C   0  0  0  0  0  0  0  0  0  0  0  0
   -0.2817    1.1858   -0.6343 N   0  0  0  0  0  0  0  0  0  0  0  0
    0.9152    1.9914   -0.9559 C   0  0  0  0  0  0  0  0  0  0  0  0
    2.1398    1.1690   -1.1790 C   0  0  0  0  0  0  0  0  0  0  0  0
    2.6885    0.7760   -2.3100 N   0  0  0  0  0  0  0  0  0  0  0  0
    3.7931    0.0259   -1.9609 N   0  0  0  0  0  0  0  0  0  0  0  0
    3.8447    0.0174   -0.6427 C   0  0  0  0  0  0  0  0  0  0  0  0
    4.7992   -0.6200    0.2553 C   0  0  0  0  0  0  0  0  0  0  0  0
    5.8578   -1.3722   -0.2772 C   0  0  0  0  0  0  0  0  0  0  0  0
    6.7878   -1.9935    0.5611 C   0  0  0  0  0  0  0  0  0  0  0  0
    6.6715   -1.8696    1.9438 C   0  0  0  0  0  0  0  0  0  0  0  0
    5.6263   -1.1270    2.4893 C   0  0  0  0  0  0  0  0  0  0  0  0
    4.6956   -0.5067    1.6508 C   0  0  0  0  0  0  0  0  0  0  0  0
    2.8231    0.7345   -0.0741 O   0  0  0  0  0  0  0  0  0  0  0  0
   -0.7423    0.4022   -1.7986 C   0  0  0  0  0  0  0  0  0  0  0  0
   -1.8849   -0.5428   -1.4061 C   0  0  0  0  0  0  0  0  0  0  0  0
   -2.8831    0.1313   -0.5946 N   0  0  0  0  0  0  0  0  0  0  0  0
   -7.7171   -1.0061    1.0293 H   0  0  0  0  0  0  0  0  0  0  0  0
   -6.6177   -2.6579   -0.4481 H   0  0  0  0  0  0  0  0  0  0  0  0
   -4.3191   -2.2627   -1.2956 H   0  0  0  0  0  0  0  0  0  0  0  0
   -3.9186    2.5510    1.3299 H   0  0  0  0  0  0  0  0  0  0  0  0
   -1.0722    2.5203    0.7921 H   0  0  0  0  0  0  0  0  0  0  0  0
   -1.5317    2.8940   -0.8787 H   0  0  0  0  0  0  0  0  0  0  0  0
    1.1315    2.6693   -0.1200 H   0  0  0  0  0  0  0  0  0  0  0  0
    0.7371    2.6230   -1.8354 H   0  0  0  0  0  0  0  0  0  0  0  0
    5.9639   -1.4796   -1.3563 H   0  0  0  0  0  0  0  0  0  0  0  0
    7.6015   -2.5734    0.1328 H   0  0  0  0  0  0  0  0  0  0  0  0
    7.3945   -2.3531    2.5969 H   0  0  0  0  0  0  0  0  0  0  0  0
    5.5337   -1.0305    3.5687 H   0  0  0  0  0  0  0  0  0  0  0  0
    3.8874    0.0656    2.1014 H   0  0  0  0  0  0  0  0  0  0  0  0
    0.0652   -0.2146   -2.2076 H   0  0  0  0  0  0  0  0  0  0  0  0
   -1.0732    1.0728   -2.6028 H   0  0  0  0  0  0  0  0  0  0  0  0
   -2.3792   -0.9316   -2.3019 H   0  0  0  0  0  0  0  0  0  0  0  0
   -1.5084   -1.3802   -0.8073 H   0  0  0  0  0  0  0  0  0  0  0  0
  1  2  1  0
  2  3  1  0
  3  4  2  0
  4  5  1  0
  5  6  2  0
  6  7  1  0
  7  8  1  0
  8  9  2  0
  9 10  1  0
 10 11  1  0
 11 12  1  0
 12 13  1  0
 13 14  2  0
 14 15  1  0
 15 16  2  0
 16 17  1  0
 17 18  2  0
 18 19  1  0
 19 20  2  0
 20 21  1  0
 21 22  2  0
 16 23  1  0
 11 24  1  0
 24 25  1  0
 25 26  1  0
  7  2  2  0
 26  9  1  0
 26  6  1  0
 23 13  1  0
 22 17  1  0
  3 27  1  0
  4 28  1  0
  5 29  1  0
  8 30  1  0
 10 31  1  0
 10 32  1  0
 12 33  1  0
 12 34  1  0
 18 35  1  0
 19 36  1  0
 20 37  1  0
 21 38  1  0
 22 39  1  0
 24 40  1  0
 24 41  1  0
 25 42  1  0
 25 43  1  0
M  END
$$$$
OCNT-2310175
     RDKit          3D

 44 46  0  0  0  0  0  0  0  0999 V2000
    4.5693    3.5957   -0.6164 C   0  0  0  0  0  0  0  0  0  0  0  0
    4.2814    2.2493   -0.2336 O   0  0  0  0  0  0  0  0  0  0  0  0
    3.0096    1.8556   -0.5228 C   0  0  0  0  0  0  0  0  0  0  0  0
    2.1642    2.5591   -1.0539 O   0  0  0  0  0  0  0  0  0  0  0  0
    2.7949    0.4360   -0.0929 C   0  0  0  0  0  0  0  0  0  0  0  0
    3.7774   -0.2856    0.5442 C   0  0  0  0  0  0  0  0  0  0  0  0
    3.4242   -1.5625    0.8802 C   0  0  0  0  0  0  0  0  0  0  0  0
    2.2158   -2.0900    0.6183 N   0  0  0  0  0  0  0  0  0  0  0  0
    1.3052   -1.3269   -0.0094 C   0  0  0  0  0  0  0  0  0  0  0  0
    0.0563   -1.8625   -0.3088 N   0  0  0  0  0  0  0  0  0  0  0  0
   -0.2929   -3.1097    0.3683 C   0  0  0  0  0  0  0  0  0  0  0  0
   -1.4194   -3.8201   -0.3822 C   0  0  0  0  0  0  0  0  0  0  0  0
   -2.6104   -2.9028   -0.6302 C   0  0  0  0  0  0  0  0  0  0  0  0
   -2.1595   -1.6195   -1.3231 C   0  0  0  0  0  0  0  0  0  0  0  0
   -1.0268   -0.8943   -0.5671 C   0  0  0  0  0  0  0  0  0  0  0  0
   -1.5062   -0.2291    0.7454 C   0  0  0  0  0  0  0  0  0  0  0  0
   -2.3271    1.0268    0.4702 C   0  0  0  0  0  0  0  0  0  0  0  0
   -1.5659    2.2727   -0.0615 C   0  0  0  0  0  0  0  0  0  0  0  0
   -2.4988    3.1283    0.8186 C   0  0  0  0  0  0  0  0  0  0  0  0
   -2.6696    1.8869    1.7175 C   0  0  0  0  0  0  0  0  0  0  0  0
    1.5720   -0.0674   -0.3724 N   0  0  0  0  0  0  0  0  0  0  0  0
    3.9198    4.2942   -0.0795 H   0  0  0  0  0  0  0  0  0  0  0  0
    5.6067    3.8097   -0.3450 H   0  0  0  0  0  0  0  0  0  0  0  0
    4.4624    3.7180   -1.6988 H   0  0  0  0  0  0  0  0  0  0  0  0
    4.7571    0.1084    0.7710 H   0  0  0  0  0  0  0  0  0  0  0  0
    4.1186   -2.2270    1.3860 H   0  0  0  0  0  0  0  0  0  0  0  0
    0.5515   -3.8090    0.4027 H   0  0  0  0  0  0  0  0  0  0  0  0
   -0.5957   -2.9089    1.4033 H   0  0  0  0  0  0  0  0  0  0  0  0
   -1.0388   -4.1784   -1.3474 H   0  0  0  0  0  0  0  0  0  0  0  0
   -1.7407   -4.7033    0.1812 H   0  0  0  0  0  0  0  0  0  0  0  0
   -3.1084   -2.6718    0.3177 H   0  0  0  0  0  0  0  0  0  0  0  0
   -3.3476   -3.4189   -1.2557 H   0  0  0  0  0  0  0  0  0  0  0  0
   -3.0195   -0.9591   -1.4731 H   0  0  0  0  0  0  0  0  0  0  0  0
   -1.7957   -1.8808   -2.3262 H   0  0  0  0  0  0  0  0  0  0  0  0
   -0.6731   -0.1151   -1.2552 H   0  0  0  0  0  0  0  0  0  0  0  0
   -0.6446    0.0376    1.3700 H   0  0  0  0  0  0  0  0  0  0  0  0
   -2.0999   -0.9288    1.3437 H   0  0  0  0  0  0  0  0  0  0  0  0
   -3.2307    0.8108   -0.1163 H   0  0  0  0  0  0  0  0  0  0  0  0
   -1.6380    2.4494   -1.1377 H   0  0  0  0  0  0  0  0  0  0  0  0
   -0.5130    2.3247    0.2387 H   0  0  0  0  0  0  0  0  0  0  0  0
   -3.4209    3.4380    0.3135 H   0  0  0  0  0  0  0  0  0  0  0  0
   -2.0401    3.9998    1.2919 H   0  0  0  0  0  0  0  0  0  0  0  0
   -3.6691    1.7398    2.1350 H   0  0  0  0  0  0  0  0  0  0  0  0
   -1.9340    1.8305    2.5285 H   0  0  0  0  0  0  0  0  0  0  0  0
  1  2  1  0
  2  3  1  0
  3  4  2  0
  3  5  1  0
  5  6  1  0
  6  7  2  0
  7  8  1  0
  8  9  2  0
  9 10  1  0
 10 11  1  0
 11 12  1  0
 12 13  1  0
 13 14  1  0
 14 15  1  0
 15 16  1  0
 16 17  1  0
 17 18  1  0
 18 19  1  0
 19 20  1  0
  9 21  1  0
 21  5  2  0
 15 10  1  0
 20 17  1  0
  1 22  1  0
  1 23  1  0
  1 24  1  0
  6 25  1  0
  7 26  1  0
 11 27  1  0
 11 28  1  0
 12 29  1  0
 12 30  1  0
 13 31  1  0
 13 32  1  0
 14 33  1  0
 14 34  1  0
 15 35  1  0
 16 36  1  0
 16 37  1  0
 17 38  1  0
 18 39  1  0
 18 40  1  0
 19 41  1  0
 19 42  1  0
 20 43  1  0
 20 44  1  0
M  END
$$$$
OCNT-2310178
     RDKit          3D

 39 41  0  0  0  0  0  0  0  0999 V2000
   -1.2134    0.9996   -0.4340 O   0  0  0  0  0  0  0  0  0  0  0  0
   -0.9760   -0.1684   -0.7209 C   0  0  0  0  0  0  0  0  0  0  0  0
    0.2681   -0.7290   -0.5282 N   0  0  0  0  0  0  0  0  0  0  0  0
    1.3135   -0.0211    0.1942 C   0  0  0  0  0  0  0  0  0  0  0  0
    2.6960   -0.6269   -0.0982 C   0  0  0  0  0  0  0  0  0  0  0  0
    2.6744   -2.0261    0.2228 O   0  0  0  0  0  0  0  0  0  0  0  0
    3.8040    0.0622    0.6668 C   0  0  0  0  0  0  0  0  0  0  0  0
    4.6965    0.9168    0.0019 C   0  0  0  0  0  0  0  0  0  0  0  0
    5.7169    1.5645    0.7024 C   0  0  0  0  0  0  0  0  0  0  0  0
    5.8566    1.3678    2.0757 C   0  0  0  0  0  0  0  0  0  0  0  0
    4.9735    0.5247    2.7451 C   0  0  0  0  0  0  0  0  0  0  0  0
    5.1432    0.2805    4.4396 Cl  0  0  0  0  0  0  0  0  0  0  0  0
    3.9520   -0.1245    2.0515 C   0  0  0  0  0  0  0  0  0  0  0  0
   -1.9761   -1.0715   -1.2784 C   0  0  0  0  0  0  0  0  0  0  0  0
   -1.7371   -2.2818   -1.9097 C   0  0  0  0  0  0  0  0  0  0  0  0
   -2.9453   -2.7537   -2.3151 N   0  0  0  0  0  0  0  0  0  0  0  0
   -3.9639   -1.9506   -2.0014 N   0  0  0  0  0  0  0  0  0  0  0  0
   -3.4021   -0.9145   -1.3515 C   0  0  0  0  0  0  0  0  0  0  0  0
   -4.2576    0.1531   -0.8391 C   0  0  0  0  0  0  0  0  0  0  0  0
   -5.3271    0.6265   -1.5965 C   0  0  0  0  0  0  0  0  0  0  0  0
   -6.1806    1.6061   -1.1998 N   0  0  0  0  0  0  0  0  0  0  0  0
   -5.9604    2.1334    0.0223 C   0  0  0  0  0  0  0  0  0  0  0  0
   -4.9386    1.7246    0.8637 C   0  0  0  0  0  0  0  0  0  0  0  0
   -4.0806    0.7158    0.4262 C   0  0  0  0  0  0  0  0  0  0  0  0
    0.3490   -1.7379   -0.5323 H   0  0  0  0  0  0  0  0  0  0  0  0
    1.2878    1.0422   -0.0699 H   0  0  0  0  0  0  0  0  0  0  0  0
    1.0619   -0.1108    1.2576 H   0  0  0  0  0  0  0  0  0  0  0  0
    2.8951   -0.5698   -1.1753 H   0  0  0  0  0  0  0  0  0  0  0  0
    3.6013   -2.3048    0.3317 H   0  0  0  0  0  0  0  0  0  0  0  0
    4.6033    1.0896   -1.0692 H   0  0  0  0  0  0  0  0  0  0  0  0
    6.4022    2.2259    0.1770 H   0  0  0  0  0  0  0  0  0  0  0  0
    6.6513    1.8751    2.6162 H   0  0  0  0  0  0  0  0  0  0  0  0
    3.2680   -0.7782    2.5898 H   0  0  0  0  0  0  0  0  0  0  0  0
   -0.8295   -2.8255   -2.1281 H   0  0  0  0  0  0  0  0  0  0  0  0
   -3.1497   -3.6112   -2.8188 H   0  0  0  0  0  0  0  0  0  0  0  0
   -5.5369    0.2176   -2.5821 H   0  0  0  0  0  0  0  0  0  0  0  0
   -6.6505    2.9174    0.3199 H   0  0  0  0  0  0  0  0  0  0  0  0
   -4.8089    2.1809    1.8384 H   0  0  0  0  0  0  0  0  0  0  0  0
   -3.2805    0.3821    1.0802 H   0  0  0  0  0  0  0  0  0  0  0  0
  1  2  2  0
  2  3  1  0
  3  4  1  0
  4  5  1  0
  5  6  1  0
  5  7  1  0
  7  8  2  0
  8  9  1  0
  9 10  2  0
 10 11  1  0
 11 12  1  0
 11 13  2  0
  2 14  1  0
 14 15  2  0
 15 16  1  0
 16 17  1  0
 17 18  2  0
 18 19  1  0
 19 20  2  0
 20 21  1  0
 21 22  2  0
 22 23  1  0
 23 24  2  0
 13  7  1  0
 18 14  1  0
 24 19  1  0
  3 25  1  0
  4 26  1  0
  4 27  1  0
  5 28  1  0
  6 29  1  0
  8 30  1  0
  9 31  1  0
 10 32  1  0
 13 33  1  0
 15 34  1  0
 16 35  1  0
 20 36  1  0
 22 37  1  0
 23 38  1  0
 24 39  1  0
M  END
$$$$
OCNT-2310181
     RDKit          3D

 45 48  0  0  0  0  0  0  0  0999 V2000
   -1.5044   -2.0861    0.5185 O   0  0  0  0  0  0  0  0  0  0  0  0
   -1.9711   -1.0949   -0.0228 C   0  0  0  0  0  0  0  0  0  0  0  0
   -3.4193   -0.5935    0.1219 C   0  0  0  0  0  0  0  0  0  0  0  0
   -3.9117   -0.5311    1.5610 C   0  0  0  0  0  0  0  0  0  0  0  0
   -5.0001    0.5370    1.7564 C   0  0  0  0  0  0  0  0  0  0  0  0
   -5.6674    0.9351    0.4377 C   0  0  0  0  0  0  0  0  0  0  0  0
   -4.6539    1.4579   -0.5896 C   0  0  0  0  0  0  0  0  0  0  0  0
   -3.3611    0.7899   -0.4116 N   0  0  0  0  0  0  0  0  0  0  0  0
   -2.2089    0.8881   -1.6262 S   0  0  0  0  0  0  0  0  0  0  0  0
   -1.5736    2.1785   -1.5754 O   0  0  0  0  0  0  0  0  0  0  0  0
   -2.7676    0.3330   -2.8343 O   0  0  0  0  0  0  0  0  0  0  0  0
   -1.2469   -0.2754   -0.9182 N   0  0  0  0  0  0  0  0  0  0  0  0
    0.0857   -0.5343   -1.4542 C   0  0  0  0  0  0  0  0  0  0  0  0
    1.1399   -0.0310   -0.4708 C   0  0  0  0  0  0  0  0  0  0  0  0
    2.5638   -0.2171   -1.0011 C   0  0  0  0  0  0  0  0  0  0  0  0
    2.9530   -1.6994   -1.1994 C   0  0  0  0  0  0  0  0  0  0  0  0
    4.4796   -1.7718   -1.0640 C   0  0  0  0  0  0  0  0  0  0  0  0
    4.7352   -0.6553   -0.1018 C   0  0  0  0  0  0  0  0  0  0  0  0
    5.8788   -0.4301    0.6467 C   0  0  0  0  0  0  0  0  0  0  0  0
    5.9253    0.7022    1.4613 C   0  0  0  0  0  0  0  0  0  0  0  0
    4.8432    1.5938    1.5058 C   0  0  0  0  0  0  0  0  0  0  0  0
    3.6990    1.3651    0.7374 C   0  0  0  0  0  0  0  0  0  0  0  0
    3.6507    0.2307   -0.0584 C   0  0  0  0  0  0  0  0  0  0  0  0
   -4.0668   -1.2172   -0.5058 H   0  0  0  0  0  0  0  0  0  0  0  0
   -3.0870   -0.3316    2.2567 H   0  0  0  0  0  0  0  0  0  0  0  0
   -4.3054   -1.5159    1.8415 H   0  0  0  0  0  0  0  0  0  0  0  0
   -5.7509    0.1738    2.4671 H   0  0  0  0  0  0  0  0  0  0  0  0
   -4.5485    1.4293    2.2084 H   0  0  0  0  0  0  0  0  0  0  0  0
   -6.1827    0.0586    0.0239 H   0  0  0  0  0  0  0  0  0  0  0  0
   -6.4388    1.6934    0.6130 H   0  0  0  0  0  0  0  0  0  0  0  0
   -5.0471    1.3066   -1.6001 H   0  0  0  0  0  0  0  0  0  0  0  0
   -4.5055    2.5327   -0.4372 H   0  0  0  0  0  0  0  0  0  0  0  0
    0.1940   -1.6091   -1.6358 H   0  0  0  0  0  0  0  0  0  0  0  0
    0.2123   -0.0395   -2.4241 H   0  0  0  0  0  0  0  0  0  0  0  0
    1.0246   -0.5418    0.4944 H   0  0  0  0  0  0  0  0  0  0  0  0
    0.9586    1.0328   -0.2699 H   0  0  0  0  0  0  0  0  0  0  0  0
    2.6887    0.3260   -1.9470 H   0  0  0  0  0  0  0  0  0  0  0  0
    2.6123   -2.0941   -2.1623 H   0  0  0  0  0  0  0  0  0  0  0  0
    2.4958   -2.3189   -0.4148 H   0  0  0  0  0  0  0  0  0  0  0  0
    4.9734   -1.5672   -2.0194 H   0  0  0  0  0  0  0  0  0  0  0  0
    4.7999   -2.7425   -0.6755 H   0  0  0  0  0  0  0  0  0  0  0  0
    6.7207   -1.1133    0.6031 H   0  0  0  0  0  0  0  0  0  0  0  0
    6.8099    0.8999    2.0615 H   0  0  0  0  0  0  0  0  0  0  0  0
    4.8993    2.4757    2.1392 H   0  0  0  0  0  0  0  0  0  0  0  0
    2.8751    2.0709    0.7665 H   0  0  0  0  0  0  0  0  0  0  0  0
  1  2  2  0
  2  3  1  0
  3  4  1  0
  4  5  1  0
  5  6  1  0
  6  7  1  0
  7  8  1  0
  8  9  1  0
  9 10  2  0
  9 11  2  0
  9 12  1  0
 12 13  1  0
 13 14  1  0
 14 15  1  0
 15 16  1  0
 16 17  1  0
 17 18  1  0
 18 19  2  0
 19 20  1  0
 20 21  2  0
 21 22  1  0
 22 23  2  0
 12  2  1  0
 23 15  1  0
  8  3  1  0
 23 18  1  0
  3 24  1  0
  4 25  1  0
  4 26  1  0
  5 27  1  0
  5 28  1  0
  6 29  1  0
  6 30  1  0
  7 31  1  0
  7 32  1  0
 13 33  1  0
 13 34  1  0
 14 35  1  0
 14 36  1  0
 15 37  1  0
 16 38  1  0
 16 39  1  0
 17 40  1  0
 17 41  1  0
 19 42  1  0
 20 43  1  0
 21 44  1  0
 22 45  1  0
M  END
$$$$
OCNT-2310182
     RDKit          3D

 41 44  0  0  0  0  0  0  0  0999 V2000
    7.8936    1.3565    0.4377 C   0  0  0  0  0  0  0  0  0  0  0  0
    6.7636    0.5169   -0.0431 C   0  0  0  0  0  0  0  0  0  0  0  0
    5.4948    0.7796    0.1808 N   0  0  0  0  0  0  0  0  0  0  0  0
    4.6898   -0.1955   -0.3941 C   0  0  0  0  0  0  0  0  0  0  0  0
    3.2331   -0.1260   -0.2880 C   0  0  0  0  0  0  0  0  0  0  0  0
    2.6264    1.1015    0.0484 C   0  0  0  0  0  0  0  0  0  0  0  0
    1.2345    1.2277    0.1617 C   0  0  0  0  0  0  0  0  0  0  0  0
    0.4445    0.1135   -0.0583 C   0  0  0  0  0  0  0  0  0  0  0  0
    1.0351   -1.1069   -0.3834 C   0  0  0  0  0  0  0  0  0  0  0  0
    2.4152   -1.2450   -0.5006 C   0  0  0  0  0  0  0  0  0  0  0  0
    0.0117   -2.1768   -0.5706 C   0  0  0  0  0  0  0  0  0  0  0  0
   -1.2966   -1.4222   -0.3060 C   0  0  0  0  0  0  0  0  0  0  0  0
   -0.9601   -0.0193   -0.0038 N   0  0  0  0  0  0  0  0  0  0  0  0
   -1.8599    1.0161    0.2878 C   0  0  0  0  0  0  0  0  0  0  0  0
   -1.4794    2.1665    0.5206 O   0  0  0  0  0  0  0  0  0  0  0  0
   -3.3246    0.7178    0.3155 C   0  0  0  0  0  0  0  0  0  0  0  0
   -3.9005   -0.4835    0.0991 N   0  0  0  0  0  0  0  0  0  0  0  0
   -5.2096   -0.2149    0.2451 N   0  0  0  0  0  0  0  0  0  0  0  0
   -6.1760   -1.2694    0.0784 C   0  0  0  0  0  0  0  0  0  0  0  0
   -5.4238    1.1022    0.5264 C   0  0  0  0  0  0  0  0  0  0  0  0
   -6.7541    1.7172    0.7287 C   0  0  0  0  0  0  0  0  0  0  0  0
   -4.2605    1.7098    0.5804 N   0  0  0  0  0  0  0  0  0  0  0  0
    5.3845   -1.1834   -1.0664 C   0  0  0  0  0  0  0  0  0  0  0  0
    7.0730   -0.9004   -0.9611 S   0  0  0  0  0  0  0  0  0  0  0  0
    8.5677    0.7755    1.0754 H   0  0  0  0  0  0  0  0  0  0  0  0
    7.5196    2.2014    1.0248 H   0  0  0  0  0  0  0  0  0  0  0  0
    8.4650    1.7581   -0.4052 H   0  0  0  0  0  0  0  0  0  0  0  0
    3.2446    1.9808    0.2255 H   0  0  0  0  0  0  0  0  0  0  0  0
    0.8161    2.1938    0.4215 H   0  0  0  0  0  0  0  0  0  0  0  0
    2.8321   -2.2173   -0.7406 H   0  0  0  0  0  0  0  0  0  0  0  0
    0.1500   -2.9909    0.1477 H   0  0  0  0  0  0  0  0  0  0  0  0
    0.0371   -2.5773   -1.5887 H   0  0  0  0  0  0  0  0  0  0  0  0
   -1.9428   -1.4591   -1.1897 H   0  0  0  0  0  0  0  0  0  0  0  0
   -1.8212   -1.8610    0.5496 H   0  0  0  0  0  0  0  0  0  0  0  0
   -5.7925   -2.1764    0.5548 H   0  0  0  0  0  0  0  0  0  0  0  0
   -7.1216   -0.9865    0.5473 H   0  0  0  0  0  0  0  0  0  0  0  0
   -6.3190   -1.4333   -0.9933 H   0  0  0  0  0  0  0  0  0  0  0  0
   -7.2403    1.3027    1.6169 H   0  0  0  0  0  0  0  0  0  0  0  0
   -6.6594    2.7984    0.8693 H   0  0  0  0  0  0  0  0  0  0  0  0
   -7.3991    1.5450   -0.1385 H   0  0  0  0  0  0  0  0  0  0  0  0
    5.0091   -2.0359   -1.6121 H   0  0  0  0  0  0  0  0  0  0  0  0
  1  2  1  0
  2  3  2  0
  3  4  1  0
  4  5  1  0
  5  6  1  0
  6  7  2  0
  7  8  1  0
  8  9  2  0
  9 10  1  0
  9 11  1  0
 11 12  1  0
 12 13  1  0
 13 14  1  0
 14 15  2  0
 14 16  1  0
 16 17  2  0
 17 18  1  0
 18 19  1  0
 18 20  1  0
 20 21  1  0
 20 22  2  0
  4 23  2  0
 23 24  1  0
 24  2  1  0
 10  5  2  0
 22 16  1  0
 13  8  1  0
  1 25  1  0
  1 26  1  0
  1 27  1  0
  6 28  1  0
  7 29  1  0
 10 30  1  0
 11 31  1  0
 11 32  1  0
 12 33  1  0
 12 34  1  0
 19 35  1  0
 19 36  1  0
 19 37  1  0
 21 38  1  0
 21 39  1  0
 21 40  1  0
 23 41  1  0
M  END
$$$$
OCNT-2310186
     RDKit          3D

 37 39  0  0  0  0  0  0  0  0999 V2000
    5.8393    2.0237   -1.1441 C   0  0  0  0  0  0  0  0  0  0  0  0
    4.4489    1.9057   -0.8769 O   0  0  0  0  0  0  0  0  0  0  0  0
    4.1015    0.6836   -0.3446 C   0  0  0  0  0  0  0  0  0  0  0  0
    5.0362   -0.2594   -0.1651 N   0  0  0  0  0  0  0  0  0  0  0  0
    4.5925   -1.4124    0.3698 C   0  0  0  0  0  0  0  0  0  0  0  0
    3.2754   -1.6543    0.7051 C   0  0  0  0  0  0  0  0  0  0  0  0
    2.8707   -3.1573    1.4440 Cl  0  0  0  0  0  0  0  0  0  0  0  0
    2.3691   -0.6205    0.4596 C   0  0  0  0  0  0  0  0  0  0  0  0
    1.0019   -0.7407    0.7567 N   0  0  0  0  0  0  0  0  0  0  0  0
    0.2807   -1.8086    0.0246 C   0  0  0  0  0  0  0  0  0  0  0  0
   -0.9523   -1.2933   -0.7574 C   0  0  0  0  0  0  0  0  0  0  0  0
   -1.8515   -0.5122    0.0959 N   0  0  0  0  0  0  0  0  0  0  0  0
   -3.1554   -0.2710   -0.2185 C   0  0  0  0  0  0  0  0  0  0  0  0
   -3.9398    0.4958    0.5122 N   0  0  0  0  0  0  0  0  0  0  0  0
   -5.2161    0.5787   -0.0152 C   0  0  0  0  0  0  0  0  0  0  0  0
   -6.2221    1.4057    0.6955 C   0  0  0  0  0  0  0  0  0  0  0  0
   -5.4040   -0.1420   -1.1740 C   0  0  0  0  0  0  0  0  0  0  0  0
   -3.9559   -0.9363   -1.6069 S   0  0  0  0  0  0  0  0  0  0  0  0
   -1.2241    0.3020    1.1509 C   0  0  0  0  0  0  0  0  0  0  0  0
    0.2728    0.5414    0.8621 C   0  0  0  0  0  0  0  0  0  0  0  0
    2.7988    0.5540   -0.0534 N   0  0  0  0  0  0  0  0  0  0  0  0
    6.4315    1.9286   -0.2271 H   0  0  0  0  0  0  0  0  0  0  0  0
    6.0172    3.0243   -1.5502 H   0  0  0  0  0  0  0  0  0  0  0  0
    6.1630    1.2982   -1.8986 H   0  0  0  0  0  0  0  0  0  0  0  0
    5.3603   -2.1630    0.5352 H   0  0  0  0  0  0  0  0  0  0  0  0
   -0.0601   -2.5433    0.7644 H   0  0  0  0  0  0  0  0  0  0  0  0
    0.9301   -2.3349   -0.6861 H   0  0  0  0  0  0  0  0  0  0  0  0
   -0.6193   -0.6710   -1.5976 H   0  0  0  0  0  0  0  0  0  0  0  0
   -1.4594   -2.1722   -1.1714 H   0  0  0  0  0  0  0  0  0  0  0  0
   -5.8672    2.4367    0.7889 H   0  0  0  0  0  0  0  0  0  0  0  0
   -7.1775    1.4207    0.1616 H   0  0  0  0  0  0  0  0  0  0  0  0
   -6.3976    1.0074    1.6996 H   0  0  0  0  0  0  0  0  0  0  0  0
   -6.2995   -0.2377   -1.7703 H   0  0  0  0  0  0  0  0  0  0  0  0
   -1.7048    1.2836    1.2435 H   0  0  0  0  0  0  0  0  0  0  0  0
   -1.3389   -0.2187    2.1093 H   0  0  0  0  0  0  0  0  0  0  0  0
    0.6969    1.1408    1.6770 H   0  0  0  0  0  0  0  0  0  0  0  0
    0.3585    1.1179   -0.0689 H   0  0  0  0  0  0  0  0  0  0  0  0
  1  2  1  0
  2  3  1  0
  3  4  2  0
  4  5  1  0
  5  6  2  0
  6  7  1  0
  6  8  1  0
  8  9  1  0
  9 10  1  0
 10 11  1  0
 11 12  1  0
 12 13  1  0
 13 14  2  0
 14 15  1  0
 15 16  1  0
 15 17  2  0
 17 18  1  0
 12 19  1  0
 19 20  1  0
  8 21  2  0
 21  3  1  0
 20  9  1  0
 18 13  1  0
  1 22  1  0
  1 23  1  0
  1 24  1  0
  5 25  1  0
 10 26  1  0
 10 27  1  0
 11 28  1  0
 11 29  1  0
 16 30  1  0
 16 31  1  0
 16 32  1  0
 17 33  1  0
 19 34  1  0
 19 35  1  0
 20 36  1  0
 20 37  1  0
M  END
$$$$
OCNT-2310201
     RDKit          3D

 50 52  0  0  0  0  0  0  0  0999 V2000
    8.8042   -0.9290   -0.3586 C   0  0  0  0  0  0  0  0  0  0  0  0
    7.3712   -0.5558   -0.1331 C   0  0  0  0  0  0  0  0  0  0  0  0
    6.6575   -0.9808    0.9215 C   0  0  0  0  0  0  0  0  0  0  0  0
    5.3268   -0.6217    1.1091 N   0  0  0  0  0  0  0  0  0  0  0  0
    4.6486   -1.0922    2.2220 C   0  0  0  0  0  0  0  0  0  0  0  0
    5.1209   -1.8133    3.1001 O   0  0  0  0  0  0  0  0  0  0  0  0
    3.2439   -0.6708    2.3388 C   0  0  0  0  0  0  0  0  0  0  0  0
    2.7219    0.1265    1.3997 C   0  0  0  0  0  0  0  0  0  0  0  0
    1.2706    0.5734    1.4754 C   0  0  0  0  0  0  0  0  0  0  0  0
    0.5847    0.0614    0.2934 N   0  0  0  0  0  0  0  0  0  0  0  0
   -0.7136    0.5008    0.0133 C   0  0  0  0  0  0  0  0  0  0  0  0
   -1.6078    0.9509    0.9895 C   0  0  0  0  0  0  0  0  0  0  0  0
   -2.9219    1.3091    0.6615 C   0  0  0  0  0  0  0  0  0  0  0  0
   -3.3865    1.1942   -0.6518 C   0  0  0  0  0  0  0  0  0  0  0  0
   -4.8034    1.5712   -1.0051 C   0  0  0  0  0  0  0  0  0  0  0  0
   -5.6999    0.3741   -1.3512 C   0  0  0  0  0  0  0  0  0  0  0  0
   -5.9431   -0.6239   -0.2010 C   0  0  0  0  0  0  0  0  0  0  0  0
   -6.7507   -1.8183   -0.7175 C   0  0  0  0  0  0  0  0  0  0  0  0
   -6.6729    0.0161    0.9808 C   0  0  0  0  0  0  0  0  0  0  0  0
   -2.5131    0.7052   -1.6269 C   0  0  0  0  0  0  0  0  0  0  0  0
   -1.2020    0.3504   -1.2913 C   0  0  0  0  0  0  0  0  0  0  0  0
    3.4346    0.5797    0.3124 N   0  0  0  0  0  0  0  0  0  0  0  0
    4.6719    0.2019    0.2034 C   0  0  0  0  0  0  0  0  0  0  0  0
    5.4608    0.6760   -0.9665 C   0  0  0  0  0  0  0  0  0  0  0  0
    6.7389    0.3052   -1.1073 C   0  0  0  0  0  0  0  0  0  0  0  0
    9.4356   -0.0344   -0.3840 H   0  0  0  0  0  0  0  0  0  0  0  0
    9.1848   -1.5815    0.4346 H   0  0  0  0  0  0  0  0  0  0  0  0
    8.9181   -1.4617   -1.3088 H   0  0  0  0  0  0  0  0  0  0  0  0
    7.0936   -1.6295    1.6778 H   0  0  0  0  0  0  0  0  0  0  0  0
    2.6874   -1.0411    3.1889 H   0  0  0  0  0  0  0  0  0  0  0  0
    1.2404    1.6699    1.5018 H   0  0  0  0  0  0  0  0  0  0  0  0
    0.7967    0.1913    2.3870 H   0  0  0  0  0  0  0  0  0  0  0  0
    1.1923    0.1459   -0.5222 H   0  0  0  0  0  0  0  0  0  0  0  0
   -1.3073    1.0302    2.0292 H   0  0  0  0  0  0  0  0  0  0  0  0
   -3.5816    1.6659    1.4489 H   0  0  0  0  0  0  0  0  0  0  0  0
   -4.7661    2.2445   -1.8718 H   0  0  0  0  0  0  0  0  0  0  0  0
   -5.2523    2.1648   -0.2003 H   0  0  0  0  0  0  0  0  0  0  0  0
   -5.2659   -0.1642   -2.2038 H   0  0  0  0  0  0  0  0  0  0  0  0
   -6.6667    0.7626   -1.6973 H   0  0  0  0  0  0  0  0  0  0  0  0
   -4.9801   -1.0088    0.1553 H   0  0  0  0  0  0  0  0  0  0  0  0
   -6.9029   -2.5576    0.0760 H   0  0  0  0  0  0  0  0  0  0  0  0
   -6.2261   -2.3164   -1.5397 H   0  0  0  0  0  0  0  0  0  0  0  0
   -7.7349   -1.5054   -1.0827 H   0  0  0  0  0  0  0  0  0  0  0  0
   -6.0695    0.7993    1.4482 H   0  0  0  0  0  0  0  0  0  0  0  0
   -7.6237    0.4600    0.6670 H   0  0  0  0  0  0  0  0  0  0  0  0
   -6.8883   -0.7302    1.7533 H   0  0  0  0  0  0  0  0  0  0  0  0
   -2.8459    0.5868   -2.6552 H   0  0  0  0  0  0  0  0  0  0  0  0
   -0.5557   -0.0500   -2.0686 H   0  0  0  0  0  0  0  0  0  0  0  0
    4.9579    1.3199   -1.6769 H   0  0  0  0  0  0  0  0  0  0  0  0
    7.3184    0.6490   -1.9590 H   0  0  0  0  0  0  0  0  0  0  0  0
  1  2  1  0
  2  3  2  0
  3  4  1  0
  4  5  1  0
  5  6  2  0
  5  7  1  0
  7  8  2  0
  8  9  1  0
  9 10  1  0
 10 11  1  0
 11 12  1  0
 12 13  2  0
 13 14  1  0
 14 15  1  0
 15 16  1  0
 16 17  1  0
 17 18  1  0
 17 19  1  0
 14 20  2  0
 20 21  1  0
  8 22  1  0
 22 23  2  0
 23 24  1  0
 24 25  2  0
 25  2  1  0
 23  4  1  0
 21 11  2  0
  1 26  1  0
  1 27  1  0
  1 28  1  0
  3 29  1  0
  7 30  1  0
  9 31  1  0
  9 32  1  0
 10 33  1  0
 12 34  1  0
 13 35  1  0
 15 36  1  0
 15 37  1  0
 16 38  1  0
 16 39  1  0
 17 40  1  0
 18 41  1  0
 18 42  1  0
 18 43  1  0
 19 44  1  0
 19 45  1  0
 19 46  1  0
 20 47  1  0
 21 48  1  0
 24 49  1  0
 25 50  1  0
M  END
$$$$
OCNT-2310202
     RDKit          3D

 34 37  0  0  0  0  0  0  0  0999 V2000
   -5.8157   -0.0881    0.5884 C   0  0  0  0  0  0  0  0  0  0  0  0
   -4.3966    0.3919    0.5221 C   0  0  0  0  0  0  0  0  0  0  0  0
   -3.3545   -0.5126    0.2685 C   0  0  0  0  0  0  0  0  0  0  0  0
   -2.0345   -0.0629    0.1874 C   0  0  0  0  0  0  0  0  0  0  0  0
   -0.9227   -0.9592   -0.0769 C   0  0  0  0  0  0  0  0  0  0  0  0
   -1.0533   -2.2821   -0.2617 N   0  0  0  0  0  0  0  0  0  0  0  0
    0.2507   -2.7161   -0.4784 O   0  0  0  0  0  0  0  0  0  0  0  0
    1.0571   -1.6131   -0.4035 C   0  0  0  0  0  0  0  0  0  0  0  0
    2.5928   -1.6602   -0.5876 C   0  0  0  0  0  0  0  0  0  0  0  0
    3.3097   -2.8048   -0.8448 C   0  0  0  0  0  0  0  0  0  0  0  0
    4.6341   -2.5174   -0.9530 O   0  0  0  0  0  0  0  0  0  0  0  0
    4.7663   -1.1747   -0.7635 C   0  0  0  0  0  0  0  0  0  0  0  0
    5.9703   -0.4722   -0.7946 C   0  0  0  0  0  0  0  0  0  0  0  0
    5.8920    0.9065   -0.5752 C   0  0  0  0  0  0  0  0  0  0  0  0
    4.6636    1.5206   -0.3404 C   0  0  0  0  0  0  0  0  0  0  0  0
    4.6277    2.8440   -0.1341 F   0  0  0  0  0  0  0  0  0  0  0  0
    3.4674    0.7987   -0.3132 C   0  0  0  0  0  0  0  0  0  0  0  0
    3.5231   -0.5902   -0.5314 C   0  0  0  0  0  0  0  0  0  0  0  0
    0.3779   -0.5132   -0.1571 N   0  0  0  0  0  0  0  0  0  0  0  0
   -1.8249    1.2967    0.3692 C   0  0  0  0  0  0  0  0  0  0  0  0
   -2.8072    2.1977    0.6218 N   0  0  0  0  0  0  0  0  0  0  0  0
   -4.0673    1.7365    0.6998 C   0  0  0  0  0  0  0  0  0  0  0  0
   -5.0392    2.7024    0.9438 N   0  0  0  0  0  0  0  0  0  0  0  0
   -6.4317    0.4377   -0.1481 H   0  0  0  0  0  0  0  0  0  0  0  0
   -6.2259    0.0765    1.5899 H   0  0  0  0  0  0  0  0  0  0  0  0
   -5.8877   -1.1593    0.3720 H   0  0  0  0  0  0  0  0  0  0  0  0
   -3.5806   -1.5678    0.1272 H   0  0  0  0  0  0  0  0  0  0  0  0
    3.0475   -3.8461   -0.9737 H   0  0  0  0  0  0  0  0  0  0  0  0
    6.9126   -0.9739   -0.9796 H   0  0  0  0  0  0  0  0  0  0  0  0
    6.7937    1.5127   -0.5864 H   0  0  0  0  0  0  0  0  0  0  0  0
    2.5286    1.3102   -0.1277 H   0  0  0  0  0  0  0  0  0  0  0  0
   -0.8280    1.7283    0.3170 H   0  0  0  0  0  0  0  0  0  0  0  0
   -4.5464    3.5837    1.0695 H   0  0  0  0  0  0  0  0  0  0  0  0
   -5.5990    2.4697    1.7549 H   0  0  0  0  0  0  0  0  0  0  0  0
  1  2  1  0
  2  3  1  0
  3  4  2  0
  4  5  1  0
  5  6  2  0
  6  7  1  0
  7  8  1  0
  8  9  1  0
  9 10  2  0
 10 11  1  0
 11 12  1  0
 12 13  2  0
 13 14  1  0
 14 15  2  0
 15 16  1  0
 15 17  1  0
 17 18  2  0
  8 19  2  0
  4 20  1  0
 20 21  2  0
 21 22  1  0
 22 23  1  0
 22  2  2  0
 19  5  1  0
 18  9  1  0
 18 12  1  0
  1 24  1  0
  1 25  1  0
  1 26  1  0
  3 27  1  0
 10 28  1  0
 13 29  1  0
 14 30  1  0
 17 31  1  0
 20 32  1  0
 23 33  1  0
 23 34  1  0
M  END
$$$$
OCNT-2310207
     RDKit          3D

 31 32  0  0  0  0  0  0  0  0999 V2000
   -2.3787   -0.4673    1.2029 C   0  0  0  0  0  0  0  0  0  0  0  0
   -1.9983   -0.1092   -0.2064 C   0  0  0  0  0  0  0  0  0  0  0  0
   -2.5846    1.0197   -0.8015 C   0  0  0  0  0  0  0  0  0  0  0  0
   -2.2726    1.3701   -2.1123 C   0  0  0  0  0  0  0  0  0  0  0  0
   -2.8573    2.4536   -2.6429 F   0  0  0  0  0  0  0  0  0  0  0  0
   -1.3841    0.6015   -2.8543 C   0  0  0  0  0  0  0  0  0  0  0  0
   -0.9718    1.0612   -4.6410 Br  0  0  0  0  0  0  0  0  0  0  0  0
   -0.7941   -0.5247   -2.2811 C   0  0  0  0  0  0  0  0  0  0  0  0
   -1.0860   -0.8743   -0.9575 C   0  0  0  0  0  0  0  0  0  0  0  0
   -0.4565   -2.0120   -0.3733 N   0  0  0  0  0  0  0  0  0  0  0  0
    1.2191   -2.0761   -0.2026 S   0  0  0  0  0  0  0  0  0  0  0  0
    1.8437   -1.9664   -1.5058 O   0  0  0  0  0  0  0  0  0  0  0  0
    1.4966   -3.1968    0.6693 O   0  0  0  0  0  0  0  0  0  0  0  0
    1.6076   -0.5924    0.6846 C   0  0  0  0  0  0  0  0  0  0  0  0
    1.4676   -0.6052    2.0812 C   0  0  0  0  0  0  0  0  0  0  0  0
    1.7467    0.5429    2.8198 C   0  0  0  0  0  0  0  0  0  0  0  0
    2.1720    1.6986    2.1668 C   0  0  0  0  0  0  0  0  0  0  0  0
    2.3349    1.7029    0.7778 C   0  0  0  0  0  0  0  0  0  0  0  0
    2.8774    3.1634    0.0306 Cl  0  0  0  0  0  0  0  0  0  0  0  0
    2.0707    0.5513    0.0248 C   0  0  0  0  0  0  0  0  0  0  0  0
    2.2740    0.6117   -1.3288 O   0  0  0  0  0  0  0  0  0  0  0  0
   -3.0556    0.2754    1.6384 H   0  0  0  0  0  0  0  0  0  0  0  0
   -1.4930   -0.5137    1.8421 H   0  0  0  0  0  0  0  0  0  0  0  0
   -2.8918   -1.4341    1.2208 H   0  0  0  0  0  0  0  0  0  0  0  0
   -3.2922    1.6395   -0.2565 H   0  0  0  0  0  0  0  0  0  0  0  0
   -0.1179   -1.1349   -2.8747 H   0  0  0  0  0  0  0  0  0  0  0  0
   -0.9480   -2.5263    0.3557 H   0  0  0  0  0  0  0  0  0  0  0  0
    1.1415   -1.5052    2.5999 H   0  0  0  0  0  0  0  0  0  0  0  0
    1.6370    0.5389    3.9021 H   0  0  0  0  0  0  0  0  0  0  0  0
    2.3871    2.5946    2.7449 H   0  0  0  0  0  0  0  0  0  0  0  0
    2.3067   -0.2868   -1.7230 H   0  0  0  0  0  0  0  0  0  0  0  0
  1  2  1  0
  2  3  1  0
  3  4  2  0
  4  5  1  0
  4  6  1  0
  6  7  1  0
  6  8  2  0
  8  9  1  0
  9 10  1  0
 10 11  1  0
 11 12  2  0
 11 13  2  0
 11 14  1  0
 14 15  2  0
 15 16  1  0
 16 17  2  0
 17 18  1  0
 18 19  1  0
 18 20  2  0
 20 21  1  0
  9  2  2  0
 20 14  1  0
  1 22  1  0
  1 23  1  0
  1 24  1  0
  3 25  1  0
  8 26  1  0
 10 27  1  0
 15 28  1  0
 16 29  1  0
 17 30  1  0
 21 31  1  0
M  END
$$$$
OCNT-2310214
     RDKit          3D

 42 44  0  0  0  0  0  0  0  0999 V2000
    2.5915    3.9894   -1.6370 N   0  0  0  0  0  0  0  0  0  0  0  0
    2.7638    2.6361   -1.6638 C   0  0  0  0  0  0  0  0  0  0  0  0
    3.5450    2.1140   -2.4489 O   0  0  0  0  0  0  0  0  0  0  0  0
    1.9178    1.8871   -0.6687 C   0  0  0  0  0  0  0  0  0  0  0  0
    2.1593    0.3881   -0.7494 C   0  0  0  0  0  0  0  0  0  0  0  0
    1.3628   -0.2297    0.2625 O   0  0  0  0  0  0  0  0  0  0  0  0
    1.3611   -1.6039    0.3101 C   0  0  0  0  0  0  0  0  0  0  0  0
    2.1416   -2.4403   -0.4914 C   0  0  0  0  0  0  0  0  0  0  0  0
    2.0438   -3.8277   -0.3584 C   0  0  0  0  0  0  0  0  0  0  0  0
    1.1730   -4.3841    0.5762 C   0  0  0  0  0  0  0  0  0  0  0  0
    0.3925   -3.5553    1.3824 C   0  0  0  0  0  0  0  0  0  0  0  0
    0.4714   -2.1637    1.2554 C   0  0  0  0  0  0  0  0  0  0  0  0
   -0.3094   -1.3082    2.0733 N   0  0  0  0  0  0  0  0  0  0  0  0
   -1.7591   -1.4611    1.9200 C   0  0  0  0  0  0  0  0  0  0  0  0
   -2.3424   -1.1806    0.5718 C   0  0  0  0  0  0  0  0  0  0  0  0
   -2.8333   -2.1264   -0.3101 C   0  0  0  0  0  0  0  0  0  0  0  0
   -3.2481   -1.4506   -1.4129 N   0  0  0  0  0  0  0  0  0  0  0  0
   -3.0916   -0.1258   -1.3163 N   0  0  0  0  0  0  0  0  0  0  0  0
   -2.5166    0.0551   -0.1164 C   0  0  0  0  0  0  0  0  0  0  0  0
   -2.1287    1.5183    0.3400 C   0  0  0  0  0  0  0  0  0  0  0  0
   -2.3620    2.6294   -0.4513 C   0  0  0  0  0  0  0  0  0  0  0  0
   -1.9096    3.8386    0.1569 C   0  0  0  0  0  0  0  0  0  0  0  0
   -1.3533    3.5885    1.3844 C   0  0  0  0  0  0  0  0  0  0  0  0
   -0.6131    4.9482    2.5034 Br  0  0  0  0  0  0  0  0  0  0  0  0
   -1.3823    1.9514    1.8119 S   0  0  0  0  0  0  0  0  0  0  0  0
    3.1664    4.5480   -2.2542 H   0  0  0  0  0  0  0  0  0  0  0  0
    2.0429    4.4568   -0.9284 H   0  0  0  0  0  0  0  0  0  0  0  0
    2.1422    2.2505    0.3411 H   0  0  0  0  0  0  0  0  0  0  0  0
    0.8622    2.1042   -0.8648 H   0  0  0  0  0  0  0  0  0  0  0  0
    1.8668    0.0233   -1.7420 H   0  0  0  0  0  0  0  0  0  0  0  0
    3.2197    0.1707   -0.5727 H   0  0  0  0  0  0  0  0  0  0  0  0
    2.8365   -2.0460   -1.2249 H   0  0  0  0  0  0  0  0  0  0  0  0
    2.6557   -4.4749   -0.9817 H   0  0  0  0  0  0  0  0  0  0  0  0
    1.1093   -5.4634    0.6863 H   0  0  0  0  0  0  0  0  0  0  0  0
   -0.2612   -4.0001    2.1266 H   0  0  0  0  0  0  0  0  0  0  0  0
   -0.0394   -0.3510    1.8311 H   0  0  0  0  0  0  0  0  0  0  0  0
   -2.0561   -2.4681    2.2419 H   0  0  0  0  0  0  0  0  0  0  0  0
   -2.2414   -0.7980    2.6485 H   0  0  0  0  0  0  0  0  0  0  0  0
   -2.9006   -3.2034   -0.2478 H   0  0  0  0  0  0  0  0  0  0  0  0
   -3.6508   -1.8270   -2.2652 H   0  0  0  0  0  0  0  0  0  0  0  0
   -2.8329    2.5713   -1.4263 H   0  0  0  0  0  0  0  0  0  0  0  0
   -1.9933    4.8205   -0.2913 H   0  0  0  0  0  0  0  0  0  0  0  0
  1  2  1  0
  2  3  2  0
  2  4  1  0
  4  5  1  0
  5  6  1  0
  6  7  1  0
  7  8  2  0
  8  9  1  0
  9 10  2  0
 10 11  1  0
 11 12  2  0
 12 13  1  0
 13 14  1  0
 14 15  1  0
 15 16  2  0
 16 17  1  0
 17 18  1  0
 18 19  2  0
 19 20  1  0
 20 21  2  0
 21 22  1  0
 22 23  2  0
 23 24  1  0
 23 25  1  0
 12  7  1  0
 19 15  1  0
 25 20  1  0
  1 26  1  0
  1 27  1  0
  4 28  1  0
  4 29  1  0
  5 30  1  0
  5 31  1  0
  8 32  1  0
  9 33  1  0
 10 34  1  0
 11 35  1  0
 13 36  1  0
 14 37  1  0
 14 38  1  0
 16 39  1  0
 17 40  1  0
 21 41  1  0
 22 42  1  0
M  END
$$$$
OCNT-2310235
     RDKit          3D

 40 42  0  0  0  0  0  0  0  0999 V2000
   -6.6173   -1.0816    0.4486 C   0  0  0  0  0  0  0  0  0  0  0  0
   -5.2088   -0.6920    0.1198 C   0  0  0  0  0  0  0  0  0  0  0  0
   -4.6861    0.5057    0.4272 C   0  0  0  0  0  0  0  0  0  0  0  0
   -3.3746    0.8449    0.1116 N   0  0  0  0  0  0  0  0  0  0  0  0
   -2.8981    2.1001    0.4551 C   0  0  0  0  0  0  0  0  0  0  0  0
   -3.5398    2.9810    1.0258 O   0  0  0  0  0  0  0  0  0  0  0  0
   -1.4992    2.3727    0.0871 C   0  0  0  0  0  0  0  0  0  0  0  0
   -0.7932    1.4255   -0.5409 C   0  0  0  0  0  0  0  0  0  0  0  0
    0.6487    1.6697   -0.9344 C   0  0  0  0  0  0  0  0  0  0  0  0
    1.5071    0.7003   -0.3144 O   0  0  0  0  0  0  0  0  0  0  0  0
    1.8588    0.9732    0.9692 C   0  0  0  0  0  0  0  0  0  0  0  0
    1.5222    1.9717    1.5996 O   0  0  0  0  0  0  0  0  0  0  0  0
    2.6828   -0.1668    1.5861 C   0  0  0  0  0  0  0  0  0  0  0  0
    3.1673    0.1823    2.8853 O   0  0  0  0  0  0  0  0  0  0  0  0
    3.8654   -0.5748    0.7321 C   0  0  0  0  0  0  0  0  0  0  0  0
    3.7826   -1.7014   -0.1019 C   0  0  0  0  0  0  0  0  0  0  0  0
    4.8644   -2.0652   -0.9065 C   0  0  0  0  0  0  0  0  0  0  0  0
    4.7401   -3.4496   -1.9217 Cl  0  0  0  0  0  0  0  0  0  0  0  0
    6.0390   -1.3188   -0.8999 C   0  0  0  0  0  0  0  0  0  0  0  0
    6.1262   -0.1985   -0.0788 C   0  0  0  0  0  0  0  0  0  0  0  0
    7.5707    0.7368   -0.0649 Cl  0  0  0  0  0  0  0  0  0  0  0  0
    5.0524    0.1770    0.7302 C   0  0  0  0  0  0  0  0  0  0  0  0
   -1.3071    0.1947   -0.8677 N   0  0  0  0  0  0  0  0  0  0  0  0
   -2.5400   -0.0511   -0.5427 C   0  0  0  0  0  0  0  0  0  0  0  0
   -3.1167   -1.3795   -0.8865 C   0  0  0  0  0  0  0  0  0  0  0  0
   -4.3839   -1.6633   -0.5631 C   0  0  0  0  0  0  0  0  0  0  0  0
   -7.1738   -1.3200   -0.4642 H   0  0  0  0  0  0  0  0  0  0  0  0
   -6.6309   -1.9596    1.1031 H   0  0  0  0  0  0  0  0  0  0  0  0
   -7.1530   -0.2764    0.9628 H   0  0  0  0  0  0  0  0  0  0  0  0
   -5.2716    1.2659    0.9397 H   0  0  0  0  0  0  0  0  0  0  0  0
   -1.0983    3.3408    0.3576 H   0  0  0  0  0  0  0  0  0  0  0  0
    0.7514    1.5432   -2.0183 H   0  0  0  0  0  0  0  0  0  0  0  0
    0.9878    2.6883   -0.7081 H   0  0  0  0  0  0  0  0  0  0  0  0
    2.0035   -1.0148    1.7309 H   0  0  0  0  0  0  0  0  0  0  0  0
    2.5144    0.8042    3.2612 H   0  0  0  0  0  0  0  0  0  0  0  0
    2.8716   -2.2964   -0.1292 H   0  0  0  0  0  0  0  0  0  0  0  0
    6.8771   -1.6065   -1.5277 H   0  0  0  0  0  0  0  0  0  0  0  0
    5.1414    1.0522    1.3721 H   0  0  0  0  0  0  0  0  0  0  0  0
   -2.4731   -2.0832   -1.3992 H   0  0  0  0  0  0  0  0  0  0  0  0
   -4.8095   -2.6307   -0.8126 H   0  0  0  0  0  0  0  0  0  0  0  0
  1  2  1  0
  2  3  2  0
  3  4  1  0
  4  5  1  0
  5  6  2  0
  5  7  1  0
  7  8  2  0
  8  9  1  0
  9 10  1  0
 10 11  1  0
 11 12  2  0
 11 13  1  0
 13 14  1  0
 13 15  1  0
 15 16  2  0
 16 17  1  0
 17 18  1  0
 17 19  2  0
 19 20  1  0
 20 21  1  0
 20 22  2  0
  8 23  1  0
 23 24  2  0
 24 25  1  0
 25 26  2  0
 26  2  1  0
 24  4  1  0
 22 15  1  0
  1 27  1  0
  1 28  1  0
  1 29  1  0
  3 30  1  0
  7 31  1  0
  9 32  1  0
  9 33  1  0
 13 34  1  0
 14 35  1  0
 16 36  1  0
 19 37  1  0
 22 38  1  0
 25 39  1  0
 26 40  1  0
M  END
$$$$
OCNT-2310242
     RDKit          3D

 46 49  0  0  0  0  0  0  0  0999 V2000
    0.4674   -2.4460    0.5878 O   0  0  0  0  0  0  0  0  0  0  0  0
    1.2444   -1.5421    0.3028 C   0  0  0  0  0  0  0  0  0  0  0  0
    0.9435   -0.3515   -0.3215 N   0  0  0  0  0  0  0  0  0  0  0  0
   -0.2986    0.1203   -0.7794 C   0  0  0  0  0  0  0  0  0  0  0  0
   -1.4930   -0.5920   -0.6706 C   0  0  0  0  0  0  0  0  0  0  0  0
   -2.6972   -0.0483   -1.1524 C   0  0  0  0  0  0  0  0  0  0  0  0
   -3.9893   -0.8245   -1.0217 C   0  0  0  0  0  0  0  0  0  0  0  0
   -4.9462   -0.2493   -0.0025 C   0  0  0  0  0  0  0  0  0  0  0  0
   -6.1413    0.3612   -0.4089 C   0  0  0  0  0  0  0  0  0  0  0  0
   -7.0221    0.8922    0.5353 C   0  0  0  0  0  0  0  0  0  0  0  0
   -6.7180    0.8190    1.8933 C   0  0  0  0  0  0  0  0  0  0  0  0
   -5.5332    0.2150    2.3093 C   0  0  0  0  0  0  0  0  0  0  0  0
   -4.6515   -0.3170    1.3672 C   0  0  0  0  0  0  0  0  0  0  0  0
   -2.6873    1.2234   -1.7454 C   0  0  0  0  0  0  0  0  0  0  0  0
   -1.4981    1.9435   -1.8597 C   0  0  0  0  0  0  0  0  0  0  0  0
   -0.3154    1.3886   -1.3777 C   0  0  0  0  0  0  0  0  0  0  0  0
    0.8667    2.0802   -1.4780 O   0  0  0  0  0  0  0  0  0  0  0  0
    2.7013   -1.6727    0.6404 C   0  0  0  0  0  0  0  0  0  0  0  0
    3.1701   -2.8142    1.2730 C   0  0  0  0  0  0  0  0  0  0  0  0
    4.5269   -2.8886    1.5650 C   0  0  0  0  0  0  0  0  0  0  0  0
    5.3675   -1.8293    1.2192 C   0  0  0  0  0  0  0  0  0  0  0  0
    4.8194   -0.7153    0.5847 C   0  0  0  0  0  0  0  0  0  0  0  0
    5.6418    0.3861    0.2152 N   0  0  0  0  0  0  0  0  0  0  0  0
    5.2090    1.5351   -0.4140 C   0  0  0  0  0  0  0  0  0  0  0  0
    6.3237    2.3206   -0.5778 C   0  0  0  0  0  0  0  0  0  0  0  0
    7.4316    1.6992   -0.0724 N   0  0  0  0  0  0  0  0  0  0  0  0
    6.9964    0.5481    0.3939 C   0  0  0  0  0  0  0  0  0  0  0  0
    3.4968   -0.6228    0.2905 N   0  0  0  0  0  0  0  0  0  0  0  0
    1.7272    0.2836   -0.4727 H   0  0  0  0  0  0  0  0  0  0  0  0
   -1.5107   -1.5749   -0.2096 H   0  0  0  0  0  0  0  0  0  0  0  0
   -4.4662   -0.8718   -2.0097 H   0  0  0  0  0  0  0  0  0  0  0  0
   -3.7841   -1.8698   -0.7553 H   0  0  0  0  0  0  0  0  0  0  0  0
   -6.3946    0.4271   -1.4643 H   0  0  0  0  0  0  0  0  0  0  0  0
   -7.9463    1.3631    0.2110 H   0  0  0  0  0  0  0  0  0  0  0  0
   -7.4035    1.2330    2.6277 H   0  0  0  0  0  0  0  0  0  0  0  0
   -5.2930    0.1588    3.3677 H   0  0  0  0  0  0  0  0  0  0  0  0
   -3.7281   -0.7825    1.7065 H   0  0  0  0  0  0  0  0  0  0  0  0
   -3.6131    1.6602   -2.1142 H   0  0  0  0  0  0  0  0  0  0  0  0
   -1.5165    2.9261   -2.3195 H   0  0  0  0  0  0  0  0  0  0  0  0
    0.6804    2.9379   -1.8950 H   0  0  0  0  0  0  0  0  0  0  0  0
    2.4961   -3.6250    1.5320 H   0  0  0  0  0  0  0  0  0  0  0  0
    4.9294   -3.7689    2.0607 H   0  0  0  0  0  0  0  0  0  0  0  0
    6.4218   -1.9115    1.4577 H   0  0  0  0  0  0  0  0  0  0  0  0
    4.1724    1.6856   -0.6815 H   0  0  0  0  0  0  0  0  0  0  0  0
    6.3846    3.3008   -1.0333 H   0  0  0  0  0  0  0  0  0  0  0  0
    7.6289   -0.1904    0.8653 H   0  0  0  0  0  0  0  0  0  0  0  0
  1  2  2  0
  2  3  1  0
  3  4  1  0
  4  5  1  0
  5  6  2  0
  6  7  1  0
  7  8  1  0
  8  9  2  0
  9 10  1  0
 10 11  2  0
 11 12  1  0
 12 13  2  0
  6 14  1  0
 14 15  2  0
 15 16  1  0
 16 17  1  0
  2 18  1  0
 18 19  1  0
 19 20  2  0
 20 21  1  0
 21 22  2  0
 22 23  1  0
 23 24  1  0
 24 25  2  0
 25 26  1  0
 26 27  2  0
 22 28  1  0
 16  4  2  0
 28 18  2  0
 13  8  1  0
 27 23  1  0
  3 29  1  0
  5 30  1  0
  7 31  1  0
  7 32  1  0
  9 33  1  0
 10 34  1  0
 11 35  1  0
 12 36  1  0
 13 37  1  0
 14 38  1  0
 15 39  1  0
 17 40  1  0
 19 41  1  0
 20 42  1  0
 21 43  1  0
 24 44  1  0
 25 45  1  0
 27 46  1  0
M  END
$$$$
OCNT-2310250
     RDKit          3D

 45 48  0  0  0  0  0  0  0  0999 V2000
    5.1856    1.7121   -0.6757 C   0  0  0  0  0  0  0  0  0  0  0  0
    5.1523    1.3865    0.7668 C   0  0  0  0  0  0  0  0  0  0  0  0
    6.1739    1.6356    1.6566 C   0  0  0  0  0  0  0  0  0  0  0  0
    5.8238    1.2258    2.8927 O   0  0  0  0  0  0  0  0  0  0  0  0
    4.5562    0.6949    2.8504 N   0  0  0  0  0  0  0  0  0  0  0  0
    4.1465    0.7843    1.5770 C   0  0  0  0  0  0  0  0  0  0  0  0
    2.8838    0.3032    1.3054 N   0  0  0  0  0  0  0  0  0  0  0  0
    2.2260    0.2426    0.1004 C   0  0  0  0  0  0  0  0  0  0  0  0
    2.6594    0.5955   -0.9883 O   0  0  0  0  0  0  0  0  0  0  0  0
    0.8374   -0.3484    0.2617 C   0  0  0  0  0  0  0  0  0  0  0  0
    0.0718   -0.3737   -1.0581 C   0  0  0  0  0  0  0  0  0  0  0  0
   -1.3030   -0.9514   -0.8916 C   0  0  0  0  0  0  0  0  0  0  0  0
   -2.4386   -0.2909   -0.4363 C   0  0  0  0  0  0  0  0  0  0  0  0
   -2.6464    1.0920   -0.0204 C   0  0  0  0  0  0  0  0  0  0  0  0
   -3.0655    1.3802    1.2865 C   0  0  0  0  0  0  0  0  0  0  0  0
   -3.2628    2.7032    1.6863 C   0  0  0  0  0  0  0  0  0  0  0  0
   -3.0437    3.7332    0.7792 C   0  0  0  0  0  0  0  0  0  0  0  0
   -3.2345    5.0017    1.1638 F   0  0  0  0  0  0  0  0  0  0  0  0
   -2.6307    3.4663   -0.5202 C   0  0  0  0  0  0  0  0  0  0  0  0
   -2.4316    2.1437   -0.9209 C   0  0  0  0  0  0  0  0  0  0  0  0
   -3.4639   -1.2077   -0.4224 N   0  0  0  0  0  0  0  0  0  0  0  0
   -3.0288   -2.4410   -0.8405 C   0  0  0  0  0  0  0  0  0  0  0  0
   -3.7280   -3.6467   -0.9720 C   0  0  0  0  0  0  0  0  0  0  0  0
   -3.0169   -4.7614   -1.4248 C   0  0  0  0  0  0  0  0  0  0  0  0
   -1.6625   -4.6697   -1.7339 C   0  0  0  0  0  0  0  0  0  0  0  0
   -0.9809   -3.4545   -1.5976 C   0  0  0  0  0  0  0  0  0  0  0  0
   -1.6755   -2.3137   -1.1437 C   0  0  0  0  0  0  0  0  0  0  0  0
    6.1224    2.2150   -0.9420 H   0  0  0  0  0  0  0  0  0  0  0  0
    4.3716    2.3932   -0.9414 H   0  0  0  0  0  0  0  0  0  0  0  0
    5.1249    0.8041   -1.2828 H   0  0  0  0  0  0  0  0  0  0  0  0
    7.1567    2.0751    1.5706 H   0  0  0  0  0  0  0  0  0  0  0  0
    2.4250   -0.0492    2.1354 H   0  0  0  0  0  0  0  0  0  0  0  0
    0.9400   -1.3668    0.6564 H   0  0  0  0  0  0  0  0  0  0  0  0
    0.2933    0.2479    1.0046 H   0  0  0  0  0  0  0  0  0  0  0  0
    0.6296   -0.9577   -1.8010 H   0  0  0  0  0  0  0  0  0  0  0  0
    0.0036    0.6388   -1.4730 H   0  0  0  0  0  0  0  0  0  0  0  0
   -3.2266    0.5782    2.0032 H   0  0  0  0  0  0  0  0  0  0  0  0
   -3.5826    2.9368    2.6967 H   0  0  0  0  0  0  0  0  0  0  0  0
   -2.4673    4.2855   -1.2126 H   0  0  0  0  0  0  0  0  0  0  0  0
   -2.1139    1.9370   -1.9407 H   0  0  0  0  0  0  0  0  0  0  0  0
   -4.4139   -0.9998   -0.1501 H   0  0  0  0  0  0  0  0  0  0  0  0
   -4.7837   -3.7209   -0.7324 H   0  0  0  0  0  0  0  0  0  0  0  0
   -3.5302   -5.7136   -1.5383 H   0  0  0  0  0  0  0  0  0  0  0  0
   -1.1274   -5.5485   -2.0859 H   0  0  0  0  0  0  0  0  0  0  0  0
    0.0750   -3.3968   -1.8446 H   0  0  0  0  0  0  0  0  0  0  0  0
  1  2  1  0
  2  3  2  0
  3  4  1  0
  4  5  1  0
  5  6  2  0
  6  7  1  0
  7  8  1  0
  8  9  2  0
  8 10  1  0
 10 11  1  0
 11 12  1  0
 12 13  2  0
 13 14  1  0
 14 15  1  0
 15 16  2  0
 16 17  1  0
 17 18  1  0
 17 19  2  0
 19 20  1  0
 13 21  1  0
 21 22  1  0
 22 23  2  0
 23 24  1  0
 24 25  2  0
 25 26  1  0
 26 27  2  0
  6  2  1  0
 27 12  1  0
 20 14  2  0
 27 22  1  0
  1 28  1  0
  1 29  1  0
  1 30  1  0
  3 31  1  0
  7 32  1  0
 10 33  1  0
 10 34  1  0
 11 35  1  0
 11 36  1  0
 15 37  1  0
 16 38  1  0
 19 39  1  0
 20 40  1  0
 21 41  1  0
 23 42  1  0
 24 43  1  0
 25 44  1  0
 26 45  1  0
M  END
$$$$
OCNT-2310256
     RDKit          3D

 46 49  0  0  0  0  0  0  0  0999 V2000
    2.8757   -2.7341    0.2296 O   0  0  0  0  0  0  0  0  0  0  0  0
    2.9626   -1.7687   -0.8428 S   0  0  0  0  0  0  0  0  0  0  0  0
    3.1207   -2.1661   -2.2231 O   0  0  0  0  0  0  0  0  0  0  0  0
    1.6068   -0.8040   -0.7744 N   0  0  0  0  0  0  0  0  0  0  0  0
    1.2221   -0.1822    0.4778 C   0  0  0  0  0  0  0  0  0  0  0  0
   -0.2148    0.1987    0.4003 C   0  0  0  0  0  0  0  0  0  0  0  0
   -0.7297    1.4729    0.5482 C   0  0  0  0  0  0  0  0  0  0  0  0
   -2.0931    1.3931    0.3909 N   0  0  0  0  0  0  0  0  0  0  0  0
   -3.0488    2.4461    0.4624 C   0  0  0  0  0  0  0  0  0  0  0  0
   -2.6607    3.7674    0.7260 C   0  0  0  0  0  0  0  0  0  0  0  0
   -3.6231    4.7801    0.7897 C   0  0  0  0  0  0  0  0  0  0  0  0
   -4.9707    4.4834    0.5925 C   0  0  0  0  0  0  0  0  0  0  0  0
   -5.3635    3.1728    0.3311 C   0  0  0  0  0  0  0  0  0  0  0  0
   -4.4085    2.1561    0.2659 C   0  0  0  0  0  0  0  0  0  0  0  0
   -2.4775    0.1245    0.1296 N   0  0  0  0  0  0  0  0  0  0  0  0
   -1.3608   -0.6170    0.1535 C   0  0  0  0  0  0  0  0  0  0  0  0
   -1.4396   -2.0584   -0.1030 C   0  0  0  0  0  0  0  0  0  0  0  0
   -2.3078   -2.5390   -1.0990 C   0  0  0  0  0  0  0  0  0  0  0  0
   -2.3933   -3.9062   -1.3717 C   0  0  0  0  0  0  0  0  0  0  0  0
   -1.6135   -4.7970   -0.6462 C   0  0  0  0  0  0  0  0  0  0  0  0
   -1.6938   -6.1084   -0.9064 F   0  0  0  0  0  0  0  0  0  0  0  0
   -0.7568   -4.3469    0.3504 C   0  0  0  0  0  0  0  0  0  0  0  0
   -0.6746   -2.9789    0.6274 C   0  0  0  0  0  0  0  0  0  0  0  0
    4.2568   -0.6414   -0.4652 C   0  0  0  0  0  0  0  0  0  0  0  0
    4.7215    0.2594   -1.4222 C   0  0  0  0  0  0  0  0  0  0  0  0
    5.7520    1.1288   -1.0777 C   0  0  0  0  0  0  0  0  0  0  0  0
    6.2724    1.0562    0.2062 C   0  0  0  0  0  0  0  0  0  0  0  0
    5.8399    0.1836    1.1453 N   0  0  0  0  0  0  0  0  0  0  0  0
    4.8471   -0.6645    0.7847 C   0  0  0  0  0  0  0  0  0  0  0  0
    1.2683   -0.4294   -1.6578 H   0  0  0  0  0  0  0  0  0  0  0  0
    1.8310    0.7164    0.6292 H   0  0  0  0  0  0  0  0  0  0  0  0
    1.3875   -0.8428    1.3333 H   0  0  0  0  0  0  0  0  0  0  0  0
   -0.2307    2.4083    0.7488 H   0  0  0  0  0  0  0  0  0  0  0  0
   -1.6249    4.0467    0.8879 H   0  0  0  0  0  0  0  0  0  0  0  0
   -3.3208    5.8043    0.9949 H   0  0  0  0  0  0  0  0  0  0  0  0
   -5.7157    5.2735    0.6436 H   0  0  0  0  0  0  0  0  0  0  0  0
   -6.4141    2.9386    0.1786 H   0  0  0  0  0  0  0  0  0  0  0  0
   -4.7407    1.1393    0.0623 H   0  0  0  0  0  0  0  0  0  0  0  0
   -2.9223   -1.8440   -1.6683 H   0  0  0  0  0  0  0  0  0  0  0  0
   -3.0612   -4.2773   -2.1419 H   0  0  0  0  0  0  0  0  0  0  0  0
   -0.1569   -5.0600    0.9071 H   0  0  0  0  0  0  0  0  0  0  0  0
   -0.0123   -2.6542    1.4239 H   0  0  0  0  0  0  0  0  0  0  0  0
    4.2980    0.2801   -2.4232 H   0  0  0  0  0  0  0  0  0  0  0  0
    6.1465    1.8423   -1.7934 H   0  0  0  0  0  0  0  0  0  0  0  0
    7.0786    1.7134    0.5219 H   0  0  0  0  0  0  0  0  0  0  0  0
    4.5427   -1.3654    1.5579 H   0  0  0  0  0  0  0  0  0  0  0  0
  1  2  2  0
  2  3  2  0
  2  4  1  0
  4  5  1  0
  5  6  1  0
  6  7  2  0
  7  8  1  0
  8  9  1  0
  9 10  2  0
 10 11  1  0
 11 12  2  0
 12 13  1  0
 13 14  2  0
  8 15  1  0
 15 16  2  0
 16 17  1  0
 17 18  1  0
 18 19  2  0
 19 20  1  0
 20 21  1  0
 20 22  2  0
 22 23  1  0
  2 24  1  0
 24 25  1  0
 25 26  2  0
 26 27  1  0
 27 28  2  0
 28 29  1  0
 16  6  1  0
 23 17  2  0
 29 24  2  0
 14  9  1  0
  4 30  1  0
  5 31  1  0
  5 32  1  0
  7 33  1  0
 10 34  1  0
 11 35  1  0
 12 36  1  0
 13 37  1  0
 14 38  1  0
 18 39  1  0
 19 40  1  0
 22 41  1  0
 23 42  1  0
 25 43  1  0
 26 44  1  0
 27 45  1  0
 29 46  1  0
M  END
$$$$
OCNT-2310258
     RDKit          3D

 45 48  0  0  0  0  0  0  0  0999 V2000
   -2.2171    2.0650    0.4372 O   0  0  0  0  0  0  0  0  0  0  0  0
   -2.0395    1.2630   -0.4742 C   0  0  0  0  0  0  0  0  0  0  0  0
   -0.8980    1.4332   -1.4683 C   0  0  0  0  0  0  0  0  0  0  0  0
    0.3033    0.6569   -1.0508 C   0  0  0  0  0  0  0  0  0  0  0  0
    0.6246   -0.6499   -1.3635 C   0  0  0  0  0  0  0  0  0  0  0  0
    1.8236   -0.9396   -0.7451 N   0  0  0  0  0  0  0  0  0  0  0  0
    2.5387   -2.1716   -0.7467 C   0  0  0  0  0  0  0  0  0  0  0  0
    3.7469   -2.2630   -0.0364 C   0  0  0  0  0  0  0  0  0  0  0  0
    4.4633   -3.4620   -0.0143 C   0  0  0  0  0  0  0  0  0  0  0  0
    3.9818   -4.5769   -0.6996 C   0  0  0  0  0  0  0  0  0  0  0  0
    2.7838   -4.4949   -1.4090 C   0  0  0  0  0  0  0  0  0  0  0  0
    2.0603   -3.2975   -1.4352 C   0  0  0  0  0  0  0  0  0  0  0  0
    2.3016    0.1402   -0.0818 N   0  0  0  0  0  0  0  0  0  0  0  0
    1.3870    1.1002   -0.2459 C   0  0  0  0  0  0  0  0  0  0  0  0
    1.5783    2.4151    0.3450 C   0  0  0  0  0  0  0  0  0  0  0  0
    2.3501    3.3758   -0.3267 C   0  0  0  0  0  0  0  0  0  0  0  0
    2.5161    4.6470    0.2265 C   0  0  0  0  0  0  0  0  0  0  0  0
    1.9179    4.9465    1.4480 C   0  0  0  0  0  0  0  0  0  0  0  0
    2.0783    6.1675    1.9766 F   0  0  0  0  0  0  0  0  0  0  0  0
    1.1547    4.0004    2.1273 C   0  0  0  0  0  0  0  0  0  0  0  0
    0.9811    2.7298    1.5740 C   0  0  0  0  0  0  0  0  0  0  0  0
   -2.8046    0.1335   -0.7237 N   0  0  0  0  0  0  0  0  0  0  0  0
   -3.8970   -0.3337    0.0344 C   0  0  0  0  0  0  0  0  0  0  0  0
   -4.5030   -1.5250   -0.3754 C   0  0  0  0  0  0  0  0  0  0  0  0
   -5.5750   -2.0465    0.3440 C   0  0  0  0  0  0  0  0  0  0  0  0
   -6.0147   -1.3532    1.4580 C   0  0  0  0  0  0  0  0  0  0  0  0
   -5.4639   -0.1980    1.8840 N   0  0  0  0  0  0  0  0  0  0  0  0
   -4.4188    0.2877    1.1655 C   0  0  0  0  0  0  0  0  0  0  0  0
   -0.6701    2.5026   -1.5475 H   0  0  0  0  0  0  0  0  0  0  0  0
   -1.2280    1.1192   -2.4659 H   0  0  0  0  0  0  0  0  0  0  0  0
    0.1019   -1.3831   -1.9578 H   0  0  0  0  0  0  0  0  0  0  0  0
    4.1421   -1.4060    0.5099 H   0  0  0  0  0  0  0  0  0  0  0  0
    5.3963   -3.5227    0.5414 H   0  0  0  0  0  0  0  0  0  0  0  0
    4.5401   -5.5098   -0.6804 H   0  0  0  0  0  0  0  0  0  0  0  0
    2.4126   -5.3689   -1.9421 H   0  0  0  0  0  0  0  0  0  0  0  0
    1.1337   -3.2828   -2.0001 H   0  0  0  0  0  0  0  0  0  0  0  0
    2.8225    3.1341   -1.2771 H   0  0  0  0  0  0  0  0  0  0  0  0
    3.1059    5.4026   -0.2853 H   0  0  0  0  0  0  0  0  0  0  0  0
    0.6966    4.2567    3.0785 H   0  0  0  0  0  0  0  0  0  0  0  0
    0.3781    1.9916    2.1013 H   0  0  0  0  0  0  0  0  0  0  0  0
   -2.5245   -0.4473   -1.5039 H   0  0  0  0  0  0  0  0  0  0  0  0
   -4.1505   -2.0620   -1.2507 H   0  0  0  0  0  0  0  0  0  0  0  0
   -6.0537   -2.9715    0.0433 H   0  0  0  0  0  0  0  0  0  0  0  0
   -6.8435   -1.7197    2.0548 H   0  0  0  0  0  0  0  0  0  0  0  0
   -4.0194    1.2173    1.5597 H   0  0  0  0  0  0  0  0  0  0  0  0
  1  2  2  0
  2  3  1  0
  3  4  1  0
  4  5  2  0
  5  6  1  0
  6  7  1  0
  7  8  2  0
  8  9  1  0
  9 10  2  0
 10 11  1  0
 11 12  2  0
  6 13  1  0
 13 14  2  0
 14 15  1  0
 15 16  1  0
 16 17  2  0
 17 18  1  0
 18 19  1  0
 18 20  2  0
 20 21  1  0
  2 22  1  0
 22 23  1  0
 23 24  1  0
 24 25  2  0
 25 26  1  0
 26 27  2  0
 27 28  1  0
 14  4  1  0
 21 15  2  0
 28 23  2  0
 12  7  1  0
  3 29  1  0
  3 30  1  0
  5 31  1  0
  8 32  1  0
  9 33  1  0
 10 34  1  0
 11 35  1  0
 12 36  1  0
 16 37  1  0
 17 38  1  0
 20 39  1  0
 21 40  1  0
 22 41  1  0
 24 42  1  0
 25 43  1  0
 26 44  1  0
 28 45  1  0
M  END
$$$$
OCNT-2310260
     RDKit          3D

 41 43  0  0  0  0  0  0  0  0999 V2000
    4.4237    0.0335   -2.8387 C   0  0  0  0  0  0  0  0  0  0  0  0
    4.0467   -0.1359   -1.4749 O   0  0  0  0  0  0  0  0  0  0  0  0
    4.4412   -1.3123   -0.9159 C   0  0  0  0  0  0  0  0  0  0  0  0
    5.1709   -2.1611   -1.6356 N   0  0  0  0  0  0  0  0  0  0  0  0
    5.4924   -3.4920   -0.7055 S   0  0  0  0  0  0  0  0  0  0  0  0
    4.6592   -2.9423    0.6781 C   0  0  0  0  0  0  0  0  0  0  0  0
    4.1131   -1.6925    0.4258 C   0  0  0  0  0  0  0  0  0  0  0  0
    3.3414   -0.9673    1.4267 C   0  0  0  0  0  0  0  0  0  0  0  0
    3.1105   -1.4475    2.5331 O   0  0  0  0  0  0  0  0  0  0  0  0
    2.8969    0.2764    1.0483 N   0  0  0  0  0  0  0  0  0  0  0  0
    1.9899    1.0510    1.8598 C   0  0  0  0  0  0  0  0  0  0  0  0
    0.5808    0.9249    1.3470 C   0  0  0  0  0  0  0  0  0  0  0  0
    0.0461    1.8679    0.4678 C   0  0  0  0  0  0  0  0  0  0  0  0
   -1.2599    1.7243   -0.0223 C   0  0  0  0  0  0  0  0  0  0  0  0
   -2.0786    0.6412    0.3330 C   0  0  0  0  0  0  0  0  0  0  0  0
   -3.3575    0.5067   -0.1530 N   0  0  0  0  0  0  0  0  0  0  0  0
   -4.2069   -0.6585    0.0810 C   0  0  0  0  0  0  0  0  0  0  0  0
   -5.3781   -0.4564   -0.8772 C   0  0  0  0  0  0  0  0  0  0  0  0
   -5.5035    1.0551   -0.9495 C   0  0  0  0  0  0  0  0  0  0  0  0
   -4.0501    1.5227   -0.9413 C   0  0  0  0  0  0  0  0  0  0  0  0
   -1.5143   -0.2987    1.2087 C   0  0  0  0  0  0  0  0  0  0  0  0
   -0.2110   -0.1669    1.7075 C   0  0  0  0  0  0  0  0  0  0  0  0
    5.5133    0.0584   -2.9505 H   0  0  0  0  0  0  0  0  0  0  0  0
    4.0353    1.0011   -3.1714 H   0  0  0  0  0  0  0  0  0  0  0  0
    3.9771   -0.7387   -3.4748 H   0  0  0  0  0  0  0  0  0  0  0  0
    4.6045   -3.5301    1.5845 H   0  0  0  0  0  0  0  0  0  0  0  0
    3.0247    0.5608    0.0841 H   0  0  0  0  0  0  0  0  0  0  0  0
    2.3209    2.0943    1.8121 H   0  0  0  0  0  0  0  0  0  0  0  0
    2.0421    0.7432    2.9101 H   0  0  0  0  0  0  0  0  0  0  0  0
    0.6355    2.7249    0.1509 H   0  0  0  0  0  0  0  0  0  0  0  0
   -1.6231    2.4848   -0.7075 H   0  0  0  0  0  0  0  0  0  0  0  0
   -3.6987   -1.6034   -0.1393 H   0  0  0  0  0  0  0  0  0  0  0  0
   -4.5578   -0.6670    1.1193 H   0  0  0  0  0  0  0  0  0  0  0  0
   -6.2927   -0.9446   -0.5296 H   0  0  0  0  0  0  0  0  0  0  0  0
   -5.1284   -0.8581   -1.8668 H   0  0  0  0  0  0  0  0  0  0  0  0
   -6.0239    1.4294   -0.0596 H   0  0  0  0  0  0  0  0  0  0  0  0
   -6.0482    1.3966   -1.8340 H   0  0  0  0  0  0  0  0  0  0  0  0
   -3.9794    2.5226   -0.4997 H   0  0  0  0  0  0  0  0  0  0  0  0
   -3.6482    1.5461   -1.9607 H   0  0  0  0  0  0  0  0  0  0  0  0
   -2.0860   -1.1638    1.5322 H   0  0  0  0  0  0  0  0  0  0  0  0
    0.1801   -0.9290    2.3795 H   0  0  0  0  0  0  0  0  0  0  0  0
  1  2  1  0
  2  3  1  0
  3  4  2  0
  4  5  1  0
  5  6  1  0
  6  7  2  0
  7  8  1  0
  8  9  2  0
  8 10  1  0
 10 11  1  0
 11 12  1  0
 12 13  1  0
 13 14  2  0
 14 15  1  0
 15 16  1  0
 16 17  1  0
 17 18  1  0
 18 19  1  0
 19 20  1  0
 15 21  2  0
 21 22  1  0
  7  3  1  0
 22 12  2  0
 20 16  1  0
  1 23  1  0
  1 24  1  0
  1 25  1  0
  6 26  1  0
 10 27  1  0
 11 28  1  0
 11 29  1  0
 13 30  1  0
 14 31  1  0
 17 32  1  0
 17 33  1  0
 18 34  1  0
 18 35  1  0
 19 36  1  0
 19 37  1  0
 20 38  1  0
 20 39  1  0
 21 40  1  0
 22 41  1  0
M  END
$$$$
OCNT-2310262
     RDKit          3D

 37 39  0  0  0  0  0  0  0  0999 V2000
   -2.1778    1.8361   -1.5051 O   0  0  0  0  0  0  0  0  0  0  0  0
   -1.9401    0.8143   -0.8654 C   0  0  0  0  0  0  0  0  0  0  0  0
   -3.0329    0.2539   -0.0417 C   0  0  0  0  0  0  0  0  0  0  0  0
   -3.6865    1.0866    0.8726 C   0  0  0  0  0  0  0  0  0  0  0  0
   -4.7387    0.5832    1.6380 C   0  0  0  0  0  0  0  0  0  0  0  0
   -5.1444   -0.7434    1.4775 C   0  0  0  0  0  0  0  0  0  0  0  0
   -4.5028   -1.5594    0.5440 C   0  0  0  0  0  0  0  0  0  0  0  0
   -5.0673   -3.3496    0.3202 Br  0  0  0  0  0  0  0  0  0  0  0  0
   -3.4519   -1.0676   -0.2264 C   0  0  0  0  0  0  0  0  0  0  0  0
   -0.7126    0.1491   -0.9000 N   0  0  0  0  0  0  0  0  0  0  0  0
   -0.2063   -0.6215    0.2531 C   0  0  0  0  0  0  0  0  0  0  0  0
    0.9349   -1.5845   -0.1318 C   0  0  0  0  0  0  0  0  0  0  0  0
    1.9965   -0.9185   -0.9182 N   0  0  0  0  0  0  0  0  0  0  0  0
    2.9221   -0.1881   -0.1610 C   0  0  0  0  0  0  0  0  0  0  0  0
    4.0777    0.3165   -0.7657 C   0  0  0  0  0  0  0  0  0  0  0  0
    5.0135    1.0319   -0.0149 C   0  0  0  0  0  0  0  0  0  0  0  0
    4.7839    1.2228    1.3364 C   0  0  0  0  0  0  0  0  0  0  0  0
    5.8995    2.0918    2.3056 Cl  0  0  0  0  0  0  0  0  0  0  0  0
    3.6330    0.6830    1.8780 C   0  0  0  0  0  0  0  0  0  0  0  0
    2.7137   -0.0148    1.1636 N   0  0  0  0  0  0  0  0  0  0  0  0
    1.4515   -0.2191   -2.1029 C   0  0  0  0  0  0  0  0  0  0  0  0
    0.3375    0.7706   -1.7167 C   0  0  0  0  0  0  0  0  0  0  0  0
   -3.3783    2.1242    0.9824 H   0  0  0  0  0  0  0  0  0  0  0  0
   -5.2472    1.2260    2.3527 H   0  0  0  0  0  0  0  0  0  0  0  0
   -5.9672   -1.1273    2.0759 H   0  0  0  0  0  0  0  0  0  0  0  0
   -2.9652   -1.6944   -0.9683 H   0  0  0  0  0  0  0  0  0  0  0  0
   -1.0075   -1.1956    0.7230 H   0  0  0  0  0  0  0  0  0  0  0  0
    0.1261    0.1124    0.9959 H   0  0  0  0  0  0  0  0  0  0  0  0
    0.5148   -2.3817   -0.7594 H   0  0  0  0  0  0  0  0  0  0  0  0
    1.3386   -2.0882    0.7553 H   0  0  0  0  0  0  0  0  0  0  0  0
    4.2749    0.1311   -1.8165 H   0  0  0  0  0  0  0  0  0  0  0  0
    5.9099    1.4188   -0.4896 H   0  0  0  0  0  0  0  0  0  0  0  0
    3.4022    0.7924    2.9335 H   0  0  0  0  0  0  0  0  0  0  0  0
    1.0291   -0.9801   -2.7718 H   0  0  0  0  0  0  0  0  0  0  0  0
    2.2248    0.2947   -2.6836 H   0  0  0  0  0  0  0  0  0  0  0  0
    0.7474    1.6085   -1.1392 H   0  0  0  0  0  0  0  0  0  0  0  0
   -0.1049    1.1858   -2.6294 H   0  0  0  0  0  0  0  0  0  0  0  0
  1  2  2  0
  2  3  1  0
  3  4  2  0
  4  5  1  0
  5  6  2  0
  6  7  1  0
  7  8  1  0
  7  9  2  0
  2 10  1  0
 10 11  1  0
 11 12  1  0
 12 13  1  0
 13 14  1  0
 14 15  2  0
 15 16  1  0
 16 17  2  0
 17 18  1  0
 17 19  1  0
 19 20  2  0
 13 21  1  0
 21 22  1  0
  9  3  1  0
 22 10  1  0
 20 14  1  0
  4 23  1  0
  5 24  1  0
  6 25  1  0
  9 26  1  0
 11 27  1  0
 11 28  1  0
 12 29  1  0
 12 30  1  0
 15 31  1  0
 16 32  1  0
 19 33  1  0
 21 34  1  0
 21 35  1  0
 22 36  1  0
 22 37  1  0
M  END
$$$$
OCNT-2310283
     RDKit          3D

 39 42  0  0  0  0  0  0  0  0999 V2000
   -2.1248    2.0117   -1.5004 C   0  0  0  0  0  0  0  0  0  0  0  0
   -1.8341    1.1550   -0.2640 C   0  0  0  0  0  0  0  0  0  0  0  0
   -3.1163    0.7067    0.3732 C   0  0  0  0  0  0  0  0  0  0  0  0
   -3.9239    1.2915    1.3294 C   0  0  0  0  0  0  0  0  0  0  0  0
   -5.0300    0.4285    1.5379 C   0  0  0  0  0  0  0  0  0  0  0  0
   -4.8683   -0.6618    0.7094 C   0  0  0  0  0  0  0  0  0  0  0  0
   -3.7111   -0.4749    0.0168 N   0  0  0  0  0  0  0  0  0  0  0  0
   -3.0825   -1.3760   -0.9232 C   0  0  0  0  0  0  0  0  0  0  0  0
   -1.5775   -1.3548   -0.6798 C   0  0  0  0  0  0  0  0  0  0  0  0
   -0.9827   -0.0050   -0.6163 N   0  0  0  0  0  0  0  0  0  0  0  0
    0.3965    0.2284   -0.7128 C   0  0  0  0  0  0  0  0  0  0  0  0
    0.8616    1.3630   -0.6043 O   0  0  0  0  0  0  0  0  0  0  0  0
    1.2742   -0.9856   -0.9450 C   0  0  0  0  0  0  0  0  0  0  0  0
    2.6903   -0.6802   -0.9317 N   0  0  0  0  0  0  0  0  0  0  0  0
    3.4252   -0.8947   -2.0430 N   0  0  0  0  0  0  0  0  0  0  0  0
    4.6950   -0.6685   -1.7323 N   0  0  0  0  0  0  0  0  0  0  0  0
    4.7569   -0.3445   -0.4034 C   0  0  0  0  0  0  0  0  0  0  0  0
    5.8550   -0.0382    0.4126 C   0  0  0  0  0  0  0  0  0  0  0  0
    5.6247    0.2437    1.7653 C   0  0  0  0  0  0  0  0  0  0  0  0
    4.3302    0.2216    2.2913 C   0  0  0  0  0  0  0  0  0  0  0  0
    3.2226   -0.0820    1.4903 C   0  0  0  0  0  0  0  0  0  0  0  0
    3.4787   -0.3587    0.1431 C   0  0  0  0  0  0  0  0  0  0  0  0
   -2.6549    1.4391   -2.2701 H   0  0  0  0  0  0  0  0  0  0  0  0
   -1.2005    2.3861   -1.9521 H   0  0  0  0  0  0  0  0  0  0  0  0
   -2.7457    2.8768   -1.2422 H   0  0  0  0  0  0  0  0  0  0  0  0
   -1.2873    1.7696    0.4627 H   0  0  0  0  0  0  0  0  0  0  0  0
   -3.7420    2.2397    1.8198 H   0  0  0  0  0  0  0  0  0  0  0  0
   -5.8551    0.5863    2.2205 H   0  0  0  0  0  0  0  0  0  0  0  0
   -5.4833   -1.5411    0.5695 H   0  0  0  0  0  0  0  0  0  0  0  0
   -3.4912   -2.3815   -0.7842 H   0  0  0  0  0  0  0  0  0  0  0  0
   -3.3338   -1.0186   -1.9274 H   0  0  0  0  0  0  0  0  0  0  0  0
   -1.3488   -1.8343    0.2807 H   0  0  0  0  0  0  0  0  0  0  0  0
   -1.0793   -1.9371   -1.4605 H   0  0  0  0  0  0  0  0  0  0  0  0
    1.0381   -1.4200   -1.9219 H   0  0  0  0  0  0  0  0  0  0  0  0
    1.1052   -1.7306   -0.1609 H   0  0  0  0  0  0  0  0  0  0  0  0
    6.8569   -0.0224   -0.0016 H   0  0  0  0  0  0  0  0  0  0  0  0
    6.4652    0.4871    2.4114 H   0  0  0  0  0  0  0  0  0  0  0  0
    4.1784    0.4538    3.3439 H   0  0  0  0  0  0  0  0  0  0  0  0
    2.2182   -0.0781    1.8995 H   0  0  0  0  0  0  0  0  0  0  0  0
  1  2  1  0
  2  3  1  0
  3  4  2  0
  4  5  1  0
  5  6  2  0
  6  7  1  0
  7  8  1  0
  8  9  1  0
  9 10  1  0
 10 11  1  0
 11 12  2  0
 11 13  1  0
 13 14  1  0
 14 15  1  0
 15 16  2  0
 16 17  1  0
 17 18  2  0
 18 19  1  0
 19 20  2  0
 20 21  1  0
 21 22  2  0
 10  2  1  0
 22 14  1  0
  7  3  1  0
 22 17  1  0
  1 23  1  0
  1 24  1  0
  1 25  1  0
  2 26  1  0
  4 27  1  0
  5 28  1  0
  6 29  1  0
  8 30  1  0
  8 31  1  0
  9 32  1  0
  9 33  1  0
 13 34  1  0
 13 35  1  0
 18 36  1  0
 19 37  1  0
 20 38  1  0
 21 39  1  0
M  END
$$$$
OCNT-2310288
     RDKit          3D

 35 37  0  0  0  0  0  0  0  0999 V2000
   -0.6308    2.2883   -2.8623 O   0  0  0  0  0  0  0  0  0  0  0  0
   -0.6309    1.2010   -2.2899 C   0  0  0  0  0  0  0  0  0  0  0  0
    0.1092    0.9568   -1.1659 N   0  0  0  0  0  0  0  0  0  0  0  0
    0.9426    1.9746   -0.5506 C   0  0  0  0  0  0  0  0  0  0  0  0
    1.8013    1.3228    0.4933 C   0  0  0  0  0  0  0  0  0  0  0  0
    1.8355    0.0215    0.7170 N   0  0  0  0  0  0  0  0  0  0  0  0
    2.7465   -0.2540    1.7253 C   0  0  0  0  0  0  0  0  0  0  0  0
    3.0754   -1.5362    2.2121 C   0  0  0  0  0  0  0  0  0  0  0  0
    4.0228   -1.6718    3.2329 C   0  0  0  0  0  0  0  0  0  0  0  0
    4.6324   -0.5500    3.7818 C   0  0  0  0  0  0  0  0  0  0  0  0
    4.3206    0.7331    3.3195 C   0  0  0  0  0  0  0  0  0  0  0  0
    3.3813    0.8577    2.2819 C   0  0  0  0  0  0  0  0  0  0  0  0
    2.8184    2.2769    1.4885 S   0  0  0  0  0  0  0  0  0  0  0  0
   -1.4282   -0.0022   -2.8398 C   0  0  0  0  0  0  0  0  0  0  0  0
   -1.9992    0.2936   -4.1160 O   0  0  0  0  0  0  0  0  0  0  0  0
   -2.5485   -0.4084   -1.9052 C   0  0  0  0  0  0  0  0  0  0  0  0
   -3.7357    0.3442   -1.8426 C   0  0  0  0  0  0  0  0  0  0  0  0
   -4.7612   -0.0205   -0.9700 C   0  0  0  0  0  0  0  0  0  0  0  0
   -6.2076    0.9081   -0.9192 Cl  0  0  0  0  0  0  0  0  0  0  0  0
   -4.6238   -1.1259   -0.1346 C   0  0  0  0  0  0  0  0  0  0  0  0
   -3.4472   -1.8719   -0.1848 C   0  0  0  0  0  0  0  0  0  0  0  0
   -3.2510   -3.2310    0.8559 Cl  0  0  0  0  0  0  0  0  0  0  0  0
   -2.4168   -1.5251   -1.0624 C   0  0  0  0  0  0  0  0  0  0  0  0
    0.1981    0.0148   -0.7973 H   0  0  0  0  0  0  0  0  0  0  0  0
    0.2811    2.7297   -0.1080 H   0  0  0  0  0  0  0  0  0  0  0  0
    1.5568    2.4439   -1.3263 H   0  0  0  0  0  0  0  0  0  0  0  0
    2.5952   -2.4095    1.7875 H   0  0  0  0  0  0  0  0  0  0  0  0
    4.2802   -2.6636    3.5991 H   0  0  0  0  0  0  0  0  0  0  0  0
    5.3638   -0.6714    4.5792 H   0  0  0  0  0  0  0  0  0  0  0  0
    4.7995    1.6084    3.7507 H   0  0  0  0  0  0  0  0  0  0  0  0
   -0.7270   -0.8313   -2.9949 H   0  0  0  0  0  0  0  0  0  0  0  0
   -1.5546    1.1064   -4.4255 H   0  0  0  0  0  0  0  0  0  0  0  0
   -3.8583    1.2157   -2.4888 H   0  0  0  0  0  0  0  0  0  0  0  0
   -5.4288   -1.3956    0.5448 H   0  0  0  0  0  0  0  0  0  0  0  0
   -1.5108   -2.1292   -1.0867 H   0  0  0  0  0  0  0  0  0  0  0  0
  1  2  2  0
  2  3  1  0
  3  4  1  0
  4  5  1  0
  5  6  2  0
  6  7  1  0
  7  8  2  0
  8  9  1  0
  9 10  2  0
 10 11  1  0
 11 12  2  0
 12 13  1  0
  2 14  1  0
 14 15  1  0
 14 16  1  0
 16 17  2  0
 17 18  1  0
 18 19  1  0
 18 20  2  0
 20 21  1  0
 21 22  1  0
 21 23  2  0
 13  5  1  0
 23 16  1  0
 12  7  1  0
  3 24  1  0
  4 25  1  0
  4 26  1  0
  8 27  1  0
  9 28  1  0
 10 29  1  0
 11 30  1  0
 14 31  1  0
 15 32  1  0
 17 33  1  0
 20 34  1  0
 23 35  1  0
M  END
$$$$
OCNT-2310298
     RDKit          3D

 37 40  0  0  0  0  0  0  0  0999 V2000
   -3.9668   -0.4225   -2.1983 O   0  0  0  0  0  0  0  0  0  0  0  0
   -3.6673   -0.1780   -1.0339 C   0  0  0  0  0  0  0  0  0  0  0  0
   -2.3818   -0.0777   -0.5327 N   0  0  0  0  0  0  0  0  0  0  0  0
   -1.1655   -0.2314   -1.2351 C   0  0  0  0  0  0  0  0  0  0  0  0
   -1.0814   -0.5192   -2.5958 C   0  0  0  0  0  0  0  0  0  0  0  0
    0.1634   -0.6545   -3.2106 C   0  0  0  0  0  0  0  0  0  0  0  0
    1.3337   -0.5024   -2.4668 C   0  0  0  0  0  0  0  0  0  0  0  0
    1.2880   -0.2123   -1.0941 C   0  0  0  0  0  0  0  0  0  0  0  0
    2.5636   -0.0624   -0.3583 C   0  0  0  0  0  0  0  0  0  0  0  0
    3.7491   -0.1873   -0.9243 N   0  0  0  0  0  0  0  0  0  0  0  0
    4.7597    0.0039    0.0011 C   0  0  0  0  0  0  0  0  0  0  0  0
    6.1435   -0.0575   -0.2604 C   0  0  0  0  0  0  0  0  0  0  0  0
    7.0576    0.1576    0.7763 C   0  0  0  0  0  0  0  0  0  0  0  0
    6.6093    0.4319    2.0644 C   0  0  0  0  0  0  0  0  0  0  0  0
    5.2415    0.4979    2.3485 C   0  0  0  0  0  0  0  0  0  0  0  0
    4.3336    0.2800    1.2987 C   0  0  0  0  0  0  0  0  0  0  0  0
    2.6161    0.2937    1.3274 S   0  0  0  0  0  0  0  0  0  0  0  0
    0.0209   -0.0804   -0.4957 C   0  0  0  0  0  0  0  0  0  0  0  0
   -4.7833    0.0318   -0.0639 C   0  0  0  0  0  0  0  0  0  0  0  0
   -6.0992   -0.0619   -0.5353 C   0  0  0  0  0  0  0  0  0  0  0  0
   -7.1419    0.1309    0.3560 C   0  0  0  0  0  0  0  0  0  0  0  0
   -6.9631    0.4067    1.6657 N   0  0  0  0  0  0  0  0  0  0  0  0
   -5.6852    0.4926    2.0996 C   0  0  0  0  0  0  0  0  0  0  0  0
   -4.5820    0.3153    1.2831 C   0  0  0  0  0  0  0  0  0  0  0  0
   -3.3527    0.4210    1.8095 F   0  0  0  0  0  0  0  0  0  0  0  0
   -2.2865    0.1305    0.4554 H   0  0  0  0  0  0  0  0  0  0  0  0
   -1.9657   -0.6455   -3.2120 H   0  0  0  0  0  0  0  0  0  0  0  0
    0.2204   -0.8791   -4.2729 H   0  0  0  0  0  0  0  0  0  0  0  0
    2.2934   -0.6130   -2.9705 H   0  0  0  0  0  0  0  0  0  0  0  0
    6.4880   -0.2718   -1.2672 H   0  0  0  0  0  0  0  0  0  0  0  0
    8.1244    0.1094    0.5704 H   0  0  0  0  0  0  0  0  0  0  0  0
    7.3307    0.5973    2.8621 H   0  0  0  0  0  0  0  0  0  0  0  0
    4.8930    0.7120    3.3542 H   0  0  0  0  0  0  0  0  0  0  0  0
   -0.0559    0.1439    0.5646 H   0  0  0  0  0  0  0  0  0  0  0  0
   -6.3114   -0.2811   -1.5779 H   0  0  0  0  0  0  0  0  0  0  0  0
   -8.1770    0.0667    0.0300 H   0  0  0  0  0  0  0  0  0  0  0  0
   -5.5630    0.7149    3.1551 H   0  0  0  0  0  0  0  0  0  0  0  0
  1  2  2  0
  2  3  1  0
  3  4  1  0
  4  5  2  0
  5  6  1  0
  6  7  2  0
  7  8  1  0
  8  9  1  0
  9 10  2  0
 10 11  1  0
 11 12  2  0
 12 13  1  0
 13 14  2  0
 14 15  1  0
 15 16  2  0
 16 17  1  0
  8 18  2  0
  2 19  1  0
 19 20  2  0
 20 21  1  0
 21 22  2  0
 22 23  1  0
 23 24  2  0
 24 25  1  0
 18  4  1  0
 24 19  1  0
 17  9  1  0
 16 11  1  0
  3 26  1  0
  5 27  1  0
  6 28  1  0
  7 29  1  0
 12 30  1  0
 13 31  1  0
 14 32  1  0
 15 33  1  0
 18 34  1  0
 20 35  1  0
 21 36  1  0
 23 37  1  0
M  END
$$$$
OCNT-2310303
     RDKit          3D

 42 44  0  0  0  0  0  0  0  0999 V2000
    4.9261   -1.2114    1.1281 C   0  0  0  0  0  0  0  0  0  0  0  0
    3.6801   -0.4242    0.6623 C   0  0  0  0  0  0  0  0  0  0  0  0
    3.6906    0.9149    1.4254 C   0  0  0  0  0  0  0  0  0  0  0  0
    3.7859   -0.2490   -0.7947 N   0  0  0  0  0  0  0  0  0  0  0  0
    2.9626    0.5602   -1.5195 C   0  0  0  0  0  0  0  0  0  0  0  0
    3.1035    0.3776   -2.8587 N   0  0  0  0  0  0  0  0  0  0  0  0
    2.1988    1.4079   -1.0844 O   0  0  0  0  0  0  0  0  0  0  0  0
    2.4382   -1.2444    0.9178 C   0  0  0  0  0  0  0  0  0  0  0  0
    1.2448   -0.9181    1.5283 C   0  0  0  0  0  0  0  0  0  0  0  0
    0.4750   -2.0375    1.3952 N   0  0  0  0  0  0  0  0  0  0  0  0
   -0.8545   -2.3091    1.9155 C   0  0  0  0  0  0  0  0  0  0  0  0
   -1.7801   -1.1530    1.7242 C   0  0  0  0  0  0  0  0  0  0  0  0
   -2.3303   -0.8170    0.5763 N   0  0  0  0  0  0  0  0  0  0  0  0
   -3.1212    0.3105    0.7261 C   0  0  0  0  0  0  0  0  0  0  0  0
   -3.8135    0.9019   -0.4083 C   0  0  0  0  0  0  0  0  0  0  0  0
   -4.3778    0.0933   -1.4008 C   0  0  0  0  0  0  0  0  0  0  0  0
   -4.3401   -1.2450   -1.3057 F   0  0  0  0  0  0  0  0  0  0  0  0
   -5.0268    0.6443   -2.5078 C   0  0  0  0  0  0  0  0  0  0  0  0
   -5.1240    2.0273   -2.6420 C   0  0  0  0  0  0  0  0  0  0  0  0
   -4.5716    2.8511   -1.6635 C   0  0  0  0  0  0  0  0  0  0  0  0
   -3.9258    2.2878   -0.5620 C   0  0  0  0  0  0  0  0  0  0  0  0
   -3.4070    3.1248    0.3512 F   0  0  0  0  0  0  0  0  0  0  0  0
   -3.1855    0.7982    2.0170 C   0  0  0  0  0  0  0  0  0  0  0  0
   -2.2299   -0.1666    3.0624 S   0  0  0  0  0  0  0  0  0  0  0  0
    1.1703   -3.0294    0.8023 N   0  0  0  0  0  0  0  0  0  0  0  0
    2.3601   -2.5468    0.4768 N   0  0  0  0  0  0  0  0  0  0  0  0
    5.8450   -0.6460    0.9320 H   0  0  0  0  0  0  0  0  0  0  0  0
    5.0225   -2.1692    0.6010 H   0  0  0  0  0  0  0  0  0  0  0  0
    4.8843   -1.4307    2.2021 H   0  0  0  0  0  0  0  0  0  0  0  0
    2.8023    1.5239    1.2310 H   0  0  0  0  0  0  0  0  0  0  0  0
    3.7240    0.7505    2.5099 H   0  0  0  0  0  0  0  0  0  0  0  0
    4.5652    1.5162    1.1497 H   0  0  0  0  0  0  0  0  0  0  0  0
    4.0576   -1.0887   -1.2834 H   0  0  0  0  0  0  0  0  0  0  0  0
    2.4193    0.8979   -3.3935 H   0  0  0  0  0  0  0  0  0  0  0  0
    3.2688   -0.5583   -3.1939 H   0  0  0  0  0  0  0  0  0  0  0  0
    0.8903   -0.0063    1.9857 H   0  0  0  0  0  0  0  0  0  0  0  0
   -0.7298   -2.5821    2.9694 H   0  0  0  0  0  0  0  0  0  0  0  0
   -1.2493   -3.1811    1.3821 H   0  0  0  0  0  0  0  0  0  0  0  0
   -5.4545   -0.0172   -3.2561 H   0  0  0  0  0  0  0  0  0  0  0  0
   -5.6286    2.4592   -3.5020 H   0  0  0  0  0  0  0  0  0  0  0  0
   -4.6339    3.9314   -1.7511 H   0  0  0  0  0  0  0  0  0  0  0  0
   -3.7310    1.6522    2.3941 H   0  0  0  0  0  0  0  0  0  0  0  0
  1  2  1  0
  2  3  1  0
  2  4  1  0
  4  5  1  0
  5  6  1  0
  5  7  2  0
  2  8  1  0
  8  9  2  0
  9 10  1  0
 10 11  1  0
 11 12  1  0
 12 13  2  0
 13 14  1  0
 14 15  1  0
 15 16  2  0
 16 17  1  0
 16 18  1  0
 18 19  2  0
 19 20  1  0
 20 21  2  0
 21 22  1  0
 14 23  2  0
 23 24  1  0
 10 25  1  0
 25 26  2  0
 26  8  1  0
 24 12  1  0
 21 15  1  0
  1 27  1  0
  1 28  1  0
  1 29  1  0
  3 30  1  0
  3 31  1  0
  3 32  1  0
  4 33  1  0
  6 34  1  0
  6 35  1  0
  9 36  1  0
 11 37  1  0
 11 38  1  0
 18 39  1  0
 19 40  1  0
 20 41  1  0
 23 42  1  0
M  END
$$$$
OCNT-2310316
     RDKit          3D

 35 36  0  0  0  0  0  0  0  0999 V2000
    3.0391   -2.4507   -1.2425 C   0  0  0  0  0  0  0  0  0  0  0  0
    4.4868   -1.3660   -1.2086 S   0  0  0  0  0  0  0  0  0  0  0  0
    3.6545    0.2534   -1.3142 C   0  0  0  0  0  0  0  0  0  0  0  0
    3.1403    0.7366    0.0156 C   0  0  0  0  0  0  0  0  0  0  0  0
    4.0765    1.2237    0.9488 C   0  0  0  0  0  0  0  0  0  0  0  0
    3.6713    1.6864    2.1965 C   0  0  0  0  0  0  0  0  0  0  0  0
    2.3254    1.6566    2.4953 C   0  0  0  0  0  0  0  0  0  0  0  0
    1.3851    1.2013    1.6437 N   0  0  0  0  0  0  0  0  0  0  0  0
    1.8012    0.7420    0.4177 C   0  0  0  0  0  0  0  0  0  0  0  0
    0.6483    0.2442   -0.4333 C   0  0  0  0  0  0  0  0  0  0  0  0
    0.8186   -0.2160   -1.5530 O   0  0  0  0  0  0  0  0  0  0  0  0
   -0.5692    0.3720    0.2103 N   0  0  0  0  0  0  0  0  0  0  0  0
   -1.8614    0.0192   -0.2341 C   0  0  0  0  0  0  0  0  0  0  0  0
   -2.0978   -0.5500   -1.4873 C   0  0  0  0  0  0  0  0  0  0  0  0
   -3.3942   -0.8847   -1.8814 C   0  0  0  0  0  0  0  0  0  0  0  0
   -4.4700   -0.6525   -1.0277 C   0  0  0  0  0  0  0  0  0  0  0  0
   -4.2688   -0.0764    0.2361 C   0  0  0  0  0  0  0  0  0  0  0  0
   -5.4462    0.1552    1.1443 C   0  0  0  0  0  0  0  0  0  0  0  0
   -6.6463   -0.0821    0.5364 F   0  0  0  0  0  0  0  0  0  0  0  0
   -5.4310   -0.6562    2.2377 F   0  0  0  0  0  0  0  0  0  0  0  0
   -2.9585    0.2532    0.6259 C   0  0  0  0  0  0  0  0  0  0  0  0
   -2.6741    0.9742    2.1847 Cl  0  0  0  0  0  0  0  0  0  0  0  0
    2.4067   -2.2817   -0.3680 H   0  0  0  0  0  0  0  0  0  0  0  0
    3.3759   -3.4907   -1.2225 H   0  0  0  0  0  0  0  0  0  0  0  0
    2.4655   -2.2956   -2.1595 H   0  0  0  0  0  0  0  0  0  0  0  0
    4.4158    0.9678   -1.6540 H   0  0  0  0  0  0  0  0  0  0  0  0
    2.9184    0.2588   -2.1179 H   0  0  0  0  0  0  0  0  0  0  0  0
    5.1378    1.2354    0.7021 H   0  0  0  0  0  0  0  0  0  0  0  0
    4.3931    2.0576    2.9161 H   0  0  0  0  0  0  0  0  0  0  0  0
    1.9570    2.0061    3.4560 H   0  0  0  0  0  0  0  0  0  0  0  0
   -0.5014    0.7743    1.1473 H   0  0  0  0  0  0  0  0  0  0  0  0
   -1.2906   -0.7499   -2.1850 H   0  0  0  0  0  0  0  0  0  0  0  0
   -3.5616   -1.3317   -2.8592 H   0  0  0  0  0  0  0  0  0  0  0  0
   -5.4727   -0.9284   -1.3532 H   0  0  0  0  0  0  0  0  0  0  0  0
   -5.4734    1.1945    1.4856 H   0  0  0  0  0  0  0  0  0  0  0  0
  1  2  1  0
  2  3  1  0
  3  4  1  0
  4  5  1  0
  5  6  2  0
  6  7  1  0
  7  8  2  0
  8  9  1  0
  9 10  1  0
 10 11  2  0
 10 12  1  0
 12 13  1  0
 13 14  1  0
 14 15  2  0
 15 16  1  0
 16 17  2  0
 17 18  1  0
 18 19  1  0
 18 20  1  0
 17 21  1  0
 21 22  1  0
  9  4  2  0
 21 13  2  0
  1 23  1  0
  1 24  1  0
  1 25  1  0
  3 26  1  0
  3 27  1  0
  5 28  1  0
  6 29  1  0
  7 30  1  0
 12 31  1  0
 14 32  1  0
 15 33  1  0
 16 34  1  0
 18 35  1  0
M  END
$$$$
OCNT-2310317
     RDKit          3D

 39 42  0  0  0  0  0  0  0  0999 V2000
    1.8975   -3.0752   -0.3994 O   0  0  0  0  0  0  0  0  0  0  0  0
    2.3400   -2.1024    0.1988 C   0  0  0  0  0  0  0  0  0  0  0  0
    3.2059   -2.2335    1.2574 N   0  0  0  0  0  0  0  0  0  0  0  0
    3.9377   -1.1025    1.7828 C   0  0  0  0  0  0  0  0  0  0  0  0
    3.0375    0.1207    1.9375 C   0  0  0  0  0  0  0  0  0  0  0  0
    2.2610    0.3643    0.6682 C   0  0  0  0  0  0  0  0  0  0  0  0
    1.7958    1.6467    0.3466 C   0  0  0  0  0  0  0  0  0  0  0  0
    1.0235    1.8467   -0.7997 C   0  0  0  0  0  0  0  0  0  0  0  0
    0.7188    0.7607   -1.6252 C   0  0  0  0  0  0  0  0  0  0  0  0
   -0.3218    0.9785   -3.0486 S   0  0  0  0  0  0  0  0  0  0  0  0
   -0.5784    2.3932   -3.2119 O   0  0  0  0  0  0  0  0  0  0  0  0
    0.2504    0.1891   -4.1184 O   0  0  0  0  0  0  0  0  0  0  0  0
   -1.7482    0.1989   -2.5921 N   0  0  0  0  0  0  0  0  0  0  0  0
   -2.3755    0.5656   -1.3705 C   0  0  0  0  0  0  0  0  0  0  0  0
   -2.9692    1.8239   -1.2290 C   0  0  0  0  0  0  0  0  0  0  0  0
   -3.5468    2.2140   -0.0232 C   0  0  0  0  0  0  0  0  0  0  0  0
   -3.5354    1.3560    1.0810 C   0  0  0  0  0  0  0  0  0  0  0  0
   -2.9309    0.0888    0.9681 C   0  0  0  0  0  0  0  0  0  0  0  0
   -2.3636   -0.2850   -0.2540 C   0  0  0  0  0  0  0  0  0  0  0  0
   -1.8404   -1.5491   -0.0764 N   0  0  0  0  0  0  0  0  0  0  0  0
   -2.0560   -1.9799    1.2057 C   0  0  0  0  0  0  0  0  0  0  0  0
   -2.7358   -0.9896    1.8742 C   0  0  0  0  0  0  0  0  0  0  0  0
    1.1927   -0.5194   -1.3332 C   0  0  0  0  0  0  0  0  0  0  0  0
    1.9374   -0.7188   -0.1700 C   0  0  0  0  0  0  0  0  0  0  0  0
    3.5528   -3.1743    1.4034 H   0  0  0  0  0  0  0  0  0  0  0  0
    4.7569   -0.8938    1.0847 H   0  0  0  0  0  0  0  0  0  0  0  0
    4.3704   -1.3926    2.7450 H   0  0  0  0  0  0  0  0  0  0  0  0
    2.3205   -0.0404    2.7518 H   0  0  0  0  0  0  0  0  0  0  0  0
    3.6510    0.9925    2.1907 H   0  0  0  0  0  0  0  0  0  0  0  0
    2.0149    2.4929    0.9950 H   0  0  0  0  0  0  0  0  0  0  0  0
    0.6483    2.8422   -1.0297 H   0  0  0  0  0  0  0  0  0  0  0  0
   -1.7846   -0.7737   -2.8861 H   0  0  0  0  0  0  0  0  0  0  0  0
   -2.9915    2.5112   -2.0726 H   0  0  0  0  0  0  0  0  0  0  0  0
   -4.0091    3.1946    0.0609 H   0  0  0  0  0  0  0  0  0  0  0  0
   -3.9852    1.6685    2.0193 H   0  0  0  0  0  0  0  0  0  0  0  0
   -1.3474   -2.0791   -0.7817 H   0  0  0  0  0  0  0  0  0  0  0  0
   -1.7045   -2.9512    1.5284 H   0  0  0  0  0  0  0  0  0  0  0  0
   -3.0527   -1.0299    2.9082 H   0  0  0  0  0  0  0  0  0  0  0  0
    0.9639   -1.3586   -1.9862 H   0  0  0  0  0  0  0  0  0  0  0  0
  1  2  2  0
  2  3  1  0
  3  4  1  0
  4  5  1  0
  5  6  1  0
  6  7  1  0
  7  8  2  0
  8  9  1  0
  9 10  1  0
 10 11  2  0
 10 12  2  0
 10 13  1  0
 13 14  1  0
 14 15  1  0
 15 16  2  0
 16 17  1  0
 17 18  2  0
 18 19  1  0
 19 20  1  0
 20 21  1  0
 21 22  2  0
  9 23  2  0
 23 24  1  0
 24  2  1  0
 24  6  2  0
 19 14  2  0
 22 18  1  0
  3 25  1  0
  4 26  1  0
  4 27  1  0
  5 28  1  0
  5 29  1  0
  7 30  1  0
  8 31  1  0
 13 32  1  0
 15 33  1  0
 16 34  1  0
 17 35  1  0
 20 36  1  0
 21 37  1  0
 22 38  1  0
 23 39  1  0
M  END
$$$$
OCNT-2310324
     RDKit          3D

 37 40  0  0  0  0  0  0  0  0999 V2000
    1.6144   -2.1711   -1.1986 O   0  0  0  0  0  0  0  0  0  0  0  0
    1.9810   -1.0105   -1.0381 C   0  0  0  0  0  0  0  0  0  0  0  0
    1.3974    0.0496   -1.6858 N   0  0  0  0  0  0  0  0  0  0  0  0
    0.2403   -0.1105   -2.5346 C   0  0  0  0  0  0  0  0  0  0  0  0
   -1.0274    0.1747   -1.7823 C   0  0  0  0  0  0  0  0  0  0  0  0
   -1.6448   -0.8135   -1.0108 C   0  0  0  0  0  0  0  0  0  0  0  0
   -2.8172   -0.5290   -0.2982 C   0  0  0  0  0  0  0  0  0  0  0  0
   -3.4137    0.7457   -0.3211 C   0  0  0  0  0  0  0  0  0  0  0  0
   -4.6821    1.0956    0.4358 C   0  0  0  0  0  0  0  0  0  0  0  0
   -5.7897    0.0868    0.6206 C   0  0  0  0  0  0  0  0  0  0  0  0
   -4.9629    0.5133    1.8000 C   0  0  0  0  0  0  0  0  0  0  0  0
   -2.7689    1.7256   -1.0947 C   0  0  0  0  0  0  0  0  0  0  0  0
   -1.6014    1.4430   -1.8039 C   0  0  0  0  0  0  0  0  0  0  0  0
   -1.0253    2.4245   -2.5135 F   0  0  0  0  0  0  0  0  0  0  0  0
    3.0642   -0.6664   -0.1354 C   0  0  0  0  0  0  0  0  0  0  0  0
    3.6529    0.5602    0.1724 C   0  0  0  0  0  0  0  0  0  0  0  0
    4.6460    0.2417    1.1114 C   0  0  0  0  0  0  0  0  0  0  0  0
    4.6759   -1.0796    1.3662 C   0  0  0  0  0  0  0  0  0  0  0  0
    5.6875   -1.3426    2.3108 C   0  0  0  0  0  0  0  0  0  0  0  0
    6.2062   -0.0899    2.5553 C   0  0  0  0  0  0  0  0  0  0  0  0
    5.5894    0.8942    1.8367 O   0  0  0  0  0  0  0  0  0  0  0  0
    3.7043   -1.6589    0.6013 N   0  0  0  0  0  0  0  0  0  0  0  0
    1.6545    0.9891   -1.4257 H   0  0  0  0  0  0  0  0  0  0  0  0
    0.2102   -1.1217   -2.9564 H   0  0  0  0  0  0  0  0  0  0  0  0
    0.3551    0.5812   -3.3764 H   0  0  0  0  0  0  0  0  0  0  0  0
   -1.2144   -1.8126   -0.9542 H   0  0  0  0  0  0  0  0  0  0  0  0
   -3.2656   -1.3277    0.2892 H   0  0  0  0  0  0  0  0  0  0  0  0
   -5.0242    2.1226    0.3023 H   0  0  0  0  0  0  0  0  0  0  0  0
   -6.8117    0.4450    0.5607 H   0  0  0  0  0  0  0  0  0  0  0  0
   -5.6627   -0.9201    0.2415 H   0  0  0  0  0  0  0  0  0  0  0  0
   -5.4257    1.1600    2.5376 H   0  0  0  0  0  0  0  0  0  0  0  0
   -4.2696   -0.2016    2.2266 H   0  0  0  0  0  0  0  0  0  0  0  0
   -3.1739    2.7325   -1.1502 H   0  0  0  0  0  0  0  0  0  0  0  0
    3.4135    1.5387   -0.2152 H   0  0  0  0  0  0  0  0  0  0  0  0
    5.9969   -2.2800    2.7473 H   0  0  0  0  0  0  0  0  0  0  0  0
    7.0007    0.2607    3.2006 H   0  0  0  0  0  0  0  0  0  0  0  0
    3.4907   -2.6491    0.5789 H   0  0  0  0  0  0  0  0  0  0  0  0
  1  2  2  0
  2  3  1  0
  3  4  1  0
  4  5  1  0
  5  6  1  0
  6  7  2  0
  7  8  1  0
  8  9  1  0
  9 10  1  0
 10 11  1  0
  8 12  2  0
 12 13  1  0
 13 14  1  0
  2 15  1  0
 15 16  2  0
 16 17  1  0
 17 18  2  0
 18 19  1  0
 19 20  2  0
 20 21  1  0
 18 22  1  0
 13  5  2  0
 22 15  1  0
 11  9  1  0
 21 17  1  0
  3 23  1  0
  4 24  1  0
  4 25  1  0
  6 26  1  0
  7 27  1  0
  9 28  1  0
 10 29  1  0
 10 30  1  0
 11 31  1  0
 11 32  1  0
 12 33  1  0
 16 34  1  0
 19 35  1  0
 20 36  1  0
 22 37  1  0
M  END
$$$$
OCNT-2310327
     RDKit          3D

 49 53  0  0  0  0  0  0  0  0999 V2000
    0.9641   -1.7066    1.7074 O   0  0  0  0  0  0  0  0  0  0  0  0
    0.5576   -0.6942    1.1317 C   0  0  0  0  0  0  0  0  0  0  0  0
    1.4220    0.5469    0.8405 C   0  0  0  0  0  0  0  0  0  0  0  0
    2.8124    0.3800    1.2991 N   0  0  0  0  0  0  0  0  0  0  0  0
    3.6337   -0.5698    0.5276 C   0  0  0  0  0  0  0  0  0  0  0  0
    4.9196   -0.4757    1.3646 C   0  0  0  0  0  0  0  0  0  0  0  0
    4.9485    1.0086    1.7654 C   0  0  0  0  0  0  0  0  0  0  0  0
    3.6745    1.5562    1.1038 C   0  0  0  0  0  0  0  0  0  0  0  0
    3.8929    1.6174   -0.4149 C   0  0  0  0  0  0  0  0  0  0  0  0
    3.8689    0.1373   -0.8156 C   0  0  0  0  0  0  0  0  0  0  0  0
   -0.7554   -0.5890    0.6924 N   0  0  0  0  0  0  0  0  0  0  0  0
   -1.2702    0.5483    0.1202 N   0  0  0  0  0  0  0  0  0  0  0  0
   -2.5522    0.3511    0.0104 C   0  0  0  0  0  0  0  0  0  0  0  0
   -3.4707    1.3340   -0.6113 C   0  0  0  0  0  0  0  0  0  0  0  0
   -4.8593    1.1583   -0.5844 C   0  0  0  0  0  0  0  0  0  0  0  0
   -5.6968    2.1073   -1.1805 C   0  0  0  0  0  0  0  0  0  0  0  0
   -5.1485    3.2291   -1.8007 C   0  0  0  0  0  0  0  0  0  0  0  0
   -6.1830    4.3923   -2.5318 Cl  0  0  0  0  0  0  0  0  0  0  0  0
   -3.7682    3.4130   -1.8306 C   0  0  0  0  0  0  0  0  0  0  0  0
   -2.9296    2.4663   -1.2357 C   0  0  0  0  0  0  0  0  0  0  0  0
   -3.0551   -0.9341    0.6234 C   0  0  0  0  0  0  0  0  0  0  0  0
   -1.7343   -1.6610    0.8210 C   0  0  0  0  0  0  0  0  0  0  0  0
   -1.4646   -2.7077   -0.2164 C   0  0  0  0  0  0  0  0  0  0  0  0
   -0.6898   -3.8515   -0.2063 C   0  0  0  0  0  0  0  0  0  0  0  0
   -0.8155   -4.4367   -1.4881 C   0  0  0  0  0  0  0  0  0  0  0  0
   -1.6552   -3.6161   -2.2023 C   0  0  0  0  0  0  0  0  0  0  0  0
   -2.0552   -2.5655   -1.4418 O   0  0  0  0  0  0  0  0  0  0  0  0
    1.3472    0.7748   -0.2274 H   0  0  0  0  0  0  0  0  0  0  0  0
    0.9777    1.3794    1.3999 H   0  0  0  0  0  0  0  0  0  0  0  0
    3.2606   -1.5926    0.4399 H   0  0  0  0  0  0  0  0  0  0  0  0
    5.8135   -0.7635    0.8018 H   0  0  0  0  0  0  0  0  0  0  0  0
    4.8584   -1.1055    2.2602 H   0  0  0  0  0  0  0  0  0  0  0  0
    5.8568    1.5086    1.4139 H   0  0  0  0  0  0  0  0  0  0  0  0
    4.9031    1.1038    2.8569 H   0  0  0  0  0  0  0  0  0  0  0  0
    3.3253    2.4894    1.5528 H   0  0  0  0  0  0  0  0  0  0  0  0
    3.0856    2.1621   -0.9168 H   0  0  0  0  0  0  0  0  0  0  0  0
    4.8414    2.0939   -0.6836 H   0  0  0  0  0  0  0  0  0  0  0  0
    3.0534   -0.0549   -1.5214 H   0  0  0  0  0  0  0  0  0  0  0  0
    4.8069   -0.1676   -1.2913 H   0  0  0  0  0  0  0  0  0  0  0  0
   -5.3153    0.2971   -0.1050 H   0  0  0  0  0  0  0  0  0  0  0  0
   -6.7746    1.9660   -1.1571 H   0  0  0  0  0  0  0  0  0  0  0  0
   -3.3375    4.2866   -2.3132 H   0  0  0  0  0  0  0  0  0  0  0  0
   -1.8523    2.6186   -1.2663 H   0  0  0  0  0  0  0  0  0  0  0  0
   -3.7785   -1.4583   -0.0048 H   0  0  0  0  0  0  0  0  0  0  0  0
   -3.5136   -0.6901    1.5883 H   0  0  0  0  0  0  0  0  0  0  0  0
   -1.6701   -2.1081    1.8196 H   0  0  0  0  0  0  0  0  0  0  0  0
   -0.0927   -4.2017    0.6259 H   0  0  0  0  0  0  0  0  0  0  0  0
   -0.3438   -5.3392   -1.8499 H   0  0  0  0  0  0  0  0  0  0  0  0
   -2.0421   -3.6367   -3.2116 H   0  0  0  0  0  0  0  0  0  0  0  0
  1  2  2  0
  2  3  1  0
  3  4  1  0
  4  5  1  0
  5  6  1  0
  6  7  1  0
  7  8  1  0
  8  9  1  0
  9 10  1  0
  2 11  1  0
 11 12  1  0
 12 13  2  0
 13 14  1  0
 14 15  1  0
 15 16  2  0
 16 17  1  0
 17 18  1  0
 17 19  2  0
 19 20  1  0
 13 21  1  0
 21 22  1  0
 22 23  1  0
 23 24  2  0
 24 25  1  0
 25 26  2  0
 26 27  1  0
  8  4  1  0
 22 11  1  0
 27 23  1  0
 10  5  1  0
 20 14  2  0
  3 28  1  0
  3 29  1  0
  5 30  1  0
  6 31  1  0
  6 32  1  0
  7 33  1  0
  7 34  1  0
  8 35  1  0
  9 36  1  0
  9 37  1  0
 10 38  1  0
 10 39  1  0
 15 40  1  0
 16 41  1  0
 19 42  1  0
 20 43  1  0
 21 44  1  0
 21 45  1  0
 22 46  1  0
 24 47  1  0
 25 48  1  0
 26 49  1  0
M  END
$$$$
OCNT-2310338
     RDKit          3D

 53 57  0  0  0  0  0  0  0  0999 V2000
   -1.9399    1.1086    3.0298 C   0  0  0  0  0  0  0  0  0  0  0  0
   -2.7030    0.5093    1.9703 N   0  0  0  0  0  0  0  0  0  0  0  0
   -3.8339   -0.3190    2.1676 C   0  0  0  0  0  0  0  0  0  0  0  0
   -4.2790   -0.7428    3.2199 O   0  0  0  0  0  0  0  0  0  0  0  0
   -4.3335   -0.5271    0.8691 N   0  0  0  0  0  0  0  0  0  0  0  0
   -5.5003   -1.2747    0.4755 C   0  0  0  0  0  0  0  0  0  0  0  0
   -6.3156   -0.4800   -0.5448 C   0  0  0  0  0  0  0  0  0  0  0  0
   -5.4767    0.2065   -1.6465 C   0  0  0  0  0  0  0  0  0  0  0  0
   -3.9535    0.1087   -1.4793 C   0  0  0  0  0  0  0  0  0  0  0  0
   -3.5634    0.1604   -0.0458 C   0  0  0  0  0  0  0  0  0  0  0  0
   -2.5866    0.7931    0.6201 C   0  0  0  0  0  0  0  0  0  0  0  0
   -1.5466    1.6608    0.0279 C   0  0  0  0  0  0  0  0  0  0  0  0
   -1.8012    2.8407   -0.2005 O   0  0  0  0  0  0  0  0  0  0  0  0
   -0.3162    1.0654   -0.2251 N   0  0  0  0  0  0  0  0  0  0  0  0
   -0.0456   -0.3615   -0.0257 C   0  0  0  0  0  0  0  0  0  0  0  0
    1.3043   -0.7875   -0.5889 C   0  0  0  0  0  0  0  0  0  0  0  0
    2.4330    0.0883   -0.0206 C   0  0  0  0  0  0  0  0  0  0  0  0
    3.7498   -0.1963   -0.6977 C   0  0  0  0  0  0  0  0  0  0  0  0
    4.0475   -0.0344   -2.0427 C   0  0  0  0  0  0  0  0  0  0  0  0
    5.3487   -0.4171   -2.2456 N   0  0  0  0  0  0  0  0  0  0  0  0
    5.9086   -0.8099   -1.0645 C   0  0  0  0  0  0  0  0  0  0  0  0
    7.1767   -1.2419   -0.9336 N   0  0  0  0  0  0  0  0  0  0  0  0
    7.4851   -1.5835    0.3378 C   0  0  0  0  0  0  0  0  0  0  0  0
    6.6280   -1.5061    1.4269 C   0  0  0  0  0  0  0  0  0  0  0  0
    5.3240   -1.0473    1.2323 C   0  0  0  0  0  0  0  0  0  0  0  0
    4.9436   -0.6852   -0.0721 C   0  0  0  0  0  0  0  0  0  0  0  0
    2.0821    1.5906   -0.0343 C   0  0  0  0  0  0  0  0  0  0  0  0
    0.7702    1.8847   -0.7542 C   0  0  0  0  0  0  0  0  0  0  0  0
   -2.1110    0.5713    3.9659 H   0  0  0  0  0  0  0  0  0  0  0  0
   -2.2633    2.1469    3.1547 H   0  0  0  0  0  0  0  0  0  0  0  0
   -0.8732    1.0819    2.7900 H   0  0  0  0  0  0  0  0  0  0  0  0
   -5.1530   -2.2155    0.0324 H   0  0  0  0  0  0  0  0  0  0  0  0
   -6.1012   -1.5210    1.3568 H   0  0  0  0  0  0  0  0  0  0  0  0
   -6.8680    0.3046   -0.0081 H   0  0  0  0  0  0  0  0  0  0  0  0
   -7.0751   -1.1273   -0.9995 H   0  0  0  0  0  0  0  0  0  0  0  0
   -5.7619    1.2663   -1.6818 H   0  0  0  0  0  0  0  0  0  0  0  0
   -5.7535   -0.2032   -2.6271 H   0  0  0  0  0  0  0  0  0  0  0  0
   -3.4659    0.9028   -2.0580 H   0  0  0  0  0  0  0  0  0  0  0  0
   -3.6115   -0.8480   -1.8984 H   0  0  0  0  0  0  0  0  0  0  0  0
   -0.0817   -0.5617    1.0511 H   0  0  0  0  0  0  0  0  0  0  0  0
   -0.8420   -0.9455   -0.5000 H   0  0  0  0  0  0  0  0  0  0  0  0
    1.2743   -0.7160   -1.6841 H   0  0  0  0  0  0  0  0  0  0  0  0
    1.4901   -1.8432   -0.3554 H   0  0  0  0  0  0  0  0  0  0  0  0
    2.5436   -0.1922    1.0370 H   0  0  0  0  0  0  0  0  0  0  0  0
    3.4419    0.3067   -2.8729 H   0  0  0  0  0  0  0  0  0  0  0  0
    5.8451   -0.4260   -3.1262 H   0  0  0  0  0  0  0  0  0  0  0  0
    8.5018   -1.9435    0.4704 H   0  0  0  0  0  0  0  0  0  0  0  0
    6.9667   -1.8045    2.4135 H   0  0  0  0  0  0  0  0  0  0  0  0
    4.6307   -0.9786    2.0630 H   0  0  0  0  0  0  0  0  0  0  0  0
    2.8835    2.1968   -0.4734 H   0  0  0  0  0  0  0  0  0  0  0  0
    1.9857    1.9282    1.0070 H   0  0  0  0  0  0  0  0  0  0  0  0
    0.8564    1.6689   -1.8253 H   0  0  0  0  0  0  0  0  0  0  0  0
    0.5348    2.9495   -0.6605 H   0  0  0  0  0  0  0  0  0  0  0  0
  1  2  1  0
  2  3  1  0
  3  4  2  0
  3  5  1  0
  5  6  1  0
  6  7  1  0
  7  8  1  0
  8  9  1  0
  9 10  1  0
 10 11  2  0
 11 12  1  0
 12 13  2  0
 12 14  1  0
 14 15  1  0
 15 16  1  0
 16 17  1  0
 17 18  1  0
 18 19  2  0
 19 20  1  0
 20 21  1  0
 21 22  1  0
 22 23  2  0
 23 24  1  0
 24 25  2  0
 25 26  1  0
 17 27  1  0
 27 28  1  0
 11  2  1  0
 28 14  1  0
 10  5  1  0
 26 18  1  0
 26 21  2  0
  1 29  1  0
  1 30  1  0
  1 31  1  0
  6 32  1  0
  6 33  1  0
  7 34  1  0
  7 35  1  0
  8 36  1  0
  8 37  1  0
  9 38  1  0
  9 39  1  0
 15 40  1  0
 15 41  1  0
 16 42  1  0
 16 43  1  0
 17 44  1  0
 19 45  1  0
 20 46  1  0
 23 47  1  0
 24 48  1  0
 25 49  1  0
 27 50  1  0
 27 51  1  0
 28 52  1  0
 28 53  1  0
M  END
$$$$
