OCNT-2311030
     RDKit          3D

 40 42  0  0  0  0  0  0  0  0999 V2000
   -5.0263   -2.0608   -2.2407 C   0  0  0  0  0  0  0  0  0  0  0  0
   -4.3274   -1.3897   -1.1607 N   0  0  0  0  0  0  0  0  0  0  0  0
   -4.5650   -1.8678    0.1948 C   0  0  0  0  0  0  0  0  0  0  0  0
   -4.2492   -0.7973    1.2327 C   0  0  0  0  0  0  0  0  0  0  0  0
   -2.8746   -0.2396    0.9973 C   0  0  0  0  0  0  0  0  0  0  0  0
   -2.1259    0.2935    2.0511 C   0  0  0  0  0  0  0  0  0  0  0  0
   -0.8602    0.8423    1.8148 C   0  0  0  0  0  0  0  0  0  0  0  0
   -0.3275    0.8758    0.5250 C   0  0  0  0  0  0  0  0  0  0  0  0
    0.9362    1.4132    0.2065 N   0  0  0  0  0  0  0  0  0  0  0  0
    1.8758    1.9403    1.0767 C   0  0  0  0  0  0  0  0  0  0  0  0
    1.7823    2.0165    2.2985 O   0  0  0  0  0  0  0  0  0  0  0  0
    3.1216    2.4418    0.3641 C   0  0  0  0  0  0  0  0  0  0  0  0
    4.1018    1.3350    0.0815 C   0  0  0  0  0  0  0  0  0  0  0  0
    5.1414    1.0420    0.9760 C   0  0  0  0  0  0  0  0  0  0  0  0
    6.0317   -0.0040    0.7093 C   0  0  0  0  0  0  0  0  0  0  0  0
    5.8873   -0.7705   -0.4480 C   0  0  0  0  0  0  0  0  0  0  0  0
    4.8499   -0.4895   -1.3298 C   0  0  0  0  0  0  0  0  0  0  0  0
    4.7067   -1.2322   -2.4357 F   0  0  0  0  0  0  0  0  0  0  0  0
    3.9638    0.5495   -1.0667 C   0  0  0  0  0  0  0  0  0  0  0  0
    2.9546    0.7993   -1.9161 F   0  0  0  0  0  0  0  0  0  0  0  0
   -1.0833    0.3566   -0.5326 C   0  0  0  0  0  0  0  0  0  0  0  0
   -2.3511   -0.1963   -0.3020 C   0  0  0  0  0  0  0  0  0  0  0  0
   -3.1380   -0.7210   -1.4576 C   0  0  0  0  0  0  0  0  0  0  0  0
   -2.7242   -0.5487   -2.6001 O   0  0  0  0  0  0  0  0  0  0  0  0
   -4.6369   -3.0792   -2.3351 H   0  0  0  0  0  0  0  0  0  0  0  0
   -6.0959   -2.0908   -2.0149 H   0  0  0  0  0  0  0  0  0  0  0  0
   -4.8810   -1.5350   -3.1890 H   0  0  0  0  0  0  0  0  0  0  0  0
   -5.6141   -2.1682    0.2909 H   0  0  0  0  0  0  0  0  0  0  0  0
   -3.9365   -2.7549    0.3459 H   0  0  0  0  0  0  0  0  0  0  0  0
   -4.9724    0.0234    1.1602 H   0  0  0  0  0  0  0  0  0  0  0  0
   -4.3268   -1.2316    2.2360 H   0  0  0  0  0  0  0  0  0  0  0  0
   -2.5174    0.2900    3.0665 H   0  0  0  0  0  0  0  0  0  0  0  0
   -0.3168    1.2416    2.6656 H   0  0  0  0  0  0  0  0  0  0  0  0
    1.2035    1.3618   -0.7725 H   0  0  0  0  0  0  0  0  0  0  0  0
    3.5879    3.2150    0.9873 H   0  0  0  0  0  0  0  0  0  0  0  0
    2.8383    2.9501   -0.5663 H   0  0  0  0  0  0  0  0  0  0  0  0
    5.2597    1.6217    1.8909 H   0  0  0  0  0  0  0  0  0  0  0  0
    6.8347   -0.2237    1.4096 H   0  0  0  0  0  0  0  0  0  0  0  0
    6.5704   -1.5863   -0.6635 H   0  0  0  0  0  0  0  0  0  0  0  0
   -0.6974    0.3779   -1.5498 H   0  0  0  0  0  0  0  0  0  0  0  0
  1  2  1  0
  2  3  1  0
  3  4  1  0
  4  5  1  0
  5  6  1  0
  6  7  2  0
  7  8  1  0
  8  9  1  0
  9 10  1  0
 10 11  2  0
 10 12  1  0
 12 13  1  0
 13 14  2  0
 14 15  1  0
 15 16  2  0
 16 17  1  0
 17 18  1  0
 17 19  2  0
 19 20  1  0
  8 21  2  0
 21 22  1  0
 22 23  1  0
 23 24  2  0
 23  2  1  0
 22  5  2  0
 19 13  1  0
  1 25  1  0
  1 26  1  0
  1 27  1  0
  3 28  1  0
  3 29  1  0
  4 30  1  0
  4 31  1  0
  6 32  1  0
  7 33  1  0
  9 34  1  0
 12 35  1  0
 12 36  1  0
 14 37  1  0
 15 38  1  0
 16 39  1  0
 21 40  1  0
M  END
$$$$
OCNT-2311032
     RDKit          3D

 50 53  0  0  0  0  0  0  0  0999 V2000
   -7.1651   -1.3927   -1.3090 C   0  0  0  0  0  0  0  0  0  0  0  0
   -6.8316    0.0590   -1.0030 C   0  0  0  0  0  0  0  0  0  0  0  0
   -5.8103    0.1739    0.0971 C   0  0  0  0  0  0  0  0  0  0  0  0
   -4.4562    0.1177   -0.1882 C   0  0  0  0  0  0  0  0  0  0  0  0
   -3.5605    0.2043    0.8664 C   0  0  0  0  0  0  0  0  0  0  0  0
   -2.1856    0.1402    0.6455 N   0  0  0  0  0  0  0  0  0  0  0  0
   -1.3507   -0.0115    1.8407 C   0  0  0  0  0  0  0  0  0  0  0  0
    0.1069   -0.1806    1.4300 C   0  0  0  0  0  0  0  0  0  0  0  0
    0.6268    1.0696    0.7009 C   0  0  0  0  0  0  0  0  0  0  0  0
    1.6796    0.7033   -0.2667 N   0  0  0  0  0  0  0  0  0  0  0  0
    2.9421    0.3480    0.2712 C   0  0  0  0  0  0  0  0  0  0  0  0
    3.1307    0.4328    1.5970 N   0  0  0  0  0  0  0  0  0  0  0  0
    4.3447    0.1108    2.0496 C   0  0  0  0  0  0  0  0  0  0  0  0
    5.3885   -0.2787    1.3115 N   0  0  0  0  0  0  0  0  0  0  0  0
    5.2003   -0.3773   -0.0118 C   0  0  0  0  0  0  0  0  0  0  0  0
    6.2575   -0.7930   -0.8353 C   0  0  0  0  0  0  0  0  0  0  0  0
    7.5967   -1.1209   -0.2273 C   0  0  0  0  0  0  0  0  0  0  0  0
    6.0872   -0.9185   -2.2243 C   0  0  0  0  0  0  0  0  0  0  0  0
    4.8612   -0.6345   -2.8086 C   0  0  0  0  0  0  0  0  0  0  0  0
    3.8050   -0.2176   -2.0061 C   0  0  0  0  0  0  0  0  0  0  0  0
    3.9632   -0.0756   -0.6049 C   0  0  0  0  0  0  0  0  0  0  0  0
   -0.5046    1.8025   -0.0437 C   0  0  0  0  0  0  0  0  0  0  0  0
   -1.6070    0.8500   -0.4983 C   0  0  0  0  0  0  0  0  0  0  0  0
   -4.0115    0.3065    2.1296 N   0  0  0  0  0  0  0  0  0  0  0  0
   -5.3393    0.3497    2.3102 C   0  0  0  0  0  0  0  0  0  0  0  0
   -6.2733    0.2941    1.3537 N   0  0  0  0  0  0  0  0  0  0  0  0
   -6.2794   -1.9422   -1.6454 H   0  0  0  0  0  0  0  0  0  0  0  0
   -7.5607   -1.9032   -0.4243 H   0  0  0  0  0  0  0  0  0  0  0  0
   -7.9197   -1.4493   -2.0999 H   0  0  0  0  0  0  0  0  0  0  0  0
   -6.4648    0.5602   -1.9064 H   0  0  0  0  0  0  0  0  0  0  0  0
   -7.7448    0.5868   -0.7028 H   0  0  0  0  0  0  0  0  0  0  0  0
   -4.1155   -0.0215   -1.2056 H   0  0  0  0  0  0  0  0  0  0  0  0
   -1.4500    0.8583    2.5032 H   0  0  0  0  0  0  0  0  0  0  0  0
   -1.6572   -0.9027    2.4027 H   0  0  0  0  0  0  0  0  0  0  0  0
    0.7137   -0.3761    2.3215 H   0  0  0  0  0  0  0  0  0  0  0  0
    0.2017   -1.0678    0.7891 H   0  0  0  0  0  0  0  0  0  0  0  0
    1.0302    1.7880    1.4274 H   0  0  0  0  0  0  0  0  0  0  0  0
    1.8581    1.4520   -0.9327 H   0  0  0  0  0  0  0  0  0  0  0  0
    4.5008    0.1755    3.1208 H   0  0  0  0  0  0  0  0  0  0  0  0
    7.5012   -1.9596    0.4699 H   0  0  0  0  0  0  0  0  0  0  0  0
    8.3265   -1.4066   -0.9923 H   0  0  0  0  0  0  0  0  0  0  0  0
    7.9978   -0.2499    0.3012 H   0  0  0  0  0  0  0  0  0  0  0  0
    6.9126   -1.2469   -2.8525 H   0  0  0  0  0  0  0  0  0  0  0  0
    4.7258   -0.7434   -3.8814 H   0  0  0  0  0  0  0  0  0  0  0  0
    2.8427   -0.0182   -2.4720 H   0  0  0  0  0  0  0  0  0  0  0  0
   -0.1206    2.3659   -0.9024 H   0  0  0  0  0  0  0  0  0  0  0  0
   -0.9472    2.5438    0.6358 H   0  0  0  0  0  0  0  0  0  0  0  0
   -2.3519    1.4430   -1.0419 H   0  0  0  0  0  0  0  0  0  0  0  0
   -1.2043    0.1151   -1.2054 H   0  0  0  0  0  0  0  0  0  0  0  0
   -5.6896    0.4374    3.3325 H   0  0  0  0  0  0  0  0  0  0  0  0
  1  2  1  0
  2  3  1  0
  3  4  1  0
  4  5  2  0
  5  6  1  0
  6  7  1  0
  7  8  1  0
  8  9  1  0
  9 10  1  0
 10 11  1  0
 11 12  1  0
 12 13  2  0
 13 14  1  0
 14 15  2  0
 15 16  1  0
 16 17  1  0
 16 18  2  0
 18 19  1  0
 19 20  2  0
 20 21  1  0
  9 22  1  0
 22 23  1  0
  5 24  1  0
 24 25  2  0
 25 26  1  0
 26  3  2  0
 23  6  1  0
 21 11  2  0
 21 15  1  0
  1 27  1  0
  1 28  1  0
  1 29  1  0
  2 30  1  0
  2 31  1  0
  4 32  1  0
  7 33  1  0
  7 34  1  0
  8 35  1  0
  8 36  1  0
  9 37  1  0
 10 38  1  0
 13 39  1  0
 17 40  1  0
 17 41  1  0
 17 42  1  0
 18 43  1  0
 19 44  1  0
 20 45  1  0
 22 46  1  0
 22 47  1  0
 23 48  1  0
 23 49  1  0
 25 50  1  0
M  END
$$$$
OCNT-2311055
     RDKit          3D

 42 44  0  0  0  0  0  0  0  0999 V2000
    6.1776    1.8688    0.6856 C   0  0  0  0  0  0  0  0  0  0  0  0
    5.2135    1.8700   -0.4892 C   0  0  1  0  0  0  0  0  0  0  0  0
    5.9048    2.3644   -1.6367 O   0  0  0  0  0  0  0  0  0  0  0  0
    4.6680    0.4573   -0.7544 C   0  0  0  0  0  0  0  0  0  0  0  0
    5.0437   -0.1893   -1.7355 O   0  0  0  0  0  0  0  0  0  0  0  0
    3.7727   -0.0400    0.1548 N   0  0  0  0  0  0  0  0  0  0  0  0
    2.8404    0.6653    1.0241 C   0  0  0  0  0  0  0  0  0  0  0  0
    2.1074   -0.6834    1.1841 C   0  0  0  0  0  0  0  0  0  0  0  0
    0.6345   -0.6349    1.0118 N   0  0  0  0  0  0  0  0  0  0  0  0
   -0.1541    0.1069    1.8717 C   0  0  0  0  0  0  0  0  0  0  0  0
    0.3380    0.7858    2.7679 O   0  0  0  0  0  0  0  0  0  0  0  0
   -1.5786   -0.0034    1.6451 C   0  0  0  0  0  0  0  0  0  0  0  0
   -2.5979    0.2718    2.5399 C   0  0  0  0  0  0  0  0  0  0  0  0
   -3.8319    0.0397    1.8891 C   0  0  0  0  0  0  0  0  0  0  0  0
   -3.5639   -0.3615    0.5927 C   0  0  0  0  0  0  0  0  0  0  0  0
   -4.4689   -0.6932   -0.5097 C   0  0  0  0  0  0  0  0  0  0  0  0
   -5.6909   -0.0208   -0.6466 C   0  0  0  0  0  0  0  0  0  0  0  0
   -6.5600   -0.3249   -1.6977 C   0  0  0  0  0  0  0  0  0  0  0  0
   -6.2183   -1.3083   -2.6231 C   0  0  0  0  0  0  0  0  0  0  0  0
   -5.0099   -1.9898   -2.4963 C   0  0  0  0  0  0  0  0  0  0  0  0
   -4.1404   -1.6852   -1.4448 C   0  0  0  0  0  0  0  0  0  0  0  0
   -2.1916   -0.3537    0.4612 N   0  0  0  0  0  0  0  0  0  0  0  0
    2.8835   -1.1752   -0.0512 C   0  0  0  0  0  0  0  0  0  0  0  0
    6.5960    2.8692    0.8399 H   0  0  0  0  0  0  0  0  0  0  0  0
    5.6940    1.5460    1.6119 H   0  0  0  0  0  0  0  0  0  0  0  0
    7.0228    1.1976    0.4941 H   0  0  0  0  0  0  0  0  0  0  0  0
    4.3791    2.5517   -0.2994 H   0  0  0  0  0  0  0  0  0  0  0  0
    6.1815    1.5739   -2.1443 H   0  0  0  0  0  0  0  0  0  0  0  0
    3.2937    1.0538    1.9387 H   0  0  0  0  0  0  0  0  0  0  0  0
    2.2886    1.4545    0.5041 H   0  0  0  0  0  0  0  0  0  0  0  0
    2.3804   -1.2219    2.1009 H   0  0  0  0  0  0  0  0  0  0  0  0
    0.1770   -1.3610    0.4786 H   0  0  0  0  0  0  0  0  0  0  0  0
   -2.4557    0.6022    3.5624 H   0  0  0  0  0  0  0  0  0  0  0  0
   -4.8167    0.1551    2.3245 H   0  0  0  0  0  0  0  0  0  0  0  0
   -5.9734    0.7577    0.0582 H   0  0  0  0  0  0  0  0  0  0  0  0
   -7.5027    0.2081   -1.7924 H   0  0  0  0  0  0  0  0  0  0  0  0
   -6.8954   -1.5459   -3.4396 H   0  0  0  0  0  0  0  0  0  0  0  0
   -4.7471   -2.7639   -3.2130 H   0  0  0  0  0  0  0  0  0  0  0  0
   -3.2164   -2.2497   -1.3574 H   0  0  0  0  0  0  0  0  0  0  0  0
   -1.7098   -0.5197   -0.4106 H   0  0  0  0  0  0  0  0  0  0  0  0
    2.3501   -1.1306   -1.0061 H   0  0  0  0  0  0  0  0  0  0  0  0
    3.3761   -2.1436    0.0648 H   0  0  0  0  0  0  0  0  0  0  0  0
  1  2  1  0
  2  3  1  0
  2  4  1  0
  4  5  2  0
  4  6  1  0
  6  7  1  0
  7  8  1  0
  8  9  1  0
  9 10  1  0
 10 11  2  0
 10 12  1  0
 12 13  2  0
 13 14  1  0
 14 15  2  0
 15 16  1  0
 16 17  2  0
 17 18  1  0
 18 19  2  0
 19 20  1  0
 20 21  2  0
 15 22  1  0
  8 23  1  0
 23  6  1  0
 22 12  1  0
 21 16  1  0
  1 24  1  0
  1 25  1  0
  1 26  1  0
  2 27  1  1
  3 28  1  0
  7 29  1  0
  7 30  1  0
  8 31  1  0
  9 32  1  0
 13 33  1  0
 14 34  1  0
 17 35  1  0
 18 36  1  0
 19 37  1  0
 20 38  1  0
 21 39  1  0
 22 40  1  0
 23 41  1  0
 23 42  1  0
M  END
$$$$
OCNT-2311058
     RDKit          3D

 36 38  0  0  0  0  0  0  0  0999 V2000
   -1.5086    1.0408    2.0182 O   0  0  0  0  0  0  0  0  0  0  0  0
   -1.5086    0.5140    0.9096 C   0  0  0  0  0  0  0  0  0  0  0  0
   -0.4478   -0.2249    0.4379 N   0  0  0  0  0  0  0  0  0  0  0  0
    0.8120   -0.3183    1.1682 C   0  0  1  0  0  0  0  0  0  0  0  0
    0.7133   -1.2505    2.3767 C   0  0  0  0  0  0  0  0  0  0  0  0
    0.9266   -2.6571    1.8179 C   0  0  0  0  0  0  0  0  0  0  0  0
    1.5850   -2.4808    0.4517 C   0  0  0  0  0  0  0  0  0  0  0  0
    1.9228   -0.9906    0.3384 C   0  0  1  0  0  0  0  0  0  0  0  0
    1.9161   -0.6202   -1.0377 O   0  0  0  0  0  0  0  0  0  0  0  0
    2.4727    0.5750   -1.3335 C   0  0  0  0  0  0  0  0  0  0  0  0
    3.0954    1.4836   -0.5136 C   0  0  0  0  0  0  0  0  0  0  0  0
    3.4640    2.5208   -1.3257 N   0  0  0  0  0  0  0  0  0  0  0  0
    3.1295    2.3413   -2.6152 N   0  0  0  0  0  0  0  0  0  0  0  0
    2.5249    1.1495   -2.6172 C   0  0  0  0  0  0  0  0  0  0  0  0
   -2.6889    0.6727    0.0195 C   0  0  0  0  0  0  0  0  0  0  0  0
   -3.7934    1.3813    0.5068 C   0  0  0  0  0  0  0  0  0  0  0  0
   -4.8986    1.5337   -0.3139 C   0  0  0  0  0  0  0  0  0  0  0  0
   -4.9733    1.0350   -1.5667 N   0  0  0  0  0  0  0  0  0  0  0  0
   -3.8921    0.3563   -2.0159 C   0  0  0  0  0  0  0  0  0  0  0  0
   -2.7453    0.1529   -1.2690 C   0  0  0  0  0  0  0  0  0  0  0  0
   -1.7255   -0.5322   -1.8069 F   0  0  0  0  0  0  0  0  0  0  0  0
   -0.4325   -0.5045   -0.5391 H   0  0  0  0  0  0  0  0  0  0  0  0
    1.0873    0.6959    1.4758 H   0  0  0  0  0  0  0  0  0  0  0  0
   -0.2320   -1.1733    2.9222 H   0  0  0  0  0  0  0  0  0  0  0  0
    1.5223   -1.0205    3.0813 H   0  0  0  0  0  0  0  0  0  0  0  0
   -0.0300   -3.1802    1.7078 H   0  0  0  0  0  0  0  0  0  0  0  0
    1.5502   -3.2534    2.4922 H   0  0  0  0  0  0  0  0  0  0  0  0
    2.4830   -3.0997    0.3497 H   0  0  0  0  0  0  0  0  0  0  0  0
    0.8995   -2.7936   -0.3458 H   0  0  0  0  0  0  0  0  0  0  0  0
    2.9105   -0.8371    0.7955 H   0  0  0  0  0  0  0  0  0  0  0  0
    3.3121    1.5099    0.5433 H   0  0  0  0  0  0  0  0  0  0  0  0
    3.9446    3.3772   -1.0698 H   0  0  0  0  0  0  0  0  0  0  0  0
    2.1465    0.7487   -3.5481 H   0  0  0  0  0  0  0  0  0  0  0  0
   -3.7941    1.8062    1.5062 H   0  0  0  0  0  0  0  0  0  0  0  0
   -5.7775    2.0762    0.0247 H   0  0  0  0  0  0  0  0  0  0  0  0
   -3.9701   -0.0341   -3.0257 H   0  0  0  0  0  0  0  0  0  0  0  0
  1  2  2  0
  2  3  1  0
  3  4  1  0
  4  5  1  0
  5  6  1  0
  6  7  1  0
  7  8  1  0
  8  9  1  0
  9 10  1  0
 10 11  2  0
 11 12  1  0
 12 13  1  0
 13 14  2  0
  2 15  1  0
 15 16  2  0
 16 17  1  0
 17 18  2  0
 18 19  1  0
 19 20  2  0
 20 21  1  0
  8  4  1  0
 14 10  1  0
 20 15  1  0
  3 22  1  0
  4 23  1  1
  5 24  1  0
  5 25  1  0
  6 26  1  0
  6 27  1  0
  7 28  1  0
  7 29  1  0
  8 30  1  1
 11 31  1  0
 12 32  1  0
 14 33  1  0
 16 34  1  0
 17 35  1  0
 19 36  1  0
M  END
$$$$
OCNT-2311061
     RDKit          3D

 39 41  0  0  0  0  0  0  0  0999 V2000
   -3.2760   -2.6591    2.3647 C   0  0  0  0  0  0  0  0  0  0  0  0
   -2.3385   -2.2010    1.2891 C   0  0  0  0  0  0  0  0  0  0  0  0
   -1.0656   -2.7236    1.2076 C   0  0  0  0  0  0  0  0  0  0  0  0
   -0.2673   -2.2435    0.1922 C   0  0  0  0  0  0  0  0  0  0  0  0
    1.3763   -2.9119    0.0108 S   0  0  0  0  0  0  0  0  0  0  0  0
    2.1910   -1.6276   -1.0007 C   0  0  0  0  0  0  0  0  0  0  0  0
    2.6775   -0.4866   -0.1446 C   0  0  0  0  0  0  0  0  0  0  0  0
    3.8525   -0.5243    0.5077 C   0  0  0  0  0  0  0  0  0  0  0  0
    4.3103    0.6241    1.3366 C   0  0  0  0  0  0  0  0  0  0  0  0
    5.3807    0.5386    1.9328 O   0  0  0  0  0  0  0  0  0  0  0  0
    3.4634    1.7295    1.3649 N   0  0  0  0  0  0  0  0  0  0  0  0
    3.8340    2.8912    2.1554 C   0  0  0  0  0  0  0  0  0  0  0  0
    2.2717    1.7587    0.6647 C   0  0  0  0  0  0  0  0  0  0  0  0
    1.8720    0.7161   -0.0716 C   0  0  0  0  0  0  0  0  0  0  0  0
   -0.6869   -1.3255   -0.6884 N   0  0  0  0  0  0  0  0  0  0  0  0
   -1.9391   -0.8540   -0.5364 C   0  0  0  0  0  0  0  0  0  0  0  0
   -2.4086    0.1981   -1.4738 C   0  0  0  0  0  0  0  0  0  0  0  0
   -3.7558    0.5643   -1.5531 C   0  0  0  0  0  0  0  0  0  0  0  0
   -4.1497    1.5562   -2.4498 C   0  0  0  0  0  0  0  0  0  0  0  0
   -3.1938    2.1697   -3.2476 C   0  0  0  0  0  0  0  0  0  0  0  0
   -1.8780    1.7653   -3.1152 C   0  0  0  0  0  0  0  0  0  0  0  0
   -1.4677    0.8076   -2.2557 N   0  0  0  0  0  0  0  0  0  0  0  0
   -2.7911   -1.2703    0.4267 N   0  0  0  0  0  0  0  0  0  0  0  0
   -2.8466   -2.4575    3.3510 H   0  0  0  0  0  0  0  0  0  0  0  0
   -4.2337   -2.1322    2.2974 H   0  0  0  0  0  0  0  0  0  0  0  0
   -3.4689   -3.7319    2.2683 H   0  0  0  0  0  0  0  0  0  0  0  0
   -0.7134   -3.4726    1.9053 H   0  0  0  0  0  0  0  0  0  0  0  0
    1.5579   -1.2914   -1.8288 H   0  0  0  0  0  0  0  0  0  0  0  0
    3.0541   -2.1109   -1.4746 H   0  0  0  0  0  0  0  0  0  0  0  0
    4.5136   -1.3812    0.4822 H   0  0  0  0  0  0  0  0  0  0  0  0
    3.8498    3.7756    1.5105 H   0  0  0  0  0  0  0  0  0  0  0  0
    3.0935    3.0292    2.9496 H   0  0  0  0  0  0  0  0  0  0  0  0
    4.8203    2.7745    2.6122 H   0  0  0  0  0  0  0  0  0  0  0  0
    1.6746    2.6634    0.7314 H   0  0  0  0  0  0  0  0  0  0  0  0
    0.9391    0.7644   -0.6267 H   0  0  0  0  0  0  0  0  0  0  0  0
   -4.4983    0.0769   -0.9267 H   0  0  0  0  0  0  0  0  0  0  0  0
   -5.1947    1.8440   -2.5219 H   0  0  0  0  0  0  0  0  0  0  0  0
   -3.4672    2.9431   -3.9563 H   0  0  0  0  0  0  0  0  0  0  0  0
   -1.0912    2.2147   -3.7150 H   0  0  0  0  0  0  0  0  0  0  0  0
  1  2  1  0
  2  3  1  0
  3  4  2  0
  4  5  1  0
  5  6  1  0
  6  7  1  0
  7  8  2  0
  8  9  1  0
  9 10  2  0
  9 11  1  0
 11 12  1  0
 11 13  1  0
 13 14  2  0
  4 15  1  0
 15 16  2  0
 16 17  1  0
 17 18  2  0
 18 19  1  0
 19 20  2  0
 20 21  1  0
 21 22  2  0
 16 23  1  0
 23  2  2  0
 14  7  1  0
 22 17  1  0
  1 24  1  0
  1 25  1  0
  1 26  1  0
  3 27  1  0
  6 28  1  0
  6 29  1  0
  8 30  1  0
 12 31  1  0
 12 32  1  0
 12 33  1  0
 13 34  1  0
 14 35  1  0
 18 36  1  0
 19 37  1  0
 20 38  1  0
 21 39  1  0
M  END
$$$$
OCNT-2311071
     RDKit          3D

 50 54  0  0  0  0  0  0  0  0999 V2000
    5.9257   -2.4466    2.1059 C   0  0  0  0  0  0  0  0  0  0  0  0
    5.1293   -1.3297    1.4917 C   0  0  0  0  0  0  0  0  0  0  0  0
    4.2198   -1.6212    0.4796 C   0  0  0  0  0  0  0  0  0  0  0  0
    3.4808   -0.5771   -0.0813 C   0  0  0  0  0  0  0  0  0  0  0  0
    2.5171   -0.8700   -1.1456 C   0  0  0  0  0  0  0  0  0  0  0  0
    2.9671   -1.3009   -2.2030 O   0  0  0  0  0  0  0  0  0  0  0  0
    1.1602   -0.6384   -0.9034 N   0  0  0  0  0  0  0  0  0  0  0  0
    0.5845   -0.6828    0.4444 C   0  0  0  0  0  0  0  0  0  0  0  0
   -0.6935    0.1386    0.5540 C   0  0  0  0  0  0  0  0  0  0  0  0
   -1.6893   -0.2395   -0.5488 C   0  0  0  0  0  0  0  0  0  0  0  0
   -2.9087    0.5453   -0.4619 N   0  0  0  0  0  0  0  0  0  0  0  0
   -2.9986    1.9522   -0.5822 C   0  0  0  0  0  0  0  0  0  0  0  0
   -2.0957    2.7496   -0.7725 O   0  0  0  0  0  0  0  0  0  0  0  0
   -4.3534    2.2812   -0.4392 N   0  0  0  0  0  0  0  0  0  0  0  0
   -5.0846    1.1181   -0.2404 C   0  0  0  0  0  0  0  0  0  0  0  0
   -6.4409    0.9732   -0.0567 C   0  0  0  0  0  0  0  0  0  0  0  0
   -6.9164   -0.3286    0.1207 C   0  0  0  0  0  0  0  0  0  0  0  0
   -6.0349   -1.4299    0.1089 C   0  0  0  0  0  0  0  0  0  0  0  0
   -4.6580   -1.2540   -0.0801 C   0  0  0  0  0  0  0  0  0  0  0  0
   -4.2028    0.0360   -0.2532 C   0  0  0  0  0  0  0  0  0  0  0  0
   -1.0285   -0.1083   -1.9251 C   0  0  0  0  0  0  0  0  0  0  0  0
    0.2412   -0.9455   -1.9967 C   0  0  0  0  0  0  0  0  0  0  0  0
    3.7154    0.7324    0.3550 C   0  0  0  0  0  0  0  0  0  0  0  0
    3.2965    2.0570    0.0686 C   0  0  0  0  0  0  0  0  0  0  0  0
    2.3424    2.5346   -0.9606 C   0  0  0  0  0  0  0  0  0  0  0  0
    3.8928    2.9428    0.8790 N   0  0  0  0  0  0  0  0  0  0  0  0
    4.7380    2.2023    1.6909 O   0  0  0  0  0  0  0  0  0  0  0  0
    4.6430    0.8820    1.3727 C   0  0  0  0  0  0  0  0  0  0  0  0
    5.3546   -0.0881    1.9783 N   0  0  0  0  0  0  0  0  0  0  0  0
    5.2555   -3.1765    2.5705 H   0  0  0  0  0  0  0  0  0  0  0  0
    6.6021   -2.0649    2.8777 H   0  0  0  0  0  0  0  0  0  0  0  0
    6.5289   -2.9457    1.3410 H   0  0  0  0  0  0  0  0  0  0  0  0
    4.0846   -2.6395    0.1257 H   0  0  0  0  0  0  0  0  0  0  0  0
    0.3795   -1.7371    0.6685 H   0  0  0  0  0  0  0  0  0  0  0  0
    1.2992   -0.3367    1.1946 H   0  0  0  0  0  0  0  0  0  0  0  0
   -1.1471   -0.0141    1.5408 H   0  0  0  0  0  0  0  0  0  0  0  0
   -0.4385    1.2025    0.4903 H   0  0  0  0  0  0  0  0  0  0  0  0
   -1.9515   -1.2946   -0.4071 H   0  0  0  0  0  0  0  0  0  0  0  0
   -4.7047    3.2234   -0.4835 H   0  0  0  0  0  0  0  0  0  0  0  0
   -7.1127    1.8228   -0.0493 H   0  0  0  0  0  0  0  0  0  0  0  0
   -7.9810   -0.4977    0.2699 H   0  0  0  0  0  0  0  0  0  0  0  0
   -6.4343   -2.4327    0.2491 H   0  0  0  0  0  0  0  0  0  0  0  0
   -3.9965   -2.1107   -0.0872 H   0  0  0  0  0  0  0  0  0  0  0  0
   -1.7246   -0.4232   -2.7116 H   0  0  0  0  0  0  0  0  0  0  0  0
   -0.7752    0.9393   -2.1290 H   0  0  0  0  0  0  0  0  0  0  0  0
    0.7321   -0.7718   -2.9609 H   0  0  0  0  0  0  0  0  0  0  0  0
    0.0051   -2.0151   -1.9391 H   0  0  0  0  0  0  0  0  0  0  0  0
    2.4639    1.9798   -1.8959 H   0  0  0  0  0  0  0  0  0  0  0  0
    2.4991    3.5949   -1.1863 H   0  0  0  0  0  0  0  0  0  0  0  0
    1.3128    2.4132   -0.6138 H   0  0  0  0  0  0  0  0  0  0  0  0
  1  2  1  0
  2  3  2  0
  3  4  1  0
  4  5  1  0
  5  6  2  0
  5  7  1  0
  7  8  1  0
  8  9  1  0
  9 10  1  0
 10 11  1  0
 11 12  1  0
 12 13  2  0
 12 14  1  0
 14 15  1  0
 15 16  2  0
 16 17  1  0
 17 18  2  0
 18 19  1  0
 19 20  2  0
 10 21  1  0
 21 22  1  0
  4 23  2  0
 23 24  1  0
 24 25  1  0
 24 26  2  0
 26 27  1  0
 27 28  1  0
 28 29  2  0
 29  2  1  0
 22  7  1  0
 28 23  1  0
 20 11  1  0
 20 15  1  0
  1 30  1  0
  1 31  1  0
  1 32  1  0
  3 33  1  0
  8 34  1  0
  8 35  1  0
  9 36  1  0
  9 37  1  0
 10 38  1  0
 14 39  1  0
 16 40  1  0
 17 41  1  0
 18 42  1  0
 19 43  1  0
 21 44  1  0
 21 45  1  0
 22 46  1  0
 22 47  1  0
 25 48  1  0
 25 49  1  0
 25 50  1  0
M  END
$$$$
OCNT-2311083
     RDKit          3D

 50 52  0  0  0  0  0  0  0  0999 V2000
   -2.2370   -0.5953   -0.9131 O   0  0  0  0  0  0  0  0  0  0  0  0
   -2.3757   -0.0533    0.1731 C   0  0  0  0  0  0  0  0  0  0  0  0
   -1.3487    0.2428    1.0364 N   0  0  0  0  0  0  0  0  0  0  0  0
   -0.0047   -0.2187    0.7318 C   0  0  0  0  0  0  0  0  0  0  0  0
    1.0554    0.5695    1.5031 C   0  0  0  0  0  0  0  0  0  0  0  0
    2.3954    0.0856    1.2604 N   0  0  0  0  0  0  0  0  0  0  0  0
    2.8984   -1.0388    1.8806 C   0  0  0  0  0  0  0  0  0  0  0  0
    2.2947   -1.6693    2.7407 O   0  0  0  0  0  0  0  0  0  0  0  0
    4.2594   -1.4493    1.4060 C   0  0  0  0  0  0  0  0  0  0  0  0
    4.8762   -2.5610    1.9589 C   0  0  0  0  0  0  0  0  0  0  0  0
    6.1339   -2.9066    1.4845 C   0  0  0  0  0  0  0  0  0  0  0  0
    6.7235   -2.1360    0.4819 C   0  0  0  0  0  0  0  0  0  0  0  0
    6.0381   -1.0321   -0.0263 C   0  0  0  0  0  0  0  0  0  0  0  0
    6.5607   -0.1446   -1.0829 C   0  0  0  0  0  0  0  0  0  0  0  0
    6.0072    1.0372   -1.5552 C   0  0  0  0  0  0  0  0  0  0  0  0
    6.7733    1.6454   -2.5912 C   0  0  0  0  0  0  0  0  0  0  0  0
    7.8970    0.9127   -2.8911 C   0  0  0  0  0  0  0  0  0  0  0  0
    8.0186   -0.4924   -1.9295 S   0  0  0  0  0  0  0  0  0  0  0  0
    4.8096   -0.6771    0.4266 N   0  0  0  0  0  0  0  0  0  0  0  0
   -3.5794    0.3480    0.6991 N   0  0  0  0  0  0  0  0  0  0  0  0
   -4.8069    0.2250   -0.0754 C   0  0  0  0  0  0  0  0  0  0  0  0
   -4.8864    1.3065   -1.1687 C   0  0  0  0  0  0  0  0  0  0  0  0
   -6.3189    1.6763   -1.5619 C   0  0  0  0  0  0  0  0  0  0  0  0
   -7.2789    0.5103   -1.3740 C   0  0  0  0  0  0  0  0  0  0  0  0
   -7.3307    0.0461    0.0825 C   0  0  0  0  0  0  0  0  0  0  0  0
   -6.0255    0.2796    0.8465 C   0  0  0  0  0  0  0  0  0  0  0  0
   -1.6231    0.1628    2.0055 H   0  0  0  0  0  0  0  0  0  0  0  0
    0.1756   -0.1303   -0.3462 H   0  0  0  0  0  0  0  0  0  0  0  0
    0.0382   -1.2855    0.9800 H   0  0  0  0  0  0  0  0  0  0  0  0
    1.0311    1.6255    1.2131 H   0  0  0  0  0  0  0  0  0  0  0  0
    0.8539    0.5163    2.5794 H   0  0  0  0  0  0  0  0  0  0  0  0
    2.9545    0.4671    0.5011 H   0  0  0  0  0  0  0  0  0  0  0  0
    4.3898   -3.1411    2.7365 H   0  0  0  0  0  0  0  0  0  0  0  0
    6.6551   -3.7699    1.8900 H   0  0  0  0  0  0  0  0  0  0  0  0
    7.7084   -2.4125    0.1204 H   0  0  0  0  0  0  0  0  0  0  0  0
    5.0833    1.4493   -1.1668 H   0  0  0  0  0  0  0  0  0  0  0  0
    6.5109    2.5710   -3.0892 H   0  0  0  0  0  0  0  0  0  0  0  0
    8.6540    1.1340   -3.6312 H   0  0  0  0  0  0  0  0  0  0  0  0
   -3.5114    1.1446    1.3155 H   0  0  0  0  0  0  0  0  0  0  0  0
   -4.7861   -0.7596   -0.5620 H   0  0  0  0  0  0  0  0  0  0  0  0
   -4.3470    0.9491   -2.0553 H   0  0  0  0  0  0  0  0  0  0  0  0
   -4.3666    2.2207   -0.8540 H   0  0  0  0  0  0  0  0  0  0  0  0
   -6.6563    2.5214   -0.9487 H   0  0  0  0  0  0  0  0  0  0  0  0
   -6.3370    2.0197   -2.6024 H   0  0  0  0  0  0  0  0  0  0  0  0
   -6.9593   -0.3244   -2.0106 H   0  0  0  0  0  0  0  0  0  0  0  0
   -8.2853    0.7880   -1.7071 H   0  0  0  0  0  0  0  0  0  0  0  0
   -7.5866   -1.0203    0.1021 H   0  0  0  0  0  0  0  0  0  0  0  0
   -8.1421    0.5637    0.6087 H   0  0  0  0  0  0  0  0  0  0  0  0
   -6.0652    1.2596    1.3412 H   0  0  0  0  0  0  0  0  0  0  0  0
   -5.9373   -0.4599    1.6519 H   0  0  0  0  0  0  0  0  0  0  0  0
  1  2  2  0
  2  3  1  0
  3  4  1  0
  4  5  1  0
  5  6  1  0
  6  7  1  0
  7  8  2  0
  7  9  1  0
  9 10  1  0
 10 11  2  0
 11 12  1  0
 12 13  2  0
 13 14  1  0
 14 15  2  0
 15 16  1  0
 16 17  2  0
 17 18  1  0
 13 19  1  0
  2 20  1  0
 20 21  1  0
 21 22  1  0
 22 23  1  0
 23 24  1  0
 24 25  1  0
 25 26  1  0
 19  9  2  0
 26 21  1  0
 18 14  1  0
  3 27  1  0
  4 28  1  0
  4 29  1  0
  5 30  1  0
  5 31  1  0
  6 32  1  0
 10 33  1  0
 11 34  1  0
 12 35  1  0
 15 36  1  0
 16 37  1  0
 17 38  1  0
 20 39  1  0
 21 40  1  0
 22 41  1  0
 22 42  1  0
 23 43  1  0
 23 44  1  0
 24 45  1  0
 24 46  1  0
 25 47  1  0
 25 48  1  0
 26 49  1  0
 26 50  1  0
M  END
$$$$
OCNT-2311086
     RDKit          3D

 50 53  0  0  0  0  0  0  0  0999 V2000
   -4.7658    2.7863    1.9286 C   0  0  0  0  0  0  0  0  0  0  0  0
   -3.6776    1.8726    1.8905 O   0  0  0  0  0  0  0  0  0  0  0  0
   -3.6996    0.9135    0.9121 C   0  0  0  0  0  0  0  0  0  0  0  0
   -2.6147    0.0264    0.9486 C   0  0  0  0  0  0  0  0  0  0  0  0
   -2.4710   -0.9960    0.0074 C   0  0  0  0  0  0  0  0  0  0  0  0
   -1.4465   -1.9450    0.0332 N   0  0  0  0  0  0  0  0  0  0  0  0
   -0.1658   -1.6854    0.7182 C   0  0  0  0  0  0  0  0  0  0  0  0
    0.5929   -3.0241    0.8221 C   0  0  0  0  0  0  0  0  0  0  0  0
    1.5948   -3.1804   -0.3133 C   0  0  0  0  0  0  0  0  0  0  0  0
    2.6665   -2.0912   -0.2454 C   0  0  0  0  0  0  0  0  0  0  0  0
    2.1038   -0.7942    0.1443 N   0  0  0  0  0  0  0  0  0  0  0  0
    2.9125    0.3313   -0.0696 C   0  0  0  0  0  0  0  0  0  0  0  0
    2.3206    1.5602   -0.1980 N   0  0  0  0  0  0  0  0  0  0  0  0
    3.0749    2.6636   -0.3852 C   0  0  0  0  0  0  0  0  0  0  0  0
    4.4127    2.7472   -0.4708 N   0  0  0  0  0  0  0  0  0  0  0  0
    4.9694    1.5326   -0.3343 C   0  0  0  0  0  0  0  0  0  0  0  0
    4.3268    0.3214   -0.1373 C   0  0  0  0  0  0  0  0  0  0  0  0
    5.2734   -0.6747   -0.0489 N   0  0  0  0  0  0  0  0  0  0  0  0
    6.4754   -0.1252   -0.1901 N   0  0  0  0  0  0  0  0  0  0  0  0
    6.2921    1.2003   -0.3550 N   0  0  0  0  0  0  0  0  0  0  0  0
    7.4224    2.0696   -0.5276 C   0  0  0  0  0  0  0  0  0  0  0  0
    0.6586   -0.5988   -0.0299 C   0  0  0  0  0  0  0  0  0  0  0  0
   -3.4952   -1.1460   -0.9372 C   0  0  0  0  0  0  0  0  0  0  0  0
   -4.5876   -0.2723   -0.9914 C   0  0  0  0  0  0  0  0  0  0  0  0
   -5.4834   -0.5463   -1.9903 O   0  0  0  0  0  0  0  0  0  0  0  0
   -6.6380    0.2795   -2.0695 C   0  0  0  0  0  0  0  0  0  0  0  0
   -4.6829    0.7670   -0.0669 C   0  0  0  0  0  0  0  0  0  0  0  0
   -4.8075    3.3878    1.0146 H   0  0  0  0  0  0  0  0  0  0  0  0
   -4.6005    3.4684    2.7681 H   0  0  0  0  0  0  0  0  0  0  0  0
   -5.7130    2.2659    2.1042 H   0  0  0  0  0  0  0  0  0  0  0  0
   -1.8861    0.1608    1.7421 H   0  0  0  0  0  0  0  0  0  0  0  0
   -1.3259   -2.4004   -0.8688 H   0  0  0  0  0  0  0  0  0  0  0  0
   -0.3554   -1.3641    1.7494 H   0  0  0  0  0  0  0  0  0  0  0  0
    1.1372   -3.0539    1.7753 H   0  0  0  0  0  0  0  0  0  0  0  0
   -0.0998   -3.8742    0.8338 H   0  0  0  0  0  0  0  0  0  0  0  0
    1.0715   -3.1292   -1.2763 H   0  0  0  0  0  0  0  0  0  0  0  0
    2.0722   -4.1658   -0.2672 H   0  0  0  0  0  0  0  0  0  0  0  0
    3.4126   -2.3930    0.4995 H   0  0  0  0  0  0  0  0  0  0  0  0
    3.1596   -2.0369   -1.2240 H   0  0  0  0  0  0  0  0  0  0  0  0
    2.5289    3.5981   -0.4781 H   0  0  0  0  0  0  0  0  0  0  0  0
    7.9400    1.7847   -1.4470 H   0  0  0  0  0  0  0  0  0  0  0  0
    8.0848    1.9531    0.3340 H   0  0  0  0  0  0  0  0  0  0  0  0
    7.0880    3.1072   -0.5972 H   0  0  0  0  0  0  0  0  0  0  0  0
    0.4250   -0.6050   -1.1033 H   0  0  0  0  0  0  0  0  0  0  0  0
    0.3277    0.3718    0.3596 H   0  0  0  0  0  0  0  0  0  0  0  0
   -3.4519   -1.9615   -1.6556 H   0  0  0  0  0  0  0  0  0  0  0  0
   -6.3657    1.3176   -2.2865 H   0  0  0  0  0  0  0  0  0  0  0  0
   -7.2377    0.2097   -1.1558 H   0  0  0  0  0  0  0  0  0  0  0  0
   -7.2524   -0.0835   -2.8991 H   0  0  0  0  0  0  0  0  0  0  0  0
   -5.5200    1.4503   -0.1023 H   0  0  0  0  0  0  0  0  0  0  0  0
  1  2  1  0
  2  3  1  0
  3  4  1  0
  4  5  2  0
  5  6  1  0
  6  7  1  0
  7  8  1  0
  8  9  1  0
  9 10  1  0
 10 11  1  0
 11 12  1  0
 12 13  1  0
 13 14  2  0
 14 15  1  0
 15 16  2  0
 16 17  1  0
 17 18  1  0
 18 19  2  0
 19 20  1  0
 20 21  1  0
 11 22  1  0
  5 23  1  0
 23 24  2  0
 24 25  1  0
 25 26  1  0
 24 27  1  0
 27  3  2  0
 22  7  1  0
 17 12  2  0
 20 16  1  0
  1 28  1  0
  1 29  1  0
  1 30  1  0
  4 31  1  0
  6 32  1  0
  7 33  1  0
  8 34  1  0
  8 35  1  0
  9 36  1  0
  9 37  1  0
 10 38  1  0
 10 39  1  0
 14 40  1  0
 21 41  1  0
 21 42  1  0
 21 43  1  0
 22 44  1  0
 22 45  1  0
 23 46  1  0
 26 47  1  0
 26 48  1  0
 26 49  1  0
 27 50  1  0
M  END
$$$$
OCNT-2311088
     RDKit          3D

  0  0  0  0  0  0  0  0  0  0999 V3000
M  V30 BEGIN CTAB
M  V30 COUNTS 36 40 0 0 0
M  V30 BEGIN ATOM
M  V30 1 Br 7.701393 -1.803564 -2.177729 0
M  V30 2 C 6.336821 -0.945253 -1.185157 0
M  V30 3 C 6.677276 0.052157 -0.273726 0
M  V30 4 C 5.691224 0.704044 0.473822 0
M  V30 5 C 4.362407 0.314974 0.269005 0
M  V30 6 N 3.202111 0.772941 0.852012 0
M  V30 7 C 2.124893 0.099861 0.345734 0
M  V30 8 C 0.661118 0.348179 0.769447 0
M  V30 9 N 0.331682 1.259350 1.693880 0
M  V30 10 O -1.057333 1.151156 1.764761 0
M  V30 11 C -1.420132 0.193031 0.859257 0
M  V30 12 C -2.867728 -0.140703 0.784547 0 CFG=2
M  V30 13 C -3.240928 -0.929226 -0.482821 0
M  V30 14 C -4.325395 -0.049030 -1.103084 0 CFG=1
M  V30 15 C -5.602260 -0.082897 -0.264847 0
M  V30 16 C -5.208942 0.758711 0.950461 0
M  V30 17 C -3.752547 1.108590 0.637650 0 CFG=2
M  V30 18 O -3.823443 1.270807 -0.800205 0
M  V30 19 N -0.393214 -0.347888 0.242654 0
M  V30 20 C 2.581005 -0.807623 -0.581360 0
M  V30 21 C 3.997597 -0.682167 -0.639144 0
M  V30 22 C 5.005612 -1.326264 -1.382432 0
M  V30 23 H 7.717966 0.335439 -0.134081 0
M  V30 24 H 5.954058 1.481723 1.183845 0
M  V30 25 H 3.144468 1.500363 1.551709 0
M  V30 26 H -3.125957 -0.703279 1.689699 0
M  V30 27 H -3.604657 -1.936815 -0.256936 0
M  V30 28 H -2.399802 -1.020892 -1.178963 0
M  V30 29 H -4.479438 -0.204022 -2.173188 0
M  V30 30 H -5.914234 -1.097824 -0.001692 0
M  V30 31 H -6.426915 0.405580 -0.795843 0
M  V30 32 H -5.331538 0.228472 1.899252 0
M  V30 33 H -5.823689 1.665573 0.979754 0
M  V30 34 H -3.401144 2.017093 1.132925 0
M  V30 35 H 1.964147 -1.487091 -1.155414 0
M  V30 36 H 4.745519 -2.103505 -2.094135 0
M  V30 END ATOM
M  V30 BEGIN BOND
M  V30 1 1 1 2
M  V30 2 2 2 3
M  V30 3 1 3 4
M  V30 4 2 4 5
M  V30 5 1 5 6
M  V30 6 1 6 7
M  V30 7 1 7 8
M  V30 8 2 8 9
M  V30 9 1 9 10
M  V30 10 1 10 11
M  V30 11 1 11 12
M  V30 12 1 12 13
M  V30 13 1 13 14
M  V30 14 1 14 15
M  V30 15 1 15 16
M  V30 16 1 16 17
M  V30 17 1 17 18
M  V30 18 2 11 19
M  V30 19 2 7 20
M  V30 20 1 20 21
M  V30 21 2 21 22
M  V30 22 1 22 2
M  V30 23 1 21 5
M  V30 24 1 19 8
M  V30 25 1 17 12
M  V30 26 1 18 14
M  V30 27 1 3 23
M  V30 28 1 4 24
M  V30 29 1 6 25
M  V30 30 1 12 26 CFG=1
M  V30 31 1 13 27
M  V30 32 1 13 28
M  V30 33 1 14 29 CFG=3
M  V30 34 1 15 30
M  V30 35 1 15 31
M  V30 36 1 16 32
M  V30 37 1 16 33
M  V30 38 1 17 34 CFG=1
M  V30 39 1 20 35
M  V30 40 1 22 36
M  V30 END BOND
M  V30 BEGIN COLLECTION
M  V30 MDLV30/STERAC1 ATOMS=(3 12 14 17)
M  V30 END COLLECTION
M  V30 END CTAB
M  END
>  <_CXSMILES_Data>  (409) 
|&1:11,13,16|

$$$$
OCNT-2311091
     RDKit          3D

 35 37  0  0  0  0  0  0  0  0999 V2000
   -1.4988   -2.3073    0.3565 O   0  0  0  0  0  0  0  0  0  0  0  0
   -1.1476   -1.4452   -0.4407 C   0  0  0  0  0  0  0  0  0  0  0  0
   -2.0471   -0.8162   -1.2800 N   0  0  0  0  0  0  0  0  0  0  0  0
   -3.4679   -1.0684   -1.1571 C   0  0  0  0  0  0  0  0  0  0  0  0
   -4.1272   -0.0396   -0.2869 C   0  0  0  0  0  0  0  0  0  0  0  0
   -4.7118    1.1115   -0.8241 C   0  0  0  0  0  0  0  0  0  0  0  0
   -5.2952    2.0491    0.0235 C   0  0  0  0  0  0  0  0  0  0  0  0
   -5.2695    1.8074    1.3866 C   0  0  0  0  0  0  0  0  0  0  0  0
   -4.7075    0.7140    1.9424 N   0  0  0  0  0  0  0  0  0  0  0  0
   -4.1473   -0.1819    1.0977 C   0  0  0  0  0  0  0  0  0  0  0  0
    0.2084   -0.9899   -0.5793 C   0  0  0  0  0  0  0  0  0  0  0  0
    1.2418   -0.9293    0.3308 C   0  0  0  0  0  0  0  0  0  0  0  0
    1.1966   -1.4442    2.1372 Br  0  0  0  0  0  0  0  0  0  0  0  0
    2.3668   -0.4020   -0.3589 C   0  0  0  0  0  0  0  0  0  0  0  0
    3.7108   -0.1032    0.1310 C   0  0  0  0  0  0  0  0  0  0  0  0
    3.9069    0.6710    1.2821 C   0  0  0  0  0  0  0  0  0  0  0  0
    5.1991    0.9474    1.7366 C   0  0  0  0  0  0  0  0  0  0  0  0
    6.3041    0.4602    1.0403 C   0  0  0  0  0  0  0  0  0  0  0  0
    6.1206   -0.2982   -0.1144 C   0  0  0  0  0  0  0  0  0  0  0  0
    4.8297   -0.5755   -0.5696 C   0  0  0  0  0  0  0  0  0  0  0  0
    2.0543   -0.1906   -1.6502 N   0  0  0  0  0  0  0  0  0  0  0  0
    0.7731   -0.5670   -1.7495 N   0  0  0  0  0  0  0  0  0  0  0  0
   -1.7870    0.0774   -1.6719 H   0  0  0  0  0  0  0  0  0  0  0  0
   -3.8878   -1.0304   -2.1686 H   0  0  0  0  0  0  0  0  0  0  0  0
   -3.6550   -2.0771   -0.7716 H   0  0  0  0  0  0  0  0  0  0  0  0
   -4.7218    1.2823   -1.8974 H   0  0  0  0  0  0  0  0  0  0  0  0
   -5.7601    2.9470   -0.3679 H   0  0  0  0  0  0  0  0  0  0  0  0
   -5.7121    2.5077    2.0891 H   0  0  0  0  0  0  0  0  0  0  0  0
   -3.6955   -1.0450    1.5834 H   0  0  0  0  0  0  0  0  0  0  0  0
    3.0599    1.0778    1.8288 H   0  0  0  0  0  0  0  0  0  0  0  0
    5.3420    1.5472    2.6317 H   0  0  0  0  0  0  0  0  0  0  0  0
    7.3087    0.6771    1.3942 H   0  0  0  0  0  0  0  0  0  0  0  0
    6.9807   -0.6721   -0.6636 H   0  0  0  0  0  0  0  0  0  0  0  0
    4.6967   -1.1625   -1.4759 H   0  0  0  0  0  0  0  0  0  0  0  0
    0.3391   -0.5317   -2.6654 H   0  0  0  0  0  0  0  0  0  0  0  0
  1  2  2  0
  2  3  1  0
  3  4  1  0
  4  5  1  0
  5  6  1  0
  6  7  2  0
  7  8  1  0
  8  9  2  0
  9 10  1  0
  2 11  1  0
 11 12  2  0
 12 13  1  0
 12 14  1  0
 14 15  1  0
 15 16  2  0
 16 17  1  0
 17 18  2  0
 18 19  1  0
 19 20  2  0
 14 21  2  0
 21 22  1  0
 10  5  2  0
 22 11  1  0
 20 15  1  0
  3 23  1  0
  4 24  1  0
  4 25  1  0
  6 26  1  0
  7 27  1  0
  8 28  1  0
 10 29  1  0
 16 30  1  0
 17 31  1  0
 18 32  1  0
 19 33  1  0
 20 34  1  0
 22 35  1  0
M  END
$$$$
OCNT-2311094
     RDKit          3D

 39 41  0  0  0  0  0  0  0  0999 V2000
   -2.5056   -2.7726    2.2286 C   0  0  0  0  0  0  0  0  0  0  0  0
   -2.1973   -1.5842    1.3735 C   0  0  0  0  0  0  0  0  0  0  0  0
   -0.9083   -1.3438    1.0831 N   0  0  0  0  0  0  0  0  0  0  0  0
   -0.6306   -0.2894    0.2973 C   0  0  0  0  0  0  0  0  0  0  0  0
    0.7111   -0.0321   -0.0444 N   0  0  0  0  0  0  0  0  0  0  0  0
    1.6788   -0.9542    0.5482 C   0  0  0  0  0  0  0  0  0  0  0  0
    3.0763   -0.5943    0.1003 C   0  0  0  0  0  0  0  0  0  0  0  0
    3.3287   -0.3917   -1.2704 C   0  0  0  0  0  0  0  0  0  0  0  0
    4.6104   -0.0877   -1.7027 C   0  0  0  0  0  0  0  0  0  0  0  0
    4.9723    0.2015   -3.5280 Br  0  0  0  0  0  0  0  0  0  0  0  0
    5.6099   -0.0058   -0.7553 C   0  0  0  0  0  0  0  0  0  0  0  0
    5.4061   -0.2109    0.5666 N   0  0  0  0  0  0  0  0  0  0  0  0
    4.1600   -0.5087    0.9833 C   0  0  0  0  0  0  0  0  0  0  0  0
    4.0277   -0.7261    2.3540 N   0  0  0  0  0  0  0  0  0  0  0  0
   -1.6342    0.5262   -0.2213 C   0  0  0  0  0  0  0  0  0  0  0  0
   -1.3408    1.6576   -1.1710 C   0  0  0  0  0  0  0  0  0  0  0  0
   -2.5237    2.6007   -1.3924 C   0  0  0  0  0  0  0  0  0  0  0  0
   -3.8064    1.8113   -1.6120 C   0  0  0  0  0  0  0  0  0  0  0  0
   -4.1192    0.9755   -0.3752 C   0  0  0  0  0  0  0  0  0  0  0  0
   -2.9379    0.1775    0.1124 C   0  0  0  0  0  0  0  0  0  0  0  0
   -3.2305   -0.8623    0.9182 N   0  0  0  0  0  0  0  0  0  0  0  0
   -3.4121   -2.5993    2.8167 H   0  0  0  0  0  0  0  0  0  0  0  0
   -1.6821   -2.9737    2.9206 H   0  0  0  0  0  0  0  0  0  0  0  0
   -2.6577   -3.6519    1.5961 H   0  0  0  0  0  0  0  0  0  0  0  0
    0.9321    0.9322    0.1860 H   0  0  0  0  0  0  0  0  0  0  0  0
    1.4830   -1.9866    0.2305 H   0  0  0  0  0  0  0  0  0  0  0  0
    1.5998   -0.9108    1.6400 H   0  0  0  0  0  0  0  0  0  0  0  0
    2.5139   -0.4746   -1.9871 H   0  0  0  0  0  0  0  0  0  0  0  0
    6.6352    0.2287   -1.0251 H   0  0  0  0  0  0  0  0  0  0  0  0
    3.6942   -1.6660    2.5401 H   0  0  0  0  0  0  0  0  0  0  0  0
    3.3873   -0.0573    2.7678 H   0  0  0  0  0  0  0  0  0  0  0  0
   -0.4995    2.2571   -0.8054 H   0  0  0  0  0  0  0  0  0  0  0  0
   -1.0466    1.2236   -2.1352 H   0  0  0  0  0  0  0  0  0  0  0  0
   -2.3232    3.2476   -2.2539 H   0  0  0  0  0  0  0  0  0  0  0  0
   -2.6430    3.2567   -0.5205 H   0  0  0  0  0  0  0  0  0  0  0  0
   -3.6946    1.1606   -2.4884 H   0  0  0  0  0  0  0  0  0  0  0  0
   -4.6396    2.4922   -1.8185 H   0  0  0  0  0  0  0  0  0  0  0  0
   -4.4402    1.6345    0.4410 H   0  0  0  0  0  0  0  0  0  0  0  0
   -4.9539    0.3004   -0.5976 H   0  0  0  0  0  0  0  0  0  0  0  0
  1  2  1  0
  2  3  2  0
  3  4  1  0
  4  5  1  0
  5  6  1  0
  6  7  1  0
  7  8  1  0
  8  9  2  0
  9 10  1  0
  9 11  1  0
 11 12  2  0
 12 13  1  0
 13 14  1  0
  4 15  2  0
 15 16  1  0
 16 17  1  0
 17 18  1  0
 18 19  1  0
 19 20  1  0
 20 21  2  0
 21  2  1  0
 13  7  2  0
 20 15  1  0
  1 22  1  0
  1 23  1  0
  1 24  1  0
  5 25  1  0
  6 26  1  0
  6 27  1  0
  8 28  1  0
 11 29  1  0
 14 30  1  0
 14 31  1  0
 16 32  1  0
 16 33  1  0
 17 34  1  0
 17 35  1  0
 18 36  1  0
 18 37  1  0
 19 38  1  0
 19 39  1  0
M  END
$$$$
OCNT-2311111
     RDKit          3D

 39 42  0  0  0  0  0  0  0  0999 V2000
   -4.4211   -2.1630   -0.3206 O   0  0  0  0  0  0  0  0  0  0  0  0
   -4.2040   -0.7483   -0.0876 C   0  0  0  0  0  0  0  0  0  0  0  0
   -2.6249   -0.4249   -0.0366 C   0  0  0  0  0  0  0  0  0  0  0  0
   -1.9165   -0.2222    1.1634 C   0  0  0  0  0  0  0  0  0  0  0  0
   -0.5413    0.0463    1.1819 C   0  0  0  0  0  0  0  0  0  0  0  0
    0.1927    0.1168   -0.0067 C   0  0  0  0  0  0  0  0  0  0  0  0
    1.6374    0.3892    0.0080 C   0  0  0  0  0  0  0  0  0  0  0  0
    2.5285   -0.6720   -0.2454 C   0  0  0  0  0  0  0  0  0  0  0  0
    3.8918   -0.4274   -0.2249 C   0  0  0  0  0  0  0  0  0  0  0  0
    4.4020    0.8401    0.0417 C   0  0  0  0  0  0  0  0  0  0  0  0
    3.5568    1.9089    0.2593 C   0  0  0  0  0  0  0  0  0  0  0  0
    2.1739    1.6794    0.2539 C   0  0  0  0  0  0  0  0  0  0  0  0
    1.1481    3.0486    0.5350 Cl  0  0  0  0  0  0  0  0  0  0  0  0
    5.8120    0.9004   -0.0609 N   0  0  0  0  0  0  0  0  0  0  0  0
    6.2057   -0.5189    0.0021 C   0  0  0  0  0  0  0  0  0  0  0  0
    5.0196   -1.3601   -0.5055 C   0  0  0  0  0  0  0  0  0  0  0  0
   -0.4843   -0.1025   -1.2101 C   0  0  0  0  0  0  0  0  0  0  0  0
   -1.8584   -0.3706   -1.2185 C   0  0  0  0  0  0  0  0  0  0  0  0
   -5.1169   -0.1718    1.0566 C   0  0  0  0  0  0  0  0  0  0  0  0
   -5.3857    1.0504    0.1658 C   0  0  0  0  0  0  0  0  0  0  0  0
   -5.0598    0.1634   -1.0453 C   0  0  0  0  0  0  0  0  0  0  0  0
   -3.8784   -2.6038    0.3551 H   0  0  0  0  0  0  0  0  0  0  0  0
   -2.4380   -0.2727    2.1164 H   0  0  0  0  0  0  0  0  0  0  0  0
   -0.0462    0.2019    2.1385 H   0  0  0  0  0  0  0  0  0  0  0  0
    2.1545   -1.6703   -0.4573 H   0  0  0  0  0  0  0  0  0  0  0  0
    3.9564    2.9042    0.4191 H   0  0  0  0  0  0  0  0  0  0  0  0
    6.2173    1.4904    0.6615 H   0  0  0  0  0  0  0  0  0  0  0  0
    7.1082   -0.6996   -0.5907 H   0  0  0  0  0  0  0  0  0  0  0  0
    6.4336   -0.7799    1.0442 H   0  0  0  0  0  0  0  0  0  0  0  0
    4.9380   -2.3071    0.0347 H   0  0  0  0  0  0  0  0  0  0  0  0
    5.0984   -1.5440   -1.5820 H   0  0  0  0  0  0  0  0  0  0  0  0
    0.0522   -0.0627   -2.1560 H   0  0  0  0  0  0  0  0  0  0  0  0
   -2.3498   -0.5465   -2.1749 H   0  0  0  0  0  0  0  0  0  0  0  0
   -6.0099   -0.7790    1.2519 H   0  0  0  0  0  0  0  0  0  0  0  0
   -4.6510    0.0553    2.0179 H   0  0  0  0  0  0  0  0  0  0  0  0
   -4.6754    1.8714    0.3161 H   0  0  0  0  0  0  0  0  0  0  0  0
   -6.4019    1.4509    0.2021 H   0  0  0  0  0  0  0  0  0  0  0  0
   -5.9339   -0.3431   -1.4727 H   0  0  0  0  0  0  0  0  0  0  0  0
   -4.5297    0.6724   -1.8549 H   0  0  0  0  0  0  0  0  0  0  0  0
  1  2  1  0
  2  3  1  0
  3  4  1  0
  4  5  2  0
  5  6  1  0
  6  7  1  0
  7  8  2  0
  8  9  1  0
  9 10  2  0
 10 11  1  0
 11 12  2  0
 12 13  1  0
 10 14  1  0
 14 15  1  0
 15 16  1  0
  6 17  2  0
 17 18  1  0
  2 19  1  0
 19 20  1  0
 20 21  1  0
 21  2  1  0
 18  3  2  0
 12  7  1  0
 16  9  1  0
  1 22  1  0
  4 23  1  0
  5 24  1  0
  8 25  1  0
 11 26  1  0
 14 27  1  0
 15 28  1  0
 15 29  1  0
 16 30  1  0
 16 31  1  0
 17 32  1  0
 18 33  1  0
 19 34  1  0
 19 35  1  0
 20 36  1  0
 20 37  1  0
 21 38  1  0
 21 39  1  0
M  END
$$$$
OCNT-2311121
     RDKit          3D

 45 47  0  0  0  0  0  0  0  0999 V2000
    0.7786    0.8636    2.6474 C   0  0  0  0  0  0  0  0  0  0  0  0
    2.1561    1.1774    2.9913 N   0  0  0  0  0  0  0  0  0  0  0  0
    3.0925    0.1382    2.5496 C   0  0  0  0  0  0  0  0  0  0  0  0
    3.3204    0.1154    1.0499 C   0  0  0  0  0  0  0  0  0  0  0  0
    4.1030    1.1498    0.4969 C   0  0  0  0  0  0  0  0  0  0  0  0
    4.3645    1.2129   -0.8711 C   0  0  0  0  0  0  0  0  0  0  0  0
    3.8385    0.2495   -1.7183 C   0  0  0  0  0  0  0  0  0  0  0  0
    3.0602   -0.7795   -1.1947 C   0  0  0  0  0  0  0  0  0  0  0  0
    2.7930   -0.8685    0.1871 C   0  0  0  0  0  0  0  0  0  0  0  0
    1.8861   -1.9897    0.6416 C   0  0  0  0  0  0  0  0  0  0  0  0
    0.5114   -1.6492    0.4062 N   0  0  0  0  0  0  0  0  0  0  0  0
   -0.5283   -2.4834    0.7257 C   0  0  0  0  0  0  0  0  0  0  0  0
   -0.4033   -3.5369    1.3382 O   0  0  0  0  0  0  0  0  0  0  0  0
   -1.8609   -1.9970    0.2391 C   0  0  0  0  0  0  0  0  0  0  0  0
   -3.0012   -2.7563    0.4409 C   0  0  0  0  0  0  0  0  0  0  0  0
   -4.1997   -2.2654   -0.0594 C   0  0  0  0  0  0  0  0  0  0  0  0
   -4.2152   -1.0361   -0.7200 C   0  0  0  0  0  0  0  0  0  0  0  0
   -3.0283   -0.3186   -0.8759 C   0  0  0  0  0  0  0  0  0  0  0  0
   -2.9525    0.9993   -1.5407 C   0  0  0  0  0  0  0  0  0  0  0  0
   -3.8775    1.4132   -2.5114 C   0  0  0  0  0  0  0  0  0  0  0  0
   -3.7405    2.6657   -3.0941 C   0  0  0  0  0  0  0  0  0  0  0  0
   -2.7531    3.5327   -2.7902 N   0  0  0  0  0  0  0  0  0  0  0  0
   -1.8611    3.1265   -1.8639 C   0  0  0  0  0  0  0  0  0  0  0  0
   -1.9201    1.8975   -1.2258 C   0  0  0  0  0  0  0  0  0  0  0  0
   -1.8507   -0.7975   -0.4048 N   0  0  0  0  0  0  0  0  0  0  0  0
    0.4788   -0.1166    3.0358 H   0  0  0  0  0  0  0  0  0  0  0  0
    0.6079    0.9019    1.5656 H   0  0  0  0  0  0  0  0  0  0  0  0
    0.1173    1.6091    3.0923 H   0  0  0  0  0  0  0  0  0  0  0  0
    2.2212    1.2570    4.0062 H   0  0  0  0  0  0  0  0  0  0  0  0
    2.8103   -0.8357    2.9522 H   0  0  0  0  0  0  0  0  0  0  0  0
    4.0604    0.3553    3.0165 H   0  0  0  0  0  0  0  0  0  0  0  0
    4.5187    1.9192    1.1510 H   0  0  0  0  0  0  0  0  0  0  0  0
    4.9794    2.0116   -1.2747 H   0  0  0  0  0  0  0  0  0  0  0  0
    4.0292    0.2995   -2.7869 H   0  0  0  0  0  0  0  0  0  0  0  0
    2.6484   -1.5223   -1.8778 H   0  0  0  0  0  0  0  0  0  0  0  0
    2.1091   -2.9056    0.0839 H   0  0  0  0  0  0  0  0  0  0  0  0
    2.0111   -2.2521    1.6920 H   0  0  0  0  0  0  0  0  0  0  0  0
    0.2921   -0.8652   -0.2104 H   0  0  0  0  0  0  0  0  0  0  0  0
   -2.9535   -3.7032    0.9584 H   0  0  0  0  0  0  0  0  0  0  0  0
   -5.1157   -2.8303    0.0649 H   0  0  0  0  0  0  0  0  0  0  0  0
   -5.1611   -0.6517   -1.0888 H   0  0  0  0  0  0  0  0  0  0  0  0
   -4.6954    0.7791   -2.8369 H   0  0  0  0  0  0  0  0  0  0  0  0
   -4.4393    3.0099   -3.8527 H   0  0  0  0  0  0  0  0  0  0  0  0
   -1.0697    3.8306   -1.6380 H   0  0  0  0  0  0  0  0  0  0  0  0
   -1.1612    1.6461   -0.4889 H   0  0  0  0  0  0  0  0  0  0  0  0
  1  2  1  0
  2  3  1  0
  3  4  1  0
  4  5  2  0
  5  6  1  0
  6  7  2  0
  7  8  1  0
  8  9  2  0
  9 10  1  0
 10 11  1  0
 11 12  1  0
 12 13  2  0
 12 14  1  0
 14 15  1  0
 15 16  2  0
 16 17  1  0
 17 18  2  0
 18 19  1  0
 19 20  2  0
 20 21  1  0
 21 22  2  0
 22 23  1  0
 23 24  2  0
 18 25  1  0
  9  4  1  0
 25 14  2  0
 24 19  1  0
  1 26  1  0
  1 27  1  0
  1 28  1  0
  2 29  1  0
  3 30  1  0
  3 31  1  0
  5 32  1  0
  6 33  1  0
  7 34  1  0
  8 35  1  0
 10 36  1  0
 10 37  1  0
 11 38  1  0
 15 39  1  0
 16 40  1  0
 17 41  1  0
 20 42  1  0
 21 43  1  0
 23 44  1  0
 24 45  1  0
M  END
$$$$
OCNT-2311123
     RDKit          3D

 37 40  0  0  0  0  0  0  0  0999 V2000
    2.5885   -1.2617    2.5095 C   0  0  0  0  0  0  0  0  0  0  0  0
    2.4771   -1.3420    0.9841 C   0  0  2  0  0  0  0  0  0  0  0  0
    3.2617   -0.2938    0.2041 C   0  0  0  0  0  0  0  0  0  0  0  0
    3.5544   -0.5337   -1.1538 C   0  0  0  0  0  0  0  0  0  0  0  0
    4.2593    0.4008   -1.9179 C   0  0  0  0  0  0  0  0  0  0  0  0
    4.6824    1.5931   -1.3386 C   0  0  0  0  0  0  0  0  0  0  0  0
    4.3951    1.8399   -0.0030 C   0  0  0  0  0  0  0  0  0  0  0  0
    4.7965    2.9891    0.5560 F   0  0  0  0  0  0  0  0  0  0  0  0
    3.6929    0.9163    0.7688 C   0  0  0  0  0  0  0  0  0  0  0  0
    1.0731   -1.3419    0.5742 N   0  0  0  0  0  0  0  0  0  0  0  0
    0.1779   -0.3089    0.5854 C   0  0  0  0  0  0  0  0  0  0  0  0
   -0.9892   -0.8711    0.1174 C   0  0  0  0  0  0  0  0  0  0  0  0
   -2.2724   -0.2148   -0.0819 C   0  0  0  0  0  0  0  0  0  0  0  0
   -2.4325    1.1668    0.1121 C   0  0  0  0  0  0  0  0  0  0  0  0
   -3.6725    1.7987   -0.0806 C   0  0  0  0  0  0  0  0  0  0  0  0
   -4.7723    1.0225   -0.4774 C   0  0  0  0  0  0  0  0  0  0  0  0
   -6.1351    1.2528   -0.7679 C   0  0  0  0  0  0  0  0  0  0  0  0
   -6.7852    0.1383   -1.1139 N   0  0  0  0  0  0  0  0  0  0  0  0
   -5.8335   -0.8108   -1.0460 N   0  0  0  0  0  0  0  0  0  0  0  0
   -4.6027   -0.3422   -0.6682 C   0  0  0  0  0  0  0  0  0  0  0  0
   -3.3761   -0.9911   -0.4819 C   0  0  0  0  0  0  0  0  0  0  0  0
   -0.7669   -2.2019   -0.1414 N   0  0  0  0  0  0  0  0  0  0  0  0
    0.4974   -2.4801    0.1447 N   0  0  0  0  0  0  0  0  0  0  0  0
    3.6358   -1.2880    2.8294 H   0  0  0  0  0  0  0  0  0  0  0  0
    2.0736   -2.1087    2.9777 H   0  0  0  0  0  0  0  0  0  0  0  0
    2.1324   -0.3492    2.9096 H   0  0  0  0  0  0  0  0  0  0  0  0
    2.8825   -2.3223    0.6945 H   0  0  0  0  0  0  0  0  0  0  0  0
    3.2255   -1.4576   -1.6310 H   0  0  0  0  0  0  0  0  0  0  0  0
    4.4733    0.1970   -2.9644 H   0  0  0  0  0  0  0  0  0  0  0  0
    5.2296    2.3300   -1.9176 H   0  0  0  0  0  0  0  0  0  0  0  0
    3.4964    1.1725    1.8051 H   0  0  0  0  0  0  0  0  0  0  0  0
    0.4477    0.6853    0.9062 H   0  0  0  0  0  0  0  0  0  0  0  0
   -1.5925    1.7871    0.4147 H   0  0  0  0  0  0  0  0  0  0  0  0
   -3.7730    2.8689    0.0743 H   0  0  0  0  0  0  0  0  0  0  0  0
   -6.6777    2.1886   -0.7405 H   0  0  0  0  0  0  0  0  0  0  0  0
   -6.0884   -1.7657   -1.2708 H   0  0  0  0  0  0  0  0  0  0  0  0
   -3.2829   -2.0621   -0.6415 H   0  0  0  0  0  0  0  0  0  0  0  0
  1  2  1  0
  2  3  1  0
  3  4  2  0
  4  5  1  0
  5  6  2  0
  6  7  1  0
  7  8  1  0
  7  9  2  0
  2 10  1  0
 10 11  1  0
 11 12  2  0
 12 13  1  0
 13 14  2  0
 14 15  1  0
 15 16  2  0
 16 17  1  0
 17 18  2  0
 18 19  1  0
 19 20  1  0
 20 21  2  0
 12 22  1  0
 22 23  2  0
  9  3  1  0
 23 10  1  0
 21 13  1  0
 20 16  1  0
  1 24  1  0
  1 25  1  0
  1 26  1  0
  2 27  1  6
  4 28  1  0
  5 29  1  0
  6 30  1  0
  9 31  1  0
 11 32  1  0
 14 33  1  0
 15 34  1  0
 17 35  1  0
 19 36  1  0
 21 37  1  0
M  END
$$$$
OCNT-2311133
     RDKit          3D

 41 43  0  0  0  0  0  0  0  0999 V2000
   -4.6350   -0.6603   -0.8809 C   0  0  0  0  0  0  0  0  0  0  0  0
   -4.3344    0.1464    0.2961 N   0  0  0  0  0  0  0  0  0  0  0  0
   -3.6703   -0.6761    1.3301 C   0  0  0  0  0  0  0  0  0  0  0  0
   -2.8135    0.1283    2.3385 C   0  0  0  0  0  0  0  0  0  0  0  0
   -1.7693    0.9224    1.6559 N   0  0  0  0  0  0  0  0  0  0  0  0
   -0.4423    0.6766    2.0138 C   0  0  0  0  0  0  0  0  0  0  0  0
   -0.0542    0.5801    3.3571 C   0  0  0  0  0  0  0  0  0  0  0  0
    1.1994    0.2754    3.7754 N   0  0  0  0  0  0  0  0  0  0  0  0
    2.0900    0.0873    2.7823 C   0  0  0  0  0  0  0  0  0  0  0  0
    1.7542    0.2443    1.4506 C   0  0  0  0  0  0  0  0  0  0  0  0
    2.7239   -0.0201    0.5126 O   0  0  0  0  0  0  0  0  0  0  0  0
    2.5784    0.7503   -0.6787 C   0  0  0  0  0  0  0  0  0  0  0  0
    3.2199   -0.0306   -1.8014 C   0  0  0  0  0  0  0  0  0  0  0  0
    2.4489   -0.9130   -2.5748 C   0  0  0  0  0  0  0  0  0  0  0  0
    3.0363   -1.6534   -3.6023 C   0  0  0  0  0  0  0  0  0  0  0  0
    4.3993   -1.5242   -3.8640 C   0  0  0  0  0  0  0  0  0  0  0  0
    5.1743   -0.6566   -3.0921 C   0  0  0  0  0  0  0  0  0  0  0  0
    6.8574   -0.4933   -3.4180 Cl  0  0  0  0  0  0  0  0  0  0  0  0
    4.5958    0.0844   -2.0605 C   0  0  0  0  0  0  0  0  0  0  0  0
    0.4940    0.5322    1.0482 N   0  0  0  0  0  0  0  0  0  0  0  0
   -2.0034    1.1638    0.2222 C   0  0  0  0  0  0  0  0  0  0  0  0
   -3.5160    1.3289   -0.0443 C   0  0  0  0  0  0  0  0  0  0  0  0
   -5.2116   -0.0772   -1.6099 H   0  0  0  0  0  0  0  0  0  0  0  0
   -5.2550   -1.5186   -0.6081 H   0  0  0  0  0  0  0  0  0  0  0  0
   -3.7278   -1.0346   -1.3718 H   0  0  0  0  0  0  0  0  0  0  0  0
   -3.0118   -1.4176    0.8633 H   0  0  0  0  0  0  0  0  0  0  0  0
   -4.4398   -1.2288    1.8792 H   0  0  0  0  0  0  0  0  0  0  0  0
   -2.3959   -0.5849    3.0601 H   0  0  0  0  0  0  0  0  0  0  0  0
   -3.4561    0.8147    2.9033 H   0  0  0  0  0  0  0  0  0  0  0  0
   -0.7665    0.7559    4.1552 H   0  0  0  0  0  0  0  0  0  0  0  0
    3.0893   -0.2051    3.0802 H   0  0  0  0  0  0  0  0  0  0  0  0
    3.1064    1.7056   -0.5421 H   0  0  0  0  0  0  0  0  0  0  0  0
    1.5392    0.9929   -0.9634 H   0  0  0  0  0  0  0  0  0  0  0  0
    1.3779   -1.0266   -2.3798 H   0  0  0  0  0  0  0  0  0  0  0  0
    2.4267   -2.3320   -4.1988 H   0  0  0  0  0  0  0  0  0  0  0  0
    4.8505   -2.1009   -4.6675 H   0  0  0  0  0  0  0  0  0  0  0  0
    5.2131    0.7501   -1.4619 H   0  0  0  0  0  0  0  0  0  0  0  0
   -1.6231    0.3339   -0.3848 H   0  0  0  0  0  0  0  0  0  0  0  0
   -1.4841    2.0776   -0.0925 H   0  0  0  0  0  0  0  0  0  0  0  0
   -3.8827    2.1551    0.5805 H   0  0  0  0  0  0  0  0  0  0  0  0
   -3.6822    1.6478   -1.0820 H   0  0  0  0  0  0  0  0  0  0  0  0
  1  2  1  0
  2  3  1  0
  3  4  1  0
  4  5  1  0
  5  6  1  0
  6  7  2  0
  7  8  1  0
  8  9  2  0
  9 10  1  0
 10 11  1  0
 11 12  1  0
 12 13  1  0
 13 14  2  0
 14 15  1  0
 15 16  2  0
 16 17  1  0
 17 18  1  0
 17 19  2  0
 10 20  2  0
  5 21  1  0
 21 22  1  0
 22  2  1  0
 20  6  1  0
 19 13  1  0
  1 23  1  0
  1 24  1  0
  1 25  1  0
  3 26  1  0
  3 27  1  0
  4 28  1  0
  4 29  1  0
  7 30  1  0
  9 31  1  0
 12 32  1  0
 12 33  1  0
 14 34  1  0
 15 35  1  0
 16 36  1  0
 19 37  1  0
 21 38  1  0
 21 39  1  0
 22 40  1  0
 22 41  1  0
M  END
$$$$
OCNT-2311135
     RDKit          3D

 36 38  0  0  0  0  0  0  0  0999 V2000
    2.5416    0.2652    1.1628 O   0  0  0  0  0  0  0  0  0  0  0  0
    2.4869    1.0245    0.1992 C   0  0  0  0  0  0  0  0  0  0  0  0
    2.6763    0.6689   -1.1281 N   0  0  0  0  0  0  0  0  0  0  0  0
    2.8774   -0.6115   -1.6149 C   0  0  0  0  0  0  0  0  0  0  0  0
    3.4787   -0.9025   -2.8241 C   0  0  0  0  0  0  0  0  0  0  0  0
    3.4879   -2.2994   -2.9166 C   0  0  0  0  0  0  0  0  0  0  0  0
    2.8957   -2.8760   -1.8749 N   0  0  0  0  0  0  0  0  0  0  0  0
    2.4875   -1.8363   -1.0962 N   0  0  0  0  0  0  0  0  0  0  0  0
    1.5898   -2.1676    0.0097 C   0  0  0  0  0  0  0  0  0  0  0  0
    0.2584   -1.5054   -0.1038 C   0  0  0  0  0  0  0  0  0  0  0  0
   -0.4676   -0.8756    0.8887 C   0  0  0  0  0  0  0  0  0  0  0  0
   -1.6356   -0.4091    0.3243 N   0  0  0  0  0  0  0  0  0  0  0  0
   -2.6811    0.3253    0.9509 C   0  0  0  0  0  0  0  0  0  0  0  0
   -2.6227    0.6583    2.3117 C   0  0  0  0  0  0  0  0  0  0  0  0
   -3.6626    1.3856    2.8990 C   0  0  0  0  0  0  0  0  0  0  0  0
   -4.7606    1.7827    2.1376 C   0  0  0  0  0  0  0  0  0  0  0  0
   -4.8255    1.4539    0.7855 C   0  0  0  0  0  0  0  0  0  0  0  0
   -3.7910    0.7277    0.1917 C   0  0  0  0  0  0  0  0  0  0  0  0
   -1.6909   -0.7193   -0.9968 N   0  0  0  0  0  0  0  0  0  0  0  0
   -0.5686   -1.3954   -1.2386 C   0  0  0  0  0  0  0  0  0  0  0  0
    2.2164    2.5220    0.3593 C   0  0  0  0  0  0  0  0  0  0  0  0
    3.0654    3.1127    1.2440 F   0  0  0  0  0  0  0  0  0  0  0  0
    2.3788    3.1946   -0.8205 F   0  0  0  0  0  0  0  0  0  0  0  0
    2.8893    1.4383   -1.7612 H   0  0  0  0  0  0  0  0  0  0  0  0
    3.8898   -0.1990   -3.5336 H   0  0  0  0  0  0  0  0  0  0  0  0
    3.8960   -2.9232   -3.7017 H   0  0  0  0  0  0  0  0  0  0  0  0
    2.1129   -1.9567    0.9438 H   0  0  0  0  0  0  0  0  0  0  0  0
    1.4333   -3.2543   -0.0113 H   0  0  0  0  0  0  0  0  0  0  0  0
   -0.2311   -0.7245    1.9311 H   0  0  0  0  0  0  0  0  0  0  0  0
   -1.7904    0.3677    2.9447 H   0  0  0  0  0  0  0  0  0  0  0  0
   -3.6170    1.6412    3.9551 H   0  0  0  0  0  0  0  0  0  0  0  0
   -5.5677    2.3465    2.5987 H   0  0  0  0  0  0  0  0  0  0  0  0
   -5.6822    1.7603    0.1905 H   0  0  0  0  0  0  0  0  0  0  0  0
   -3.8650    0.4808   -0.8662 H   0  0  0  0  0  0  0  0  0  0  0  0
   -0.3903   -1.7721   -2.2393 H   0  0  0  0  0  0  0  0  0  0  0  0
    1.1880    2.6713    0.6993 H   0  0  0  0  0  0  0  0  0  0  0  0
  1  2  2  0
  2  3  1  0
  3  4  1  0
  4  5  2  0
  5  6  1  0
  6  7  2  0
  7  8  1  0
  8  9  1  0
  9 10  1  0
 10 11  2  0
 11 12  1  0
 12 13  1  0
 13 14  2  0
 14 15  1  0
 15 16  2  0
 16 17  1  0
 17 18  2  0
 12 19  1  0
 19 20  2  0
  2 21  1  0
 21 22  1  0
 21 23  1  0
  8  4  1  0
 20 10  1  0
 18 13  1  0
  3 24  1  0
  5 25  1  0
  6 26  1  0
  9 27  1  0
  9 28  1  0
 11 29  1  0
 14 30  1  0
 15 31  1  0
 16 32  1  0
 17 33  1  0
 18 34  1  0
 20 35  1  0
 21 36  1  0
M  END
$$$$
OCNT-2311136
     RDKit          3D

 45 48  0  0  0  0  0  0  0  0999 V2000
    7.0876    1.6814    1.2738 C   0  0  0  0  0  0  0  0  0  0  0  0
    5.9146    0.7570    1.4467 C   0  0  0  0  0  0  0  0  0  0  0  0
    6.0634   -0.3940    2.2554 C   0  0  0  0  0  0  0  0  0  0  0  0
    5.0116   -1.2876    2.4706 C   0  0  0  0  0  0  0  0  0  0  0  0
    3.7635   -1.0845    1.8799 C   0  0  0  0  0  0  0  0  0  0  0  0
    3.6372    0.0431    1.0710 C   0  0  0  0  0  0  0  0  0  0  0  0
    4.6573    0.9583    0.8341 C   0  0  0  0  0  0  0  0  0  0  0  0
    4.0979    1.9257   -0.0450 C   0  0  0  0  0  0  0  0  0  0  0  0
    2.7936    1.5451   -0.2965 C   0  0  0  0  0  0  0  0  0  0  0  0
    1.7777    2.1444   -1.1343 C   0  0  0  0  0  0  0  0  0  0  0  0
    1.9570    3.1696   -1.7888 O   0  0  0  0  0  0  0  0  0  0  0  0
    0.5782    1.4746   -1.1359 N   0  0  0  0  0  0  0  0  0  0  0  0
   -0.5924    2.0413   -1.7576 C   0  0  0  0  0  0  0  0  0  0  0  0
   -1.6932    1.0339   -1.7189 C   0  0  0  0  0  0  0  0  0  0  0  0
   -2.1950    0.6162   -0.5450 N   0  0  0  0  0  0  0  0  0  0  0  0
   -3.1546   -0.2654   -0.8883 N   0  0  0  0  0  0  0  0  0  0  0  0
   -3.9489   -0.8911    0.1545 C   0  0  0  0  0  0  0  0  0  0  0  0
   -5.4139   -0.4280    0.1424 C   0  0  0  0  0  0  0  0  0  0  0  0
   -6.2119   -1.6677    0.5146 C   0  0  0  0  0  0  0  0  0  0  0  0
   -5.4447   -2.7885   -0.1659 C   0  0  0  0  0  0  0  0  0  0  0  0
   -3.9847   -2.4286    0.0828 C   0  0  0  0  0  0  0  0  0  0  0  0
   -3.2624   -0.4390   -2.2391 C   0  0  0  0  0  0  0  0  0  0  0  0
   -2.3206    0.3853   -2.8089 C   0  0  0  0  0  0  0  0  0  0  0  0
    2.5072    0.4001    0.4008 O   0  0  0  0  0  0  0  0  0  0  0  0
    7.4575    2.0070    2.2522 H   0  0  0  0  0  0  0  0  0  0  0  0
    7.8942    1.1698    0.7379 H   0  0  0  0  0  0  0  0  0  0  0  0
    6.8149    2.5756    0.7057 H   0  0  0  0  0  0  0  0  0  0  0  0
    7.0220   -0.5900    2.7347 H   0  0  0  0  0  0  0  0  0  0  0  0
    5.1668   -2.1573    3.1073 H   0  0  0  0  0  0  0  0  0  0  0  0
    2.9368   -1.7685    2.0311 H   0  0  0  0  0  0  0  0  0  0  0  0
    4.5848    2.7936   -0.4704 H   0  0  0  0  0  0  0  0  0  0  0  0
    0.4328    0.7597   -0.4302 H   0  0  0  0  0  0  0  0  0  0  0  0
   -0.3481    2.3358   -2.7831 H   0  0  0  0  0  0  0  0  0  0  0  0
   -0.8756    2.9418   -1.2020 H   0  0  0  0  0  0  0  0  0  0  0  0
   -3.4888   -0.6045    1.1098 H   0  0  0  0  0  0  0  0  0  0  0  0
   -5.7214   -0.0742   -0.8498 H   0  0  0  0  0  0  0  0  0  0  0  0
   -5.5867    0.3928    0.8485 H   0  0  0  0  0  0  0  0  0  0  0  0
   -7.2510   -1.6093    0.1808 H   0  0  0  0  0  0  0  0  0  0  0  0
   -6.2078   -1.8076    1.6016 H   0  0  0  0  0  0  0  0  0  0  0  0
   -5.7046   -3.7728    0.2363 H   0  0  0  0  0  0  0  0  0  0  0  0
   -5.6531   -2.7889   -1.2420 H   0  0  0  0  0  0  0  0  0  0  0  0
   -3.6741   -2.8375    1.0531 H   0  0  0  0  0  0  0  0  0  0  0  0
   -3.3246   -2.8600   -0.6769 H   0  0  0  0  0  0  0  0  0  0  0  0
   -3.9831   -1.1162   -2.6755 H   0  0  0  0  0  0  0  0  0  0  0  0
   -2.1153    0.5091   -3.8639 H   0  0  0  0  0  0  0  0  0  0  0  0
  1  2  1  0
  2  3  1  0
  3  4  2  0
  4  5  1  0
  5  6  2  0
  6  7  1  0
  7  8  1  0
  8  9  2  0
  9 10  1  0
 10 11  2  0
 10 12  1  0
 12 13  1  0
 13 14  1  0
 14 15  2  0
 15 16  1  0
 16 17  1  0
 17 18  1  0
 18 19  1  0
 19 20  1  0
 20 21  1  0
 16 22  1  0
 22 23  2  0
  9 24  1  0
  7  2  2  0
 23 14  1  0
 24  6  1  0
 21 17  1  0
  1 25  1  0
  1 26  1  0
  1 27  1  0
  3 28  1  0
  4 29  1  0
  5 30  1  0
  8 31  1  0
 12 32  1  0
 13 33  1  0
 13 34  1  0
 17 35  1  0
 18 36  1  0
 18 37  1  0
 19 38  1  0
 19 39  1  0
 20 40  1  0
 20 41  1  0
 21 42  1  0
 21 43  1  0
 22 44  1  0
 23 45  1  0
M  END
$$$$
OCNT-2311148
     RDKit          3D

 49 52  0  0  0  0  0  0  0  0999 V2000
   -6.1587   -0.0580   -0.7562 C   0  0  0  0  0  0  0  0  0  0  0  0
   -5.4636    0.0753    0.5649 C   0  0  0  0  0  0  0  0  0  0  0  0
   -6.1982    0.2367    1.7348 C   0  0  0  0  0  0  0  0  0  0  0  0
   -5.6542    0.3444    2.9659 N   0  0  0  0  0  0  0  0  0  0  0  0
   -4.3099    0.2862    3.0345 C   0  0  0  0  0  0  0  0  0  0  0  0
   -3.4828    0.1222    1.9346 C   0  0  0  0  0  0  0  0  0  0  0  0
   -4.0681    0.0078    0.6768 C   0  0  0  0  0  0  0  0  0  0  0  0
   -3.3919   -0.1534   -0.5023 O   0  0  0  0  0  0  0  0  0  0  0  0
   -1.9763   -0.3784   -0.4844 C   0  0  0  0  0  0  0  0  0  0  0  0
   -1.2109    0.9499   -0.4121 C   0  0  0  0  0  0  0  0  0  0  0  0
   -0.8427    1.4701   -1.8003 C   0  0  0  0  0  0  0  0  0  0  0  0
   -0.0600    0.5194   -2.5949 N   0  0  0  0  0  0  0  0  0  0  0  0
    1.3221    0.9339   -2.8633 C   0  0  0  0  0  0  0  0  0  0  0  0
    2.2052    0.8948   -1.6612 C   0  0  0  0  0  0  0  0  0  0  0  0
    3.1772   -0.0206   -1.3168 C   0  0  0  0  0  0  0  0  0  0  0  0
    3.6803    0.4250   -0.1165 N   0  0  0  0  0  0  0  0  0  0  0  0
    4.7007   -0.1446    0.6875 C   0  0  0  0  0  0  0  0  0  0  0  0
    5.0432    0.4648    1.9049 C   0  0  0  0  0  0  0  0  0  0  0  0
    6.0461   -0.0835    2.7078 C   0  0  0  0  0  0  0  0  0  0  0  0
    6.7129   -1.2377    2.3028 C   0  0  0  0  0  0  0  0  0  0  0  0
    6.3785   -1.8474    1.0946 C   0  0  0  0  0  0  0  0  0  0  0  0
    5.3741   -1.3070    0.2857 C   0  0  0  0  0  0  0  0  0  0  0  0
    3.0364    1.5636    0.2421 N   0  0  0  0  0  0  0  0  0  0  0  0
    2.1542    1.8658   -0.6994 N   0  0  0  0  0  0  0  0  0  0  0  0
   -0.2163   -0.8838   -2.2210 C   0  0  0  0  0  0  0  0  0  0  0  0
   -1.6423   -1.1642   -1.7616 C   0  0  0  0  0  0  0  0  0  0  0  0
   -5.7531    0.6547   -1.4797 H   0  0  0  0  0  0  0  0  0  0  0  0
   -7.2328    0.1411   -0.6692 H   0  0  0  0  0  0  0  0  0  0  0  0
   -6.0341   -1.0741   -1.1442 H   0  0  0  0  0  0  0  0  0  0  0  0
   -7.2838    0.2822    1.7166 H   0  0  0  0  0  0  0  0  0  0  0  0
   -3.8939    0.3843    4.0335 H   0  0  0  0  0  0  0  0  0  0  0  0
   -2.4119    0.1006    2.0928 H   0  0  0  0  0  0  0  0  0  0  0  0
   -1.7008   -1.0133    0.3667 H   0  0  0  0  0  0  0  0  0  0  0  0
   -1.7938    1.7162    0.1109 H   0  0  0  0  0  0  0  0  0  0  0  0
   -0.2919    0.7981    0.1666 H   0  0  0  0  0  0  0  0  0  0  0  0
   -1.7702    1.6763   -2.3502 H   0  0  0  0  0  0  0  0  0  0  0  0
   -0.3410    2.4412   -1.7101 H   0  0  0  0  0  0  0  0  0  0  0  0
    1.3303    1.9454   -3.2874 H   0  0  0  0  0  0  0  0  0  0  0  0
    1.7426    0.2892   -3.6457 H   0  0  0  0  0  0  0  0  0  0  0  0
    3.5245   -0.9133   -1.8115 H   0  0  0  0  0  0  0  0  0  0  0  0
    4.5405    1.3684    2.2447 H   0  0  0  0  0  0  0  0  0  0  0  0
    6.3075    0.3932    3.6495 H   0  0  0  0  0  0  0  0  0  0  0  0
    7.4952   -1.6612    2.9295 H   0  0  0  0  0  0  0  0  0  0  0  0
    6.9038   -2.7465    0.7811 H   0  0  0  0  0  0  0  0  0  0  0  0
    5.1492   -1.8135   -0.6466 H   0  0  0  0  0  0  0  0  0  0  0  0
    0.4683   -1.1745   -1.4159 H   0  0  0  0  0  0  0  0  0  0  0  0
    0.0140   -1.5154   -3.0860 H   0  0  0  0  0  0  0  0  0  0  0  0
   -1.7715   -2.2370   -1.5685 H   0  0  0  0  0  0  0  0  0  0  0  0
   -2.3521   -0.9234   -2.5655 H   0  0  0  0  0  0  0  0  0  0  0  0
  1  2  1  0
  2  3  2  0
  3  4  1  0
  4  5  2  0
  5  6  1  0
  6  7  2  0
  7  8  1  0
  8  9  1  0
  9 10  1  0
 10 11  1  0
 11 12  1  0
 12 13  1  0
 13 14  1  0
 14 15  2  0
 15 16  1  0
 16 17  1  0
 17 18  2  0
 18 19  1  0
 19 20  2  0
 20 21  1  0
 21 22  2  0
 16 23  1  0
 23 24  2  0
 12 25  1  0
 25 26  1  0
  7  2  1  0
 26  9  1  0
 24 14  1  0
 22 17  1  0
  1 27  1  0
  1 28  1  0
  1 29  1  0
  3 30  1  0
  5 31  1  0
  6 32  1  0
  9 33  1  0
 10 34  1  0
 10 35  1  0
 11 36  1  0
 11 37  1  0
 13 38  1  0
 13 39  1  0
 15 40  1  0
 18 41  1  0
 19 42  1  0
 20 43  1  0
 21 44  1  0
 22 45  1  0
 25 46  1  0
 25 47  1  0
 26 48  1  0
 26 49  1  0
M  END
$$$$
OCNT-2311155
     RDKit          3D

 42 44  0  0  0  0  0  0  0  0999 V2000
    7.0397    0.2466    1.5403 C   0  0  0  0  0  0  0  0  0  0  0  0
    5.8236    0.3921    0.7065 C   0  0  0  0  0  0  0  0  0  0  0  0
    5.6898   -0.3182   -0.4179 N   0  0  0  0  0  0  0  0  0  0  0  0
    4.4943    0.0613   -0.9116 N   0  0  0  0  0  0  0  0  0  0  0  0
    4.0211   -0.5399   -2.1370 C   0  0  0  0  0  0  0  0  0  0  0  0
    3.8521    0.9874   -0.1283 C   0  0  0  0  0  0  0  0  0  0  0  0
    2.5211    1.5682   -0.4440 C   0  0  0  0  0  0  0  0  0  0  0  0
    1.4754    0.5524   -0.5032 N   0  0  0  0  0  0  0  0  0  0  0  0
    1.1885   -0.0142    0.8197 C   0  0  0  0  0  0  0  0  0  0  0  0
   -0.0503   -0.8492    0.6960 C   0  0  0  0  0  0  0  0  0  0  0  0
   -0.1249   -2.2264    0.7334 C   0  0  0  0  0  0  0  0  0  0  0  0
   -1.7451   -2.7318    0.5357 S   0  0  0  0  0  0  0  0  0  0  0  0
   -2.2526   -1.0879    0.3994 C   0  0  0  0  0  0  0  0  0  0  0  0
   -3.6689   -0.7135    0.1963 C   0  0  0  0  0  0  0  0  0  0  0  0
   -4.0214    0.6468    0.2421 C   0  0  0  0  0  0  0  0  0  0  0  0
   -5.3436    1.0658    0.0560 C   0  0  0  0  0  0  0  0  0  0  0  0
   -6.3564    0.1313   -0.1913 C   0  0  0  0  0  0  0  0  0  0  0  0
   -7.7872    0.5765   -0.3709 C   0  0  0  0  0  0  0  0  0  0  0  0
   -7.8961    1.8104   -0.9379 F   0  0  0  0  0  0  0  0  0  0  0  0
   -8.5119   -0.2610   -1.1643 F   0  0  0  0  0  0  0  0  0  0  0  0
   -8.4591    0.6469    0.8109 F   0  0  0  0  0  0  0  0  0  0  0  0
   -6.0184   -1.2278   -0.2327 C   0  0  0  0  0  0  0  0  0  0  0  0
   -4.6931   -1.6431   -0.0456 C   0  0  0  0  0  0  0  0  0  0  0  0
   -1.2709   -0.2095    0.5046 N   0  0  0  0  0  0  0  0  0  0  0  0
    4.7047    1.2224    0.9317 C   0  0  0  0  0  0  0  0  0  0  0  0
    6.9974    0.9002    2.4173 H   0  0  0  0  0  0  0  0  0  0  0  0
    7.9337    0.5088    0.9655 H   0  0  0  0  0  0  0  0  0  0  0  0
    7.1431   -0.7849    1.8918 H   0  0  0  0  0  0  0  0  0  0  0  0
    3.3416   -1.3549   -1.8772 H   0  0  0  0  0  0  0  0  0  0  0  0
    4.8751   -0.9289   -2.6985 H   0  0  0  0  0  0  0  0  0  0  0  0
    3.5123    0.2168   -2.7381 H   0  0  0  0  0  0  0  0  0  0  0  0
    2.5784    2.0671   -1.4190 H   0  0  0  0  0  0  0  0  0  0  0  0
    2.2586    2.3499    0.2798 H   0  0  0  0  0  0  0  0  0  0  0  0
    0.6099    0.9958   -0.8198 H   0  0  0  0  0  0  0  0  0  0  0  0
    2.0198   -0.6339    1.1735 H   0  0  0  0  0  0  0  0  0  0  0  0
    1.0045    0.7746    1.5590 H   0  0  0  0  0  0  0  0  0  0  0  0
    0.6787   -2.9379    0.8590 H   0  0  0  0  0  0  0  0  0  0  0  0
   -3.2551    1.3990    0.4289 H   0  0  0  0  0  0  0  0  0  0  0  0
   -5.5754    2.1291    0.1035 H   0  0  0  0  0  0  0  0  0  0  0  0
   -6.7880   -1.9775   -0.4152 H   0  0  0  0  0  0  0  0  0  0  0  0
   -4.4865   -2.7096   -0.0975 H   0  0  0  0  0  0  0  0  0  0  0  0
    4.5414    1.9008    1.7571 H   0  0  0  0  0  0  0  0  0  0  0  0
  1  2  1  0
  2  3  2  0
  3  4  1  0
  4  5  1  0
  4  6  1  0
  6  7  1  0
  7  8  1  0
  8  9  1  0
  9 10  1  0
 10 11  2  0
 11 12  1  0
 12 13  1  0
 13 14  1  0
 14 15  1  0
 15 16  2  0
 16 17  1  0
 17 18  1  0
 18 19  1  0
 18 20  1  0
 18 21  1  0
 17 22  2  0
 22 23  1  0
 13 24  2  0
  6 25  2  0
 25  2  1  0
 24 10  1  0
 23 14  2  0
  1 26  1  0
  1 27  1  0
  1 28  1  0
  5 29  1  0
  5 30  1  0
  5 31  1  0
  7 32  1  0
  7 33  1  0
  8 34  1  0
  9 35  1  0
  9 36  1  0
 11 37  1  0
 15 38  1  0
 16 39  1  0
 22 40  1  0
 23 41  1  0
 25 42  1  0
M  END
$$$$
OCNT-2311159
     RDKit          3D

 50 53  0  0  0  0  0  0  0  0999 V2000
    6.7349    0.5590   -1.1349 N   0  0  0  0  0  0  0  0  0  0  0  0
    5.9375   -0.8510   -1.5583 S   0  0  0  0  0  0  0  0  0  0  0  0
    4.8158   -0.4439   -2.3749 O   0  0  0  0  0  0  0  0  0  0  0  0
    6.9668   -1.7199   -2.0835 O   0  0  0  0  0  0  0  0  0  0  0  0
    5.3622   -1.5129    0.0156 C   0  0  0  0  0  0  0  0  0  0  0  0
    4.5134   -0.5003    0.7409 C   0  0  0  0  0  0  0  0  0  0  0  0
    5.0382    0.2241    1.8164 C   0  0  0  0  0  0  0  0  0  0  0  0
    4.2502    1.1617    2.4815 C   0  0  0  0  0  0  0  0  0  0  0  0
    2.9311    1.3900    2.0809 C   0  0  0  0  0  0  0  0  0  0  0  0
    2.3858    0.6806    1.0121 C   0  0  0  0  0  0  0  0  0  0  0  0
    1.0697    0.8523    0.5337 N   0  0  0  0  0  0  0  0  0  0  0  0
    0.1060    1.7275    1.0040 C   0  0  0  0  0  0  0  0  0  0  0  0
    0.2402    2.5119    1.9395 O   0  0  0  0  0  0  0  0  0  0  0  0
   -1.2283    1.6462    0.2665 C   0  0  0  0  0  0  0  0  0  0  0  0
   -1.0892    1.8996   -1.2446 C   0  0  0  0  0  0  0  0  0  0  0  0
   -1.4857    0.6811   -2.0727 C   0  0  0  0  0  0  0  0  0  0  0  0
   -2.8849    0.1776   -1.7074 C   0  0  0  0  0  0  0  0  0  0  0  0
   -3.1016    0.1538   -0.2520 N   0  0  0  0  0  0  0  0  0  0  0  0
   -3.9262   -0.9168    0.1430 C   0  0  0  0  0  0  0  0  0  0  0  0
   -3.4065   -1.9203    0.8938 N   0  0  0  0  0  0  0  0  0  0  0  0
   -4.1955   -2.9437    1.2577 C   0  0  0  0  0  0  0  0  0  0  0  0
   -5.4856   -3.1220    0.9697 N   0  0  0  0  0  0  0  0  0  0  0  0
   -5.9860   -2.1065    0.2481 C   0  0  0  0  0  0  0  0  0  0  0  0
   -5.2977   -0.9877   -0.1960 C   0  0  0  0  0  0  0  0  0  0  0  0
   -6.1840   -0.1038   -0.9064 C   0  0  0  0  0  0  0  0  0  0  0  0
   -7.4697   -0.5914   -0.9940 C   0  0  0  0  0  0  0  0  0  0  0  0
   -7.6280   -2.1050   -0.2157 S   0  0  0  0  0  0  0  0  0  0  0  0
   -1.9105    0.3126    0.5921 C   0  0  0  0  0  0  0  0  0  0  0  0
    3.1824   -0.2672    0.3534 C   0  0  0  0  0  0  0  0  0  0  0  0
    6.2066    1.3775   -1.4429 H   0  0  0  0  0  0  0  0  0  0  0  0
    7.7013    0.5378   -1.4636 H   0  0  0  0  0  0  0  0  0  0  0  0
    4.7882   -2.4204   -0.2002 H   0  0  0  0  0  0  0  0  0  0  0  0
    6.2449   -1.7990    0.5965 H   0  0  0  0  0  0  0  0  0  0  0  0
    6.0648    0.0704    2.1432 H   0  0  0  0  0  0  0  0  0  0  0  0
    4.6614    1.7239    3.3169 H   0  0  0  0  0  0  0  0  0  0  0  0
    2.3583    2.1325    2.6280 H   0  0  0  0  0  0  0  0  0  0  0  0
    0.8227    0.2780   -0.2619 H   0  0  0  0  0  0  0  0  0  0  0  0
   -1.8512    2.4577    0.6697 H   0  0  0  0  0  0  0  0  0  0  0  0
   -1.7494    2.7320   -1.5213 H   0  0  0  0  0  0  0  0  0  0  0  0
   -0.0763    2.2205   -1.5153 H   0  0  0  0  0  0  0  0  0  0  0  0
   -0.7548   -0.1216   -1.9156 H   0  0  0  0  0  0  0  0  0  0  0  0
   -1.4513    0.9267   -3.1403 H   0  0  0  0  0  0  0  0  0  0  0  0
   -3.0198   -0.8133   -2.1630 H   0  0  0  0  0  0  0  0  0  0  0  0
   -3.6256    0.8488   -2.1583 H   0  0  0  0  0  0  0  0  0  0  0  0
   -3.7254   -3.7187    1.8545 H   0  0  0  0  0  0  0  0  0  0  0  0
   -5.8842    0.8507   -1.3205 H   0  0  0  0  0  0  0  0  0  0  0  0
   -8.3247   -0.1303   -1.4701 H   0  0  0  0  0  0  0  0  0  0  0  0
   -2.1891    0.3220    1.6550 H   0  0  0  0  0  0  0  0  0  0  0  0
   -1.2240   -0.5328    0.4492 H   0  0  0  0  0  0  0  0  0  0  0  0
    2.7726   -0.8283   -0.4849 H   0  0  0  0  0  0  0  0  0  0  0  0
  1  2  1  0
  2  3  2  0
  2  4  2  0
  2  5  1  0
  5  6  1  0
  6  7  2  0
  7  8  1  0
  8  9  2  0
  9 10  1  0
 10 11  1  0
 11 12  1  0
 12 13  2  0
 12 14  1  0
 14 15  1  0
 15 16  1  0
 16 17  1  0
 17 18  1  0
 18 19  1  0
 19 20  1  0
 20 21  2  0
 21 22  1  0
 22 23  2  0
 23 24  1  0
 24 25  1  0
 25 26  2  0
 26 27  1  0
 18 28  1  0
 10 29  2  0
 29  6  1  0
 28 14  1  0
 24 19  2  0
 27 23  1  0
  1 30  1  0
  1 31  1  0
  5 32  1  0
  5 33  1  0
  7 34  1  0
  8 35  1  0
  9 36  1  0
 11 37  1  0
 14 38  1  0
 15 39  1  0
 15 40  1  0
 16 41  1  0
 16 42  1  0
 17 43  1  0
 17 44  1  0
 21 45  1  0
 25 46  1  0
 26 47  1  0
 28 48  1  0
 28 49  1  0
 29 50  1  0
M  END
$$$$
OCNT-2311166
     RDKit          3D

 39 41  0  0  0  0  0  0  0  0999 V2000
    6.0557    2.4273    0.8819 C   0  0  0  0  0  0  0  0  0  0  0  0
    4.6521    2.4263    1.1106 O   0  0  0  0  0  0  0  0  0  0  0  0
    4.0073    1.2396    0.6389 C   0  0  0  0  0  0  0  0  0  0  0  0
    3.6520    1.3518   -0.8382 C   0  0  0  0  0  0  0  0  0  0  0  0
    2.9966    0.1567   -1.3289 N   0  0  0  0  0  0  0  0  0  0  0  0
    3.5532   -0.8116   -2.1103 C   0  0  0  0  0  0  0  0  0  0  0  0
    2.5637   -1.7401   -2.3252 C   0  0  0  0  0  0  0  0  0  0  0  0
    1.4288   -1.2496   -1.6311 C   0  0  0  0  0  0  0  0  0  0  0  0
    0.0954   -1.8759   -1.5433 C   0  0  0  0  0  0  0  0  0  0  0  0
   -0.1522   -2.9411   -2.0956 O   0  0  0  0  0  0  0  0  0  0  0  0
   -0.7698   -1.1121   -0.7832 N   0  0  0  0  0  0  0  0  0  0  0  0
   -2.1141   -1.3620   -0.4623 C   0  0  0  0  0  0  0  0  0  0  0  0
   -2.8157   -2.4865   -0.8937 C   0  0  0  0  0  0  0  0  0  0  0  0
   -4.1519   -2.6614   -0.5324 C   0  0  0  0  0  0  0  0  0  0  0  0
   -4.7934   -1.7126    0.2637 C   0  0  0  0  0  0  0  0  0  0  0  0
   -4.1125   -0.5736    0.7135 C   0  0  0  0  0  0  0  0  0  0  0  0
   -4.8239    0.3968    1.5492 C   0  0  0  0  0  0  0  0  0  0  0  0
   -6.0960    0.3490    1.9067 N   0  0  0  0  0  0  0  0  0  0  0  0
   -6.3782    1.4421    2.6921 N   0  0  0  0  0  0  0  0  0  0  0  0
   -5.2755    2.1389    2.8049 C   0  0  0  0  0  0  0  0  0  0  0  0
   -4.2798    1.5268    2.1094 N   0  0  0  0  0  0  0  0  0  0  0  0
   -2.7680   -0.4114    0.3393 C   0  0  0  0  0  0  0  0  0  0  0  0
    1.7059   -0.0773   -1.0169 N   0  0  0  0  0  0  0  0  0  0  0  0
    6.4661    3.3605    1.2770 H   0  0  0  0  0  0  0  0  0  0  0  0
    6.5286    1.5913    1.4061 H   0  0  0  0  0  0  0  0  0  0  0  0
    6.2785    2.3761   -0.1871 H   0  0  0  0  0  0  0  0  0  0  0  0
    4.6261    0.3573    0.8440 H   0  0  0  0  0  0  0  0  0  0  0  0
    3.0904    1.1251    1.2281 H   0  0  0  0  0  0  0  0  0  0  0  0
    2.9816    2.2009   -1.0156 H   0  0  0  0  0  0  0  0  0  0  0  0
    4.5439    1.5239   -1.4499 H   0  0  0  0  0  0  0  0  0  0  0  0
    4.5803   -0.7644   -2.4450 H   0  0  0  0  0  0  0  0  0  0  0  0
    2.6307   -2.6522   -2.9031 H   0  0  0  0  0  0  0  0  0  0  0  0
   -0.3337   -0.2640   -0.4288 H   0  0  0  0  0  0  0  0  0  0  0  0
   -2.3535   -3.2481   -1.5142 H   0  0  0  0  0  0  0  0  0  0  0  0
   -4.6948   -3.5399   -0.8727 H   0  0  0  0  0  0  0  0  0  0  0  0
   -5.8374   -1.8683    0.5343 H   0  0  0  0  0  0  0  0  0  0  0  0
   -5.1486    3.0578    3.3582 H   0  0  0  0  0  0  0  0  0  0  0  0
   -3.3269    1.8423    2.0289 H   0  0  0  0  0  0  0  0  0  0  0  0
   -2.2114    0.4614    0.6652 H   0  0  0  0  0  0  0  0  0  0  0  0
  1  2  1  0
  2  3  1  0
  3  4  1  0
  4  5  1  0
  5  6  1  0
  6  7  2  0
  7  8  1  0
  8  9  1  0
  9 10  2  0
  9 11  1  0
 11 12  1  0
 12 13  2  0
 13 14  1  0
 14 15  2  0
 15 16  1  0
 16 17  1  0
 17 18  2  0
 18 19  1  0
 19 20  2  0
 20 21  1  0
 16 22  2  0
  8 23  2  0
 23  5  1  0
 22 12  1  0
 21 17  1  0
  1 24  1  0
  1 25  1  0
  1 26  1  0
  3 27  1  0
  3 28  1  0
  4 29  1  0
  4 30  1  0
  6 31  1  0
  7 32  1  0
 11 33  1  0
 13 34  1  0
 14 35  1  0
 15 36  1  0
 20 37  1  0
 21 38  1  0
 22 39  1  0
M  END
$$$$
OCNT-2311179
     RDKit          3D

 39 41  0  0  0  0  0  0  0  0999 V2000
   -4.6800   -1.2023    1.0501 C   0  0  0  0  0  0  0  0  0  0  0  0
   -4.0254   -0.4643   -0.1204 C   0  0  0  0  0  0  0  0  0  0  0  0
   -5.0802    0.2256   -0.9890 C   0  0  0  0  0  0  0  0  0  0  0  0
   -2.9691    0.5159    0.3590 C   0  0  0  0  0  0  0  0  0  0  0  0
   -3.2921    1.6028    1.1815 C   0  0  0  0  0  0  0  0  0  0  0  0
   -2.3031    2.4881    1.6069 C   0  0  0  0  0  0  0  0  0  0  0  0
   -0.9771    2.2985    1.2152 C   0  0  0  0  0  0  0  0  0  0  0  0
   -0.6145    1.2217    0.3921 C   0  0  0  0  0  0  0  0  0  0  0  0
    0.7848    1.0197   -0.0210 C   0  0  0  0  0  0  0  0  0  0  0  0
    1.5244    2.0597   -0.6101 C   0  0  0  0  0  0  0  0  0  0  0  0
    2.8550    1.8713   -1.0038 C   0  0  0  0  0  0  0  0  0  0  0  0
    3.4816    0.6399   -0.8201 C   0  0  0  0  0  0  0  0  0  0  0  0
    4.8153    0.4905   -1.2265 N   0  0  0  0  0  0  0  0  0  0  0  0
    5.3697   -0.6600   -1.0418 C   0  0  0  0  0  0  0  0  0  0  0  0
    4.7535   -1.7498   -0.4787 N   0  0  0  0  0  0  0  0  0  0  0  0
    5.4679   -2.9993   -0.3204 C   0  0  0  0  0  0  0  0  0  0  0  0
    3.4334   -1.6934   -0.0535 C   0  0  0  0  0  0  0  0  0  0  0  0
    2.8343   -2.6420    0.4460 O   0  0  0  0  0  0  0  0  0  0  0  0
    2.7539   -0.3968   -0.2379 C   0  0  0  0  0  0  0  0  0  0  0  0
    1.4221   -0.2176    0.1602 C   0  0  0  0  0  0  0  0  0  0  0  0
   -1.6280    0.3397   -0.0257 C   0  0  0  0  0  0  0  0  0  0  0  0
   -5.3773   -1.9633    0.6833 H   0  0  0  0  0  0  0  0  0  0  0  0
   -3.9265   -1.7067    1.6653 H   0  0  0  0  0  0  0  0  0  0  0  0
   -5.2417   -0.5230    1.7005 H   0  0  0  0  0  0  0  0  0  0  0  0
   -3.5392   -1.2234   -0.7474 H   0  0  0  0  0  0  0  0  0  0  0  0
   -4.6133    0.7441   -1.8339 H   0  0  0  0  0  0  0  0  0  0  0  0
   -5.6587    0.9637   -0.4229 H   0  0  0  0  0  0  0  0  0  0  0  0
   -5.7848   -0.5086   -1.3944 H   0  0  0  0  0  0  0  0  0  0  0  0
   -4.3185    1.7695    1.5000 H   0  0  0  0  0  0  0  0  0  0  0  0
   -2.5642    3.3257    2.2484 H   0  0  0  0  0  0  0  0  0  0  0  0
   -0.2212    2.9955    1.5710 H   0  0  0  0  0  0  0  0  0  0  0  0
    1.0622    3.0308   -0.7802 H   0  0  0  0  0  0  0  0  0  0  0  0
    3.4057    2.6901   -1.4599 H   0  0  0  0  0  0  0  0  0  0  0  0
    6.4161   -0.8222   -1.3452 H   0  0  0  0  0  0  0  0  0  0  0  0
    6.4979   -2.9203   -0.6783 H   0  0  0  0  0  0  0  0  0  0  0  0
    4.9464   -3.7805   -0.8824 H   0  0  0  0  0  0  0  0  0  0  0  0
    5.4706   -3.2770    0.7383 H   0  0  0  0  0  0  0  0  0  0  0  0
    0.8879   -1.0456    0.6235 H   0  0  0  0  0  0  0  0  0  0  0  0
   -1.3679   -0.4967   -0.6732 H   0  0  0  0  0  0  0  0  0  0  0  0
  1  2  1  0
  2  3  1  0
  2  4  1  0
  4  5  2  0
  5  6  1  0
  6  7  2  0
  7  8  1  0
  8  9  1  0
  9 10  1  0
 10 11  2  0
 11 12  1  0
 12 13  1  0
 13 14  2  0
 14 15  1  0
 15 16  1  0
 15 17  1  0
 17 18  2  0
 17 19  1  0
 19 20  1  0
  8 21  2  0
 21  4  1  0
 20  9  2  0
 19 12  2  0
  1 22  1  0
  1 23  1  0
  1 24  1  0
  2 25  1  0
  3 26  1  0
  3 27  1  0
  3 28  1  0
  5 29  1  0
  6 30  1  0
  7 31  1  0
 10 32  1  0
 11 33  1  0
 14 34  1  0
 16 35  1  0
 16 36  1  0
 16 37  1  0
 20 38  1  0
 21 39  1  0
M  END
$$$$
OCNT-2311187
     RDKit          3D

 43 45  0  0  0  0  0  0  0  0999 V2000
    5.8269   -1.1391    0.0482 C   0  0  0  0  0  0  0  0  0  0  0  0
    4.7553   -0.2413   -0.4967 C   0  0  0  0  0  0  0  0  0  0  0  0
    4.4735   -0.2248   -1.8698 C   0  0  0  0  0  0  0  0  0  0  0  0
    3.4648    0.5955   -2.3817 C   0  0  0  0  0  0  0  0  0  0  0  0
    2.7139    1.3977   -1.5247 C   0  0  0  0  0  0  0  0  0  0  0  0
    2.9719    1.3613   -0.1523 C   0  0  0  0  0  0  0  0  0  0  0  0
    2.0227    2.3732    0.9552 S   0  0  0  0  0  0  0  0  0  0  0  0
    1.2546    3.3129    0.1680 O   0  0  0  0  0  0  0  0  0  0  0  0
    2.8990    2.8089    2.0196 O   0  0  0  0  0  0  0  0  0  0  0  0
    0.9530    1.2800    1.6286 N   0  0  0  0  0  0  0  0  0  0  0  0
    0.0392    0.5223    0.7542 C   0  0  0  0  0  0  0  0  0  0  0  0
   -1.0892   -0.0815    1.6127 C   0  0  0  0  0  0  0  0  0  0  0  0
   -0.5039   -0.9589    2.5936 O   0  0  0  0  0  0  0  0  0  0  0  0
   -2.1033   -0.8252    0.7580 C   0  0  0  0  0  0  0  0  0  0  0  0
   -1.8926   -2.1931    0.4914 C   0  0  0  0  0  0  0  0  0  0  0  0
   -2.7864   -2.9184   -0.2874 C   0  0  0  0  0  0  0  0  0  0  0  0
   -3.9026   -2.2878   -0.8254 C   0  0  0  0  0  0  0  0  0  0  0  0
   -4.1353   -0.9234   -0.6051 C   0  0  0  0  0  0  0  0  0  0  0  0
   -5.2621   -0.3098   -1.1770 C   0  0  0  0  0  0  0  0  0  0  0  0
   -5.5137    1.0473   -0.9910 C   0  0  0  0  0  0  0  0  0  0  0  0
   -4.6382    1.8094   -0.2315 C   0  0  0  0  0  0  0  0  0  0  0  0
   -3.5145    1.2130    0.3474 C   0  0  0  0  0  0  0  0  0  0  0  0
   -3.2322   -0.1654    0.1860 C   0  0  0  0  0  0  0  0  0  0  0  0
    3.9903    0.5532    0.3655 C   0  0  0  0  0  0  0  0  0  0  0  0
    5.4033   -2.1160    0.3006 H   0  0  0  0  0  0  0  0  0  0  0  0
    6.6289   -1.2791   -0.6841 H   0  0  0  0  0  0  0  0  0  0  0  0
    6.2796   -0.7062    0.9464 H   0  0  0  0  0  0  0  0  0  0  0  0
    5.0477   -0.8472   -2.5537 H   0  0  0  0  0  0  0  0  0  0  0  0
    3.2680    0.6098   -3.4512 H   0  0  0  0  0  0  0  0  0  0  0  0
    1.9353    2.0400   -1.9301 H   0  0  0  0  0  0  0  0  0  0  0  0
    1.3051    0.7764    2.4447 H   0  0  0  0  0  0  0  0  0  0  0  0
    0.6080   -0.2836    0.2764 H   0  0  0  0  0  0  0  0  0  0  0  0
   -0.3766    1.1742   -0.0206 H   0  0  0  0  0  0  0  0  0  0  0  0
   -1.5800    0.7015    2.1996 H   0  0  0  0  0  0  0  0  0  0  0  0
   -1.2517   -1.3764    3.0578 H   0  0  0  0  0  0  0  0  0  0  0  0
   -1.0183   -2.7046    0.8921 H   0  0  0  0  0  0  0  0  0  0  0  0
   -2.6125   -3.9742   -0.4782 H   0  0  0  0  0  0  0  0  0  0  0  0
   -4.5906   -2.8731   -1.4323 H   0  0  0  0  0  0  0  0  0  0  0  0
   -5.9571   -0.8893   -1.7815 H   0  0  0  0  0  0  0  0  0  0  0  0
   -6.3885    1.5071   -1.4429 H   0  0  0  0  0  0  0  0  0  0  0  0
   -4.8233    2.8711   -0.0878 H   0  0  0  0  0  0  0  0  0  0  0  0
   -2.8587    1.8612    0.9237 H   0  0  0  0  0  0  0  0  0  0  0  0
    4.1903    0.5477    1.4354 H   0  0  0  0  0  0  0  0  0  0  0  0
  1  2  1  0
  2  3  1  0
  3  4  2  0
  4  5  1  0
  5  6  2  0
  6  7  1  0
  7  8  2  0
  7  9  2  0
  7 10  1  0
 10 11  1  0
 11 12  1  0
 12 13  1  0
 12 14  1  0
 14 15  2  0
 15 16  1  0
 16 17  2  0
 17 18  1  0
 18 19  2  0
 19 20  1  0
 20 21  2  0
 21 22  1  0
 22 23  2  0
  6 24  1  0
 24  2  2  0
 23 14  1  0
 23 18  1  0
  1 25  1  0
  1 26  1  0
  1 27  1  0
  3 28  1  0
  4 29  1  0
  5 30  1  0
 10 31  1  0
 11 32  1  0
 11 33  1  0
 12 34  1  0
 13 35  1  0
 15 36  1  0
 16 37  1  0
 17 38  1  0
 19 39  1  0
 20 40  1  0
 21 41  1  0
 22 42  1  0
 24 43  1  0
M  END
$$$$
OCNT-2311203
     RDKit          3D

  0  0  0  0  0  0  0  0  0  0999 V3000
M  V30 BEGIN CTAB
M  V30 COUNTS 52 55 0 0 0
M  V30 BEGIN ATOM
M  V30 1 C 7.756443 -0.296358 -2.333500 0
M  V30 2 C 7.190593 1.098452 -2.107310 0
M  V30 3 N 5.839726 1.050008 -1.559953 0
M  V30 4 C 4.781377 0.979440 -2.451226 0
M  V30 5 O 4.904080 0.967139 -3.675168 0
M  V30 6 N 3.526815 0.912882 -1.913721 0
M  V30 7 C 3.265749 0.892432 -0.546829 0
M  V30 8 C 1.947821 0.829069 -0.089921 0
M  V30 9 C 1.696798 0.805454 1.289407 0
M  V30 10 C 0.311582 0.747513 1.828503 0
M  V30 11 O 0.051669 1.260382 2.909103 0
M  V30 12 N -0.612613 0.065601 1.060285 0
M  V30 13 C -1.952002 -0.166346 1.574962 0
M  V30 14 C -2.915703 -0.630819 0.476308 0 CFG=1
M  V30 15 C -2.660806 -2.065151 0.044552 0
M  V30 16 C -3.435038 -2.869291 1.063841 0
M  V30 17 O -4.551479 -2.068918 1.462335 0
M  V30 18 C -4.349406 -0.711420 1.020591 0 CFG=2
M  V30 19 C -5.384375 -0.311587 -0.018436 0
M  V30 20 C -5.532948 1.045336 -0.352166 0
M  V30 21 C -6.464086 1.448388 -1.311429 0
M  V30 22 C -7.260274 0.502131 -1.950764 0
M  V30 23 C -7.130582 -0.846073 -1.626851 0
M  V30 24 C -6.200182 -1.250327 -0.666727 0
M  V30 25 C 2.763395 0.867631 2.196889 0
M  V30 26 C 4.078697 0.924800 1.730801 0
M  V30 27 C 4.324510 0.933897 0.354370 0
M  V30 28 C 5.701743 0.990758 -0.174383 0
M  V30 29 O 6.644419 0.974175 0.613499 0
M  V30 30 H 7.802956 -0.860110 -1.396469 0
M  V30 31 H 7.136428 -0.864496 -3.034094 0
M  V30 32 H 8.768054 -0.233796 -2.745293 0
M  V30 33 H 7.844235 1.649854 -1.422103 0
M  V30 34 H 7.182201 1.646803 -3.056078 0
M  V30 35 H 2.775245 0.878152 -2.590846 0
M  V30 36 H 1.125007 0.828245 -0.798617 0
M  V30 37 H -0.257048 -0.572330 0.360754 0
M  V30 38 H -1.871350 -0.894293 2.390245 0
M  V30 39 H -2.306949 0.775139 2.012042 0
M  V30 40 H -2.820800 0.054571 -0.374873 0
M  V30 41 H -3.094260 -2.225722 -0.950178 0
M  V30 42 H -1.607854 -2.354386 -0.004630 0
M  V30 43 H -3.790835 -3.821997 0.661630 0
M  V30 44 H -2.832483 -3.075195 1.954099 0
M  V30 45 H -4.498867 -0.068968 1.896934 0
M  V30 46 H -4.923953 1.800777 0.139883 0
M  V30 47 H -6.570150 2.501873 -1.557110 0
M  V30 48 H -7.987990 0.814671 -2.695461 0
M  V30 49 H -7.757991 -1.586129 -2.117326 0
M  V30 50 H -6.123800 -2.307929 -0.423555 0
M  V30 51 H 2.570583 0.869539 3.268969 0
M  V30 52 H 4.903698 0.966527 2.439519 0
M  V30 END ATOM
M  V30 BEGIN BOND
M  V30 1 1 1 2
M  V30 2 1 2 3
M  V30 3 1 3 4
M  V30 4 2 4 5
M  V30 5 1 4 6
M  V30 6 1 6 7
M  V30 7 1 7 8
M  V30 8 2 8 9
M  V30 9 1 9 10
M  V30 10 2 10 11
M  V30 11 1 10 12
M  V30 12 1 12 13
M  V30 13 1 13 14
M  V30 14 1 14 15
M  V30 15 1 15 16
M  V30 16 1 16 17
M  V30 17 1 17 18
M  V30 18 1 18 19
M  V30 19 2 19 20
M  V30 20 1 20 21
M  V30 21 2 21 22
M  V30 22 1 22 23
M  V30 23 2 23 24
M  V30 24 1 9 25
M  V30 25 2 25 26
M  V30 26 1 26 27
M  V30 27 1 27 28
M  V30 28 2 28 29
M  V30 29 1 28 3
M  V30 30 2 27 7
M  V30 31 1 18 14
M  V30 32 1 24 19
M  V30 33 1 1 30
M  V30 34 1 1 31
M  V30 35 1 1 32
M  V30 36 1 2 33
M  V30 37 1 2 34
M  V30 38 1 6 35
M  V30 39 1 8 36
M  V30 40 1 12 37
M  V30 41 1 13 38
M  V30 42 1 13 39
M  V30 43 1 14 40 CFG=3
M  V30 44 1 15 41
M  V30 45 1 15 42
M  V30 46 1 16 43
M  V30 47 1 16 44
M  V30 48 1 18 45 CFG=1
M  V30 49 1 20 46
M  V30 50 1 21 47
M  V30 51 1 22 48
M  V30 52 1 23 49
M  V30 53 1 24 50
M  V30 54 1 25 51
M  V30 55 1 26 52
M  V30 END BOND
M  V30 BEGIN COLLECTION
M  V30 MDLV30/STERAC1 ATOMS=(2 14 18)
M  V30 END COLLECTION
M  V30 END CTAB
M  END
>  <_CXSMILES_Data>  (424) 
|&1:13,17|

$$$$
OCNT-2311204
     RDKit          3D

 38 41  0  0  0  0  0  0  0  0999 V2000
   -3.9318    0.6457    2.3015 O   0  0  0  0  0  0  0  0  0  0  0  0
   -3.4831    0.1381    1.2750 C   0  0  0  0  0  0  0  0  0  0  0  0
   -4.3853   -0.4754    0.2991 C   0  0  0  0  0  0  0  0  0  0  0  0
   -4.2689   -0.4656   -1.0826 C   0  0  0  0  0  0  0  0  0  0  0  0
   -5.3507   -1.1143   -1.6195 N   0  0  0  0  0  0  0  0  0  0  0  0
   -6.1826   -1.5213   -0.6120 C   0  0  0  0  0  0  0  0  0  0  0  0
   -5.6239   -1.1248    0.5820 C   0  0  0  0  0  0  0  0  0  0  0  0
   -2.1154    0.1607    0.9769 N   0  0  0  0  0  0  0  0  0  0  0  0
   -1.4483   -1.0181    0.4108 C   0  0  0  0  0  0  0  0  0  0  0  0
   -0.0973   -0.6689   -0.2310 C   0  0  0  0  0  0  0  0  0  0  0  0
    0.7627    0.0898    0.7036 N   0  0  0  0  0  0  0  0  0  0  0  0
    2.0835    0.1809    0.3387 C   0  0  0  0  0  0  0  0  0  0  0  0
    2.5935   -0.4780   -0.6807 N   0  0  0  0  0  0  0  0  0  0  0  0
    3.9469   -0.2298   -0.8181 C   0  0  0  0  0  0  0  0  0  0  0  0
    4.7905   -0.7689   -1.8108 C   0  0  0  0  0  0  0  0  0  0  0  0
    6.1474   -0.4294   -1.8304 C   0  0  0  0  0  0  0  0  0  0  0  0
    6.6697    0.4369   -0.8753 C   0  0  0  0  0  0  0  0  0  0  0  0
    5.8526    0.9833    0.1194 C   0  0  0  0  0  0  0  0  0  0  0  0
    4.4916    0.6343    0.1273 C   0  0  0  0  0  0  0  0  0  0  0  0
    3.2501    1.1275    1.2031 S   0  0  0  0  0  0  0  0  0  0  0  0
    0.0992    1.2758    1.2831 C   0  0  0  0  0  0  0  0  0  0  0  0
   -1.2649    0.9156    1.8962 C   0  0  0  0  0  0  0  0  0  0  0  0
   -3.5137   -0.0360   -1.7273 H   0  0  0  0  0  0  0  0  0  0  0  0
   -5.5220   -1.2486   -2.6082 H   0  0  0  0  0  0  0  0  0  0  0  0
   -7.1064   -2.0411   -0.8288 H   0  0  0  0  0  0  0  0  0  0  0  0
   -6.0522   -1.2777    1.5653 H   0  0  0  0  0  0  0  0  0  0  0  0
   -1.2964   -1.7217    1.2399 H   0  0  0  0  0  0  0  0  0  0  0  0
   -2.0750   -1.5341   -0.3179 H   0  0  0  0  0  0  0  0  0  0  0  0
    0.3805   -1.6104   -0.5292 H   0  0  0  0  0  0  0  0  0  0  0  0
   -0.2656   -0.0710   -1.1363 H   0  0  0  0  0  0  0  0  0  0  0  0
    4.3780   -1.4452   -2.5526 H   0  0  0  0  0  0  0  0  0  0  0  0
    6.7951   -0.8476   -2.5973 H   0  0  0  0  0  0  0  0  0  0  0  0
    7.7270    0.6927   -0.9002 H   0  0  0  0  0  0  0  0  0  0  0  0
    6.2608    1.6578    0.8659 H   0  0  0  0  0  0  0  0  0  0  0  0
    0.6990    1.7313    2.0782 H   0  0  0  0  0  0  0  0  0  0  0  0
   -0.0424    2.0269    0.4952 H   0  0  0  0  0  0  0  0  0  0  0  0
   -1.7769    1.8354    2.2017 H   0  0  0  0  0  0  0  0  0  0  0  0
   -1.1255    0.3014    2.7951 H   0  0  0  0  0  0  0  0  0  0  0  0
  1  2  2  0
  2  3  1  0
  3  4  2  0
  4  5  1  0
  5  6  1  0
  6  7  2  0
  2  8  1  0
  8  9  1  0
  9 10  1  0
 10 11  1  0
 11 12  1  0
 12 13  2  0
 13 14  1  0
 14 15  2  0
 15 16  1  0
 16 17  2  0
 17 18  1  0
 18 19  2  0
 19 20  1  0
 11 21  1  0
 21 22  1  0
  7  3  1  0
 22  8  1  0
 20 12  1  0
 19 14  1  0
  4 23  1  0
  5 24  1  0
  6 25  1  0
  7 26  1  0
  9 27  1  0
  9 28  1  0
 10 29  1  0
 10 30  1  0
 15 31  1  0
 16 32  1  0
 17 33  1  0
 18 34  1  0
 21 35  1  0
 21 36  1  0
 22 37  1  0
 22 38  1  0
M  END
$$$$
OCNT-2311205
     RDKit          3D

 39 42  0  0  0  0  0  0  0  0999 V2000
    8.4977   -0.0637   -0.2656 C   0  0  0  0  0  0  0  0  0  0  0  0
    7.6990   -0.0462    1.0267 C   0  0  0  0  0  0  0  0  0  0  0  0
    6.2656   -0.3158    0.7795 C   0  0  0  0  0  0  0  0  0  0  0  0
    5.6098   -1.4568    0.8015 N   0  0  0  0  0  0  0  0  0  0  0  0
    4.2985   -1.1584    0.4984 N   0  0  0  0  0  0  0  0  0  0  0  0
    4.2485    0.1466    0.3156 C   0  0  0  0  0  0  0  0  0  0  0  0
    3.0917    1.0042   -0.0335 C   0  0  0  0  0  0  0  0  0  0  0  0
    1.8573    0.3050    0.2588 N   0  0  0  0  0  0  0  0  0  0  0  0
    0.6469    0.9429    0.0854 C   0  0  0  0  0  0  0  0  0  0  0  0
    0.5912    2.1276   -0.2349 O   0  0  0  0  0  0  0  0  0  0  0  0
   -0.5519    0.1125    0.2860 C   0  0  0  0  0  0  0  0  0  0  0  0
   -0.5972   -1.1230    0.9070 C   0  0  0  0  0  0  0  0  0  0  0  0
   -2.1977   -1.7288    0.9280 S   0  0  0  0  0  0  0  0  0  0  0  0
   -2.7542   -0.3123    0.1212 C   0  0  0  0  0  0  0  0  0  0  0  0
   -4.1766   -0.1026   -0.2247 C   0  0  0  0  0  0  0  0  0  0  0  0
   -4.5501    1.1289   -0.8249 C   0  0  0  0  0  0  0  0  0  0  0  0
   -5.8751    1.4059   -1.1832 C   0  0  0  0  0  0  0  0  0  0  0  0
   -6.8168    0.4361   -0.9338 C   0  0  0  0  0  0  0  0  0  0  0  0
   -8.1443    0.5233   -1.2108 O   0  0  0  0  0  0  0  0  0  0  0  0
   -8.6051   -0.7594   -0.7387 C   0  0  0  0  0  0  0  0  0  0  0  0
   -7.5517   -1.5824   -0.1950 O   0  0  0  0  0  0  0  0  0  0  0  0
   -6.4776   -0.7624   -0.3551 C   0  0  0  0  0  0  0  0  0  0  0  0
   -5.1785   -1.0620    0.0084 C   0  0  0  0  0  0  0  0  0  0  0  0
   -1.8006    0.5579   -0.1490 N   0  0  0  0  0  0  0  0  0  0  0  0
    5.4656    0.7539    0.4752 O   0  0  0  0  0  0  0  0  0  0  0  0
    8.4211   -1.0355   -0.7653 H   0  0  0  0  0  0  0  0  0  0  0  0
    8.1392    0.7009   -0.9634 H   0  0  0  0  0  0  0  0  0  0  0  0
    9.5552    0.1314   -0.0614 H   0  0  0  0  0  0  0  0  0  0  0  0
    7.8157    0.9260    1.5186 H   0  0  0  0  0  0  0  0  0  0  0  0
    8.0976   -0.8024    1.7121 H   0  0  0  0  0  0  0  0  0  0  0  0
    3.1063    1.2445   -1.1017 H   0  0  0  0  0  0  0  0  0  0  0  0
    3.1108    1.9401    0.5346 H   0  0  0  0  0  0  0  0  0  0  0  0
    1.8971   -0.7053    0.3009 H   0  0  0  0  0  0  0  0  0  0  0  0
    0.2030   -1.6923    1.3567 H   0  0  0  0  0  0  0  0  0  0  0  0
   -3.7896    1.8873   -1.0151 H   0  0  0  0  0  0  0  0  0  0  0  0
   -6.1470    2.3505   -1.6403 H   0  0  0  0  0  0  0  0  0  0  0  0
   -9.0715   -1.2940   -1.5743 H   0  0  0  0  0  0  0  0  0  0  0  0
   -9.3597   -0.5965    0.0395 H   0  0  0  0  0  0  0  0  0  0  0  0
   -4.9722   -2.0258    0.4594 H   0  0  0  0  0  0  0  0  0  0  0  0
  1  2  1  0
  2  3  1  0
  3  4  2  0
  4  5  1  0
  5  6  2  0
  6  7  1  0
  7  8  1  0
  8  9  1  0
  9 10  2  0
  9 11  1  0
 11 12  2  0
 12 13  1  0
 13 14  1  0
 14 15  1  0
 15 16  1  0
 16 17  2  0
 17 18  1  0
 18 19  1  0
 19 20  1  0
 20 21  1  0
 21 22  1  0
 22 23  1  0
 14 24  2  0
  6 25  1  0
 25  3  1  0
 24 11  1  0
 23 15  2  0
 22 18  2  0
  1 26  1  0
  1 27  1  0
  1 28  1  0
  2 29  1  0
  2 30  1  0
  7 31  1  0
  7 32  1  0
  8 33  1  0
 12 34  1  0
 16 35  1  0
 17 36  1  0
 20 37  1  0
 20 38  1  0
 23 39  1  0
M  END
$$$$
OCNT-2311206
     RDKit          3D

 42 45  0  0  0  0  0  0  0  0999 V2000
    2.6782   -1.8728   -2.2764 O   0  0  0  0  0  0  0  0  0  0  0  0
    2.5084   -0.6785   -1.4764 S   0  0  0  0  0  0  0  0  0  0  0  0
    3.0167    0.5999   -1.9236 O   0  0  0  0  0  0  0  0  0  0  0  0
    0.7685   -0.5106   -1.1631 C   0  0  0  0  0  0  0  0  0  0  0  0
    0.0589   -1.6114   -0.6803 C   0  0  0  0  0  0  0  0  0  0  0  0
   -1.3091   -1.4884   -0.4238 C   0  0  0  0  0  0  0  0  0  0  0  0
   -1.9849   -0.2745   -0.6472 C   0  0  0  0  0  0  0  0  0  0  0  0
   -3.4274   -0.1531   -0.3807 C   0  0  0  0  0  0  0  0  0  0  0  0
   -4.3496   -1.0700   -0.9253 C   0  0  0  0  0  0  0  0  0  0  0  0
   -5.7317   -0.9641   -0.6778 C   0  0  0  0  0  0  0  0  0  0  0  0
   -6.2291    0.0625    0.1231 C   0  0  0  0  0  0  0  0  0  0  0  0
   -5.3228    0.9552    0.6518 C   0  0  0  0  0  0  0  0  0  0  0  0
   -3.9682    0.8561    0.4099 C   0  0  0  0  0  0  0  0  0  0  0  0
   -3.2724    1.8446    1.0459 O   0  0  0  0  0  0  0  0  0  0  0  0
   -4.3346    2.5635    1.7006 C   0  0  0  0  0  0  0  0  0  0  0  0
   -5.6394    2.0075    1.4538 O   0  0  0  0  0  0  0  0  0  0  0  0
   -1.2446    0.8145   -1.1427 C   0  0  0  0  0  0  0  0  0  0  0  0
    0.1239    0.7025   -1.4037 C   0  0  0  0  0  0  0  0  0  0  0  0
    3.1351   -0.9845    0.0793 N   0  0  0  0  0  0  0  0  0  0  0  0
    3.0143    0.1190    1.0823 C   0  0  0  0  0  0  0  0  0  0  0  0
    4.1767    1.1287    0.9968 C   0  0  0  0  0  0  0  0  0  0  0  0
    5.5090    0.4997    1.0542 N   0  0  0  0  0  0  0  0  0  0  0  0
    5.6041   -0.5184   -0.0091 C   0  0  0  0  0  0  0  0  0  0  0  0
    4.5028   -1.5877    0.0943 C   0  0  0  0  0  0  0  0  0  0  0  0
    0.5634   -2.5583   -0.5017 H   0  0  0  0  0  0  0  0  0  0  0  0
   -1.8486   -2.3506   -0.0353 H   0  0  0  0  0  0  0  0  0  0  0  0
   -3.9981   -1.8774   -1.5664 H   0  0  0  0  0  0  0  0  0  0  0  0
   -6.4143   -1.6874   -1.1181 H   0  0  0  0  0  0  0  0  0  0  0  0
   -7.2902    0.1578    0.3239 H   0  0  0  0  0  0  0  0  0  0  0  0
   -4.3233    3.6018    1.3497 H   0  0  0  0  0  0  0  0  0  0  0  0
   -4.1486    2.5569    2.7808 H   0  0  0  0  0  0  0  0  0  0  0  0
   -1.7396    1.7651   -1.3361 H   0  0  0  0  0  0  0  0  0  0  0  0
    0.6691    1.5598   -1.7917 H   0  0  0  0  0  0  0  0  0  0  0  0
    3.0026   -0.3441    2.0773 H   0  0  0  0  0  0  0  0  0  0  0  0
    2.0578    0.6397    0.9804 H   0  0  0  0  0  0  0  0  0  0  0  0
    4.1030    1.7274    0.0828 H   0  0  0  0  0  0  0  0  0  0  0  0
    4.0933    1.8354    1.8302 H   0  0  0  0  0  0  0  0  0  0  0  0
    5.6110    0.0358    1.9569 H   0  0  0  0  0  0  0  0  0  0  0  0
    6.5832   -1.0044    0.0652 H   0  0  0  0  0  0  0  0  0  0  0  0
    5.5727   -0.0268   -0.9883 H   0  0  0  0  0  0  0  0  0  0  0  0
    4.6102   -2.1441    1.0343 H   0  0  0  0  0  0  0  0  0  0  0  0
    4.6138   -2.3261   -0.7061 H   0  0  0  0  0  0  0  0  0  0  0  0
  1  2  2  0
  2  3  2  0
  2  4  1  0
  4  5  1  0
  5  6  2  0
  6  7  1  0
  7  8  1  0
  8  9  2  0
  9 10  1  0
 10 11  2  0
 11 12  1  0
 12 13  2  0
 13 14  1  0
 14 15  1  0
 15 16  1  0
  7 17  2  0
 17 18  1  0
  2 19  1  0
 19 20  1  0
 20 21  1  0
 21 22  1  0
 22 23  1  0
 23 24  1  0
 18  4  2  0
 24 19  1  0
 13  8  1  0
 16 12  1  0
  5 25  1  0
  6 26  1  0
  9 27  1  0
 10 28  1  0
 11 29  1  0
 15 30  1  0
 15 31  1  0
 17 32  1  0
 18 33  1  0
 20 34  1  0
 20 35  1  0
 21 36  1  0
 21 37  1  0
 22 38  1  0
 23 39  1  0
 23 40  1  0
 24 41  1  0
 24 42  1  0
M  END
$$$$
OCNT-2311212
     RDKit          3D

 39 41  0  0  0  0  0  0  0  0999 V2000
   -3.5974    2.1061    0.4695 C   0  0  0  0  0  0  0  0  0  0  0  0
   -2.7378    1.4939   -0.9647 S   0  0  0  0  0  0  0  0  0  0  0  0
   -3.7175    1.3832   -2.0309 O   0  0  0  0  0  0  0  0  0  0  0  0
   -1.5615    2.3198   -1.1598 O   0  0  0  0  0  0  0  0  0  0  0  0
   -2.1901   -0.1756   -0.5627 C   0  0  2  0  0  0  0  0  0  0  0  0
   -3.3748   -1.1177   -0.3317 C   0  0  0  0  0  0  0  0  0  0  0  0
   -2.9165   -2.5685   -0.1742 C   0  0  0  0  0  0  0  0  0  0  0  0
   -1.5683   -2.7061    0.5326 C   0  0  0  0  0  0  0  0  0  0  0  0
   -1.2746   -1.5076    1.4270 C   0  0  0  0  0  0  0  0  0  0  0  0
   -1.1965   -0.1944    0.6178 C   0  0  1  0  0  0  0  0  0  0  0  0
    0.1749    0.0216    0.1606 N   0  0  0  0  0  0  0  0  0  0  0  0
    1.1408    0.5544    0.9855 C   0  0  0  0  0  0  0  0  0  0  0  0
    0.9043    0.8869    2.1435 O   0  0  0  0  0  0  0  0  0  0  0  0
    2.4605    0.6742    0.4055 C   0  0  0  0  0  0  0  0  0  0  0  0
    2.9487    0.4220   -0.8840 C   0  0  0  0  0  0  0  0  0  0  0  0
    4.3024    0.7255   -0.8254 C   0  0  0  0  0  0  0  0  0  0  0  0
    4.6402    1.1414    0.4002 C   0  0  0  0  0  0  0  0  0  0  0  0
    3.5355    1.1292    1.1764 N   0  0  0  0  0  0  0  0  0  0  0  0
    6.2488    1.5303    0.5589 S   0  0  0  0  0  0  0  0  0  0  0  0
    6.4905    1.1188   -1.0992 C   0  0  0  0  0  0  0  0  0  0  0  0
    8.0619    1.2646   -1.7797 Cl  0  0  0  0  0  0  0  0  0  0  0  0
    5.3436    0.6923   -1.7495 C   0  0  0  0  0  0  0  0  0  0  0  0
   -4.4273    1.4399    0.7062 H   0  0  0  0  0  0  0  0  0  0  0  0
   -2.9077    2.1899    1.3087 H   0  0  0  0  0  0  0  0  0  0  0  0
   -3.9868    3.0970    0.2230 H   0  0  0  0  0  0  0  0  0  0  0  0
   -1.6788   -0.5067   -1.4781 H   0  0  0  0  0  0  0  0  0  0  0  0
   -3.9201   -0.8154    0.5707 H   0  0  0  0  0  0  0  0  0  0  0  0
   -4.0962   -1.0607   -1.1547 H   0  0  0  0  0  0  0  0  0  0  0  0
   -3.6847   -3.1207    0.3806 H   0  0  0  0  0  0  0  0  0  0  0  0
   -2.8487   -3.0466   -1.1590 H   0  0  0  0  0  0  0  0  0  0  0  0
   -0.7720   -2.8037   -0.2159 H   0  0  0  0  0  0  0  0  0  0  0  0
   -1.5559   -3.6305    1.1211 H   0  0  0  0  0  0  0  0  0  0  0  0
   -2.0753   -1.4220    2.1732 H   0  0  0  0  0  0  0  0  0  0  0  0
   -0.3487   -1.6840    1.9869 H   0  0  0  0  0  0  0  0  0  0  0  0
   -1.4190    0.6140    1.3209 H   0  0  0  0  0  0  0  0  0  0  0  0
    0.4585   -0.3156   -0.7486 H   0  0  0  0  0  0  0  0  0  0  0  0
    2.3838    0.0757   -1.7380 H   0  0  0  0  0  0  0  0  0  0  0  0
    3.4646    1.3997    2.1499 H   0  0  0  0  0  0  0  0  0  0  0  0
    5.2972    0.3953   -2.7878 H   0  0  0  0  0  0  0  0  0  0  0  0
  1  2  1  0
  2  3  2  0
  2  4  2  0
  2  5  1  0
  5  6  1  0
  6  7  1  0
  7  8  1  0
  8  9  1  0
  9 10  1  0
 10 11  1  0
 11 12  1  0
 12 13  2  0
 12 14  1  0
 14 15  2  0
 15 16  1  0
 16 17  2  0
 17 18  1  0
 17 19  1  0
 19 20  1  0
 20 21  1  0
 20 22  2  0
 10  5  1  0
 18 14  1  0
 22 16  1  0
  1 23  1  0
  1 24  1  0
  1 25  1  0
  5 26  1  6
  6 27  1  0
  6 28  1  0
  7 29  1  0
  7 30  1  0
  8 31  1  0
  8 32  1  0
  9 33  1  0
  9 34  1  0
 10 35  1  1
 11 36  1  0
 15 37  1  0
 18 38  1  0
 22 39  1  0
M  END
$$$$
OCNT-2311219
     RDKit          3D

 36 38  0  0  0  0  0  0  0  0999 V2000
    3.6893   -1.9226    1.9962 C   0  0  0  0  0  0  0  0  0  0  0  0
    3.3598   -0.6761    1.1761 C   0  0  0  0  0  0  0  0  0  0  0  0
    1.8560   -0.4360    1.0492 C   0  0  0  0  0  0  0  0  0  0  0  0
    1.0533   -1.1572    1.6346 O   0  0  0  0  0  0  0  0  0  0  0  0
    1.5546    0.6873    0.2935 N   0  0  0  0  0  0  0  0  0  0  0  0
    0.2854    1.0922   -0.0551 C   0  0  0  0  0  0  0  0  0  0  0  0
   -0.8333    0.4203    0.1967 N   0  0  0  0  0  0  0  0  0  0  0  0
   -1.8378    1.1585   -0.3063 N   0  0  0  0  0  0  0  0  0  0  0  0
   -3.1963    0.7506   -0.1663 C   0  0  0  0  0  0  0  0  0  0  0  0
   -4.2124    1.7180   -0.3043 C   0  0  0  0  0  0  0  0  0  0  0  0
   -5.5551    1.3722   -0.1275 C   0  0  0  0  0  0  0  0  0  0  0  0
   -5.8974    0.0618    0.1824 C   0  0  0  0  0  0  0  0  0  0  0  0
   -7.5494   -0.3614    0.4001 Cl  0  0  0  0  0  0  0  0  0  0  0  0
   -4.9094   -0.9110    0.3052 C   0  0  0  0  0  0  0  0  0  0  0  0
   -3.5511   -0.5840    0.1270 C   0  0  0  0  0  0  0  0  0  0  0  0
   -2.6306   -1.6921    0.1603 C   0  0  0  0  0  0  0  0  0  0  0  0
   -2.0022   -2.6685    0.1409 N   0  0  0  0  0  0  0  0  0  0  0  0
   -1.3580    2.3152   -0.8833 C   0  0  0  0  0  0  0  0  0  0  0  0
    0.0102    2.2833   -0.7560 C   0  0  0  0  0  0  0  0  0  0  0  0
    3.9730   -0.6884   -0.1409 N   0  0  0  0  0  0  0  0  0  0  0  0
    4.0996   -1.7158   -1.0223 C   0  0  0  0  0  0  0  0  0  0  0  0
    4.6783   -1.2817   -2.1184 N   0  0  0  0  0  0  0  0  0  0  0  0
    4.8596    0.0471   -1.8716 C   0  0  0  0  0  0  0  0  0  0  0  0
    4.4121    0.4712   -0.6853 N   0  0  0  0  0  0  0  0  0  0  0  0
    4.7717   -2.0809    2.0538 H   0  0  0  0  0  0  0  0  0  0  0  0
    3.2385   -2.8238    1.5661 H   0  0  0  0  0  0  0  0  0  0  0  0
    3.3072   -1.8237    3.0182 H   0  0  0  0  0  0  0  0  0  0  0  0
    3.7813    0.1872    1.7091 H   0  0  0  0  0  0  0  0  0  0  0  0
    2.3211    1.2405   -0.0804 H   0  0  0  0  0  0  0  0  0  0  0  0
   -3.9902    2.7618   -0.5120 H   0  0  0  0  0  0  0  0  0  0  0  0
   -6.3261    2.1335   -0.2238 H   0  0  0  0  0  0  0  0  0  0  0  0
   -5.1955   -1.9395    0.5247 H   0  0  0  0  0  0  0  0  0  0  0  0
   -2.0025    3.0379   -1.3597 H   0  0  0  0  0  0  0  0  0  0  0  0
    0.7089    3.0269   -1.1121 H   0  0  0  0  0  0  0  0  0  0  0  0
    3.7661   -2.7269   -0.8302 H   0  0  0  0  0  0  0  0  0  0  0  0
    5.3213    0.7244   -2.5790 H   0  0  0  0  0  0  0  0  0  0  0  0
  1  2  1  0
  2  3  1  0
  3  4  2  0
  3  5  1  0
  5  6  1  0
  6  7  2  0
  7  8  1  0
  8  9  1  0
  9 10  1  0
 10 11  2  0
 11 12  1  0
 12 13  1  0
 12 14  2  0
 14 15  1  0
 15 16  1  0
 16 17  3  0
  8 18  1  0
 18 19  2  0
  2 20  1  0
 20 21  1  0
 21 22  2  0
 22 23  1  0
 23 24  2  0
 19  6  1  0
 24 20  1  0
 15  9  2  0
  1 25  1  0
  1 26  1  0
  1 27  1  0
  2 28  1  0
  5 29  1  0
 10 30  1  0
 11 31  1  0
 14 32  1  0
 18 33  1  0
 19 34  1  0
 21 35  1  0
 23 36  1  0
M  END
$$$$
OCNT-2311222
     RDKit          3D

 40 42  0  0  0  0  0  0  0  0999 V2000
   -0.4460    2.6583   -1.7555 O   0  0  0  0  0  0  0  0  0  0  0  0
   -0.8248    1.8373   -0.9291 C   0  0  0  0  0  0  0  0  0  0  0  0
   -0.0115    1.0411   -0.1481 N   0  0  0  0  0  0  0  0  0  0  0  0
    1.3904    0.9130   -0.2111 C   0  0  0  0  0  0  0  0  0  0  0  0
    2.1850    1.5067   -1.1894 C   0  0  0  0  0  0  0  0  0  0  0  0
    3.5688    1.3137   -1.1833 C   0  0  0  0  0  0  0  0  0  0  0  0
    4.1732    0.5270   -0.2002 C   0  0  0  0  0  0  0  0  0  0  0  0
    3.3931   -0.0714    0.7847 C   0  0  0  0  0  0  0  0  0  0  0  0
    3.8352   -0.8651    1.8047 O   0  0  0  0  0  0  0  0  0  0  0  0
    5.2452   -1.0273    1.9972 C   0  0  0  0  0  0  0  0  0  0  0  0
    5.8246   -2.2127    1.2388 C   0  0  0  0  0  0  0  0  0  0  0  0
    7.1256   -2.3886    1.5768 F   0  0  0  0  0  0  0  0  0  0  0  0
    5.7841   -2.0368   -0.0991 F   0  0  0  0  0  0  0  0  0  0  0  0
    5.1767   -3.3618    1.5305 F   0  0  0  0  0  0  0  0  0  0  0  0
    2.0059    0.1212    0.7676 C   0  0  0  0  0  0  0  0  0  0  0  0
   -2.2461    1.6788   -0.6458 C   0  0  0  0  0  0  0  0  0  0  0  0
   -2.9811    0.5486   -0.3030 C   0  0  0  0  0  0  0  0  0  0  0  0
   -2.6466   -0.9017   -0.1633 C   0  0  0  0  0  0  0  0  0  0  0  0
   -3.7631   -1.6922    0.5277 C   0  0  0  0  0  0  0  0  0  0  0  0
   -5.1324   -1.3345   -0.0486 C   0  0  0  0  0  0  0  0  0  0  0  0
   -5.4238    0.1512    0.1453 C   0  0  0  0  0  0  0  0  0  0  0  0
   -4.2824    0.9772   -0.2031 N   0  0  0  0  0  0  0  0  0  0  0  0
   -4.4482    2.2858   -0.4357 N   0  0  0  0  0  0  0  0  0  0  0  0
   -3.2188    2.7039   -0.7412 C   0  0  0  0  0  0  0  0  0  0  0  0
   -0.4684    0.5585    0.6118 H   0  0  0  0  0  0  0  0  0  0  0  0
    1.7614    2.1193   -1.9794 H   0  0  0  0  0  0  0  0  0  0  0  0
    4.1770    1.7773   -1.9570 H   0  0  0  0  0  0  0  0  0  0  0  0
    5.2487    0.3998   -0.2526 H   0  0  0  0  0  0  0  0  0  0  0  0
    5.7997   -0.1036    1.7977 H   0  0  0  0  0  0  0  0  0  0  0  0
    5.3777   -1.2206    3.0680 H   0  0  0  0  0  0  0  0  0  0  0  0
    1.4104   -0.3583    1.5409 H   0  0  0  0  0  0  0  0  0  0  0  0
   -2.4773   -1.3146   -1.1655 H   0  0  0  0  0  0  0  0  0  0  0  0
   -1.7234   -1.0461    0.4040 H   0  0  0  0  0  0  0  0  0  0  0  0
   -3.7558   -1.4766    1.6039 H   0  0  0  0  0  0  0  0  0  0  0  0
   -3.5763   -2.7661    0.4148 H   0  0  0  0  0  0  0  0  0  0  0  0
   -5.9154   -1.9314    0.4317 H   0  0  0  0  0  0  0  0  0  0  0  0
   -5.1499   -1.5789   -1.1182 H   0  0  0  0  0  0  0  0  0  0  0  0
   -5.6541    0.3682    1.1944 H   0  0  0  0  0  0  0  0  0  0  0  0
   -6.2717    0.4605   -0.4748 H   0  0  0  0  0  0  0  0  0  0  0  0
   -3.0656    3.7411   -1.0138 H   0  0  0  0  0  0  0  0  0  0  0  0
  1  2  2  0
  2  3  1  0
  3  4  1  0
  4  5  2  0
  5  6  1  0
  6  7  2  0
  7  8  1  0
  8  9  1  0
  9 10  1  0
 10 11  1  0
 11 12  1  0
 11 13  1  0
 11 14  1  0
  8 15  2  0
  2 16  1  0
 16 17  2  0
 17 18  1  0
 18 19  1  0
 19 20  1  0
 20 21  1  0
 21 22  1  0
 22 23  1  0
 23 24  2  0
 15  4  1  0
 24 16  1  0
 22 17  1  0
  3 25  1  0
  5 26  1  0
  6 27  1  0
  7 28  1  0
 10 29  1  0
 10 30  1  0
 15 31  1  0
 18 32  1  0
 18 33  1  0
 19 34  1  0
 19 35  1  0
 20 36  1  0
 20 37  1  0
 21 38  1  0
 21 39  1  0
 24 40  1  0
M  END
$$$$
OCNT-2311225
     RDKit          3D

  0  0  0  0  0  0  0  0  0  0999 V3000
M  V30 BEGIN CTAB
M  V30 COUNTS 43 46 0 0 0
M  V30 BEGIN ATOM
M  V30 1 O -1.042512 1.437863 -2.181414 0
M  V30 2 C -0.719557 0.920934 -1.117809 0
M  V30 3 C -1.741080 0.725746 -0.050766 0 CFG=1
M  V30 4 C -1.947479 1.792995 0.991045 0
M  V30 5 C -3.011515 1.567825 -0.056569 0 CFG=2
M  V30 6 C -4.349146 0.969492 0.343892 0
M  V30 7 C -4.755272 -0.290460 -0.130034 0
M  V30 8 F -3.941174 -0.989333 -0.936609 0
M  V30 9 C -5.982873 -0.864332 0.203865 0
M  V30 10 C -6.864509 -0.178249 1.029677 0
M  V30 11 C -6.510766 1.080536 1.508057 0
M  V30 12 C -5.274441 1.646044 1.164058 0
M  V30 13 Cl -4.930507 3.227694 1.779078 0
M  V30 14 N 0.567947 0.498796 -0.832275 0
M  V30 15 C 1.609385 0.624445 -1.851268 0
M  V30 16 C 2.562561 -0.586023 -1.881991 0
M  V30 17 N 3.075021 -0.939597 -0.542950 0
M  V30 18 C 4.419035 -1.288900 -0.427815 0
M  V30 19 C 5.071146 -2.079490 -1.385301 0
M  V30 20 N 6.376891 -2.453950 -1.320280 0
M  V30 21 C 7.033268 -2.020368 -0.227882 0
M  V30 22 C 6.413856 -1.256702 0.742323 0
M  V30 23 N 5.113372 -0.885342 0.663041 0
M  V30 24 C 2.502048 -0.214131 0.600988 0
M  V30 25 C 0.975491 -0.090081 0.447864 0
M  V30 26 H -1.842549 -0.305484 0.271326 0
M  V30 27 H -2.133875 1.471167 2.009150 0
M  V30 28 H -1.367331 2.706939 0.919568 0
M  V30 29 H -3.077070 2.324082 -0.838701 0
M  V30 30 H -6.238164 -1.843506 -0.190148 0
M  V30 31 H -7.824254 -0.615567 1.292765 0
M  V30 32 H -7.203974 1.625337 2.145316 0
M  V30 33 H 2.173160 1.534317 -1.611048 0
M  V30 34 H 1.168147 0.769325 -2.843032 0
M  V30 35 H 3.372989 -0.350260 -2.582684 0
M  V30 36 H 2.024868 -1.457082 -2.275175 0
M  V30 37 H 4.540618 -2.461687 -2.250643 0
M  V30 38 H 8.075514 -2.306142 -0.148896 0
M  V30 39 H 6.948946 -0.916416 1.621274 0
M  V30 40 H 2.945560 0.787818 0.670422 0
M  V30 41 H 2.703557 -0.744369 1.540011 0
M  V30 42 H 0.515408 -1.084066 0.499308 0
M  V30 43 H 0.569261 0.510185 1.267808 0
M  V30 END ATOM
M  V30 BEGIN BOND
M  V30 1 2 1 2
M  V30 2 1 2 3
M  V30 3 1 3 4
M  V30 4 1 4 5
M  V30 5 1 5 6
M  V30 6 2 6 7
M  V30 7 1 7 8
M  V30 8 1 7 9
M  V30 9 2 9 10
M  V30 10 1 10 11
M  V30 11 2 11 12
M  V30 12 1 12 13
M  V30 13 1 2 14
M  V30 14 1 14 15
M  V30 15 1 15 16
M  V30 16 1 16 17
M  V30 17 1 17 18
M  V30 18 2 18 19
M  V30 19 1 19 20
M  V30 20 2 20 21
M  V30 21 1 21 22
M  V30 22 2 22 23
M  V30 23 1 17 24
M  V30 24 1 24 25
M  V30 25 1 5 3
M  V30 26 1 12 6
M  V30 27 1 25 14
M  V30 28 1 23 18
M  V30 29 1 3 26 CFG=1
M  V30 30 1 4 27
M  V30 31 1 4 28
M  V30 32 1 5 29 CFG=3
M  V30 33 1 9 30
M  V30 34 1 10 31
M  V30 35 1 11 32
M  V30 36 1 15 33
M  V30 37 1 15 34
M  V30 38 1 16 35
M  V30 39 1 16 36
M  V30 40 1 19 37
M  V30 41 1 21 38
M  V30 42 1 22 39
M  V30 43 1 24 40
M  V30 44 1 24 41
M  V30 45 1 25 42
M  V30 46 1 25 43
M  V30 END BOND
M  V30 BEGIN COLLECTION
M  V30 MDLV30/STERAC1 ATOMS=(2 3 5)
M  V30 END COLLECTION
M  V30 END CTAB
M  END
>  <_CXSMILES_Data>  (431) 
|&1:2,4|

$$$$
OCNT-2311235
     RDKit          3D

 42 45  0  0  0  0  0  0  0  0999 V2000
    0.8431   -0.3956    0.6649 O   0  0  0  0  0  0  0  0  0  0  0  0
    1.1267    0.7144    0.2236 C   0  0  0  0  0  0  0  0  0  0  0  0
    0.2558    1.7897    0.2019 N   0  0  0  0  0  0  0  0  0  0  0  0
   -1.0421    1.7830    0.6816 C   0  0  0  0  0  0  0  0  0  0  0  0
   -1.7356    0.7651    1.2888 C   0  0  0  0  0  0  0  0  0  0  0  0
   -2.9821    1.2550    1.5644 N   0  0  0  0  0  0  0  0  0  0  0  0
   -4.0670    0.5433    2.2261 C   0  0  0  0  0  0  0  0  0  0  0  0
   -4.8115   -0.3497    1.2678 C   0  0  0  0  0  0  0  0  0  0  0  0
   -4.6971   -1.7411    1.3430 C   0  0  0  0  0  0  0  0  0  0  0  0
   -5.4038   -2.5162    0.4359 C   0  0  0  0  0  0  0  0  0  0  0  0
   -6.2032   -2.0081   -0.5250 N   0  0  0  0  0  0  0  0  0  0  0  0
   -6.2963   -0.6629   -0.5871 C   0  0  0  0  0  0  0  0  0  0  0  0
   -5.6318    0.1955    0.2742 C   0  0  0  0  0  0  0  0  0  0  0  0
   -3.1405    2.5452    1.1963 N   0  0  0  0  0  0  0  0  0  0  0  0
   -1.9611    2.8571    0.6520 C   0  0  0  0  0  0  0  0  0  0  0  0
    2.4347    0.9971   -0.3393 C   0  0  0  0  0  0  0  0  0  0  0  0
    3.0522    2.1947   -0.6592 C   0  0  0  0  0  0  0  0  0  0  0  0
    4.3174    2.0058   -1.1480 N   0  0  0  0  0  0  0  0  0  0  0  0
    4.5085    0.7066   -1.1269 C   0  0  0  0  0  0  0  0  0  0  0  0
    5.7312   -0.0241   -1.5671 C   0  0  0  0  0  0  0  0  0  0  0  0
    5.7747   -1.4439   -1.0031 C   0  0  0  0  0  0  0  0  0  0  0  0
    4.4293   -2.1395   -1.2026 C   0  0  0  0  0  0  0  0  0  0  0  0
    3.3078   -1.3839   -0.4866 C   0  0  0  0  0  0  0  0  0  0  0  0
    3.3929    0.0562   -0.6580 N   0  0  0  0  0  0  0  0  0  0  0  0
    0.5596    2.6510   -0.2272 H   0  0  0  0  0  0  0  0  0  0  0  0
   -1.4654   -0.2518    1.5370 H   0  0  0  0  0  0  0  0  0  0  0  0
   -3.6236   -0.0288    3.0490 H   0  0  0  0  0  0  0  0  0  0  0  0
   -4.7447    1.2817    2.6697 H   0  0  0  0  0  0  0  0  0  0  0  0
   -4.0712   -2.2221    2.0875 H   0  0  0  0  0  0  0  0  0  0  0  0
   -5.3427   -3.6005    0.4601 H   0  0  0  0  0  0  0  0  0  0  0  0
   -6.9389   -0.2785   -1.3740 H   0  0  0  0  0  0  0  0  0  0  0  0
   -5.7457    1.2705    0.1653 H   0  0  0  0  0  0  0  0  0  0  0  0
   -1.8205    3.8550    0.2586 H   0  0  0  0  0  0  0  0  0  0  0  0
    2.6657    3.1995   -0.5511 H   0  0  0  0  0  0  0  0  0  0  0  0
    6.6268    0.5242   -1.2551 H   0  0  0  0  0  0  0  0  0  0  0  0
    5.7383   -0.0626   -2.6629 H   0  0  0  0  0  0  0  0  0  0  0  0
    6.0136   -1.4132    0.0677 H   0  0  0  0  0  0  0  0  0  0  0  0
    6.5713   -2.0131   -1.4953 H   0  0  0  0  0  0  0  0  0  0  0  0
    4.4745   -3.1694   -0.8326 H   0  0  0  0  0  0  0  0  0  0  0  0
    4.2075   -2.1944   -2.2759 H   0  0  0  0  0  0  0  0  0  0  0  0
    3.3532   -1.5714    0.5920 H   0  0  0  0  0  0  0  0  0  0  0  0
    2.3401   -1.7198   -0.8720 H   0  0  0  0  0  0  0  0  0  0  0  0
  1  2  2  0
  2  3  1  0
  3  4  1  0
  4  5  2  0
  5  6  1  0
  6  7  1  0
  7  8  1  0
  8  9  2  0
  9 10  1  0
 10 11  2  0
 11 12  1  0
 12 13  2  0
  6 14  1  0
 14 15  2  0
  2 16  1  0
 16 17  2  0
 17 18  1  0
 18 19  2  0
 19 20  1  0
 20 21  1  0
 21 22  1  0
 22 23  1  0
 23 24  1  0
 15  4  1  0
 24 16  1  0
 13  8  1  0
 24 19  1  0
  3 25  1  0
  5 26  1  0
  7 27  1  0
  7 28  1  0
  9 29  1  0
 10 30  1  0
 12 31  1  0
 13 32  1  0
 15 33  1  0
 17 34  1  0
 20 35  1  0
 20 36  1  0
 21 37  1  0
 21 38  1  0
 22 39  1  0
 22 40  1  0
 23 41  1  0
 23 42  1  0
M  END
$$$$
OCNT-2311250
     RDKit          3D

 40 43  0  0  0  0  0  0  0  0999 V2000
   -2.0127   -1.2218   -0.0206 O   0  0  0  0  0  0  0  0  0  0  0  0
   -1.2412   -0.2733   -0.1173 C   0  0  0  0  0  0  0  0  0  0  0  0
    0.1202   -0.3789    0.0657 N   0  0  0  0  0  0  0  0  0  0  0  0
    0.7880   -1.6554    0.1816 C   0  0  1  0  0  0  0  0  0  0  0  0
    1.0678   -2.2895   -1.1835 C   0  0  0  0  0  0  0  0  0  0  0  0
    2.2776   -3.1999   -0.9703 C   0  0  0  0  0  0  0  0  0  0  0  0
    2.7486   -2.9614    0.4655 C   0  0  0  0  0  0  0  0  0  0  0  0
    2.1710   -1.5978    0.8523 C   0  0  1  0  0  0  0  0  0  0  0  0
    3.0098   -0.5987    0.2594 O   0  0  0  0  0  0  0  0  0  0  0  0
    3.1272    0.5491    0.9609 C   0  0  0  0  0  0  0  0  0  0  0  0
    4.0209    1.5235    0.5990 C   0  0  0  0  0  0  0  0  0  0  0  0
    3.8631    2.5289    1.5067 N   0  0  0  0  0  0  0  0  0  0  0  0
    2.9188    2.2765    2.4311 N   0  0  0  0  0  0  0  0  0  0  0  0
    2.4613    1.0668    2.0899 C   0  0  0  0  0  0  0  0  0  0  0  0
   -1.6556    1.0827   -0.4532 C   0  0  0  0  0  0  0  0  0  0  0  0
   -2.9401    1.5572   -0.6325 C   0  0  0  0  0  0  0  0  0  0  0  0
   -4.2639    0.7627   -0.5120 C   0  0  0  0  0  0  0  0  0  0  0  0
   -4.9072    0.6375    0.8442 C   0  0  0  0  0  0  0  0  0  0  0  0
   -5.5414    1.5000   -0.2076 C   0  0  0  0  0  0  0  0  0  0  0  0
   -2.8569    2.8871   -0.9410 O   0  0  0  0  0  0  0  0  0  0  0  0
   -1.5236    3.1485   -0.9277 C   0  0  0  0  0  0  0  0  0  0  0  0
   -0.7518    2.1225   -0.6517 N   0  0  0  0  0  0  0  0  0  0  0  0
    0.6598    0.4419   -0.2040 H   0  0  0  0  0  0  0  0  0  0  0  0
    0.1426   -2.3336    0.7560 H   0  0  0  0  0  0  0  0  0  0  0  0
    0.2004   -2.8458   -1.5545 H   0  0  0  0  0  0  0  0  0  0  0  0
    1.3068   -1.5271   -1.9354 H   0  0  0  0  0  0  0  0  0  0  0  0
    2.0233   -4.2532   -1.1279 H   0  0  0  0  0  0  0  0  0  0  0  0
    3.0685   -2.9438   -1.6843 H   0  0  0  0  0  0  0  0  0  0  0  0
    2.3365   -3.7413    1.1170 H   0  0  0  0  0  0  0  0  0  0  0  0
    3.8406   -2.9951    0.5330 H   0  0  0  0  0  0  0  0  0  0  0  0
    2.1176   -1.5138    1.9434 H   0  0  0  0  0  0  0  0  0  0  0  0
    4.7401    1.5879   -0.2037 H   0  0  0  0  0  0  0  0  0  0  0  0
    4.3597    3.4124    1.5565 H   0  0  0  0  0  0  0  0  0  0  0  0
    1.6643    0.6326    2.6784 H   0  0  0  0  0  0  0  0  0  0  0  0
   -4.3364   -0.0944   -1.1747 H   0  0  0  0  0  0  0  0  0  0  0  0
   -5.3792   -0.3074    1.0877 H   0  0  0  0  0  0  0  0  0  0  0  0
   -4.4392    1.1283    1.6898 H   0  0  0  0  0  0  0  0  0  0  0  0
   -6.4522    1.1451   -0.6756 H   0  0  0  0  0  0  0  0  0  0  0  0
   -5.5033    2.5750   -0.0731 H   0  0  0  0  0  0  0  0  0  0  0  0
   -1.2295    4.1657   -1.1452 H   0  0  0  0  0  0  0  0  0  0  0  0
  1  2  2  0
  2  3  1  0
  3  4  1  0
  4  5  1  0
  5  6  1  0
  6  7  1  0
  7  8  1  0
  8  9  1  0
  9 10  1  0
 10 11  2  0
 11 12  1  0
 12 13  1  0
 13 14  2  0
  2 15  1  0
 15 16  2  0
 16 17  1  0
 17 18  1  0
 18 19  1  0
 16 20  1  0
 20 21  1  0
 21 22  2  0
  8  4  1  0
 14 10  1  0
 22 15  1  0
 19 17  1  0
  3 23  1  0
  4 24  1  1
  5 25  1  0
  5 26  1  0
  6 27  1  0
  6 28  1  0
  7 29  1  0
  7 30  1  0
  8 31  1  1
 11 32  1  0
 12 33  1  0
 14 34  1  0
 17 35  1  0
 18 36  1  0
 18 37  1  0
 19 38  1  0
 19 39  1  0
 21 40  1  0
M  END
$$$$
OCNT-2311252
     RDKit          3D

 48 51  0  0  0  0  0  0  0  0999 V2000
    7.5566    0.1492    1.5139 C   0  0  0  0  0  0  0  0  0  0  0  0
    6.9643   -0.6141    0.4713 O   0  0  0  0  0  0  0  0  0  0  0  0
    5.6497   -0.3685    0.1786 C   0  0  0  0  0  0  0  0  0  0  0  0
    4.8427    0.5628    0.8187 C   0  0  0  0  0  0  0  0  0  0  0  0
    3.5141    0.7063    0.4181 C   0  0  0  0  0  0  0  0  0  0  0  0
    2.9637   -0.0824   -0.6246 C   0  0  0  0  0  0  0  0  0  0  0  0
    1.6292    0.0083   -1.0783 C   0  0  0  0  0  0  0  0  0  0  0  0
    0.7254    0.8827   -0.4300 N   0  0  0  0  0  0  0  0  0  0  0  0
    0.1981    0.3032    0.8275 C   0  0  0  0  0  0  0  0  0  0  0  0
   -1.0129   -0.6293    0.5926 C   0  0  0  0  0  0  0  0  0  0  0  0
   -2.1302   -0.0233   -0.1690 N   0  0  0  0  0  0  0  0  0  0  0  0
   -2.8333    1.0036    0.6232 C   0  0  0  0  0  0  0  0  0  0  0  0
   -4.2448    1.3148    0.0994 C   0  0  0  0  0  0  0  0  0  0  0  0
   -5.2397    0.2323    0.4183 C   0  0  0  0  0  0  0  0  0  0  0  0
   -5.2533   -0.9702   -0.2837 C   0  0  0  0  0  0  0  0  0  0  0  0
   -6.1414   -1.9621   -0.0295 N   0  0  0  0  0  0  0  0  0  0  0  0
   -7.0166   -1.7087    0.9670 C   0  0  0  0  0  0  0  0  0  0  0  0
   -7.0081   -0.5206    1.6761 C   0  0  0  0  0  0  0  0  0  0  0  0
   -6.1254    0.4722    1.4210 N   0  0  0  0  0  0  0  0  0  0  0  0
   -1.5769    0.5025   -1.4418 C   0  0  0  0  0  0  0  0  0  0  0  0
   -0.3347    1.4216   -1.3116 C   0  0  0  0  0  0  0  0  0  0  0  0
    1.1858   -0.7164   -2.1190 N   0  0  0  0  0  0  0  0  0  0  0  0
    2.0515   -1.5654   -2.6779 C   0  0  0  0  0  0  0  0  0  0  0  0
    3.3191   -1.7545   -2.3068 N   0  0  0  0  0  0  0  0  0  0  0  0
    3.7784   -1.0080   -1.2890 C   0  0  0  0  0  0  0  0  0  0  0  0
    5.1037   -1.1334   -0.8635 C   0  0  0  0  0  0  0  0  0  0  0  0
    5.8994   -2.0257   -1.4833 F   0  0  0  0  0  0  0  0  0  0  0  0
    8.5981   -0.1714    1.6133 H   0  0  0  0  0  0  0  0  0  0  0  0
    7.0580   -0.0365    2.4709 H   0  0  0  0  0  0  0  0  0  0  0  0
    7.5583    1.2165    1.2693 H   0  0  0  0  0  0  0  0  0  0  0  0
    5.2092    1.1927    1.6223 H   0  0  0  0  0  0  0  0  0  0  0  0
    2.8951    1.4529    0.9139 H   0  0  0  0  0  0  0  0  0  0  0  0
   -0.1030    1.1338    1.4778 H   0  0  0  0  0  0  0  0  0  0  0  0
    0.9704   -0.2442    1.3818 H   0  0  0  0  0  0  0  0  0  0  0  0
   -0.6781   -1.5231    0.0500 H   0  0  0  0  0  0  0  0  0  0  0  0
   -1.3797   -0.9993    1.5581 H   0  0  0  0  0  0  0  0  0  0  0  0
   -2.2554    1.9340    0.6600 H   0  0  0  0  0  0  0  0  0  0  0  0
   -2.9322    0.6640    1.6632 H   0  0  0  0  0  0  0  0  0  0  0  0
   -4.2518    1.5165   -0.9772 H   0  0  0  0  0  0  0  0  0  0  0  0
   -4.5857    2.2435    0.5759 H   0  0  0  0  0  0  0  0  0  0  0  0
   -4.5427   -1.1734   -1.0782 H   0  0  0  0  0  0  0  0  0  0  0  0
   -7.7317   -2.4935    1.1834 H   0  0  0  0  0  0  0  0  0  0  0  0
   -7.7170   -0.3329    2.4740 H   0  0  0  0  0  0  0  0  0  0  0  0
   -2.3518    1.0338   -2.0053 H   0  0  0  0  0  0  0  0  0  0  0  0
   -1.3260   -0.3623   -2.0674 H   0  0  0  0  0  0  0  0  0  0  0  0
    0.0622    1.6618   -2.3066 H   0  0  0  0  0  0  0  0  0  0  0  0
   -0.6506    2.3823   -0.8869 H   0  0  0  0  0  0  0  0  0  0  0  0
    1.6902   -2.1596   -3.5101 H   0  0  0  0  0  0  0  0  0  0  0  0
  1  2  1  0
  2  3  1  0
  3  4  1  0
  4  5  2  0
  5  6  1  0
  6  7  2  0
  7  8  1  0
  8  9  1  0
  9 10  1  0
 10 11  1  0
 11 12  1  0
 12 13  1  0
 13 14  1  0
 14 15  2  0
 15 16  1  0
 16 17  2  0
 17 18  1  0
 18 19  2  0
 11 20  1  0
 20 21  1  0
  7 22  1  0
 22 23  2  0
 23 24  1  0
 24 25  2  0
 25 26  1  0
 26 27  1  0
 26  3  2  0
 25  6  1  0
 21  8  1  0
 19 14  1  0
  1 28  1  0
  1 29  1  0
  1 30  1  0
  4 31  1  0
  5 32  1  0
  9 33  1  0
  9 34  1  0
 10 35  1  0
 10 36  1  0
 12 37  1  0
 12 38  1  0
 13 39  1  0
 13 40  1  0
 15 41  1  0
 17 42  1  0
 18 43  1  0
 20 44  1  0
 20 45  1  0
 21 46  1  0
 21 47  1  0
 23 48  1  0
M  END
$$$$
OCNT-2311264
     RDKit          3D

 46 49  0  0  0  0  0  0  0  0999 V2000
    0.3981    2.1649    1.3857 O   0  0  0  0  0  0  0  0  0  0  0  0
    0.4829    0.9821    1.0735 C   0  0  0  0  0  0  0  0  0  0  0  0
   -0.5424    0.0662    1.0730 N   0  0  0  0  0  0  0  0  0  0  0  0
   -1.8337    0.3162    1.4661 C   0  0  0  0  0  0  0  0  0  0  0  0
   -2.7298   -0.6709    1.3742 N   0  0  0  0  0  0  0  0  0  0  0  0
   -3.8789   -0.1135    1.8134 N   0  0  0  0  0  0  0  0  0  0  0  0
   -5.0975   -0.9095    1.8835 C   0  0  0  0  0  0  0  0  0  0  0  0
   -6.0798   -0.5325    0.8025 C   0  0  0  0  0  0  0  0  0  0  0  0
   -5.7884   -0.7908   -0.5459 C   0  0  0  0  0  0  0  0  0  0  0  0
   -6.6973   -0.4453   -1.5467 C   0  0  0  0  0  0  0  0  0  0  0  0
   -7.9072    0.1587   -1.2118 C   0  0  0  0  0  0  0  0  0  0  0  0
   -8.2094    0.4189    0.1235 C   0  0  0  0  0  0  0  0  0  0  0  0
   -7.3016    0.0754    1.1270 C   0  0  0  0  0  0  0  0  0  0  0  0
   -3.7297    1.1838    2.2114 C   0  0  0  0  0  0  0  0  0  0  0  0
   -2.4091    1.4939    1.9883 C   0  0  0  0  0  0  0  0  0  0  0  0
    1.8001    0.4543    0.6158 C   0  0  0  0  0  0  0  0  0  0  0  0
    2.6743    1.3203   -0.0454 C   0  0  0  0  0  0  0  0  0  0  0  0
    3.9203    0.8635   -0.4945 C   0  0  0  0  0  0  0  0  0  0  0  0
    4.3284   -0.4573   -0.2852 C   0  0  0  0  0  0  0  0  0  0  0  0
    5.5548   -0.9729   -0.7129 N   0  0  0  0  0  0  0  0  0  0  0  0
    6.6401   -0.4468   -1.4075 C   0  0  0  0  0  0  0  0  0  0  0  0
    6.6644    0.8220   -1.8421 N   0  0  0  0  0  0  0  0  0  0  0  0
    7.7626    1.2313   -2.5042 C   0  0  0  0  0  0  0  0  0  0  0  0
    8.8418    0.4235   -2.7529 C   0  0  0  0  0  0  0  0  0  0  0  0
    8.7301   -0.8565   -2.2747 C   0  0  0  0  0  0  0  0  0  0  0  0
    7.6520   -1.3104   -1.6069 N   0  0  0  0  0  0  0  0  0  0  0  0
    3.4446   -1.3103    0.3981 C   0  0  0  0  0  0  0  0  0  0  0  0
    2.1956   -0.8653    0.8498 C   0  0  0  0  0  0  0  0  0  0  0  0
   -0.4194   -0.8654    0.7072 H   0  0  0  0  0  0  0  0  0  0  0  0
   -5.5194   -0.7573    2.8838 H   0  0  0  0  0  0  0  0  0  0  0  0
   -4.8260   -1.9683    1.7987 H   0  0  0  0  0  0  0  0  0  0  0  0
   -4.8436   -1.2566   -0.8235 H   0  0  0  0  0  0  0  0  0  0  0  0
   -6.4585   -0.6449   -2.5883 H   0  0  0  0  0  0  0  0  0  0  0  0
   -8.6136    0.4291   -1.9923 H   0  0  0  0  0  0  0  0  0  0  0  0
   -9.1533    0.8918    0.3829 H   0  0  0  0  0  0  0  0  0  0  0  0
   -7.5572    0.2888    2.1626 H   0  0  0  0  0  0  0  0  0  0  0  0
   -4.5543    1.7662    2.5970 H   0  0  0  0  0  0  0  0  0  0  0  0
   -1.9292    2.4439    2.1770 H   0  0  0  0  0  0  0  0  0  0  0  0
    2.3919    2.3569   -0.2197 H   0  0  0  0  0  0  0  0  0  0  0  0
    4.5632    1.5725   -1.0080 H   0  0  0  0  0  0  0  0  0  0  0  0
    5.7559   -1.9367   -0.4910 H   0  0  0  0  0  0  0  0  0  0  0  0
    7.7428    2.2647   -2.8377 H   0  0  0  0  0  0  0  0  0  0  0  0
    9.7148    0.7702   -3.2862 H   0  0  0  0  0  0  0  0  0  0  0  0
    9.5265   -1.5812   -2.4159 H   0  0  0  0  0  0  0  0  0  0  0  0
    3.7288   -2.3421    0.5949 H   0  0  0  0  0  0  0  0  0  0  0  0
    1.5653   -1.5555    1.4032 H   0  0  0  0  0  0  0  0  0  0  0  0
  1  2  2  0
  2  3  1  0
  3  4  1  0
  4  5  2  0
  5  6  1  0
  6  7  1  0
  7  8  1  0
  8  9  2  0
  9 10  1  0
 10 11  2  0
 11 12  1  0
 12 13  2  0
  6 14  1  0
 14 15  2  0
  2 16  1  0
 16 17  1  0
 17 18  2  0
 18 19  1  0
 19 20  1  0
 20 21  1  0
 21 22  2  0
 22 23  1  0
 23 24  2  0
 24 25  1  0
 25 26  2  0
 19 27  2  0
 27 28  1  0
 15  4  1  0
 28 16  2  0
 13  8  1  0
 26 21  1  0
  3 29  1  0
  7 30  1  0
  7 31  1  0
  9 32  1  0
 10 33  1  0
 11 34  1  0
 12 35  1  0
 13 36  1  0
 14 37  1  0
 15 38  1  0
 17 39  1  0
 18 40  1  0
 20 41  1  0
 23 42  1  0
 24 43  1  0
 25 44  1  0
 27 45  1  0
 28 46  1  0
M  END
$$$$
OCNT-2311278
     RDKit          3D

 46 48  0  0  0  0  0  0  0  0999 V2000
    5.6139    2.7575   -1.4431 C   0  0  0  0  0  0  0  0  0  0  0  0
    5.6154    1.4518   -0.6632 C   0  0  0  0  0  0  0  0  0  0  0  0
    4.4493    0.5880   -1.0030 C   0  0  0  0  0  0  0  0  0  0  0  0
    4.5222   -0.2903   -2.0089 N   0  0  0  0  0  0  0  0  0  0  0  0
    3.3105   -0.8757   -2.0196 N   0  0  0  0  0  0  0  0  0  0  0  0
    3.0403   -1.8952   -3.0053 C   0  0  0  0  0  0  0  0  0  0  0  0
    2.4559   -0.4024   -1.0496 C   0  0  0  0  0  0  0  0  0  0  0  0
    1.1622   -0.8729   -0.8852 N   0  0  0  0  0  0  0  0  0  0  0  0
    0.2804   -0.3725    0.0614 C   0  0  0  0  0  0  0  0  0  0  0  0
    0.5334    0.5526    0.8258 O   0  0  0  0  0  0  0  0  0  0  0  0
   -1.0087   -1.0429    0.0633 C   0  0  0  0  0  0  0  0  0  0  0  0
   -1.3598   -2.3095   -0.3806 C   0  0  0  0  0  0  0  0  0  0  0  0
   -2.7302   -2.4608   -0.0896 C   0  0  0  0  0  0  0  0  0  0  0  0
   -3.6006   -3.6343   -0.3377 C   0  0  0  0  0  0  0  0  0  0  0  0
   -3.2255   -1.3690    0.4923 N   0  0  0  0  0  0  0  0  0  0  0  0
   -2.1785   -0.5182    0.5758 N   0  0  0  0  0  0  0  0  0  0  0  0
   -2.3934    0.8022    1.1743 C   0  0  0  0  0  0  0  0  0  0  0  0
   -2.2064    0.7316    2.6963 C   0  0  0  0  0  0  0  0  0  0  0  0
   -2.9335    1.8838    3.3667 C   0  0  0  0  0  0  0  0  0  0  0  0
   -4.3406    1.8767    3.1271 O   0  0  0  0  0  0  0  0  0  0  0  0
   -4.7545    1.2315    1.9210 C   0  0  0  0  0  0  0  0  0  0  0  0
   -3.7509    1.4267    0.7964 C   0  0  0  0  0  0  0  0  0  0  0  0
    3.1834    0.5540   -0.3750 C   0  0  0  0  0  0  0  0  0  0  0  0
    5.6552    2.5741   -2.5223 H   0  0  0  0  0  0  0  0  0  0  0  0
    4.7100    3.3406   -1.2365 H   0  0  0  0  0  0  0  0  0  0  0  0
    6.4815    3.3654   -1.1678 H   0  0  0  0  0  0  0  0  0  0  0  0
    5.6050    1.6733    0.4107 H   0  0  0  0  0  0  0  0  0  0  0  0
    6.5488    0.9112   -0.8619 H   0  0  0  0  0  0  0  0  0  0  0  0
    2.1969   -1.5676   -3.6182 H   0  0  0  0  0  0  0  0  0  0  0  0
    2.8010   -2.8248   -2.4830 H   0  0  0  0  0  0  0  0  0  0  0  0
    3.9212   -2.0411   -3.6360 H   0  0  0  0  0  0  0  0  0  0  0  0
    0.8272   -1.5871   -1.5142 H   0  0  0  0  0  0  0  0  0  0  0  0
   -0.7131   -3.0538   -0.8225 H   0  0  0  0  0  0  0  0  0  0  0  0
   -4.4525   -3.3554   -0.9661 H   0  0  0  0  0  0  0  0  0  0  0  0
   -3.9822   -4.0355    0.6067 H   0  0  0  0  0  0  0  0  0  0  0  0
   -3.0511   -4.4321   -0.8476 H   0  0  0  0  0  0  0  0  0  0  0  0
   -1.6367    1.4629    0.7380 H   0  0  0  0  0  0  0  0  0  0  0  0
   -2.6054   -0.2141    3.0861 H   0  0  0  0  0  0  0  0  0  0  0  0
   -1.1412    0.7533    2.9513 H   0  0  0  0  0  0  0  0  0  0  0  0
   -2.5354    2.8447    3.0206 H   0  0  0  0  0  0  0  0  0  0  0  0
   -2.7846    1.8471    4.4507 H   0  0  0  0  0  0  0  0  0  0  0  0
   -4.9230    0.1705    2.1350 H   0  0  0  0  0  0  0  0  0  0  0  0
   -5.7222    1.6594    1.6399 H   0  0  0  0  0  0  0  0  0  0  0  0
   -4.1393    1.0342   -0.1498 H   0  0  0  0  0  0  0  0  0  0  0  0
   -3.6035    2.5058    0.6546 H   0  0  0  0  0  0  0  0  0  0  0  0
    2.8593    1.1565    0.4619 H   0  0  0  0  0  0  0  0  0  0  0  0
  1  2  1  0
  2  3  1  0
  3  4  2  0
  4  5  1  0
  5  6  1  0
  5  7  1  0
  7  8  1  0
  8  9  1  0
  9 10  2  0
  9 11  1  0
 11 12  2  0
 12 13  1  0
 13 14  1  0
 13 15  2  0
 15 16  1  0
 16 17  1  0
 17 18  1  0
 18 19  1  0
 19 20  1  0
 20 21  1  0
 21 22  1  0
  7 23  2  0
 23  3  1  0
 16 11  1  0
 22 17  1  0
  1 24  1  0
  1 25  1  0
  1 26  1  0
  2 27  1  0
  2 28  1  0
  6 29  1  0
  6 30  1  0
  6 31  1  0
  8 32  1  0
 12 33  1  0
 14 34  1  0
 14 35  1  0
 14 36  1  0
 17 37  1  0
 18 38  1  0
 18 39  1  0
 19 40  1  0
 19 41  1  0
 21 42  1  0
 21 43  1  0
 22 44  1  0
 22 45  1  0
 23 46  1  0
M  END
$$$$
OCNT-2311279
     RDKit          3D

 41 43  0  0  0  0  0  0  0  0999 V2000
   -3.6562    0.7122   -0.9586 C   0  0  0  0  0  0  0  0  0  0  0  0
   -2.3170    0.4617   -0.2671 C   0  0  0  0  0  0  0  0  0  0  0  0
   -1.9564   -0.9450   -0.3109 N   0  0  0  0  0  0  0  0  0  0  0  0
   -1.3746   -1.4921   -1.4156 C   0  0  0  0  0  0  0  0  0  0  0  0
   -1.0844   -0.8562   -2.4200 O   0  0  0  0  0  0  0  0  0  0  0  0
   -1.1131   -2.8286   -1.2487 N   0  0  0  0  0  0  0  0  0  0  0  0
   -0.2372   -3.5277   -2.1767 C   0  0  0  0  0  0  0  0  0  0  0  0
    1.2207   -3.5835   -1.7113 C   0  0  0  0  0  0  0  0  0  0  0  0
    1.8045   -2.2397   -1.5031 C   0  0  0  0  0  0  0  0  0  0  0  0
    1.8061   -1.5007   -0.4180 N   0  0  0  0  0  0  0  0  0  0  0  0
    2.3958   -0.3349   -0.8561 C   0  0  0  0  0  0  0  0  0  0  0  0
    2.5193    0.8355    0.0075 C   0  0  0  0  0  0  0  0  0  0  0  0
    2.0174    0.7990    1.3188 C   0  0  0  0  0  0  0  0  0  0  0  0
    2.1171    1.9162    2.1541 C   0  0  0  0  0  0  0  0  0  0  0  0
    2.7147    3.0813    1.6806 C   0  0  0  0  0  0  0  0  0  0  0  0
    2.8245    4.4601    2.7033 Cl  0  0  0  0  0  0  0  0  0  0  0  0
    3.2177    3.1377    0.3829 C   0  0  0  0  0  0  0  0  0  0  0  0
    3.1203    2.0182   -0.4508 C   0  0  0  0  0  0  0  0  0  0  0  0
    2.8214   -0.3849   -2.1299 N   0  0  0  0  0  0  0  0  0  0  0  0
    2.4132   -1.6455   -2.5661 O   0  0  0  0  0  0  0  0  0  0  0  0
   -2.3354    0.8967    1.1695 C   0  0  0  0  0  0  0  0  0  0  0  0
   -2.9931    0.1890    2.1037 N   0  0  0  0  0  0  0  0  0  0  0  0
   -2.7907    0.8642    3.2955 O   0  0  0  0  0  0  0  0  0  0  0  0
   -2.0229    1.9579    3.0700 C   0  0  0  0  0  0  0  0  0  0  0  0
   -1.7045    2.0285    1.7402 C   0  0  0  0  0  0  0  0  0  0  0  0
   -4.4631    0.1357   -0.4908 H   0  0  0  0  0  0  0  0  0  0  0  0
   -3.6159    0.4212   -2.0139 H   0  0  0  0  0  0  0  0  0  0  0  0
   -3.9303    1.7717   -0.9092 H   0  0  0  0  0  0  0  0  0  0  0  0
   -1.5412    1.0280   -0.7988 H   0  0  0  0  0  0  0  0  0  0  0  0
   -2.4384   -1.5502    0.3383 H   0  0  0  0  0  0  0  0  0  0  0  0
   -1.1482   -3.1631   -0.2962 H   0  0  0  0  0  0  0  0  0  0  0  0
   -0.3040   -3.0634   -3.1671 H   0  0  0  0  0  0  0  0  0  0  0  0
   -0.6257   -4.5482   -2.2613 H   0  0  0  0  0  0  0  0  0  0  0  0
    1.8154   -4.1399   -2.4446 H   0  0  0  0  0  0  0  0  0  0  0  0
    1.2790   -4.1388   -0.7672 H   0  0  0  0  0  0  0  0  0  0  0  0
    1.5412   -0.1039    1.6988 H   0  0  0  0  0  0  0  0  0  0  0  0
    1.7269    1.8663    3.1673 H   0  0  0  0  0  0  0  0  0  0  0  0
    3.6850    4.0458    0.0109 H   0  0  0  0  0  0  0  0  0  0  0  0
    3.5149    2.0792   -1.4637 H   0  0  0  0  0  0  0  0  0  0  0  0
   -1.8005    2.5616    3.9370 H   0  0  0  0  0  0  0  0  0  0  0  0
   -1.1022    2.7786    1.2492 H   0  0  0  0  0  0  0  0  0  0  0  0
  1  2  1  0
  2  3  1  0
  3  4  1  0
  4  5  2  0
  4  6  1  0
  6  7  1  0
  7  8  1  0
  8  9  1  0
  9 10  2  0
 10 11  1  0
 11 12  1  0
 12 13  1  0
 13 14  2  0
 14 15  1  0
 15 16  1  0
 15 17  2  0
 17 18  1  0
 11 19  2  0
 19 20  1  0
  2 21  1  0
 21 22  2  0
 22 23  1  0
 23 24  1  0
 24 25  2  0
 20  9  1  0
 25 21  1  0
 18 12  2  0
  1 26  1  0
  1 27  1  0
  1 28  1  0
  2 29  1  0
  3 30  1  0
  6 31  1  0
  7 32  1  0
  7 33  1  0
  8 34  1  0
  8 35  1  0
 13 36  1  0
 14 37  1  0
 17 38  1  0
 18 39  1  0
 24 40  1  0
 25 41  1  0
M  END
$$$$
OCNT-2311287
     RDKit          3D

 37 40  0  0  0  0  0  0  0  0999 V2000
    5.4946    0.2029   -0.3770 C   0  0  0  0  0  0  0  0  0  0  0  0
    4.2318   -0.3598    0.1905 C   0  0  0  0  0  0  0  0  0  0  0  0
    2.9232   -0.1262   -0.2120 C   0  0  0  0  0  0  0  0  0  0  0  0
    2.5316    0.7631   -1.3511 C   0  0  0  0  0  0  0  0  0  0  0  0
    1.9718   -0.8594    0.6102 C   0  0  0  0  0  0  0  0  0  0  0  0
    0.5584   -0.9480    0.6195 C   0  0  0  0  0  0  0  0  0  0  0  0
   -0.2312   -0.1889   -0.2544 N   0  0  0  0  0  0  0  0  0  0  0  0
   -0.7230    1.0738    0.4455 C   0  0  0  0  0  0  0  0  0  0  0  0
   -2.1668    1.1270    0.1673 C   0  0  0  0  0  0  0  0  0  0  0  0
   -2.5433    0.0122   -0.5179 C   0  0  0  0  0  0  0  0  0  0  0  0
   -1.4430   -0.9226   -0.7874 C   0  0  0  0  0  0  0  0  0  0  0  0
   -3.8628    0.1075   -0.7534 N   0  0  0  0  0  0  0  0  0  0  0  0
   -4.7244   -0.8174   -1.4413 C   0  0  0  0  0  0  0  0  0  0  0  0
   -4.3744    1.2581   -0.2404 N   0  0  0  0  0  0  0  0  0  0  0  0
   -3.3252    1.8755    0.3190 C   0  0  0  0  0  0  0  0  0  0  0  0
   -3.4078    3.0541    0.9466 N   0  0  0  0  0  0  0  0  0  0  0  0
   -0.0314   -1.7647    1.5253 N   0  0  0  0  0  0  0  0  0  0  0  0
    0.7376   -2.4512    2.3822 C   0  0  0  0  0  0  0  0  0  0  0  0
    2.0664   -2.4363    2.4718 N   0  0  0  0  0  0  0  0  0  0  0  0
    2.6279   -1.6249    1.5607 C   0  0  0  0  0  0  0  0  0  0  0  0
    4.3164   -1.4541    1.4998 S   0  0  0  0  0  0  0  0  0  0  0  0
    6.3764   -0.0674    0.2132 H   0  0  0  0  0  0  0  0  0  0  0  0
    5.6461   -0.1663   -1.3967 H   0  0  0  0  0  0  0  0  0  0  0  0
    5.4415    1.2962   -0.4097 H   0  0  0  0  0  0  0  0  0  0  0  0
    2.0434    1.6674   -0.9757 H   0  0  0  0  0  0  0  0  0  0  0  0
    1.8485    0.2442   -2.0308 H   0  0  0  0  0  0  0  0  0  0  0  0
    3.3986    1.0741   -1.9420 H   0  0  0  0  0  0  0  0  0  0  0  0
   -0.5409    1.0526    1.5271 H   0  0  0  0  0  0  0  0  0  0  0  0
   -0.2071    1.9369    0.0132 H   0  0  0  0  0  0  0  0  0  0  0  0
   -1.3082   -1.0751   -1.8630 H   0  0  0  0  0  0  0  0  0  0  0  0
   -1.6216   -1.8929   -0.3131 H   0  0  0  0  0  0  0  0  0  0  0  0
   -4.1414   -1.6778   -1.7786 H   0  0  0  0  0  0  0  0  0  0  0  0
   -5.5039   -1.1443   -0.7488 H   0  0  0  0  0  0  0  0  0  0  0  0
   -5.1646   -0.3058   -2.3008 H   0  0  0  0  0  0  0  0  0  0  0  0
   -4.3538    3.3553    1.1576 H   0  0  0  0  0  0  0  0  0  0  0  0
   -2.7546    3.2729    1.6875 H   0  0  0  0  0  0  0  0  0  0  0  0
    0.2150   -3.0907    3.0866 H   0  0  0  0  0  0  0  0  0  0  0  0
  1  2  1  0
  2  3  2  0
  3  4  1  0
  3  5  1  0
  5  6  2  0
  6  7  1  0
  7  8  1  0
  8  9  1  0
  9 10  2  0
 10 11  1  0
 10 12  1  0
 12 13  1  0
 12 14  1  0
 14 15  2  0
 15 16  1  0
  6 17  1  0
 17 18  2  0
 18 19  1  0
 19 20  2  0
 20 21  1  0
 21  2  1  0
 20  5  1  0
 11  7  1  0
 15  9  1  0
  1 22  1  0
  1 23  1  0
  1 24  1  0
  4 25  1  0
  4 26  1  0
  4 27  1  0
  8 28  1  0
  8 29  1  0
 11 30  1  0
 11 31  1  0
 13 32  1  0
 13 33  1  0
 13 34  1  0
 16 35  1  0
 16 36  1  0
 18 37  1  0
M  END
$$$$
OCNT-2311309
     RDKit          3D

 45 48  0  0  0  0  0  0  0  0999 V2000
    4.2478   -0.4478    2.3297 C   0  0  0  0  0  0  0  0  0  0  0  0
    2.8985   -0.0140    1.7542 C   0  0  0  0  0  0  0  0  0  0  0  0
    2.7240    1.4250    1.9172 N   0  0  0  0  0  0  0  0  0  0  0  0
    3.1846    2.3556    1.0310 C   0  0  0  0  0  0  0  0  0  0  0  0
    3.3301    3.5223    1.3853 O   0  0  0  0  0  0  0  0  0  0  0  0
    3.3701    1.9268   -0.4094 C   0  0  0  0  0  0  0  0  0  0  0  0
    3.6240    0.4375   -0.6148 C   0  0  0  0  0  0  0  0  0  0  0  0
    2.7338   -0.4335    0.2747 C   0  0  0  0  0  0  0  0  0  0  0  0
    1.3356   -0.3414   -0.1472 N   0  0  0  0  0  0  0  0  0  0  0  0
    0.4209   -1.3069    0.2188 C   0  0  0  0  0  0  0  0  0  0  0  0
    0.7179   -2.3496    0.7855 O   0  0  0  0  0  0  0  0  0  0  0  0
   -0.9899   -0.9945   -0.1047 C   0  0  0  0  0  0  0  0  0  0  0  0
   -1.5096    0.2129    0.3665 C   0  0  0  0  0  0  0  0  0  0  0  0
   -2.8270    0.5356    0.0835 C   0  0  0  0  0  0  0  0  0  0  0  0
   -3.4315    1.8252    0.5837 C   0  0  0  0  0  0  0  0  0  0  0  0
   -4.2460    2.6879   -0.3530 C   0  0  0  0  0  0  0  0  0  0  0  0
   -2.8964    3.1550    0.1018 C   0  0  0  0  0  0  0  0  0  0  0  0
   -3.6072   -0.3099   -0.6318 N   0  0  0  0  0  0  0  0  0  0  0  0
   -3.1166   -1.4788   -1.0752 C   0  0  0  0  0  0  0  0  0  0  0  0
   -3.9610   -2.3102   -1.8020 C   0  0  0  0  0  0  0  0  0  0  0  0
   -3.5312   -3.5387   -2.3069 C   0  0  0  0  0  0  0  0  0  0  0  0
   -2.2279   -3.9416   -2.0782 C   0  0  0  0  0  0  0  0  0  0  0  0
   -1.8023   -5.1154   -2.5605 F   0  0  0  0  0  0  0  0  0  0  0  0
   -1.3569   -3.1373   -1.3560 C   0  0  0  0  0  0  0  0  0  0  0  0
   -1.7913   -1.8909   -0.8400 C   0  0  0  0  0  0  0  0  0  0  0  0
    4.3913   -1.5273    2.2185 H   0  0  0  0  0  0  0  0  0  0  0  0
    5.0870    0.0645    1.8487 H   0  0  0  0  0  0  0  0  0  0  0  0
    4.2993   -0.2104    3.3984 H   0  0  0  0  0  0  0  0  0  0  0  0
    2.1137   -0.4789    2.3628 H   0  0  0  0  0  0  0  0  0  0  0  0
    2.6317    1.7847    2.8608 H   0  0  0  0  0  0  0  0  0  0  0  0
    4.2092    2.4927   -0.8299 H   0  0  0  0  0  0  0  0  0  0  0  0
    2.4667    2.2295   -0.9516 H   0  0  0  0  0  0  0  0  0  0  0  0
    3.4692    0.1873   -1.6715 H   0  0  0  0  0  0  0  0  0  0  0  0
    4.6774    0.2228   -0.3997 H   0  0  0  0  0  0  0  0  0  0  0  0
    3.0321   -1.4832    0.1603 H   0  0  0  0  0  0  0  0  0  0  0  0
    0.9949    0.5372   -0.5162 H   0  0  0  0  0  0  0  0  0  0  0  0
   -0.9061    0.8886    0.9649 H   0  0  0  0  0  0  0  0  0  0  0  0
   -3.7860    1.7905    1.6116 H   0  0  0  0  0  0  0  0  0  0  0  0
   -4.3576    2.3670   -1.3832 H   0  0  0  0  0  0  0  0  0  0  0  0
   -5.1235    3.1789    0.0514 H   0  0  0  0  0  0  0  0  0  0  0  0
   -2.1010    3.1708   -0.6344 H   0  0  0  0  0  0  0  0  0  0  0  0
   -2.8565    3.9723    0.8131 H   0  0  0  0  0  0  0  0  0  0  0  0
   -4.9856   -1.9900   -1.9807 H   0  0  0  0  0  0  0  0  0  0  0  0
   -4.2053   -4.1741   -2.8719 H   0  0  0  0  0  0  0  0  0  0  0  0
   -0.3433   -3.4960   -1.1964 H   0  0  0  0  0  0  0  0  0  0  0  0
  1  2  1  0
  2  3  1  0
  3  4  1  0
  4  5  2  0
  4  6  1  0
  6  7  1  0
  7  8  1  0
  8  9  1  0
  9 10  1  0
 10 11  2  0
 10 12  1  0
 12 13  2  0
 13 14  1  0
 14 15  1  0
 15 16  1  0
 16 17  1  0
 14 18  2  0
 18 19  1  0
 19 20  2  0
 20 21  1  0
 21 22  2  0
 22 23  1  0
 22 24  1  0
 24 25  2  0
  8  2  1  0
 25 12  1  0
 17 15  1  0
 25 19  1  0
  1 26  1  0
  1 27  1  0
  1 28  1  0
  2 29  1  0
  3 30  1  0
  6 31  1  0
  6 32  1  0
  7 33  1  0
  7 34  1  0
  8 35  1  0
  9 36  1  0
 13 37  1  0
 15 38  1  0
 16 39  1  0
 16 40  1  0
 17 41  1  0
 17 42  1  0
 20 43  1  0
 21 44  1  0
 24 45  1  0
M  END
$$$$
OCNT-2311313
     RDKit          3D

 48 51  0  0  0  0  0  0  0  0999 V2000
   -2.4670    0.5891   -3.1177 C   0  0  0  0  0  0  0  0  0  0  0  0
   -2.7307    1.2617   -1.7786 C   0  0  0  0  0  0  0  0  0  0  0  0
   -3.6204    0.4231   -0.8847 C   0  0  0  0  0  0  0  0  0  0  0  0
   -5.0034    0.6815   -0.8786 C   0  0  0  0  0  0  0  0  0  0  0  0
   -5.8591   -0.0694   -0.0790 C   0  0  0  0  0  0  0  0  0  0  0  0
   -5.3415   -1.0839    0.7215 C   0  0  0  0  0  0  0  0  0  0  0  0
   -3.9646   -1.3548    0.7219 C   0  0  0  0  0  0  0  0  0  0  0  0
   -3.4362   -2.3730    1.5298 C   0  0  0  0  0  0  0  0  0  0  0  0
   -2.0725   -2.6312    1.5168 C   0  0  0  0  0  0  0  0  0  0  0  0
   -1.2841   -1.8584    0.6840 C   0  0  0  0  0  0  0  0  0  0  0  0
    0.1938   -2.0959    0.6169 C   0  0  0  0  0  0  0  0  0  0  0  0
    0.7548   -2.8949    1.3588 O   0  0  0  0  0  0  0  0  0  0  0  0
    0.8397   -1.3397   -0.3406 N   0  0  0  0  0  0  0  0  0  0  0  0
    2.2720   -1.3700   -0.5441 C   0  0  0  0  0  0  0  0  0  0  0  0
    3.0036   -0.1436    0.0374 C   0  0  0  0  0  0  0  0  0  0  0  0
    2.8381   -0.0123    1.5741 C   0  0  0  0  0  0  0  0  0  0  0  0
    3.6004    1.1837    2.1732 C   0  0  0  0  0  0  0  0  0  0  0  0
    3.5947    2.4334    1.2769 C   0  0  0  0  0  0  0  0  0  0  0  0
    3.7123    2.0904   -0.2138 C   0  0  0  0  0  0  0  0  0  0  0  0
    2.5526    1.1723   -0.6130 C   0  0  0  0  0  0  0  0  0  0  0  0
    4.8939    1.1602   -0.4326 C   0  0  0  0  0  0  0  0  0  0  0  0
    6.0591    1.4738   -0.5890 O   0  0  0  0  0  0  0  0  0  0  0  0
    4.4111   -0.1385   -0.3249 N   0  0  0  0  0  0  0  0  0  0  0  0
   -1.7591   -0.8586   -0.1132 N   0  0  0  0  0  0  0  0  0  0  0  0
   -3.0821   -0.6034   -0.0932 C   0  0  0  0  0  0  0  0  0  0  0  0
   -1.8411    1.2301   -3.7460 H   0  0  0  0  0  0  0  0  0  0  0  0
   -1.9500   -0.3685   -2.9938 H   0  0  0  0  0  0  0  0  0  0  0  0
   -3.4011    0.3978   -3.6542 H   0  0  0  0  0  0  0  0  0  0  0  0
   -3.1979    2.2401   -1.9502 H   0  0  0  0  0  0  0  0  0  0  0  0
   -1.7821    1.4771   -1.2708 H   0  0  0  0  0  0  0  0  0  0  0  0
   -5.4161    1.4750   -1.5016 H   0  0  0  0  0  0  0  0  0  0  0  0
   -6.9264    0.1366   -0.0788 H   0  0  0  0  0  0  0  0  0  0  0  0
   -6.0208   -1.6648    1.3436 H   0  0  0  0  0  0  0  0  0  0  0  0
   -4.0824   -2.9676    2.1722 H   0  0  0  0  0  0  0  0  0  0  0  0
   -1.6407   -3.4140    2.1320 H   0  0  0  0  0  0  0  0  0  0  0  0
    0.2511   -0.7053   -0.8782 H   0  0  0  0  0  0  0  0  0  0  0  0
    2.4306   -1.4285   -1.6287 H   0  0  0  0  0  0  0  0  0  0  0  0
    2.6867   -2.2904   -0.1129 H   0  0  0  0  0  0  0  0  0  0  0  0
    1.7755    0.1071    1.8196 H   0  0  0  0  0  0  0  0  0  0  0  0
    3.1774   -0.9304    2.0718 H   0  0  0  0  0  0  0  0  0  0  0  0
    3.1965    1.4308    3.1626 H   0  0  0  0  0  0  0  0  0  0  0  0
    4.6419    0.8800    2.3429 H   0  0  0  0  0  0  0  0  0  0  0  0
    2.6642    2.9908    1.4436 H   0  0  0  0  0  0  0  0  0  0  0  0
    4.4173    3.0921    1.5794 H   0  0  0  0  0  0  0  0  0  0  0  0
    3.7702    2.9772   -0.8524 H   0  0  0  0  0  0  0  0  0  0  0  0
    2.5068    1.0770   -1.7079 H   0  0  0  0  0  0  0  0  0  0  0  0
    1.5786    1.5293   -0.2602 H   0  0  0  0  0  0  0  0  0  0  0  0
    5.0566   -0.9127   -0.2280 H   0  0  0  0  0  0  0  0  0  0  0  0
  1  2  1  0
  2  3  1  0
  3  4  1  0
  4  5  2  0
  5  6  1  0
  6  7  2  0
  7  8  1  0
  8  9  2  0
  9 10  1  0
 10 11  1  0
 11 12  2  0
 11 13  1  0
 13 14  1  0
 14 15  1  0
 15 16  1  0
 16 17  1  0
 17 18  1  0
 18 19  1  0
 19 20  1  0
 19 21  1  0
 21 22  2  0
 21 23  1  0
 10 24  2  0
 24 25  1  0
 25  3  2  0
 25  7  1  0
 20 15  1  0
 23 15  1  0
  1 26  1  0
  1 27  1  0
  1 28  1  0
  2 29  1  0
  2 30  1  0
  4 31  1  0
  5 32  1  0
  6 33  1  0
  8 34  1  0
  9 35  1  0
 13 36  1  0
 14 37  1  0
 14 38  1  0
 16 39  1  0
 16 40  1  0
 17 41  1  0
 17 42  1  0
 18 43  1  0
 18 44  1  0
 19 45  1  0
 20 46  1  0
 20 47  1  0
 23 48  1  0
M  END
$$$$
OCNT-2311331
     RDKit          3D

 37 39  0  0  0  0  0  0  0  0999 V2000
   -3.3672    2.0297   -0.3306 C   0  0  0  0  0  0  0  0  0  0  0  0
   -2.6559    0.8400    0.0040 O   0  0  0  0  0  0  0  0  0  0  0  0
   -3.3857   -0.2611    0.3810 C   0  0  0  0  0  0  0  0  0  0  0  0
   -4.7792   -0.2296    0.5593 C   0  0  0  0  0  0  0  0  0  0  0  0
   -5.4753   -1.3773    0.9433 C   0  0  0  0  0  0  0  0  0  0  0  0
   -4.7846   -2.5597    1.1525 C   0  0  0  0  0  0  0  0  0  0  0  0
   -5.4552   -3.6580    1.5215 F   0  0  0  0  0  0  0  0  0  0  0  0
   -3.4088   -2.6179    0.9879 C   0  0  0  0  0  0  0  0  0  0  0  0
   -2.6877   -1.4723    0.6029 C   0  0  0  0  0  0  0  0  0  0  0  0
   -1.1991   -1.6534    0.4562 C   0  0  0  0  0  0  0  0  0  0  0  0
   -0.7282   -2.7759    0.6125 O   0  0  0  0  0  0  0  0  0  0  0  0
   -0.4592   -0.5274    0.1605 N   0  0  0  0  0  0  0  0  0  0  0  0
    0.9354   -0.4430   -0.0257 C   0  0  0  0  0  0  0  0  0  0  0  0
    1.8243   -1.5093    0.0528 C   0  0  0  0  0  0  0  0  0  0  0  0
    3.1664   -1.3986   -0.1304 N   0  0  0  0  0  0  0  0  0  0  0  0
    3.6582   -0.1686   -0.4042 C   0  0  0  0  0  0  0  0  0  0  0  0
    5.1371   -0.0606   -0.6518 C   0  0  0  0  0  0  0  0  0  0  0  0
    5.6027    1.3726   -0.4436 C   0  0  0  0  0  0  0  0  0  0  0  0
    4.8081    2.2532   -1.2422 O   0  0  0  0  0  0  0  0  0  0  0  0
    3.4583    2.3150   -0.7698 C   0  0  0  0  0  0  0  0  0  0  0  0
    2.8521    0.9631   -0.5123 C   0  0  0  0  0  0  0  0  0  0  0  0
    1.4745    0.8137   -0.3108 C   0  0  0  0  0  0  0  0  0  0  0  0
   -4.0644    1.8551   -1.1568 H   0  0  0  0  0  0  0  0  0  0  0  0
   -2.6348    2.7713   -0.6648 H   0  0  0  0  0  0  0  0  0  0  0  0
   -3.8783    2.4391    0.5467 H   0  0  0  0  0  0  0  0  0  0  0  0
   -5.3598    0.6757    0.4104 H   0  0  0  0  0  0  0  0  0  0  0  0
   -6.5523   -1.3546    1.0810 H   0  0  0  0  0  0  0  0  0  0  0  0
   -2.9053   -3.5657    1.1642 H   0  0  0  0  0  0  0  0  0  0  0  0
   -0.9836    0.3355    0.0589 H   0  0  0  0  0  0  0  0  0  0  0  0
    1.5017   -2.5223    0.2675 H   0  0  0  0  0  0  0  0  0  0  0  0
    5.6879   -0.7376    0.0097 H   0  0  0  0  0  0  0  0  0  0  0  0
    5.3215   -0.3640   -1.6891 H   0  0  0  0  0  0  0  0  0  0  0  0
    6.6445    1.4760   -0.7633 H   0  0  0  0  0  0  0  0  0  0  0  0
    5.5463    1.6757    0.6094 H   0  0  0  0  0  0  0  0  0  0  0  0
    2.8773    2.8457   -1.5314 H   0  0  0  0  0  0  0  0  0  0  0  0
    3.4392    2.9096    0.1511 H   0  0  0  0  0  0  0  0  0  0  0  0
    0.8292    1.6856   -0.3771 H   0  0  0  0  0  0  0  0  0  0  0  0
  1  2  1  0
  2  3  1  0
  3  4  1  0
  4  5  2  0
  5  6  1  0
  6  7  1  0
  6  8  2  0
  8  9  1  0
  9 10  1  0
 10 11  2  0
 10 12  1  0
 12 13  1  0
 13 14  1  0
 14 15  2  0
 15 16  1  0
 16 17  1  0
 17 18  1  0
 18 19  1  0
 19 20  1  0
 20 21  1  0
 21 22  1  0
  9  3  2  0
 22 13  2  0
 21 16  2  0
  1 23  1  0
  1 24  1  0
  1 25  1  0
  4 26  1  0
  5 27  1  0
  8 28  1  0
 12 29  1  0
 14 30  1  0
 17 31  1  0
 17 32  1  0
 18 33  1  0
 18 34  1  0
 20 35  1  0
 20 36  1  0
 22 37  1  0
M  END
$$$$
OCNT-2311336
     RDKit          3D

 43 46  0  0  0  0  0  0  0  0999 V2000
    0.5209    1.7813   -0.7651 O   0  0  0  0  0  0  0  0  0  0  0  0
    1.1265    0.9209   -0.1330 C   0  0  0  0  0  0  0  0  0  0  0  0
    0.9611   -0.4285   -0.3782 N   0  0  0  0  0  0  0  0  0  0  0  0
    0.1527   -0.8914   -1.4786 C   0  0  0  0  0  0  0  0  0  0  0  0
   -1.2881   -1.0238   -1.0791 C   0  0  0  0  0  0  0  0  0  0  0  0
   -1.7543   -2.1448   -0.3914 C   0  0  0  0  0  0  0  0  0  0  0  0
   -3.0981   -2.2281   -0.0146 C   0  0  0  0  0  0  0  0  0  0  0  0
   -3.9512   -1.1707   -0.3359 C   0  0  0  0  0  0  0  0  0  0  0  0
   -5.3286   -1.2061    0.0316 N   0  0  0  0  0  0  0  0  0  0  0  0
   -6.2595   -0.2179   -0.2328 C   0  0  0  0  0  0  0  0  0  0  0  0
   -7.4475   -0.6574    0.2991 C   0  0  0  0  0  0  0  0  0  0  0  0
   -7.2908   -1.8859    0.8829 N   0  0  0  0  0  0  0  0  0  0  0  0
   -6.0164   -2.1859    0.7093 C   0  0  0  0  0  0  0  0  0  0  0  0
   -3.5182   -0.0671   -0.9993 N   0  0  0  0  0  0  0  0  0  0  0  0
   -2.2081   -0.0113   -1.3407 C   0  0  0  0  0  0  0  0  0  0  0  0
    2.1690    1.2298    0.9727 C   0  0  0  0  0  0  0  0  0  0  0  0
    1.9674    2.6504    1.5457 C   0  0  0  0  0  0  0  0  0  0  0  0
    3.3515    3.2823    1.5497 C   0  0  0  0  0  0  0  0  0  0  0  0
    4.0531    2.6124    0.3768 C   0  0  0  0  0  0  0  0  0  0  0  0
    3.5453    1.2535    0.4344 N   0  0  0  0  0  0  0  0  0  0  0  0
    4.0872    0.2052   -0.2377 C   0  0  0  0  0  0  0  0  0  0  0  0
    3.6109   -1.0230   -0.1713 N   0  0  0  0  0  0  0  0  0  0  0  0
    4.3548   -1.8825   -0.9602 C   0  0  0  0  0  0  0  0  0  0  0  0
    5.3909   -1.3036   -1.6527 C   0  0  0  0  0  0  0  0  0  0  0  0
    5.4726    0.3563   -1.2744 S   0  0  0  0  0  0  0  0  0  0  0  0
    1.7717   -0.9954   -0.1254 H   0  0  0  0  0  0  0  0  0  0  0  0
    0.2680   -0.2190   -2.3374 H   0  0  0  0  0  0  0  0  0  0  0  0
    0.5433   -1.8715   -1.7877 H   0  0  0  0  0  0  0  0  0  0  0  0
   -1.0749   -2.9570   -0.1375 H   0  0  0  0  0  0  0  0  0  0  0  0
   -3.4286   -3.1130    0.5195 H   0  0  0  0  0  0  0  0  0  0  0  0
   -5.9905    0.6866   -0.7611 H   0  0  0  0  0  0  0  0  0  0  0  0
   -8.4061   -0.1544    0.2915 H   0  0  0  0  0  0  0  0  0  0  0  0
   -5.5610   -3.1003    1.0600 H   0  0  0  0  0  0  0  0  0  0  0  0
   -1.9060    0.9075   -1.8419 H   0  0  0  0  0  0  0  0  0  0  0  0
    2.0829    0.4900    1.7767 H   0  0  0  0  0  0  0  0  0  0  0  0
    1.2908    3.2612    0.9399 H   0  0  0  0  0  0  0  0  0  0  0  0
    1.5442    2.6183    2.5559 H   0  0  0  0  0  0  0  0  0  0  0  0
    3.8662    3.0416    2.4853 H   0  0  0  0  0  0  0  0  0  0  0  0
    3.3193    4.3700    1.4531 H   0  0  0  0  0  0  0  0  0  0  0  0
    3.7703    3.0816   -0.5736 H   0  0  0  0  0  0  0  0  0  0  0  0
    5.1387    2.6750    0.5025 H   0  0  0  0  0  0  0  0  0  0  0  0
    4.0819   -2.9318   -1.0039 H   0  0  0  0  0  0  0  0  0  0  0  0
    6.0868   -1.7536   -2.3455 H   0  0  0  0  0  0  0  0  0  0  0  0
  1  2  2  0
  2  3  1  0
  3  4  1  0
  4  5  1  0
  5  6  2  0
  6  7  1  0
  7  8  2  0
  8  9  1  0
  9 10  1  0
 10 11  2  0
 11 12  1  0
 12 13  2  0
  8 14  1  0
 14 15  2  0
  2 16  1  0
 16 17  1  0
 17 18  1  0
 18 19  1  0
 19 20  1  0
 20 21  1  0
 21 22  2  0
 22 23  1  0
 23 24  2  0
 24 25  1  0
 15  5  1  0
 20 16  1  0
 25 21  1  0
 13  9  1  0
  3 26  1  0
  4 27  1  0
  4 28  1  0
  6 29  1  0
  7 30  1  0
 10 31  1  0
 11 32  1  0
 13 33  1  0
 15 34  1  0
 16 35  1  0
 17 36  1  0
 17 37  1  0
 18 38  1  0
 18 39  1  0
 19 40  1  0
 19 41  1  0
 23 42  1  0
 24 43  1  0
M  END
$$$$
OCNT-2311338
     RDKit          3D

 39 41  0  0  0  0  0  0  0  0999 V2000
   -1.2081   -1.6250   -2.1456 C   0  0  0  0  0  0  0  0  0  0  0  0
   -2.2101   -0.9995   -1.2109 C   0  0  0  0  0  0  0  0  0  0  0  0
   -3.5613   -1.3642   -1.3484 C   0  0  0  0  0  0  0  0  0  0  0  0
   -4.5369   -0.8203   -0.5148 C   0  0  0  0  0  0  0  0  0  0  0  0
   -4.1703    0.0967    0.4715 C   0  0  0  0  0  0  0  0  0  0  0  0
   -5.1785    0.6771    1.3952 C   0  0  0  0  0  0  0  0  0  0  0  0
   -6.4457    0.8414    0.9051 N   0  0  0  0  0  0  0  0  0  0  0  0
   -4.8955    1.0221    2.5340 O   0  0  0  0  0  0  0  0  0  0  0  0
   -2.8259    0.4602    0.6261 C   0  0  0  0  0  0  0  0  0  0  0  0
   -1.8378   -0.0683   -0.2143 C   0  0  0  0  0  0  0  0  0  0  0  0
   -0.4708    0.2775   -0.0833 N   0  0  0  0  0  0  0  0  0  0  0  0
    0.0699    1.2907    0.6881 C   0  0  0  0  0  0  0  0  0  0  0  0
   -0.5408    2.1515    1.3080 O   0  0  0  0  0  0  0  0  0  0  0  0
    1.5564    1.3489    0.6906 C   0  0  0  0  0  0  0  0  0  0  0  0
    2.1729    2.5936    0.7550 C   0  0  0  0  0  0  0  0  0  0  0  0
    3.5504    2.6241    0.7551 C   0  0  0  0  0  0  0  0  0  0  0  0
    4.3240    1.5175    0.7012 N   0  0  0  0  0  0  0  0  0  0  0  0
    3.7244    0.3014    0.6636 C   0  0  0  0  0  0  0  0  0  0  0  0
    4.5960   -0.9317    0.6480 C   0  0  0  0  0  0  0  0  0  0  0  0
    4.5772   -1.8634   -0.5430 C   0  0  0  0  0  0  0  0  0  0  0  0
    5.7797   -1.0054   -0.2894 C   0  0  0  0  0  0  0  0  0  0  0  0
    2.3357    0.1899    0.6639 C   0  0  0  0  0  0  0  0  0  0  0  0
   -1.6886   -2.3004   -2.8616 H   0  0  0  0  0  0  0  0  0  0  0  0
   -0.4772   -2.2124   -1.5805 H   0  0  0  0  0  0  0  0  0  0  0  0
   -0.6923   -0.8512   -2.7234 H   0  0  0  0  0  0  0  0  0  0  0  0
   -3.8626   -2.0859   -2.1057 H   0  0  0  0  0  0  0  0  0  0  0  0
   -5.5683   -1.1437   -0.6234 H   0  0  0  0  0  0  0  0  0  0  0  0
   -7.0715    1.3723    1.4982 H   0  0  0  0  0  0  0  0  0  0  0  0
   -6.6248    0.8605   -0.0886 H   0  0  0  0  0  0  0  0  0  0  0  0
   -2.5773    1.1547    1.4245 H   0  0  0  0  0  0  0  0  0  0  0  0
    0.1701   -0.2085   -0.6938 H   0  0  0  0  0  0  0  0  0  0  0  0
    1.5955    3.5109    0.8044 H   0  0  0  0  0  0  0  0  0  0  0  0
    4.0913    3.5652    0.8014 H   0  0  0  0  0  0  0  0  0  0  0  0
    4.7444   -1.3927    1.6220 H   0  0  0  0  0  0  0  0  0  0  0  0
    3.9615   -1.6145   -1.3996 H   0  0  0  0  0  0  0  0  0  0  0  0
    4.6665   -2.9272   -0.3544 H   0  0  0  0  0  0  0  0  0  0  0  0
    6.6825   -1.4788    0.0786 H   0  0  0  0  0  0  0  0  0  0  0  0
    5.9626   -0.1668   -0.9528 H   0  0  0  0  0  0  0  0  0  0  0  0
    1.8833   -0.7961    0.6738 H   0  0  0  0  0  0  0  0  0  0  0  0
  1  2  1  0
  2  3  1  0
  3  4  2  0
  4  5  1  0
  5  6  1  0
  6  7  1  0
  6  8  2  0
  5  9  2  0
  9 10  1  0
 10 11  1  0
 11 12  1  0
 12 13  2  0
 12 14  1  0
 14 15  2  0
 15 16  1  0
 16 17  2  0
 17 18  1  0
 18 19  1  0
 19 20  1  0
 20 21  1  0
 18 22  2  0
 10  2  2  0
 22 14  1  0
 21 19  1  0
  1 23  1  0
  1 24  1  0
  1 25  1  0
  3 26  1  0
  4 27  1  0
  7 28  1  0
  7 29  1  0
  9 30  1  0
 11 31  1  0
 15 32  1  0
 16 33  1  0
 19 34  1  0
 20 35  1  0
 20 36  1  0
 21 37  1  0
 21 38  1  0
 22 39  1  0
M  END
$$$$
OCNT-2311340
     RDKit          3D

 53 56  0  0  0  0  0  0  0  0999 V2000
   -3.5474   -2.9001    0.9421 N   0  0  0  0  0  0  0  0  0  0  0  0
   -2.9570   -1.6756    0.7529 C   0  0  0  0  0  0  0  0  0  0  0  0
   -2.1033   -1.2906    1.5486 O   0  0  0  0  0  0  0  0  0  0  0  0
   -3.4605   -0.8843   -0.4864 C   0  0  0  0  0  0  0  0  0  0  0  0
   -4.7425   -0.0933   -0.2253 C   0  0  0  0  0  0  0  0  0  0  0  0
   -5.1321    0.3244    1.0578 C   0  0  0  0  0  0  0  0  0  0  0  0
   -6.3140    1.0459    1.2449 C   0  0  0  0  0  0  0  0  0  0  0  0
   -7.1191    1.3671    0.1546 C   0  0  0  0  0  0  0  0  0  0  0  0
   -6.7406    0.9753   -1.1266 C   0  0  0  0  0  0  0  0  0  0  0  0
   -5.5602    0.2546   -1.3158 C   0  0  0  0  0  0  0  0  0  0  0  0
   -2.4115   -0.0578   -1.1264 N   0  0  0  0  0  0  0  0  0  0  0  0
   -1.3668   -0.8611   -1.7795 C   0  0  0  0  0  0  0  0  0  0  0  0
   -0.1999    0.0034   -2.2845 C   0  0  0  0  0  0  0  0  0  0  0  0
    0.4610    0.7206   -1.1968 N   0  0  0  0  0  0  0  0  0  0  0  0
    1.7535    1.1617   -1.3956 C   0  0  0  0  0  0  0  0  0  0  0  0
    2.3213    1.0811   -2.4820 O   0  0  0  0  0  0  0  0  0  0  0  0
    2.3529    1.7001   -0.2882 N   0  0  0  0  0  0  0  0  0  0  0  0
    3.7289    2.1419   -0.3255 C   0  0  0  0  0  0  0  0  0  0  0  0
    4.6620    1.0649    0.1752 C   0  0  0  0  0  0  0  0  0  0  0  0
    5.0835    1.0566    1.5160 C   0  0  0  0  0  0  0  0  0  0  0  0
    5.9318    0.0590    2.0122 C   0  0  0  0  0  0  0  0  0  0  0  0
    6.3270   -0.9257    1.1114 C   0  0  0  0  0  0  0  0  0  0  0  0
    7.1439   -1.9779    1.3964 O   0  0  0  0  0  0  0  0  0  0  0  0
    7.2734   -2.6980    0.2513 C   0  0  0  0  0  0  0  0  0  0  0  0
    6.5496   -2.1233   -0.7682 C   0  0  0  0  0  0  0  0  0  0  0  0
    5.9322   -0.9686   -0.2198 C   0  0  0  0  0  0  0  0  0  0  0  0
    5.0812    0.0420   -0.7007 C   0  0  0  0  0  0  0  0  0  0  0  0
   -0.3524    0.9715   -0.0018 C   0  0  0  0  0  0  0  0  0  0  0  0
   -1.8665    1.0351   -0.3006 C   0  0  0  0  0  0  0  0  0  0  0  0
   -4.4558   -3.0971    0.5413 H   0  0  0  0  0  0  0  0  0  0  0  0
   -3.3116   -3.3735    1.8056 H   0  0  0  0  0  0  0  0  0  0  0  0
   -3.7475   -1.6547   -1.2191 H   0  0  0  0  0  0  0  0  0  0  0  0
   -4.5172    0.1077    1.9291 H   0  0  0  0  0  0  0  0  0  0  0  0
   -6.6020    1.3642    2.2438 H   0  0  0  0  0  0  0  0  0  0  0  0
   -8.0354    1.9325    0.3023 H   0  0  0  0  0  0  0  0  0  0  0  0
   -7.3598    1.2368   -1.9806 H   0  0  0  0  0  0  0  0  0  0  0  0
   -5.2690   -0.0283   -2.3259 H   0  0  0  0  0  0  0  0  0  0  0  0
   -0.9660   -1.6156   -1.0908 H   0  0  0  0  0  0  0  0  0  0  0  0
   -1.8026   -1.3938   -2.6326 H   0  0  0  0  0  0  0  0  0  0  0  0
    0.5313   -0.6271   -2.8031 H   0  0  0  0  0  0  0  0  0  0  0  0
   -0.5578    0.7516   -3.0025 H   0  0  0  0  0  0  0  0  0  0  0  0
    2.0440    1.3180    0.5910 H   0  0  0  0  0  0  0  0  0  0  0  0
    4.0137    2.4554   -1.3363 H   0  0  0  0  0  0  0  0  0  0  0  0
    3.7983    3.0270    0.3165 H   0  0  0  0  0  0  0  0  0  0  0  0
    4.7517    1.8401    2.1954 H   0  0  0  0  0  0  0  0  0  0  0  0
    6.2653    0.0454    3.0424 H   0  0  0  0  0  0  0  0  0  0  0  0
    7.9006   -3.5756    0.3218 H   0  0  0  0  0  0  0  0  0  0  0  0
    6.4747   -2.4883   -1.7823 H   0  0  0  0  0  0  0  0  0  0  0  0
    4.7453    0.0315   -1.7355 H   0  0  0  0  0  0  0  0  0  0  0  0
   -0.1330    0.1615    0.7020 H   0  0  0  0  0  0  0  0  0  0  0  0
   -0.0436    1.9118    0.4668 H   0  0  0  0  0  0  0  0  0  0  0  0
   -2.0493    1.9595   -0.8642 H   0  0  0  0  0  0  0  0  0  0  0  0
   -2.4025    1.1621    0.6458 H   0  0  0  0  0  0  0  0  0  0  0  0
  1  2  1  0
  2  3  2  0
  2  4  1  0
  4  5  1  0
  5  6  2  0
  6  7  1  0
  7  8  2  0
  8  9  1  0
  9 10  2  0
  4 11  1  0
 11 12  1  0
 12 13  1  0
 13 14  1  0
 14 15  1  0
 15 16  2  0
 15 17  1  0
 17 18  1  0
 18 19  1  0
 19 20  2  0
 20 21  1  0
 21 22  2  0
 22 23  1  0
 23 24  1  0
 24 25  2  0
 25 26  1  0
 26 27  2  0
 14 28  1  0
 28 29  1  0
 10  5  1  0
 29 11  1  0
 27 19  1  0
 26 22  1  0
  1 30  1  0
  1 31  1  0
  4 32  1  0
  6 33  1  0
  7 34  1  0
  8 35  1  0
  9 36  1  0
 10 37  1  0
 12 38  1  0
 12 39  1  0
 13 40  1  0
 13 41  1  0
 17 42  1  0
 18 43  1  0
 18 44  1  0
 20 45  1  0
 21 46  1  0
 24 47  1  0
 25 48  1  0
 27 49  1  0
 28 50  1  0
 28 51  1  0
 29 52  1  0
 29 53  1  0
M  END
$$$$
OCNT-2311357
     RDKit          3D

 44 46  0  0  0  0  0  0  0  0999 V2000
    0.2770    0.8767    3.4414 C   0  0  0  0  0  0  0  0  0  0  0  0
   -0.6474    2.0647    3.1981 C   0  0  0  0  0  0  0  0  0  0  0  0
   -2.3984    1.7080    3.5491 S   0  0  0  0  0  0  0  0  0  0  0  0
   -2.9177    0.7757    2.1656 C   0  0  0  0  0  0  0  0  0  0  0  0
   -2.1065   -0.0316    1.5215 N   0  0  0  0  0  0  0  0  0  0  0  0
   -2.8032   -0.6815    0.5141 C   0  0  0  0  0  0  0  0  0  0  0  0
   -2.2727   -1.6488   -0.3626 C   0  0  0  0  0  0  0  0  0  0  0  0
   -3.0852   -2.2119   -1.3514 C   0  0  0  0  0  0  0  0  0  0  0  0
   -4.4162   -1.8258   -1.4728 C   0  0  0  0  0  0  0  0  0  0  0  0
   -4.9695   -0.8751   -0.6095 C   0  0  0  0  0  0  0  0  0  0  0  0
   -4.1443   -0.3179    0.3806 C   0  0  0  0  0  0  0  0  0  0  0  0
   -4.5275    0.8452    1.5889 S   0  0  0  0  0  0  0  0  0  0  0  0
   -0.4833    2.7553    1.8425 C   0  0  0  0  0  0  0  0  0  0  0  0
   -0.6216    3.9720    1.7171 O   0  0  0  0  0  0  0  0  0  0  0  0
   -0.1981    1.9439    0.7703 N   0  0  0  0  0  0  0  0  0  0  0  0
   -0.1294    2.4955   -0.5736 C   0  0  0  0  0  0  0  0  0  0  0  0
    0.4095    1.5363   -1.6281 C   0  0  0  0  0  0  0  0  0  0  0  0
    0.6275    1.8659   -2.7882 O   0  0  0  0  0  0  0  0  0  0  0  0
    0.5849    0.2826   -1.1258 O   0  0  0  0  0  0  0  0  0  0  0  0
    1.1754   -0.6703   -2.0165 C   0  0  0  0  0  0  0  0  0  0  0  0
    2.6056   -0.8923   -1.6037 C   0  0  0  0  0  0  0  0  0  0  0  0
    2.9184   -1.7866   -0.5706 C   0  0  0  0  0  0  0  0  0  0  0  0
    4.2437   -1.9744   -0.1757 C   0  0  0  0  0  0  0  0  0  0  0  0
    5.2660   -1.2651   -0.8034 C   0  0  0  0  0  0  0  0  0  0  0  0
    4.9643   -0.3631   -1.8217 C   0  0  0  0  0  0  0  0  0  0  0  0
    3.6398   -0.1735   -2.2182 C   0  0  0  0  0  0  0  0  0  0  0  0
    0.2237    0.5475    4.4848 H   0  0  0  0  0  0  0  0  0  0  0  0
    0.0543    0.0148    2.8075 H   0  0  0  0  0  0  0  0  0  0  0  0
    1.3166    1.1583    3.2389 H   0  0  0  0  0  0  0  0  0  0  0  0
   -0.3539    2.8224    3.9369 H   0  0  0  0  0  0  0  0  0  0  0  0
   -1.2368   -1.9532   -0.2591 H   0  0  0  0  0  0  0  0  0  0  0  0
   -2.6741   -2.9587   -2.0275 H   0  0  0  0  0  0  0  0  0  0  0  0
   -5.0383   -2.2727   -2.2460 H   0  0  0  0  0  0  0  0  0  0  0  0
   -6.0105   -0.5803   -0.7012 H   0  0  0  0  0  0  0  0  0  0  0  0
   -0.4474    0.9585    0.8502 H   0  0  0  0  0  0  0  0  0  0  0  0
    0.5147    3.3802   -0.5499 H   0  0  0  0  0  0  0  0  0  0  0  0
   -1.1447    2.7877   -0.8599 H   0  0  0  0  0  0  0  0  0  0  0  0
    1.1062   -0.3839   -3.0727 H   0  0  0  0  0  0  0  0  0  0  0  0
    0.6141   -1.6067   -1.9229 H   0  0  0  0  0  0  0  0  0  0  0  0
    2.1303   -2.3383   -0.0633 H   0  0  0  0  0  0  0  0  0  0  0  0
    4.4792   -2.6707    0.6248 H   0  0  0  0  0  0  0  0  0  0  0  0
    6.2978   -1.4109   -0.4945 H   0  0  0  0  0  0  0  0  0  0  0  0
    5.7605    0.1967   -2.3055 H   0  0  0  0  0  0  0  0  0  0  0  0
    3.4172    0.5425   -3.0078 H   0  0  0  0  0  0  0  0  0  0  0  0
  1  2  1  0
  2  3  1  0
  3  4  1  0
  4  5  2  0
  5  6  1  0
  6  7  2  0
  7  8  1  0
  8  9  2  0
  9 10  1  0
 10 11  2  0
 11 12  1  0
  2 13  1  0
 13 14  2  0
 13 15  1  0
 15 16  1  0
 16 17  1  0
 17 18  2  0
 17 19  1  0
 19 20  1  0
 20 21  1  0
 21 22  2  0
 22 23  1  0
 23 24  2  0
 24 25  1  0
 25 26  2  0
 12  4  1  0
 26 21  1  0
 11  6  1  0
  1 27  1  0
  1 28  1  0
  1 29  1  0
  2 30  1  0
  7 31  1  0
  8 32  1  0
  9 33  1  0
 10 34  1  0
 15 35  1  0
 16 36  1  0
 16 37  1  0
 20 38  1  0
 20 39  1  0
 22 40  1  0
 23 41  1  0
 24 42  1  0
 25 43  1  0
 26 44  1  0
M  END
$$$$
OCNT-2311370
     RDKit          3D

 51 54  0  0  0  0  0  0  0  0999 V2000
    0.0177   -1.8835    2.7728 O   0  0  0  0  0  0  0  0  0  0  0  0
   -0.4851   -1.2435    1.8521 C   0  0  0  0  0  0  0  0  0  0  0  0
   -1.4889   -0.1168    2.1031 C   0  0  0  0  0  0  0  0  0  0  0  0
   -2.6343   -0.2048    1.2134 N   0  0  0  0  0  0  0  0  0  0  0  0
   -3.8195   -0.7769    1.5706 C   0  0  0  0  0  0  0  0  0  0  0  0
   -4.1020   -1.2445    2.6624 O   0  0  0  0  0  0  0  0  0  0  0  0
   -4.7404   -0.7702    0.3748 C   0  0  0  0  0  0  0  0  0  0  0  0
   -6.1442   -0.2912    0.7387 C   0  0  0  0  0  0  0  0  0  0  0  0
   -6.8814    0.2084   -0.4975 C   0  0  0  0  0  0  0  0  0  0  0  0
   -6.1565    1.3652   -1.1889 C   0  0  0  0  0  0  0  0  0  0  0  0
   -4.6815    1.4854   -0.8096 C   0  0  0  0  0  0  0  0  0  0  0  0
   -4.0207    0.1207   -0.6438 C   0  0  0  0  0  0  0  0  0  0  0  0
   -2.6392    0.2666   -0.0637 C   0  0  0  0  0  0  0  0  0  0  0  0
   -1.6743    0.7288   -0.6568 O   0  0  0  0  0  0  0  0  0  0  0  0
   -0.1021   -1.3959    0.5345 N   0  0  0  0  0  0  0  0  0  0  0  0
    0.9849   -2.2696    0.1581 C   0  0  0  0  0  0  0  0  0  0  0  0
    2.2828   -1.5082    0.0804 C   0  0  0  0  0  0  0  0  0  0  0  0
    2.6792   -0.8879   -1.1098 C   0  0  0  0  0  0  0  0  0  0  0  0
    3.8727   -0.1604   -1.1676 C   0  0  0  0  0  0  0  0  0  0  0  0
    4.6966   -0.0239   -0.0385 C   0  0  0  0  0  0  0  0  0  0  0  0
    5.9477    0.7449   -0.1019 C   0  0  0  0  0  0  0  0  0  0  0  0
    6.9143    0.5063   -1.0874 C   0  0  0  0  0  0  0  0  0  0  0  0
    8.0909    1.2536   -1.1166 C   0  0  0  0  0  0  0  0  0  0  0  0
    8.2732    2.2295   -0.1525 C   0  0  0  0  0  0  0  0  0  0  0  0
    7.3747    2.5001    0.8159 N   0  0  0  0  0  0  0  0  0  0  0  0
    6.2411    1.7553    0.8160 C   0  0  0  0  0  0  0  0  0  0  0  0
    4.2837   -0.6406    1.1532 C   0  0  0  0  0  0  0  0  0  0  0  0
    3.0920   -1.3698    1.2140 C   0  0  0  0  0  0  0  0  0  0  0  0
   -0.9770    0.8385    1.9442 H   0  0  0  0  0  0  0  0  0  0  0  0
   -1.8270   -0.1763    3.1426 H   0  0  0  0  0  0  0  0  0  0  0  0
   -4.7831   -1.7970   -0.0111 H   0  0  0  0  0  0  0  0  0  0  0  0
   -6.7044   -1.1132    1.2003 H   0  0  0  0  0  0  0  0  0  0  0  0
   -6.1024    0.5077    1.4905 H   0  0  0  0  0  0  0  0  0  0  0  0
   -6.9879   -0.6219   -1.2075 H   0  0  0  0  0  0  0  0  0  0  0  0
   -7.8988    0.5172   -0.2314 H   0  0  0  0  0  0  0  0  0  0  0  0
   -6.2496    1.2400   -2.2747 H   0  0  0  0  0  0  0  0  0  0  0  0
   -6.6583    2.3106   -0.9493 H   0  0  0  0  0  0  0  0  0  0  0  0
   -4.5965    2.0569    0.1248 H   0  0  0  0  0  0  0  0  0  0  0  0
   -4.1522    2.0771   -1.5663 H   0  0  0  0  0  0  0  0  0  0  0  0
   -3.9519   -0.3947   -1.6089 H   0  0  0  0  0  0  0  0  0  0  0  0
   -0.3188   -0.6354   -0.1072 H   0  0  0  0  0  0  0  0  0  0  0  0
    1.0690   -3.1054    0.8620 H   0  0  0  0  0  0  0  0  0  0  0  0
    0.7380   -2.6947   -0.8210 H   0  0  0  0  0  0  0  0  0  0  0  0
    2.0602   -0.9605   -2.0015 H   0  0  0  0  0  0  0  0  0  0  0  0
    4.1477    0.3180   -2.1059 H   0  0  0  0  0  0  0  0  0  0  0  0
    6.7621   -0.2732   -1.8302 H   0  0  0  0  0  0  0  0  0  0  0  0
    8.8476    1.0741   -1.8719 H   0  0  0  0  0  0  0  0  0  0  0  0
    9.1736    2.8366   -0.1325 H   0  0  0  0  0  0  0  0  0  0  0  0
    5.5399    2.0137    1.6062 H   0  0  0  0  0  0  0  0  0  0  0  0
    4.8940   -0.5673    2.0518 H   0  0  0  0  0  0  0  0  0  0  0  0
    2.7943   -1.8280    2.1566 H   0  0  0  0  0  0  0  0  0  0  0  0
  1  2  2  0
  2  3  1  0
  3  4  1  0
  4  5  1  0
  5  6  2  0
  5  7  1  0
  7  8  1  0
  8  9  1  0
  9 10  1  0
 10 11  1  0
 11 12  1  0
 12 13  1  0
 13 14  2  0
  2 15  1  0
 15 16  1  0
 16 17  1  0
 17 18  1  0
 18 19  2  0
 19 20  1  0
 20 21  1  0
 21 22  1  0
 22 23  2  0
 23 24  1  0
 24 25  2  0
 25 26  1  0
 20 27  2  0
 27 28  1  0
 13  4  1  0
 28 17  2  0
 12  7  1  0
 26 21  2  0
  3 29  1  0
  3 30  1  0
  7 31  1  0
  8 32  1  0
  8 33  1  0
  9 34  1  0
  9 35  1  0
 10 36  1  0
 10 37  1  0
 11 38  1  0
 11 39  1  0
 12 40  1  0
 15 41  1  0
 16 42  1  0
 16 43  1  0
 18 44  1  0
 19 45  1  0
 22 46  1  0
 23 47  1  0
 24 48  1  0
 26 49  1  0
 27 50  1  0
 28 51  1  0
M  END
$$$$
OCNT-2311372
     RDKit          3D

 46 48  0  0  0  0  0  0  0  0999 V2000
   -6.7138   -0.9593    2.1711 C   0  0  0  0  0  0  0  0  0  0  0  0
   -5.8582   -0.7406    0.9642 C   0  0  0  0  0  0  0  0  0  0  0  0
   -6.1249   -1.3959   -0.2355 C   0  0  0  0  0  0  0  0  0  0  0  0
   -5.4227   -1.2098   -1.3781 N   0  0  0  0  0  0  0  0  0  0  0  0
   -4.4078   -0.3146   -1.3265 C   0  0  0  0  0  0  0  0  0  0  0  0
   -4.0489    0.3732   -0.1776 C   0  0  0  0  0  0  0  0  0  0  0  0
   -2.9451    1.3496   -0.1821 C   0  0  0  0  0  0  0  0  0  0  0  0
   -3.1761    2.4733    0.2589 O   0  0  0  0  0  0  0  0  0  0  0  0
   -1.7026    0.9681   -0.6740 N   0  0  0  0  0  0  0  0  0  0  0  0
   -1.2644   -0.4189   -0.8838 C   0  0  0  0  0  0  0  0  0  0  0  0
    0.2329   -0.6006   -0.5648 C   0  0  0  0  0  0  0  0  0  0  0  0
    1.1243    0.2628   -1.3688 N   0  0  0  0  0  0  0  0  0  0  0  0
    2.4360    0.4615   -0.7235 C   0  0  0  0  0  0  0  0  0  0  0  0
    3.2294   -0.8423   -0.5274 C   0  0  0  0  0  0  0  0  0  0  0  0
    4.6033   -0.5755    0.0408 C   0  0  0  0  0  0  0  0  0  0  0  0
    4.7956   -0.4920    1.4265 C   0  0  0  0  0  0  0  0  0  0  0  0
    6.0620   -0.2256    1.9492 C   0  0  0  0  0  0  0  0  0  0  0  0
    7.1452   -0.0365    1.0930 C   0  0  0  0  0  0  0  0  0  0  0  0
    6.9633   -0.1124   -0.2866 C   0  0  0  0  0  0  0  0  0  0  0  0
    5.6979   -0.3787   -0.8116 C   0  0  0  0  0  0  0  0  0  0  0  0
    0.4874    1.5584   -1.7014 C   0  0  0  0  0  0  0  0  0  0  0  0
   -0.6548    1.9856   -0.7637 C   0  0  0  0  0  0  0  0  0  0  0  0
   -4.8043    0.1770    0.9789 C   0  0  0  0  0  0  0  0  0  0  0  0
   -7.1047   -1.9820    2.1928 H   0  0  0  0  0  0  0  0  0  0  0  0
   -6.1368   -0.8127    3.0903 H   0  0  0  0  0  0  0  0  0  0  0  0
   -7.5549   -0.2593    2.1669 H   0  0  0  0  0  0  0  0  0  0  0  0
   -6.9430   -2.1076   -0.3186 H   0  0  0  0  0  0  0  0  0  0  0  0
   -3.8884   -0.1579   -2.2673 H   0  0  0  0  0  0  0  0  0  0  0  0
   -1.8522   -1.0967   -0.2570 H   0  0  0  0  0  0  0  0  0  0  0  0
   -1.4563   -0.6676   -1.9339 H   0  0  0  0  0  0  0  0  0  0  0  0
    0.4995   -1.6493   -0.7373 H   0  0  0  0  0  0  0  0  0  0  0  0
    0.3719   -0.3961    0.5056 H   0  0  0  0  0  0  0  0  0  0  0  0
    2.3137    0.9769    0.2387 H   0  0  0  0  0  0  0  0  0  0  0  0
    3.0402    1.1240   -1.3580 H   0  0  0  0  0  0  0  0  0  0  0  0
    2.7002   -1.5275    0.1460 H   0  0  0  0  0  0  0  0  0  0  0  0
    3.3275   -1.3713   -1.4842 H   0  0  0  0  0  0  0  0  0  0  0  0
    3.9599   -0.6349    2.1077 H   0  0  0  0  0  0  0  0  0  0  0  0
    6.2037   -0.1650    3.0251 H   0  0  0  0  0  0  0  0  0  0  0  0
    8.1311    0.1708    1.5007 H   0  0  0  0  0  0  0  0  0  0  0  0
    7.8075    0.0366   -0.9548 H   0  0  0  0  0  0  0  0  0  0  0  0
    5.5706   -0.4316   -1.8907 H   0  0  0  0  0  0  0  0  0  0  0  0
    0.0719    1.4513   -2.7120 H   0  0  0  0  0  0  0  0  0  0  0  0
    1.2247    2.3673   -1.7713 H   0  0  0  0  0  0  0  0  0  0  0  0
   -1.0960    2.9254   -1.1150 H   0  0  0  0  0  0  0  0  0  0  0  0
   -0.2734    2.1584    0.2501 H   0  0  0  0  0  0  0  0  0  0  0  0
   -4.5702    0.7420    1.8783 H   0  0  0  0  0  0  0  0  0  0  0  0
  1  2  1  0
  2  3  2  0
  3  4  1  0
  4  5  2  0
  5  6  1  0
  6  7  1  0
  7  8  2  0
  7  9  1  0
  9 10  1  0
 10 11  1  0
 11 12  1  0
 12 13  1  0
 13 14  1  0
 14 15  1  0
 15 16  2  0
 16 17  1  0
 17 18  2  0
 18 19  1  0
 19 20  2  0
 12 21  1  0
 21 22  1  0
  6 23  2  0
 23  2  1  0
 22  9  1  0
 20 15  1  0
  1 24  1  0
  1 25  1  0
  1 26  1  0
  3 27  1  0
  5 28  1  0
 10 29  1  0
 10 30  1  0
 11 31  1  0
 11 32  1  0
 13 33  1  0
 13 34  1  0
 14 35  1  0
 14 36  1  0
 16 37  1  0
 17 38  1  0
 18 39  1  0
 19 40  1  0
 20 41  1  0
 21 42  1  0
 21 43  1  0
 22 44  1  0
 22 45  1  0
 23 46  1  0
M  END
$$$$
OCNT-2311376
     RDKit          3D

 42 44  0  0  0  0  0  0  0  0999 V2000
   -3.3563    2.5959    0.1868 C   0  0  0  0  0  0  0  0  0  0  0  0
   -3.2210    1.2147    0.8117 C   0  0  0  0  0  0  0  0  0  0  0  0
   -3.0829    0.1849   -0.2376 N   0  0  0  0  0  0  0  0  0  0  0  0
   -4.3294   -0.1870   -0.9142 C   0  0  0  0  0  0  0  0  0  0  0  0
   -2.3672   -0.9351    0.2535 C   0  0  0  0  0  0  0  0  0  0  0  0
   -2.9696   -1.8703    1.1157 C   0  0  0  0  0  0  0  0  0  0  0  0
   -2.2657   -2.9791    1.5853 C   0  0  0  0  0  0  0  0  0  0  0  0
   -0.9470   -3.1750    1.1964 C   0  0  0  0  0  0  0  0  0  0  0  0
   -0.3281   -2.2537    0.3519 C   0  0  0  0  0  0  0  0  0  0  0  0
   -1.0133   -1.1123   -0.1099 C   0  0  0  0  0  0  0  0  0  0  0  0
   -0.3194   -0.1397   -1.0515 C   0  0  0  0  0  0  0  0  0  0  0  0
    1.0147    0.2608   -0.6056 N   0  0  0  0  0  0  0  0  0  0  0  0
    1.1035    1.2892    0.3192 C   0  0  0  0  0  0  0  0  0  0  0  0
    0.1477    1.9101    0.7818 O   0  0  0  0  0  0  0  0  0  0  0  0
    2.3599    1.6401    0.7289 N   0  0  0  0  0  0  0  0  0  0  0  0
    3.5263    1.0501    0.2564 C   0  0  0  0  0  0  0  0  0  0  0  0
    4.7669    1.4736    0.7335 C   0  0  0  0  0  0  0  0  0  0  0  0
    5.9332    0.8781    0.2473 C   0  0  0  0  0  0  0  0  0  0  0  0
    5.8580   -0.1340   -0.7114 C   0  0  0  0  0  0  0  0  0  0  0  0
    4.6147   -0.5539   -1.1864 C   0  0  0  0  0  0  0  0  0  0  0  0
    3.4481    0.0434   -0.6972 C   0  0  0  0  0  0  0  0  0  0  0  0
    2.1161   -0.3754   -1.1741 C   0  0  0  0  0  0  0  0  0  0  0  0
    2.0466   -1.2549   -2.0301 O   0  0  0  0  0  0  0  0  0  0  0  0
   -3.3849    3.3625    0.9674 H   0  0  0  0  0  0  0  0  0  0  0  0
   -2.5111    2.8123   -0.4749 H   0  0  0  0  0  0  0  0  0  0  0  0
   -4.2750    2.6829   -0.4013 H   0  0  0  0  0  0  0  0  0  0  0  0
   -2.3398    1.2297    1.4655 H   0  0  0  0  0  0  0  0  0  0  0  0
   -4.0903    1.0064    1.4480 H   0  0  0  0  0  0  0  0  0  0  0  0
   -4.1602   -0.9983   -1.6322 H   0  0  0  0  0  0  0  0  0  0  0  0
   -4.7110    0.6646   -1.4867 H   0  0  0  0  0  0  0  0  0  0  0  0
   -5.1100   -0.4934   -0.2092 H   0  0  0  0  0  0  0  0  0  0  0  0
   -3.9992   -1.7365    1.4345 H   0  0  0  0  0  0  0  0  0  0  0  0
   -2.7510   -3.6904    2.2475 H   0  0  0  0  0  0  0  0  0  0  0  0
   -0.3981   -4.0456    1.5449 H   0  0  0  0  0  0  0  0  0  0  0  0
    0.6978   -2.4426    0.0451 H   0  0  0  0  0  0  0  0  0  0  0  0
   -0.2649   -0.6116   -2.0400 H   0  0  0  0  0  0  0  0  0  0  0  0
   -0.9034    0.7769   -1.1827 H   0  0  0  0  0  0  0  0  0  0  0  0
    2.3960    2.3863    1.4108 H   0  0  0  0  0  0  0  0  0  0  0  0
    4.8413    2.2608    1.4786 H   0  0  0  0  0  0  0  0  0  0  0  0
    6.9036    1.2038    0.6156 H   0  0  0  0  0  0  0  0  0  0  0  0
    6.7674   -0.5959   -1.0892 H   0  0  0  0  0  0  0  0  0  0  0  0
    4.5570   -1.3424   -1.9338 H   0  0  0  0  0  0  0  0  0  0  0  0
  1  2  1  0
  2  3  1  0
  3  4  1  0
  3  5  1  0
  5  6  2  0
  6  7  1  0
  7  8  2  0
  8  9  1  0
  9 10  2  0
 10 11  1  0
 11 12  1  0
 12 13  1  0
 13 14  2  0
 13 15  1  0
 15 16  1  0
 16 17  2  0
 17 18  1  0
 18 19  2  0
 19 20  1  0
 20 21  2  0
 21 22  1  0
 22 23  2  0
 10  5  1  0
 22 12  1  0
 21 16  1  0
  1 24  1  0
  1 25  1  0
  1 26  1  0
  2 27  1  0
  2 28  1  0
  4 29  1  0
  4 30  1  0
  4 31  1  0
  6 32  1  0
  7 33  1  0
  8 34  1  0
  9 35  1  0
 11 36  1  0
 11 37  1  0
 15 38  1  0
 17 39  1  0
 18 40  1  0
 19 41  1  0
 20 42  1  0
M  END
$$$$
OCNT-2311387
     RDKit          3D

 39 42  0  0  0  0  0  0  0  0999 V2000
    4.6881   -1.7830    2.5133 Cl  0  0  0  0  0  0  0  0  0  0  0  0
    3.8806   -0.8426    1.3028 C   0  0  0  0  0  0  0  0  0  0  0  0
    2.5046   -0.7002    1.4218 C   0  0  0  0  0  0  0  0  0  0  0  0
    1.8217    0.0383    0.4730 C   0  0  0  0  0  0  0  0  0  0  0  0
    0.4492    0.2278    0.5615 N   0  0  0  0  0  0  0  0  0  0  0  0
   -0.4280   -0.8791    0.9859 C   0  0  0  0  0  0  0  0  0  0  0  0
   -1.5676   -1.1646   -0.0237 C   0  0  0  0  0  0  0  0  0  0  0  0
   -2.3433    0.0406   -0.3661 N   0  0  0  0  0  0  0  0  0  0  0  0
   -3.7195    0.0472   -0.1848 C   0  0  0  0  0  0  0  0  0  0  0  0
   -4.4961   -1.0637   -0.5264 C   0  0  0  0  0  0  0  0  0  0  0  0
   -5.8828   -1.0377   -0.3584 C   0  0  0  0  0  0  0  0  0  0  0  0
   -6.4749    0.1090    0.1412 C   0  0  0  0  0  0  0  0  0  0  0  0
   -8.3390    0.2063    0.3891 Br  0  0  0  0  0  0  0  0  0  0  0  0
   -5.6572    1.1803    0.4428 C   0  0  0  0  0  0  0  0  0  0  0  0
   -4.3106    1.1692    0.2845 N   0  0  0  0  0  0  0  0  0  0  0  0
   -1.6561    1.3316   -0.1641 C   0  0  0  0  0  0  0  0  0  0  0  0
   -0.1382    1.1859   -0.3988 C   0  0  0  0  0  0  0  0  0  0  0  0
    2.4935    0.6323   -0.5328 N   0  0  0  0  0  0  0  0  0  0  0  0
    3.8137    0.5061   -0.6654 C   0  0  0  0  0  0  0  0  0  0  0  0
    4.3825    1.1209   -1.7052 N   0  0  0  0  0  0  0  0  0  0  0  0
    5.7167    1.0246   -1.8864 C   0  0  0  0  0  0  0  0  0  0  0  0
    6.5518    0.3170   -1.0520 C   0  0  0  0  0  0  0  0  0  0  0  0
    5.9721   -0.3257    0.0303 C   0  0  0  0  0  0  0  0  0  0  0  0
    4.5756   -0.2394    0.2420 C   0  0  0  0  0  0  0  0  0  0  0  0
    1.9840   -1.1391    2.2649 H   0  0  0  0  0  0  0  0  0  0  0  0
   -0.8655   -0.6086    1.9547 H   0  0  0  0  0  0  0  0  0  0  0  0
    0.1240   -1.8151    1.1298 H   0  0  0  0  0  0  0  0  0  0  0  0
   -1.1343   -1.5595   -0.9508 H   0  0  0  0  0  0  0  0  0  0  0  0
   -2.1929   -1.9572    0.4032 H   0  0  0  0  0  0  0  0  0  0  0  0
   -4.0362   -1.9479   -0.9547 H   0  0  0  0  0  0  0  0  0  0  0  0
   -6.4767   -1.9048   -0.6300 H   0  0  0  0  0  0  0  0  0  0  0  0
   -6.0594    2.1116    0.8303 H   0  0  0  0  0  0  0  0  0  0  0  0
   -2.0482    2.0769   -0.8668 H   0  0  0  0  0  0  0  0  0  0  0  0
   -1.8232    1.6963    0.8582 H   0  0  0  0  0  0  0  0  0  0  0  0
    0.3283    2.1711   -0.2769 H   0  0  0  0  0  0  0  0  0  0  0  0
    0.0334    0.8446   -1.4284 H   0  0  0  0  0  0  0  0  0  0  0  0
    6.1026    1.5535   -2.7535 H   0  0  0  0  0  0  0  0  0  0  0  0
    7.6187    0.2675   -1.2362 H   0  0  0  0  0  0  0  0  0  0  0  0
    6.6087   -0.8906    0.7065 H   0  0  0  0  0  0  0  0  0  0  0  0
  1  2  1  0
  2  3  1  0
  3  4  2  0
  4  5  1  0
  5  6  1  0
  6  7  1  0
  7  8  1  0
  8  9  1  0
  9 10  2  0
 10 11  1  0
 11 12  2  0
 12 13  1  0
 12 14  1  0
 14 15  2  0
  8 16  1  0
 16 17  1  0
  4 18  1  0
 18 19  2  0
 19 20  1  0
 20 21  2  0
 21 22  1  0
 22 23  2  0
 23 24  1  0
 24  2  2  0
 17  5  1  0
 24 19  1  0
 15  9  1  0
  3 25  1  0
  6 26  1  0
  6 27  1  0
  7 28  1  0
  7 29  1  0
 10 30  1  0
 11 31  1  0
 14 32  1  0
 16 33  1  0
 16 34  1  0
 17 35  1  0
 17 36  1  0
 21 37  1  0
 22 38  1  0
 23 39  1  0
M  END
$$$$
OCNT-2311399
     RDKit          3D

 37 39  0  0  0  0  0  0  0  0999 V2000
   -2.4739    2.1441   -1.6513 C   0  0  0  0  0  0  0  0  0  0  0  0
   -3.0505    1.0727   -0.7638 C   0  0  0  0  0  0  0  0  0  0  0  0
   -4.4457    1.0308   -0.5977 C   0  0  0  0  0  0  0  0  0  0  0  0
   -5.0420    0.0650    0.2109 C   0  0  0  0  0  0  0  0  0  0  0  0
   -4.2557   -0.8865    0.8663 C   0  0  0  0  0  0  0  0  0  0  0  0
   -4.8785   -1.9348    1.7543 C   0  0  0  0  0  0  0  0  0  0  0  0
   -4.3858   -3.1841    1.5287 F   0  0  0  0  0  0  0  0  0  0  0  0
   -6.2293   -2.0392    1.5967 F   0  0  0  0  0  0  0  0  0  0  0  0
   -4.6799   -1.6830    3.0775 F   0  0  0  0  0  0  0  0  0  0  0  0
   -2.8595   -0.8427    0.7067 C   0  0  0  0  0  0  0  0  0  0  0  0
   -2.2432    0.1256   -0.0965 C   0  0  0  0  0  0  0  0  0  0  0  0
   -0.8398    0.1793   -0.2747 N   0  0  0  0  0  0  0  0  0  0  0  0
    0.1246   -0.5822    0.3612 C   0  0  0  0  0  0  0  0  0  0  0  0
   -0.0502   -1.3954    1.2597 O   0  0  0  0  0  0  0  0  0  0  0  0
    1.5225   -0.3256   -0.0883 C   0  0  0  0  0  0  0  0  0  0  0  0
    1.8301   -0.0354   -1.4195 C   0  0  0  0  0  0  0  0  0  0  0  0
    3.1600    0.1975   -1.7901 C   0  0  0  0  0  0  0  0  0  0  0  0
    4.1984    0.1395   -0.8699 C   0  0  0  0  0  0  0  0  0  0  0  0
    5.4555    0.3761   -1.2799 N   0  0  0  0  0  0  0  0  0  0  0  0
    6.4455    0.3017   -0.3625 C   0  0  0  0  0  0  0  0  0  0  0  0
    6.2413   -0.0012    0.9703 C   0  0  0  0  0  0  0  0  0  0  0  0
    4.9397   -0.2428    1.3916 C   0  0  0  0  0  0  0  0  0  0  0  0
    3.8864   -0.1746    0.4705 C   0  0  0  0  0  0  0  0  0  0  0  0
    2.5540   -0.4101    0.8525 C   0  0  0  0  0  0  0  0  0  0  0  0
   -1.9273    1.6929   -2.4857 H   0  0  0  0  0  0  0  0  0  0  0  0
   -1.8030    2.7920   -1.0779 H   0  0  0  0  0  0  0  0  0  0  0  0
   -3.2562    2.7802   -2.0794 H   0  0  0  0  0  0  0  0  0  0  0  0
   -5.0823    1.7572   -1.1001 H   0  0  0  0  0  0  0  0  0  0  0  0
   -6.1252    0.0578    0.3242 H   0  0  0  0  0  0  0  0  0  0  0  0
   -2.2726   -1.5966    1.2262 H   0  0  0  0  0  0  0  0  0  0  0  0
   -0.5013    0.9111   -0.8827 H   0  0  0  0  0  0  0  0  0  0  0  0
    1.0622   -0.0159   -2.1879 H   0  0  0  0  0  0  0  0  0  0  0  0
    3.3969    0.4200   -2.8286 H   0  0  0  0  0  0  0  0  0  0  0  0
    7.4434    0.4988   -0.7445 H   0  0  0  0  0  0  0  0  0  0  0  0
    7.0737   -0.0491    1.6631 H   0  0  0  0  0  0  0  0  0  0  0  0
    4.7517   -0.4848    2.4348 H   0  0  0  0  0  0  0  0  0  0  0  0
    2.3158   -0.6584    1.8858 H   0  0  0  0  0  0  0  0  0  0  0  0
  1  2  1  0
  2  3  1  0
  3  4  2  0
  4  5  1  0
  5  6  1  0
  6  7  1  0
  6  8  1  0
  6  9  1  0
  5 10  2  0
 10 11  1  0
 11 12  1  0
 12 13  1  0
 13 14  2  0
 13 15  1  0
 15 16  2  0
 16 17  1  0
 17 18  2  0
 18 19  1  0
 19 20  2  0
 20 21  1  0
 21 22  2  0
 22 23  1  0
 23 24  2  0
 11  2  2  0
 24 15  1  0
 23 18  1  0
  1 25  1  0
  1 26  1  0
  1 27  1  0
  3 28  1  0
  4 29  1  0
 10 30  1  0
 12 31  1  0
 16 32  1  0
 17 33  1  0
 20 34  1  0
 21 35  1  0
 22 36  1  0
 24 37  1  0
M  END
$$$$
OCNT-2311403
     RDKit          3D

 43 46  0  0  0  0  0  0  0  0999 V2000
   -3.4265    2.7963    0.2080 C   0  0  0  0  0  0  0  0  0  0  0  0
   -3.8421    1.3777    0.0425 C   0  0  0  0  0  0  0  0  0  0  0  0
   -3.1673    0.1746    0.2453 C   0  0  0  0  0  0  0  0  0  0  0  0
   -1.7735   -0.0160    0.6488 C   0  0  0  0  0  0  0  0  0  0  0  0
   -1.3973   -0.9803    1.3081 O   0  0  0  0  0  0  0  0  0  0  0  0
   -0.8988    0.9394    0.1771 N   0  0  0  0  0  0  0  0  0  0  0  0
    0.5308    0.8408    0.4037 C   0  0  0  0  0  0  0  0  0  0  0  0
    1.1984   -0.1979   -0.4969 C   0  0  0  0  0  0  0  0  0  0  0  0
    2.6807   -0.1918   -0.2996 C   0  0  0  0  0  0  0  0  0  0  0  0
    3.4921    0.6957   -0.8439 N   0  0  0  0  0  0  0  0  0  0  0  0
    4.7828    0.4224   -0.4519 C   0  0  0  0  0  0  0  0  0  0  0  0
    4.9398   -0.6621    0.3814 C   0  0  0  0  0  0  0  0  0  0  0  0
    6.2455   -1.1517    0.8955 C   0  0  0  0  0  0  0  0  0  0  0  0
    7.2350   -0.1131    0.7158 O   0  0  0  0  0  0  0  0  0  0  0  0
    7.2340    0.4419   -0.6139 C   0  0  0  0  0  0  0  0  0  0  0  0
    5.9477    1.2426   -0.8727 C   0  0  0  0  0  0  0  0  0  0  0  0
    3.4358   -1.3846    0.6954 S   0  0  0  0  0  0  0  0  0  0  0  0
   -4.1210   -0.8769    0.0165 C   0  0  0  0  0  0  0  0  0  0  0  0
   -4.0645   -2.2861    0.0830 C   0  0  0  0  0  0  0  0  0  0  0  0
   -5.2013   -3.0419   -0.2250 C   0  0  0  0  0  0  0  0  0  0  0  0
   -6.3872   -2.4163   -0.5988 C   0  0  0  0  0  0  0  0  0  0  0  0
   -6.4721   -1.0232   -0.6733 C   0  0  0  0  0  0  0  0  0  0  0  0
   -5.3243   -0.2844   -0.3604 C   0  0  0  0  0  0  0  0  0  0  0  0
   -5.1266    1.0734   -0.3421 N   0  0  0  0  0  0  0  0  0  0  0  0
   -4.2910    3.4456    0.3832 H   0  0  0  0  0  0  0  0  0  0  0  0
   -2.9145    3.1510   -0.6918 H   0  0  0  0  0  0  0  0  0  0  0  0
   -2.7536    2.9101    1.0635 H   0  0  0  0  0  0  0  0  0  0  0  0
   -1.2337    1.5739   -0.5338 H   0  0  0  0  0  0  0  0  0  0  0  0
    0.6976    0.5956    1.4595 H   0  0  0  0  0  0  0  0  0  0  0  0
    0.9478    1.8384    0.2249 H   0  0  0  0  0  0  0  0  0  0  0  0
    0.7813   -1.1950   -0.3135 H   0  0  0  0  0  0  0  0  0  0  0  0
    0.9814    0.0334   -1.5475 H   0  0  0  0  0  0  0  0  0  0  0  0
    6.1988   -1.3803    1.9644 H   0  0  0  0  0  0  0  0  0  0  0  0
    6.5744   -2.0463    0.3561 H   0  0  0  0  0  0  0  0  0  0  0  0
    8.1038    1.1007   -0.7026 H   0  0  0  0  0  0  0  0  0  0  0  0
    7.3566   -0.3706   -1.3411 H   0  0  0  0  0  0  0  0  0  0  0  0
    5.8777    1.5240   -1.9279 H   0  0  0  0  0  0  0  0  0  0  0  0
    5.9582    2.1586   -0.2707 H   0  0  0  0  0  0  0  0  0  0  0  0
   -3.1443   -2.7840    0.3787 H   0  0  0  0  0  0  0  0  0  0  0  0
   -5.1540   -4.1265   -0.1683 H   0  0  0  0  0  0  0  0  0  0  0  0
   -7.2612   -3.0195   -0.8332 H   0  0  0  0  0  0  0  0  0  0  0  0
   -7.3992   -0.5388   -0.9615 H   0  0  0  0  0  0  0  0  0  0  0  0
   -5.8462    1.7511   -0.5532 H   0  0  0  0  0  0  0  0  0  0  0  0
  1  2  1  0
  2  3  2  0
  3  4  1  0
  4  5  2  0
  4  6  1  0
  6  7  1  0
  7  8  1  0
  8  9  1  0
  9 10  2  0
 10 11  1  0
 11 12  2  0
 12 13  1  0
 13 14  1  0
 14 15  1  0
 15 16  1  0
 12 17  1  0
  3 18  1  0
 18 19  2  0
 19 20  1  0
 20 21  2  0
 21 22  1  0
 22 23  2  0
 23 24  1  0
 24  2  1  0
 17  9  1  0
 23 18  1  0
 16 11  1  0
  1 25  1  0
  1 26  1  0
  1 27  1  0
  6 28  1  0
  7 29  1  0
  7 30  1  0
  8 31  1  0
  8 32  1  0
 13 33  1  0
 13 34  1  0
 15 35  1  0
 15 36  1  0
 16 37  1  0
 16 38  1  0
 19 39  1  0
 20 40  1  0
 21 41  1  0
 22 42  1  0
 24 43  1  0
M  END
$$$$
OCNT-2311413
     RDKit          3D

 39 41  0  0  0  0  0  0  0  0999 V2000
   -5.6006    0.7348    0.7686 C   0  0  0  0  0  0  0  0  0  0  0  0
   -4.3456    1.0572    1.3639 O   0  0  0  0  0  0  0  0  0  0  0  0
   -3.1789    0.6487    0.5912 N   0  0  0  0  0  0  0  0  0  0  0  0
   -3.2462    1.0409   -0.8130 C   0  0  0  0  0  0  0  0  0  0  0  0
   -1.9280    0.6978   -1.5136 C   0  0  0  0  0  0  0  0  0  0  0  0
   -1.5801   -0.7910   -1.3398 C   0  0  0  0  0  0  0  0  0  0  0  0
   -0.2814   -1.1926   -2.0584 C   0  0  0  0  0  0  0  0  0  0  0  0
    0.9376   -0.5184   -1.5514 C   0  0  0  0  0  0  0  0  0  0  0  0
    1.7417   -0.8660   -0.5741 N   0  0  0  0  0  0  0  0  0  0  0  0
    2.6803    0.1437   -0.5858 C   0  0  0  0  0  0  0  0  0  0  0  0
    3.7887    0.1831    0.3623 C   0  0  0  0  0  0  0  0  0  0  0  0
    4.7364    1.2227    0.3292 C   0  0  0  0  0  0  0  0  0  0  0  0
    5.7959    1.2522    1.2420 C   0  0  0  0  0  0  0  0  0  0  0  0
    5.9109    0.2428    2.1902 C   0  0  0  0  0  0  0  0  0  0  0  0
    6.9273    0.2727    3.0627 F   0  0  0  0  0  0  0  0  0  0  0  0
    4.9809   -0.7882    2.2327 C   0  0  0  0  0  0  0  0  0  0  0  0
    5.0954   -1.7603    3.1482 F   0  0  0  0  0  0  0  0  0  0  0  0
    3.9231   -0.8255    1.3285 C   0  0  0  0  0  0  0  0  0  0  0  0
    2.4761    1.0642   -1.5428 N   0  0  0  0  0  0  0  0  0  0  0  0
    1.3212    0.6250   -2.1854 O   0  0  0  0  0  0  0  0  0  0  0  0
   -1.5801   -1.1592    0.1541 C   0  0  0  0  0  0  0  0  0  0  0  0
   -2.8988   -0.7646    0.8252 C   0  0  0  0  0  0  0  0  0  0  0  0
   -6.3731    0.8587    1.5332 H   0  0  0  0  0  0  0  0  0  0  0  0
   -5.8241    1.4283   -0.0473 H   0  0  0  0  0  0  0  0  0  0  0  0
   -5.6381   -0.2994    0.4165 H   0  0  0  0  0  0  0  0  0  0  0  0
   -4.0633    0.5309   -1.3367 H   0  0  0  0  0  0  0  0  0  0  0  0
   -3.4198    2.1199   -0.8915 H   0  0  0  0  0  0  0  0  0  0  0  0
   -2.0096    0.9413   -2.5795 H   0  0  0  0  0  0  0  0  0  0  0  0
   -1.1315    1.3288   -1.1000 H   0  0  0  0  0  0  0  0  0  0  0  0
   -2.3854   -1.3697   -1.8156 H   0  0  0  0  0  0  0  0  0  0  0  0
   -0.1417   -2.2769   -1.9654 H   0  0  0  0  0  0  0  0  0  0  0  0
   -0.3856   -0.9900   -3.1317 H   0  0  0  0  0  0  0  0  0  0  0  0
    4.6561    2.0199   -0.4089 H   0  0  0  0  0  0  0  0  0  0  0  0
    6.5272    2.0542    1.2173 H   0  0  0  0  0  0  0  0  0  0  0  0
    3.2110   -1.6446    1.3879 H   0  0  0  0  0  0  0  0  0  0  0  0
   -1.4202   -2.2373    0.2742 H   0  0  0  0  0  0  0  0  0  0  0  0
   -0.7562   -0.6535    0.6728 H   0  0  0  0  0  0  0  0  0  0  0  0
   -3.7032   -1.4008    0.4389 H   0  0  0  0  0  0  0  0  0  0  0  0
   -2.8183   -0.9554    1.9015 H   0  0  0  0  0  0  0  0  0  0  0  0
  1  2  1  0
  2  3  1  0
  3  4  1  0
  4  5  1  0
  5  6  1  0
  6  7  1  0
  7  8  1  0
  8  9  2  0
  9 10  1  0
 10 11  1  0
 11 12  1  0
 12 13  2  0
 13 14  1  0
 14 15  1  0
 14 16  2  0
 16 17  1  0
 16 18  1  0
 10 19  2  0
 19 20  1  0
  6 21  1  0
 21 22  1  0
 22  3  1  0
 20  8  1  0
 18 11  2  0
  1 23  1  0
  1 24  1  0
  1 25  1  0
  4 26  1  0
  4 27  1  0
  5 28  1  0
  5 29  1  0
  6 30  1  0
  7 31  1  0
  7 32  1  0
 12 33  1  0
 13 34  1  0
 18 35  1  0
 21 36  1  0
 21 37  1  0
 22 38  1  0
 22 39  1  0
M  END
$$$$
OCNT-2311427
     RDKit          3D

 37 38  0  0  0  0  0  0  0  0999 V2000
   -4.4952   -2.3337    0.2021 C   0  0  0  0  0  0  0  0  0  0  0  0
   -3.2300   -1.9363   -0.5467 C   0  0  0  0  0  0  0  0  0  0  0  0
   -2.5987   -0.6349   -0.0150 C   0  0  0  0  0  0  0  0  0  0  0  0
   -3.4129    0.6164   -0.3834 C   0  0  0  0  0  0  0  0  0  0  0  0
   -3.0599    1.7281    0.4515 O   0  0  0  0  0  0  0  0  0  0  0  0
   -3.8313    1.7961    1.6442 C   0  0  0  0  0  0  0  0  0  0  0  0
   -1.2245   -0.4832   -0.4917 N   0  0  0  0  0  0  0  0  0  0  0  0
   -0.1219   -0.1396    0.2366 C   0  0  0  0  0  0  0  0  0  0  0  0
    0.9044   -0.1566   -0.6821 C   0  0  0  0  0  0  0  0  0  0  0  0
    2.3075    0.1409   -0.4475 C   0  0  0  0  0  0  0  0  0  0  0  0
    3.2303   -0.0106   -1.4925 C   0  0  0  0  0  0  0  0  0  0  0  0
    4.5880    0.2668   -1.3002 C   0  0  0  0  0  0  0  0  0  0  0  0
    5.0544    0.7110   -0.0560 C   0  0  0  0  0  0  0  0  0  0  0  0
    6.5213    0.9900    0.1617 C   0  0  0  0  0  0  0  0  0  0  0  0
    7.1976   -0.1084    0.5977 F   0  0  0  0  0  0  0  0  0  0  0  0
    7.1635    1.4019   -0.9669 F   0  0  0  0  0  0  0  0  0  0  0  0
    6.7475    1.9604    1.0914 F   0  0  0  0  0  0  0  0  0  0  0  0
    4.1360    0.8567    0.9933 C   0  0  0  0  0  0  0  0  0  0  0  0
    2.7777    0.5782    0.7983 C   0  0  0  0  0  0  0  0  0  0  0  0
    0.3964   -0.5138   -1.9074 N   0  0  0  0  0  0  0  0  0  0  0  0
   -0.9090   -0.7073   -1.7801 N   0  0  0  0  0  0  0  0  0  0  0  0
   -4.8592   -3.2990   -0.1644 H   0  0  0  0  0  0  0  0  0  0  0  0
   -5.2968   -1.6035    0.0620 H   0  0  0  0  0  0  0  0  0  0  0  0
   -4.3011   -2.4318    1.2749 H   0  0  0  0  0  0  0  0  0  0  0  0
   -2.5096   -2.7591   -0.4511 H   0  0  0  0  0  0  0  0  0  0  0  0
   -3.4583   -1.8425   -1.6156 H   0  0  0  0  0  0  0  0  0  0  0  0
   -2.5122   -0.7145    1.0760 H   0  0  0  0  0  0  0  0  0  0  0  0
   -4.4921    0.4442   -0.3153 H   0  0  0  0  0  0  0  0  0  0  0  0
   -3.2080    0.9178   -1.4172 H   0  0  0  0  0  0  0  0  0  0  0  0
   -4.8870    1.9563    1.4053 H   0  0  0  0  0  0  0  0  0  0  0  0
   -3.4763    2.6455    2.2339 H   0  0  0  0  0  0  0  0  0  0  0  0
   -3.7148    0.8861    2.2393 H   0  0  0  0  0  0  0  0  0  0  0  0
   -0.1748    0.0857    1.2903 H   0  0  0  0  0  0  0  0  0  0  0  0
    2.8972   -0.3497   -2.4729 H   0  0  0  0  0  0  0  0  0  0  0  0
    5.2788    0.1356   -2.1322 H   0  0  0  0  0  0  0  0  0  0  0  0
    4.4739    1.1934    1.9727 H   0  0  0  0  0  0  0  0  0  0  0  0
    2.0991    0.7135    1.6364 H   0  0  0  0  0  0  0  0  0  0  0  0
  1  2  1  0
  2  3  1  0
  3  4  1  0
  4  5  1  0
  5  6  1  0
  3  7  1  0
  7  8  1  0
  8  9  2  0
  9 10  1  0
 10 11  1  0
 11 12  2  0
 12 13  1  0
 13 14  1  0
 14 15  1  0
 14 16  1  0
 14 17  1  0
 13 18  2  0
 18 19  1  0
  9 20  1  0
 20 21  2  0
 21  7  1  0
 19 10  2  0
  1 22  1  0
  1 23  1  0
  1 24  1  0
  2 25  1  0
  2 26  1  0
  3 27  1  0
  4 28  1  0
  4 29  1  0
  6 30  1  0
  6 31  1  0
  6 32  1  0
  8 33  1  0
 11 34  1  0
 12 35  1  0
 18 36  1  0
 19 37  1  0
M  END
$$$$
OCNT-2311453
     RDKit          3D

 39 41  0  0  0  0  0  0  0  0999 V2000
    3.0493    0.1648    3.4873 N   0  0  0  0  0  0  0  0  0  0  0  0
    3.8121    0.2849    2.6195 C   0  0  0  0  0  0  0  0  0  0  0  0
    4.7796    0.4376    1.5694 C   0  0  0  0  0  0  0  0  0  0  0  0
    6.1172    0.6821    1.9115 C   0  0  0  0  0  0  0  0  0  0  0  0
    7.0789    0.8345    0.9145 C   0  0  0  0  0  0  0  0  0  0  0  0
    6.7071    0.7430   -0.4244 C   0  0  0  0  0  0  0  0  0  0  0  0
    5.3748    0.4995   -0.7735 C   0  0  0  0  0  0  0  0  0  0  0  0
    4.4007    0.3449    0.2187 C   0  0  0  0  0  0  0  0  0  0  0  0
    3.0742    0.1043   -0.0197 O   0  0  0  0  0  0  0  0  0  0  0  0
    2.6367    0.0052   -1.3791 C   0  0  0  0  0  0  0  0  0  0  0  0
    1.1737   -0.2534   -1.4595 C   0  0  0  0  0  0  0  0  0  0  0  0
    0.2480   -0.4841   -0.4635 C   0  0  0  0  0  0  0  0  0  0  0  0
   -0.9232   -0.6497   -1.1350 N   0  0  0  0  0  0  0  0  0  0  0  0
   -2.2344   -0.9140   -0.5865 C   0  0  0  0  0  0  0  0  0  0  0  0
   -3.0874    0.3496   -0.5304 C   0  0  0  0  0  0  0  0  0  0  0  0
   -4.4393    0.0724    0.0777 C   0  0  0  0  0  0  0  0  0  0  0  0
   -5.5031   -0.3580   -0.7266 C   0  0  0  0  0  0  0  0  0  0  0  0
   -6.7475   -0.6385   -0.1607 C   0  0  0  0  0  0  0  0  0  0  0  0
   -6.9386   -0.4950    1.2122 C   0  0  0  0  0  0  0  0  0  0  0  0
   -5.8858   -0.0712    2.0210 C   0  0  0  0  0  0  0  0  0  0  0  0
   -4.6402    0.2101    1.4577 C   0  0  0  0  0  0  0  0  0  0  0  0
   -0.7485   -0.5386   -2.4627 N   0  0  0  0  0  0  0  0  0  0  0  0
    0.5373   -0.2929   -2.6751 N   0  0  0  0  0  0  0  0  0  0  0  0
    6.4145    0.7547    2.9563 H   0  0  0  0  0  0  0  0  0  0  0  0
    8.1162    1.0241    1.1808 H   0  0  0  0  0  0  0  0  0  0  0  0
    7.4574    0.8619   -1.2035 H   0  0  0  0  0  0  0  0  0  0  0  0
    5.1364    0.4371   -1.8309 H   0  0  0  0  0  0  0  0  0  0  0  0
    2.8488    0.9448   -1.9034 H   0  0  0  0  0  0  0  0  0  0  0  0
    3.1584   -0.8221   -1.8753 H   0  0  0  0  0  0  0  0  0  0  0  0
    0.3306   -0.5362    0.6128 H   0  0  0  0  0  0  0  0  0  0  0  0
   -2.0942   -1.3405    0.4140 H   0  0  0  0  0  0  0  0  0  0  0  0
   -2.7007   -1.6873   -1.2088 H   0  0  0  0  0  0  0  0  0  0  0  0
   -3.2189    0.7715   -1.5355 H   0  0  0  0  0  0  0  0  0  0  0  0
   -2.5773    1.1299    0.0496 H   0  0  0  0  0  0  0  0  0  0  0  0
   -5.3704   -0.4755   -1.8003 H   0  0  0  0  0  0  0  0  0  0  0  0
   -7.5688   -0.9685   -0.7917 H   0  0  0  0  0  0  0  0  0  0  0  0
   -7.9085   -0.7126    1.6518 H   0  0  0  0  0  0  0  0  0  0  0  0
   -6.0354    0.0414    3.0917 H   0  0  0  0  0  0  0  0  0  0  0  0
   -3.8299    0.5399    2.1044 H   0  0  0  0  0  0  0  0  0  0  0  0
  1  2  3  0
  2  3  1  0
  3  4  2  0
  4  5  1  0
  5  6  2  0
  6  7  1  0
  7  8  2  0
  8  9  1  0
  9 10  1  0
 10 11  1  0
 11 12  2  0
 12 13  1  0
 13 14  1  0
 14 15  1  0
 15 16  1  0
 16 17  2  0
 17 18  1  0
 18 19  2  0
 19 20  1  0
 20 21  2  0
 13 22  1  0
 22 23  2  0
  8  3  1  0
 23 11  1  0
 21 16  1  0
  4 24  1  0
  5 25  1  0
  6 26  1  0
  7 27  1  0
 10 28  1  0
 10 29  1  0
 12 30  1  0
 14 31  1  0
 14 32  1  0
 15 33  1  0
 15 34  1  0
 17 35  1  0
 18 36  1  0
 19 37  1  0
 20 38  1  0
 21 39  1  0
M  END
$$$$
OCNT-2311473
     RDKit          3D

 40 42  0  0  0  0  0  0  0  0999 V2000
   -1.5336    1.2266    2.3182 C   0  0  0  0  0  0  0  0  0  0  0  0
   -1.6930    0.8806    0.8995 N   0  0  0  0  0  0  0  0  0  0  0  0
   -2.6502    1.7324    0.1634 C   0  0  0  0  0  0  0  0  0  0  0  0
   -1.9928    3.0495   -0.2757 C   0  0  0  0  0  0  0  0  0  0  0  0
   -0.9089    2.8544   -1.3343 C   0  0  0  0  0  0  0  0  0  0  0  0
    0.2062    2.0887   -0.8337 N   0  0  0  0  0  0  0  0  0  0  0  0
    1.3554    1.8763   -1.5709 C   0  0  0  0  0  0  0  0  0  0  0  0
    1.5973    2.5164   -2.5930 O   0  0  0  0  0  0  0  0  0  0  0  0
    2.1960    0.8127   -1.0261 C   0  0  0  0  0  0  0  0  0  0  0  0
    1.8328    0.0854    0.0132 N   0  0  0  0  0  0  0  0  0  0  0  0
    2.8011   -0.8705    0.2770 C   0  0  0  0  0  0  0  0  0  0  0  0
    2.7668   -1.8385    1.2901 C   0  0  0  0  0  0  0  0  0  0  0  0
    3.7863   -2.7213    1.4460 N   0  0  0  0  0  0  0  0  0  0  0  0
    4.8406   -2.6539    0.6069 C   0  0  0  0  0  0  0  0  0  0  0  0
    4.9701   -1.7404   -0.4255 C   0  0  0  0  0  0  0  0  0  0  0  0
    3.9102   -0.8417   -0.5714 C   0  0  0  0  0  0  0  0  0  0  0  0
    3.7033    0.4188   -1.7287 S   0  0  0  0  0  0  0  0  0  0  0  0
   -1.9416   -0.5024    0.7256 C   0  0  0  0  0  0  0  0  0  0  0  0
   -1.7964   -1.0660   -0.5456 C   0  0  0  0  0  0  0  0  0  0  0  0
   -2.0012   -2.4320   -0.7314 C   0  0  0  0  0  0  0  0  0  0  0  0
   -2.3423   -3.2171    0.3578 C   0  0  0  0  0  0  0  0  0  0  0  0
   -2.4568   -2.5965    1.5870 C   0  0  0  0  0  0  0  0  0  0  0  0
   -2.2612   -1.2735    1.7878 N   0  0  0  0  0  0  0  0  0  0  0  0
   -2.4669    1.0992    2.8796 H   0  0  0  0  0  0  0  0  0  0  0  0
   -1.2263    2.2726    2.4193 H   0  0  0  0  0  0  0  0  0  0  0  0
   -0.7423    0.6275    2.7846 H   0  0  0  0  0  0  0  0  0  0  0  0
   -3.0515    1.2388   -0.7306 H   0  0  0  0  0  0  0  0  0  0  0  0
   -3.5137    1.9543    0.8039 H   0  0  0  0  0  0  0  0  0  0  0  0
   -1.5735    3.5769    0.5886 H   0  0  0  0  0  0  0  0  0  0  0  0
   -2.7709    3.6981   -0.6959 H   0  0  0  0  0  0  0  0  0  0  0  0
   -0.5331    3.8261   -1.6733 H   0  0  0  0  0  0  0  0  0  0  0  0
   -1.3096    2.3325   -2.2106 H   0  0  0  0  0  0  0  0  0  0  0  0
    0.0104    1.3963   -0.1035 H   0  0  0  0  0  0  0  0  0  0  0  0
    1.9345   -1.9209    1.9795 H   0  0  0  0  0  0  0  0  0  0  0  0
    5.6191   -3.3904    0.7923 H   0  0  0  0  0  0  0  0  0  0  0  0
    5.8354   -1.7268   -1.0758 H   0  0  0  0  0  0  0  0  0  0  0  0
   -1.4974   -0.4519   -1.3881 H   0  0  0  0  0  0  0  0  0  0  0  0
   -1.8828   -2.8742   -1.7159 H   0  0  0  0  0  0  0  0  0  0  0  0
   -2.5054   -4.2835    0.2553 H   0  0  0  0  0  0  0  0  0  0  0  0
   -2.7145   -3.1630    2.4771 H   0  0  0  0  0  0  0  0  0  0  0  0
  1  2  1  0
  2  3  1  0
  3  4  1  0
  4  5  1  0
  5  6  1  0
  6  7  1  0
  7  8  2  0
  7  9  1  0
  9 10  2  0
 10 11  1  0
 11 12  2  0
 12 13  1  0
 13 14  2  0
 14 15  1  0
 15 16  2  0
 16 17  1  0
  2 18  1  0
 18 19  2  0
 19 20  1  0
 20 21  2  0
 21 22  1  0
 22 23  2  0
 17  9  1  0
 23 18  1  0
 16 11  1  0
  1 24  1  0
  1 25  1  0
  1 26  1  0
  3 27  1  0
  3 28  1  0
  4 29  1  0
  4 30  1  0
  5 31  1  0
  5 32  1  0
  6 33  1  0
 12 34  1  0
 14 35  1  0
 15 36  1  0
 19 37  1  0
 20 38  1  0
 21 39  1  0
 22 40  1  0
M  END
$$$$
OCNT-2311487
     RDKit          3D

 39 41  0  0  0  0  0  0  0  0999 V2000
    5.6760   -1.9844   -2.4761 F   0  0  0  0  0  0  0  0  0  0  0  0
    4.4187   -1.7981   -2.9746 C   0  0  0  0  0  0  0  0  0  0  0  0
    3.9140   -3.0447   -3.1911 F   0  0  0  0  0  0  0  0  0  0  0  0
    4.6053   -1.2579   -4.2181 F   0  0  0  0  0  0  0  0  0  0  0  0
    3.5655   -0.9237   -2.0878 C   0  0  0  0  0  0  0  0  0  0  0  0
    3.7254    0.4557   -2.0834 C   0  0  0  0  0  0  0  0  0  0  0  0
    2.9256    1.2305   -1.2416 C   0  0  0  0  0  0  0  0  0  0  0  0
    1.9892    0.6279   -0.4068 C   0  0  0  0  0  0  0  0  0  0  0  0
    1.1648    1.3947    0.4109 N   0  0  0  0  0  0  0  0  0  0  0  0
    1.7850    2.4713    1.1952 C   0  0  0  0  0  0  0  0  0  0  0  0
    1.1624    2.3553    2.5846 C   0  0  0  0  0  0  0  0  0  0  0  0
   -0.1839    1.7086    2.3179 C   0  0  0  0  0  0  0  0  0  0  0  0
    0.1558    0.6831    1.2250 C   0  0  1  0  0  0  0  0  0  0  0  0
   -1.0872    0.2875    0.4161 C   0  0  0  0  0  0  0  0  0  0  0  0
   -2.0496   -0.3035    1.3049 O   0  0  0  0  0  0  0  0  0  0  0  0
   -3.0888   -0.8921    0.6382 C   0  0  0  0  0  0  0  0  0  0  0  0
   -3.8835   -0.2029   -0.2823 C   0  0  0  0  0  0  0  0  0  0  0  0
   -4.9513   -0.8548   -0.9006 C   0  0  0  0  0  0  0  0  0  0  0  0
   -5.2308   -2.1883   -0.5873 C   0  0  0  0  0  0  0  0  0  0  0  0
   -4.4500   -2.8690    0.3489 C   0  0  0  0  0  0  0  0  0  0  0  0
   -3.3820   -2.2180    0.9672 C   0  0  0  0  0  0  0  0  0  0  0  0
    1.8641   -0.7152   -0.4492 N   0  0  0  0  0  0  0  0  0  0  0  0
    2.6550   -1.4996   -1.2757 N   0  0  0  0  0  0  0  0  0  0  0  0
    4.4540    0.9353   -2.7316 H   0  0  0  0  0  0  0  0  0  0  0  0
    3.0276    2.3113   -1.2619 H   0  0  0  0  0  0  0  0  0  0  0  0
    1.5325    3.4357    0.7380 H   0  0  0  0  0  0  0  0  0  0  0  0
    2.8758    2.3970    1.2714 H   0  0  0  0  0  0  0  0  0  0  0  0
    1.7732    1.6970    3.2149 H   0  0  0  0  0  0  0  0  0  0  0  0
    1.0788    3.3242    3.0869 H   0  0  0  0  0  0  0  0  0  0  0  0
   -0.6071    1.2433    3.2147 H   0  0  0  0  0  0  0  0  0  0  0  0
   -0.8939    2.4614    1.9503 H   0  0  0  0  0  0  0  0  0  0  0  0
    0.5882   -0.1986    1.7202 H   0  0  0  0  0  0  0  0  0  0  0  0
   -0.8168   -0.4291   -0.3700 H   0  0  0  0  0  0  0  0  0  0  0  0
   -1.5097    1.1787   -0.0633 H   0  0  0  0  0  0  0  0  0  0  0  0
   -3.7009    0.8436   -0.5115 H   0  0  0  0  0  0  0  0  0  0  0  0
   -5.5752   -0.3209   -1.6156 H   0  0  0  0  0  0  0  0  0  0  0  0
   -6.0702   -2.6922   -1.0612 H   0  0  0  0  0  0  0  0  0  0  0  0
   -4.6774   -3.9025    0.6007 H   0  0  0  0  0  0  0  0  0  0  0  0
   -2.7785   -2.7465    1.7003 H   0  0  0  0  0  0  0  0  0  0  0  0
  1  2  1  0
  2  3  1  0
  2  4  1  0
  2  5  1  0
  5  6  2  0
  6  7  1  0
  7  8  2  0
  8  9  1  0
  9 10  1  0
 10 11  1  0
 11 12  1  0
 12 13  1  0
 13 14  1  0
 14 15  1  0
 15 16  1  0
 16 17  2  0
 17 18  1  0
 18 19  2  0
 19 20  1  0
 20 21  2  0
  8 22  1  0
 22 23  2  0
 23  5  1  0
 13  9  1  0
 21 16  1  0
  6 24  1  0
  7 25  1  0
 10 26  1  0
 10 27  1  0
 11 28  1  0
 11 29  1  0
 12 30  1  0
 12 31  1  0
 13 32  1  1
 14 33  1  0
 14 34  1  0
 17 35  1  0
 18 36  1  0
 19 37  1  0
 20 38  1  0
 21 39  1  0
M  END
$$$$
OCNT-2311493
     RDKit          3D

 48 51  0  0  0  0  0  0  0  0999 V2000
   -3.0470   -3.4578   -0.5880 C   0  0  0  0  0  0  0  0  0  0  0  0
   -3.4107   -2.0020   -0.4903 C   0  0  0  0  0  0  0  0  0  0  0  0
   -4.3785   -1.5846   -1.3467 N   0  0  0  0  0  0  0  0  0  0  0  0
   -4.7204   -0.2776   -1.2480 C   0  0  0  0  0  0  0  0  0  0  0  0
   -4.1416    0.6073   -0.3464 C   0  0  0  0  0  0  0  0  0  0  0  0
   -3.1374    0.1904    0.5280 C   0  0  0  0  0  0  0  0  0  0  0  0
   -2.7705   -1.1571    0.4241 C   0  0  0  0  0  0  0  0  0  0  0  0
   -1.7180   -1.6709    1.3202 C   0  0  0  0  0  0  0  0  0  0  0  0
   -2.0429   -2.4791    2.1849 O   0  0  0  0  0  0  0  0  0  0  0  0
   -0.4177   -1.1992    1.1540 N   0  0  0  0  0  0  0  0  0  0  0  0
    0.0408   -0.3970    0.0148 C   0  0  0  0  0  0  0  0  0  0  0  0
    1.4722   -0.7491   -0.3750 C   0  0  0  0  0  0  0  0  0  0  0  0
    2.4526   -0.5564    0.7919 C   0  0  0  0  0  0  0  0  0  0  0  0
    3.0495    0.7467    0.7297 O   0  0  0  0  0  0  0  0  0  0  0  0
    4.1918    0.9201    0.0005 C   0  0  0  0  0  0  0  0  0  0  0  0
    4.8203    2.1544    0.1953 C   0  0  0  0  0  0  0  0  0  0  0  0
    5.9941    2.4743   -0.4909 C   0  0  0  0  0  0  0  0  0  0  0  0
    6.5398    1.5561   -1.3825 C   0  0  0  0  0  0  0  0  0  0  0  0
    7.9840    1.9412   -2.2331 Cl  0  0  0  0  0  0  0  0  0  0  0  0
    5.9183    0.3269   -1.5921 C   0  0  0  0  0  0  0  0  0  0  0  0
    4.7423    0.0093   -0.9024 C   0  0  0  0  0  0  0  0  0  0  0  0
    1.7604   -0.6509    2.1594 C   0  0  0  0  0  0  0  0  0  0  0  0
    0.5893   -1.6177    2.1256 C   0  0  0  0  0  0  0  0  0  0  0  0
   -4.7778    1.8030   -0.5652 N   0  0  0  0  0  0  0  0  0  0  0  0
   -4.5508    3.0515    0.1233 C   0  0  0  0  0  0  0  0  0  0  0  0
   -5.6945    1.7643   -1.5566 N   0  0  0  0  0  0  0  0  0  0  0  0
   -5.6626    0.4887   -1.9590 C   0  0  0  0  0  0  0  0  0  0  0  0
   -3.3279   -3.9844    0.3289 H   0  0  0  0  0  0  0  0  0  0  0  0
   -3.5756   -3.9330   -1.4214 H   0  0  0  0  0  0  0  0  0  0  0  0
   -1.9737   -3.5763   -0.7667 H   0  0  0  0  0  0  0  0  0  0  0  0
   -2.6743    0.8556    1.2474 H   0  0  0  0  0  0  0  0  0  0  0  0
   -0.0306    0.6576    0.3053 H   0  0  0  0  0  0  0  0  0  0  0  0
   -0.6149   -0.5532   -0.8468 H   0  0  0  0  0  0  0  0  0  0  0  0
    1.4954   -1.8035   -0.6794 H   0  0  0  0  0  0  0  0  0  0  0  0
    1.7653   -0.1527   -1.2458 H   0  0  0  0  0  0  0  0  0  0  0  0
    3.2235   -1.3367    0.7639 H   0  0  0  0  0  0  0  0  0  0  0  0
    4.3932    2.8726    0.8916 H   0  0  0  0  0  0  0  0  0  0  0  0
    6.4716    3.4359   -0.3248 H   0  0  0  0  0  0  0  0  0  0  0  0
    6.3405   -0.3883   -2.2935 H   0  0  0  0  0  0  0  0  0  0  0  0
    4.2805   -0.9508   -1.1055 H   0  0  0  0  0  0  0  0  0  0  0  0
    1.4098    0.3408    2.4761 H   0  0  0  0  0  0  0  0  0  0  0  0
    2.4904   -0.9637    2.9156 H   0  0  0  0  0  0  0  0  0  0  0  0
    0.9226   -2.6236    1.8437 H   0  0  0  0  0  0  0  0  0  0  0  0
    0.1316   -1.6891    3.1185 H   0  0  0  0  0  0  0  0  0  0  0  0
   -5.5045    3.5752    0.2301 H   0  0  0  0  0  0  0  0  0  0  0  0
   -3.8538    3.6452   -0.4729 H   0  0  0  0  0  0  0  0  0  0  0  0
   -4.1338    2.8540    1.1133 H   0  0  0  0  0  0  0  0  0  0  0  0
   -6.3203    0.1641   -2.7531 H   0  0  0  0  0  0  0  0  0  0  0  0
  1  2  1  0
  2  3  2  0
  3  4  1  0
  4  5  2  0
  5  6  1  0
  6  7  2  0
  7  8  1  0
  8  9  2  0
  8 10  1  0
 10 11  1  0
 11 12  1  0
 12 13  1  0
 13 14  1  0
 14 15  1  0
 15 16  1  0
 16 17  2  0
 17 18  1  0
 18 19  1  0
 18 20  2  0
 20 21  1  0
 13 22  1  0
 22 23  1  0
  5 24  1  0
 24 25  1  0
 24 26  1  0
 26 27  2  0
  7  2  1  0
 23 10  1  0
 27  4  1  0
 21 15  2  0
  1 28  1  0
  1 29  1  0
  1 30  1  0
  6 31  1  0
 11 32  1  0
 11 33  1  0
 12 34  1  0
 12 35  1  0
 13 36  1  0
 16 37  1  0
 17 38  1  0
 20 39  1  0
 21 40  1  0
 22 41  1  0
 22 42  1  0
 23 43  1  0
 23 44  1  0
 25 45  1  0
 25 46  1  0
 25 47  1  0
 27 48  1  0
M  END
$$$$
OCNT-2311508
     RDKit          3D

 47 48  0  0  0  0  0  0  0  0999 V2000
   -5.0454    1.1290   -1.9524 C   0  0  0  0  0  0  0  0  0  0  0  0
   -4.4694    0.4258   -0.7136 C   0  0  0  0  0  0  0  0  0  0  0  0
   -5.6381   -0.1307    0.1225 C   0  0  0  0  0  0  0  0  0  0  0  0
   -3.5355   -0.7190   -1.1563 C   0  0  0  0  0  0  0  0  0  0  0  0
   -2.7179   -1.2878    0.0040 C   0  0  0  0  0  0  0  0  0  0  0  0
   -2.0176   -0.1682    0.7835 C   0  0  0  0  0  0  0  0  0  0  0  0
   -1.3151   -0.6764    2.0342 C   0  0  0  0  0  0  0  0  0  0  0  0
    0.3178   -1.3260    1.7324 S   0  0  0  0  0  0  0  0  0  0  0  0
    0.8443   -1.7743    3.0037 O   0  0  0  0  0  0  0  0  0  0  0  0
    0.2994   -2.2008    0.5831 O   0  0  0  0  0  0  0  0  0  0  0  0
    1.1951    0.0477    1.3634 N   0  0  0  0  0  0  0  0  0  0  0  0
    1.5560    0.3311   -0.0263 C   0  0  0  0  0  0  0  0  0  0  0  0
    2.9921   -0.0217   -0.3151 C   0  0  0  0  0  0  0  0  0  0  0  0
    3.3406   -1.3150   -0.7263 C   0  0  0  0  0  0  0  0  0  0  0  0
    4.6733   -1.6463   -0.9760 C   0  0  0  0  0  0  0  0  0  0  0  0
    5.6782   -0.6929   -0.8037 C   0  0  0  0  0  0  0  0  0  0  0  0
    5.3506    0.5960   -0.3683 C   0  0  0  0  0  0  0  0  0  0  0  0
    6.3802    1.6494   -0.1614 C   0  0  0  0  0  0  0  0  0  0  0  0
    7.6683    1.2437    0.0529 N   0  0  0  0  0  0  0  0  0  0  0  0
    6.0868    2.8384   -0.1453 O   0  0  0  0  0  0  0  0  0  0  0  0
    4.0088    0.9280   -0.1325 C   0  0  0  0  0  0  0  0  0  0  0  0
   -3.0024    0.7888    1.2166 O   0  0  0  0  0  0  0  0  0  0  0  0
   -3.6611    1.4321    0.1234 C   0  0  0  0  0  0  0  0  0  0  0  0
   -4.2488    1.5487   -2.5770 H   0  0  0  0  0  0  0  0  0  0  0  0
   -5.6209    0.4312   -2.5708 H   0  0  0  0  0  0  0  0  0  0  0  0
   -5.7108    1.9516   -1.6670 H   0  0  0  0  0  0  0  0  0  0  0  0
   -6.2063   -0.8771   -0.4440 H   0  0  0  0  0  0  0  0  0  0  0  0
   -6.3325    0.6691    0.4047 H   0  0  0  0  0  0  0  0  0  0  0  0
   -5.2973   -0.6048    1.0483 H   0  0  0  0  0  0  0  0  0  0  0  0
   -2.8354   -0.3460   -1.9161 H   0  0  0  0  0  0  0  0  0  0  0  0
   -4.1083   -1.5244   -1.6323 H   0  0  0  0  0  0  0  0  0  0  0  0
   -1.9959   -2.0081   -0.3907 H   0  0  0  0  0  0  0  0  0  0  0  0
   -3.3889   -1.8428    0.6703 H   0  0  0  0  0  0  0  0  0  0  0  0
   -1.3092    0.3563    0.1334 H   0  0  0  0  0  0  0  0  0  0  0  0
   -1.8923   -1.4735    2.5162 H   0  0  0  0  0  0  0  0  0  0  0  0
   -1.2023    0.1188    2.7806 H   0  0  0  0  0  0  0  0  0  0  0  0
    1.9223    0.2372    2.0555 H   0  0  0  0  0  0  0  0  0  0  0  0
    1.4081    1.4054   -0.1934 H   0  0  0  0  0  0  0  0  0  0  0  0
    0.8869   -0.1584   -0.7419 H   0  0  0  0  0  0  0  0  0  0  0  0
    2.5717   -2.0760   -0.8568 H   0  0  0  0  0  0  0  0  0  0  0  0
    4.9259   -2.6508   -1.3085 H   0  0  0  0  0  0  0  0  0  0  0  0
    6.7032   -0.9675   -1.0329 H   0  0  0  0  0  0  0  0  0  0  0  0
    7.8943    0.2997    0.3304 H   0  0  0  0  0  0  0  0  0  0  0  0
    8.3193    1.9719    0.3191 H   0  0  0  0  0  0  0  0  0  0  0  0
    3.7599    1.9360    0.1980 H   0  0  0  0  0  0  0  0  0  0  0  0
   -2.9118    1.9528   -0.4861 H   0  0  0  0  0  0  0  0  0  0  0  0
   -4.3199    2.1999    0.5445 H   0  0  0  0  0  0  0  0  0  0  0  0
  1  2  1  0
  2  3  1  0
  2  4  1  0
  4  5  1  0
  5  6  1  0
  6  7  1  0
  7  8  1  0
  8  9  2  0
  8 10  2  0
  8 11  1  0
 11 12  1  0
 12 13  1  0
 13 14  2  0
 14 15  1  0
 15 16  2  0
 16 17  1  0
 17 18  1  0
 18 19  1  0
 18 20  2  0
 17 21  2  0
  6 22  1  0
 22 23  1  0
 23  2  1  0
 21 13  1  0
  1 24  1  0
  1 25  1  0
  1 26  1  0
  3 27  1  0
  3 28  1  0
  3 29  1  0
  4 30  1  0
  4 31  1  0
  5 32  1  0
  5 33  1  0
  6 34  1  0
  7 35  1  0
  7 36  1  0
 11 37  1  0
 12 38  1  0
 12 39  1  0
 14 40  1  0
 15 41  1  0
 16 42  1  0
 19 43  1  0
 19 44  1  0
 21 45  1  0
 23 46  1  0
 23 47  1  0
M  END
$$$$
OCNT-2311532
     RDKit          3D

 39 41  0  0  0  0  0  0  0  0999 V2000
   -5.8818    0.4737   -0.8215 C   0  0  0  0  0  0  0  0  0  0  0  0
   -4.6309   -0.3942   -0.7127 C   0  0  2  0  0  0  0  0  0  0  0  0
   -4.8800   -1.4097    0.2616 O   0  0  0  0  0  0  0  0  0  0  0  0
   -3.3447    0.3166   -0.3387 C   0  0  0  0  0  0  0  0  0  0  0  0
   -3.2280    1.7103   -0.2619 C   0  0  0  0  0  0  0  0  0  0  0  0
   -2.0087    2.3074    0.0628 C   0  0  0  0  0  0  0  0  0  0  0  0
   -0.8839    1.5210    0.3128 C   0  0  0  0  0  0  0  0  0  0  0  0
   -0.9551    0.1229    0.2434 C   0  0  0  0  0  0  0  0  0  0  0  0
    0.2270   -0.7119    0.5136 C   0  0  0  0  0  0  0  0  0  0  0  0
    0.1773   -1.7518    1.4524 C   0  0  0  0  0  0  0  0  0  0  0  0
    1.3043   -2.5262    1.7034 C   0  0  0  0  0  0  0  0  0  0  0  0
    1.2374   -3.5148    2.6049 F   0  0  0  0  0  0  0  0  0  0  0  0
    2.5023   -2.2947    1.0372 C   0  0  0  0  0  0  0  0  0  0  0  0
    2.5874   -1.2651    0.0936 C   0  0  0  0  0  0  0  0  0  0  0  0
    3.8768   -1.0059   -0.6436 C   0  0  0  0  0  0  0  0  0  0  0  0
    4.4329    0.2971   -0.3226 N   0  0  0  0  0  0  0  0  0  0  0  0
    4.5085    1.3767   -1.1594 C   0  0  0  0  0  0  0  0  0  0  0  0
    5.1476    2.3486   -0.4254 C   0  0  0  0  0  0  0  0  0  0  0  0
    5.4674    1.8836    0.8238 N   0  0  0  0  0  0  0  0  0  0  0  0
    5.0263    0.6462    0.8574 C   0  0  0  0  0  0  0  0  0  0  0  0
    1.4427   -0.4863   -0.1605 C   0  0  0  0  0  0  0  0  0  0  0  0
   -2.1929   -0.4571   -0.0871 C   0  0  0  0  0  0  0  0  0  0  0  0
   -6.7548   -0.1429   -1.0632 H   0  0  0  0  0  0  0  0  0  0  0  0
   -6.1047    0.9687    0.1306 H   0  0  0  0  0  0  0  0  0  0  0  0
   -5.7803    1.2358   -1.6005 H   0  0  0  0  0  0  0  0  0  0  0  0
   -4.4680   -0.8922   -1.6765 H   0  0  0  0  0  0  0  0  0  0  0  0
   -5.6759   -1.8907   -0.0185 H   0  0  0  0  0  0  0  0  0  0  0  0
   -4.0797    2.3592   -0.4460 H   0  0  0  0  0  0  0  0  0  0  0  0
   -1.9357    3.3902    0.1284 H   0  0  0  0  0  0  0  0  0  0  0  0
    0.0502    2.0109    0.5810 H   0  0  0  0  0  0  0  0  0  0  0  0
   -0.7345   -1.9599    2.0064 H   0  0  0  0  0  0  0  0  0  0  0  0
    3.3557   -2.9259    1.2684 H   0  0  0  0  0  0  0  0  0  0  0  0
    3.7076   -1.0562   -1.7254 H   0  0  0  0  0  0  0  0  0  0  0  0
    4.6422   -1.7504   -0.3950 H   0  0  0  0  0  0  0  0  0  0  0  0
    4.1184    1.3695   -2.1673 H   0  0  0  0  0  0  0  0  0  0  0  0
    5.3980    3.3564   -0.7305 H   0  0  0  0  0  0  0  0  0  0  0  0
    5.1081   -0.0286    1.6999 H   0  0  0  0  0  0  0  0  0  0  0  0
    1.4946    0.3124   -0.9009 H   0  0  0  0  0  0  0  0  0  0  0  0
   -2.2733   -1.5425   -0.1500 H   0  0  0  0  0  0  0  0  0  0  0  0
  1  2  1  0
  2  3  1  0
  2  4  1  0
  4  5  2  0
  5  6  1  0
  6  7  2  0
  7  8  1  0
  8  9  1  0
  9 10  1  0
 10 11  2  0
 11 12  1  0
 11 13  1  0
 13 14  2  0
 14 15  1  0
 15 16  1  0
 16 17  1  0
 17 18  2  0
 18 19  1  0
 19 20  2  0
 14 21  1  0
  8 22  2  0
 22  4  1  0
 21  9  2  0
 20 16  1  0
  1 23  1  0
  1 24  1  0
  1 25  1  0
  2 26  1  6
  3 27  1  0
  5 28  1  0
  6 29  1  0
  7 30  1  0
 10 31  1  0
 13 32  1  0
 15 33  1  0
 15 34  1  0
 17 35  1  0
 18 36  1  0
 20 37  1  0
 21 38  1  0
 22 39  1  0
M  END
$$$$
OCNT-2311542
     RDKit          3D

 53 55  0  0  0  0  0  0  0  0999 V2000
    4.2190   -0.0303    2.1705 O   0  0  0  0  0  0  0  0  0  0  0  0
    3.1264   -0.5471    1.9364 C   0  0  0  0  0  0  0  0  0  0  0  0
    2.7734   -1.6383    2.6904 N   0  0  0  0  0  0  0  0  0  0  0  0
    1.5213   -2.3490    2.6174 C   0  0  0  0  0  0  0  0  0  0  0  0
    0.3540   -1.5004    3.1102 C   0  0  0  0  0  0  0  0  0  0  0  0
    0.3311   -0.0986    2.4996 C   0  0  0  0  0  0  0  0  0  0  0  0
    0.7213   -0.1178    1.0917 N   0  0  0  0  0  0  0  0  0  0  0  0
   -0.1688   -0.2601    0.0302 C   0  0  0  0  0  0  0  0  0  0  0  0
    0.2213   -0.3501   -1.1338 O   0  0  0  0  0  0  0  0  0  0  0  0
   -1.6545   -0.2789    0.3661 C   0  0  0  0  0  0  0  0  0  0  0  0
   -2.5232   -0.5269   -0.8724 C   0  0  0  0  0  0  0  0  0  0  0  0
   -4.0221   -0.6975   -0.5447 C   0  0  0  0  0  0  0  0  0  0  0  0
   -4.8054   -1.1466   -1.7906 C   0  0  0  0  0  0  0  0  0  0  0  0
   -5.0262   -0.0006   -2.7722 C   0  0  0  0  0  0  0  0  0  0  0  0
   -5.6732    1.0967   -2.1293 O   0  0  0  0  0  0  0  0  0  0  0  0
   -4.8992    1.6289   -1.0560 C   0  0  0  0  0  0  0  0  0  0  0  0
   -4.6768    0.5727    0.0210 C   0  0  0  0  0  0  0  0  0  0  0  0
    2.1833   -0.0992    0.7747 C   0  0  0  0  0  0  0  0  0  0  0  0
    2.5930    1.2986    0.2515 C   0  0  0  0  0  0  0  0  0  0  0  0
    3.6768    1.2569   -0.8037 C   0  0  0  0  0  0  0  0  0  0  0  0
    5.0074    1.5507   -0.4810 C   0  0  0  0  0  0  0  0  0  0  0  0
    6.0009    1.5039   -1.4605 C   0  0  0  0  0  0  0  0  0  0  0  0
    5.6745    1.1636   -2.7718 C   0  0  0  0  0  0  0  0  0  0  0  0
    4.3543    0.8678   -3.1044 C   0  0  0  0  0  0  0  0  0  0  0  0
    3.3602    0.9133   -2.1259 C   0  0  0  0  0  0  0  0  0  0  0  0
    3.4500   -1.8845    3.4041 H   0  0  0  0  0  0  0  0  0  0  0  0
    1.6148   -3.2525    3.2288 H   0  0  0  0  0  0  0  0  0  0  0  0
    1.3636   -2.6681    1.5812 H   0  0  0  0  0  0  0  0  0  0  0  0
    0.3909   -1.4041    4.2020 H   0  0  0  0  0  0  0  0  0  0  0  0
   -0.5775   -2.0282    2.8747 H   0  0  0  0  0  0  0  0  0  0  0  0
   -0.6680    0.3298    2.6192 H   0  0  0  0  0  0  0  0  0  0  0  0
    1.0081    0.5769    3.0360 H   0  0  0  0  0  0  0  0  0  0  0  0
   -1.9074    0.6905    0.8061 H   0  0  0  0  0  0  0  0  0  0  0  0
   -1.8426   -1.0709    1.0973 H   0  0  0  0  0  0  0  0  0  0  0  0
   -2.3697    0.2872   -1.5900 H   0  0  0  0  0  0  0  0  0  0  0  0
   -2.1688   -1.4400   -1.3691 H   0  0  0  0  0  0  0  0  0  0  0  0
   -4.1054   -1.4920    0.2088 H   0  0  0  0  0  0  0  0  0  0  0  0
   -5.7866   -1.5109   -1.4593 H   0  0  0  0  0  0  0  0  0  0  0  0
   -4.3046   -1.9834   -2.2899 H   0  0  0  0  0  0  0  0  0  0  0  0
   -4.0866    0.3398   -3.2213 H   0  0  0  0  0  0  0  0  0  0  0  0
   -5.6748   -0.3346   -3.5885 H   0  0  0  0  0  0  0  0  0  0  0  0
   -3.9536    2.0234   -1.4440 H   0  0  0  0  0  0  0  0  0  0  0  0
   -5.4556    2.4724   -0.6348 H   0  0  0  0  0  0  0  0  0  0  0  0
   -5.6565    0.2895    0.4285 H   0  0  0  0  0  0  0  0  0  0  0  0
   -4.1027    0.9916    0.8523 H   0  0  0  0  0  0  0  0  0  0  0  0
    2.3376   -0.8446   -0.0176 H   0  0  0  0  0  0  0  0  0  0  0  0
    2.9045    1.9450    1.0825 H   0  0  0  0  0  0  0  0  0  0  0  0
    1.7314    1.8147   -0.1932 H   0  0  0  0  0  0  0  0  0  0  0  0
    5.2818    1.8084    0.5402 H   0  0  0  0  0  0  0  0  0  0  0  0
    7.0306    1.7296   -1.1967 H   0  0  0  0  0  0  0  0  0  0  0  0
    6.4489    1.1265   -3.5329 H   0  0  0  0  0  0  0  0  0  0  0  0
    4.0964    0.5998   -4.1254 H   0  0  0  0  0  0  0  0  0  0  0  0
    2.3333    0.6769   -2.4006 H   0  0  0  0  0  0  0  0  0  0  0  0
  1  2  2  0
  2  3  1  0
  3  4  1  0
  4  5  1  0
  5  6  1  0
  6  7  1  0
  7  8  1  0
  8  9  2  0
  8 10  1  0
 10 11  1  0
 11 12  1  0
 12 13  1  0
 13 14  1  0
 14 15  1  0
 15 16  1  0
 16 17  1  0
  7 18  1  0
 18 19  1  0
 19 20  1  0
 20 21  2  0
 21 22  1  0
 22 23  2  0
 23 24  1  0
 24 25  2  0
 18  2  1  0
 25 20  1  0
 17 12  1  0
  3 26  1  0
  4 27  1  0
  4 28  1  0
  5 29  1  0
  5 30  1  0
  6 31  1  0
  6 32  1  0
 10 33  1  0
 10 34  1  0
 11 35  1  0
 11 36  1  0
 12 37  1  0
 13 38  1  0
 13 39  1  0
 14 40  1  0
 14 41  1  0
 16 42  1  0
 16 43  1  0
 17 44  1  0
 17 45  1  0
 18 46  1  0
 19 47  1  0
 19 48  1  0
 21 49  1  0
 22 50  1  0
 23 51  1  0
 24 52  1  0
 25 53  1  0
M  END
$$$$
OCNT-2311547
     RDKit          3D

 40 43  0  0  0  0  0  0  0  0999 V2000
    7.1597   -0.3043    1.0849 C   0  0  0  0  0  0  0  0  0  0  0  0
    5.8542   -0.2993    1.5658 C   0  0  0  0  0  0  0  0  0  0  0  0
    4.7742   -0.2730    0.6754 C   0  0  0  0  0  0  0  0  0  0  0  0
    4.9759   -0.2512   -0.7087 C   0  0  0  0  0  0  0  0  0  0  0  0
    3.9355   -0.2243   -1.6574 N   0  0  0  0  0  0  0  0  0  0  0  0
    2.5907   -0.2124   -1.5569 C   0  0  0  0  0  0  0  0  0  0  0  0
    1.7708   -0.1857   -2.6170 N   0  0  0  0  0  0  0  0  0  0  0  0
    0.4963   -0.1825   -2.0538 O   0  0  0  0  0  0  0  0  0  0  0  0
    0.6735   -0.2078   -0.7015 C   0  0  0  0  0  0  0  0  0  0  0  0
   -0.5256   -0.2098    0.1259 C   0  0  0  0  0  0  0  0  0  0  0  0
   -0.4253   -0.2333    1.5011 C   0  0  0  0  0  0  0  0  0  0  0  0
   -1.6139   -0.2297    2.1851 C   0  0  0  0  0  0  0  0  0  0  0  0
   -2.8145   -0.2062    1.5810 N   0  0  0  0  0  0  0  0  0  0  0  0
   -2.8226   -0.1921    0.2353 C   0  0  0  0  0  0  0  0  0  0  0  0
   -4.1464   -0.1329   -0.4950 C   0  0  0  0  0  0  0  0  0  0  0  0
   -5.2947   -0.8551    0.2144 C   0  0  0  0  0  0  0  0  0  0  0  0
   -5.9499    0.1843    1.1259 C   0  0  0  0  0  0  0  0  0  0  0  0
   -5.4236    1.5478    0.6826 C   0  0  0  0  0  0  0  0  0  0  0  0
   -4.6700    1.2979   -0.6183 C   0  0  0  0  0  0  0  0  0  0  0  0
   -1.7117   -0.1860   -0.5227 N   0  0  0  0  0  0  0  0  0  0  0  0
    1.9417   -0.2267   -0.3516 N   0  0  0  0  0  0  0  0  0  0  0  0
    6.3038   -0.2567   -1.1721 C   0  0  0  0  0  0  0  0  0  0  0  0
    7.3858   -0.2830   -0.2867 C   0  0  0  0  0  0  0  0  0  0  0  0
    7.9969   -0.3247    1.7773 H   0  0  0  0  0  0  0  0  0  0  0  0
    5.6693   -0.3158    2.6368 H   0  0  0  0  0  0  0  0  0  0  0  0
    3.7746   -0.2700    1.0964 H   0  0  0  0  0  0  0  0  0  0  0  0
    4.2734   -0.2112   -2.6118 H   0  0  0  0  0  0  0  0  0  0  0  0
    0.5275   -0.2518    2.0137 H   0  0  0  0  0  0  0  0  0  0  0  0
   -1.6398   -0.2447    3.2709 H   0  0  0  0  0  0  0  0  0  0  0  0
   -3.9960   -0.5696   -1.4900 H   0  0  0  0  0  0  0  0  0  0  0  0
   -6.0324   -1.1780   -0.5314 H   0  0  0  0  0  0  0  0  0  0  0  0
   -4.9804   -1.7474    0.7657 H   0  0  0  0  0  0  0  0  0  0  0  0
   -5.6971    0.0023    2.1763 H   0  0  0  0  0  0  0  0  0  0  0  0
   -7.0410    0.1341    1.0428 H   0  0  0  0  0  0  0  0  0  0  0  0
   -6.2309    2.2750    0.5505 H   0  0  0  0  0  0  0  0  0  0  0  0
   -4.7446    1.9500    1.4435 H   0  0  0  0  0  0  0  0  0  0  0  0
   -3.8847    2.0419   -0.7866 H   0  0  0  0  0  0  0  0  0  0  0  0
   -5.3746    1.3589   -1.4573 H   0  0  0  0  0  0  0  0  0  0  0  0
    6.5134   -0.2405   -2.2390 H   0  0  0  0  0  0  0  0  0  0  0  0
    8.4022   -0.2867   -0.6712 H   0  0  0  0  0  0  0  0  0  0  0  0
  1  2  2  0
  2  3  1  0
  3  4  2  0
  4  5  1  0
  5  6  1  0
  6  7  2  0
  7  8  1  0
  8  9  1  0
  9 10  1  0
 10 11  1  0
 11 12  2  0
 12 13  1  0
 13 14  2  0
 14 15  1  0
 15 16  1  0
 16 17  1  0
 17 18  1  0
 18 19  1  0
 14 20  1  0
  9 21  2  0
  4 22  1  0
 22 23  2  0
 23  1  1  0
 21  6  1  0
 20 10  2  0
 19 15  1  0
  1 24  1  0
  2 25  1  0
  3 26  1  0
  5 27  1  0
 11 28  1  0
 12 29  1  0
 15 30  1  0
 16 31  1  0
 16 32  1  0
 17 33  1  0
 17 34  1  0
 18 35  1  0
 18 36  1  0
 19 37  1  0
 19 38  1  0
 22 39  1  0
 23 40  1  0
M  END
$$$$
OCNT-2311552
     RDKit          3D

 44 47  0  0  0  0  0  0  0  0999 V2000
    0.8443   -3.0829    1.0664 C   0  0  0  0  0  0  0  0  0  0  0  0
    2.1136   -2.4058    0.7359 C   0  0  0  0  0  0  0  0  0  0  0  0
    2.5395   -1.0938    0.7227 C   0  0  0  0  0  0  0  0  0  0  0  0
    1.7784    0.0776    1.0877 C   0  0  0  0  0  0  0  0  0  0  0  0
    2.2330    0.9785    1.7859 O   0  0  0  0  0  0  0  0  0  0  0  0
    0.4918    0.0902    0.6167 N   0  0  0  0  0  0  0  0  0  0  0  0
   -0.3715    1.2236    0.8245 C   0  0  0  0  0  0  0  0  0  0  0  0
   -1.7372    0.8652    0.3469 C   0  0  0  0  0  0  0  0  0  0  0  0
   -2.1143   -0.2759   -0.2106 N   0  0  0  0  0  0  0  0  0  0  0  0
   -3.4479   -0.1289   -0.4634 C   0  0  0  0  0  0  0  0  0  0  0  0
   -3.8895    1.1080   -0.0607 C   0  0  0  0  0  0  0  0  0  0  0  0
   -5.2677    1.6335   -0.1858 C   0  0  0  0  0  0  0  0  0  0  0  0
   -6.2329    0.4621   -0.4694 C   0  0  0  0  0  0  0  0  0  0  0  0
   -5.6693   -0.5408   -1.5021 C   0  0  0  0  0  0  0  0  0  0  0  0
   -4.3302   -1.1660   -1.0543 C   0  0  0  0  0  0  0  0  0  0  0  0
   -2.7956    1.7404    0.4500 N   0  0  0  0  0  0  0  0  0  0  0  0
    3.9083   -1.1751    0.3277 C   0  0  0  0  0  0  0  0  0  0  0  0
    4.8464   -0.0796    0.0901 C   0  0  0  0  0  0  0  0  0  0  0  0
    6.1957   -0.2154    0.4050 C   0  0  0  0  0  0  0  0  0  0  0  0
    7.0502    0.8561    0.1613 C   0  0  0  0  0  0  0  0  0  0  0  0
    6.5370    2.0236   -0.3906 C   0  0  0  0  0  0  0  0  0  0  0  0
    5.1853    2.0700   -0.6857 C   0  0  0  0  0  0  0  0  0  0  0  0
    4.3309    1.0466   -0.4667 N   0  0  0  0  0  0  0  0  0  0  0  0
    4.2723   -2.4588    0.1517 N   0  0  0  0  0  0  0  0  0  0  0  0
    3.1479   -3.2156    0.3945 O   0  0  0  0  0  0  0  0  0  0  0  0
    0.0941   -2.8930    0.2920 H   0  0  0  0  0  0  0  0  0  0  0  0
    0.9818   -4.1674    1.1413 H   0  0  0  0  0  0  0  0  0  0  0  0
    0.4529   -2.7286    2.0243 H   0  0  0  0  0  0  0  0  0  0  0  0
    0.1693   -0.6027   -0.0487 H   0  0  0  0  0  0  0  0  0  0  0  0
   -0.3818    1.4797    1.8908 H   0  0  0  0  0  0  0  0  0  0  0  0
    0.0286    2.0727    0.2614 H   0  0  0  0  0  0  0  0  0  0  0  0
   -5.3066    2.3496   -1.0140 H   0  0  0  0  0  0  0  0  0  0  0  0
   -5.5763    2.1585    0.7253 H   0  0  0  0  0  0  0  0  0  0  0  0
   -6.4335   -0.0766    0.4669 H   0  0  0  0  0  0  0  0  0  0  0  0
   -7.1925    0.8585   -0.8196 H   0  0  0  0  0  0  0  0  0  0  0  0
   -6.4008   -1.3372   -1.6811 H   0  0  0  0  0  0  0  0  0  0  0  0
   -5.5236   -0.0186   -2.4565 H   0  0  0  0  0  0  0  0  0  0  0  0
   -3.8423   -1.6514   -1.9045 H   0  0  0  0  0  0  0  0  0  0  0  0
   -4.5241   -1.9377   -0.2985 H   0  0  0  0  0  0  0  0  0  0  0  0
   -2.7598    2.6727    0.8388 H   0  0  0  0  0  0  0  0  0  0  0  0
    6.5775   -1.1342    0.8400 H   0  0  0  0  0  0  0  0  0  0  0  0
    8.1044    0.7792    0.4063 H   0  0  0  0  0  0  0  0  0  0  0  0
    7.1757    2.8790   -0.5873 H   0  0  0  0  0  0  0  0  0  0  0  0
    4.7382    2.9607   -1.1173 H   0  0  0  0  0  0  0  0  0  0  0  0
  1  2  1  0
  2  3  2  0
  3  4  1  0
  4  5  2  0
  4  6  1  0
  6  7  1  0
  7  8  1  0
  8  9  2  0
  9 10  1  0
 10 11  2  0
 11 12  1  0
 12 13  1  0
 13 14  1  0
 14 15  1  0
 11 16  1  0
  3 17  1  0
 17 18  1  0
 18 19  2  0
 19 20  1  0
 20 21  2  0
 21 22  1  0
 22 23  2  0
 17 24  2  0
 24 25  1  0
 25  2  1  0
 16  8  1  0
 23 18  1  0
 15 10  1  0
  1 26  1  0
  1 27  1  0
  1 28  1  0
  6 29  1  0
  7 30  1  0
  7 31  1  0
 12 32  1  0
 12 33  1  0
 13 34  1  0
 13 35  1  0
 14 36  1  0
 14 37  1  0
 15 38  1  0
 15 39  1  0
 16 40  1  0
 19 41  1  0
 20 42  1  0
 21 43  1  0
 22 44  1  0
M  END
$$$$
OCNT-2311554
     RDKit          3D

 42 44  0  0  0  0  0  0  0  0999 V2000
   -2.8826   -1.2739    3.3499 C   0  0  0  0  0  0  0  0  0  0  0  0
   -3.3478   -0.6328    2.0937 C   0  0  0  0  0  0  0  0  0  0  0  0
   -2.9780    0.5417    1.4715 C   0  0  0  0  0  0  0  0  0  0  0  0
   -1.7626    1.6721    2.0268 S   0  0  0  0  0  0  0  0  0  0  0  0
   -0.2422    0.8057    1.5173 C   0  0  0  0  0  0  0  0  0  0  0  0
   -0.0241    0.8768    0.0038 C   0  0  0  0  0  0  0  0  0  0  0  0
    1.1457    0.1265   -0.4383 N   0  0  0  0  0  0  0  0  0  0  0  0
    2.4168    0.6036   -0.1696 C   0  0  0  0  0  0  0  0  0  0  0  0
    2.6173    1.6129    0.4918 O   0  0  0  0  0  0  0  0  0  0  0  0
    3.3710   -0.2240   -0.7288 N   0  0  0  0  0  0  0  0  0  0  0  0
    4.7290    0.0394   -0.6707 C   0  0  0  0  0  0  0  0  0  0  0  0
    5.4348    1.1242   -0.1953 C   0  0  0  0  0  0  0  0  0  0  0  0
    6.7880    0.8127   -0.4125 C   0  0  0  0  0  0  0  0  0  0  0  0
    6.9488   -0.3794   -0.9886 N   0  0  0  0  0  0  0  0  0  0  0  0
    5.6882   -0.8325   -1.1358 N   0  0  0  0  0  0  0  0  0  0  0  0
    5.4783   -2.1286   -1.7354 C   0  0  0  0  0  0  0  0  0  0  0  0
   -3.7668    0.7001    0.2963 C   0  0  0  0  0  0  0  0  0  0  0  0
   -3.8608    1.6781   -0.7172 C   0  0  0  0  0  0  0  0  0  0  0  0
   -4.7691    1.4998   -1.7668 C   0  0  0  0  0  0  0  0  0  0  0  0
   -5.5792    0.3684   -1.8188 C   0  0  0  0  0  0  0  0  0  0  0  0
   -5.5093   -0.6139   -0.8265 C   0  0  0  0  0  0  0  0  0  0  0  0
   -4.5958   -0.4196    0.2167 C   0  0  0  0  0  0  0  0  0  0  0  0
   -4.3269   -1.2038    1.3157 N   0  0  0  0  0  0  0  0  0  0  0  0
   -3.5626   -2.0706    3.6691 H   0  0  0  0  0  0  0  0  0  0  0  0
   -1.8903   -1.7131    3.2074 H   0  0  0  0  0  0  0  0  0  0  0  0
   -2.8247   -0.5419    4.1617 H   0  0  0  0  0  0  0  0  0  0  0  0
   -0.2760   -0.2363    1.8531 H   0  0  0  0  0  0  0  0  0  0  0  0
    0.5913    1.2776    2.0465 H   0  0  0  0  0  0  0  0  0  0  0  0
    0.0916    1.9155   -0.3278 H   0  0  0  0  0  0  0  0  0  0  0  0
   -0.8718    0.4396   -0.5330 H   0  0  0  0  0  0  0  0  0  0  0  0
    1.0533   -0.3100   -1.3435 H   0  0  0  0  0  0  0  0  0  0  0  0
    3.0544   -1.1167   -1.0735 H   0  0  0  0  0  0  0  0  0  0  0  0
    5.0339    2.0227    0.2521 H   0  0  0  0  0  0  0  0  0  0  0  0
    7.6614    1.4063   -0.1752 H   0  0  0  0  0  0  0  0  0  0  0  0
    5.0064   -2.7779   -0.9938 H   0  0  0  0  0  0  0  0  0  0  0  0
    6.4382   -2.5519   -2.0427 H   0  0  0  0  0  0  0  0  0  0  0  0
    4.8329   -2.0057   -2.6087 H   0  0  0  0  0  0  0  0  0  0  0  0
   -3.2380    2.5675   -0.6815 H   0  0  0  0  0  0  0  0  0  0  0  0
   -4.8441    2.2556   -2.5448 H   0  0  0  0  0  0  0  0  0  0  0  0
   -6.2814    0.2490   -2.6407 H   0  0  0  0  0  0  0  0  0  0  0  0
   -6.1477   -1.4905   -0.8673 H   0  0  0  0  0  0  0  0  0  0  0  0
   -4.7996   -2.0729    1.5217 H   0  0  0  0  0  0  0  0  0  0  0  0
  1  2  1  0
  2  3  2  0
  3  4  1  0
  4  5  1  0
  5  6  1  0
  6  7  1  0
  7  8  1  0
  8  9  2  0
  8 10  1  0
 10 11  1  0
 11 12  2  0
 12 13  1  0
 13 14  2  0
 14 15  1  0
 15 16  1  0
  3 17  1  0
 17 18  2  0
 18 19  1  0
 19 20  2  0
 20 21  1  0
 21 22  2  0
 22 23  1  0
 23  2  1  0
 15 11  1  0
 22 17  1  0
  1 24  1  0
  1 25  1  0
  1 26  1  0
  5 27  1  0
  5 28  1  0
  6 29  1  0
  6 30  1  0
  7 31  1  0
 10 32  1  0
 12 33  1  0
 13 34  1  0
 16 35  1  0
 16 36  1  0
 16 37  1  0
 18 38  1  0
 19 39  1  0
 20 40  1  0
 21 41  1  0
 23 42  1  0
M  END
$$$$
OCNT-2311559
     RDKit          3D

 43 45  0  0  0  0  0  0  0  0999 V2000
   -6.9885   -1.6330   -0.2701 C   0  0  0  0  0  0  0  0  0  0  0  0
   -5.8609   -1.3471   -1.2251 C   0  0  0  0  0  0  0  0  0  0  0  0
   -5.6551   -2.0377   -2.2176 O   0  0  0  0  0  0  0  0  0  0  0  0
   -5.0905   -0.2622   -0.8765 N   0  0  0  0  0  0  0  0  0  0  0  0
   -3.8953    0.0714   -1.6289 C   0  0  0  0  0  0  0  0  0  0  0  0
   -3.2936    1.4205   -1.2291 C   0  0  0  0  0  0  0  0  0  0  0  0
   -2.5518    1.3758    0.0851 C   0  0  0  0  0  0  0  0  0  0  0  0
   -1.1537    1.2425    0.1115 C   0  0  0  0  0  0  0  0  0  0  0  0
   -0.4437    1.1968    1.3254 C   0  0  0  0  0  0  0  0  0  0  0  0
    1.0113    1.0574    1.2956 C   0  0  0  0  0  0  0  0  0  0  0  0
    1.8547    1.3635    2.3430 C   0  0  0  0  0  0  0  0  0  0  0  0
    3.4798    1.0792    1.8892 S   0  0  0  0  0  0  0  0  0  0  0  0
    2.9602    0.5325    0.3356 C   0  0  0  0  0  0  0  0  0  0  0  0
    3.7805    0.1522   -0.6720 N   0  0  0  0  0  0  0  0  0  0  0  0
    5.0352   -0.4846   -0.6428 C   0  0  0  0  0  0  0  0  0  0  0  0
    5.8503   -0.3813   -1.7851 C   0  0  0  0  0  0  0  0  0  0  0  0
    7.1243   -0.9541   -1.8207 C   0  0  0  0  0  0  0  0  0  0  0  0
    7.5964   -1.6338   -0.7080 C   0  0  0  0  0  0  0  0  0  0  0  0
    8.8163   -2.1853   -0.7370 F   0  0  0  0  0  0  0  0  0  0  0  0
    6.8177   -1.7502    0.4345 C   0  0  0  0  0  0  0  0  0  0  0  0
    5.5433   -1.1737    0.4665 C   0  0  0  0  0  0  0  0  0  0  0  0
    1.6597    0.6148    0.1513 N   0  0  0  0  0  0  0  0  0  0  0  0
   -1.1636    1.2739    2.5271 C   0  0  0  0  0  0  0  0  0  0  0  0
   -2.5550    1.3996    2.5132 C   0  0  0  0  0  0  0  0  0  0  0  0
   -3.2328    1.4491    1.3005 C   0  0  0  0  0  0  0  0  0  0  0  0
   -4.5704    1.5461    1.3114 F   0  0  0  0  0  0  0  0  0  0  0  0
   -7.9007   -1.8262   -0.8414 H   0  0  0  0  0  0  0  0  0  0  0  0
   -6.7352   -2.5109    0.3299 H   0  0  0  0  0  0  0  0  0  0  0  0
   -7.1763   -0.7868    0.3967 H   0  0  0  0  0  0  0  0  0  0  0  0
   -5.1874    0.1143    0.0603 H   0  0  0  0  0  0  0  0  0  0  0  0
   -3.1749   -0.7445   -1.4976 H   0  0  0  0  0  0  0  0  0  0  0  0
   -4.1738    0.0977   -2.6890 H   0  0  0  0  0  0  0  0  0  0  0  0
   -2.5981    1.7424   -2.0147 H   0  0  0  0  0  0  0  0  0  0  0  0
   -4.0723    2.1923   -1.1813 H   0  0  0  0  0  0  0  0  0  0  0  0
   -0.6051    1.1752   -0.8281 H   0  0  0  0  0  0  0  0  0  0  0  0
    1.6223    1.7476    3.3248 H   0  0  0  0  0  0  0  0  0  0  0  0
    3.3087    0.0423   -1.5632 H   0  0  0  0  0  0  0  0  0  0  0  0
    5.4985    0.1644   -2.6581 H   0  0  0  0  0  0  0  0  0  0  0  0
    7.7477   -0.8680   -2.7046 H   0  0  0  0  0  0  0  0  0  0  0  0
    7.2009   -2.2916    1.2935 H   0  0  0  0  0  0  0  0  0  0  0  0
    4.9475   -1.3103    1.3638 H   0  0  0  0  0  0  0  0  0  0  0  0
   -0.6624    1.2213    3.4898 H   0  0  0  0  0  0  0  0  0  0  0  0
   -3.1141    1.4520    3.4425 H   0  0  0  0  0  0  0  0  0  0  0  0
  1  2  1  0
  2  3  2  0
  2  4  1  0
  4  5  1  0
  5  6  1  0
  6  7  1  0
  7  8  1  0
  8  9  2  0
  9 10  1  0
 10 11  2  0
 11 12  1  0
 12 13  1  0
 13 14  1  0
 14 15  1  0
 15 16  1  0
 16 17  2  0
 17 18  1  0
 18 19  1  0
 18 20  2  0
 20 21  1  0
 13 22  2  0
  9 23  1  0
 23 24  2  0
 24 25  1  0
 25 26  1  0
 25  7  2  0
 22 10  1  0
 21 15  2  0
  1 27  1  0
  1 28  1  0
  1 29  1  0
  4 30  1  0
  5 31  1  0
  5 32  1  0
  6 33  1  0
  6 34  1  0
  8 35  1  0
 11 36  1  0
 14 37  1  0
 16 38  1  0
 17 39  1  0
 20 40  1  0
 21 41  1  0
 23 42  1  0
 24 43  1  0
M  END
$$$$
OCNT-2311562
     RDKit          3D

 44 46  0  0  0  0  0  0  0  0999 V2000
    0.1655    0.5802   -1.5119 C   0  0  0  0  0  0  0  0  0  0  0  0
   -0.2355    0.5584   -0.0356 C   0  0  0  0  0  0  0  0  0  0  0  0
    0.5622   -0.4816    0.7762 C   0  0  0  0  0  0  0  0  0  0  0  0
    2.0001   -0.2291    0.7973 N   0  0  0  0  0  0  0  0  0  0  0  0
    2.4204    0.7684    1.6489 N   0  0  0  0  0  0  0  0  0  0  0  0
    3.6842    1.0499    1.6898 C   0  0  0  0  0  0  0  0  0  0  0  0
    4.6976    0.3786    0.8869 C   0  0  0  0  0  0  0  0  0  0  0  0
    6.0444    0.7311    0.9866 C   0  0  0  0  0  0  0  0  0  0  0  0
    6.9818    0.0636    0.1963 C   0  0  0  0  0  0  0  0  0  0  0  0
    6.5704   -0.9430   -0.6815 C   0  0  0  0  0  0  0  0  0  0  0  0
    5.2192   -1.2864   -0.7725 C   0  0  0  0  0  0  0  0  0  0  0  0
    4.2797   -0.6188    0.0194 C   0  0  0  0  0  0  0  0  0  0  0  0
    2.8448   -0.9495   -0.0488 C   0  0  0  0  0  0  0  0  0  0  0  0
    2.4617   -1.8175   -0.8295 O   0  0  0  0  0  0  0  0  0  0  0  0
   -1.6747    0.2928    0.0737 N   0  0  0  0  0  0  0  0  0  0  0  0
   -2.6087    1.2976   -0.0498 C   0  0  0  0  0  0  0  0  0  0  0  0
   -2.3125    2.4892   -0.1457 O   0  0  0  0  0  0  0  0  0  0  0  0
   -4.0952    0.8618   -0.0408 C   0  0  0  0  0  0  0  0  0  0  0  0
   -4.9354    2.0039   -0.2316 O   0  0  0  0  0  0  0  0  0  0  0  0
   -4.4894    0.1853    1.2817 C   0  0  0  0  0  0  0  0  0  0  0  0
   -5.3832   -0.9789    0.8722 C   0  0  0  0  0  0  0  0  0  0  0  0
   -4.7689   -1.4498   -0.4329 C   0  0  0  0  0  0  0  0  0  0  0  0
   -4.4186   -0.1525   -1.1529 C   0  0  0  0  0  0  0  0  0  0  0  0
    0.0156   -0.4011   -1.9754 H   0  0  0  0  0  0  0  0  0  0  0  0
   -0.4391    1.3020   -2.0719 H   0  0  0  0  0  0  0  0  0  0  0  0
    1.2145    0.8651   -1.6370 H   0  0  0  0  0  0  0  0  0  0  0  0
   -0.0459    1.5554    0.3812 H   0  0  0  0  0  0  0  0  0  0  0  0
    0.3703   -1.4876    0.3836 H   0  0  0  0  0  0  0  0  0  0  0  0
    0.2132   -0.4868    1.8169 H   0  0  0  0  0  0  0  0  0  0  0  0
    4.0157    1.8483    2.3745 H   0  0  0  0  0  0  0  0  0  0  0  0
    6.3712    1.5136    1.6662 H   0  0  0  0  0  0  0  0  0  0  0  0
    8.0356    0.3266    0.2617 H   0  0  0  0  0  0  0  0  0  0  0  0
    7.3031   -1.4611   -1.2969 H   0  0  0  0  0  0  0  0  0  0  0  0
    4.9026   -2.0701   -1.4579 H   0  0  0  0  0  0  0  0  0  0  0  0
   -1.9803   -0.6634   -0.0540 H   0  0  0  0  0  0  0  0  0  0  0  0
   -4.3424    2.7831   -0.1810 H   0  0  0  0  0  0  0  0  0  0  0  0
   -3.6167   -0.2051    1.8176 H   0  0  0  0  0  0  0  0  0  0  0  0
   -5.0207    0.8609    1.9606 H   0  0  0  0  0  0  0  0  0  0  0  0
   -5.4096   -1.7675    1.6295 H   0  0  0  0  0  0  0  0  0  0  0  0
   -6.4087   -0.6286    0.7054 H   0  0  0  0  0  0  0  0  0  0  0  0
   -3.8622   -2.0337   -0.2368 H   0  0  0  0  0  0  0  0  0  0  0  0
   -5.4541   -2.0730   -1.0148 H   0  0  0  0  0  0  0  0  0  0  0  0
   -5.2805    0.1803   -1.7447 H   0  0  0  0  0  0  0  0  0  0  0  0
   -3.5914   -0.3109   -1.8529 H   0  0  0  0  0  0  0  0  0  0  0  0
  1  2  1  0
  2  3  1  0
  3  4  1  0
  4  5  1  0
  5  6  2  0
  6  7  1  0
  7  8  2  0
  8  9  1  0
  9 10  2  0
 10 11  1  0
 11 12  2  0
 12 13  1  0
 13 14  2  0
  2 15  1  0
 15 16  1  0
 16 17  2  0
 16 18  1  0
 18 19  1  0
 18 20  1  0
 20 21  1  0
 21 22  1  0
 22 23  1  0
 13  4  1  0
 23 18  1  0
 12  7  1  0
  1 24  1  0
  1 25  1  0
  1 26  1  0
  2 27  1  0
  3 28  1  0
  3 29  1  0
  6 30  1  0
  8 31  1  0
  9 32  1  0
 10 33  1  0
 11 34  1  0
 15 35  1  0
 19 36  1  0
 20 37  1  0
 20 38  1  0
 21 39  1  0
 21 40  1  0
 22 41  1  0
 22 42  1  0
 23 43  1  0
 23 44  1  0
M  END
$$$$
OCNT-2311567
     RDKit          3D

 40 42  0  0  0  0  0  0  0  0999 V2000
   -0.9999   -1.6157   -1.5382 C   0  0  0  0  0  0  0  0  0  0  0  0
   -2.3487   -0.4563   -1.5971 S   0  0  0  0  0  0  0  0  0  0  0  0
   -2.2814    0.2153   -2.8802 O   0  0  0  0  0  0  0  0  0  0  0  0
   -3.5488   -1.1562   -1.1915 O   0  0  0  0  0  0  0  0  0  0  0  0
   -1.8950    0.6581   -0.4139 N   0  0  0  0  0  0  0  0  0  0  0  0
   -0.9250    1.7225   -0.7500 C   0  0  0  0  0  0  0  0  0  0  0  0
    0.1613    1.9005    0.3167 C   0  0  0  0  0  0  0  0  0  0  0  0
    0.7458    0.6129    0.7057 N   0  0  0  0  0  0  0  0  0  0  0  0
    1.9521    0.1034    0.2284 C   0  0  0  0  0  0  0  0  0  0  0  0
    2.4159   -0.9439    0.6839 O   0  0  0  0  0  0  0  0  0  0  0  0
    2.6756    0.9014   -0.8540 C   0  0  0  0  0  0  0  0  0  0  0  0
    3.6387    0.0436   -1.6105 C   0  0  0  0  0  0  0  0  0  0  0  0
    4.9415   -0.2956   -1.2998 C   0  0  0  0  0  0  0  0  0  0  0  0
    5.5932   -1.0888   -2.2238 N   0  0  0  0  0  0  0  0  0  0  0  0
    4.7714   -1.3679   -3.2106 C   0  0  0  0  0  0  0  0  0  0  0  0
    3.2021   -0.6850   -3.1038 S   0  0  0  0  0  0  0  0  0  0  0  0
    0.0421   -0.1849    1.7131 C   0  0  0  0  0  0  0  0  0  0  0  0
   -1.4195    0.1205    1.9531 C   0  0  0  0  0  0  0  0  0  0  0  0
   -1.9155   -0.0285    3.2632 C   0  0  0  0  0  0  0  0  0  0  0  0
   -3.2615    0.1964    3.5560 C   0  0  0  0  0  0  0  0  0  0  0  0
   -4.1393    0.5647    2.5429 C   0  0  0  0  0  0  0  0  0  0  0  0
   -3.6702    0.7042    1.2382 C   0  0  0  0  0  0  0  0  0  0  0  0
   -2.3224    0.4743    0.9367 C   0  0  0  0  0  0  0  0  0  0  0  0
   -1.1778   -2.3732   -2.3050 H   0  0  0  0  0  0  0  0  0  0  0  0
   -0.0666   -1.0934   -1.7513 H   0  0  0  0  0  0  0  0  0  0  0  0
   -0.9771   -2.0892   -0.5561 H   0  0  0  0  0  0  0  0  0  0  0  0
   -0.4328    1.4892   -1.7005 H   0  0  0  0  0  0  0  0  0  0  0  0
   -1.4645    2.6656   -0.8917 H   0  0  0  0  0  0  0  0  0  0  0  0
   -0.2340    2.3899    1.2149 H   0  0  0  0  0  0  0  0  0  0  0  0
    0.9361    2.5730   -0.0632 H   0  0  0  0  0  0  0  0  0  0  0  0
    1.9546    1.3323   -1.5550 H   0  0  0  0  0  0  0  0  0  0  0  0
    3.2121    1.7235   -0.3667 H   0  0  0  0  0  0  0  0  0  0  0  0
    5.4716    0.0127   -0.4062 H   0  0  0  0  0  0  0  0  0  0  0  0
    5.0633   -1.9894   -4.0470 H   0  0  0  0  0  0  0  0  0  0  0  0
    0.1318   -1.2485    1.4615 H   0  0  0  0  0  0  0  0  0  0  0  0
    0.6027   -0.0297    2.6443 H   0  0  0  0  0  0  0  0  0  0  0  0
   -1.2503   -0.3285    4.0716 H   0  0  0  0  0  0  0  0  0  0  0  0
   -3.6256    0.0758    4.5735 H   0  0  0  0  0  0  0  0  0  0  0  0
   -5.1902    0.7341    2.7627 H   0  0  0  0  0  0  0  0  0  0  0  0
   -4.3662    0.9836    0.4502 H   0  0  0  0  0  0  0  0  0  0  0  0
  1  2  1  0
  2  3  2  0
  2  4  2  0
  2  5  1  0
  5  6  1  0
  6  7  1  0
  7  8  1  0
  8  9  1  0
  9 10  2  0
  9 11  1  0
 11 12  1  0
 12 13  2  0
 13 14  1  0
 14 15  2  0
 15 16  1  0
  8 17  1  0
 17 18  1  0
 18 19  2  0
 19 20  1  0
 20 21  2  0
 21 22  1  0
 22 23  2  0
 23  5  1  0
 16 12  1  0
 23 18  1  0
  1 24  1  0
  1 25  1  0
  1 26  1  0
  6 27  1  0
  6 28  1  0
  7 29  1  0
  7 30  1  0
 11 31  1  0
 11 32  1  0
 13 33  1  0
 15 34  1  0
 17 35  1  0
 17 36  1  0
 19 37  1  0
 20 38  1  0
 21 39  1  0
 22 40  1  0
M  END
$$$$
OCNT-2311573
     RDKit          3D

 39 41  0  0  0  0  0  0  0  0999 V2000
   -1.2782    1.5678   -1.4241 C   0  0  0  0  0  0  0  0  0  0  0  0
   -0.4765    0.2626   -1.5263 C   0  0  0  0  0  0  0  0  0  0  0  0
   -1.1637   -0.9720   -0.8675 C   0  0  0  0  0  0  0  0  0  0  0  0
   -1.6314   -0.9105    0.5687 C   0  0  0  0  0  0  0  0  0  0  0  0
   -2.7980   -0.2179    0.9232 C   0  0  0  0  0  0  0  0  0  0  0  0
   -3.2285   -0.1796    2.2515 C   0  0  0  0  0  0  0  0  0  0  0  0
   -2.5056   -0.8436    3.2412 C   0  0  0  0  0  0  0  0  0  0  0  0
   -1.3593   -1.5535    2.8949 C   0  0  0  0  0  0  0  0  0  0  0  0
   -0.3724   -2.4531    4.2323 Br  0  0  0  0  0  0  0  0  0  0  0  0
   -0.9270   -1.5990    1.5693 C   0  0  0  0  0  0  0  0  0  0  0  0
   -0.3415   -0.0893   -3.0503 C   0  0  0  0  0  0  0  0  0  0  0  0
    0.9780    0.5262   -3.4746 C   0  0  0  0  0  0  0  0  0  0  0  0
    1.8506    0.2600   -2.2609 C   0  0  0  0  0  0  0  0  0  0  0  0
    0.9413    0.4774   -1.1321 N   0  0  0  0  0  0  0  0  0  0  0  0
    1.5037    0.4933    0.1213 C   0  0  0  0  0  0  0  0  0  0  0  0
    0.8819    1.0639    1.2141 C   0  0  0  0  0  0  0  0  0  0  0  0
    1.5436    1.0402    2.4245 C   0  0  0  0  0  0  0  0  0  0  0  0
    2.7602    0.5069    2.5925 N   0  0  0  0  0  0  0  0  0  0  0  0
    3.3039   -0.0073    1.4789 C   0  0  0  0  0  0  0  0  0  0  0  0
    4.6162   -0.5864    1.5951 C   0  0  0  0  0  0  0  0  0  0  0  0
    5.6783   -1.0554    1.6837 N   0  0  0  0  0  0  0  0  0  0  0  0
    2.7371   -0.0304    0.2573 N   0  0  0  0  0  0  0  0  0  0  0  0
   -0.7767    2.3861   -1.9537 H   0  0  0  0  0  0  0  0  0  0  0  0
   -1.4202    1.9045   -0.3964 H   0  0  0  0  0  0  0  0  0  0  0  0
   -2.2741    1.4495   -1.8662 H   0  0  0  0  0  0  0  0  0  0  0  0
   -2.0505   -1.2348   -1.4634 H   0  0  0  0  0  0  0  0  0  0  0  0
   -0.4943   -1.8387   -0.9687 H   0  0  0  0  0  0  0  0  0  0  0  0
   -3.3897    0.2920    0.1659 H   0  0  0  0  0  0  0  0  0  0  0  0
   -4.1337    0.3630    2.5135 H   0  0  0  0  0  0  0  0  0  0  0  0
   -2.8474   -0.8093    4.2722 H   0  0  0  0  0  0  0  0  0  0  0  0
   -0.0292   -2.1590    1.3136 H   0  0  0  0  0  0  0  0  0  0  0  0
   -0.2819   -1.1754   -3.2011 H   0  0  0  0  0  0  0  0  0  0  0  0
   -1.1803    0.2749   -3.6528 H   0  0  0  0  0  0  0  0  0  0  0  0
    1.3812    0.0783   -4.3870 H   0  0  0  0  0  0  0  0  0  0  0  0
    0.8632    1.6037   -3.6398 H   0  0  0  0  0  0  0  0  0  0  0  0
    2.7060    0.9450   -2.2494 H   0  0  0  0  0  0  0  0  0  0  0  0
    2.2139   -0.7752   -2.2711 H   0  0  0  0  0  0  0  0  0  0  0  0
   -0.0892    1.5285    1.1567 H   0  0  0  0  0  0  0  0  0  0  0  0
    1.0903    1.4665    3.3152 H   0  0  0  0  0  0  0  0  0  0  0  0
  1  2  1  0
  2  3  1  0
  3  4  1  0
  4  5  2  0
  5  6  1  0
  6  7  2  0
  7  8  1  0
  8  9  1  0
  8 10  2  0
  2 11  1  0
 11 12  1  0
 12 13  1  0
 13 14  1  0
 14 15  1  0
 15 16  1  0
 16 17  2  0
 17 18  1  0
 18 19  2  0
 19 20  1  0
 20 21  3  0
 19 22  1  0
 14  2  1  0
 22 15  2  0
 10  4  1  0
  1 23  1  0
  1 24  1  0
  1 25  1  0
  3 26  1  0
  3 27  1  0
  5 28  1  0
  6 29  1  0
  7 30  1  0
 10 31  1  0
 11 32  1  0
 11 33  1  0
 12 34  1  0
 12 35  1  0
 13 36  1  0
 13 37  1  0
 16 38  1  0
 17 39  1  0
M  END
$$$$
OCNT-2311574
     RDKit          3D

 44 46  0  0  0  0  0  0  0  0999 V2000
    5.0518   -2.6843    0.7218 C   0  0  0  0  0  0  0  0  0  0  0  0
    3.7770   -1.9147    0.4249 C   0  0  0  0  0  0  0  0  0  0  0  0
    4.1367   -0.5657    0.1373 O   0  0  0  0  0  0  0  0  0  0  0  0
    3.1260    0.3229   -0.1426 C   0  0  0  0  0  0  0  0  0  0  0  0
    1.7656   -0.0169   -0.1974 C   0  0  0  0  0  0  0  0  0  0  0  0
    0.7983    0.9470   -0.4906 C   0  0  0  0  0  0  0  0  0  0  0  0
   -0.5866    0.6850   -0.5631 N   0  0  0  0  0  0  0  0  0  0  0  0
   -1.2366   -0.5295   -0.3705 C   0  0  0  0  0  0  0  0  0  0  0  0
   -0.6945   -1.6011   -0.1175 O   0  0  0  0  0  0  0  0  0  0  0  0
   -2.7592   -0.4018   -0.5169 C   0  0  0  0  0  0  0  0  0  0  0  0
   -3.4103   -1.7725   -0.8499 C   0  0  0  0  0  0  0  0  0  0  0  0
   -4.9515   -1.7111   -0.7951 C   0  0  0  0  0  0  0  0  0  0  0  0
   -5.4743   -1.3305    0.6038 C   0  0  0  0  0  0  0  0  0  0  0  0
   -4.6363   -0.2432    1.1653 C   0  0  0  0  0  0  0  0  0  0  0  0
   -3.4045    0.1748    0.7078 C   0  0  0  0  0  0  0  0  0  0  0  0
   -3.0257    1.1802    1.6181 C   0  0  0  0  0  0  0  0  0  0  0  0
   -3.9548    1.3933    2.5552 N   0  0  0  0  0  0  0  0  0  0  0  0
   -4.9188    0.4992    2.2706 N   0  0  0  0  0  0  0  0  0  0  0  0
    1.2065    2.2630   -0.7286 C   0  0  0  0  0  0  0  0  0  0  0  0
    2.5590    2.6142   -0.6777 C   0  0  0  0  0  0  0  0  0  0  0  0
    3.5268    1.6510   -0.3857 C   0  0  0  0  0  0  0  0  0  0  0  0
    4.8744    1.9002   -0.3151 O   0  0  0  0  0  0  0  0  0  0  0  0
    5.3120    3.2340   -0.5283 C   0  0  0  0  0  0  0  0  0  0  0  0
    5.7342   -2.6447   -0.1337 H   0  0  0  0  0  0  0  0  0  0  0  0
    4.8313   -3.7309    0.9497 H   0  0  0  0  0  0  0  0  0  0  0  0
    5.5806   -2.2409    1.5721 H   0  0  0  0  0  0  0  0  0  0  0  0
    3.2805   -2.3689   -0.4402 H   0  0  0  0  0  0  0  0  0  0  0  0
    3.1231   -1.9566    1.3035 H   0  0  0  0  0  0  0  0  0  0  0  0
    1.4633   -1.0382   -0.0096 H   0  0  0  0  0  0  0  0  0  0  0  0
   -1.1732    1.4816   -0.7803 H   0  0  0  0  0  0  0  0  0  0  0  0
   -2.9645    0.2731   -1.3596 H   0  0  0  0  0  0  0  0  0  0  0  0
   -3.0668   -2.5441   -0.1479 H   0  0  0  0  0  0  0  0  0  0  0  0
   -3.0896   -2.0933   -1.8485 H   0  0  0  0  0  0  0  0  0  0  0  0
   -5.3010   -0.9722   -1.5279 H   0  0  0  0  0  0  0  0  0  0  0  0
   -5.3749   -2.6775   -1.0914 H   0  0  0  0  0  0  0  0  0  0  0  0
   -6.5248   -1.0274    0.5396 H   0  0  0  0  0  0  0  0  0  0  0  0
   -5.4178   -2.2041    1.2638 H   0  0  0  0  0  0  0  0  0  0  0  0
   -2.1213    1.7744    1.6476 H   0  0  0  0  0  0  0  0  0  0  0  0
   -5.7322    0.4551    2.8764 H   0  0  0  0  0  0  0  0  0  0  0  0
    0.4813    3.0397   -0.9582 H   0  0  0  0  0  0  0  0  0  0  0  0
    2.8225    3.6484   -0.8712 H   0  0  0  0  0  0  0  0  0  0  0  0
    5.0715    3.5712   -1.5419 H   0  0  0  0  0  0  0  0  0  0  0  0
    6.4011    3.2498   -0.4231 H   0  0  0  0  0  0  0  0  0  0  0  0
    4.8959    3.9120    0.2242 H   0  0  0  0  0  0  0  0  0  0  0  0
  1  2  1  0
  2  3  1  0
  3  4  1  0
  4  5  1  0
  5  6  2  0
  6  7  1  0
  7  8  1  0
  8  9  2  0
  8 10  1  0
 10 11  1  0
 11 12  1  0
 12 13  1  0
 13 14  1  0
 14 15  2  0
 15 16  1  0
 16 17  2  0
 17 18  1  0
  6 19  1  0
 19 20  2  0
 20 21  1  0
 21 22  1  0
 22 23  1  0
 21  4  2  0
 15 10  1  0
 18 14  1  0
  1 24  1  0
  1 25  1  0
  1 26  1  0
  2 27  1  0
  2 28  1  0
  5 29  1  0
  7 30  1  0
 10 31  1  0
 11 32  1  0
 11 33  1  0
 12 34  1  0
 12 35  1  0
 13 36  1  0
 13 37  1  0
 16 38  1  0
 18 39  1  0
 19 40  1  0
 20 41  1  0
 23 42  1  0
 23 43  1  0
 23 44  1  0
M  END
$$$$
OCNT-2311582
     RDKit          3D

 36 38  0  0  0  0  0  0  0  0999 V2000
   -2.1269   -1.6100   -1.9645 O   0  0  0  0  0  0  0  0  0  0  0  0
   -2.0577   -0.6846   -1.1606 C   0  0  0  0  0  0  0  0  0  0  0  0
   -3.3045   -0.2887   -0.4863 C   0  0  0  0  0  0  0  0  0  0  0  0
   -3.7526    1.0256   -0.5174 C   0  0  0  0  0  0  0  0  0  0  0  0
   -4.8983    1.4407    0.0731 N   0  0  0  0  0  0  0  0  0  0  0  0
   -5.6419    0.4858    0.6857 C   0  0  0  0  0  0  0  0  0  0  0  0
   -6.7785    0.8931    1.2719 F   0  0  0  0  0  0  0  0  0  0  0  0
   -5.2879   -0.8594    0.7354 C   0  0  0  0  0  0  0  0  0  0  0  0
   -6.2775   -2.0222    1.5241 Cl  0  0  0  0  0  0  0  0  0  0  0  0
   -4.0979   -1.2555    0.1325 C   0  0  0  0  0  0  0  0  0  0  0  0
   -0.8819   -0.0080   -0.8689 N   0  0  0  0  0  0  0  0  0  0  0  0
    0.3220   -0.3551   -1.6403 C   0  0  0  0  0  0  0  0  0  0  0  0
    1.4034    0.7288   -1.5301 C   0  0  0  0  0  0  0  0  0  0  0  0
    1.8115    0.9664   -0.1246 N   0  0  0  0  0  0  0  0  0  0  0  0
    3.0013    0.3051    0.2431 C   0  0  0  0  0  0  0  0  0  0  0  0
    3.6748    0.7102    1.4023 C   0  0  0  0  0  0  0  0  0  0  0  0
    4.8494    0.0654    1.7895 C   0  0  0  0  0  0  0  0  0  0  0  0
    5.3250   -0.9694    1.0073 C   0  0  0  0  0  0  0  0  0  0  0  0
    6.4486   -1.6140    1.3431 F   0  0  0  0  0  0  0  0  0  0  0  0
    4.6191   -1.3192   -0.1258 C   0  0  0  0  0  0  0  0  0  0  0  0
    3.4755   -0.7059   -0.5194 N   0  0  0  0  0  0  0  0  0  0  0  0
    0.7469    0.7422    0.8836 C   0  0  0  0  0  0  0  0  0  0  0  0
   -0.6665    0.8840    0.2841 C   0  0  0  0  0  0  0  0  0  0  0  0
   -3.1971    1.8025   -1.0366 H   0  0  0  0  0  0  0  0  0  0  0  0
   -3.7888   -2.2977    0.1351 H   0  0  0  0  0  0  0  0  0  0  0  0
    0.0418   -0.5020   -2.6894 H   0  0  0  0  0  0  0  0  0  0  0  0
    0.6890   -1.3138   -1.2552 H   0  0  0  0  0  0  0  0  0  0  0  0
    0.9883    1.6738   -1.9050 H   0  0  0  0  0  0  0  0  0  0  0  0
    2.2496    0.5060   -2.1912 H   0  0  0  0  0  0  0  0  0  0  0  0
    3.2987    1.5406    1.9909 H   0  0  0  0  0  0  0  0  0  0  0  0
    5.3874    0.3694    2.6802 H   0  0  0  0  0  0  0  0  0  0  0  0
    4.9640   -2.1244   -0.7655 H   0  0  0  0  0  0  0  0  0  0  0  0
    0.8276   -0.2667    1.3127 H   0  0  0  0  0  0  0  0  0  0  0  0
    0.8590    1.4655    1.6997 H   0  0  0  0  0  0  0  0  0  0  0  0
   -1.4094    0.6827    1.0617 H   0  0  0  0  0  0  0  0  0  0  0  0
   -0.8157    1.9088   -0.0757 H   0  0  0  0  0  0  0  0  0  0  0  0
  1  2  2  0
  2  3  1  0
  3  4  1  0
  4  5  2  0
  5  6  1  0
  6  7  1  0
  6  8  2  0
  8  9  1  0
  8 10  1  0
  2 11  1  0
 11 12  1  0
 12 13  1  0
 13 14  1  0
 14 15  1  0
 15 16  2  0
 16 17  1  0
 17 18  2  0
 18 19  1  0
 18 20  1  0
 20 21  2  0
 14 22  1  0
 22 23  1  0
 10  3  2  0
 23 11  1  0
 21 15  1  0
  4 24  1  0
 10 25  1  0
 12 26  1  0
 12 27  1  0
 13 28  1  0
 13 29  1  0
 16 30  1  0
 17 31  1  0
 20 32  1  0
 22 33  1  0
 22 34  1  0
 23 35  1  0
 23 36  1  0
M  END
$$$$
OCNT-2311588
     RDKit          3D

 43 45  0  0  0  0  0  0  0  0999 V2000
   -6.6862   -1.1378   -0.8629 C   0  0  0  0  0  0  0  0  0  0  0  0
   -5.5414   -0.4138   -0.2194 C   0  0  0  0  0  0  0  0  0  0  0  0
   -5.7586    0.7633    0.4979 C   0  0  0  0  0  0  0  0  0  0  0  0
   -4.6847    1.4278    1.0837 C   0  0  0  0  0  0  0  0  0  0  0  0
   -3.3839    0.9348    0.9361 C   0  0  0  0  0  0  0  0  0  0  0  0
   -3.1247   -0.2091    0.1754 C   0  0  0  0  0  0  0  0  0  0  0  0
   -1.8601   -0.7847    0.0346 N   0  0  0  0  0  0  0  0  0  0  0  0
   -0.6282   -0.0272    0.2636 C   0  0  0  0  0  0  0  0  0  0  0  0
    0.5362   -1.0199    0.3698 C   0  0  0  0  0  0  0  0  0  0  0  0
    1.8574   -0.2862    0.5578 C   0  0  0  0  0  0  0  0  0  0  0  0
    2.0656    0.7285   -0.4746 N   0  0  0  0  0  0  0  0  0  0  0  0
    3.3313    1.1020   -0.9337 C   0  0  0  0  0  0  0  0  0  0  0  0
    3.5754    2.1275   -1.5607 O   0  0  0  0  0  0  0  0  0  0  0  0
    4.5052    0.1961   -0.6090 C   0  0  0  0  0  0  0  0  0  0  0  0
    4.5454   -0.9980   -1.1199 N   0  0  0  0  0  0  0  0  0  0  0  0
    5.6314   -1.7613   -0.7797 N   0  0  0  0  0  0  0  0  0  0  0  0
    6.6630   -1.3715    0.0384 C   0  0  0  0  0  0  0  0  0  0  0  0
    7.6106   -2.0955    0.3190 O   0  0  0  0  0  0  0  0  0  0  0  0
    6.5734   -0.0013    0.5838 C   0  0  0  0  0  0  0  0  0  0  0  0
    5.5323    0.7775    0.2805 C   0  0  0  0  0  0  0  0  0  0  0  0
    0.9672    1.6636   -0.6926 C   0  0  0  0  0  0  0  0  0  0  0  0
   -0.3640    0.9484   -0.8862 C   0  0  0  0  0  0  0  0  0  0  0  0
   -4.2278   -0.8860   -0.3714 C   0  0  0  0  0  0  0  0  0  0  0  0
   -6.5048   -2.2177   -0.8793 H   0  0  0  0  0  0  0  0  0  0  0  0
   -7.6157   -0.9739   -0.3076 H   0  0  0  0  0  0  0  0  0  0  0  0
   -6.8219   -0.7851   -1.8899 H   0  0  0  0  0  0  0  0  0  0  0  0
   -6.7637    1.1602    0.6180 H   0  0  0  0  0  0  0  0  0  0  0  0
   -4.8577    2.3298    1.6647 H   0  0  0  0  0  0  0  0  0  0  0  0
   -2.5843    1.4742    1.4315 H   0  0  0  0  0  0  0  0  0  0  0  0
   -1.8108   -1.3892   -0.7830 H   0  0  0  0  0  0  0  0  0  0  0  0
   -0.6812    0.5144    1.2156 H   0  0  0  0  0  0  0  0  0  0  0  0
    0.5881   -1.6355   -0.5383 H   0  0  0  0  0  0  0  0  0  0  0  0
    0.3728   -1.7083    1.2078 H   0  0  0  0  0  0  0  0  0  0  0  0
    1.8716    0.2334    1.5238 H   0  0  0  0  0  0  0  0  0  0  0  0
    2.6716   -1.0125    0.5794 H   0  0  0  0  0  0  0  0  0  0  0  0
    5.6781   -2.6927   -1.1809 H   0  0  0  0  0  0  0  0  0  0  0  0
    7.3872    0.3255    1.2175 H   0  0  0  0  0  0  0  0  0  0  0  0
    5.4214    1.7934    0.6338 H   0  0  0  0  0  0  0  0  0  0  0  0
    1.1699    2.2931   -1.5659 H   0  0  0  0  0  0  0  0  0  0  0  0
    0.9242    2.3251    0.1813 H   0  0  0  0  0  0  0  0  0  0  0  0
   -1.1663    1.6909   -0.9626 H   0  0  0  0  0  0  0  0  0  0  0  0
   -0.3494    0.4034   -1.8395 H   0  0  0  0  0  0  0  0  0  0  0  0
   -4.0637   -1.8056   -0.9295 H   0  0  0  0  0  0  0  0  0  0  0  0
  1  2  1  0
  2  3  2  0
  3  4  1  0
  4  5  2  0
  5  6  1  0
  6  7  1  0
  7  8  1  0
  8  9  1  0
  9 10  1  0
 10 11  1  0
 11 12  1  0
 12 13  2  0
 12 14  1  0
 14 15  2  0
 15 16  1  0
 16 17  1  0
 17 18  2  0
 17 19  1  0
 19 20  2  0
 11 21  1  0
 21 22  1  0
  6 23  2  0
 23  2  1  0
 22  8  1  0
 20 14  1  0
  1 24  1  0
  1 25  1  0
  1 26  1  0
  3 27  1  0
  4 28  1  0
  5 29  1  0
  7 30  1  0
  8 31  1  0
  9 32  1  0
  9 33  1  0
 10 34  1  0
 10 35  1  0
 16 36  1  0
 19 37  1  0
 20 38  1  0
 21 39  1  0
 21 40  1  0
 22 41  1  0
 22 42  1  0
 23 43  1  0
M  END
$$$$
OCNT-2311592
     RDKit          3D

 42 44  0  0  0  0  0  0  0  0999 V2000
    7.9701   -0.2238   -0.4672 C   0  0  0  0  0  0  0  0  0  0  0  0
    7.0956   -1.1481    0.1673 O   0  0  0  0  0  0  0  0  0  0  0  0
    5.7876   -0.7700    0.2975 C   0  0  0  0  0  0  0  0  0  0  0  0
    5.2302    0.4276   -0.1492 C   0  0  0  0  0  0  0  0  0  0  0  0
    3.8697    0.6877    0.0494 C   0  0  0  0  0  0  0  0  0  0  0  0
    3.0509   -0.2442    0.6997 C   0  0  0  0  0  0  0  0  0  0  0  0
    1.5817    0.0362    0.8890 C   0  0  0  0  0  0  0  0  0  0  0  0
    0.7680   -0.3554   -0.3469 C   0  0  0  0  0  0  0  0  0  0  0  0
   -0.6549   -0.1260   -0.1655 N   0  0  0  0  0  0  0  0  0  0  0  0
   -1.1857    1.1441   -0.2643 C   0  0  0  0  0  0  0  0  0  0  0  0
   -0.5281    2.1378   -0.5464 O   0  0  0  0  0  0  0  0  0  0  0  0
   -2.6360    1.2669    0.0345 C   0  0  0  0  0  0  0  0  0  0  0  0
   -3.0891    2.4279    0.6678 C   0  0  0  0  0  0  0  0  0  0  0  0
   -4.4399    2.5674    0.9756 C   0  0  0  0  0  0  0  0  0  0  0  0
   -5.3393    1.5551    0.6334 C   0  0  0  0  0  0  0  0  0  0  0  0
   -4.9087    0.3982   -0.0353 C   0  0  0  0  0  0  0  0  0  0  0  0
   -5.8929   -0.6214   -0.3974 C   0  0  0  0  0  0  0  0  0  0  0  0
   -7.0878   -0.7948    0.1372 N   0  0  0  0  0  0  0  0  0  0  0  0
   -7.6007   -1.8585   -0.5463 C   0  0  0  0  0  0  0  0  0  0  0  0
   -6.8045   -2.3625   -1.4896 N   0  0  0  0  0  0  0  0  0  0  0  0
   -5.7371   -1.5544   -1.3898 N   0  0  0  0  0  0  0  0  0  0  0  0
   -3.5437    0.2594   -0.3282 C   0  0  0  0  0  0  0  0  0  0  0  0
    3.6131   -1.4459    1.1422 C   0  0  0  0  0  0  0  0  0  0  0  0
    4.9716   -1.7023    0.9420 C   0  0  0  0  0  0  0  0  0  0  0  0
    7.6683   -0.0430   -1.5041 H   0  0  0  0  0  0  0  0  0  0  0  0
    8.9701   -0.6679   -0.4846 H   0  0  0  0  0  0  0  0  0  0  0  0
    8.0319    0.7129    0.0966 H   0  0  0  0  0  0  0  0  0  0  0  0
    5.8226    1.1815   -0.6565 H   0  0  0  0  0  0  0  0  0  0  0  0
    3.4511    1.6272   -0.3082 H   0  0  0  0  0  0  0  0  0  0  0  0
    1.4428    1.0991    1.1236 H   0  0  0  0  0  0  0  0  0  0  0  0
    1.2109   -0.5071    1.7679 H   0  0  0  0  0  0  0  0  0  0  0  0
    0.8918   -1.4208   -0.5711 H   0  0  0  0  0  0  0  0  0  0  0  0
    1.1022    0.2110   -1.2242 H   0  0  0  0  0  0  0  0  0  0  0  0
   -1.1892   -0.8454    0.3032 H   0  0  0  0  0  0  0  0  0  0  0  0
   -2.3886    3.2189    0.9292 H   0  0  0  0  0  0  0  0  0  0  0  0
   -4.7956    3.4632    1.4792 H   0  0  0  0  0  0  0  0  0  0  0  0
   -6.3938    1.6779    0.8810 H   0  0  0  0  0  0  0  0  0  0  0  0
   -8.5806   -2.2751   -0.3505 H   0  0  0  0  0  0  0  0  0  0  0  0
   -4.9606   -1.6826   -2.0266 H   0  0  0  0  0  0  0  0  0  0  0  0
   -3.1763   -0.6213   -0.8459 H   0  0  0  0  0  0  0  0  0  0  0  0
    3.0032   -2.1911    1.6470 H   0  0  0  0  0  0  0  0  0  0  0  0
    5.3999   -2.6383    1.2925 H   0  0  0  0  0  0  0  0  0  0  0  0
  1  2  1  0
  2  3  1  0
  3  4  1  0
  4  5  2  0
  5  6  1  0
  6  7  1  0
  7  8  1  0
  8  9  1  0
  9 10  1  0
 10 11  2  0
 10 12  1  0
 12 13  1  0
 13 14  2  0
 14 15  1  0
 15 16  2  0
 16 17  1  0
 17 18  2  0
 18 19  1  0
 19 20  2  0
 20 21  1  0
 16 22  1  0
  6 23  2  0
 23 24  1  0
 24  3  2  0
 22 12  2  0
 21 17  1  0
  1 25  1  0
  1 26  1  0
  1 27  1  0
  4 28  1  0
  5 29  1  0
  7 30  1  0
  7 31  1  0
  8 32  1  0
  8 33  1  0
  9 34  1  0
 13 35  1  0
 14 36  1  0
 15 37  1  0
 19 38  1  0
 21 39  1  0
 22 40  1  0
 23 41  1  0
 24 42  1  0
M  END
$$$$
OCNT-2311602
     RDKit          3D

 46 49  0  0  0  0  0  0  0  0999 V2000
   -6.9395    3.2256    1.2135 C   0  0  0  0  0  0  0  0  0  0  0  0
   -6.4666    1.8775    0.8600 C   0  0  0  0  0  0  0  0  0  0  0  0
   -7.1295    0.7441    0.7941 N   0  0  0  0  0  0  0  0  0  0  0  0
   -6.2146   -0.2161    0.4131 N   0  0  0  0  0  0  0  0  0  0  0  0
   -5.0568    0.3990    0.2742 C   0  0  0  0  0  0  0  0  0  0  0  0
   -3.7536   -0.1304   -0.1094 C   0  0  0  0  0  0  0  0  0  0  0  0
   -3.6276   -1.4919   -0.4346 C   0  0  0  0  0  0  0  0  0  0  0  0
   -2.3918   -2.0300   -0.8059 C   0  0  0  0  0  0  0  0  0  0  0  0
   -1.2633   -1.2095   -0.8372 C   0  0  0  0  0  0  0  0  0  0  0  0
    0.0301   -1.7842   -1.2604 C   0  0  0  0  0  0  0  0  0  0  0  0
    0.0864   -2.2927   -2.3774 O   0  0  0  0  0  0  0  0  0  0  0  0
    1.1227   -1.7049   -0.3992 N   0  0  0  0  0  0  0  0  0  0  0  0
    1.0515   -1.4202    1.0305 C   0  0  0  0  0  0  0  0  0  0  0  0
    2.1000   -0.3810    1.4147 C   0  0  0  0  0  0  0  0  0  0  0  0
    3.5054   -0.7092    0.8591 C   0  0  0  0  0  0  0  0  0  0  0  0
    4.1060    0.4237    0.0408 C   0  0  0  0  0  0  0  0  0  0  0  0
    5.3909    0.8923    0.3397 C   0  0  0  0  0  0  0  0  0  0  0  0
    5.9284    1.9188   -0.4235 C   0  0  0  0  0  0  0  0  0  0  0  0
    5.2864    2.5037   -1.4551 N   0  0  0  0  0  0  0  0  0  0  0  0
    4.0531    2.0364   -1.7379 C   0  0  0  0  0  0  0  0  0  0  0  0
    3.4309    1.0170   -1.0315 C   0  0  0  0  0  0  0  0  0  0  0  0
    3.5456   -2.0458    0.0964 C   0  0  0  0  0  0  0  0  0  0  0  0
    2.3964   -2.2163   -0.8957 C   0  0  0  0  0  0  0  0  0  0  0  0
   -1.3712    0.1524   -0.5407 C   0  0  0  0  0  0  0  0  0  0  0  0
   -2.6107    0.6851   -0.1719 C   0  0  0  0  0  0  0  0  0  0  0  0
   -5.1414    1.7418    0.5467 O   0  0  0  0  0  0  0  0  0  0  0  0
   -6.4036    3.6027    2.0895 H   0  0  0  0  0  0  0  0  0  0  0  0
   -8.0085    3.2122    1.4459 H   0  0  0  0  0  0  0  0  0  0  0  0
   -6.7786    3.9187    0.3825 H   0  0  0  0  0  0  0  0  0  0  0  0
   -4.5008   -2.1436   -0.4093 H   0  0  0  0  0  0  0  0  0  0  0  0
   -2.3124   -3.0812   -1.0743 H   0  0  0  0  0  0  0  0  0  0  0  0
    0.0601   -1.0822    1.3385 H   0  0  0  0  0  0  0  0  0  0  0  0
    1.2272   -2.3638    1.5618 H   0  0  0  0  0  0  0  0  0  0  0  0
    1.7603    0.6088    1.0863 H   0  0  0  0  0  0  0  0  0  0  0  0
    2.1487   -0.3246    2.5097 H   0  0  0  0  0  0  0  0  0  0  0  0
    4.1548   -0.8386    1.7372 H   0  0  0  0  0  0  0  0  0  0  0  0
    5.9741    0.4706    1.1519 H   0  0  0  0  0  0  0  0  0  0  0  0
    6.9218    2.3069   -0.2174 H   0  0  0  0  0  0  0  0  0  0  0  0
    3.5578    2.5161   -2.5774 H   0  0  0  0  0  0  0  0  0  0  0  0
    2.4366    0.7003   -1.3273 H   0  0  0  0  0  0  0  0  0  0  0  0
    4.5046   -2.1888   -0.4162 H   0  0  0  0  0  0  0  0  0  0  0  0
    3.4764   -2.8560    0.8355 H   0  0  0  0  0  0  0  0  0  0  0  0
    2.6210   -1.7091   -1.8411 H   0  0  0  0  0  0  0  0  0  0  0  0
    2.2696   -3.2799   -1.1322 H   0  0  0  0  0  0  0  0  0  0  0  0
   -0.5002    0.7994   -0.6044 H   0  0  0  0  0  0  0  0  0  0  0  0
   -2.6759    1.7469    0.0586 H   0  0  0  0  0  0  0  0  0  0  0  0
  1  2  1  0
  2  3  2  0
  3  4  1  0
  4  5  2  0
  5  6  1  0
  6  7  1  0
  7  8  2  0
  8  9  1  0
  9 10  1  0
 10 11  2  0
 10 12  1  0
 12 13  1  0
 13 14  1  0
 14 15  1  0
 15 16  1  0
 16 17  2  0
 17 18  1  0
 18 19  2  0
 19 20  1  0
 20 21  2  0
 15 22  1  0
 22 23  1  0
  9 24  2  0
 24 25  1  0
  5 26  1  0
 26  2  1  0
 25  6  2  0
 23 12  1  0
 21 16  1  0
  1 27  1  0
  1 28  1  0
  1 29  1  0
  7 30  1  0
  8 31  1  0
 13 32  1  0
 13 33  1  0
 14 34  1  0
 14 35  1  0
 15 36  1  0
 17 37  1  0
 18 38  1  0
 20 39  1  0
 21 40  1  0
 22 41  1  0
 22 42  1  0
 23 43  1  0
 23 44  1  0
 24 45  1  0
 25 46  1  0
M  END
$$$$
OCNT-2311610
     RDKit          3D

 45 48  0  0  0  0  0  0  0  0999 V2000
    3.6588   -1.4503   -1.2008 O   0  0  0  0  0  0  0  0  0  0  0  0
    3.2099   -0.6839   -0.3468 C   0  0  0  0  0  0  0  0  0  0  0  0
    4.1153    0.1182    0.5854 C   0  0  0  0  0  0  0  0  0  0  0  0
    5.5091    0.2131    0.0517 C   0  0  0  0  0  0  0  0  0  0  0  0
    6.5532   -0.6849    0.1666 C   0  0  0  0  0  0  0  0  0  0  0  0
    7.7473   -0.2976   -0.4101 N   0  0  0  0  0  0  0  0  0  0  0  0
    7.5880    0.8736   -0.9848 C   0  0  0  0  0  0  0  0  0  0  0  0
    6.0339    1.5836   -0.8403 S   0  0  0  0  0  0  0  0  0  0  0  0
    1.8350   -0.5269   -0.1703 N   0  0  0  0  0  0  0  0  0  0  0  0
    1.2166    0.2385    0.9143 C   0  0  0  0  0  0  0  0  0  0  0  0
   -0.1464   -0.3310    1.2906 C   0  0  0  0  0  0  0  0  0  0  0  0
   -1.1334   -0.3074    0.0979 C   0  0  0  0  0  0  0  0  0  0  0  0
   -0.3741   -0.4246   -1.2504 C   0  0  0  0  0  0  0  0  0  0  0  0
    0.9343   -1.1893   -1.1111 C   0  0  0  0  0  0  0  0  0  0  0  0
   -2.1316   -1.5088    0.2197 C   0  0  0  0  0  0  0  0  0  0  0  0
   -2.9543   -1.5957    1.4391 N   0  0  0  0  0  0  0  0  0  0  0  0
   -3.5586   -0.3195    1.8264 C   0  0  0  0  0  0  0  0  0  0  0  0
   -4.0124    0.5079    0.6580 C   0  0  0  0  0  0  0  0  0  0  0  0
   -5.3719    0.6697    0.3609 C   0  0  0  0  0  0  0  0  0  0  0  0
   -5.7665    1.4590   -0.7214 C   0  0  0  0  0  0  0  0  0  0  0  0
   -4.8084    2.0952   -1.5103 C   0  0  0  0  0  0  0  0  0  0  0  0
   -3.4531    1.9335   -1.2264 C   0  0  0  0  0  0  0  0  0  0  0  0
   -3.0596    1.1227   -0.1640 C   0  0  0  0  0  0  0  0  0  0  0  0
   -1.7212    1.0233    0.0852 O   0  0  0  0  0  0  0  0  0  0  0  0
    4.1303   -0.3847    1.5592 H   0  0  0  0  0  0  0  0  0  0  0  0
    3.7061    1.1247    0.7255 H   0  0  0  0  0  0  0  0  0  0  0  0
    6.4987   -1.6441    0.6677 H   0  0  0  0  0  0  0  0  0  0  0  0
    8.3894    1.3694   -1.5164 H   0  0  0  0  0  0  0  0  0  0  0  0
    1.8654    0.2269    1.7948 H   0  0  0  0  0  0  0  0  0  0  0  0
    1.1289    1.2776    0.5771 H   0  0  0  0  0  0  0  0  0  0  0  0
    0.0029   -1.3604    1.6419 H   0  0  0  0  0  0  0  0  0  0  0  0
   -0.5447    0.2456    2.1331 H   0  0  0  0  0  0  0  0  0  0  0  0
   -0.1533    0.5774   -1.6443 H   0  0  0  0  0  0  0  0  0  0  0  0
   -1.0055   -0.9028   -2.0088 H   0  0  0  0  0  0  0  0  0  0  0  0
    1.4168   -1.2741   -2.0911 H   0  0  0  0  0  0  0  0  0  0  0  0
    0.7604   -2.2068   -0.7426 H   0  0  0  0  0  0  0  0  0  0  0  0
   -2.8030   -1.5215   -0.6500 H   0  0  0  0  0  0  0  0  0  0  0  0
   -1.5647   -2.4463    0.1573 H   0  0  0  0  0  0  0  0  0  0  0  0
   -3.7030   -2.2661    1.2640 H   0  0  0  0  0  0  0  0  0  0  0  0
   -4.4025   -0.5248    2.4965 H   0  0  0  0  0  0  0  0  0  0  0  0
   -2.8552    0.2621    2.4337 H   0  0  0  0  0  0  0  0  0  0  0  0
   -6.1310    0.1899    0.9741 H   0  0  0  0  0  0  0  0  0  0  0  0
   -6.8231    1.5860   -0.9441 H   0  0  0  0  0  0  0  0  0  0  0  0
   -5.1175    2.7200   -2.3443 H   0  0  0  0  0  0  0  0  0  0  0  0
   -2.7052    2.4337   -1.8350 H   0  0  0  0  0  0  0  0  0  0  0  0
  1  2  2  0
  2  3  1  0
  3  4  1  0
  4  5  2  0
  5  6  1  0
  6  7  2  0
  7  8  1  0
  2  9  1  0
  9 10  1  0
 10 11  1  0
 11 12  1  0
 12 13  1  0
 13 14  1  0
 12 15  1  0
 15 16  1  0
 16 17  1  0
 17 18  1  0
 18 19  2  0
 19 20  1  0
 20 21  2  0
 21 22  1  0
 22 23  2  0
 23 24  1  0
  8  4  1  0
 14  9  1  0
 23 18  1  0
 24 12  1  0
  3 25  1  0
  3 26  1  0
  5 27  1  0
  7 28  1  0
 10 29  1  0
 10 30  1  0
 11 31  1  0
 11 32  1  0
 13 33  1  0
 13 34  1  0
 14 35  1  0
 14 36  1  0
 15 37  1  0
 15 38  1  0
 16 39  1  0
 17 40  1  0
 17 41  1  0
 19 42  1  0
 20 43  1  0
 21 44  1  0
 22 45  1  0
M  END
$$$$
OCNT-2311629
     RDKit          3D

 38 40  0  0  0  0  0  0  0  0999 V2000
   -7.9495   -0.3421   -0.6899 C   0  0  0  0  0  0  0  0  0  0  0  0
   -6.7018    0.3131   -0.9240 O   0  0  0  0  0  0  0  0  0  0  0  0
   -5.6324   -0.3405   -0.4042 C   0  0  0  0  0  0  0  0  0  0  0  0
   -5.6717   -1.3918    0.2142 O   0  0  0  0  0  0  0  0  0  0  0  0
   -4.3730    0.4024   -0.6889 C   0  0  0  0  0  0  0  0  0  0  0  0
   -4.3607    1.6080   -1.4021 C   0  0  0  0  0  0  0  0  0  0  0  0
   -3.1551    2.2684   -1.6446 C   0  0  0  0  0  0  0  0  0  0  0  0
   -1.9514    1.7337   -1.1787 C   0  0  0  0  0  0  0  0  0  0  0  0
   -1.9486    0.5281   -0.4636 C   0  0  0  0  0  0  0  0  0  0  0  0
   -0.7367   -0.0332    0.0191 N   0  0  0  0  0  0  0  0  0  0  0  0
    0.5487    0.4464   -0.1063 C   0  0  0  0  0  0  0  0  0  0  0  0
    1.3384   -0.4784    0.5397 C   0  0  0  0  0  0  0  0  0  0  0  0
    2.7827   -0.4504    0.7016 C   0  0  0  0  0  0  0  0  0  0  0  0
    3.5730    0.5859    0.1851 C   0  0  0  0  0  0  0  0  0  0  0  0
    4.9653    0.5863    0.3570 C   0  0  0  0  0  0  0  0  0  0  0  0
    5.5888   -0.4506    1.0488 C   0  0  0  0  0  0  0  0  0  0  0  0
    6.9296   -0.5703    1.2855 O   0  0  0  0  0  0  0  0  0  0  0  0
    7.7682    0.4598    0.7785 C   0  0  0  0  0  0  0  0  0  0  0  0
    4.8090   -1.4852    1.5657 C   0  0  0  0  0  0  0  0  0  0  0  0
    3.4207   -1.4871    1.3951 C   0  0  0  0  0  0  0  0  0  0  0  0
    0.5395   -1.4738    1.0310 N   0  0  0  0  0  0  0  0  0  0  0  0
   -0.7162   -1.1965    0.7113 N   0  0  0  0  0  0  0  0  0  0  0  0
   -3.1639   -0.1348   -0.2209 C   0  0  0  0  0  0  0  0  0  0  0  0
   -8.1473   -0.4178    0.3840 H   0  0  0  0  0  0  0  0  0  0  0  0
   -8.7393    0.2616   -1.1454 H   0  0  0  0  0  0  0  0  0  0  0  0
   -7.9567   -1.3317   -1.1574 H   0  0  0  0  0  0  0  0  0  0  0  0
   -5.2834    2.0459   -1.7759 H   0  0  0  0  0  0  0  0  0  0  0  0
   -3.1551    3.2044   -2.1995 H   0  0  0  0  0  0  0  0  0  0  0  0
   -1.0394    2.2834   -1.3918 H   0  0  0  0  0  0  0  0  0  0  0  0
    0.7804    1.3631   -0.6212 H   0  0  0  0  0  0  0  0  0  0  0  0
    3.1270    1.4128   -0.3603 H   0  0  0  0  0  0  0  0  0  0  0  0
    5.5297    1.4122   -0.0628 H   0  0  0  0  0  0  0  0  0  0  0  0
    7.7151    0.5101   -0.3141 H   0  0  0  0  0  0  0  0  0  0  0  0
    8.7996    0.2158    1.0507 H   0  0  0  0  0  0  0  0  0  0  0  0
    7.5240    1.4264    1.2315 H   0  0  0  0  0  0  0  0  0  0  0  0
    5.2834   -2.3001    2.1075 H   0  0  0  0  0  0  0  0  0  0  0  0
    2.8438   -2.3109    1.8122 H   0  0  0  0  0  0  0  0  0  0  0  0
   -3.1845   -1.0739    0.3333 H   0  0  0  0  0  0  0  0  0  0  0  0
  1  2  1  0
  2  3  1  0
  3  4  2  0
  3  5  1  0
  5  6  1  0
  6  7  2  0
  7  8  1  0
  8  9  2  0
  9 10  1  0
 10 11  1  0
 11 12  2  0
 12 13  1  0
 13 14  1  0
 14 15  2  0
 15 16  1  0
 16 17  1  0
 17 18  1  0
 16 19  2  0
 19 20  1  0
 12 21  1  0
 21 22  2  0
  9 23  1  0
 23  5  2  0
 22 10  1  0
 20 13  2  0
  1 24  1  0
  1 25  1  0
  1 26  1  0
  6 27  1  0
  7 28  1  0
  8 29  1  0
 11 30  1  0
 14 31  1  0
 15 32  1  0
 18 33  1  0
 18 34  1  0
 18 35  1  0
 19 36  1  0
 20 37  1  0
 23 38  1  0
M  END
$$$$
OCNT-2311630
     RDKit          3D

 48 50  0  0  0  0  0  0  0  0999 V2000
    5.9305    0.9813    0.3274 C   0  0  0  0  0  0  0  0  0  0  0  0
    5.2150    0.1456   -0.7237 C   0  0  0  0  0  0  0  0  0  0  0  0
    4.1252   -0.6669   -0.1279 C   0  0  0  0  0  0  0  0  0  0  0  0
    4.2042   -1.6051    0.7904 N   0  0  0  0  0  0  0  0  0  0  0  0
    2.9028   -2.0298    0.9443 C   0  0  0  0  0  0  0  0  0  0  0  0
    2.5674   -3.1148    1.8924 C   0  0  0  0  0  0  0  0  0  0  0  0
    2.0680   -1.3136    0.1032 C   0  0  0  0  0  0  0  0  0  0  0  0
    0.6438   -1.4276   -0.1453 C   0  0  0  0  0  0  0  0  0  0  0  0
    0.0274   -2.4432    0.1868 O   0  0  0  0  0  0  0  0  0  0  0  0
   -0.0406   -0.3742   -0.7720 N   0  0  0  0  0  0  0  0  0  0  0  0
    0.5128    0.9536   -1.0229 C   0  0  0  0  0  0  0  0  0  0  0  0
   -0.5933    1.9984   -1.1814 C   0  0  0  0  0  0  0  0  0  0  0  0
   -1.7447    1.7596   -0.1789 C   0  0  0  0  0  0  0  0  0  0  0  0
   -1.2555    2.0361    1.2457 C   0  0  0  0  0  0  0  0  0  0  0  0
   -0.3448    1.1443    1.6790 F   0  0  0  0  0  0  0  0  0  0  0  0
   -2.2852    2.0407    2.1212 F   0  0  0  0  0  0  0  0  0  0  0  0
   -0.6836    3.2625    1.3145 F   0  0  0  0  0  0  0  0  0  0  0  0
   -2.4123    0.3396   -0.4409 C   0  0  0  0  0  0  0  0  0  0  0  0
   -2.8816   -0.4135    0.8416 C   0  0  0  0  0  0  0  0  0  0  0  0
   -4.3189   -0.0607    1.2020 C   0  0  0  0  0  0  0  0  0  0  0  0
   -5.2452   -0.4682    0.1928 O   0  0  0  0  0  0  0  0  0  0  0  0
   -4.7174   -0.5201   -1.1318 C   0  0  0  0  0  0  0  0  0  0  0  0
   -3.6628    0.5547   -1.3600 C   0  0  0  0  0  0  0  0  0  0  0  0
   -1.4132   -0.5831   -1.2081 C   0  0  0  0  0  0  0  0  0  0  0  0
    2.8633   -0.4397   -0.5986 O   0  0  0  0  0  0  0  0  0  0  0  0
    6.3786    0.3511    1.1018 H   0  0  0  0  0  0  0  0  0  0  0  0
    5.2371    1.6740    0.8176 H   0  0  0  0  0  0  0  0  0  0  0  0
    6.7304    1.5696   -0.1333 H   0  0  0  0  0  0  0  0  0  0  0  0
    4.8095    0.8086   -1.4976 H   0  0  0  0  0  0  0  0  0  0  0  0
    5.9323   -0.5238   -1.2160 H   0  0  0  0  0  0  0  0  0  0  0  0
    2.4632   -4.0653    1.3604 H   0  0  0  0  0  0  0  0  0  0  0  0
    1.6322   -2.9036    2.4201 H   0  0  0  0  0  0  0  0  0  0  0  0
    3.3547   -3.2293    2.6436 H   0  0  0  0  0  0  0  0  0  0  0  0
    1.1134    0.9083   -1.9380 H   0  0  0  0  0  0  0  0  0  0  0  0
    1.1696    1.2394   -0.1956 H   0  0  0  0  0  0  0  0  0  0  0  0
   -0.1705    3.0037   -1.0673 H   0  0  0  0  0  0  0  0  0  0  0  0
   -0.9959    1.9579   -2.2020 H   0  0  0  0  0  0  0  0  0  0  0  0
   -2.4906    2.5414   -0.3726 H   0  0  0  0  0  0  0  0  0  0  0  0
   -2.2157   -0.2548    1.6920 H   0  0  0  0  0  0  0  0  0  0  0  0
   -2.8572   -1.4974    0.6642 H   0  0  0  0  0  0  0  0  0  0  0  0
   -4.6097   -0.5580    2.1326 H   0  0  0  0  0  0  0  0  0  0  0  0
   -4.4362    1.0166    1.3599 H   0  0  0  0  0  0  0  0  0  0  0  0
   -4.3138   -1.5226   -1.3133 H   0  0  0  0  0  0  0  0  0  0  0  0
   -5.5551   -0.3797   -1.8225 H   0  0  0  0  0  0  0  0  0  0  0  0
   -4.1352    1.5189   -1.1323 H   0  0  0  0  0  0  0  0  0  0  0  0
   -3.3797    0.5908   -2.4180 H   0  0  0  0  0  0  0  0  0  0  0  0
   -1.4195   -0.3646   -2.2842 H   0  0  0  0  0  0  0  0  0  0  0  0
   -1.7033   -1.6370   -1.1367 H   0  0  0  0  0  0  0  0  0  0  0  0
  1  2  1  0
  2  3  1  0
  3  4  2  0
  4  5  1  0
  5  6  1  0
  5  7  2  0
  7  8  1  0
  8  9  2  0
  8 10  1  0
 10 11  1  0
 11 12  1  0
 12 13  1  0
 13 14  1  0
 14 15  1  0
 14 16  1  0
 14 17  1  0
 13 18  1  0
 18 19  1  0
 19 20  1  0
 20 21  1  0
 21 22  1  0
 22 23  1  0
 18 24  1  0
  7 25  1  0
 25  3  1  0
 24 10  1  0
 23 18  1  0
  1 26  1  0
  1 27  1  0
  1 28  1  0
  2 29  1  0
  2 30  1  0
  6 31  1  0
  6 32  1  0
  6 33  1  0
 11 34  1  0
 11 35  1  0
 12 36  1  0
 12 37  1  0
 13 38  1  0
 19 39  1  0
 19 40  1  0
 20 41  1  0
 20 42  1  0
 22 43  1  0
 22 44  1  0
 23 45  1  0
 23 46  1  0
 24 47  1  0
 24 48  1  0
M  END
$$$$
OCNT-2311644
     RDKit          3D

 40 42  0  0  0  0  0  0  0  0999 V2000
    5.2721    1.0776    1.7188 C   0  0  0  0  0  0  0  0  0  0  0  0
    4.6395    0.9637    0.3630 C   0  0  0  0  0  0  0  0  0  0  0  0
    5.2916    1.4676   -0.7671 C   0  0  0  0  0  0  0  0  0  0  0  0
    4.6888    1.3897   -2.0215 C   0  0  0  0  0  0  0  0  0  0  0  0
    3.4231    0.8160   -2.1545 C   0  0  0  0  0  0  0  0  0  0  0  0
    2.7403    0.3164   -1.0361 C   0  0  0  0  0  0  0  0  0  0  0  0
    1.4164   -0.2693   -1.2045 C   0  0  0  0  0  0  0  0  0  0  0  0
    0.6892   -0.4231   -2.2933 N   0  0  0  0  0  0  0  0  0  0  0  0
   -0.4871   -1.0292   -1.9025 N   0  0  0  0  0  0  0  0  0  0  0  0
   -0.3967   -1.2080   -0.6006 C   0  0  0  0  0  0  0  0  0  0  0  0
   -1.3791   -1.8108    0.3705 C   0  0  0  0  0  0  0  0  0  0  0  0
   -1.5981   -3.2747   -0.0524 C   0  0  0  0  0  0  0  0  0  0  0  0
   -2.6461   -1.0272    0.4538 N   0  0  0  0  0  0  0  0  0  0  0  0
   -3.6486   -1.6899    1.2990 C   0  0  0  0  0  0  0  0  0  0  0  0
   -2.3836    0.3382    0.9681 C   0  0  0  0  0  0  0  0  0  0  0  0
   -3.5571    1.2406    0.7046 C   0  0  0  0  0  0  0  0  0  0  0  0
   -4.0226    1.6356   -0.5384 C   0  0  0  0  0  0  0  0  0  0  0  0
   -5.3791    2.6662   -0.3629 S   0  0  0  0  0  0  0  0  0  0  0  0
   -5.2464    2.5156    1.3390 C   0  0  0  0  0  0  0  0  0  0  0  0
   -4.2681    1.7574    1.7825 N   0  0  0  0  0  0  0  0  0  0  0  0
    0.7874   -0.7483   -0.0827 O   0  0  0  0  0  0  0  0  0  0  0  0
    3.3609    0.4020    0.2212 C   0  0  0  0  0  0  0  0  0  0  0  0
    6.3644    1.0523    1.6442 H   0  0  0  0  0  0  0  0  0  0  0  0
    4.9716    2.0164    2.1939 H   0  0  0  0  0  0  0  0  0  0  0  0
    4.9716    0.2428    2.3607 H   0  0  0  0  0  0  0  0  0  0  0  0
    6.2751    1.9242   -0.6772 H   0  0  0  0  0  0  0  0  0  0  0  0
    5.2026    1.7784   -2.8973 H   0  0  0  0  0  0  0  0  0  0  0  0
    2.9671    0.7645   -3.1425 H   0  0  0  0  0  0  0  0  0  0  0  0
   -0.9104   -1.8285    1.3647 H   0  0  0  0  0  0  0  0  0  0  0  0
   -2.1262   -3.8454    0.7182 H   0  0  0  0  0  0  0  0  0  0  0  0
   -2.1702   -3.3411   -0.9854 H   0  0  0  0  0  0  0  0  0  0  0  0
   -0.6399   -3.7818   -0.2190 H   0  0  0  0  0  0  0  0  0  0  0  0
   -3.9767   -2.6343    0.8534 H   0  0  0  0  0  0  0  0  0  0  0  0
   -4.5622   -1.0931    1.3932 H   0  0  0  0  0  0  0  0  0  0  0  0
   -3.2673   -1.8896    2.3069 H   0  0  0  0  0  0  0  0  0  0  0  0
   -1.5275    0.8024    0.4646 H   0  0  0  0  0  0  0  0  0  0  0  0
   -2.1462    0.3175    2.0394 H   0  0  0  0  0  0  0  0  0  0  0  0
   -3.6378    1.3601   -1.5107 H   0  0  0  0  0  0  0  0  0  0  0  0
   -5.9332    3.0206    2.0052 H   0  0  0  0  0  0  0  0  0  0  0  0
    2.8486    0.0285    1.1061 H   0  0  0  0  0  0  0  0  0  0  0  0
  1  2  1  0
  2  3  2  0
  3  4  1  0
  4  5  2  0
  5  6  1  0
  6  7  1  0
  7  8  2  0
  8  9  1  0
  9 10  2  0
 10 11  1  0
 11 12  1  0
 11 13  1  0
 13 14  1  0
 13 15  1  0
 15 16  1  0
 16 17  2  0
 17 18  1  0
 18 19  1  0
 19 20  2  0
 10 21  1  0
  6 22  2  0
 22  2  1  0
 21  7  1  0
 20 16  1  0
  1 23  1  0
  1 24  1  0
  1 25  1  0
  3 26  1  0
  4 27  1  0
  5 28  1  0
 11 29  1  0
 12 30  1  0
 12 31  1  0
 12 32  1  0
 14 33  1  0
 14 34  1  0
 14 35  1  0
 15 36  1  0
 15 37  1  0
 17 38  1  0
 19 39  1  0
 22 40  1  0
M  END
$$$$
OCNT-2311651
     RDKit          3D

 33 36  0  0  0  0  0  0  0  0999 V2000
    1.4257    4.8312    1.3551 N   0  0  0  0  0  0  0  0  0  0  0  0
    2.0224    3.6694    1.5935 C   0  0  0  0  0  0  0  0  0  0  0  0
    3.2182    3.5153    2.1491 N   0  0  0  0  0  0  0  0  0  0  0  0
    3.3138    2.1773    2.2133 N   0  0  0  0  0  0  0  0  0  0  0  0
    2.1960    1.5828    1.7063 C   0  0  0  0  0  0  0  0  0  0  0  0
    1.9857    0.1035    1.6861 C   0  0  0  0  0  0  0  0  0  0  0  0
    1.4255   -0.3483    0.4221 N   0  0  0  0  0  0  0  0  0  0  0  0
    0.6744   -1.5142    0.4944 C   0  0  0  0  0  0  0  0  0  0  0  0
    1.0902   -2.5033    1.3253 N   0  0  0  0  0  0  0  0  0  0  0  0
    0.3686   -3.6391    1.3961 C   0  0  0  0  0  0  0  0  0  0  0  0
   -0.7635   -3.9379    0.7459 N   0  0  0  0  0  0  0  0  0  0  0  0
   -1.1338   -2.9411   -0.0687 C   0  0  0  0  0  0  0  0  0  0  0  0
   -0.4918   -1.7266   -0.2655 C   0  0  0  0  0  0  0  0  0  0  0  0
   -1.2703   -1.0056   -1.2357 C   0  0  0  0  0  0  0  0  0  0  0  0
   -1.1651    0.2563   -1.8614 C   0  0  0  0  0  0  0  0  0  0  0  0
   -2.1199    0.6500   -2.8091 C   0  0  0  0  0  0  0  0  0  0  0  0
   -3.1751   -0.1933   -3.1374 C   0  0  0  0  0  0  0  0  0  0  0  0
   -4.4479    0.3668   -4.4210 Br  0  0  0  0  0  0  0  0  0  0  0  0
   -3.3164   -1.4459   -2.5359 C   0  0  0  0  0  0  0  0  0  0  0  0
   -2.3506   -1.8191   -1.5919 C   0  0  0  0  0  0  0  0  0  0  0  0
   -2.2416   -2.9792   -0.8620 N   0  0  0  0  0  0  0  0  0  0  0  0
    1.3727    2.5181    1.2693 N   0  0  0  0  0  0  0  0  0  0  0  0
    0.6876    4.8531    0.6607 H   0  0  0  0  0  0  0  0  0  0  0  0
    2.0059    5.6591    1.3715 H   0  0  0  0  0  0  0  0  0  0  0  0
    4.1512    1.7547    2.5989 H   0  0  0  0  0  0  0  0  0  0  0  0
    1.3148   -0.1295    2.5234 H   0  0  0  0  0  0  0  0  0  0  0  0
    2.9328   -0.4163    1.8709 H   0  0  0  0  0  0  0  0  0  0  0  0
    0.8964    0.4021   -0.0124 H   0  0  0  0  0  0  0  0  0  0  0  0
    0.7521   -4.4075    2.0587 H   0  0  0  0  0  0  0  0  0  0  0  0
   -0.3491    0.9355   -1.6312 H   0  0  0  0  0  0  0  0  0  0  0  0
   -2.0256    1.6256   -3.2786 H   0  0  0  0  0  0  0  0  0  0  0  0
   -4.1394   -2.1088   -2.7910 H   0  0  0  0  0  0  0  0  0  0  0  0
   -2.8441   -3.7852   -0.9388 H   0  0  0  0  0  0  0  0  0  0  0  0
  1  2  1  0
  2  3  2  0
  3  4  1  0
  4  5  1  0
  5  6  1  0
  6  7  1  0
  7  8  1  0
  8  9  1  0
  9 10  2  0
 10 11  1  0
 11 12  2  0
 12 13  1  0
 13 14  1  0
 14 15  2  0
 15 16  1  0
 16 17  2  0
 17 18  1  0
 17 19  1  0
 19 20  2  0
 20 21  1  0
  5 22  2  0
 22  2  1  0
 13  8  2  0
 20 14  1  0
 21 12  1  0
  1 23  1  0
  1 24  1  0
  4 25  1  0
  6 26  1  0
  6 27  1  0
  7 28  1  0
 10 29  1  0
 15 30  1  0
 16 31  1  0
 19 32  1  0
 21 33  1  0
M  END
$$$$
OCNT-2311652
     RDKit          3D

 50 52  0  0  0  0  0  0  0  0999 V2000
   -5.7707   -0.9763   -0.6693 C   0  0  0  0  0  0  0  0  0  0  0  0
   -4.5178   -0.1064   -0.5593 C   0  0  0  0  0  0  0  0  0  0  0  0
   -4.4892    0.9310   -1.6841 C   0  0  0  0  0  0  0  0  0  0  0  0
   -4.4314    0.5388    0.7997 C   0  0  0  0  0  0  0  0  0  0  0  0
   -3.5779    0.1986    1.8381 C   0  0  0  0  0  0  0  0  0  0  0  0
   -2.5393   -0.8046    1.9020 C   0  0  0  0  0  0  0  0  0  0  0  0
   -2.6405   -1.7949    2.6260 O   0  0  0  0  0  0  0  0  0  0  0  0
   -1.4100   -0.6149    1.0949 N   0  0  0  0  0  0  0  0  0  0  0  0
   -1.0786    0.6458    0.4260 C   0  0  0  0  0  0  0  0  0  0  0  0
    0.4280    0.8798    0.4014 C   0  0  0  0  0  0  0  0  0  0  0  0
    1.1741   -0.2423   -0.3474 C   0  0  0  0  0  0  0  0  0  0  0  0
    2.6518   -0.2651    0.0962 C   0  0  0  0  0  0  0  0  0  0  0  0
    3.5573   -1.0638   -0.8520 C   0  0  0  0  0  0  0  0  0  0  0  0
    5.0156   -1.1014   -0.3898 C   0  0  0  0  0  0  0  0  0  0  0  0
    5.6773    0.1842   -0.4461 N   0  0  0  0  0  0  0  0  0  0  0  0
    6.1730    0.7893   -1.5680 C   0  0  0  0  0  0  0  0  0  0  0  0
    6.7150    1.9718   -1.1208 C   0  0  0  0  0  0  0  0  0  0  0  0
    6.5681    2.0912    0.2384 N   0  0  0  0  0  0  0  0  0  0  0  0
    5.9499    0.9953    0.6184 C   0  0  0  0  0  0  0  0  0  0  0  0
    0.4700   -1.6035   -0.1738 C   0  0  0  0  0  0  0  0  0  0  0  0
   -0.3966   -1.6646    1.0803 C   0  0  0  0  0  0  0  0  0  0  0  0
   -3.9391    1.1290    3.2316 S   0  0  0  0  0  0  0  0  0  0  0  0
   -5.1551    1.9464    2.3483 C   0  0  0  0  0  0  0  0  0  0  0  0
   -5.3183    1.5677    1.1009 N   0  0  0  0  0  0  0  0  0  0  0  0
   -6.6851   -0.3786   -0.5739 H   0  0  0  0  0  0  0  0  0  0  0  0
   -5.7884   -1.7388    0.1170 H   0  0  0  0  0  0  0  0  0  0  0  0
   -5.8039   -1.4901   -1.6347 H   0  0  0  0  0  0  0  0  0  0  0  0
   -3.6507   -0.7634   -0.7000 H   0  0  0  0  0  0  0  0  0  0  0  0
   -3.5916    1.5572   -1.6197 H   0  0  0  0  0  0  0  0  0  0  0  0
   -4.4873    0.4399   -2.6643 H   0  0  0  0  0  0  0  0  0  0  0  0
   -5.3612    1.5952   -1.6437 H   0  0  0  0  0  0  0  0  0  0  0  0
   -1.4675    0.5869   -0.5963 H   0  0  0  0  0  0  0  0  0  0  0  0
   -1.5662    1.4866    0.9271 H   0  0  0  0  0  0  0  0  0  0  0  0
    0.7911    0.9482    1.4355 H   0  0  0  0  0  0  0  0  0  0  0  0
    0.6474    1.8436   -0.0727 H   0  0  0  0  0  0  0  0  0  0  0  0
    1.1526    0.0022   -1.4191 H   0  0  0  0  0  0  0  0  0  0  0  0
    2.7272   -0.6728    1.1122 H   0  0  0  0  0  0  0  0  0  0  0  0
    3.0163    0.7685    0.1408 H   0  0  0  0  0  0  0  0  0  0  0  0
    3.4953   -0.6359   -1.8596 H   0  0  0  0  0  0  0  0  0  0  0  0
    3.2046   -2.0972   -0.9253 H   0  0  0  0  0  0  0  0  0  0  0  0
    5.5907   -1.7806   -1.0316 H   0  0  0  0  0  0  0  0  0  0  0  0
    5.0906   -1.4794    0.6355 H   0  0  0  0  0  0  0  0  0  0  0  0
    6.1037    0.3501   -2.5533 H   0  0  0  0  0  0  0  0  0  0  0  0
    7.2060    2.7413   -1.7032 H   0  0  0  0  0  0  0  0  0  0  0  0
    5.6765    0.7482    1.6373 H   0  0  0  0  0  0  0  0  0  0  0  0
   -0.1774   -1.7675   -1.0459 H   0  0  0  0  0  0  0  0  0  0  0  0
    1.1829   -2.4331   -0.1629 H   0  0  0  0  0  0  0  0  0  0  0  0
    0.2185   -1.5450    1.9812 H   0  0  0  0  0  0  0  0  0  0  0  0
   -0.8846   -2.6442    1.1439 H   0  0  0  0  0  0  0  0  0  0  0  0
   -5.7549    2.7276    2.7973 H   0  0  0  0  0  0  0  0  0  0  0  0
  1  2  1  0
  2  3  1  0
  2  4  1  0
  4  5  2  0
  5  6  1  0
  6  7  2  0
  6  8  1  0
  8  9  1  0
  9 10  1  0
 10 11  1  0
 11 12  1  0
 12 13  1  0
 13 14  1  0
 14 15  1  0
 15 16  1  0
 16 17  2  0
 17 18  1  0
 18 19  2  0
 11 20  1  0
 20 21  1  0
  5 22  1  0
 22 23  1  0
 23 24  2  0
 24  4  1  0
 21  8  1  0
 19 15  1  0
  1 25  1  0
  1 26  1  0
  1 27  1  0
  2 28  1  0
  3 29  1  0
  3 30  1  0
  3 31  1  0
  9 32  1  0
  9 33  1  0
 10 34  1  0
 10 35  1  0
 11 36  1  0
 12 37  1  0
 12 38  1  0
 13 39  1  0
 13 40  1  0
 14 41  1  0
 14 42  1  0
 16 43  1  0
 17 44  1  0
 19 45  1  0
 20 46  1  0
 20 47  1  0
 21 48  1  0
 21 49  1  0
 23 50  1  0
M  END
$$$$
OCNT-2311653
     RDKit          3D

 41 43  0  0  0  0  0  0  0  0999 V2000
    2.0004   -2.7297   -1.0235 O   0  0  0  0  0  0  0  0  0  0  0  0
    1.5269   -1.6894   -1.4715 C   0  0  0  0  0  0  0  0  0  0  0  0
    2.3584   -0.6906   -2.2504 C   0  0  0  0  0  0  0  0  0  0  0  0
    2.8596    0.4323   -1.3805 C   0  0  0  0  0  0  0  0  0  0  0  0
    4.0651    0.3126   -0.6745 C   0  0  0  0  0  0  0  0  0  0  0  0
    4.5048    1.3556    0.1432 C   0  0  0  0  0  0  0  0  0  0  0  0
    3.7406    2.5127    0.2545 C   0  0  0  0  0  0  0  0  0  0  0  0
    4.1641    3.5096    1.0419 F   0  0  0  0  0  0  0  0  0  0  0  0
    2.5399    2.6462   -0.4267 C   0  0  0  0  0  0  0  0  0  0  0  0
    2.1050    1.6004   -1.2300 C   0  0  0  0  0  0  0  0  0  0  0  0
    0.9243    1.7120   -1.8569 F   0  0  0  0  0  0  0  0  0  0  0  0
    0.2081   -1.3246   -1.3142 N   0  0  0  0  0  0  0  0  0  0  0  0
   -0.6583   -2.0984   -0.4570 C   0  0  0  0  0  0  0  0  0  0  0  0
   -2.0818   -1.6005   -0.5360 C   0  0  0  0  0  0  0  0  0  0  0  0
   -2.9299   -2.1622   -1.5096 C   0  0  0  0  0  0  0  0  0  0  0  0
   -4.2454   -1.7256   -1.6538 C   0  0  0  0  0  0  0  0  0  0  0  0
   -4.7330   -0.7136   -0.8343 C   0  0  0  0  0  0  0  0  0  0  0  0
   -3.9023   -0.1367    0.1266 C   0  0  0  0  0  0  0  0  0  0  0  0
   -2.5709   -0.5630    0.2914 C   0  0  0  0  0  0  0  0  0  0  0  0
   -1.7445    0.0885    1.3123 C   0  0  0  0  0  0  0  0  0  0  0  0
   -1.0988    1.3046    1.0661 C   0  0  0  0  0  0  0  0  0  0  0  0
   -0.3230    1.8952    2.0608 C   0  0  0  0  0  0  0  0  0  0  0  0
   -0.2170    1.2507    3.2815 C   0  0  0  0  0  0  0  0  0  0  0  0
   -0.8289    0.0829    3.5664 N   0  0  0  0  0  0  0  0  0  0  0  0
   -1.5766   -0.4669    2.5800 C   0  0  0  0  0  0  0  0  0  0  0  0
    3.2022   -1.2224   -2.7068 H   0  0  0  0  0  0  0  0  0  0  0  0
    1.7700   -0.2982   -3.0889 H   0  0  0  0  0  0  0  0  0  0  0  0
    4.6600   -0.5961   -0.7477 H   0  0  0  0  0  0  0  0  0  0  0  0
    5.4351    1.2706    0.6969 H   0  0  0  0  0  0  0  0  0  0  0  0
    1.9492    3.5485   -0.3267 H   0  0  0  0  0  0  0  0  0  0  0  0
   -0.0341   -0.3532   -1.4682 H   0  0  0  0  0  0  0  0  0  0  0  0
   -0.6030   -3.1515   -0.7599 H   0  0  0  0  0  0  0  0  0  0  0  0
   -0.2661   -2.0604    0.5648 H   0  0  0  0  0  0  0  0  0  0  0  0
   -2.5601   -2.9480   -2.1654 H   0  0  0  0  0  0  0  0  0  0  0  0
   -4.8879   -2.1743   -2.4077 H   0  0  0  0  0  0  0  0  0  0  0  0
   -5.7587   -0.3702   -0.9427 H   0  0  0  0  0  0  0  0  0  0  0  0
   -4.3017    0.6571    0.7574 H   0  0  0  0  0  0  0  0  0  0  0  0
   -1.1995    1.7949    0.1012 H   0  0  0  0  0  0  0  0  0  0  0  0
    0.1853    2.8367    1.8902 H   0  0  0  0  0  0  0  0  0  0  0  0
    0.3781    1.6706    4.0870 H   0  0  0  0  0  0  0  0  0  0  0  0
   -2.0554   -1.4065    2.8465 H   0  0  0  0  0  0  0  0  0  0  0  0
  1  2  2  0
  2  3  1  0
  3  4  1  0
  4  5  1  0
  5  6  2  0
  6  7  1  0
  7  8  1  0
  7  9  2  0
  9 10  1  0
 10 11  1  0
  2 12  1  0
 12 13  1  0
 13 14  1  0
 14 15  2  0
 15 16  1  0
 16 17  2  0
 17 18  1  0
 18 19  2  0
 19 20  1  0
 20 21  1  0
 21 22  2  0
 22 23  1  0
 23 24  2  0
 24 25  1  0
 10  4  2  0
 19 14  1  0
 25 20  2  0
  3 26  1  0
  3 27  1  0
  5 28  1  0
  6 29  1  0
  9 30  1  0
 12 31  1  0
 13 32  1  0
 13 33  1  0
 15 34  1  0
 16 35  1  0
 17 36  1  0
 18 37  1  0
 21 38  1  0
 22 39  1  0
 23 40  1  0
 25 41  1  0
M  END
$$$$
OCNT-2311661
     RDKit          3D

 50 52  0  0  0  0  0  0  0  0999 V2000
   -3.7827   -2.0566   -0.0769 C   0  0  0  0  0  0  0  0  0  0  0  0
   -3.0120   -1.8329   -1.3965 C   0  0  0  0  0  0  0  0  0  0  0  0
   -3.9138   -2.3167   -2.5509 C   0  0  0  0  0  0  0  0  0  0  0  0
   -1.7126   -2.6610   -1.4031 C   0  0  0  0  0  0  0  0  0  0  0  0
   -0.7002   -2.2249   -0.3426 C   0  0  0  0  0  0  0  0  0  0  0  0
   -0.6487   -0.7020   -0.1099 C   0  0  0  0  0  0  0  0  0  0  0  0
    0.7224   -0.2884    0.1871 N   0  0  0  0  0  0  0  0  0  0  0  0
    1.3034   -0.5000    1.4194 C   0  0  0  0  0  0  0  0  0  0  0  0
    0.7383   -1.0704    2.3442 O   0  0  0  0  0  0  0  0  0  0  0  0
    2.7182    0.0322    1.5000 C   0  0  0  0  0  0  0  0  0  0  0  0
    3.3245   -0.1847    2.8851 C   0  0  0  0  0  0  0  0  0  0  0  0
    4.7797    0.1733    2.9362 C   0  0  0  0  0  0  0  0  0  0  0  0
    5.4637    1.2320    2.3657 C   0  0  0  0  0  0  0  0  0  0  0  0
    6.8257    1.2670    2.5923 N   0  0  0  0  0  0  0  0  0  0  0  0
    7.1605    0.2487    3.3543 C   0  0  0  0  0  0  0  0  0  0  0  0
    5.8855   -0.7928    3.8335 S   0  0  0  0  0  0  0  0  0  0  0  0
   -1.2358    0.0745   -1.3135 C   0  0  0  0  0  0  0  0  0  0  0  0
   -1.1243    1.5913   -1.2015 C   0  0  0  0  0  0  0  0  0  0  0  0
   -1.4579    2.2746   -0.0220 C   0  0  0  0  0  0  0  0  0  0  0  0
   -1.3556    3.6656    0.0487 C   0  0  0  0  0  0  0  0  0  0  0  0
   -0.9281    4.3932   -1.0594 C   0  0  0  0  0  0  0  0  0  0  0  0
   -0.6045    3.7307   -2.2406 C   0  0  0  0  0  0  0  0  0  0  0  0
   -0.7043    2.3395   -2.3128 C   0  0  0  0  0  0  0  0  0  0  0  0
   -2.7053   -0.3207   -1.5845 C   0  0  0  0  0  0  0  0  0  0  0  0
   -3.2408   -1.6685    0.7880 H   0  0  0  0  0  0  0  0  0  0  0  0
   -3.9679   -3.1224    0.0965 H   0  0  0  0  0  0  0  0  0  0  0  0
   -4.7550   -1.5542   -0.0997 H   0  0  0  0  0  0  0  0  0  0  0  0
   -4.8473   -1.7397   -2.5908 H   0  0  0  0  0  0  0  0  0  0  0  0
   -3.4124   -2.2058   -3.5221 H   0  0  0  0  0  0  0  0  0  0  0  0
   -4.1773   -3.3770   -2.4331 H   0  0  0  0  0  0  0  0  0  0  0  0
   -1.2377   -2.5763   -2.3907 H   0  0  0  0  0  0  0  0  0  0  0  0
   -1.9321   -3.7285   -1.2699 H   0  0  0  0  0  0  0  0  0  0  0  0
   -0.9331   -2.7182    0.6106 H   0  0  0  0  0  0  0  0  0  0  0  0
    0.2858   -2.6091   -0.6364 H   0  0  0  0  0  0  0  0  0  0  0  0
   -1.2425   -0.4811    0.7864 H   0  0  0  0  0  0  0  0  0  0  0  0
    1.2271    0.2443   -0.5127 H   0  0  0  0  0  0  0  0  0  0  0  0
    2.6980    1.1016    1.2565 H   0  0  0  0  0  0  0  0  0  0  0  0
    3.3171   -0.4799    0.7361 H   0  0  0  0  0  0  0  0  0  0  0  0
    2.7827    0.4163    3.6273 H   0  0  0  0  0  0  0  0  0  0  0  0
    3.1900   -1.2344    3.1777 H   0  0  0  0  0  0  0  0  0  0  0  0
    5.0191    2.0170    1.7659 H   0  0  0  0  0  0  0  0  0  0  0  0
    8.1803    0.0723    3.6644 H   0  0  0  0  0  0  0  0  0  0  0  0
   -0.6429   -0.2216   -2.1925 H   0  0  0  0  0  0  0  0  0  0  0  0
   -1.8056    1.7344    0.8561 H   0  0  0  0  0  0  0  0  0  0  0  0
   -1.6199    4.1804    0.9702 H   0  0  0  0  0  0  0  0  0  0  0  0
   -0.8556    5.4761   -1.0046 H   0  0  0  0  0  0  0  0  0  0  0  0
   -0.2818    4.2979   -3.1100 H   0  0  0  0  0  0  0  0  0  0  0  0
   -0.4576    1.8447   -3.2497 H   0  0  0  0  0  0  0  0  0  0  0  0
   -2.9454   -0.0094   -2.6130 H   0  0  0  0  0  0  0  0  0  0  0  0
   -3.3815    0.2692   -0.9477 H   0  0  0  0  0  0  0  0  0  0  0  0
  1  2  1  0
  2  3  1  0
  2  4  1  0
  4  5  1  0
  5  6  1  0
  6  7  1  0
  7  8  1  0
  8  9  2  0
  8 10  1  0
 10 11  1  0
 11 12  1  0
 12 13  2  0
 13 14  1  0
 14 15  2  0
 15 16  1  0
  6 17  1  0
 17 18  1  0
 18 19  2  0
 19 20  1  0
 20 21  2  0
 21 22  1  0
 22 23  2  0
 17 24  1  0
 24  2  1  0
 16 12  1  0
 23 18  1  0
  1 25  1  0
  1 26  1  0
  1 27  1  0
  3 28  1  0
  3 29  1  0
  3 30  1  0
  4 31  1  0
  4 32  1  0
  5 33  1  0
  5 34  1  0
  6 35  1  0
  7 36  1  0
 10 37  1  0
 10 38  1  0
 11 39  1  0
 11 40  1  0
 13 41  1  0
 15 42  1  0
 17 43  1  0
 19 44  1  0
 20 45  1  0
 21 46  1  0
 22 47  1  0
 23 48  1  0
 24 49  1  0
 24 50  1  0
M  END
$$$$
OCNT-2311669
     RDKit          3D

 45 48  0  0  0  0  0  0  0  0999 V2000
   -0.3482    0.0079   -1.6873 O   0  0  0  0  0  0  0  0  0  0  0  0
    0.2535   -0.0431   -0.6215 C   0  0  0  0  0  0  0  0  0  0  0  0
   -0.2355    0.3162    0.6220 N   0  0  0  0  0  0  0  0  0  0  0  0
   -1.5479    0.7293    0.9372 C   0  0  0  0  0  0  0  0  0  0  0  0
   -1.7897    1.1464    2.2513 C   0  0  0  0  0  0  0  0  0  0  0  0
   -3.0628    1.5646    2.6427 C   0  0  0  0  0  0  0  0  0  0  0  0
   -4.1101    1.5666    1.7244 C   0  0  0  0  0  0  0  0  0  0  0  0
   -3.8934    1.1455    0.4057 C   0  0  0  0  0  0  0  0  0  0  0  0
   -5.0206    1.1316   -0.5968 C   0  0  0  0  0  0  0  0  0  0  0  0
   -6.0132    0.1201   -0.2779 N   0  0  0  0  0  0  0  0  0  0  0  0
   -7.2902    0.3433    0.1594 C   0  0  0  0  0  0  0  0  0  0  0  0
   -7.8469   -0.9090    0.2783 C   0  0  0  0  0  0  0  0  0  0  0  0
   -6.9477   -1.8784   -0.0835 N   0  0  0  0  0  0  0  0  0  0  0  0
   -5.8534   -1.2301   -0.4154 C   0  0  0  0  0  0  0  0  0  0  0  0
   -2.6053    0.7290    0.0242 C   0  0  0  0  0  0  0  0  0  0  0  0
    1.6771   -0.4888   -0.6350 C   0  0  0  0  0  0  0  0  0  0  0  0
    2.4562   -0.1970   -1.7601 C   0  0  0  0  0  0  0  0  0  0  0  0
    3.7907   -0.6045   -1.8172 C   0  0  0  0  0  0  0  0  0  0  0  0
    4.3639   -1.3156   -0.7523 C   0  0  0  0  0  0  0  0  0  0  0  0
    5.8117   -1.7558   -0.8208 C   0  0  0  0  0  0  0  0  0  0  0  0
    6.7857   -0.6294   -0.7894 C   0  0  0  0  0  0  0  0  0  0  0  0
    7.9064   -0.5272   -1.4739 N   0  0  0  0  0  0  0  0  0  0  0  0
    8.5022    0.6675   -1.1433 N   0  0  0  0  0  0  0  0  0  0  0  0
    7.7358    1.2640   -0.2620 C   0  0  0  0  0  0  0  0  0  0  0  0
    6.6518    0.4852   -0.0025 N   0  0  0  0  0  0  0  0  0  0  0  0
    3.5741   -1.6212    0.3658 C   0  0  0  0  0  0  0  0  0  0  0  0
    2.2367   -1.2157    0.4235 C   0  0  0  0  0  0  0  0  0  0  0  0
    0.4275    0.3576    1.3841 H   0  0  0  0  0  0  0  0  0  0  0  0
   -0.9936    1.1528    2.9908 H   0  0  0  0  0  0  0  0  0  0  0  0
   -3.2394    1.8835    3.6670 H   0  0  0  0  0  0  0  0  0  0  0  0
   -5.0986    1.8880    2.0469 H   0  0  0  0  0  0  0  0  0  0  0  0
   -5.5151    2.1097   -0.6202 H   0  0  0  0  0  0  0  0  0  0  0  0
   -4.6617    0.9226   -1.6114 H   0  0  0  0  0  0  0  0  0  0  0  0
   -7.6850    1.3321    0.3433 H   0  0  0  0  0  0  0  0  0  0  0  0
   -8.8479   -1.1641    0.6010 H   0  0  0  0  0  0  0  0  0  0  0  0
   -4.9304   -1.6826   -0.7555 H   0  0  0  0  0  0  0  0  0  0  0  0
   -2.4523    0.3968   -0.9987 H   0  0  0  0  0  0  0  0  0  0  0  0
    2.0232    0.3447   -2.5997 H   0  0  0  0  0  0  0  0  0  0  0  0
    4.3797   -0.3706   -2.7040 H   0  0  0  0  0  0  0  0  0  0  0  0
    5.9528   -2.3406   -1.7383 H   0  0  0  0  0  0  0  0  0  0  0  0
    6.0381   -2.4354    0.0101 H   0  0  0  0  0  0  0  0  0  0  0  0
    7.9132    2.2248    0.1981 H   0  0  0  0  0  0  0  0  0  0  0  0
    5.8846    0.6952    0.6186 H   0  0  0  0  0  0  0  0  0  0  0  0
    3.9872   -2.1988    1.1913 H   0  0  0  0  0  0  0  0  0  0  0  0
    1.6370   -1.5097    1.2810 H   0  0  0  0  0  0  0  0  0  0  0  0
  1  2  2  0
  2  3  1  0
  3  4  1  0
  4  5  1  0
  5  6  2  0
  6  7  1  0
  7  8  2  0
  8  9  1  0
  9 10  1  0
 10 11  1  0
 11 12  2  0
 12 13  1  0
 13 14  2  0
  8 15  1  0
  2 16  1  0
 16 17  1  0
 17 18  2  0
 18 19  1  0
 19 20  1  0
 20 21  1  0
 21 22  2  0
 22 23  1  0
 23 24  2  0
 24 25  1  0
 19 26  2  0
 26 27  1  0
 15  4  2  0
 27 16  2  0
 14 10  1  0
 25 21  1  0
  3 28  1  0
  5 29  1  0
  6 30  1  0
  7 31  1  0
  9 32  1  0
  9 33  1  0
 11 34  1  0
 12 35  1  0
 14 36  1  0
 15 37  1  0
 17 38  1  0
 18 39  1  0
 20 40  1  0
 20 41  1  0
 24 42  1  0
 25 43  1  0
 26 44  1  0
 27 45  1  0
M  END
$$$$
OCNT-2311674
     RDKit          3D

 35 37  0  0  0  0  0  0  0  0999 V2000
    6.3022   -0.8175    0.6154 C   0  0  0  0  0  0  0  0  0  0  0  0
    4.9372   -0.3396    0.6366 N   0  0  0  0  0  0  0  0  0  0  0  0
    4.0355   -0.9197   -0.1712 N   0  0  0  0  0  0  0  0  0  0  0  0
    2.8688   -0.3051    0.0949 C   0  0  0  0  0  0  0  0  0  0  0  0
    1.6240   -0.6962   -0.6024 C   0  0  0  0  0  0  0  0  0  0  0  0
    1.6055   -1.4722   -1.5596 O   0  0  0  0  0  0  0  0  0  0  0  0
    0.4740   -0.1223   -0.0938 N   0  0  0  0  0  0  0  0  0  0  0  0
   -0.7603   -0.3798   -0.6302 C   0  0  0  0  0  0  0  0  0  0  0  0
   -1.8912    0.1175   -0.1954 N   0  0  0  0  0  0  0  0  0  0  0  0
   -2.8424   -0.4223   -1.0478 C   0  0  0  0  0  0  0  0  0  0  0  0
   -4.2614   -0.1154   -0.8994 C   0  0  0  0  0  0  0  0  0  0  0  0
   -4.6900    0.6829    0.1767 C   0  0  0  0  0  0  0  0  0  0  0  0
   -6.0428    0.9942    0.3501 C   0  0  0  0  0  0  0  0  0  0  0  0
   -6.9897    0.5125   -0.5502 C   0  0  0  0  0  0  0  0  0  0  0  0
   -6.5817   -0.2785   -1.6217 C   0  0  0  0  0  0  0  0  0  0  0  0
   -5.2302   -0.5873   -1.7917 C   0  0  0  0  0  0  0  0  0  0  0  0
   -4.9038   -1.3479   -2.8475 F   0  0  0  0  0  0  0  0  0  0  0  0
   -2.3220   -1.2327   -1.9823 N   0  0  0  0  0  0  0  0  0  0  0  0
   -1.0120   -1.1918   -1.6994 N   0  0  0  0  0  0  0  0  0  0  0  0
    3.0690    0.7020    1.0802 C   0  0  0  0  0  0  0  0  0  0  0  0
    4.4105    0.6599    1.4034 C   0  0  0  0  0  0  0  0  0  0  0  0
    5.2128    1.4616    2.3505 C   0  0  0  0  0  0  0  0  0  0  0  0
    4.4105    2.1088    3.2364 F   0  0  0  0  0  0  0  0  0  0  0  0
    6.0343    0.6703    3.0883 F   0  0  0  0  0  0  0  0  0  0  0  0
    6.4778   -1.3685   -0.3125 H   0  0  0  0  0  0  0  0  0  0  0  0
    6.4449   -1.4738    1.4770 H   0  0  0  0  0  0  0  0  0  0  0  0
    6.9795    0.0384    0.6624 H   0  0  0  0  0  0  0  0  0  0  0  0
    0.4825    0.4851    0.7108 H   0  0  0  0  0  0  0  0  0  0  0  0
   -3.9664    1.0687    0.8930 H   0  0  0  0  0  0  0  0  0  0  0  0
   -6.3534    1.6122    1.1893 H   0  0  0  0  0  0  0  0  0  0  0  0
   -8.0418    0.7521   -0.4185 H   0  0  0  0  0  0  0  0  0  0  0  0
   -7.3062   -0.6620   -2.3338 H   0  0  0  0  0  0  0  0  0  0  0  0
   -0.3407   -1.7231   -2.2476 H   0  0  0  0  0  0  0  0  0  0  0  0
    2.3449    1.3823    1.5074 H   0  0  0  0  0  0  0  0  0  0  0  0
    5.8222    2.2070    1.8318 H   0  0  0  0  0  0  0  0  0  0  0  0
  1  2  1  0
  2  3  1  0
  3  4  2  0
  4  5  1  0
  5  6  2  0
  5  7  1  0
  7  8  1  0
  8  9  2  0
  9 10  1  0
 10 11  1  0
 11 12  2  0
 12 13  1  0
 13 14  2  0
 14 15  1  0
 15 16  2  0
 16 17  1  0
 10 18  2  0
 18 19  1  0
  4 20  1  0
 20 21  2  0
 21 22  1  0
 22 23  1  0
 22 24  1  0
 21  2  1  0
 19  8  1  0
 16 11  1  0
  1 25  1  0
  1 26  1  0
  1 27  1  0
  7 28  1  0
 12 29  1  0
 13 30  1  0
 14 31  1  0
 15 32  1  0
 19 33  1  0
 20 34  1  0
 22 35  1  0
M  END
$$$$
OCNT-2311676
     RDKit          3D

 39 42  0  0  0  0  0  0  0  0999 V2000
   -2.1260    0.7832    1.5394 O   0  0  0  0  0  0  0  0  0  0  0  0
   -2.1289    0.4677    0.3570 C   0  0  0  0  0  0  0  0  0  0  0  0
   -1.0697   -0.0446   -0.3719 N   0  0  0  0  0  0  0  0  0  0  0  0
    0.2558   -0.2388    0.0690 C   0  0  0  0  0  0  0  0  0  0  0  0
    1.1402   -0.8661   -0.8158 C   0  0  0  0  0  0  0  0  0  0  0  0
    2.4740   -1.0881   -0.4578 C   0  0  0  0  0  0  0  0  0  0  0  0
    2.9539   -0.6761    0.7920 C   0  0  0  0  0  0  0  0  0  0  0  0
    4.3884   -0.9136    1.1928 C   0  0  0  0  0  0  0  0  0  0  0  0
    5.3225   -0.2256    0.3179 N   0  0  0  0  0  0  0  0  0  0  0  0
    6.2195   -0.8110   -0.5334 C   0  0  0  0  0  0  0  0  0  0  0  0
    6.9024    0.2382   -1.1033 C   0  0  0  0  0  0  0  0  0  0  0  0
    6.4498    1.4363   -0.6150 N   0  0  0  0  0  0  0  0  0  0  0  0
    5.5007    1.1269    0.2399 C   0  0  0  0  0  0  0  0  0  0  0  0
    2.0658   -0.0500    1.6755 C   0  0  0  0  0  0  0  0  0  0  0  0
    0.7303    0.1675    1.3157 C   0  0  0  0  0  0  0  0  0  0  0  0
   -3.3856    0.6062   -0.4150 C   0  0  0  0  0  0  0  0  0  0  0  0
   -3.3879    1.1414   -1.7093 C   0  0  0  0  0  0  0  0  0  0  0  0
   -4.5965    1.2456   -2.3810 C   0  0  0  0  0  0  0  0  0  0  0  0
   -5.8005    0.8681   -1.8990 N   0  0  0  0  0  0  0  0  0  0  0  0
   -5.7433    0.3814   -0.6462 C   0  0  0  0  0  0  0  0  0  0  0  0
   -4.6151    0.2235    0.1516 C   0  0  0  0  0  0  0  0  0  0  0  0
   -5.0665   -0.3282    1.3847 C   0  0  0  0  0  0  0  0  0  0  0  0
   -6.4343   -0.4854    1.3018 C   0  0  0  0  0  0  0  0  0  0  0  0
   -6.8307   -0.0488    0.0640 N   0  0  0  0  0  0  0  0  0  0  0  0
   -1.2745   -0.3801   -1.3043 H   0  0  0  0  0  0  0  0  0  0  0  0
    0.8074   -1.1938   -1.7973 H   0  0  0  0  0  0  0  0  0  0  0  0
    3.1360   -1.5783   -1.1693 H   0  0  0  0  0  0  0  0  0  0  0  0
    4.6105   -1.9865    1.1659 H   0  0  0  0  0  0  0  0  0  0  0  0
    4.5891   -0.5591    2.2107 H   0  0  0  0  0  0  0  0  0  0  0  0
    6.2988   -1.8813   -0.6604 H   0  0  0  0  0  0  0  0  0  0  0  0
    7.6980    0.1950   -1.8357 H   0  0  0  0  0  0  0  0  0  0  0  0
    4.9178    1.8328    0.8177 H   0  0  0  0  0  0  0  0  0  0  0  0
    2.3983    0.2817    2.6574 H   0  0  0  0  0  0  0  0  0  0  0  0
    0.0868    0.6655    2.0347 H   0  0  0  0  0  0  0  0  0  0  0  0
   -2.4772    1.4978   -2.1781 H   0  0  0  0  0  0  0  0  0  0  0  0
   -4.6281    1.6656   -3.3845 H   0  0  0  0  0  0  0  0  0  0  0  0
   -4.4515   -0.5742    2.2422 H   0  0  0  0  0  0  0  0  0  0  0  0
   -7.1550   -0.8629    2.0150 H   0  0  0  0  0  0  0  0  0  0  0  0
   -7.7747   -0.0318   -0.2935 H   0  0  0  0  0  0  0  0  0  0  0  0
  1  2  2  0
  2  3  1  0
  3  4  1  0
  4  5  1  0
  5  6  2  0
  6  7  1  0
  7  8  1  0
  8  9  1  0
  9 10  1  0
 10 11  2  0
 11 12  1  0
 12 13  2  0
  7 14  2  0
 14 15  1  0
  2 16  1  0
 16 17  2  0
 17 18  1  0
 18 19  2  0
 19 20  1  0
 20 21  2  0
 21 22  1  0
 22 23  2  0
 23 24  1  0
 15  4  2  0
 21 16  1  0
 13  9  1  0
 24 20  1  0
  3 25  1  0
  5 26  1  0
  6 27  1  0
  8 28  1  0
  8 29  1  0
 10 30  1  0
 11 31  1  0
 13 32  1  0
 14 33  1  0
 15 34  1  0
 17 35  1  0
 18 36  1  0
 22 37  1  0
 23 38  1  0
 24 39  1  0
M  END
$$$$
OCNT-2311686
     RDKit          3D

 42 45  0  0  0  0  0  0  0  0999 V2000
   -2.6721    1.8653    1.9822 O   0  0  0  0  0  0  0  0  0  0  0  0
   -2.3903    0.4542    1.8193 S   0  0  0  0  0  0  0  0  0  0  0  0
   -2.5376   -0.4732    2.9201 O   0  0  0  0  0  0  0  0  0  0  0  0
   -0.7382    0.2732    1.1973 C   0  0  0  0  0  0  0  0  0  0  0  0
   -0.2580   -1.0078    0.9178 C   0  0  0  0  0  0  0  0  0  0  0  0
    1.0393   -1.1625    0.4238 C   0  0  0  0  0  0  0  0  0  0  0  0
    1.8694   -0.0481    0.2119 C   0  0  0  0  0  0  0  0  0  0  0  0
    3.2277   -0.2186   -0.3100 C   0  0  0  0  0  0  0  0  0  0  0  0
    3.4733   -0.7569   -1.5894 C   0  0  0  0  0  0  0  0  0  0  0  0
    4.7718   -0.9121   -2.0792 C   0  0  0  0  0  0  0  0  0  0  0  0
    5.8800   -0.5406   -1.3147 C   0  0  0  0  0  0  0  0  0  0  0  0
    5.6285   -0.0139   -0.0447 C   0  0  0  0  0  0  0  0  0  0  0  0
    4.3462    0.1527    0.4716 C   0  0  0  0  0  0  0  0  0  0  0  0
    4.5642    0.6889    1.7646 C   0  0  0  0  0  0  0  0  0  0  0  0
    5.8577    0.8674    2.0447 N   0  0  0  0  0  0  0  0  0  0  0  0
    6.4772    0.4311    0.9352 N   0  0  0  0  0  0  0  0  0  0  0  0
    1.3628    1.2307    0.5052 C   0  0  0  0  0  0  0  0  0  0  0  0
    0.0664    1.3959    0.9998 C   0  0  0  0  0  0  0  0  0  0  0  0
   -3.3452   -0.1052    0.5175 N   0  0  0  0  0  0  0  0  0  0  0  0
   -3.2790    0.7384   -0.7180 C   0  0  0  0  0  0  0  0  0  0  0  0
   -4.1017    0.0943   -1.8512 C   0  0  0  0  0  0  0  0  0  0  0  0
   -5.5106   -0.1443   -1.4875 N   0  0  0  0  0  0  0  0  0  0  0  0
   -5.5543   -0.9660   -0.2626 C   0  0  0  0  0  0  0  0  0  0  0  0
   -4.7682   -0.3548    0.9133 C   0  0  0  0  0  0  0  0  0  0  0  0
   -0.8846   -1.8813    1.0853 H   0  0  0  0  0  0  0  0  0  0  0  0
    1.4092   -2.1653    0.2156 H   0  0  0  0  0  0  0  0  0  0  0  0
    2.6354   -1.0519   -2.2188 H   0  0  0  0  0  0  0  0  0  0  0  0
    4.9225   -1.3278   -3.0734 H   0  0  0  0  0  0  0  0  0  0  0  0
    6.8890   -0.6617   -1.6955 H   0  0  0  0  0  0  0  0  0  0  0  0
    3.8264    0.9554    2.5105 H   0  0  0  0  0  0  0  0  0  0  0  0
    7.4898    0.4602    0.9084 H   0  0  0  0  0  0  0  0  0  0  0  0
    1.9821    2.1122    0.3443 H   0  0  0  0  0  0  0  0  0  0  0  0
   -0.3006    2.3947    1.2254 H   0  0  0  0  0  0  0  0  0  0  0  0
   -3.6667    1.7420   -0.5071 H   0  0  0  0  0  0  0  0  0  0  0  0
   -2.2425    0.8281   -1.0566 H   0  0  0  0  0  0  0  0  0  0  0  0
   -3.6432   -0.8573   -2.1480 H   0  0  0  0  0  0  0  0  0  0  0  0
   -4.0741    0.7454   -2.7318 H   0  0  0  0  0  0  0  0  0  0  0  0
   -5.9499    0.7549   -1.2868 H   0  0  0  0  0  0  0  0  0  0  0  0
   -6.6012   -1.0972    0.0324 H   0  0  0  0  0  0  0  0  0  0  0  0
   -5.1633   -1.9654   -0.4905 H   0  0  0  0  0  0  0  0  0  0  0  0
   -4.8014   -1.0594    1.7509 H   0  0  0  0  0  0  0  0  0  0  0  0
   -5.2360    0.5862    1.2270 H   0  0  0  0  0  0  0  0  0  0  0  0
  1  2  2  0
  2  3  2  0
  2  4  1  0
  4  5  1  0
  5  6  2  0
  6  7  1  0
  7  8  1  0
  8  9  1  0
  9 10  2  0
 10 11  1  0
 11 12  2  0
 12 13  1  0
 13 14  1  0
 14 15  2  0
 15 16  1  0
  7 17  2  0
 17 18  1  0
  2 19  1  0
 19 20  1  0
 20 21  1  0
 21 22  1  0
 22 23  1  0
 23 24  1  0
 18  4  2  0
 24 19  1  0
 13  8  2  0
 16 12  1  0
  5 25  1  0
  6 26  1  0
  9 27  1  0
 10 28  1  0
 11 29  1  0
 14 30  1  0
 16 31  1  0
 17 32  1  0
 18 33  1  0
 20 34  1  0
 20 35  1  0
 21 36  1  0
 21 37  1  0
 22 38  1  0
 23 39  1  0
 23 40  1  0
 24 41  1  0
 24 42  1  0
M  END
$$$$
OCNT-2311688
     RDKit          3D

 35 37  0  0  0  0  0  0  0  0999 V2000
    6.6196   -0.9613    1.0569 C   0  0  0  0  0  0  0  0  0  0  0  0
    5.2405   -0.9915    0.4191 C   0  0  0  0  0  0  0  0  0  0  0  0
    4.5843    0.3856    0.4473 C   0  0  0  0  0  0  0  0  0  0  0  0
    3.2622    0.3703   -0.1514 N   0  0  0  0  0  0  0  0  0  0  0  0
    2.0684    0.2505    0.5035 C   0  0  0  0  0  0  0  0  0  0  0  0
    1.0960    0.2939   -0.4682 C   0  0  0  0  0  0  0  0  0  0  0  0
   -0.2572    0.1997   -0.2070 N   0  0  0  0  0  0  0  0  0  0  0  0
   -1.2338    0.2769   -1.1773 C   0  0  0  0  0  0  0  0  0  0  0  0
   -1.0573    0.4759   -2.3736 O   0  0  0  0  0  0  0  0  0  0  0  0
   -2.6142    0.1325   -0.6263 C   0  0  0  0  0  0  0  0  0  0  0  0
   -3.5697    0.9548   -1.0953 C   0  0  0  0  0  0  0  0  0  0  0  0
   -4.8727    0.8557   -0.6128 N   0  0  0  0  0  0  0  0  0  0  0  0
   -5.9361    1.6280   -0.9651 N   0  0  0  0  0  0  0  0  0  0  0  0
   -6.9527    1.1630   -0.2351 C   0  0  0  0  0  0  0  0  0  0  0  0
   -6.5696    0.1044    0.5919 C   0  0  0  0  0  0  0  0  0  0  0  0
   -7.7025   -0.8106    1.7606 Br  0  0  0  0  0  0  0  0  0  0  0  0
   -5.2356   -0.0927    0.3516 C   0  0  0  0  0  0  0  0  0  0  0  0
   -4.2346   -0.9880    0.8261 C   0  0  0  0  0  0  0  0  0  0  0  0
   -2.9770   -0.8851    0.3554 C   0  0  0  0  0  0  0  0  0  0  0  0
    1.8100    0.4429   -1.6773 C   0  0  0  0  0  0  0  0  0  0  0  0
    3.1329    0.4885   -1.4844 N   0  0  0  0  0  0  0  0  0  0  0  0
    6.5608   -0.6462    2.1036 H   0  0  0  0  0  0  0  0  0  0  0  0
    7.2820   -0.2700    0.5262 H   0  0  0  0  0  0  0  0  0  0  0  0
    7.0731   -1.9570    1.0270 H   0  0  0  0  0  0  0  0  0  0  0  0
    4.6120   -1.7175    0.9490 H   0  0  0  0  0  0  0  0  0  0  0  0
    5.3281   -1.3462   -0.6149 H   0  0  0  0  0  0  0  0  0  0  0  0
    4.4745    0.7446    1.4771 H   0  0  0  0  0  0  0  0  0  0  0  0
    5.1836    1.1222   -0.1004 H   0  0  0  0  0  0  0  0  0  0  0  0
    2.0230    0.1472    1.5777 H   0  0  0  0  0  0  0  0  0  0  0  0
   -0.5248    0.1149    0.7639 H   0  0  0  0  0  0  0  0  0  0  0  0
   -3.3969    1.7209   -1.8414 H   0  0  0  0  0  0  0  0  0  0  0  0
   -7.9264    1.6231   -0.3440 H   0  0  0  0  0  0  0  0  0  0  0  0
   -4.4999   -1.7580    1.5450 H   0  0  0  0  0  0  0  0  0  0  0  0
   -2.2171   -1.5908    0.6788 H   0  0  0  0  0  0  0  0  0  0  0  0
    1.4272    0.5195   -2.6873 H   0  0  0  0  0  0  0  0  0  0  0  0
  1  2  1  0
  2  3  1  0
  3  4  1  0
  4  5  1  0
  5  6  2  0
  6  7  1  0
  7  8  1  0
  8  9  2  0
  8 10  1  0
 10 11  2  0
 11 12  1  0
 12 13  1  0
 13 14  2  0
 14 15  1  0
 15 16  1  0
 15 17  2  0
 17 18  1  0
 18 19  2  0
  6 20  1  0
 20 21  2  0
 21  4  1  0
 19 10  1  0
 17 12  1  0
  1 22  1  0
  1 23  1  0
  1 24  1  0
  2 25  1  0
  2 26  1  0
  3 27  1  0
  3 28  1  0
  5 29  1  0
  7 30  1  0
 11 31  1  0
 14 32  1  0
 18 33  1  0
 19 34  1  0
 20 35  1  0
M  END
$$$$
OCNT-2311689
     RDKit          3D

 48 50  0  0  0  0  0  0  0  0999 V2000
    9.0175    0.1113    0.6748 C   0  0  0  0  0  0  0  0  0  0  0  0
    7.6764    0.0236    0.1908 O   0  0  0  0  0  0  0  0  0  0  0  0
    6.7750   -0.3469    1.1349 C   0  0  0  0  0  0  0  0  0  0  0  0
    7.0269   -0.5953    2.3032 O   0  0  0  0  0  0  0  0  0  0  0  0
    5.4064   -0.4179    0.5535 C   0  0  0  0  0  0  0  0  0  0  0  0
    5.1377   -0.1040   -0.7831 C   0  0  0  0  0  0  0  0  0  0  0  0
    3.8301   -0.1886   -1.2766 C   0  0  0  0  0  0  0  0  0  0  0  0
    2.7729   -0.5862   -0.4473 C   0  0  0  0  0  0  0  0  0  0  0  0
    1.4903   -0.6472   -1.0284 N   0  0  0  0  0  0  0  0  0  0  0  0
    0.2925   -0.9673   -0.4067 C   0  0  0  0  0  0  0  0  0  0  0  0
    0.1448   -1.2455    0.7795 O   0  0  0  0  0  0  0  0  0  0  0  0
   -0.8935   -0.9546   -1.3624 C   0  0  0  0  0  0  0  0  0  0  0  0
   -1.4718    0.4221   -1.4652 C   0  0  0  0  0  0  0  0  0  0  0  0
   -2.6182    0.9728   -0.9113 C   0  0  0  0  0  0  0  0  0  0  0  0
   -3.5490    0.2706   -0.0414 C   0  0  0  0  0  0  0  0  0  0  0  0
   -4.9065    0.2295   -0.3828 C   0  0  0  0  0  0  0  0  0  0  0  0
   -5.8303   -0.4363    0.4321 C   0  0  0  0  0  0  0  0  0  0  0  0
   -5.4059   -1.0607    1.6046 C   0  0  0  0  0  0  0  0  0  0  0  0
   -6.1982   -1.7439    2.4851 O   0  0  0  0  0  0  0  0  0  0  0  0
   -7.5882   -1.7963    2.1913 C   0  0  0  0  0  0  0  0  0  0  0  0
   -4.0551   -1.0046    1.9557 C   0  0  0  0  0  0  0  0  0  0  0  0
   -3.1314   -0.3376    1.1448 C   0  0  0  0  0  0  0  0  0  0  0  0
   -2.8950    2.2741   -1.3010 N   0  0  0  0  0  0  0  0  0  0  0  0
   -1.9522    2.7223   -2.0971 C   0  0  0  0  0  0  0  0  0  0  0  0
   -1.9207    4.0935   -2.6731 C   0  0  0  0  0  0  0  0  0  0  0  0
   -0.7129    1.5997   -2.4720 S   0  0  0  0  0  0  0  0  0  0  0  0
    3.0450   -0.8995    0.8850 C   0  0  0  0  0  0  0  0  0  0  0  0
    4.3519   -0.8152    1.3830 C   0  0  0  0  0  0  0  0  0  0  0  0
    9.0969    0.8892    1.4404 H   0  0  0  0  0  0  0  0  0  0  0  0
    9.6629    0.3840   -0.1646 H   0  0  0  0  0  0  0  0  0  0  0  0
    9.3503   -0.8553    1.0661 H   0  0  0  0  0  0  0  0  0  0  0  0
    5.9336    0.2087   -1.4544 H   0  0  0  0  0  0  0  0  0  0  0  0
    3.6554    0.0629   -2.3199 H   0  0  0  0  0  0  0  0  0  0  0  0
    1.4333   -0.3753   -2.0027 H   0  0  0  0  0  0  0  0  0  0  0  0
   -0.5786   -1.3207   -2.3474 H   0  0  0  0  0  0  0  0  0  0  0  0
   -1.6335   -1.6772   -1.0013 H   0  0  0  0  0  0  0  0  0  0  0  0
   -5.2524    0.7230   -1.2890 H   0  0  0  0  0  0  0  0  0  0  0  0
   -6.8697   -0.4424    0.1225 H   0  0  0  0  0  0  0  0  0  0  0  0
   -8.0776   -2.3627    2.9895 H   0  0  0  0  0  0  0  0  0  0  0  0
   -8.0273   -0.7932    2.1777 H   0  0  0  0  0  0  0  0  0  0  0  0
   -7.7729   -2.3223    1.2488 H   0  0  0  0  0  0  0  0  0  0  0  0
   -3.7161   -1.4771    2.8748 H   0  0  0  0  0  0  0  0  0  0  0  0
   -2.0934   -0.2893    1.4642 H   0  0  0  0  0  0  0  0  0  0  0  0
   -2.7948    4.6659   -2.3461 H   0  0  0  0  0  0  0  0  0  0  0  0
   -1.9320    4.0576   -3.7671 H   0  0  0  0  0  0  0  0  0  0  0  0
   -1.0248    4.6315   -2.3471 H   0  0  0  0  0  0  0  0  0  0  0  0
    2.2649   -1.2152    1.5711 H   0  0  0  0  0  0  0  0  0  0  0  0
    4.5373   -1.0638    2.4270 H   0  0  0  0  0  0  0  0  0  0  0  0
  1  2  1  0
  2  3  1  0
  3  4  2  0
  3  5  1  0
  5  6  1  0
  6  7  2  0
  7  8  1  0
  8  9  1  0
  9 10  1  0
 10 11  2  0
 10 12  1  0
 12 13  1  0
 13 14  2  0
 14 15  1  0
 15 16  1  0
 16 17  2  0
 17 18  1  0
 18 19  1  0
 19 20  1  0
 18 21  2  0
 21 22  1  0
 14 23  1  0
 23 24  2  0
 24 25  1  0
 24 26  1  0
  8 27  2  0
 27 28  1  0
 28  5  2  0
 26 13  1  0
 22 15  2  0
  1 29  1  0
  1 30  1  0
  1 31  1  0
  6 32  1  0
  7 33  1  0
  9 34  1  0
 12 35  1  0
 12 36  1  0
 16 37  1  0
 17 38  1  0
 20 39  1  0
 20 40  1  0
 20 41  1  0
 21 42  1  0
 22 43  1  0
 25 44  1  0
 25 45  1  0
 25 46  1  0
 27 47  1  0
 28 48  1  0
M  END
$$$$
OCNT-2311706
     RDKit          3D

 37 40  0  0  0  0  0  0  0  0999 V2000
   -0.1088   -2.0635    0.1244 O   0  0  0  0  0  0  0  0  0  0  0  0
    0.0895   -0.8941    0.4207 C   0  0  0  0  0  0  0  0  0  0  0  0
   -0.9089   -0.0169    0.8983 N   0  0  0  0  0  0  0  0  0  0  0  0
   -2.3166   -0.3353    0.9708 C   0  0  0  0  0  0  0  0  0  0  0  0
   -3.1120    0.1169   -0.2657 C   0  0  0  0  0  0  0  0  0  0  0  0
   -4.5177   -0.0987   -0.0442 O   0  0  0  0  0  0  0  0  0  0  0  0
   -4.8574   -1.1713   -0.9242 C   0  0  0  0  0  0  0  0  0  0  0  0
   -3.9058   -0.9915   -2.0745 C   0  0  0  0  0  0  0  0  0  0  0  0
   -2.6935   -0.5985   -1.4370 O   0  0  0  0  0  0  0  0  0  0  0  0
   -0.3367    1.2308    1.1321 C   0  0  0  0  0  0  0  0  0  0  0  0
   -0.9189    2.4038    1.5663 C   0  0  0  0  0  0  0  0  0  0  0  0
   -0.0829    3.5100    1.6915 C   0  0  0  0  0  0  0  0  0  0  0  0
    1.2693    3.3739    1.3744 C   0  0  0  0  0  0  0  0  0  0  0  0
    1.8455    2.2236    0.9471 N   0  0  0  0  0  0  0  0  0  0  0  0
    1.0252    1.1651    0.8399 C   0  0  0  0  0  0  0  0  0  0  0  0
    1.3104   -0.1508    0.3999 N   0  0  0  0  0  0  0  0  0  0  0  0
    2.5889   -0.6186   -0.0106 C   0  0  0  0  0  0  0  0  0  0  0  0
    3.7724    0.1075    0.2047 C   0  0  0  0  0  0  0  0  0  0  0  0
    5.0229   -0.3769   -0.2074 C   0  0  0  0  0  0  0  0  0  0  0  0
    5.1153   -1.6059   -0.8453 C   0  0  0  0  0  0  0  0  0  0  0  0
    6.6460   -2.2019   -1.3514 Cl  0  0  0  0  0  0  0  0  0  0  0  0
    3.9678   -2.3525   -1.0707 C   0  0  0  0  0  0  0  0  0  0  0  0
    2.7216   -1.8617   -0.6553 C   0  0  0  0  0  0  0  0  0  0  0  0
   -2.4142   -1.4226    1.0775 H   0  0  0  0  0  0  0  0  0  0  0  0
   -2.7375    0.1062    1.8815 H   0  0  0  0  0  0  0  0  0  0  0  0
   -2.9662    1.1869   -0.4492 H   0  0  0  0  0  0  0  0  0  0  0  0
   -4.6778   -2.1139   -0.3957 H   0  0  0  0  0  0  0  0  0  0  0  0
   -5.9087   -1.1140   -1.2163 H   0  0  0  0  0  0  0  0  0  0  0  0
   -4.2221   -0.1771   -2.7352 H   0  0  0  0  0  0  0  0  0  0  0  0
   -3.7586   -1.9002   -2.6632 H   0  0  0  0  0  0  0  0  0  0  0  0
   -1.9733    2.4756    1.8030 H   0  0  0  0  0  0  0  0  0  0  0  0
   -0.4712    4.4661    2.0280 H   0  0  0  0  0  0  0  0  0  0  0  0
    1.9455    4.2215    1.4594 H   0  0  0  0  0  0  0  0  0  0  0  0
    3.7730    1.0624    0.7188 H   0  0  0  0  0  0  0  0  0  0  0  0
    5.9141    0.2157   -0.0187 H   0  0  0  0  0  0  0  0  0  0  0  0
    4.0234   -3.3162   -1.5700 H   0  0  0  0  0  0  0  0  0  0  0  0
    1.8583   -2.4838   -0.8741 H   0  0  0  0  0  0  0  0  0  0  0  0
  1  2  2  0
  2  3  1  0
  3  4  1  0
  4  5  1  0
  5  6  1  0
  6  7  1  0
  7  8  1  0
  8  9  1  0
  3 10  1  0
 10 11  1  0
 11 12  2  0
 12 13  1  0
 13 14  2  0
 14 15  1  0
 15 16  1  0
 16 17  1  0
 17 18  1  0
 18 19  2  0
 19 20  1  0
 20 21  1  0
 20 22  2  0
 22 23  1  0
 16  2  1  0
 23 17  2  0
  9  5  1  0
 15 10  2  0
  4 24  1  0
  4 25  1  0
  5 26  1  0
  7 27  1  0
  7 28  1  0
  8 29  1  0
  8 30  1  0
 11 31  1  0
 12 32  1  0
 13 33  1  0
 18 34  1  0
 19 35  1  0
 22 36  1  0
 23 37  1  0
M  END
$$$$
OCNT-2311707
     RDKit          3D

 48 50  0  0  0  0  0  0  0  0999 V2000
   -5.9079   -0.9139   -0.7995 C   0  0  0  0  0  0  0  0  0  0  0  0
   -5.3516    0.4693   -0.6020 C   0  0  0  0  0  0  0  0  0  0  0  0
   -6.2315    1.5598   -0.6744 C   0  0  0  0  0  0  0  0  0  0  0  0
   -5.7369    2.8400   -0.4949 C   0  0  0  0  0  0  0  0  0  0  0  0
   -4.4420    3.1074   -0.2503 N   0  0  0  0  0  0  0  0  0  0  0  0
   -3.6005    2.0437   -0.1826 C   0  0  0  0  0  0  0  0  0  0  0  0
   -3.9874    0.7123   -0.3489 C   0  0  0  0  0  0  0  0  0  0  0  0
   -3.0929   -0.3833   -0.2712 N   0  0  0  0  0  0  0  0  0  0  0  0
   -1.7262   -0.3339   -0.0556 C   0  0  0  0  0  0  0  0  0  0  0  0
   -1.0502    0.6843    0.0514 O   0  0  0  0  0  0  0  0  0  0  0  0
   -1.0936   -1.7210   -0.0456 C   0  0  0  0  0  0  0  0  0  0  0  0
    0.2427   -1.8266    0.7389 C   0  0  0  0  0  0  0  0  0  0  0  0
   -0.0122   -1.5782    2.2361 C   0  0  0  0  0  0  0  0  0  0  0  0
    0.7539   -3.2701    0.5463 C   0  0  0  0  0  0  0  0  0  0  0  0
    1.2106   -0.8477    0.2184 N   0  0  0  0  0  0  0  0  0  0  0  0
    2.5303   -0.7496    0.6153 C   0  0  0  0  0  0  0  0  0  0  0  0
    3.1151   -1.5929    1.2829 O   0  0  0  0  0  0  0  0  0  0  0  0
    3.2387    0.4799    0.1735 C   0  0  0  0  0  0  0  0  0  0  0  0
    2.6043    1.7361    0.2172 C   0  0  0  0  0  0  0  0  0  0  0  0
    3.2720    2.8863   -0.2000 C   0  0  0  0  0  0  0  0  0  0  0  0
    4.5878    2.8250   -0.6650 C   0  0  0  0  0  0  0  0  0  0  0  0
    5.2146    1.5729   -0.6884 C   0  0  0  0  0  0  0  0  0  0  0  0
    4.5777    0.3983   -0.2757 C   0  0  0  0  0  0  0  0  0  0  0  0
    5.5232   -0.6571   -0.4445 C   0  0  0  0  0  0  0  0  0  0  0  0
    6.6856   -0.1150   -0.9413 C   0  0  0  0  0  0  0  0  0  0  0  0
    6.4895    1.2315   -1.0830 N   0  0  0  0  0  0  0  0  0  0  0  0
   -5.7439   -1.5210    0.0966 H   0  0  0  0  0  0  0  0  0  0  0  0
   -5.4344   -1.3946   -1.6616 H   0  0  0  0  0  0  0  0  0  0  0  0
   -6.9867   -0.8928   -0.9880 H   0  0  0  0  0  0  0  0  0  0  0  0
   -7.2906    1.4211   -0.8679 H   0  0  0  0  0  0  0  0  0  0  0  0
   -6.3895    3.7068   -0.5444 H   0  0  0  0  0  0  0  0  0  0  0  0
   -2.5754    2.3326    0.0210 H   0  0  0  0  0  0  0  0  0  0  0  0
   -3.4980   -1.3006   -0.4002 H   0  0  0  0  0  0  0  0  0  0  0  0
   -0.9278   -1.9869   -1.0983 H   0  0  0  0  0  0  0  0  0  0  0  0
   -1.8148   -2.4403    0.3636 H   0  0  0  0  0  0  0  0  0  0  0  0
   -0.7799   -2.2562    2.6253 H   0  0  0  0  0  0  0  0  0  0  0  0
   -0.3431   -0.5507    2.4228 H   0  0  0  0  0  0  0  0  0  0  0  0
    0.8957   -1.7339    2.8293 H   0  0  0  0  0  0  0  0  0  0  0  0
   -0.0185   -4.0011    0.8122 H   0  0  0  0  0  0  0  0  0  0  0  0
    1.0421   -3.4488   -0.4960 H   0  0  0  0  0  0  0  0  0  0  0  0
    1.6242   -3.4916    1.1711 H   0  0  0  0  0  0  0  0  0  0  0  0
    0.8004   -0.0140   -0.1957 H   0  0  0  0  0  0  0  0  0  0  0  0
    1.5899    1.8308    0.5989 H   0  0  0  0  0  0  0  0  0  0  0  0
    2.7631    3.8471   -0.1565 H   0  0  0  0  0  0  0  0  0  0  0  0
    5.1043    3.7239   -0.9869 H   0  0  0  0  0  0  0  0  0  0  0  0
    5.3604   -1.7032   -0.2147 H   0  0  0  0  0  0  0  0  0  0  0  0
    7.6317   -0.5711   -1.1997 H   0  0  0  0  0  0  0  0  0  0  0  0
    7.1780    1.8874   -1.4249 H   0  0  0  0  0  0  0  0  0  0  0  0
  1  2  1  0
  2  3  2  0
  3  4  1  0
  4  5  2  0
  5  6  1  0
  6  7  2  0
  7  8  1  0
  8  9  1  0
  9 10  2  0
  9 11  1  0
 11 12  1  0
 12 13  1  0
 12 14  1  0
 12 15  1  0
 15 16  1  0
 16 17  2  0
 16 18  1  0
 18 19  1  0
 19 20  2  0
 20 21  1  0
 21 22  2  0
 22 23  1  0
 23 24  1  0
 24 25  2  0
 25 26  1  0
  7  2  1  0
 23 18  2  0
 26 22  1  0
  1 27  1  0
  1 28  1  0
  1 29  1  0
  3 30  1  0
  4 31  1  0
  6 32  1  0
  8 33  1  0
 11 34  1  0
 11 35  1  0
 13 36  1  0
 13 37  1  0
 13 38  1  0
 14 39  1  0
 14 40  1  0
 14 41  1  0
 15 42  1  0
 19 43  1  0
 20 44  1  0
 21 45  1  0
 24 46  1  0
 25 47  1  0
 26 48  1  0
M  END
$$$$
OCNT-2311709
     RDKit          3D

 40 43  0  0  0  0  0  0  0  0999 V2000
    4.2763    1.2690   -2.0626 C   0  0  0  0  0  0  0  0  0  0  0  0
    3.9554   -0.0064   -1.4389 N   0  0  0  0  0  0  0  0  0  0  0  0
    4.8941   -1.0342   -1.5149 C   0  0  0  0  0  0  0  0  0  0  0  0
    6.0085   -0.9066   -2.0238 O   0  0  0  0  0  0  0  0  0  0  0  0
    4.4370   -2.3897   -1.0296 C   0  0  0  0  0  0  0  0  0  0  0  0
    3.6307   -2.2706    0.2434 C   0  0  0  0  0  0  0  0  0  0  0  0
    2.5067   -1.2945    0.0461 C   0  0  0  0  0  0  0  0  0  0  0  0
    1.2963   -1.4661    0.7421 C   0  0  0  0  0  0  0  0  0  0  0  0
    0.2598   -0.5320    0.6242 C   0  0  0  0  0  0  0  0  0  0  0  0
   -1.0151   -0.6843    1.3214 C   0  0  0  0  0  0  0  0  0  0  0  0
   -1.2095   -1.4599    2.4475 C   0  0  0  0  0  0  0  0  0  0  0  0
   -2.8425   -1.3662    2.9591 S   0  0  0  0  0  0  0  0  0  0  0  0
   -3.1793   -0.2872    1.6591 C   0  0  0  0  0  0  0  0  0  0  0  0
   -4.5754    0.2555    1.4830 C   0  0  0  0  0  0  0  0  0  0  0  0
   -4.8665    0.7468    0.0713 C   0  0  0  0  0  0  0  0  0  0  0  0
   -4.4645    2.2005    0.1312 C   0  0  0  0  0  0  0  0  0  0  0  0
   -4.8576    2.5762    1.5422 C   0  0  0  0  0  0  0  0  0  0  0  0
   -4.7085    1.4012    2.3508 O   0  0  0  0  0  0  0  0  0  0  0  0
   -2.1489   -0.0157    0.8814 N   0  0  0  0  0  0  0  0  0  0  0  0
    0.4626    0.5815   -0.1994 C   0  0  0  0  0  0  0  0  0  0  0  0
    1.6719    0.7659   -0.8811 C   0  0  0  0  0  0  0  0  0  0  0  0
    2.7057   -0.1704   -0.7699 C   0  0  0  0  0  0  0  0  0  0  0  0
    5.3123    1.3031   -2.4115 H   0  0  0  0  0  0  0  0  0  0  0  0
    3.6246    1.4183   -2.9290 H   0  0  0  0  0  0  0  0  0  0  0  0
    4.1408    2.0789   -1.3387 H   0  0  0  0  0  0  0  0  0  0  0  0
    5.3165   -3.0174   -0.8490 H   0  0  0  0  0  0  0  0  0  0  0  0
    3.8502   -2.8524   -1.8325 H   0  0  0  0  0  0  0  0  0  0  0  0
    4.2607   -1.9146    1.0678 H   0  0  0  0  0  0  0  0  0  0  0  0
    3.2441   -3.2581    0.5186 H   0  0  0  0  0  0  0  0  0  0  0  0
    1.1762   -2.3460    1.3696 H   0  0  0  0  0  0  0  0  0  0  0  0
   -0.5008   -2.0592    2.9992 H   0  0  0  0  0  0  0  0  0  0  0  0
   -5.3130   -0.4978    1.7817 H   0  0  0  0  0  0  0  0  0  0  0  0
   -5.9457    0.6869   -0.1176 H   0  0  0  0  0  0  0  0  0  0  0  0
   -4.3595    0.1855   -0.7190 H   0  0  0  0  0  0  0  0  0  0  0  0
   -4.9520    2.8216   -0.6250 H   0  0  0  0  0  0  0  0  0  0  0  0
   -3.3807    2.3005    0.0048 H   0  0  0  0  0  0  0  0  0  0  0  0
   -5.9088    2.8796    1.5902 H   0  0  0  0  0  0  0  0  0  0  0  0
   -4.2427    3.3843    1.9488 H   0  0  0  0  0  0  0  0  0  0  0  0
   -0.3259    1.3243   -0.3146 H   0  0  0  0  0  0  0  0  0  0  0  0
    1.7666    1.6499   -1.5040 H   0  0  0  0  0  0  0  0  0  0  0  0
  1  2  1  0
  2  3  1  0
  3  4  2  0
  3  5  1  0
  5  6  1  0
  6  7  1  0
  7  8  1  0
  8  9  2  0
  9 10  1  0
 10 11  2  0
 11 12  1  0
 12 13  1  0
 13 14  1  0
 14 15  1  0
 15 16  1  0
 16 17  1  0
 17 18  1  0
 13 19  2  0
  9 20  1  0
 20 21  2  0
 21 22  1  0
 22  2  1  0
 22  7  2  0
 19 10  1  0
 18 14  1  0
  1 23  1  0
  1 24  1  0
  1 25  1  0
  5 26  1  0
  5 27  1  0
  6 28  1  0
  6 29  1  0
  8 30  1  0
 11 31  1  0
 14 32  1  0
 15 33  1  0
 15 34  1  0
 16 35  1  0
 16 36  1  0
 17 37  1  0
 17 38  1  0
 20 39  1  0
 21 40  1  0
M  END
$$$$
OCNT-2311728
     RDKit          3D

 38 40  0  0  0  0  0  0  0  0999 V2000
   -1.9112    2.5575   -2.1238 C   0  0  0  0  0  0  0  0  0  0  0  0
   -2.2222    1.4692   -1.2161 N   0  0  0  0  0  0  0  0  0  0  0  0
   -1.3225    0.4380   -1.1774 N   0  0  0  0  0  0  0  0  0  0  0  0
   -1.5236   -0.5525   -0.3623 C   0  0  0  0  0  0  0  0  0  0  0  0
   -0.5023   -1.6659   -0.3931 C   0  0  0  0  0  0  0  0  0  0  0  0
    0.5484   -1.5031    0.6651 C   0  0  0  0  0  0  0  0  0  0  0  0
    0.3626   -1.7335    1.8530 O   0  0  0  0  0  0  0  0  0  0  0  0
    1.7148   -1.0584    0.1316 O   0  0  0  0  0  0  0  0  0  0  0  0
    2.7514   -0.8421    1.0947 C   0  0  0  0  0  0  0  0  0  0  0  0
    3.9541   -0.2841    0.3888 C   0  0  0  0  0  0  0  0  0  0  0  0
    5.2225   -0.8238    0.5957 C   0  0  0  0  0  0  0  0  0  0  0  0
    6.3540   -0.3557    0.0171 N   0  0  0  0  0  0  0  0  0  0  0  0
    6.2140    0.7076   -0.8095 C   0  0  0  0  0  0  0  0  0  0  0  0
    5.0006    1.3149   -1.0736 C   0  0  0  0  0  0  0  0  0  0  0  0
    4.9280    2.3677   -1.8968 F   0  0  0  0  0  0  0  0  0  0  0  0
    3.8557    0.8214   -0.4650 C   0  0  0  0  0  0  0  0  0  0  0  0
   -2.6757   -0.6152    0.5661 C   0  0  0  0  0  0  0  0  0  0  0  0
   -2.8901   -1.6679    1.4649 C   0  0  0  0  0  0  0  0  0  0  0  0
   -4.0040   -1.6531    2.3101 C   0  0  0  0  0  0  0  0  0  0  0  0
   -4.9060   -0.5920    2.2649 C   0  0  0  0  0  0  0  0  0  0  0  0
   -4.6922    0.4607    1.3763 C   0  0  0  0  0  0  0  0  0  0  0  0
   -3.5755    0.4465    0.5287 C   0  0  0  0  0  0  0  0  0  0  0  0
   -3.3455    1.5659   -0.4021 C   0  0  0  0  0  0  0  0  0  0  0  0
   -4.1285    2.5128   -0.4181 O   0  0  0  0  0  0  0  0  0  0  0  0
   -2.8284    2.9411   -2.5791 H   0  0  0  0  0  0  0  0  0  0  0  0
   -1.2370    2.2102   -2.9118 H   0  0  0  0  0  0  0  0  0  0  0  0
   -1.4331    3.3598   -1.5537 H   0  0  0  0  0  0  0  0  0  0  0  0
   -0.0244   -1.6864   -1.3807 H   0  0  0  0  0  0  0  0  0  0  0  0
   -0.9715   -2.6478   -0.2829 H   0  0  0  0  0  0  0  0  0  0  0  0
    2.4222   -0.1252    1.8572 H   0  0  0  0  0  0  0  0  0  0  0  0
    2.9972   -1.7973    1.5744 H   0  0  0  0  0  0  0  0  0  0  0  0
    5.3758   -1.6755    1.2551 H   0  0  0  0  0  0  0  0  0  0  0  0
    7.1271    1.0736   -1.2668 H   0  0  0  0  0  0  0  0  0  0  0  0
    2.8990    1.2972   -0.6606 H   0  0  0  0  0  0  0  0  0  0  0  0
   -2.2054   -2.5069    1.5466 H   0  0  0  0  0  0  0  0  0  0  0  0
   -4.1638   -2.4694    3.0116 H   0  0  0  0  0  0  0  0  0  0  0  0
   -5.7708   -0.5802    2.9244 H   0  0  0  0  0  0  0  0  0  0  0  0
   -5.3939    1.2925    1.3457 H   0  0  0  0  0  0  0  0  0  0  0  0
  1  2  1  0
  2  3  1  0
  3  4  2  0
  4  5  1  0
  5  6  1  0
  6  7  2  0
  6  8  1  0
  8  9  1  0
  9 10  1  0
 10 11  2  0
 11 12  1  0
 12 13  2  0
 13 14  1  0
 14 15  1  0
 14 16  2  0
  4 17  1  0
 17 18  2  0
 18 19  1  0
 19 20  2  0
 20 21  1  0
 21 22  2  0
 22 23  1  0
 23 24  2  0
 23  2  1  0
 16 10  1  0
 22 17  1  0
  1 25  1  0
  1 26  1  0
  1 27  1  0
  5 28  1  0
  5 29  1  0
  9 30  1  0
  9 31  1  0
 11 32  1  0
 13 33  1  0
 16 34  1  0
 18 35  1  0
 19 36  1  0
 20 37  1  0
 21 38  1  0
M  END
$$$$
OCNT-2311731
     RDKit          3D

  0  0  0  0  0  0  0  0  0  0999 V3000
M  V30 BEGIN CTAB
M  V30 COUNTS 51 54 0 0 0
M  V30 BEGIN ATOM
M  V30 1 O -0.090466 -2.673366 0.692599 0
M  V30 2 C -0.222528 -1.465889 0.517800 0
M  V30 3 N 0.833091 -0.575994 0.596276 0
M  V30 4 C 2.143549 -1.031848 1.028004 0 CFG=2
M  V30 5 C 3.176385 0.091648 1.042872 0
M  V30 6 C 4.495263 -0.680719 1.071650 0
M  V30 7 C 5.764724 0.152139 0.870939 0
M  V30 8 N 5.797106 0.987564 -0.309720 0
M  V30 9 C 6.299131 0.648596 -1.534443 0
M  V30 10 C 6.138207 1.774302 -2.308197 0
M  V30 11 N 5.577521 2.790036 -1.578071 0
M  V30 12 C 5.405783 2.295289 -0.373459 0
M  V30 13 C 4.271424 -1.795701 0.043491 0
M  V30 14 C 2.769322 -2.098309 0.097578 0 CFG=1
M  V30 15 O 2.548926 -3.404063 0.617105 0
M  V30 16 C -1.563493 -0.883161 0.239980 0
M  V30 17 C -1.722482 0.310750 -0.468651 0
M  V30 18 C -3.005965 0.819783 -0.706383 0
M  V30 19 C -4.152736 0.147331 -0.254829 0
M  V30 20 C -5.500703 0.687710 -0.491863 0
M  V30 21 C -5.858623 1.579995 -1.428816 0
M  V30 22 C -7.322505 1.873317 -1.400272 0
M  V30 23 C -7.754911 1.288168 -0.060852 0
M  V30 24 C -6.700415 0.241829 0.295903 0
M  V30 25 C -3.974461 -1.054662 0.446318 0
M  V30 26 C -2.695148 -1.570343 0.685797 0
M  V30 27 H 0.606941 0.400055 0.739083 0
M  V30 28 H 2.020597 -1.441576 2.039649 0
M  V30 29 H 3.058052 0.745105 1.913177 0
M  V30 30 H 3.080539 0.706925 0.140869 0
M  V30 31 H 4.584693 -1.159955 2.057823 0
M  V30 32 H 5.906260 0.816173 1.732805 0
M  V30 33 H 6.642465 -0.504223 0.829506 0
M  V30 34 H 6.708972 -0.327477 -1.753470 0
M  V30 35 H 6.402435 1.909114 -3.349129 0
M  V30 36 H 5.000655 2.832493 0.474227 0
M  V30 37 H 4.892500 -2.670850 0.261097 0
M  V30 38 H 4.520115 -1.450688 -0.965072 0
M  V30 39 H 2.348820 -2.064518 -0.914371 0
M  V30 40 H 1.569987 -3.491356 0.685079 0
M  V30 41 H -0.867170 0.848969 -0.867049 0
M  V30 42 H -3.092731 1.757034 -1.251172 0
M  V30 43 H -5.202862 2.026624 -2.162915 0
M  V30 44 H -7.824629 1.380520 -2.239051 0
M  V30 45 H -7.524290 2.947370 -1.445731 0
M  V30 46 H -8.762807 0.862724 -0.100743 0
M  V30 47 H -7.766038 2.077541 0.702322 0
M  V30 48 H -6.519994 0.235280 1.375654 0
M  V30 49 H -7.020763 -0.757136 -0.020756 0
M  V30 50 H -4.828986 -1.621839 0.807929 0
M  V30 51 H -2.588758 -2.510714 1.223388 0
M  V30 END ATOM
M  V30 BEGIN BOND
M  V30 1 2 1 2
M  V30 2 1 2 3
M  V30 3 1 3 4
M  V30 4 1 4 5
M  V30 5 1 5 6
M  V30 6 1 6 7
M  V30 7 1 7 8
M  V30 8 1 8 9
M  V30 9 2 9 10
M  V30 10 1 10 11
M  V30 11 2 11 12
M  V30 12 1 6 13
M  V30 13 1 13 14
M  V30 14 1 14 15
M  V30 15 1 2 16
M  V30 16 1 16 17
M  V30 17 2 17 18
M  V30 18 1 18 19
M  V30 19 1 19 20
M  V30 20 2 20 21
M  V30 21 1 21 22
M  V30 22 1 22 23
M  V30 23 1 23 24
M  V30 24 2 19 25
M  V30 25 1 25 26
M  V30 26 1 14 4
M  V30 27 2 26 16
M  V30 28 1 12 8
M  V30 29 1 24 20
M  V30 30 1 3 27
M  V30 31 1 4 28 CFG=1
M  V30 32 1 5 29
M  V30 33 1 5 30
M  V30 34 1 6 31
M  V30 35 1 7 32
M  V30 36 1 7 33
M  V30 37 1 9 34
M  V30 38 1 10 35
M  V30 39 1 12 36
M  V30 40 1 13 37
M  V30 41 1 13 38
M  V30 42 1 14 39 CFG=3
M  V30 43 1 15 40
M  V30 44 1 17 41
M  V30 45 1 18 42
M  V30 46 1 21 43
M  V30 47 1 22 44
M  V30 48 1 22 45
M  V30 49 1 23 46
M  V30 50 1 23 47
M  V30 51 1 24 48
M  V30 52 1 24 49
M  V30 53 1 25 50
M  V30 54 1 26 51
M  V30 END BOND
M  V30 BEGIN COLLECTION
M  V30 MDLV30/STERAC1 ATOMS=(2 4 14)
M  V30 END COLLECTION
M  V30 END CTAB
M  END
>  <_CXSMILES_Data>  (491) 
|&1:3,13|

$$$$
OCNT-2311745
     RDKit          3D

 48 50  0  0  0  0  0  0  0  0999 V2000
    5.1736    2.5682    0.9440 C   0  0  0  0  0  0  0  0  0  0  0  0
    5.1457    1.7562   -0.2299 O   0  0  0  0  0  0  0  0  0  0  0  0
    4.6509    0.4276    0.1371 N   0  0  0  0  0  0  0  0  0  0  0  0
    5.8286   -0.4344   -0.0100 C   0  0  0  0  0  0  0  0  0  0  0  0
    3.5891    0.1015   -0.8522 C   0  0  0  0  0  0  0  0  0  0  0  0
    3.0839   -1.3425   -0.6472 C   0  0  0  0  0  0  0  0  0  0  0  0
    1.7148   -1.5738   -1.2823 C   0  0  0  0  0  0  0  0  0  0  0  0
    0.7172   -0.6474   -0.7408 N   0  0  0  0  0  0  0  0  0  0  0  0
   -0.4979   -1.1564   -0.2835 C   0  0  0  0  0  0  0  0  0  0  0  0
   -1.1580   -2.1539   -0.9776 C   0  0  0  0  0  0  0  0  0  0  0  0
   -2.3626   -2.5872   -0.4733 C   0  0  0  0  0  0  0  0  0  0  0  0
   -2.9221   -2.0909    0.6387 N   0  0  0  0  0  0  0  0  0  0  0  0
   -2.2421   -1.0993    1.2425 C   0  0  0  0  0  0  0  0  0  0  0  0
   -2.8545   -0.4801    2.4755 C   0  0  0  0  0  0  0  0  0  0  0  0
   -3.3556    1.2672    2.2638 S   0  0  0  0  0  0  0  0  0  0  0  0
   -4.5676    1.0744    0.9714 C   0  0  0  0  0  0  0  0  0  0  0  0
   -5.8477    0.5922    1.2586 C   0  0  0  0  0  0  0  0  0  0  0  0
   -6.7899    0.4507    0.2375 C   0  0  0  0  0  0  0  0  0  0  0  0
   -6.4574    0.7951   -1.0721 C   0  0  0  0  0  0  0  0  0  0  0  0
   -5.1844    1.2840   -1.3620 C   0  0  0  0  0  0  0  0  0  0  0  0
   -4.2423    1.4270   -0.3417 C   0  0  0  0  0  0  0  0  0  0  0  0
   -1.0497   -0.6263    0.8235 N   0  0  0  0  0  0  0  0  0  0  0  0
    1.2150    0.5422   -0.0413 C   0  0  0  0  0  0  0  0  0  0  0  0
    2.4116    1.1006   -0.8029 C   0  0  0  0  0  0  0  0  0  0  0  0
    5.9143    2.1852    1.6530 H   0  0  0  0  0  0  0  0  0  0  0  0
    5.4630    3.5808    0.6507 H   0  0  0  0  0  0  0  0  0  0  0  0
    4.1871    2.6096    1.4162 H   0  0  0  0  0  0  0  0  0  0  0  0
    6.2121   -0.4418   -1.0366 H   0  0  0  0  0  0  0  0  0  0  0  0
    5.6059   -1.4626    0.2914 H   0  0  0  0  0  0  0  0  0  0  0  0
    6.6328   -0.0901    0.6500 H   0  0  0  0  0  0  0  0  0  0  0  0
    4.0239    0.1723   -1.8598 H   0  0  0  0  0  0  0  0  0  0  0  0
    3.7998   -2.0544   -1.0757 H   0  0  0  0  0  0  0  0  0  0  0  0
    3.0158   -1.5720    0.4254 H   0  0  0  0  0  0  0  0  0  0  0  0
    1.4446   -2.6225   -1.1085 H   0  0  0  0  0  0  0  0  0  0  0  0
    1.7770   -1.4303   -2.3677 H   0  0  0  0  0  0  0  0  0  0  0  0
   -0.7696   -2.5698   -1.8964 H   0  0  0  0  0  0  0  0  0  0  0  0
   -2.9309   -3.3653   -0.9733 H   0  0  0  0  0  0  0  0  0  0  0  0
   -3.7226   -1.0635    2.8012 H   0  0  0  0  0  0  0  0  0  0  0  0
   -2.1188   -0.5208    3.2857 H   0  0  0  0  0  0  0  0  0  0  0  0
   -6.1221    0.3252    2.2756 H   0  0  0  0  0  0  0  0  0  0  0  0
   -7.7829    0.0722    0.4649 H   0  0  0  0  0  0  0  0  0  0  0  0
   -7.1908    0.6835   -1.8665 H   0  0  0  0  0  0  0  0  0  0  0  0
   -4.9226    1.5535   -2.3816 H   0  0  0  0  0  0  0  0  0  0  0  0
   -3.2502    1.8045   -0.5798 H   0  0  0  0  0  0  0  0  0  0  0  0
    0.4393    1.3181   -0.0151 H   0  0  0  0  0  0  0  0  0  0  0  0
    1.4947    0.3071    0.9936 H   0  0  0  0  0  0  0  0  0  0  0  0
    2.6973    2.0662   -0.3750 H   0  0  0  0  0  0  0  0  0  0  0  0
    2.1040    1.3201   -1.8350 H   0  0  0  0  0  0  0  0  0  0  0  0
  1  2  1  0
  2  3  1  0
  3  4  1  0
  3  5  1  0
  5  6  1  0
  6  7  1  0
  7  8  1  0
  8  9  1  0
  9 10  1  0
 10 11  2  0
 11 12  1  0
 12 13  2  0
 13 14  1  0
 14 15  1  0
 15 16  1  0
 16 17  2  0
 17 18  1  0
 18 19  2  0
 19 20  1  0
 20 21  2  0
 13 22  1  0
  8 23  1  0
 23 24  1  0
 24  5  1  0
 22  9  2  0
 21 16  1  0
  1 25  1  0
  1 26  1  0
  1 27  1  0
  4 28  1  0
  4 29  1  0
  4 30  1  0
  5 31  1  0
  6 32  1  0
  6 33  1  0
  7 34  1  0
  7 35  1  0
 10 36  1  0
 11 37  1  0
 14 38  1  0
 14 39  1  0
 17 40  1  0
 18 41  1  0
 19 42  1  0
 20 43  1  0
 21 44  1  0
 23 45  1  0
 23 46  1  0
 24 47  1  0
 24 48  1  0
M  END
$$$$
OCNT-2311748
     RDKit          3D

 43 46  0  0  0  0  0  0  0  0999 V2000
   -4.4735    4.0644    0.0994 C   0  0  0  0  0  0  0  0  0  0  0  0
   -3.6389    2.8913    0.0072 N   0  0  0  0  0  0  0  0  0  0  0  0
   -2.3088    2.8109    0.2889 C   0  0  0  0  0  0  0  0  0  0  0  0
   -1.9567    1.5062    0.0529 C   0  0  0  0  0  0  0  0  0  0  0  0
   -0.7317    0.9520    0.2251 N   0  0  0  0  0  0  0  0  0  0  0  0
    0.3361    1.6129    0.9467 C   0  0  0  0  0  0  0  0  0  0  0  0
    1.5588    0.7759    1.0307 C   0  0  0  0  0  0  0  0  0  0  0  0
    2.5407    0.4788    0.1115 C   0  0  0  0  0  0  0  0  0  0  0  0
    3.4553   -0.3823    0.7792 C   0  0  0  0  0  0  0  0  0  0  0  0
    4.6823   -0.9941    0.2563 C   0  0  0  0  0  0  0  0  0  0  0  0
    5.4720   -1.8077    1.0753 C   0  0  0  0  0  0  0  0  0  0  0  0
    6.6236   -2.3691    0.5501 C   0  0  0  0  0  0  0  0  0  0  0  0
    7.0390   -2.1790   -0.7193 N   0  0  0  0  0  0  0  0  0  0  0  0
    6.2657   -1.3927   -1.4954 C   0  0  0  0  0  0  0  0  0  0  0  0
    5.0964   -0.7864   -1.0620 C   0  0  0  0  0  0  0  0  0  0  0  0
    3.0471   -0.5957    2.0423 N   0  0  0  0  0  0  0  0  0  0  0  0
    1.9081    0.0996    2.1613 N   0  0  0  0  0  0  0  0  0  0  0  0
   -3.1549    0.8636   -0.4008 C   0  0  0  0  0  0  0  0  0  0  0  0
   -3.3483   -0.5238   -0.8250 C   0  0  0  0  0  0  0  0  0  0  0  0
   -2.4025   -1.1688   -1.6341 C   0  0  0  0  0  0  0  0  0  0  0  0
   -2.5922   -2.4964   -2.0266 C   0  0  0  0  0  0  0  0  0  0  0  0
   -3.7322   -3.1882   -1.6204 C   0  0  0  0  0  0  0  0  0  0  0  0
   -4.6869   -2.5529   -0.8282 C   0  0  0  0  0  0  0  0  0  0  0  0
   -4.4977   -1.2258   -0.4355 C   0  0  0  0  0  0  0  0  0  0  0  0
   -4.1851    1.7292   -0.3840 N   0  0  0  0  0  0  0  0  0  0  0  0
   -4.8946    4.2665   -0.8886 H   0  0  0  0  0  0  0  0  0  0  0  0
   -3.8717    4.9149    0.4291 H   0  0  0  0  0  0  0  0  0  0  0  0
   -5.2677    3.8665    0.8235 H   0  0  0  0  0  0  0  0  0  0  0  0
   -1.7479    3.6692    0.6265 H   0  0  0  0  0  0  0  0  0  0  0  0
   -0.6492   -0.0623    0.2049 H   0  0  0  0  0  0  0  0  0  0  0  0
   -0.0036    1.8678    1.9589 H   0  0  0  0  0  0  0  0  0  0  0  0
    0.5945    2.5554    0.4474 H   0  0  0  0  0  0  0  0  0  0  0  0
    2.5818    0.8384   -0.9069 H   0  0  0  0  0  0  0  0  0  0  0  0
    5.1981   -2.0041    2.1071 H   0  0  0  0  0  0  0  0  0  0  0  0
    7.2604   -3.0060    1.1572 H   0  0  0  0  0  0  0  0  0  0  0  0
    6.6213   -1.2564   -2.5129 H   0  0  0  0  0  0  0  0  0  0  0  0
    4.5356   -0.1704   -1.7542 H   0  0  0  0  0  0  0  0  0  0  0  0
    1.4166    0.0628    3.0489 H   0  0  0  0  0  0  0  0  0  0  0  0
   -1.5204   -0.6360   -1.9817 H   0  0  0  0  0  0  0  0  0  0  0  0
   -1.8544   -2.9866   -2.6565 H   0  0  0  0  0  0  0  0  0  0  0  0
   -3.8815   -4.2196   -1.9291 H   0  0  0  0  0  0  0  0  0  0  0  0
   -5.5818   -3.0862   -0.5188 H   0  0  0  0  0  0  0  0  0  0  0  0
   -5.2514   -0.7355    0.1773 H   0  0  0  0  0  0  0  0  0  0  0  0
  1  2  1  0
  2  3  1  0
  3  4  2  0
  4  5  1  0
  5  6  1  0
  6  7  1  0
  7  8  2  0
  8  9  1  0
  9 10  1  0
 10 11  2  0
 11 12  1  0
 12 13  2  0
 13 14  1  0
 14 15  2  0
  9 16  2  0
 16 17  1  0
  4 18  1  0
 18 19  1  0
 19 20  2  0
 20 21  1  0
 21 22  2  0
 22 23  1  0
 23 24  2  0
 18 25  2  0
 25  2  1  0
 17  7  1  0
 24 19  1  0
 15 10  1  0
  1 26  1  0
  1 27  1  0
  1 28  1  0
  3 29  1  0
  5 30  1  0
  6 31  1  0
  6 32  1  0
  8 33  1  0
 11 34  1  0
 12 35  1  0
 14 36  1  0
 15 37  1  0
 17 38  1  0
 20 39  1  0
 21 40  1  0
 22 41  1  0
 23 42  1  0
 24 43  1  0
M  END
$$$$
OCNT-2311751
     RDKit          3D

 40 43  0  0  0  0  0  0  0  0999 V2000
    1.3899   -1.0917   -2.3473 O   0  0  0  0  0  0  0  0  0  0  0  0
    0.8131   -0.9982   -1.2728 C   0  0  0  0  0  0  0  0  0  0  0  0
    1.3183   -0.5292   -0.0921 N   0  0  0  0  0  0  0  0  0  0  0  0
    2.5695   -0.0482    0.1984 C   0  0  0  0  0  0  0  0  0  0  0  0
    2.7549    0.3467    1.4640 N   0  0  0  0  0  0  0  0  0  0  0  0
    4.0248    0.7658    1.5006 N   0  0  0  0  0  0  0  0  0  0  0  0
    4.6827    0.6646    0.3103 C   0  0  0  0  0  0  0  0  0  0  0  0
    5.9931    0.9945   -0.0442 C   0  0  0  0  0  0  0  0  0  0  0  0
    7.0882    1.6521    1.1033 Cl  0  0  0  0  0  0  0  0  0  0  0  0
    6.3917    0.7751   -1.3617 C   0  0  0  0  0  0  0  0  0  0  0  0
    5.4984    0.2416   -2.2857 C   0  0  0  0  0  0  0  0  0  0  0  0
    4.1855   -0.0839   -1.9110 C   0  0  0  0  0  0  0  0  0  0  0  0
    3.7548    0.1284   -0.5834 C   0  0  0  0  0  0  0  0  0  0  0  0
   -0.5916   -1.4055   -1.1204 C   0  0  0  0  0  0  0  0  0  0  0  0
   -1.3695   -1.9183   -2.1410 C   0  0  0  0  0  0  0  0  0  0  0  0
   -2.9429   -2.2704   -1.5684 S   0  0  0  0  0  0  0  0  0  0  0  0
   -2.4973   -1.7027   -0.0060 C   0  0  0  0  0  0  0  0  0  0  0  0
   -3.4829   -1.7321    1.1250 C   0  0  0  0  0  0  0  0  0  0  0  0
   -3.9914   -0.3630    1.5786 C   0  0  0  0  0  0  0  0  0  0  0  0
   -4.7460    0.4600    0.5339 C   0  0  0  0  0  0  0  0  0  0  0  0
   -4.4682    1.9125    0.9143 C   0  0  0  0  0  0  0  0  0  0  0  0
   -3.6944    1.8553    2.1553 N   0  0  0  0  0  0  0  0  0  0  0  0
   -2.9344    0.6058    2.0888 C   0  0  0  0  0  0  0  0  0  0  0  0
   -1.2503   -1.2952    0.1090 N   0  0  0  0  0  0  0  0  0  0  0  0
    0.6874   -0.5271    0.7024 H   0  0  0  0  0  0  0  0  0  0  0  0
    4.3963    1.1164    2.3770 H   0  0  0  0  0  0  0  0  0  0  0  0
    7.4039    1.0197   -1.6743 H   0  0  0  0  0  0  0  0  0  0  0  0
    5.8167    0.0726   -3.3124 H   0  0  0  0  0  0  0  0  0  0  0  0
    3.5236   -0.4979   -2.6639 H   0  0  0  0  0  0  0  0  0  0  0  0
   -1.0852   -2.0982   -3.1688 H   0  0  0  0  0  0  0  0  0  0  0  0
   -4.3444   -2.3587    0.8612 H   0  0  0  0  0  0  0  0  0  0  0  0
   -2.9985   -2.2281    1.9762 H   0  0  0  0  0  0  0  0  0  0  0  0
   -4.6919   -0.5534    2.4069 H   0  0  0  0  0  0  0  0  0  0  0  0
   -5.8173    0.2333    0.5662 H   0  0  0  0  0  0  0  0  0  0  0  0
   -4.3955    0.2751   -0.4856 H   0  0  0  0  0  0  0  0  0  0  0  0
   -3.8867    2.4034    0.1254 H   0  0  0  0  0  0  0  0  0  0  0  0
   -5.3931    2.4789    1.0580 H   0  0  0  0  0  0  0  0  0  0  0  0
   -3.0674    2.6553    2.2271 H   0  0  0  0  0  0  0  0  0  0  0  0
   -2.0896    0.7250    1.4038 H   0  0  0  0  0  0  0  0  0  0  0  0
   -2.5543    0.3196    3.0737 H   0  0  0  0  0  0  0  0  0  0  0  0
  1  2  2  0
  2  3  1  0
  3  4  1  0
  4  5  2  0
  5  6  1  0
  6  7  1  0
  7  8  2  0
  8  9  1  0
  8 10  1  0
 10 11  2  0
 11 12  1  0
 12 13  2  0
  2 14  1  0
 14 15  2  0
 15 16  1  0
 16 17  1  0
 17 18  1  0
 18 19  1  0
 19 20  1  0
 20 21  1  0
 21 22  1  0
 22 23  1  0
 17 24  2  0
 13  4  1  0
 24 14  1  0
 13  7  1  0
 23 19  1  0
  3 25  1  0
  6 26  1  0
 10 27  1  0
 11 28  1  0
 12 29  1  0
 15 30  1  0
 18 31  1  0
 18 32  1  0
 19 33  1  0
 20 34  1  0
 20 35  1  0
 21 36  1  0
 21 37  1  0
 22 38  1  0
 23 39  1  0
 23 40  1  0
M  END
$$$$
OCNT-2311754
     RDKit          3D

 48 50  0  0  0  0  0  0  0  0999 V2000
   -3.9998    2.8926    1.7763 C   0  0  0  0  0  0  0  0  0  0  0  0
   -3.4647    1.6442    1.2911 N   0  0  0  0  0  0  0  0  0  0  0  0
   -2.5346    0.8610    1.8933 C   0  0  0  0  0  0  0  0  0  0  0  0
   -2.3348   -0.2279    1.0632 C   0  0  0  0  0  0  0  0  0  0  0  0
   -1.4073   -1.3665    1.3278 C   0  0  0  0  0  0  0  0  0  0  0  0
   -0.0840   -1.1031    0.7644 N   0  0  0  0  0  0  0  0  0  0  0  0
    0.7276   -0.2132    1.5851 C   0  0  0  0  0  0  0  0  0  0  0  0
    2.0915   -0.0358    0.9750 C   0  0  0  0  0  0  0  0  0  0  0  0
    2.3878    1.0445    0.1416 C   0  0  0  0  0  0  0  0  0  0  0  0
    3.6610    1.1666   -0.4171 C   0  0  0  0  0  0  0  0  0  0  0  0
    4.6129    0.1923   -0.1285 C   0  0  0  0  0  0  0  0  0  0  0  0
    5.9229    0.2806   -0.6740 N   0  0  0  0  0  0  0  0  0  0  0  0
    6.4565    1.2431   -1.5038 C   0  0  0  0  0  0  0  0  0  0  0  0
    7.7580    0.8603   -1.7337 C   0  0  0  0  0  0  0  0  0  0  0  0
    8.0485   -0.3017   -1.0772 N   0  0  0  0  0  0  0  0  0  0  0  0
    6.9361   -0.6266   -0.4538 C   0  0  0  0  0  0  0  0  0  0  0  0
    4.3451   -0.8722    0.6710 N   0  0  0  0  0  0  0  0  0  0  0  0
    3.0993   -0.9666    1.1912 C   0  0  0  0  0  0  0  0  0  0  0  0
   -3.2394   -0.0067   -0.0320 C   0  0  0  0  0  0  0  0  0  0  0  0
   -3.5517   -0.8773   -1.2518 C   0  0  0  0  0  0  0  0  0  0  0  0
   -2.2703   -1.3128   -1.9873 C   0  0  0  0  0  0  0  0  0  0  0  0
   -4.4205   -0.1174   -2.2873 C   0  0  0  0  0  0  0  0  0  0  0  0
   -4.3430   -2.1269   -0.8172 C   0  0  0  0  0  0  0  0  0  0  0  0
   -3.9047    1.1489    0.1305 N   0  0  0  0  0  0  0  0  0  0  0  0
   -5.0779    2.7763    1.9125 H   0  0  0  0  0  0  0  0  0  0  0  0
   -3.5285    3.1449    2.7294 H   0  0  0  0  0  0  0  0  0  0  0  0
   -3.7865    3.6696    1.0379 H   0  0  0  0  0  0  0  0  0  0  0  0
   -2.0957    1.1249    2.8453 H   0  0  0  0  0  0  0  0  0  0  0  0
   -1.7992   -2.2825    0.8776 H   0  0  0  0  0  0  0  0  0  0  0  0
   -1.3422   -1.5733    2.4032 H   0  0  0  0  0  0  0  0  0  0  0  0
   -0.1883   -0.7020   -0.1660 H   0  0  0  0  0  0  0  0  0  0  0  0
    0.2631    0.7730    1.6945 H   0  0  0  0  0  0  0  0  0  0  0  0
    0.8453   -0.6207    2.5971 H   0  0  0  0  0  0  0  0  0  0  0  0
    1.6307    1.7937   -0.0790 H   0  0  0  0  0  0  0  0  0  0  0  0
    3.8671    2.0143   -1.0593 H   0  0  0  0  0  0  0  0  0  0  0  0
    5.9007    2.0963   -1.8591 H   0  0  0  0  0  0  0  0  0  0  0  0
    8.5006    1.3640   -2.3394 H   0  0  0  0  0  0  0  0  0  0  0  0
    6.7968   -1.5004    0.1701 H   0  0  0  0  0  0  0  0  0  0  0  0
    2.9271   -1.8465    1.8064 H   0  0  0  0  0  0  0  0  0  0  0  0
   -1.6309   -0.4522   -2.2155 H   0  0  0  0  0  0  0  0  0  0  0  0
   -1.6811   -2.0248   -1.4036 H   0  0  0  0  0  0  0  0  0  0  0  0
   -2.5070   -1.8120   -2.9345 H   0  0  0  0  0  0  0  0  0  0  0  0
   -3.9154    0.7889   -2.6423 H   0  0  0  0  0  0  0  0  0  0  0  0
   -4.6324   -0.7418   -3.1634 H   0  0  0  0  0  0  0  0  0  0  0  0
   -5.3865    0.1818   -1.8635 H   0  0  0  0  0  0  0  0  0  0  0  0
   -4.6041   -2.7510   -1.6797 H   0  0  0  0  0  0  0  0  0  0  0  0
   -3.7728   -2.7517   -0.1227 H   0  0  0  0  0  0  0  0  0  0  0  0
   -5.2754   -1.8481   -0.3120 H   0  0  0  0  0  0  0  0  0  0  0  0
  1  2  1  0
  2  3  1  0
  3  4  2  0
  4  5  1  0
  5  6  1  0
  6  7  1  0
  7  8  1  0
  8  9  2  0
  9 10  1  0
 10 11  2  0
 11 12  1  0
 12 13  1  0
 13 14  2  0
 14 15  1  0
 15 16  2  0
 11 17  1  0
 17 18  2  0
  4 19  1  0
 19 20  1  0
 20 21  1  0
 20 22  1  0
 20 23  1  0
 19 24  2  0
 24  2  1  0
 18  8  1  0
 16 12  1  0
  1 25  1  0
  1 26  1  0
  1 27  1  0
  3 28  1  0
  5 29  1  0
  5 30  1  0
  6 31  1  0
  7 32  1  0
  7 33  1  0
  9 34  1  0
 10 35  1  0
 13 36  1  0
 14 37  1  0
 16 38  1  0
 18 39  1  0
 21 40  1  0
 21 41  1  0
 21 42  1  0
 22 43  1  0
 22 44  1  0
 22 45  1  0
 23 46  1  0
 23 47  1  0
 23 48  1  0
M  END
$$$$
OCNT-2311779
     RDKit          3D

 37 39  0  0  0  0  0  0  0  0999 V2000
   -0.1068   -1.7031   -0.8259 O   0  0  0  0  0  0  0  0  0  0  0  0
   -0.8261   -0.5994   -1.4198 S   0  0  0  0  0  0  0  0  0  0  0  0
   -1.5525   -0.7552   -2.6622 O   0  0  0  0  0  0  0  0  0  0  0  0
   -1.9200    0.1225   -0.2121 C   0  0  0  0  0  0  0  0  0  0  0  0
   -2.9542   -0.8832    0.2737 C   0  0  0  0  0  0  0  0  0  0  0  0
   -4.1335   -1.0937   -0.6705 C   0  0  0  0  0  0  0  0  0  0  0  0
   -5.1761   -0.1413   -0.1398 C   0  0  0  0  0  0  0  0  0  0  0  0
   -4.9298   -0.2142    1.3471 C   0  0  0  0  0  0  0  0  0  0  0  0
   -3.5138   -0.3664    1.5057 O   0  0  0  0  0  0  0  0  0  0  0  0
    0.2362    0.6970   -1.7054 N   0  0  0  0  0  0  0  0  0  0  0  0
    1.5477    0.5829   -1.1560 C   0  0  0  0  0  0  0  0  0  0  0  0
    1.7753    1.0022    0.1547 C   0  0  0  0  0  0  0  0  0  0  0  0
    3.0425    0.8644    0.7653 C   0  0  0  0  0  0  0  0  0  0  0  0
    3.2645    1.3582    2.1692 C   0  0  0  0  0  0  0  0  0  0  0  0
    2.1108    1.5038    2.8789 F   0  0  0  0  0  0  0  0  0  0  0  0
    3.8729    2.5758    2.1948 F   0  0  0  0  0  0  0  0  0  0  0  0
    4.0528    0.5302    2.9082 F   0  0  0  0  0  0  0  0  0  0  0  0
    4.0729    0.2850   -0.0079 C   0  0  0  0  0  0  0  0  0  0  0  0
    5.4410   -0.0231    0.1878 C   0  0  0  0  0  0  0  0  0  0  0  0
    6.0009   -0.5903   -0.8824 N   0  0  0  0  0  0  0  0  0  0  0  0
    4.9903   -0.6660   -1.7640 N   0  0  0  0  0  0  0  0  0  0  0  0
    3.8102   -0.1386   -1.3069 C   0  0  0  0  0  0  0  0  0  0  0  0
    2.5577   -0.0134   -1.9147 C   0  0  0  0  0  0  0  0  0  0  0  0
   -1.3014    0.4518    0.6290 H   0  0  0  0  0  0  0  0  0  0  0  0
   -2.3895    1.0067   -0.6544 H   0  0  0  0  0  0  0  0  0  0  0  0
   -2.4769   -1.8412    0.5070 H   0  0  0  0  0  0  0  0  0  0  0  0
   -4.5002   -2.1226   -0.5662 H   0  0  0  0  0  0  0  0  0  0  0  0
   -3.9107   -0.9324   -1.7268 H   0  0  0  0  0  0  0  0  0  0  0  0
   -6.1981   -0.4115   -0.4174 H   0  0  0  0  0  0  0  0  0  0  0  0
   -4.9742    0.8719   -0.5063 H   0  0  0  0  0  0  0  0  0  0  0  0
   -5.2666    0.6812    1.8766 H   0  0  0  0  0  0  0  0  0  0  0  0
   -5.4160   -1.0897    1.7907 H   0  0  0  0  0  0  0  0  0  0  0  0
    0.2077    0.9175   -2.7038 H   0  0  0  0  0  0  0  0  0  0  0  0
    0.9617    1.4552    0.7194 H   0  0  0  0  0  0  0  0  0  0  0  0
    6.0496    0.1421    1.0687 H   0  0  0  0  0  0  0  0  0  0  0  0
    5.1730   -1.0868   -2.6683 H   0  0  0  0  0  0  0  0  0  0  0  0
    2.3789   -0.3761   -2.9210 H   0  0  0  0  0  0  0  0  0  0  0  0
  1  2  2  0
  2  3  2  0
  2  4  1  0
  4  5  1  0
  5  6  1  0
  6  7  1  0
  7  8  1  0
  8  9  1  0
  2 10  1  0
 10 11  1  0
 11 12  2  0
 12 13  1  0
 13 14  1  0
 14 15  1  0
 14 16  1  0
 14 17  1  0
 13 18  2  0
 18 19  1  0
 19 20  2  0
 20 21  1  0
 21 22  1  0
 22 23  2  0
  9  5  1  0
 23 11  1  0
 22 18  1  0
  4 24  1  0
  4 25  1  0
  5 26  1  0
  6 27  1  0
  6 28  1  0
  7 29  1  0
  7 30  1  0
  8 31  1  0
  8 32  1  0
 10 33  1  0
 12 34  1  0
 19 35  1  0
 21 36  1  0
 23 37  1  0
M  END
$$$$
OCNT-2311783
     RDKit          3D

 42 44  0  0  0  0  0  0  0  0999 V2000
    2.2309   -2.0214    0.0510 C   0  0  0  0  0  0  0  0  0  0  0  0
    3.2066   -1.2055    0.7123 O   0  0  0  0  0  0  0  0  0  0  0  0
    3.9927   -0.5667   -0.2139 C   0  0  0  0  0  0  0  0  0  0  0  0
    5.1578   -1.1875   -0.6892 C   0  0  0  0  0  0  0  0  0  0  0  0
    5.6493   -2.7424   -0.1198 Cl  0  0  0  0  0  0  0  0  0  0  0  0
    5.9610   -0.5541   -1.6403 C   0  0  0  0  0  0  0  0  0  0  0  0
    5.6159    0.7057   -2.1157 C   0  0  0  0  0  0  0  0  0  0  0  0
    4.4789    1.3449   -1.6207 C   0  0  0  0  0  0  0  0  0  0  0  0
    3.6712    0.7280   -0.6497 C   0  0  0  0  0  0  0  0  0  0  0  0
    2.5054    1.5108   -0.1420 C   0  0  0  0  0  0  0  0  0  0  0  0
    2.0300    2.4142   -0.8178 O   0  0  0  0  0  0  0  0  0  0  0  0
    2.0154    1.1701    1.0955 N   0  0  0  0  0  0  0  0  0  0  0  0
    0.9825    1.9359    1.7735 C   0  0  0  0  0  0  0  0  0  0  0  0
   -0.2018    1.0745    2.2217 C   0  0  0  0  0  0  0  0  0  0  0  0
   -1.1623    0.6959    1.1459 C   0  0  0  0  0  0  0  0  0  0  0  0
   -2.3888    0.2620    1.4661 N   0  0  0  0  0  0  0  0  0  0  0  0
   -2.9620    0.0574    0.2472 N   0  0  0  0  0  0  0  0  0  0  0  0
   -4.3141   -0.3436    0.1059 C   0  0  0  0  0  0  0  0  0  0  0  0
   -4.8490   -0.5730   -1.1698 C   0  0  0  0  0  0  0  0  0  0  0  0
   -6.1831   -0.9597   -1.3064 C   0  0  0  0  0  0  0  0  0  0  0  0
   -6.9886   -1.1128   -0.1757 C   0  0  0  0  0  0  0  0  0  0  0  0
   -6.4602   -0.8866    1.0951 C   0  0  0  0  0  0  0  0  0  0  0  0
   -5.1225   -0.5017    1.2386 C   0  0  0  0  0  0  0  0  0  0  0  0
   -2.1618    0.2728   -0.8233 N   0  0  0  0  0  0  0  0  0  0  0  0
   -1.0362    0.7011   -0.2511 C   0  0  0  0  0  0  0  0  0  0  0  0
    2.7040   -2.8317   -0.5189 H   0  0  0  0  0  0  0  0  0  0  0  0
    1.5916   -1.4205   -0.6033 H   0  0  0  0  0  0  0  0  0  0  0  0
    1.5938   -2.4730    0.8200 H   0  0  0  0  0  0  0  0  0  0  0  0
    6.8577   -1.0444   -2.0150 H   0  0  0  0  0  0  0  0  0  0  0  0
    6.2371    1.1970   -2.8612 H   0  0  0  0  0  0  0  0  0  0  0  0
    4.2249    2.3408   -1.9887 H   0  0  0  0  0  0  0  0  0  0  0  0
    2.4912    0.4394    1.6106 H   0  0  0  0  0  0  0  0  0  0  0  0
    1.4698    2.3628    2.6544 H   0  0  0  0  0  0  0  0  0  0  0  0
    0.6487    2.7692    1.1517 H   0  0  0  0  0  0  0  0  0  0  0  0
   -0.7589    1.6409    2.9867 H   0  0  0  0  0  0  0  0  0  0  0  0
    0.1643    0.1555    2.7074 H   0  0  0  0  0  0  0  0  0  0  0  0
   -4.2347   -0.4706   -2.0642 H   0  0  0  0  0  0  0  0  0  0  0  0
   -6.5976   -1.1417   -2.2953 H   0  0  0  0  0  0  0  0  0  0  0  0
   -8.0315   -1.4119   -0.2849 H   0  0  0  0  0  0  0  0  0  0  0  0
   -7.0920   -0.9992    1.9749 H   0  0  0  0  0  0  0  0  0  0  0  0
   -4.7293   -0.3271    2.2377 H   0  0  0  0  0  0  0  0  0  0  0  0
   -0.2065    0.9964   -0.8715 H   0  0  0  0  0  0  0  0  0  0  0  0
  1  2  1  0
  2  3  1  0
  3  4  2  0
  4  5  1  0
  4  6  1  0
  6  7  2  0
  7  8  1  0
  8  9  2  0
  9 10  1  0
 10 11  2  0
 10 12  1  0
 12 13  1  0
 13 14  1  0
 14 15  1  0
 15 16  2  0
 16 17  1  0
 17 18  1  0
 18 19  2  0
 19 20  1  0
 20 21  2  0
 21 22  1  0
 22 23  2  0
 17 24  1  0
 24 25  2  0
  9  3  1  0
 25 15  1  0
 23 18  1  0
  1 26  1  0
  1 27  1  0
  1 28  1  0
  6 29  1  0
  7 30  1  0
  8 31  1  0
 12 32  1  0
 13 33  1  0
 13 34  1  0
 14 35  1  0
 14 36  1  0
 19 37  1  0
 20 38  1  0
 21 39  1  0
 22 40  1  0
 23 41  1  0
 25 42  1  0
M  END
$$$$
OCNT-2311790
     RDKit          3D

 49 51  0  0  0  0  0  0  0  0999 V2000
    1.5688    3.7264    1.0515 C   0  0  0  0  0  0  0  0  0  0  0  0
    1.7951    2.2520    0.8920 C   0  0  0  0  0  0  0  0  0  0  0  0
    0.7414    1.3488    1.0317 C   0  0  0  0  0  0  0  0  0  0  0  0
    0.9633   -0.0281    0.8706 C   0  0  0  0  0  0  0  0  0  0  0  0
   -0.1854   -0.9621    1.0510 C   0  0  0  0  0  0  0  0  0  0  0  0
   -0.0266   -1.9613    1.7442 O   0  0  0  0  0  0  0  0  0  0  0  0
   -1.3320   -0.5828    0.3824 N   0  0  0  0  0  0  0  0  0  0  0  0
   -2.5703   -1.2628    0.3087 C   0  0  0  0  0  0  0  0  0  0  0  0
   -2.8112   -2.4842    0.9422 C   0  0  0  0  0  0  0  0  0  0  0  0
   -4.0266   -3.1414    0.7579 C   0  0  0  0  0  0  0  0  0  0  0  0
   -5.0002   -2.5843   -0.0637 C   0  0  0  0  0  0  0  0  0  0  0  0
   -4.7753   -1.3538   -0.6877 C   0  0  0  0  0  0  0  0  0  0  0  0
   -3.5784   -0.6549   -0.4900 C   0  0  0  0  0  0  0  0  0  0  0  0
   -3.3034    0.6121   -1.0518 N   0  0  0  0  0  0  0  0  0  0  0  0
   -4.2786    1.2775   -1.9485 C   0  0  0  0  0  0  0  0  0  0  0  0
   -5.3816    2.0822   -1.2460 C   0  0  0  0  0  0  0  0  0  0  0  0
   -6.2866    1.2943   -0.6299 F   0  0  0  0  0  0  0  0  0  0  0  0
   -4.8511    2.9130   -0.3171 F   0  0  0  0  0  0  0  0  0  0  0  0
   -6.0516    2.8483   -2.1381 F   0  0  0  0  0  0  0  0  0  0  0  0
    2.2549   -0.5312    0.5927 C   0  0  0  0  0  0  0  0  0  0  0  0
    2.4527   -1.9152    0.3915 N   0  0  0  0  0  0  0  0  0  0  0  0
    3.8188   -2.3839    0.5315 C   0  0  0  0  0  0  0  0  0  0  0  0
    4.7129   -1.5773   -0.3903 C   0  0  0  0  0  0  0  0  0  0  0  0
    4.7096   -0.1026    0.0365 C   0  0  0  0  0  0  0  0  0  0  0  0
    5.4132    0.7214   -1.0495 C   0  0  0  0  0  0  0  0  0  0  0  0
    3.3060    0.3884    0.3741 C   0  0  0  0  0  0  0  0  0  0  0  0
    3.0634    1.7654    0.5532 C   0  0  0  0  0  0  0  0  0  0  0  0
    0.6898    3.9256    1.6751 H   0  0  0  0  0  0  0  0  0  0  0  0
    2.4282    4.1994    1.5402 H   0  0  0  0  0  0  0  0  0  0  0  0
    1.4157    4.1895    0.0707 H   0  0  0  0  0  0  0  0  0  0  0  0
   -0.2476    1.7129    1.2988 H   0  0  0  0  0  0  0  0  0  0  0  0
   -1.2622    0.1915   -0.2687 H   0  0  0  0  0  0  0  0  0  0  0  0
   -2.0632   -2.9591    1.5680 H   0  0  0  0  0  0  0  0  0  0  0  0
   -4.2033   -4.0964    1.2461 H   0  0  0  0  0  0  0  0  0  0  0  0
   -5.9421   -3.1053   -0.2166 H   0  0  0  0  0  0  0  0  0  0  0  0
   -5.5744   -0.9623   -1.3073 H   0  0  0  0  0  0  0  0  0  0  0  0
   -3.0330    1.2396   -0.2891 H   0  0  0  0  0  0  0  0  0  0  0  0
   -3.6969    1.9884   -2.5474 H   0  0  0  0  0  0  0  0  0  0  0  0
   -4.7067    0.5719   -2.6687 H   0  0  0  0  0  0  0  0  0  0  0  0
    1.7795   -2.4533    0.9515 H   0  0  0  0  0  0  0  0  0  0  0  0
    4.1483   -2.3111    1.5751 H   0  0  0  0  0  0  0  0  0  0  0  0
    3.8582   -3.4415    0.2498 H   0  0  0  0  0  0  0  0  0  0  0  0
    5.7350   -1.9730   -0.3646 H   0  0  0  0  0  0  0  0  0  0  0  0
    4.3549   -1.6755   -1.4242 H   0  0  0  0  0  0  0  0  0  0  0  0
    5.2978   -0.0205    0.9611 H   0  0  0  0  0  0  0  0  0  0  0  0
    5.6084    1.7467   -0.7205 H   0  0  0  0  0  0  0  0  0  0  0  0
    6.3831    0.2796   -1.3043 H   0  0  0  0  0  0  0  0  0  0  0  0
    4.8116    0.7709   -1.9640 H   0  0  0  0  0  0  0  0  0  0  0  0
    3.8779    2.4781    0.4397 H   0  0  0  0  0  0  0  0  0  0  0  0
  1  2  1  0
  2  3  1  0
  3  4  2  0
  4  5  1  0
  5  6  2  0
  5  7  1  0
  7  8  1  0
  8  9  2  0
  9 10  1  0
 10 11  2  0
 11 12  1  0
 12 13  2  0
 13 14  1  0
 14 15  1  0
 15 16  1  0
 16 17  1  0
 16 18  1  0
 16 19  1  0
  4 20  1  0
 20 21  1  0
 21 22  1  0
 22 23  1  0
 23 24  1  0
 24 25  1  0
 24 26  1  0
 26 27  1  0
 27  2  2  0
 13  8  1  0
 26 20  2  0
  1 28  1  0
  1 29  1  0
  1 30  1  0
  3 31  1  0
  7 32  1  0
  9 33  1  0
 10 34  1  0
 11 35  1  0
 12 36  1  0
 14 37  1  0
 15 38  1  0
 15 39  1  0
 21 40  1  0
 22 41  1  0
 22 42  1  0
 23 43  1  0
 23 44  1  0
 24 45  1  0
 25 46  1  0
 25 47  1  0
 25 48  1  0
 27 49  1  0
M  END
$$$$
OCNT-2311794
     RDKit          3D

 43 46  0  0  0  0  0  0  0  0999 V2000
    3.8642    0.6141   -3.6443 C   0  0  0  0  0  0  0  0  0  0  0  0
    3.7594    0.6736   -2.1971 N   0  0  0  0  0  0  0  0  0  0  0  0
    3.1760   -0.4150   -1.6008 N   0  0  0  0  0  0  0  0  0  0  0  0
    3.0878   -0.4540   -0.3055 C   0  0  0  0  0  0  0  0  0  0  0  0
    2.4386   -1.6849    0.2841 C   0  0  0  0  0  0  0  0  0  0  0  0
    0.9689   -1.4739    0.5613 C   0  0  0  0  0  0  0  0  0  0  0  0
    0.5718   -1.3857    1.7182 O   0  0  0  0  0  0  0  0  0  0  0  0
    0.2253   -1.3990   -0.5946 N   0  0  0  0  0  0  0  0  0  0  0  0
   -1.1306   -1.2339   -0.7012 C   0  0  0  0  0  0  0  0  0  0  0  0
   -1.7025   -1.1331   -1.8764 N   0  0  0  0  0  0  0  0  0  0  0  0
   -3.0670   -0.9886   -1.7067 C   0  0  0  0  0  0  0  0  0  0  0  0
   -3.5275   -0.9826   -0.3995 C   0  0  0  0  0  0  0  0  0  0  0  0
   -4.8966   -0.8333    0.1164 C   0  0  0  0  0  0  0  0  0  0  0  0
   -5.8472   -0.1003   -0.6150 C   0  0  0  0  0  0  0  0  0  0  0  0
   -7.1575    0.0494   -0.1497 C   0  0  0  0  0  0  0  0  0  0  0  0
   -7.5401   -0.5329    1.0550 C   0  0  0  0  0  0  0  0  0  0  0  0
   -6.6141   -1.2653    1.7938 C   0  0  0  0  0  0  0  0  0  0  0  0
   -5.3043   -1.4155    1.3277 C   0  0  0  0  0  0  0  0  0  0  0  0
   -2.1681   -1.1583    0.6425 S   0  0  0  0  0  0  0  0  0  0  0  0
    3.5602    0.6337    0.5767 C   0  0  0  0  0  0  0  0  0  0  0  0
    3.4012    0.6233    1.9685 C   0  0  0  0  0  0  0  0  0  0  0  0
    3.8885    1.6855    2.7359 C   0  0  0  0  0  0  0  0  0  0  0  0
    4.5300    2.7593    2.1217 C   0  0  0  0  0  0  0  0  0  0  0  0
    4.6786    2.7772    0.7355 C   0  0  0  0  0  0  0  0  0  0  0  0
    4.1885    1.7136   -0.0355 C   0  0  0  0  0  0  0  0  0  0  0  0
    4.3253    1.7403   -1.5042 C   0  0  0  0  0  0  0  0  0  0  0  0
    4.9101    2.6804   -2.0369 O   0  0  0  0  0  0  0  0  0  0  0  0
    2.8995    0.3093   -4.0610 H   0  0  0  0  0  0  0  0  0  0  0  0
    4.1469    1.5811   -4.0685 H   0  0  0  0  0  0  0  0  0  0  0  0
    4.6258   -0.1263   -3.9037 H   0  0  0  0  0  0  0  0  0  0  0  0
    2.5495   -2.5257   -0.4121 H   0  0  0  0  0  0  0  0  0  0  0  0
    2.9472   -1.9942    1.2014 H   0  0  0  0  0  0  0  0  0  0  0  0
    0.6979   -1.4007   -1.4912 H   0  0  0  0  0  0  0  0  0  0  0  0
   -3.6905   -0.8958   -2.5876 H   0  0  0  0  0  0  0  0  0  0  0  0
   -5.5784    0.3784   -1.5542 H   0  0  0  0  0  0  0  0  0  0  0  0
   -7.8765    0.6247   -0.7281 H   0  0  0  0  0  0  0  0  0  0  0  0
   -8.5570   -0.4148    1.4191 H   0  0  0  0  0  0  0  0  0  0  0  0
   -6.9080   -1.7220    2.7359 H   0  0  0  0  0  0  0  0  0  0  0  0
   -4.6122   -2.0035    1.9273 H   0  0  0  0  0  0  0  0  0  0  0  0
    2.8951   -0.1867    2.4871 H   0  0  0  0  0  0  0  0  0  0  0  0
    3.7621    1.6759    3.8167 H   0  0  0  0  0  0  0  0  0  0  0  0
    4.9081    3.5852    2.7204 H   0  0  0  0  0  0  0  0  0  0  0  0
    5.1716    3.6214    0.2565 H   0  0  0  0  0  0  0  0  0  0  0  0
  1  2  1  0
  2  3  1  0
  3  4  2  0
  4  5  1  0
  5  6  1  0
  6  7  2  0
  6  8  1  0
  8  9  1  0
  9 10  2  0
 10 11  1  0
 11 12  2  0
 12 13  1  0
 13 14  2  0
 14 15  1  0
 15 16  2  0
 16 17  1  0
 17 18  2  0
 12 19  1  0
  4 20  1  0
 20 21  2  0
 21 22  1  0
 22 23  2  0
 23 24  1  0
 24 25  2  0
 25 26  1  0
 26 27  2  0
 26  2  1  0
 19  9  1  0
 25 20  1  0
 18 13  1  0
  1 28  1  0
  1 29  1  0
  1 30  1  0
  5 31  1  0
  5 32  1  0
  8 33  1  0
 11 34  1  0
 14 35  1  0
 15 36  1  0
 16 37  1  0
 17 38  1  0
 18 39  1  0
 21 40  1  0
 22 41  1  0
 23 42  1  0
 24 43  1  0
M  END
$$$$
OCNT-2311797
     RDKit          3D

 33 34  0  0  0  0  0  0  0  0999 V2000
    5.2849    0.7969    1.9193 N   0  0  0  0  0  0  0  0  0  0  0  0
    5.3683    0.0231    0.7962 C   0  0  0  0  0  0  0  0  0  0  0  0
    6.4606   -0.3235    0.3631 O   0  0  0  0  0  0  0  0  0  0  0  0
    4.1045   -0.3549    0.1045 C   0  0  0  0  0  0  0  0  0  0  0  0
    4.1963   -0.8789   -1.1929 C   0  0  0  0  0  0  0  0  0  0  0  0
    3.0484   -1.2669   -1.8863 C   0  0  0  0  0  0  0  0  0  0  0  0
    1.7944   -1.1283   -1.2912 C   0  0  0  0  0  0  0  0  0  0  0  0
    1.6892   -0.5945    0.0002 C   0  0  0  0  0  0  0  0  0  0  0  0
    0.3717   -0.4336    0.6815 C   0  0  0  0  0  0  0  0  0  0  0  0
    0.3381   -0.5480    1.9007 O   0  0  0  0  0  0  0  0  0  0  0  0
   -0.6867   -0.1179   -0.1516 N   0  0  0  0  0  0  0  0  0  0  0  0
   -2.0396    0.0501    0.2136 C   0  0  0  0  0  0  0  0  0  0  0  0
   -2.5365   -0.1809    1.4964 C   0  0  0  0  0  0  0  0  0  0  0  0
   -3.8942   -0.0006    1.7760 C   0  0  0  0  0  0  0  0  0  0  0  0
   -4.7697    0.4129    0.7742 C   0  0  0  0  0  0  0  0  0  0  0  0
   -4.2938    0.6556   -0.5203 C   0  0  0  0  0  0  0  0  0  0  0  0
   -5.2346    1.0796   -1.6195 C   0  0  0  0  0  0  0  0  0  0  0  0
   -6.3232    1.7606   -1.1662 F   0  0  0  0  0  0  0  0  0  0  0  0
   -5.7196    0.0192   -2.3219 F   0  0  0  0  0  0  0  0  0  0  0  0
   -4.6425    1.8945   -2.5377 F   0  0  0  0  0  0  0  0  0  0  0  0
   -2.9269    0.4613   -0.7904 C   0  0  0  0  0  0  0  0  0  0  0  0
    2.8465   -0.2269    0.7038 C   0  0  0  0  0  0  0  0  0  0  0  0
    6.1625    1.0969    2.3250 H   0  0  0  0  0  0  0  0  0  0  0  0
    4.4450    1.2591    2.2325 H   0  0  0  0  0  0  0  0  0  0  0  0
    5.1714   -0.9973   -1.6644 H   0  0  0  0  0  0  0  0  0  0  0  0
    3.1381   -1.6901   -2.8845 H   0  0  0  0  0  0  0  0  0  0  0  0
    0.9185   -1.4754   -1.8328 H   0  0  0  0  0  0  0  0  0  0  0  0
   -0.4669    0.0846   -1.1178 H   0  0  0  0  0  0  0  0  0  0  0  0
   -1.8937   -0.5113    2.3068 H   0  0  0  0  0  0  0  0  0  0  0  0
   -4.2648   -0.1880    2.7814 H   0  0  0  0  0  0  0  0  0  0  0  0
   -5.8251    0.5453    1.0083 H   0  0  0  0  0  0  0  0  0  0  0  0
   -2.5640    0.6414   -1.8011 H   0  0  0  0  0  0  0  0  0  0  0  0
    2.7433    0.1363    1.7223 H   0  0  0  0  0  0  0  0  0  0  0  0
  1  2  1  0
  2  3  2  0
  2  4  1  0
  4  5  1  0
  5  6  2  0
  6  7  1  0
  7  8  2  0
  8  9  1  0
  9 10  2  0
  9 11  1  0
 11 12  1  0
 12 13  1  0
 13 14  2  0
 14 15  1  0
 15 16  2  0
 16 17  1  0
 17 18  1  0
 17 19  1  0
 17 20  1  0
 16 21  1  0
  8 22  1  0
 22  4  2  0
 21 12  2  0
  1 23  1  0
  1 24  1  0
  5 25  1  0
  6 26  1  0
  7 27  1  0
 11 28  1  0
 13 29  1  0
 14 30  1  0
 15 31  1  0
 21 32  1  0
 22 33  1  0
M  END
$$$$
