OCNT-0018684
     RDKit          3D

 40 41  0  0  0  0  0  0  0  0999 V2000
   -5.6804   -0.1767    1.5231 C   0  0  0  0  0  0  0  0  0  0  0  0
   -4.5494    0.7410    1.0536 C   0  0  0  0  0  0  0  0  0  0  0  0
   -5.0898    1.7416    0.0297 C   0  0  0  0  0  0  0  0  0  0  0  0
   -3.4908   -0.1064    0.5002 N   0  0  0  0  0  0  0  0  0  0  0  0
   -2.1935    0.5736    0.3954 C   0  0  0  0  0  0  0  0  0  0  0  0
   -1.1901   -0.3244   -0.3489 C   0  0  0  0  0  0  0  0  0  0  0  0
   -1.6650   -0.5454   -1.6899 O   0  0  0  0  0  0  0  0  0  0  0  0
    0.1940    0.3299   -0.4086 C   0  0  0  0  0  0  0  0  0  0  0  0
    1.0810   -0.5963   -1.0646 O   0  0  0  0  0  0  0  0  0  0  0  0
    2.3801   -0.1563   -0.9680 C   0  0  0  0  0  0  0  0  0  0  0  0
    3.2602   -0.7605   -0.0444 C   0  0  0  0  0  0  0  0  0  0  0  0
    2.8710   -1.8044    0.8212 C   0  0  0  0  0  0  0  0  0  0  0  0
    3.7720   -2.3658    1.7274 C   0  0  0  0  0  0  0  0  0  0  0  0
    5.0791   -1.8956    1.7856 C   0  0  0  0  0  0  0  0  0  0  0  0
    5.4877   -0.8669    0.9357 C   0  0  0  0  0  0  0  0  0  0  0  0
    4.5942   -0.2928    0.0162 C   0  0  0  0  0  0  0  0  0  0  0  0
    5.0083    0.7357   -0.8476 C   0  0  0  0  0  0  0  0  0  0  0  0
    4.1266    1.2968   -1.7727 C   0  0  0  0  0  0  0  0  0  0  0  0
    2.8126    0.8462   -1.8391 C   0  0  0  0  0  0  0  0  0  0  0  0
   -6.4871    0.4068    1.9804 H   0  0  0  0  0  0  0  0  0  0  0  0
   -5.3221   -0.8895    2.2746 H   0  0  0  0  0  0  0  0  0  0  0  0
   -6.1088   -0.7481    0.6910 H   0  0  0  0  0  0  0  0  0  0  0  0
   -4.1754    1.2841    1.9306 H   0  0  0  0  0  0  0  0  0  0  0  0
   -5.9139    2.3221    0.4586 H   0  0  0  0  0  0  0  0  0  0  0  0
   -4.3222    2.4539   -0.2867 H   0  0  0  0  0  0  0  0  0  0  0  0
   -5.4700    1.2344   -0.8646 H   0  0  0  0  0  0  0  0  0  0  0  0
   -3.7471   -0.4376   -0.4349 H   0  0  0  0  0  0  0  0  0  0  0  0
   -2.3012    1.5116   -0.1598 H   0  0  0  0  0  0  0  0  0  0  0  0
   -1.8164    0.8021    1.3985 H   0  0  0  0  0  0  0  0  0  0  0  0
   -1.1179   -1.3076    0.1320 H   0  0  0  0  0  0  0  0  0  0  0  0
   -0.9575   -1.0492   -2.1358 H   0  0  0  0  0  0  0  0  0  0  0  0
    0.1433    1.2552   -0.9955 H   0  0  0  0  0  0  0  0  0  0  0  0
    0.5494    0.5498    0.6059 H   0  0  0  0  0  0  0  0  0  0  0  0
    1.8547   -2.1912    0.7865 H   0  0  0  0  0  0  0  0  0  0  0  0
    3.4520   -3.1708    2.3834 H   0  0  0  0  0  0  0  0  0  0  0  0
    5.7842   -2.3316    2.4884 H   0  0  0  0  0  0  0  0  0  0  0  0
    6.5164   -0.5176    0.9938 H   0  0  0  0  0  0  0  0  0  0  0  0
    6.0325    1.1016   -0.8124 H   0  0  0  0  0  0  0  0  0  0  0  0
    4.4686    2.0793   -2.4449 H   0  0  0  0  0  0  0  0  0  0  0  0
    2.1308    1.2693   -2.5709 H   0  0  0  0  0  0  0  0  0  0  0  0
  1  2  1  0
  2  3  1  0
  2  4  1  0
  4  5  1  0
  5  6  1  0
  6  7  1  0
  6  8  1  0
  8  9  1  0
  9 10  1  0
 10 11  1  0
 11 12  2  0
 12 13  1  0
 13 14  2  0
 14 15  1  0
 15 16  2  0
 16 17  1  0
 17 18  2  0
 18 19  1  0
 19 10  2  0
 16 11  1  0
  1 20  1  0
  1 21  1  0
  1 22  1  0
  2 23  1  0
  3 24  1  0
  3 25  1  0
  3 26  1  0
  4 27  1  0
  5 28  1  0
  5 29  1  0
  6 30  1  0
  7 31  1  0
  8 32  1  0
  8 33  1  0
 12 34  1  0
 13 35  1  0
 14 36  1  0
 15 37  1  0
 17 38  1  0
 18 39  1  0
 19 40  1  0
M  END
$$$$
OCNT-0021943
     RDKit          3D

 25 26  0  0  0  0  0  0  0  0999 V2000
    3.7465   -0.7716    1.3799 N   0  0  0  0  0  0  0  0  0  0  0  0
    2.6668   -0.1174    0.6378 C   0  0  0  0  0  0  0  0  0  0  0  0
    1.7996   -1.1356   -0.1121 C   0  0  0  0  0  0  0  0  0  0  0  0
    0.6788   -0.4812   -0.8595 C   0  0  0  0  0  0  0  0  0  0  0  0
    0.6708   -0.1518   -2.2010 C   0  0  0  0  0  0  0  0  0  0  0  0
   -0.5328    0.4287   -2.4955 N   0  0  0  0  0  0  0  0  0  0  0  0
   -1.3202    0.4904   -1.3697 C   0  0  0  0  0  0  0  0  0  0  0  0
   -2.6143    0.9995   -1.2000 C   0  0  0  0  0  0  0  0  0  0  0  0
   -3.1787    0.9283    0.0778 C   0  0  0  0  0  0  0  0  0  0  0  0
   -2.4652    0.3676    1.1311 C   0  0  0  0  0  0  0  0  0  0  0  0
   -3.0014    0.2906    2.3852 O   0  0  0  0  0  0  0  0  0  0  0  0
   -1.1771   -0.1376    0.9533 C   0  0  0  0  0  0  0  0  0  0  0  0
   -0.5873   -0.0761   -0.3256 C   0  0  0  0  0  0  0  0  0  0  0  0
    3.3453   -1.3859    2.0880 H   0  0  0  0  0  0  0  0  0  0  0  0
    4.2745   -0.0629    1.8882 H   0  0  0  0  0  0  0  0  0  0  0  0
    2.0550    0.4630    1.3381 H   0  0  0  0  0  0  0  0  0  0  0  0
    3.1067    0.5932   -0.0714 H   0  0  0  0  0  0  0  0  0  0  0  0
    2.4224   -1.7045   -0.8147 H   0  0  0  0  0  0  0  0  0  0  0  0
    1.3834   -1.8655    0.5940 H   0  0  0  0  0  0  0  0  0  0  0  0
    1.4215   -0.2837   -2.9691 H   0  0  0  0  0  0  0  0  0  0  0  0
   -0.8088    0.7652   -3.4073 H   0  0  0  0  0  0  0  0  0  0  0  0
   -3.1647    1.4348   -2.0276 H   0  0  0  0  0  0  0  0  0  0  0  0
   -4.1809    1.3183    0.2281 H   0  0  0  0  0  0  0  0  0  0  0  0
   -3.8966    0.6657    2.3608 H   0  0  0  0  0  0  0  0  0  0  0  0
   -0.6430   -0.5715    1.7921 H   0  0  0  0  0  0  0  0  0  0  0  0
  1  2  1  0
  2  3  1  0
  3  4  1  0
  4  5  2  0
  5  6  1  0
  6  7  1  0
  7  8  2  0
  8  9  1  0
  9 10  2  0
 10 11  1  0
 10 12  1  0
 12 13  2  0
 13  4  1  0
 13  7  1  0
  1 14  1  0
  1 15  1  0
  2 16  1  0
  2 17  1  0
  3 18  1  0
  3 19  1  0
  5 20  1  0
  6 21  1  0
  8 22  1  0
  9 23  1  0
 11 24  1  0
 12 25  1  0
M  END
$$$$
OCNT-0022119
     RDKit          3D

 53 56  0  0  0  0  0  0  0  0999 V2000
   -5.8960    2.0193    1.7162 O   0  0  0  0  0  0  0  0  0  0  0  0
   -5.4078    1.0377    2.6291 C   0  0  0  0  0  0  0  0  0  0  0  0
   -4.7906   -0.1343    1.8510 C   0  0  0  0  0  0  0  0  0  0  0  0
   -3.8308    0.3279    0.8233 N   0  0  0  0  0  0  0  0  0  0  0  0
   -2.5811    0.8383    1.4320 C   0  0  0  0  0  0  0  0  0  0  0  0
   -1.5275    1.2305    0.3711 C   0  0  0  0  0  0  0  0  0  0  0  0
   -1.1930    0.1066   -0.5272 N   0  0  0  0  0  0  0  0  0  0  0  0
   -0.2006    0.5325   -1.5255 C   0  0  0  0  0  0  0  0  0  0  0  0
    0.5026   -0.6376   -2.2238 C   0  0  0  0  0  0  0  0  0  0  0  0
    1.2241   -1.6067   -1.2721 C   0  0  0  0  0  0  0  0  0  0  0  0
    2.4112   -1.0080   -0.6040 N   0  0  0  0  0  0  0  0  0  0  0  0
    2.1980   -0.4952    0.7047 C   0  0  0  0  0  0  0  0  0  0  0  0
    2.7780    0.7157    1.1312 C   0  0  0  0  0  0  0  0  0  0  0  0
    2.5568    1.1974    2.4338 C   0  0  0  0  0  0  0  0  0  0  0  0
    1.7832    0.4769    3.3393 C   0  0  0  0  0  0  0  0  0  0  0  0
    1.2337   -0.7361    2.9514 C   0  0  0  0  0  0  0  0  0  0  0  0
    1.4469   -1.2166    1.6553 C   0  0  0  0  0  0  0  0  0  0  0  0
    3.7755    1.7339    0.0628 S   0  0  0  0  0  0  0  0  0  0  0  0
    4.1891    0.5896   -1.2376 C   0  0  0  0  0  0  0  0  0  0  0  0
    5.2469    0.9594   -2.0871 C   0  0  0  0  0  0  0  0  0  0  0  0
    5.6260    0.1427   -3.1493 C   0  0  0  0  0  0  0  0  0  0  0  0
    4.9494   -1.0497   -3.3605 C   0  0  0  0  0  0  0  0  0  0  0  0
    5.4187   -2.0783   -4.6584 Cl  0  0  0  0  0  0  0  0  0  0  0  0
    3.8946   -1.4249   -2.5258 C   0  0  0  0  0  0  0  0  0  0  0  0
    3.4770   -0.6080   -1.4553 C   0  0  0  0  0  0  0  0  0  0  0  0
   -2.4343   -0.3969   -1.1451 C   0  0  0  0  0  0  0  0  0  0  0  0
   -3.4899   -0.7897   -0.0850 C   0  0  0  0  0  0  0  0  0  0  0  0
   -5.2752    1.9822    0.9594 H   0  0  0  0  0  0  0  0  0  0  0  0
   -4.6781    1.5142    3.2902 H   0  0  0  0  0  0  0  0  0  0  0  0
   -6.2457    0.6917    3.2417 H   0  0  0  0  0  0  0  0  0  0  0  0
   -4.3372   -0.8551    2.5419 H   0  0  0  0  0  0  0  0  0  0  0  0
   -5.6175   -0.6437    1.3394 H   0  0  0  0  0  0  0  0  0  0  0  0
   -2.1474    0.0875    2.1063 H   0  0  0  0  0  0  0  0  0  0  0  0
   -2.7940    1.7314    2.0294 H   0  0  0  0  0  0  0  0  0  0  0  0
   -1.8991    2.0876   -0.2069 H   0  0  0  0  0  0  0  0  0  0  0  0
   -0.6250    1.5600    0.9000 H   0  0  0  0  0  0  0  0  0  0  0  0
    0.5703    1.1473   -1.0469 H   0  0  0  0  0  0  0  0  0  0  0  0
   -0.6674    1.1774   -2.2815 H   0  0  0  0  0  0  0  0  0  0  0  0
   -0.2298   -1.2093   -2.8063 H   0  0  0  0  0  0  0  0  0  0  0  0
    1.2055   -0.2281   -2.9586 H   0  0  0  0  0  0  0  0  0  0  0  0
    1.5292   -2.4927   -1.8404 H   0  0  0  0  0  0  0  0  0  0  0  0
    0.4929   -2.0085   -0.5645 H   0  0  0  0  0  0  0  0  0  0  0  0
    2.9945    2.1416    2.7508 H   0  0  0  0  0  0  0  0  0  0  0  0
    1.6247    0.8557    4.3452 H   0  0  0  0  0  0  0  0  0  0  0  0
    0.6475   -1.3209    3.6553 H   0  0  0  0  0  0  0  0  0  0  0  0
    1.0360   -2.1921    1.4124 H   0  0  0  0  0  0  0  0  0  0  0  0
    5.7833    1.8919   -1.9224 H   0  0  0  0  0  0  0  0  0  0  0  0
    6.4471    0.4392   -3.7957 H   0  0  0  0  0  0  0  0  0  0  0  0
    3.4222   -2.3853   -2.7049 H   0  0  0  0  0  0  0  0  0  0  0  0
   -2.2207   -1.2886   -1.7445 H   0  0  0  0  0  0  0  0  0  0  0  0
   -2.8650    0.3561   -1.8186 H   0  0  0  0  0  0  0  0  0  0  0  0
   -4.3938   -1.1164   -0.6135 H   0  0  0  0  0  0  0  0  0  0  0  0
   -3.1172   -1.6497    0.4883 H   0  0  0  0  0  0  0  0  0  0  0  0
  1  2  1  0
  2  3  1  0
  3  4  1  0
  4  5  1  0
  5  6  1  0
  6  7  1  0
  7  8  1  0
  8  9  1  0
  9 10  1  0
 10 11  1  0
 11 12  1  0
 12 13  1  0
 13 14  2  0
 14 15  1  0
 15 16  2  0
 16 17  1  0
 13 18  1  0
 18 19  1  0
 19 20  1  0
 20 21  2  0
 21 22  1  0
 22 23  1  0
 22 24  2  0
 24 25  1  0
  7 26  1  0
 26 27  1  0
 27  4  1  0
 25 11  1  0
 17 12  2  0
 25 19  2  0
  1 28  1  0
  2 29  1  0
  2 30  1  0
  3 31  1  0
  3 32  1  0
  5 33  1  0
  5 34  1  0
  6 35  1  0
  6 36  1  0
  8 37  1  0
  8 38  1  0
  9 39  1  0
  9 40  1  0
 10 41  1  0
 10 42  1  0
 14 43  1  0
 15 44  1  0
 16 45  1  0
 17 46  1  0
 20 47  1  0
 21 48  1  0
 24 49  1  0
 26 50  1  0
 26 51  1  0
 27 52  1  0
 27 53  1  0
M  END
$$$$
OCNT-0022129
     RDKit          3D

 42 45  0  0  0  0  0  0  0  0999 V2000
    4.8986    0.8641   -0.4586 C   0  0  0  0  0  0  0  0  0  0  0  0
    3.9775    0.1699    0.4367 N   0  0  0  0  0  0  0  0  0  0  0  0
    2.8934    1.0757    0.8760 C   0  0  0  0  0  0  0  0  0  0  0  0
    1.6225    0.3391    1.3483 C   0  0  0  0  0  0  0  0  0  0  0  0
    1.0538   -0.4948    0.2664 N   0  0  0  0  0  0  0  0  0  0  0  0
   -0.3165   -0.4315   -0.0318 C   0  0  0  0  0  0  0  0  0  0  0  0
   -1.1526   -1.3920    0.4379 C   0  0  0  0  0  0  0  0  0  0  0  0
   -0.6526   -2.5093    1.2457 C   0  0  0  0  0  0  0  0  0  0  0  0
   -1.3705   -3.6224    1.4418 C   0  0  0  0  0  0  0  0  0  0  0  0
   -2.6686   -3.7750    0.8437 C   0  0  0  0  0  0  0  0  0  0  0  0
   -3.2639   -2.7659    0.1974 C   0  0  0  0  0  0  0  0  0  0  0  0
   -2.6151   -1.4182    0.0667 C   0  0  0  0  0  0  0  0  0  0  0  0
   -3.4271   -0.4834   -0.3063 N   0  0  0  0  0  0  0  0  0  0  0  0
   -3.1024    0.8692   -0.4218 C   0  0  0  0  0  0  0  0  0  0  0  0
   -1.8371    1.3999   -0.7161 C   0  0  0  0  0  0  0  0  0  0  0  0
   -1.7172    2.7898   -0.9310 C   0  0  0  0  0  0  0  0  0  0  0  0
   -2.8177    3.6368   -0.8139 C   0  0  0  0  0  0  0  0  0  0  0  0
   -2.6270    5.3282   -1.0629 Cl  0  0  0  0  0  0  0  0  0  0  0  0
   -4.0637    3.1203   -0.4980 C   0  0  0  0  0  0  0  0  0  0  0  0
   -4.1985    1.7448   -0.3140 C   0  0  0  0  0  0  0  0  0  0  0  0
   -0.6692    0.6217   -0.8482 N   0  0  0  0  0  0  0  0  0  0  0  0
    2.0185   -0.9446   -0.7587 C   0  0  0  0  0  0  0  0  0  0  0  0
    3.4409   -1.0673   -0.1721 C   0  0  0  0  0  0  0  0  0  0  0  0
    5.7567    0.2259   -0.6964 H   0  0  0  0  0  0  0  0  0  0  0  0
    4.4180    1.1600   -1.3980 H   0  0  0  0  0  0  0  0  0  0  0  0
    5.3001    1.7626    0.0232 H   0  0  0  0  0  0  0  0  0  0  0  0
    2.6032    1.7493    0.0577 H   0  0  0  0  0  0  0  0  0  0  0  0
    3.2696    1.7025    1.6926 H   0  0  0  0  0  0  0  0  0  0  0  0
    0.8883    1.0780    1.6920 H   0  0  0  0  0  0  0  0  0  0  0  0
    1.8578   -0.3053    2.2039 H   0  0  0  0  0  0  0  0  0  0  0  0
    0.3414   -2.4336    1.6744 H   0  0  0  0  0  0  0  0  0  0  0  0
   -0.9760   -4.4426    2.0332 H   0  0  0  0  0  0  0  0  0  0  0  0
   -3.1676   -4.7335    0.9457 H   0  0  0  0  0  0  0  0  0  0  0  0
   -4.2584   -2.8645   -0.2220 H   0  0  0  0  0  0  0  0  0  0  0  0
   -0.7506    3.2182   -1.1824 H   0  0  0  0  0  0  0  0  0  0  0  0
   -4.9318    3.7663   -0.4085 H   0  0  0  0  0  0  0  0  0  0  0  0
   -5.1807    1.3298   -0.0956 H   0  0  0  0  0  0  0  0  0  0  0  0
    0.1541    1.1820   -1.0283 H   0  0  0  0  0  0  0  0  0  0  0  0
    2.0257   -0.2399   -1.5994 H   0  0  0  0  0  0  0  0  0  0  0  0
    1.7071   -1.9218   -1.1463 H   0  0  0  0  0  0  0  0  0  0  0  0
    4.1217   -1.4627   -0.9360 H   0  0  0  0  0  0  0  0  0  0  0  0
    3.4156   -1.8260    0.6213 H   0  0  0  0  0  0  0  0  0  0  0  0
  1  2  1  0
  2  3  1  0
  3  4  1  0
  4  5  1  0
  5  6  1  0
  6  7  2  0
  7  8  1  0
  8  9  2  0
  9 10  1  0
 10 11  2  0
 11 12  1  0
 12 13  2  0
 13 14  1  0
 14 15  2  0
 15 16  1  0
 16 17  2  0
 17 18  1  0
 17 19  1  0
 19 20  2  0
 15 21  1  0
  5 22  1  0
 22 23  1  0
 23  2  1  0
 21  6  1  0
 12  7  1  0
 20 14  1  0
  1 24  1  0
  1 25  1  0
  1 26  1  0
  3 27  1  0
  3 28  1  0
  4 29  1  0
  4 30  1  0
  8 31  1  0
  9 32  1  0
 10 33  1  0
 11 34  1  0
 16 35  1  0
 19 36  1  0
 20 37  1  0
 21 38  1  0
 22 39  1  0
 22 40  1  0
 23 41  1  0
 23 42  1  0
M  END
$$$$
OCNT-0022130
     RDKit          3D

 42 45  0  0  0  0  0  0  0  0999 V2000
   -2.2305    4.5427   -1.3179 C   0  0  0  0  0  0  0  0  0  0  0  0
   -2.2029    3.1188   -0.8829 C   0  0  0  0  0  0  0  0  0  0  0  0
   -1.1096    2.3896   -0.6323 C   0  0  0  0  0  0  0  0  0  0  0  0
   -1.3716    1.0194   -0.2111 C   0  0  0  0  0  0  0  0  0  0  0  0
   -0.4156    0.1194    0.0993 C   0  0  0  0  0  0  0  0  0  0  0  0
    0.9354    0.4818   -0.0311 N   0  0  0  0  0  0  0  0  0  0  0  0
    1.8483    0.4557    1.1306 C   0  0  0  0  0  0  0  0  0  0  0  0
    3.2121    1.0902    0.7827 C   0  0  0  0  0  0  0  0  0  0  0  0
    3.9220    0.4634   -0.3540 N   0  0  0  0  0  0  0  0  0  0  0  0
    4.9845   -0.4330    0.0921 C   0  0  0  0  0  0  0  0  0  0  0  0
    2.9867   -0.2437   -1.2563 C   0  0  0  0  0  0  0  0  0  0  0  0
    1.5994    0.4255   -1.3549 C   0  0  0  0  0  0  0  0  0  0  0  0
   -0.6278   -1.1591    0.5386 N   0  0  0  0  0  0  0  0  0  0  0  0
   -1.7798   -1.9362    0.7291 C   0  0  0  0  0  0  0  0  0  0  0  0
   -1.5577   -3.2632    1.1744 C   0  0  0  0  0  0  0  0  0  0  0  0
   -2.6033   -4.1503    1.4320 C   0  0  0  0  0  0  0  0  0  0  0  0
   -3.9087   -3.7272    1.2590 C   0  0  0  0  0  0  0  0  0  0  0  0
   -4.1487   -2.4216    0.8356 C   0  0  0  0  0  0  0  0  0  0  0  0
   -3.1075   -1.5082    0.5701 C   0  0  0  0  0  0  0  0  0  0  0  0
   -3.5679   -0.2535    0.1652 N   0  0  0  0  0  0  0  0  0  0  0  0
   -2.8282    0.7404   -0.1406 C   0  0  0  0  0  0  0  0  0  0  0  0
   -3.6770    2.2332   -0.6360 S   0  0  0  0  0  0  0  0  0  0  0  0
   -2.7662    5.1602   -0.5894 H   0  0  0  0  0  0  0  0  0  0  0  0
   -2.7271    4.6413   -2.2888 H   0  0  0  0  0  0  0  0  0  0  0  0
   -1.2191    4.9507   -1.4192 H   0  0  0  0  0  0  0  0  0  0  0  0
   -0.1037    2.7773   -0.7145 H   0  0  0  0  0  0  0  0  0  0  0  0
    1.3960    1.0152    1.9580 H   0  0  0  0  0  0  0  0  0  0  0  0
    2.0001   -0.5763    1.4693 H   0  0  0  0  0  0  0  0  0  0  0  0
    3.0379    2.1391    0.5086 H   0  0  0  0  0  0  0  0  0  0  0  0
    3.8436    1.1203    1.6792 H   0  0  0  0  0  0  0  0  0  0  0  0
    4.6016   -1.2516    0.7120 H   0  0  0  0  0  0  0  0  0  0  0  0
    5.5098   -0.8653   -0.7668 H   0  0  0  0  0  0  0  0  0  0  0  0
    5.7329    0.1180    0.6723 H   0  0  0  0  0  0  0  0  0  0  0  0
    3.4330   -0.2931   -2.2562 H   0  0  0  0  0  0  0  0  0  0  0  0
    2.8358   -1.2779   -0.9167 H   0  0  0  0  0  0  0  0  0  0  0  0
    1.7046    1.4443   -1.7462 H   0  0  0  0  0  0  0  0  0  0  0  0
    0.9843   -0.1372   -2.0678 H   0  0  0  0  0  0  0  0  0  0  0  0
    0.2379   -1.6790    0.5756 H   0  0  0  0  0  0  0  0  0  0  0  0
   -0.5415   -3.6204    1.3278 H   0  0  0  0  0  0  0  0  0  0  0  0
   -2.3938   -5.1617    1.7685 H   0  0  0  0  0  0  0  0  0  0  0  0
   -4.7400   -4.3984    1.4541 H   0  0  0  0  0  0  0  0  0  0  0  0
   -5.1778   -2.0896    0.7066 H   0  0  0  0  0  0  0  0  0  0  0  0
  1  2  1  0
  2  3  2  0
  3  4  1  0
  4  5  2  0
  5  6  1  0
  6  7  1  0
  7  8  1  0
  8  9  1  0
  9 10  1  0
  9 11  1  0
 11 12  1  0
  5 13  1  0
 13 14  1  0
 14 15  2  0
 15 16  1  0
 16 17  2  0
 17 18  1  0
 18 19  2  0
 19 20  1  0
 20 21  2  0
 21 22  1  0
 22  2  1  0
 21  4  1  0
 12  6  1  0
 19 14  1  0
  1 23  1  0
  1 24  1  0
  1 25  1  0
  3 26  1  0
  7 27  1  0
  7 28  1  0
  8 29  1  0
  8 30  1  0
 10 31  1  0
 10 32  1  0
 10 33  1  0
 11 34  1  0
 11 35  1  0
 12 36  1  0
 12 37  1  0
 13 38  1  0
 15 39  1  0
 16 40  1  0
 17 41  1  0
 18 42  1  0
M  END
$$$$
OCNT-0022141
     RDKit          3D

 51 54  0  0  0  0  0  0  0  0999 V2000
    2.0137    4.0526    3.1080 C   0  0  0  0  0  0  0  0  0  0  0  0
    1.8800    2.3808    3.7958 S   0  0  0  0  0  0  0  0  0  0  0  0
    2.3534    1.4022    2.3792 C   0  0  0  0  0  0  0  0  0  0  0  0
    3.4962    1.6783    1.6341 C   0  0  0  0  0  0  0  0  0  0  0  0
    3.8337    0.8666    0.5503 C   0  0  0  0  0  0  0  0  0  0  0  0
    3.0319   -0.2289    0.1930 C   0  0  0  0  0  0  0  0  0  0  0  0
    3.5382   -1.1604   -1.2371 S   0  0  0  0  0  0  0  0  0  0  0  0
    2.5574   -2.6381   -1.0733 C   0  0  0  0  0  0  0  0  0  0  0  0
    1.4383   -2.7194   -0.2241 C   0  0  0  0  0  0  0  0  0  0  0  0
    0.7502   -3.9481   -0.1693 C   0  0  0  0  0  0  0  0  0  0  0  0
    1.1269   -5.0387   -0.9582 C   0  0  0  0  0  0  0  0  0  0  0  0
    2.2140   -4.9307   -1.8143 C   0  0  0  0  0  0  0  0  0  0  0  0
    2.9282   -3.7363   -1.8685 C   0  0  0  0  0  0  0  0  0  0  0  0
    1.0347   -1.6346    0.6032 N   0  0  0  0  0  0  0  0  0  0  0  0
   -0.4149   -1.2981    0.5085 C   0  0  0  0  0  0  0  0  0  0  0  0
   -0.7206   -0.4703   -0.7516 C   0  0  0  0  0  0  0  0  0  0  0  0
   -2.2305   -0.1870   -0.9201 C   0  0  0  0  0  0  0  0  0  0  0  0
   -2.5068    0.5553   -2.2434 C   0  0  0  0  0  0  0  0  0  0  0  0
   -2.0860    2.0210   -2.1954 C   0  0  0  0  0  0  0  0  0  0  0  0
   -2.6781    2.7128   -0.9736 C   0  0  0  0  0  0  0  0  0  0  0  0
   -2.3902    1.9323    0.3098 C   0  0  0  0  0  0  0  0  0  0  0  0
   -2.7841    0.5158    0.2558 N   0  0  0  0  0  0  0  0  0  0  0  0
   -4.2358    0.3558    0.3602 C   0  0  0  0  0  0  0  0  0  0  0  0
    1.8676   -0.5237    0.9246 C   0  0  0  0  0  0  0  0  0  0  0  0
    1.5664    0.2959    2.0335 C   0  0  0  0  0  0  0  0  0  0  0  0
    1.4616    4.1307    2.1669 H   0  0  0  0  0  0  0  0  0  0  0  0
    1.5858    4.7650    3.8193 H   0  0  0  0  0  0  0  0  0  0  0  0
    3.0614    4.3220    2.9461 H   0  0  0  0  0  0  0  0  0  0  0  0
    4.1522    2.5037    1.8947 H   0  0  0  0  0  0  0  0  0  0  0  0
    4.7343    1.0950   -0.0170 H   0  0  0  0  0  0  0  0  0  0  0  0
   -0.0735   -4.0860    0.5262 H   0  0  0  0  0  0  0  0  0  0  0  0
    0.5764   -5.9737   -0.8879 H   0  0  0  0  0  0  0  0  0  0  0  0
    2.5147   -5.7744   -2.4294 H   0  0  0  0  0  0  0  0  0  0  0  0
    3.7853   -3.6662   -2.5347 H   0  0  0  0  0  0  0  0  0  0  0  0
   -1.0360   -2.2011    0.4987 H   0  0  0  0  0  0  0  0  0  0  0  0
   -0.7470   -0.7638    1.4039 H   0  0  0  0  0  0  0  0  0  0  0  0
   -0.3695   -1.0171   -1.6364 H   0  0  0  0  0  0  0  0  0  0  0  0
   -0.1488    0.4635   -0.7315 H   0  0  0  0  0  0  0  0  0  0  0  0
   -2.7093   -1.1740   -0.9957 H   0  0  0  0  0  0  0  0  0  0  0  0
   -1.9940    0.0540   -3.0730 H   0  0  0  0  0  0  0  0  0  0  0  0
   -3.5787    0.5034   -2.4724 H   0  0  0  0  0  0  0  0  0  0  0  0
   -0.9926    2.0967   -2.1682 H   0  0  0  0  0  0  0  0  0  0  0  0
   -2.4140    2.5333   -3.1069 H   0  0  0  0  0  0  0  0  0  0  0  0
   -2.2629    3.7236   -0.8897 H   0  0  0  0  0  0  0  0  0  0  0  0
   -3.7603    2.8291   -1.1076 H   0  0  0  0  0  0  0  0  0  0  0  0
   -2.8795    2.4292    1.1571 H   0  0  0  0  0  0  0  0  0  0  0  0
   -1.3170    1.9934    0.5308 H   0  0  0  0  0  0  0  0  0  0  0  0
   -4.7813    0.8027   -0.4769 H   0  0  0  0  0  0  0  0  0  0  0  0
   -4.5003   -0.7069    0.4110 H   0  0  0  0  0  0  0  0  0  0  0  0
   -4.6046    0.8077    1.2877 H   0  0  0  0  0  0  0  0  0  0  0  0
    0.7138    0.0549    2.6633 H   0  0  0  0  0  0  0  0  0  0  0  0
  1  2  1  0
  2  3  1  0
  3  4  1  0
  4  5  2  0
  5  6  1  0
  6  7  1  0
  7  8  1  0
  8  9  1  0
  9 10  2  0
 10 11  1  0
 11 12  2  0
 12 13  1  0
  9 14  1  0
 14 15  1  0
 15 16  1  0
 16 17  1  0
 17 18  1  0
 18 19  1  0
 19 20  1  0
 20 21  1  0
 21 22  1  0
 22 23  1  0
 14 24  1  0
 24 25  1  0
 25  3  2  0
 24  6  2  0
 13  8  2  0
 22 17  1  0
  1 26  1  0
  1 27  1  0
  1 28  1  0
  4 29  1  0
  5 30  1  0
 10 31  1  0
 11 32  1  0
 12 33  1  0
 13 34  1  0
 15 35  1  0
 15 36  1  0
 16 37  1  0
 16 38  1  0
 17 39  1  0
 18 40  1  0
 18 41  1  0
 19 42  1  0
 19 43  1  0
 20 44  1  0
 20 45  1  0
 21 46  1  0
 21 47  1  0
 23 48  1  0
 23 49  1  0
 23 50  1  0
 25 51  1  0
M  END
$$$$
OCNT-0022246
     RDKit          3D

 52 55  0  0  0  0  0  0  0  0999 V2000
    6.4782   -0.3970   -0.5834 C   0  0  0  0  0  0  0  0  0  0  0  0
    5.1465   -0.9893   -0.5077 N   0  0  0  0  0  0  0  0  0  0  0  0
    4.4191   -0.4925    0.6751 C   0  0  0  0  0  0  0  0  0  0  0  0
    2.8901   -0.6977    0.5731 C   0  0  0  0  0  0  0  0  0  0  0  0
    2.2558   -0.0487   -0.5968 N   0  0  0  0  0  0  0  0  0  0  0  0
    1.4583    1.1315   -0.2474 C   0  0  0  0  0  0  0  0  0  0  0  0
    0.1350    0.7816    0.4438 C   0  0  0  0  0  0  0  0  0  0  0  0
   -0.7706   -0.0886   -0.4420 C   0  0  0  0  0  0  0  0  0  0  0  0
   -2.0782   -0.3468    0.2122 N   0  0  0  0  0  0  0  0  0  0  0  0
   -2.1817   -1.5319    1.0010 C   0  0  0  0  0  0  0  0  0  0  0  0
   -1.0461   -2.2692    1.4106 C   0  0  0  0  0  0  0  0  0  0  0  0
   -1.1365   -3.4264    2.1942 C   0  0  0  0  0  0  0  0  0  0  0  0
   -2.3747   -3.8898    2.6028 C   0  0  0  0  0  0  0  0  0  0  0  0
   -3.5149   -3.1910    2.2254 C   0  0  0  0  0  0  0  0  0  0  0  0
   -3.4282   -2.0248    1.4377 C   0  0  0  0  0  0  0  0  0  0  0  0
   -4.9834   -1.2733    1.0230 S   0  0  0  0  0  0  0  0  0  0  0  0
   -4.4786    0.2547    0.2722 C   0  0  0  0  0  0  0  0  0  0  0  0
   -3.1444    0.5571   -0.0644 C   0  0  0  0  0  0  0  0  0  0  0  0
   -2.9270    1.8179   -0.6688 C   0  0  0  0  0  0  0  0  0  0  0  0
   -3.9630    2.7365   -0.9352 C   0  0  0  0  0  0  0  0  0  0  0  0
   -3.6569    4.0554   -1.6001 C   0  0  0  0  0  0  0  0  0  0  0  0
   -3.6135    3.9529   -2.9567 F   0  0  0  0  0  0  0  0  0  0  0  0
   -2.4513    4.5704   -1.2268 F   0  0  0  0  0  0  0  0  0  0  0  0
   -4.5743    5.0240   -1.3257 F   0  0  0  0  0  0  0  0  0  0  0  0
   -5.2695    2.3898   -0.6032 C   0  0  0  0  0  0  0  0  0  0  0  0
   -5.5215    1.1614   -0.0019 C   0  0  0  0  0  0  0  0  0  0  0  0
    3.2608    0.2839   -1.6290 C   0  0  0  0  0  0  0  0  0  0  0  0
    4.3741   -0.7802   -1.7479 C   0  0  0  0  0  0  0  0  0  0  0  0
    7.0523   -0.8465   -1.4012 H   0  0  0  0  0  0  0  0  0  0  0  0
    7.0395   -0.5913    0.3373 H   0  0  0  0  0  0  0  0  0  0  0  0
    6.4398    0.6865   -0.7434 H   0  0  0  0  0  0  0  0  0  0  0  0
    4.6102    0.5780    0.8325 H   0  0  0  0  0  0  0  0  0  0  0  0
    4.7898   -1.0184    1.5628 H   0  0  0  0  0  0  0  0  0  0  0  0
    2.6892   -1.7741    0.4955 H   0  0  0  0  0  0  0  0  0  0  0  0
    2.4331   -0.3789    1.5166 H   0  0  0  0  0  0  0  0  0  0  0  0
    2.0373    1.8159    0.3859 H   0  0  0  0  0  0  0  0  0  0  0  0
    1.2082    1.6893   -1.1599 H   0  0  0  0  0  0  0  0  0  0  0  0
    0.3198    0.2925    1.4056 H   0  0  0  0  0  0  0  0  0  0  0  0
   -0.3738    1.7196    0.6951 H   0  0  0  0  0  0  0  0  0  0  0  0
   -0.9095    0.3816   -1.4240 H   0  0  0  0  0  0  0  0  0  0  0  0
   -0.2758   -1.0300   -0.7104 H   0  0  0  0  0  0  0  0  0  0  0  0
   -0.0404   -1.9618    1.1427 H   0  0  0  0  0  0  0  0  0  0  0  0
   -0.2326   -3.9576    2.4813 H   0  0  0  0  0  0  0  0  0  0  0  0
   -2.4563   -4.7870    3.2096 H   0  0  0  0  0  0  0  0  0  0  0  0
   -4.4853   -3.5631    2.5483 H   0  0  0  0  0  0  0  0  0  0  0  0
   -1.9250    2.1395   -0.9401 H   0  0  0  0  0  0  0  0  0  0  0  0
   -6.0956    3.0695   -0.8047 H   0  0  0  0  0  0  0  0  0  0  0  0
   -6.5488    0.9069    0.2549 H   0  0  0  0  0  0  0  0  0  0  0  0
    3.7289    1.2555   -1.4189 H   0  0  0  0  0  0  0  0  0  0  0  0
    2.7531    0.3728   -2.5968 H   0  0  0  0  0  0  0  0  0  0  0  0
    3.9095   -1.7395   -2.0110 H   0  0  0  0  0  0  0  0  0  0  0  0
    5.0287   -0.5289   -2.5919 H   0  0  0  0  0  0  0  0  0  0  0  0
  1  2  1  0
  2  3  1  0
  3  4  1  0
  4  5  1  0
  5  6  1  0
  6  7  1  0
  7  8  1  0
  8  9  1  0
  9 10  1  0
 10 11  2  0
 11 12  1  0
 12 13  2  0
 13 14  1  0
 14 15  2  0
 15 16  1  0
 16 17  1  0
 17 18  2  0
 18 19  1  0
 19 20  2  0
 20 21  1  0
 21 22  1  0
 21 23  1  0
 21 24  1  0
 20 25  1  0
 25 26  2  0
  5 27  1  0
 27 28  1  0
 28  2  1  0
 18  9  1  0
 15 10  1  0
 26 17  1  0
  1 29  1  0
  1 30  1  0
  1 31  1  0
  3 32  1  0
  3 33  1  0
  4 34  1  0
  4 35  1  0
  6 36  1  0
  6 37  1  0
  7 38  1  0
  7 39  1  0
  8 40  1  0
  8 41  1  0
 11 42  1  0
 12 43  1  0
 13 44  1  0
 14 45  1  0
 19 46  1  0
 25 47  1  0
 26 48  1  0
 27 49  1  0
 27 50  1  0
 28 51  1  0
 28 52  1  0
M  END
$$$$
OCNT-0022254
     RDKit          3D

 43 45  0  0  0  0  0  0  0  0999 V2000
    4.5455   -0.7979    1.1133 C   0  0  0  0  0  0  0  0  0  0  0  0
    3.1007   -0.8395    0.8662 N   0  0  0  0  0  0  0  0  0  0  0  0
    2.5476   -2.0806    1.4171 C   0  0  0  0  0  0  0  0  0  0  0  0
    2.4571    0.3528    1.4430 C   0  0  0  0  0  0  0  0  0  0  0  0
    0.9867    0.5289    1.0442 C   0  0  0  0  0  0  0  0  0  0  0  0
    0.8007    0.6047   -0.4787 C   0  0  0  0  0  0  0  0  0  0  0  0
   -0.6285    0.8105   -0.8496 N   0  0  0  0  0  0  0  0  0  0  0  0
   -1.0881    2.1458   -0.6732 C   0  0  0  0  0  0  0  0  0  0  0  0
   -2.2748    2.4435    0.0225 C   0  0  0  0  0  0  0  0  0  0  0  0
   -2.6996    3.7756    0.1655 C   0  0  0  0  0  0  0  0  0  0  0  0
   -1.9713    4.8214   -0.3968 C   0  0  0  0  0  0  0  0  0  0  0  0
   -0.8160    4.5427   -1.1140 C   0  0  0  0  0  0  0  0  0  0  0  0
   -0.3854    3.2207   -1.2546 C   0  0  0  0  0  0  0  0  0  0  0  0
   -3.2790    1.1917    0.7955 S   0  0  0  0  0  0  0  0  0  0  0  0
   -2.6682   -0.2913    0.0220 C   0  0  0  0  0  0  0  0  0  0  0  0
   -3.4465   -1.4508    0.1714 C   0  0  0  0  0  0  0  0  0  0  0  0
   -3.0373   -2.6635   -0.3816 C   0  0  0  0  0  0  0  0  0  0  0  0
   -1.8475   -2.7348   -1.1093 C   0  0  0  0  0  0  0  0  0  0  0  0
   -1.3881   -4.0403   -1.7078 C   0  0  0  0  0  0  0  0  0  0  0  0
   -0.6504   -4.7760   -0.8308 F   0  0  0  0  0  0  0  0  0  0  0  0
   -0.6069   -3.8838   -2.8127 F   0  0  0  0  0  0  0  0  0  0  0  0
   -2.4190   -4.8430   -2.0934 F   0  0  0  0  0  0  0  0  0  0  0  0
   -1.0677   -1.5733   -1.2455 C   0  0  0  0  0  0  0  0  0  0  0  0
   -1.4461   -0.3410   -0.6727 C   0  0  0  0  0  0  0  0  0  0  0  0
    4.7825   -0.7996    2.1838 H   0  0  0  0  0  0  0  0  0  0  0  0
    5.0414   -1.6568    0.6472 H   0  0  0  0  0  0  0  0  0  0  0  0
    4.9871    0.0980    0.6626 H   0  0  0  0  0  0  0  0  0  0  0  0
    2.6492   -2.1294    2.5077 H   0  0  0  0  0  0  0  0  0  0  0  0
    1.4901   -2.1938    1.1591 H   0  0  0  0  0  0  0  0  0  0  0  0
    3.0572   -2.9505    0.9873 H   0  0  0  0  0  0  0  0  0  0  0  0
    2.9934    1.2484    1.1027 H   0  0  0  0  0  0  0  0  0  0  0  0
    2.5331    0.3409    2.5382 H   0  0  0  0  0  0  0  0  0  0  0  0
    0.3794   -0.2776    1.4696 H   0  0  0  0  0  0  0  0  0  0  0  0
    0.6180    1.4532    1.5070 H   0  0  0  0  0  0  0  0  0  0  0  0
    1.1959   -0.2997   -0.9519 H   0  0  0  0  0  0  0  0  0  0  0  0
    1.4355    1.4040   -0.8769 H   0  0  0  0  0  0  0  0  0  0  0  0
   -3.6088    4.0046    0.7171 H   0  0  0  0  0  0  0  0  0  0  0  0
   -2.3138    5.8465   -0.2849 H   0  0  0  0  0  0  0  0  0  0  0  0
   -0.2536    5.3490   -1.5775 H   0  0  0  0  0  0  0  0  0  0  0  0
    0.4960    3.0361   -1.8632 H   0  0  0  0  0  0  0  0  0  0  0  0
   -4.3825   -1.4145    0.7254 H   0  0  0  0  0  0  0  0  0  0  0  0
   -3.6586   -3.5480   -0.2500 H   0  0  0  0  0  0  0  0  0  0  0  0
   -0.1593   -1.6332   -1.8432 H   0  0  0  0  0  0  0  0  0  0  0  0
  1  2  1  0
  2  3  1  0
  2  4  1  0
  4  5  1  0
  5  6  1  0
  6  7  1  0
  7  8  1  0
  8  9  1  0
  9 10  2  0
 10 11  1  0
 11 12  2  0
 12 13  1  0
  9 14  1  0
 14 15  1  0
 15 16  1  0
 16 17  2  0
 17 18  1  0
 18 19  1  0
 19 20  1  0
 19 21  1  0
 19 22  1  0
 18 23  2  0
 23 24  1  0
 24  7  1  0
 13  8  2  0
 24 15  2  0
  1 25  1  0
  1 26  1  0
  1 27  1  0
  3 28  1  0
  3 29  1  0
  3 30  1  0
  4 31  1  0
  4 32  1  0
  5 33  1  0
  5 34  1  0
  6 35  1  0
  6 36  1  0
 10 37  1  0
 11 38  1  0
 12 39  1  0
 13 40  1  0
 16 41  1  0
 17 42  1  0
 23 43  1  0
M  END
$$$$
OCNT-0022266
     RDKit          3D

 40 42  0  0  0  0  0  0  0  0999 V2000
   -1.5705   -1.3515   -0.9232 C   0  0  0  0  0  0  0  0  0  0  0  0
   -1.6471   -0.1465    0.0254 C   0  0  0  0  0  0  0  0  0  0  0  0
   -0.4923   -0.1490    1.0831 C   0  0  0  0  0  0  0  0  0  0  0  0
    0.8439    0.1441    0.4920 N   0  0  0  0  0  0  0  0  0  0  0  0
    1.1450    1.5265    0.2608 C   0  0  0  0  0  0  0  0  0  0  0  0
    0.2193    2.5650    0.5309 C   0  0  0  0  0  0  0  0  0  0  0  0
    0.5039    3.9189    0.3078 C   0  0  0  0  0  0  0  0  0  0  0  0
    1.7348    4.2920   -0.1983 C   0  0  0  0  0  0  0  0  0  0  0  0
    2.6715    3.3061   -0.4785 C   0  0  0  0  0  0  0  0  0  0  0  0
    2.3891    1.9411   -0.2556 C   0  0  0  0  0  0  0  0  0  0  0  0
    3.7093    0.8344   -0.6736 S   0  0  0  0  0  0  0  0  0  0  0  0
    3.0300   -0.7521   -0.2629 C   0  0  0  0  0  0  0  0  0  0  0  0
    3.9015   -1.8383   -0.4958 C   0  0  0  0  0  0  0  0  0  0  0  0
    3.5132   -3.1438   -0.2302 C   0  0  0  0  0  0  0  0  0  0  0  0
    2.2452   -3.3725    0.2690 C   0  0  0  0  0  0  0  0  0  0  0  0
    1.3773   -2.2960    0.5020 C   0  0  0  0  0  0  0  0  0  0  0  0
    1.7310   -0.9487    0.2517 C   0  0  0  0  0  0  0  0  0  0  0  0
   -2.9649    0.0148    0.7000 N   0  0  0  0  0  0  0  0  0  0  0  0
   -3.4341   -1.1779    1.4031 C   0  0  0  0  0  0  0  0  0  0  0  0
   -3.9976    0.5044   -0.2147 C   0  0  0  0  0  0  0  0  0  0  0  0
   -1.6156   -2.3026   -0.3840 H   0  0  0  0  0  0  0  0  0  0  0  0
   -0.6394   -1.3324   -1.4984 H   0  0  0  0  0  0  0  0  0  0  0  0
   -2.3851   -1.3401   -1.6541 H   0  0  0  0  0  0  0  0  0  0  0  0
   -1.5033    0.7406   -0.6035 H   0  0  0  0  0  0  0  0  0  0  0  0
   -0.7054    0.5805    1.8762 H   0  0  0  0  0  0  0  0  0  0  0  0
   -0.5072   -1.0779    1.6585 H   0  0  0  0  0  0  0  0  0  0  0  0
   -0.7734    2.3654    0.9228 H   0  0  0  0  0  0  0  0  0  0  0  0
   -0.2459    4.6732    0.5332 H   0  0  0  0  0  0  0  0  0  0  0  0
    1.9672    5.3380   -0.3750 H   0  0  0  0  0  0  0  0  0  0  0  0
    3.6388    3.6069   -0.8772 H   0  0  0  0  0  0  0  0  0  0  0  0
    4.9004   -1.6637   -0.8918 H   0  0  0  0  0  0  0  0  0  0  0  0
    4.1943   -3.9692   -0.4145 H   0  0  0  0  0  0  0  0  0  0  0  0
    1.9176   -4.3874    0.4801 H   0  0  0  0  0  0  0  0  0  0  0  0
    0.4030   -2.5785    0.8812 H   0  0  0  0  0  0  0  0  0  0  0  0
   -2.6927   -1.5365    2.1235 H   0  0  0  0  0  0  0  0  0  0  0  0
   -4.3336   -0.9433    1.9840 H   0  0  0  0  0  0  0  0  0  0  0  0
   -3.6825   -1.9986    0.7216 H   0  0  0  0  0  0  0  0  0  0  0  0
   -4.2523   -0.2227   -0.9927 H   0  0  0  0  0  0  0  0  0  0  0  0
   -3.6801    1.4347   -0.6986 H   0  0  0  0  0  0  0  0  0  0  0  0
   -4.9134    0.7425    0.3382 H   0  0  0  0  0  0  0  0  0  0  0  0
  1  2  1  0
  2  3  1  0
  3  4  1  0
  4  5  1  0
  5  6  2  0
  6  7  1  0
  7  8  2  0
  8  9  1  0
  9 10  2  0
 10 11  1  0
 11 12  1  0
 12 13  2  0
 13 14  1  0
 14 15  2  0
 15 16  1  0
 16 17  2  0
  2 18  1  0
 18 19  1  0
 18 20  1  0
 17  4  1  0
 10  5  1  0
 17 12  1  0
  1 21  1  0
  1 22  1  0
  1 23  1  0
  2 24  1  0
  3 25  1  0
  3 26  1  0
  6 27  1  0
  7 28  1  0
  8 29  1  0
  9 30  1  0
 13 31  1  0
 14 32  1  0
 15 33  1  0
 16 34  1  0
 19 35  1  0
 19 36  1  0
 19 37  1  0
 20 38  1  0
 20 39  1  0
 20 40  1  0
M  END
$$$$
OCNT-0022268
     RDKit          3D

 49 52  0  0  0  0  0  0  0  0999 V2000
    5.8094    1.1044    0.2964 C   0  0  0  0  0  0  0  0  0  0  0  0
    4.4657    0.7955    0.7649 N   0  0  0  0  0  0  0  0  0  0  0  0
    3.4317    1.4038   -0.0946 C   0  0  0  0  0  0  0  0  0  0  0  0
    2.0704    0.6541   -0.1329 C   0  0  0  0  0  0  0  0  0  0  0  0
    1.7784   -0.0426    1.1123 N   0  0  0  0  0  0  0  0  0  0  0  0
    0.4204   -0.5563    1.2765 C   0  0  0  0  0  0  0  0  0  0  0  0
   -0.0591   -1.6508    0.3086 C   0  0  0  0  0  0  0  0  0  0  0  0
   -0.7211   -1.1570   -0.9887 C   0  0  0  0  0  0  0  0  0  0  0  0
   -2.0037   -0.4411   -0.7720 N   0  0  0  0  0  0  0  0  0  0  0  0
   -1.9795    0.9695   -0.9264 C   0  0  0  0  0  0  0  0  0  0  0  0
   -1.2870    1.5723   -1.9961 C   0  0  0  0  0  0  0  0  0  0  0  0
   -1.2588    2.9595   -2.1690 C   0  0  0  0  0  0  0  0  0  0  0  0
   -1.9401    3.7818   -1.2827 C   0  0  0  0  0  0  0  0  0  0  0  0
   -2.6641    3.2131   -0.2382 C   0  0  0  0  0  0  0  0  0  0  0  0
   -2.7017    1.8192   -0.0652 C   0  0  0  0  0  0  0  0  0  0  0  0
   -3.6655    1.2014    1.3010 S   0  0  0  0  0  0  0  0  0  0  0  0
   -3.8736   -0.5074    0.8388 C   0  0  0  0  0  0  0  0  0  0  0  0
   -4.8946   -1.2205    1.4902 C   0  0  0  0  0  0  0  0  0  0  0  0
   -5.1091   -2.5682    1.2118 C   0  0  0  0  0  0  0  0  0  0  0  0
   -4.3034   -3.2040    0.2778 C   0  0  0  0  0  0  0  0  0  0  0  0
   -4.5673   -4.8653   -0.0868 Cl  0  0  0  0  0  0  0  0  0  0  0  0
   -3.2829   -2.5064   -0.3718 C   0  0  0  0  0  0  0  0  0  0  0  0
   -3.0331   -1.1472   -0.0961 C   0  0  0  0  0  0  0  0  0  0  0  0
    2.8459   -0.9731    1.5047 C   0  0  0  0  0  0  0  0  0  0  0  0
    4.2446   -0.6461    0.9140 C   0  0  0  0  0  0  0  0  0  0  0  0
    6.5591    0.7212    0.9974 H   0  0  0  0  0  0  0  0  0  0  0  0
    5.9569    2.1885    0.2382 H   0  0  0  0  0  0  0  0  0  0  0  0
    6.0119    0.6744   -0.6911 H   0  0  0  0  0  0  0  0  0  0  0  0
    3.2609    2.4232    0.2727 H   0  0  0  0  0  0  0  0  0  0  0  0
    3.7820    1.4919   -1.1315 H   0  0  0  0  0  0  0  0  0  0  0  0
    1.2877    1.3869   -0.3570 H   0  0  0  0  0  0  0  0  0  0  0  0
    2.1012   -0.0646   -0.9609 H   0  0  0  0  0  0  0  0  0  0  0  0
   -0.2771    0.2872    1.2765 H   0  0  0  0  0  0  0  0  0  0  0  0
    0.3499   -0.9632    2.2945 H   0  0  0  0  0  0  0  0  0  0  0  0
    0.7769   -2.3043    0.0341 H   0  0  0  0  0  0  0  0  0  0  0  0
   -0.7549   -2.2979    0.8554 H   0  0  0  0  0  0  0  0  0  0  0  0
   -0.8951   -2.0163   -1.6476 H   0  0  0  0  0  0  0  0  0  0  0  0
    0.0073   -0.5559   -1.5364 H   0  0  0  0  0  0  0  0  0  0  0  0
   -0.7847    0.9642   -2.7433 H   0  0  0  0  0  0  0  0  0  0  0  0
   -0.7145    3.3919   -3.0045 H   0  0  0  0  0  0  0  0  0  0  0  0
   -1.9227    4.8608   -1.4100 H   0  0  0  0  0  0  0  0  0  0  0  0
   -3.2068    3.8653    0.4427 H   0  0  0  0  0  0  0  0  0  0  0  0
   -5.5300   -0.7252    2.2217 H   0  0  0  0  0  0  0  0  0  0  0  0
   -5.9035   -3.1071    1.7204 H   0  0  0  0  0  0  0  0  0  0  0  0
   -2.6993   -3.0339   -1.1194 H   0  0  0  0  0  0  0  0  0  0  0  0
    2.9172   -0.9489    2.5991 H   0  0  0  0  0  0  0  0  0  0  0  0
    2.6077   -2.0053    1.2248 H   0  0  0  0  0  0  0  0  0  0  0  0
    5.0039   -1.0808    1.5755 H   0  0  0  0  0  0  0  0  0  0  0  0
    4.3442   -1.1409   -0.0617 H   0  0  0  0  0  0  0  0  0  0  0  0
  1  2  1  0
  2  3  1  0
  3  4  1  0
  4  5  1  0
  5  6  1  0
  6  7  1  0
  7  8  1  0
  8  9  1  0
  9 10  1  0
 10 11  2  0
 11 12  1  0
 12 13  2  0
 13 14  1  0
 14 15  2  0
 15 16  1  0
 16 17  1  0
 17 18  1  0
 18 19  2  0
 19 20  1  0
 20 21  1  0
 20 22  2  0
 22 23  1  0
  5 24  1  0
 24 25  1  0
 25  2  1  0
 23  9  1  0
 15 10  1  0
 23 17  2  0
  1 26  1  0
  1 27  1  0
  1 28  1  0
  3 29  1  0
  3 30  1  0
  4 31  1  0
  4 32  1  0
  6 33  1  0
  6 34  1  0
  7 35  1  0
  7 36  1  0
  8 37  1  0
  8 38  1  0
 11 39  1  0
 12 40  1  0
 13 41  1  0
 14 42  1  0
 18 43  1  0
 19 44  1  0
 22 45  1  0
 24 46  1  0
 24 47  1  0
 25 48  1  0
 25 49  1  0
M  END
$$$$
OCNT-0022269
     RDKit          3D

 59 62  0  0  0  0  0  0  0  0999 V2000
   -4.0391    5.0363   -0.2218 C   0  0  0  0  0  0  0  0  0  0  0  0
   -3.3427    3.8133    0.3153 C   0  0  0  0  0  0  0  0  0  0  0  0
   -2.3301    3.9090    1.0057 O   0  0  0  0  0  0  0  0  0  0  0  0
   -3.9094    2.4661    0.0106 C   0  0  0  0  0  0  0  0  0  0  0  0
   -5.1738    2.3064   -0.5425 C   0  0  0  0  0  0  0  0  0  0  0  0
   -5.6456    1.0213   -0.7940 C   0  0  0  0  0  0  0  0  0  0  0  0
   -4.8681   -0.1157   -0.4966 C   0  0  0  0  0  0  0  0  0  0  0  0
   -5.6415   -1.6743   -0.8511 S   0  0  0  0  0  0  0  0  0  0  0  0
   -4.3092   -2.8234   -0.6050 C   0  0  0  0  0  0  0  0  0  0  0  0
   -3.0711   -2.4713   -0.0299 C   0  0  0  0  0  0  0  0  0  0  0  0
   -2.1295   -3.5182    0.1026 C   0  0  0  0  0  0  0  0  0  0  0  0
   -2.3991   -4.8337   -0.2956 C   0  0  0  0  0  0  0  0  0  0  0  0
   -3.6273   -5.1513   -0.8482 C   0  0  0  0  0  0  0  0  0  0  0  0
   -4.5773   -4.1492   -1.0022 C   0  0  0  0  0  0  0  0  0  0  0  0
   -2.7839   -1.1325    0.3695 N   0  0  0  0  0  0  0  0  0  0  0  0
   -1.6041   -0.9238    1.2429 C   0  0  0  0  0  0  0  0  0  0  0  0
   -0.3350   -0.6321    0.4283 C   0  0  0  0  0  0  0  0  0  0  0  0
    0.8625   -0.4237    1.3629 C   0  0  0  0  0  0  0  0  0  0  0  0
    2.0901   -0.0699    0.6389 N   0  0  0  0  0  0  0  0  0  0  0  0
    3.0667    0.5575    1.5463 C   0  0  0  0  0  0  0  0  0  0  0  0
    4.5220    0.4959    1.0552 C   0  0  0  0  0  0  0  0  0  0  0  0
    4.5996    0.5000   -0.4733 C   0  0  0  0  0  0  0  0  0  0  0  0
    6.0434    0.4540   -1.0107 C   0  0  0  0  0  0  0  0  0  0  0  0
    6.9075    1.6512   -0.6263 C   0  0  0  0  0  0  0  0  0  0  0  0
    6.3136    2.8523   -1.0929 O   0  0  0  0  0  0  0  0  0  0  0  0
    3.7849   -0.6843   -1.0360 C   0  0  0  0  0  0  0  0  0  0  0  0
    2.6885   -1.1879   -0.0872 C   0  0  0  0  0  0  0  0  0  0  0  0
   -3.5850    0.0090    0.0719 C   0  0  0  0  0  0  0  0  0  0  0  0
   -3.1351    1.3293    0.3070 C   0  0  0  0  0  0  0  0  0  0  0  0
   -4.9719    5.2055    0.3219 H   0  0  0  0  0  0  0  0  0  0  0  0
   -4.2266    4.9321   -1.2937 H   0  0  0  0  0  0  0  0  0  0  0  0
   -3.3914    5.9076   -0.0827 H   0  0  0  0  0  0  0  0  0  0  0  0
   -5.8128    3.1513   -0.7784 H   0  0  0  0  0  0  0  0  0  0  0  0
   -6.6394    0.9050   -1.2245 H   0  0  0  0  0  0  0  0  0  0  0  0
   -1.1379   -3.3444    0.5066 H   0  0  0  0  0  0  0  0  0  0  0  0
   -1.6402   -5.6027   -0.1751 H   0  0  0  0  0  0  0  0  0  0  0  0
   -3.8466   -6.1682   -1.1607 H   0  0  0  0  0  0  0  0  0  0  0  0
   -5.5409   -4.4065   -1.4380 H   0  0  0  0  0  0  0  0  0  0  0  0
   -1.7880   -0.1210    1.9686 H   0  0  0  0  0  0  0  0  0  0  0  0
   -1.4439   -1.7892    1.8990 H   0  0  0  0  0  0  0  0  0  0  0  0
   -0.1450   -1.4545   -0.2676 H   0  0  0  0  0  0  0  0  0  0  0  0
   -0.4740    0.2606   -0.1924 H   0  0  0  0  0  0  0  0  0  0  0  0
    0.6013    0.3969    2.0447 H   0  0  0  0  0  0  0  0  0  0  0  0
    1.0231   -1.3142    1.9842 H   0  0  0  0  0  0  0  0  0  0  0  0
    2.7803    1.6089    1.6724 H   0  0  0  0  0  0  0  0  0  0  0  0
    3.0354    0.0978    2.5431 H   0  0  0  0  0  0  0  0  0  0  0  0
    4.9978   -0.4157    1.4402 H   0  0  0  0  0  0  0  0  0  0  0  0
    5.0686    1.3431    1.4828 H   0  0  0  0  0  0  0  0  0  0  0  0
    4.1283    1.4258   -0.8314 H   0  0  0  0  0  0  0  0  0  0  0  0
    5.9947    0.4057   -2.1065 H   0  0  0  0  0  0  0  0  0  0  0  0
    6.5389   -0.4630   -0.6694 H   0  0  0  0  0  0  0  0  0  0  0  0
    7.8958    1.5557   -1.0877 H   0  0  0  0  0  0  0  0  0  0  0  0
    7.0437    1.7184    0.4567 H   0  0  0  0  0  0  0  0  0  0  0  0
    6.8956    3.5841   -0.8270 H   0  0  0  0  0  0  0  0  0  0  0  0
    4.4408   -1.5306   -1.2755 H   0  0  0  0  0  0  0  0  0  0  0  0
    3.3325   -0.3689   -1.9854 H   0  0  0  0  0  0  0  0  0  0  0  0
    1.9521   -1.7215   -0.6968 H   0  0  0  0  0  0  0  0  0  0  0  0
    3.1039   -1.9248    0.6131 H   0  0  0  0  0  0  0  0  0  0  0  0
   -2.1461    1.5165    0.7156 H   0  0  0  0  0  0  0  0  0  0  0  0
  1  2  1  0
  2  3  2  0
  2  4  1  0
  4  5  1  0
  5  6  2  0
  6  7  1  0
  7  8  1  0
  8  9  1  0
  9 10  1  0
 10 11  2  0
 11 12  1  0
 12 13  2  0
 13 14  1  0
 10 15  1  0
 15 16  1  0
 16 17  1  0
 17 18  1  0
 18 19  1  0
 19 20  1  0
 20 21  1  0
 21 22  1  0
 22 23  1  0
 23 24  1  0
 24 25  1  0
 22 26  1  0
 26 27  1  0
 15 28  1  0
 28 29  1  0
 29  4  2  0
 28  7  2  0
 14  9  2  0
 27 19  1  0
  1 30  1  0
  1 31  1  0
  1 32  1  0
  5 33  1  0
  6 34  1  0
 11 35  1  0
 12 36  1  0
 13 37  1  0
 14 38  1  0
 16 39  1  0
 16 40  1  0
 17 41  1  0
 17 42  1  0
 18 43  1  0
 18 44  1  0
 20 45  1  0
 20 46  1  0
 21 47  1  0
 21 48  1  0
 22 49  1  0
 23 50  1  0
 23 51  1  0
 24 52  1  0
 24 53  1  0
 25 54  1  0
 26 55  1  0
 26 56  1  0
 27 57  1  0
 27 58  1  0
 29 59  1  0
M  END
$$$$
OCNT-0022288
     RDKit          3D

 56 59  0  0  0  0  0  0  0  0999 V2000
    4.7628   -2.5755   -0.6942 O   0  0  0  0  0  0  0  0  0  0  0  0
    5.6748   -1.5090   -0.9511 C   0  0  0  0  0  0  0  0  0  0  0  0
    5.3653   -0.3224   -0.0251 C   0  0  0  0  0  0  0  0  0  0  0  0
    3.9363    0.0453   -0.0662 N   0  0  0  0  0  0  0  0  0  0  0  0
    3.5309    0.5939   -1.3796 C   0  0  0  0  0  0  0  0  0  0  0  0
    2.2514    1.4746   -1.3453 C   0  0  0  0  0  0  0  0  0  0  0  0
    1.3338    1.2173   -0.2209 N   0  0  0  0  0  0  0  0  0  0  0  0
    0.6834   -0.1032   -0.3075 C   0  0  0  0  0  0  0  0  0  0  0  0
   -0.4271   -0.1634   -1.3650 C   0  0  0  0  0  0  0  0  0  0  0  0
   -1.5597    0.8560   -1.1571 C   0  0  0  0  0  0  0  0  0  0  0  0
   -2.4233    0.5518    0.0167 N   0  0  0  0  0  0  0  0  0  0  0  0
   -2.0766    1.2102    1.2286 C   0  0  0  0  0  0  0  0  0  0  0  0
   -1.7552    2.5827    1.2433 C   0  0  0  0  0  0  0  0  0  0  0  0
   -1.4226    3.2530    2.4244 C   0  0  0  0  0  0  0  0  0  0  0  0
   -1.4186    2.5689    3.6317 C   0  0  0  0  0  0  0  0  0  0  0  0
   -1.7590    1.2198    3.6537 C   0  0  0  0  0  0  0  0  0  0  0  0
   -2.0995    0.5431    2.4691 C   0  0  0  0  0  0  0  0  0  0  0  0
   -2.4986   -1.1857    2.6232 S   0  0  0  0  0  0  0  0  0  0  0  0
   -3.3010   -1.5063    1.0672 C   0  0  0  0  0  0  0  0  0  0  0  0
   -4.0548   -2.6886    0.9791 C   0  0  0  0  0  0  0  0  0  0  0  0
   -4.6972   -3.0404   -0.2060 C   0  0  0  0  0  0  0  0  0  0  0  0
   -4.5937   -2.2146   -1.3272 C   0  0  0  0  0  0  0  0  0  0  0  0
   -5.3096   -2.5565   -2.6100 C   0  0  0  0  0  0  0  0  0  0  0  0
   -5.5577   -3.8886   -2.7493 F   0  0  0  0  0  0  0  0  0  0  0  0
   -4.6078   -2.1933   -3.7203 F   0  0  0  0  0  0  0  0  0  0  0  0
   -6.5176   -1.9378   -2.7123 F   0  0  0  0  0  0  0  0  0  0  0  0
   -3.8415   -1.0292   -1.2295 C   0  0  0  0  0  0  0  0  0  0  0  0
   -3.1651   -0.6583   -0.0485 C   0  0  0  0  0  0  0  0  0  0  0  0
    2.0867    1.3531    1.0488 C   0  0  0  0  0  0  0  0  0  0  0  0
    3.5992    1.0024    1.0001 C   0  0  0  0  0  0  0  0  0  0  0  0
    3.9346   -2.1331   -0.4144 H   0  0  0  0  0  0  0  0  0  0  0  0
    6.6906   -1.8760   -0.7780 H   0  0  0  0  0  0  0  0  0  0  0  0
    5.5880   -1.2291   -2.0055 H   0  0  0  0  0  0  0  0  0  0  0  0
    5.6063   -0.6427    0.9968 H   0  0  0  0  0  0  0  0  0  0  0  0
    6.0135    0.5289   -0.2659 H   0  0  0  0  0  0  0  0  0  0  0  0
    3.3481   -0.2494   -2.0563 H   0  0  0  0  0  0  0  0  0  0  0  0
    4.3362    1.1974   -1.8182 H   0  0  0  0  0  0  0  0  0  0  0  0
    1.7307    1.4058   -2.3064 H   0  0  0  0  0  0  0  0  0  0  0  0
    2.5648    2.5252   -1.2717 H   0  0  0  0  0  0  0  0  0  0  0  0
    1.4090   -0.8997   -0.5101 H   0  0  0  0  0  0  0  0  0  0  0  0
    0.2286   -0.3621    0.6548 H   0  0  0  0  0  0  0  0  0  0  0  0
    0.0050   -0.0009   -2.3597 H   0  0  0  0  0  0  0  0  0  0  0  0
   -0.8292   -1.1833   -1.3845 H   0  0  0  0  0  0  0  0  0  0  0  0
   -2.1709    0.8849   -2.0665 H   0  0  0  0  0  0  0  0  0  0  0  0
   -1.1289    1.8609   -1.1207 H   0  0  0  0  0  0  0  0  0  0  0  0
   -1.7845    3.1690    0.3289 H   0  0  0  0  0  0  0  0  0  0  0  0
   -1.1759    4.3111    2.3945 H   0  0  0  0  0  0  0  0  0  0  0  0
   -1.1618    3.0834    4.5532 H   0  0  0  0  0  0  0  0  0  0  0  0
   -1.7595    0.6935    4.6055 H   0  0  0  0  0  0  0  0  0  0  0  0
   -4.1464   -3.3454    1.8426 H   0  0  0  0  0  0  0  0  0  0  0  0
   -5.2806   -3.9591   -0.2461 H   0  0  0  0  0  0  0  0  0  0  0  0
   -3.8198   -0.3742   -2.0979 H   0  0  0  0  0  0  0  0  0  0  0  0
    2.0012    2.3997    1.3679 H   0  0  0  0  0  0  0  0  0  0  0  0
    1.6067    0.7747    1.8481 H   0  0  0  0  0  0  0  0  0  0  0  0
    3.8817    0.5930    1.9780 H   0  0  0  0  0  0  0  0  0  0  0  0
    4.1745    1.9278    0.8605 H   0  0  0  0  0  0  0  0  0  0  0  0
  1  2  1  0
  2  3  1  0
  3  4  1  0
  4  5  1  0
  5  6  1  0
  6  7  1  0
  7  8  1  0
  8  9  1  0
  9 10  1  0
 10 11  1  0
 11 12  1  0
 12 13  2  0
 13 14  1  0
 14 15  2  0
 15 16  1  0
 16 17  2  0
 17 18  1  0
 18 19  1  0
 19 20  1  0
 20 21  2  0
 21 22  1  0
 22 23  1  0
 23 24  1  0
 23 25  1  0
 23 26  1  0
 22 27  2  0
 27 28  1  0
  7 29  1  0
 29 30  1  0
 30  4  1  0
 28 11  1  0
 17 12  1  0
 28 19  2  0
  1 31  1  0
  2 32  1  0
  2 33  1  0
  3 34  1  0
  3 35  1  0
  5 36  1  0
  5 37  1  0
  6 38  1  0
  6 39  1  0
  8 40  1  0
  8 41  1  0
  9 42  1  0
  9 43  1  0
 10 44  1  0
 10 45  1  0
 13 46  1  0
 14 47  1  0
 15 48  1  0
 16 49  1  0
 20 50  1  0
 21 51  1  0
 27 52  1  0
 29 53  1  0
 29 54  1  0
 30 55  1  0
 30 56  1  0
M  END
$$$$
OCNT-0022294
     RDKit          3D

 40 42  0  0  0  0  0  0  0  0999 V2000
    4.8751    1.3411    0.1321 C   0  0  0  0  0  0  0  0  0  0  0  0
    3.6391    0.8504   -0.4848 N   0  0  0  0  0  0  0  0  0  0  0  0
    3.9272   -0.3471   -1.2774 C   0  0  0  0  0  0  0  0  0  0  0  0
    2.6203    0.6067    0.5492 C   0  0  0  0  0  0  0  0  0  0  0  0
    1.2289    0.3227   -0.0304 C   0  0  0  0  0  0  0  0  0  0  0  0
    0.1868    0.2452    1.0956 C   0  0  0  0  0  0  0  0  0  0  0  0
   -1.1614   -0.0896    0.5797 N   0  0  0  0  0  0  0  0  0  0  0  0
   -1.5235   -1.4690    0.5560 C   0  0  0  0  0  0  0  0  0  0  0  0
   -0.5634   -2.5028    0.6537 C   0  0  0  0  0  0  0  0  0  0  0  0
   -0.9072   -3.8601    0.6190 C   0  0  0  0  0  0  0  0  0  0  0  0
   -2.2322   -4.2347    0.4806 C   0  0  0  0  0  0  0  0  0  0  0  0
   -3.2051   -3.2483    0.3744 C   0  0  0  0  0  0  0  0  0  0  0  0
   -2.8633   -1.8811    0.4062 C   0  0  0  0  0  0  0  0  0  0  0  0
   -4.2307   -0.7535    0.2862 S   0  0  0  0  0  0  0  0  0  0  0  0
   -3.4149    0.8110    0.0829 C   0  0  0  0  0  0  0  0  0  0  0  0
   -2.0274    0.9976    0.2605 C   0  0  0  0  0  0  0  0  0  0  0  0
   -1.5469    2.3146    0.0784 C   0  0  0  0  0  0  0  0  0  0  0  0
   -2.3937    3.3796   -0.2464 C   0  0  0  0  0  0  0  0  0  0  0  0
   -1.7404    4.9594   -0.4511 Cl  0  0  0  0  0  0  0  0  0  0  0  0
   -3.7528    3.1745   -0.4071 C   0  0  0  0  0  0  0  0  0  0  0  0
   -4.2604    1.8912   -0.2428 C   0  0  0  0  0  0  0  0  0  0  0  0
    4.6905    2.2728    0.6785 H   0  0  0  0  0  0  0  0  0  0  0  0
    5.6231    1.5741   -0.6341 H   0  0  0  0  0  0  0  0  0  0  0  0
    5.3071    0.6120    0.8272 H   0  0  0  0  0  0  0  0  0  0  0  0
    4.2525   -1.1869   -0.6529 H   0  0  0  0  0  0  0  0  0  0  0  0
    4.7149   -0.1420   -2.0117 H   0  0  0  0  0  0  0  0  0  0  0  0
    3.0534   -0.6605   -1.8566 H   0  0  0  0  0  0  0  0  0  0  0  0
    2.9253   -0.2166    1.2086 H   0  0  0  0  0  0  0  0  0  0  0  0
    2.5383    1.5037    1.1771 H   0  0  0  0  0  0  0  0  0  0  0  0
    1.2355   -0.6142   -0.5961 H   0  0  0  0  0  0  0  0  0  0  0  0
    0.9614    1.1072   -0.7471 H   0  0  0  0  0  0  0  0  0  0  0  0
    0.5044   -0.4772    1.8589 H   0  0  0  0  0  0  0  0  0  0  0  0
    0.1683    1.1854    1.6623 H   0  0  0  0  0  0  0  0  0  0  0  0
    0.4963   -2.2886    0.7424 H   0  0  0  0  0  0  0  0  0  0  0  0
   -0.1317   -4.6181    0.6952 H   0  0  0  0  0  0  0  0  0  0  0  0
   -2.5099   -5.2845    0.4522 H   0  0  0  0  0  0  0  0  0  0  0  0
   -4.2451   -3.5507    0.2660 H   0  0  0  0  0  0  0  0  0  0  0  0
   -0.4915    2.5481    0.1665 H   0  0  0  0  0  0  0  0  0  0  0  0
   -4.4170    3.9958   -0.6592 H   0  0  0  0  0  0  0  0  0  0  0  0
   -5.3300    1.7322   -0.3692 H   0  0  0  0  0  0  0  0  0  0  0  0
  1  2  1  0
  2  3  1  0
  2  4  1  0
  4  5  1  0
  5  6  1  0
  6  7  1  0
  7  8  1  0
  8  9  2  0
  9 10  1  0
 10 11  2  0
 11 12  1  0
 12 13  2  0
 13 14  1  0
 14 15  1  0
 15 16  2  0
 16 17  1  0
 17 18  2  0
 18 19  1  0
 18 20  1  0
 20 21  2  0
 16  7  1  0
 13  8  1  0
 21 15  1  0
  1 22  1  0
  1 23  1  0
  1 24  1  0
  3 25  1  0
  3 26  1  0
  3 27  1  0
  4 28  1  0
  4 29  1  0
  5 30  1  0
  5 31  1  0
  6 32  1  0
  6 33  1  0
  9 34  1  0
 10 35  1  0
 11 36  1  0
 12 37  1  0
 17 38  1  0
 20 39  1  0
 21 40  1  0
M  END
$$$$
OCNT-0022316
     RDKit          3D

 53 56  0  0  0  0  0  0  0  0999 V2000
    6.1052   -0.9255   -3.1078 C   0  0  0  0  0  0  0  0  0  0  0  0
    6.4340   -0.8708   -1.7266 O   0  0  0  0  0  0  0  0  0  0  0  0
    5.4018   -0.7600   -0.8281 C   0  0  0  0  0  0  0  0  0  0  0  0
    5.7651   -0.7181    0.5280 C   0  0  0  0  0  0  0  0  0  0  0  0
    7.1065   -0.7915    0.8013 O   0  0  0  0  0  0  0  0  0  0  0  0
    7.5161   -0.6286    2.1518 C   0  0  0  0  0  0  0  0  0  0  0  0
    4.7637   -0.6145    1.4936 C   0  0  0  0  0  0  0  0  0  0  0  0
    3.3998   -0.5482    1.1157 C   0  0  0  0  0  0  0  0  0  0  0  0
    2.3235   -0.4528    1.9979 C   0  0  0  0  0  0  0  0  0  0  0  0
    2.5083   -0.4399    3.3875 N   0  0  0  0  0  0  0  0  0  0  0  0
    1.0501   -0.3548    1.5976 N   0  0  0  0  0  0  0  0  0  0  0  0
    0.8020   -0.3698    0.2809 C   0  0  0  0  0  0  0  0  0  0  0  0
   -0.5071   -0.2891   -0.1480 N   0  0  0  0  0  0  0  0  0  0  0  0
   -1.5440   -0.0193    0.8437 C   0  0  0  0  0  0  0  0  0  0  0  0
   -2.9413   -0.2531    0.2408 C   0  0  0  0  0  0  0  0  0  0  0  0
   -3.1773    0.4982   -0.9986 N   0  0  0  0  0  0  0  0  0  0  0  0
   -4.4196    0.6621   -1.6033 C   0  0  0  0  0  0  0  0  0  0  0  0
   -4.5394    1.2697   -2.6703 O   0  0  0  0  0  0  0  0  0  0  0  0
   -5.6565    0.0874   -0.8677 C   0  0  0  0  0  0  0  0  0  0  0  0
   -6.1639    1.0730    0.1745 C   0  0  0  0  0  0  0  0  0  0  0  0
   -7.1532    1.8942   -0.6162 C   0  0  0  0  0  0  0  0  0  0  0  0
   -7.7438    0.8717   -1.5610 C   0  0  0  0  0  0  0  0  0  0  0  0
   -6.7610   -0.1536   -1.7503 O   0  0  0  0  0  0  0  0  0  0  0  0
   -1.9821    1.0042   -1.6840 C   0  0  0  0  0  0  0  0  0  0  0  0
   -0.7629    0.0728   -1.5464 C   0  0  0  0  0  0  0  0  0  0  0  0
    1.7726   -0.4894   -0.6362 N   0  0  0  0  0  0  0  0  0  0  0  0
    3.0436   -0.5707   -0.2289 C   0  0  0  0  0  0  0  0  0  0  0  0
    4.0489   -0.6815   -1.1818 C   0  0  0  0  0  0  0  0  0  0  0  0
    5.4905   -1.8032   -3.3332 H   0  0  0  0  0  0  0  0  0  0  0  0
    7.0391   -1.0209   -3.6701 H   0  0  0  0  0  0  0  0  0  0  0  0
    5.6143   -0.0026   -3.4334 H   0  0  0  0  0  0  0  0  0  0  0  0
    8.6097   -0.6570    2.1754 H   0  0  0  0  0  0  0  0  0  0  0  0
    7.1489   -1.4502    2.7755 H   0  0  0  0  0  0  0  0  0  0  0  0
    7.2000    0.3420    2.5482 H   0  0  0  0  0  0  0  0  0  0  0  0
    5.0080   -0.5727    2.5497 H   0  0  0  0  0  0  0  0  0  0  0  0
    1.5812   -0.3968    3.8043 H   0  0  0  0  0  0  0  0  0  0  0  0
    3.0084   -1.2674    3.6937 H   0  0  0  0  0  0  0  0  0  0  0  0
   -1.4430   -0.6782    1.7148 H   0  0  0  0  0  0  0  0  0  0  0  0
   -1.4631    1.0187    1.1906 H   0  0  0  0  0  0  0  0  0  0  0  0
   -3.0625   -1.3144   -0.0086 H   0  0  0  0  0  0  0  0  0  0  0  0
   -3.7060    0.0051    0.9784 H   0  0  0  0  0  0  0  0  0  0  0  0
   -5.3903   -0.8747   -0.4213 H   0  0  0  0  0  0  0  0  0  0  0  0
   -5.3864    1.6875    0.6366 H   0  0  0  0  0  0  0  0  0  0  0  0
   -6.6928    0.5318    0.9683 H   0  0  0  0  0  0  0  0  0  0  0  0
   -7.9077    2.3871    0.0028 H   0  0  0  0  0  0  0  0  0  0  0  0
   -6.6265    2.6692   -1.1853 H   0  0  0  0  0  0  0  0  0  0  0  0
   -8.0167    1.3040   -2.5280 H   0  0  0  0  0  0  0  0  0  0  0  0
   -8.6333    0.4022   -1.1280 H   0  0  0  0  0  0  0  0  0  0  0  0
   -1.7559    1.9767   -1.2292 H   0  0  0  0  0  0  0  0  0  0  0  0
   -2.1855    1.1814   -2.7451 H   0  0  0  0  0  0  0  0  0  0  0  0
    0.0889    0.5826   -2.0125 H   0  0  0  0  0  0  0  0  0  0  0  0
   -0.9461   -0.8500   -2.1099 H   0  0  0  0  0  0  0  0  0  0  0  0
    3.7377   -0.7023   -2.2214 H   0  0  0  0  0  0  0  0  0  0  0  0
  1  2  1  0
  2  3  1  0
  3  4  1  0
  4  5  1  0
  5  6  1  0
  4  7  2  0
  7  8  1  0
  8  9  2  0
  9 10  1  0
  9 11  1  0
 11 12  2  0
 12 13  1  0
 13 14  1  0
 14 15  1  0
 15 16  1  0
 16 17  1  0
 17 18  2  0
 17 19  1  0
 19 20  1  0
 20 21  1  0
 21 22  1  0
 22 23  1  0
 16 24  1  0
 24 25  1  0
 12 26  1  0
 26 27  2  0
 27 28  1  0
 28  3  2  0
 27  8  1  0
 25 13  1  0
 23 19  1  0
  1 29  1  0
  1 30  1  0
  1 31  1  0
  6 32  1  0
  6 33  1  0
  6 34  1  0
  7 35  1  0
 10 36  1  0
 10 37  1  0
 14 38  1  0
 14 39  1  0
 15 40  1  0
 15 41  1  0
 19 42  1  0
 20 43  1  0
 20 44  1  0
 21 45  1  0
 21 46  1  0
 22 47  1  0
 22 48  1  0
 24 49  1  0
 24 50  1  0
 25 51  1  0
 25 52  1  0
 28 53  1  0
M  END
$$$$
OCNT-0200796
     RDKit          3D

 55 57  0  0  0  0  0  0  0  0999 V2000
   -1.8517   -1.8754    3.9968 C   0  0  0  0  0  0  0  0  0  0  0  0
   -1.7545   -0.8729    2.9341 N   0  0  0  0  0  0  0  0  0  0  0  0
   -2.6950    0.2590    3.0024 C   0  0  0  0  0  0  0  0  0  0  0  0
   -3.6502    0.3016    1.8283 C   0  0  0  0  0  0  0  0  0  0  0  0
   -4.3336   -0.8287    1.4160 C   0  0  0  0  0  0  0  0  0  0  0  0
   -5.2125   -0.8245    0.3850 N   0  0  0  0  0  0  0  0  0  0  0  0
   -5.4120    0.3263   -0.2665 C   0  0  0  0  0  0  0  0  0  0  0  0
   -6.2555    0.3081   -1.2930 N   0  0  0  0  0  0  0  0  0  0  0  0
   -6.4459    1.4420   -1.9564 C   0  0  0  0  0  0  0  0  0  0  0  0
   -7.3138    1.4152   -3.0257 N   0  0  0  0  0  0  0  0  0  0  0  0
   -5.8856    2.6082   -1.6486 N   0  0  0  0  0  0  0  0  0  0  0  0
   -5.0362    2.6044   -0.6112 C   0  0  0  0  0  0  0  0  0  0  0  0
   -4.4968    3.8591   -0.2791 N   0  0  0  0  0  0  0  0  0  0  0  0
   -4.7347    1.4788    0.1505 C   0  0  0  0  0  0  0  0  0  0  0  0
   -3.8501    1.4845    1.1974 N   0  0  0  0  0  0  0  0  0  0  0  0
   -0.6540   -0.8673    2.0787 C   0  0  0  0  0  0  0  0  0  0  0  0
   -0.4018    0.1856    1.1792 C   0  0  0  0  0  0  0  0  0  0  0  0
    0.6965    0.1857    0.3047 C   0  0  0  0  0  0  0  0  0  0  0  0
    1.5914   -0.8818    0.3079 C   0  0  0  0  0  0  0  0  0  0  0  0
    2.7662   -0.9405   -0.6007 C   0  0  0  0  0  0  0  0  0  0  0  0
    3.1467   -2.0186   -1.0377 O   0  0  0  0  0  0  0  0  0  0  0  0
    3.3817    0.2604   -0.8852 N   0  0  0  0  0  0  0  0  0  0  0  0
    4.4323    0.3845   -1.8985 C   0  0  1  0  0  0  0  0  0  0  0  0
    5.6425   -0.5378   -1.6975 C   0  0  0  0  0  0  0  0  0  0  0  0
    6.2543   -0.4136   -0.3043 C   0  0  0  0  0  0  0  0  0  0  0  0
    7.4886   -1.2589   -0.1736 C   0  0  0  0  0  0  0  0  0  0  0  0
    7.6314   -2.2251    0.5556 O   0  0  0  0  0  0  0  0  0  0  0  0
    8.5017   -0.8281   -0.9477 O   0  0  0  0  0  0  0  0  0  0  0  0
    3.8803    0.2744   -3.3298 C   0  0  0  0  0  0  0  0  0  0  0  0
    4.5405    0.1487   -4.3505 O   0  0  0  0  0  0  0  0  0  0  0  0
    2.5411    0.4428   -3.4188 O   0  0  0  0  0  0  0  0  0  0  0  0
    1.3615   -1.9519    1.1690 C   0  0  0  0  0  0  0  0  0  0  0  0
    0.2612   -1.9358    2.0386 C   0  0  0  0  0  0  0  0  0  0  0  0
   -1.9073   -2.8861    3.5777 H   0  0  0  0  0  0  0  0  0  0  0  0
   -0.9975   -1.8049    4.6789 H   0  0  0  0  0  0  0  0  0  0  0  0
   -2.7586   -1.7479    4.5979 H   0  0  0  0  0  0  0  0  0  0  0  0
   -2.1485    1.2068    3.0896 H   0  0  0  0  0  0  0  0  0  0  0  0
   -3.3101    0.2014    3.9100 H   0  0  0  0  0  0  0  0  0  0  0  0
   -4.1905   -1.7919    1.8987 H   0  0  0  0  0  0  0  0  0  0  0  0
   -7.9519    0.6341   -2.9446 H   0  0  0  0  0  0  0  0  0  0  0  0
   -7.7109    2.3300   -3.1891 H   0  0  0  0  0  0  0  0  0  0  0  0
   -3.5066    3.7887   -0.0671 H   0  0  0  0  0  0  0  0  0  0  0  0
   -4.7240    4.5239   -1.0130 H   0  0  0  0  0  0  0  0  0  0  0  0
   -1.0631    1.0459    1.1209 H   0  0  0  0  0  0  0  0  0  0  0  0
    0.8066    1.0121   -0.3909 H   0  0  0  0  0  0  0  0  0  0  0  0
    2.9510    1.1161   -0.5671 H   0  0  0  0  0  0  0  0  0  0  0  0
    4.7765    1.4238   -1.8077 H   0  0  0  0  0  0  0  0  0  0  0  0
    6.4013   -0.2883   -2.4515 H   0  0  0  0  0  0  0  0  0  0  0  0
    5.3830   -1.5844   -1.8971 H   0  0  0  0  0  0  0  0  0  0  0  0
    5.5464   -0.7421    0.4645 H   0  0  0  0  0  0  0  0  0  0  0  0
    6.5201    0.6249   -0.0750 H   0  0  0  0  0  0  0  0  0  0  0  0
    9.2222   -1.4679   -0.7670 H   0  0  0  0  0  0  0  0  0  0  0  0
    2.3544    0.3101   -4.3723 H   0  0  0  0  0  0  0  0  0  0  0  0
    2.0343   -2.8078    1.1693 H   0  0  0  0  0  0  0  0  0  0  0  0
    0.1391   -2.8048    2.6792 H   0  0  0  0  0  0  0  0  0  0  0  0
  1  2  1  0
  2  3  1  0
  3  4  1  0
  4  5  1  0
  5  6  2  0
  6  7  1  0
  7  8  2  0
  8  9  1  0
  9 10  1  0
  9 11  2  0
 11 12  1  0
 12 13  1  0
 12 14  2  0
 14 15  1  0
  2 16  1  0
 16 17  1  0
 17 18  2  0
 18 19  1  0
 19 20  1  0
 20 21  2  0
 20 22  1  0
 22 23  1  0
 23 24  1  0
 24 25  1  0
 25 26  1  0
 26 27  2  0
 26 28  1  0
 23 29  1  0
 29 30  2  0
 29 31  1  0
 19 32  2  0
 32 33  1  0
 15  4  2  0
 33 16  2  0
 14  7  1  0
  1 34  1  0
  1 35  1  0
  1 36  1  0
  3 37  1  0
  3 38  1  0
  5 39  1  0
 10 40  1  0
 10 41  1  0
 13 42  1  0
 13 43  1  0
 17 44  1  0
 18 45  1  0
 22 46  1  0
 23 47  1  6
 24 48  1  0
 24 49  1  0
 25 50  1  0
 25 51  1  0
 28 52  1  0
 31 53  1  0
 32 54  1  0
 33 55  1  0
M  END
$$$$
OCNT-0283087
     RDKit          3D

 41 44  0  0  0  0  0  0  0  0999 V2000
    6.8697   -0.8839   -0.6977 C   0  0  0  0  0  0  0  0  0  0  0  0
    5.8737   -0.3651    0.1742 O   0  0  0  0  0  0  0  0  0  0  0  0
    4.6008   -0.2685   -0.3240 C   0  0  0  0  0  0  0  0  0  0  0  0
    4.1936   -0.6584   -1.5973 C   0  0  0  0  0  0  0  0  0  0  0  0
    2.8584   -0.5081   -1.9983 C   0  0  0  0  0  0  0  0  0  0  0  0
    1.9175    0.0357   -1.1036 C   0  0  0  0  0  0  0  0  0  0  0  0
    0.5323    0.3253   -1.1940 C   0  0  0  0  0  0  0  0  0  0  0  0
    0.1070    0.8461    0.0182 C   0  0  0  0  0  0  0  0  0  0  0  0
   -1.2073    1.3299    0.3995 C   0  0  0  0  0  0  0  0  0  0  0  0
   -1.3412    2.4433    0.9059 O   0  0  0  0  0  0  0  0  0  0  0  0
   -2.3132    0.4977    0.1956 N   0  0  0  0  0  0  0  0  0  0  0  0
   -2.2481   -0.8702   -0.3406 C   0  0  0  0  0  0  0  0  0  0  0  0
   -3.2678   -1.7954    0.3164 C   0  0  0  0  0  0  0  0  0  0  0  0
   -4.5655   -1.1666    0.3210 N   0  0  0  0  0  0  0  0  0  0  0  0
   -5.7847   -1.7644    0.3483 C   0  0  0  0  0  0  0  0  0  0  0  0
   -6.7465   -0.8683    0.3393 N   0  0  0  0  0  0  0  0  0  0  0  0
   -6.1117    0.3499    0.3101 C   0  0  0  0  0  0  0  0  0  0  0  0
   -4.7431    0.1889    0.2946 C   0  0  0  0  0  0  0  0  0  0  0  0
   -3.6209    1.1573    0.2518 C   0  0  0  0  0  0  0  0  0  0  0  0
    1.2308    0.9314    0.8213 N   0  0  0  0  0  0  0  0  0  0  0  0
    1.2345    1.4764    2.1647 C   0  0  0  0  0  0  0  0  0  0  0  0
    2.3368    0.4220    0.1686 C   0  0  0  0  0  0  0  0  0  0  0  0
    3.6752    0.2793    0.5740 C   0  0  0  0  0  0  0  0  0  0  0  0
    6.9895   -0.2503   -1.5827 H   0  0  0  0  0  0  0  0  0  0  0  0
    7.8209   -0.8825   -0.1567 H   0  0  0  0  0  0  0  0  0  0  0  0
    6.6482   -1.9190   -0.9780 H   0  0  0  0  0  0  0  0  0  0  0  0
    4.8888   -1.0825   -2.3140 H   0  0  0  0  0  0  0  0  0  0  0  0
    2.5555   -0.8089   -2.9972 H   0  0  0  0  0  0  0  0  0  0  0  0
   -0.0908    0.1799   -2.0667 H   0  0  0  0  0  0  0  0  0  0  0  0
   -2.4290   -0.7994   -1.4202 H   0  0  0  0  0  0  0  0  0  0  0  0
   -1.2576   -1.3052   -0.1887 H   0  0  0  0  0  0  0  0  0  0  0  0
   -3.0071   -1.9864    1.3634 H   0  0  0  0  0  0  0  0  0  0  0  0
   -3.3366   -2.7477   -0.2184 H   0  0  0  0  0  0  0  0  0  0  0  0
   -5.9237   -2.8373    0.3748 H   0  0  0  0  0  0  0  0  0  0  0  0
   -6.6754    1.2742    0.2990 H   0  0  0  0  0  0  0  0  0  0  0  0
   -3.7067    1.7860   -0.6425 H   0  0  0  0  0  0  0  0  0  0  0  0
   -3.6634    1.8129    1.1289 H   0  0  0  0  0  0  0  0  0  0  0  0
    0.3205    1.1694    2.6795 H   0  0  0  0  0  0  0  0  0  0  0  0
    2.0902    1.0903    2.7220 H   0  0  0  0  0  0  0  0  0  0  0  0
    1.2920    2.5649    2.0886 H   0  0  0  0  0  0  0  0  0  0  0  0
    4.0043    0.5889    1.5610 H   0  0  0  0  0  0  0  0  0  0  0  0
  1  2  1  0
  2  3  1  0
  3  4  2  0
  4  5  1  0
  5  6  2  0
  6  7  1  0
  7  8  2  0
  8  9  1  0
  9 10  2  0
  9 11  1  0
 11 12  1  0
 12 13  1  0
 13 14  1  0
 14 15  1  0
 15 16  2  0
 16 17  1  0
 17 18  2  0
 18 19  1  0
  8 20  1  0
 20 21  1  0
 20 22  1  0
 22 23  2  0
 23  3  1  0
 22  6  1  0
 19 11  1  0
 18 14  1  0
  1 24  1  0
  1 25  1  0
  1 26  1  0
  4 27  1  0
  5 28  1  0
  7 29  1  0
 12 30  1  0
 12 31  1  0
 13 32  1  0
 13 33  1  0
 15 34  1  0
 17 35  1  0
 19 36  1  0
 19 37  1  0
 21 38  1  0
 21 39  1  0
 21 40  1  0
 23 41  1  0
M  END
$$$$
OCNT-0294781
     RDKit          3D

 37 40  0  0  0  0  0  0  0  0999 V2000
    3.7901   -2.7126   -0.3090 C   0  0  0  0  0  0  0  0  0  0  0  0
    2.8565   -1.6699    0.0547 N   0  0  0  0  0  0  0  0  0  0  0  0
    1.6641   -1.8807    0.6914 C   0  0  0  0  0  0  0  0  0  0  0  0
    1.0464   -0.6568    0.8713 C   0  0  0  0  0  0  0  0  0  0  0  0
   -0.2391   -0.4715    1.5267 C   0  0  0  0  0  0  0  0  0  0  0  0
   -0.3556   -0.6884    2.7313 O   0  0  0  0  0  0  0  0  0  0  0  0
   -1.3178   -0.0588    0.7384 N   0  0  0  0  0  0  0  0  0  0  0  0
   -1.2165    0.2907   -0.6976 C   0  0  0  0  0  0  0  0  0  0  0  0
   -2.4277   -0.1797   -1.5191 C   0  0  0  0  0  0  0  0  0  0  0  0
   -3.6707    0.1712   -0.7983 C   0  0  0  0  0  0  0  0  0  0  0  0
   -4.8682    0.2830   -1.3756 N   0  0  0  0  0  0  0  0  0  0  0  0
   -5.6793    0.5892   -0.3459 N   0  0  0  0  0  0  0  0  0  0  0  0
   -5.0280    0.6844    0.8527 C   0  0  0  0  0  0  0  0  0  0  0  0
   -3.7050    0.4123    0.5898 C   0  0  0  0  0  0  0  0  0  0  0  0
   -2.5152    0.3693    1.4765 C   0  0  0  0  0  0  0  0  0  0  0  0
    1.9337    0.3401    0.3524 C   0  0  0  0  0  0  0  0  0  0  0  0
    3.0484   -0.3230   -0.1711 C   0  0  0  0  0  0  0  0  0  0  0  0
    4.1099    0.3677   -0.7776 C   0  0  0  0  0  0  0  0  0  0  0  0
    4.0351    1.7619   -0.8435 C   0  0  0  0  0  0  0  0  0  0  0  0
    2.9433    2.4461   -0.3186 C   0  0  0  0  0  0  0  0  0  0  0  0
    1.8903    1.7494    0.2828 C   0  0  0  0  0  0  0  0  0  0  0  0
    4.7345   -2.5275    0.2090 H   0  0  0  0  0  0  0  0  0  0  0  0
    3.3890   -3.6846   -0.0107 H   0  0  0  0  0  0  0  0  0  0  0  0
    3.9304   -2.6879   -1.3927 H   0  0  0  0  0  0  0  0  0  0  0  0
    1.3392   -2.8745    0.9725 H   0  0  0  0  0  0  0  0  0  0  0  0
   -0.3191   -0.1374   -1.1496 H   0  0  0  0  0  0  0  0  0  0  0  0
   -1.1239    1.3830   -0.7473 H   0  0  0  0  0  0  0  0  0  0  0  0
   -2.3857   -1.2686   -1.6423 H   0  0  0  0  0  0  0  0  0  0  0  0
   -2.4014    0.2733   -2.5158 H   0  0  0  0  0  0  0  0  0  0  0  0
   -6.6674    0.7210   -0.5354 H   0  0  0  0  0  0  0  0  0  0  0  0
   -5.5565    0.9291    1.7628 H   0  0  0  0  0  0  0  0  0  0  0  0
   -2.3104    1.3682    1.8792 H   0  0  0  0  0  0  0  0  0  0  0  0
   -2.6976   -0.3081    2.3180 H   0  0  0  0  0  0  0  0  0  0  0  0
    4.9713   -0.1557   -1.1799 H   0  0  0  0  0  0  0  0  0  0  0  0
    4.8471    2.3194   -1.3051 H   0  0  0  0  0  0  0  0  0  0  0  0
    2.9089    3.5315   -0.3710 H   0  0  0  0  0  0  0  0  0  0  0  0
    1.0469    2.2948    0.6969 H   0  0  0  0  0  0  0  0  0  0  0  0
  1  2  1  0
  2  3  1  0
  3  4  2  0
  4  5  1  0
  5  6  2  0
  5  7  1  0
  7  8  1  0
  8  9  1  0
  9 10  1  0
 10 11  2  0
 11 12  1  0
 12 13  1  0
 13 14  2  0
 14 15  1  0
  4 16  1  0
 16 17  1  0
 17 18  2  0
 18 19  1  0
 19 20  2  0
 20 21  1  0
 17  2  1  0
 15  7  1  0
 21 16  2  0
 14 10  1  0
  1 22  1  0
  1 23  1  0
  1 24  1  0
  3 25  1  0
  8 26  1  0
  8 27  1  0
  9 28  1  0
  9 29  1  0
 12 30  1  0
 13 31  1  0
 15 32  1  0
 15 33  1  0
 18 34  1  0
 19 35  1  0
 20 36  1  0
 21 37  1  0
M  END
$$$$
OCNT-0381046
     RDKit          3D

 52 53  0  0  0  0  0  0  0  0999 V2000
    6.0239   -1.2040    0.1122 C   0  0  0  0  0  0  0  0  0  0  0  0
    5.3766   -0.1202    0.9619 C   0  0  0  0  0  0  0  0  0  0  0  0
    4.3485    0.7152    0.1921 C   0  0  0  0  0  0  0  0  0  0  0  0
    3.2321   -0.0412   -0.3686 N   0  0  0  0  0  0  0  0  0  0  0  0
    2.3388   -0.6880    0.6054 C   0  0  0  0  0  0  0  0  0  0  0  0
    1.5722    0.1995    1.6207 C   0  0  0  0  0  0  0  0  0  0  0  0
    2.4733    0.7246    2.6075 O   0  0  0  0  0  0  0  0  0  0  0  0
    0.7894    1.3638    0.9971 C   0  0  0  0  0  0  0  0  0  0  0  0
   -0.3954    0.9111    0.3361 O   0  0  0  0  0  0  0  0  0  0  0  0
   -0.3320    0.7803   -1.0215 C   0  0  0  0  0  0  0  0  0  0  0  0
    0.1647    1.7931   -1.8462 C   0  0  0  0  0  0  0  0  0  0  0  0
    0.1640    1.6356   -3.2348 C   0  0  0  0  0  0  0  0  0  0  0  0
   -0.3558    0.4769   -3.8102 C   0  0  0  0  0  0  0  0  0  0  0  0
   -0.8933   -0.5212   -2.9988 C   0  0  0  0  0  0  0  0  0  0  0  0
   -0.8946   -0.3629   -1.6064 C   0  0  0  0  0  0  0  0  0  0  0  0
   -1.4863   -1.4308   -0.7636 C   0  0  0  0  0  0  0  0  0  0  0  0
   -0.8297   -1.9349    0.1444 O   0  0  0  0  0  0  0  0  0  0  0  0
   -2.8891   -1.8939   -1.1107 C   0  0  0  0  0  0  0  0  0  0  0  0
   -3.7486   -2.0868    0.1372 C   0  0  0  0  0  0  0  0  0  0  0  0
   -4.2071   -0.7741    0.7267 C   0  0  0  0  0  0  0  0  0  0  0  0
   -3.4298   -0.1201    1.6912 C   0  0  0  0  0  0  0  0  0  0  0  0
   -3.8378    1.1059    2.2170 C   0  0  0  0  0  0  0  0  0  0  0  0
   -5.0266    1.6897    1.7849 C   0  0  0  0  0  0  0  0  0  0  0  0
   -5.8070    1.0489    0.8248 C   0  0  0  0  0  0  0  0  0  0  0  0
   -5.3987   -0.1767    0.2957 C   0  0  0  0  0  0  0  0  0  0  0  0
    6.5076   -0.7707   -0.7697 H   0  0  0  0  0  0  0  0  0  0  0  0
    5.2904   -1.9430   -0.2248 H   0  0  0  0  0  0  0  0  0  0  0  0
    6.7886   -1.7309    0.6925 H   0  0  0  0  0  0  0  0  0  0  0  0
    4.9252   -0.5753    1.8497 H   0  0  0  0  0  0  0  0  0  0  0  0
    6.1630    0.5518    1.3273 H   0  0  0  0  0  0  0  0  0  0  0  0
    3.9906    1.5389    0.8165 H   0  0  0  0  0  0  0  0  0  0  0  0
    4.8680    1.1938   -0.6476 H   0  0  0  0  0  0  0  0  0  0  0  0
    2.6817    0.5676   -0.9735 H   0  0  0  0  0  0  0  0  0  0  0  0
    2.9128   -1.4413    1.1576 H   0  0  0  0  0  0  0  0  0  0  0  0
    1.6111   -1.2559    0.0200 H   0  0  0  0  0  0  0  0  0  0  0  0
    0.8645   -0.4442    2.1561 H   0  0  0  0  0  0  0  0  0  0  0  0
    2.9297   -0.0374    3.0046 H   0  0  0  0  0  0  0  0  0  0  0  0
    0.4513    2.0253    1.8045 H   0  0  0  0  0  0  0  0  0  0  0  0
    1.4404    1.9914    0.3805 H   0  0  0  0  0  0  0  0  0  0  0  0
    0.5240    2.7284   -1.4285 H   0  0  0  0  0  0  0  0  0  0  0  0
    0.5579    2.4262   -3.8692 H   0  0  0  0  0  0  0  0  0  0  0  0
   -0.3508    0.3577   -4.8910 H   0  0  0  0  0  0  0  0  0  0  0  0
   -1.2935   -1.4215   -3.4574 H   0  0  0  0  0  0  0  0  0  0  0  0
   -3.3682   -1.1865   -1.7975 H   0  0  0  0  0  0  0  0  0  0  0  0
   -2.7857   -2.8500   -1.6376 H   0  0  0  0  0  0  0  0  0  0  0  0
   -3.2172   -2.6674    0.9012 H   0  0  0  0  0  0  0  0  0  0  0  0
   -4.6332   -2.6811   -0.1256 H   0  0  0  0  0  0  0  0  0  0  0  0
   -2.4929   -0.5583    2.0310 H   0  0  0  0  0  0  0  0  0  0  0  0
   -3.2232    1.6055    2.9606 H   0  0  0  0  0  0  0  0  0  0  0  0
   -5.3429    2.6447    2.1949 H   0  0  0  0  0  0  0  0  0  0  0  0
   -6.7334    1.5047    0.4867 H   0  0  0  0  0  0  0  0  0  0  0  0
   -6.0174   -0.6622   -0.4551 H   0  0  0  0  0  0  0  0  0  0  0  0
  1  2  1  0
  2  3  1  0
  3  4  1  0
  4  5  1  0
  5  6  1  0
  6  7  1  0
  6  8  1  0
  8  9  1  0
  9 10  1  0
 10 11  2  0
 11 12  1  0
 12 13  2  0
 13 14  1  0
 14 15  2  0
 15 16  1  0
 16 17  2  0
 16 18  1  0
 18 19  1  0
 19 20  1  0
 20 21  2  0
 21 22  1  0
 22 23  2  0
 23 24  1  0
 24 25  2  0
 15 10  1  0
 25 20  1  0
  1 26  1  0
  1 27  1  0
  1 28  1  0
  2 29  1  0
  2 30  1  0
  3 31  1  0
  3 32  1  0
  4 33  1  0
  5 34  1  0
  5 35  1  0
  6 36  1  0
  7 37  1  0
  8 38  1  0
  8 39  1  0
 11 40  1  0
 12 41  1  0
 13 42  1  0
 14 43  1  0
 18 44  1  0
 18 45  1  0
 19 46  1  0
 19 47  1  0
 21 48  1  0
 22 49  1  0
 23 50  1  0
 24 51  1  0
 25 52  1  0
M  END
$$$$
OCNT-0436875
     RDKit          3D

 32 34  0  0  0  0  0  0  0  0999 V2000
   -2.3835   -2.7586    0.3129 O   0  0  0  0  0  0  0  0  0  0  0  0
   -1.8094   -1.6816    0.1685 C   0  0  0  0  0  0  0  0  0  0  0  0
   -0.3320   -1.6021    0.2265 C   0  0  0  0  0  0  0  0  0  0  0  0
    0.3563   -2.7780    0.4577 O   0  0  0  0  0  0  0  0  0  0  0  0
    0.2528   -0.4007    0.0688 C   0  0  0  0  0  0  0  0  0  0  0  0
    1.7159   -0.2063    0.1153 C   0  0  0  0  0  0  0  0  0  0  0  0
    2.2612    0.7924    0.9446 C   0  0  0  0  0  0  0  0  0  0  0  0
    3.6419    1.0170    0.9924 C   0  0  0  0  0  0  0  0  0  0  0  0
    4.4790    0.2441    0.1995 C   0  0  0  0  0  0  0  0  0  0  0  0
    5.8356    0.4144    0.1985 O   0  0  0  0  0  0  0  0  0  0  0  0
    3.9488   -0.7390   -0.6312 C   0  0  0  0  0  0  0  0  0  0  0  0
    4.7805   -1.4887   -1.4139 O   0  0  0  0  0  0  0  0  0  0  0  0
    2.5803   -0.9704   -0.6818 C   0  0  0  0  0  0  0  0  0  0  0  0
   -0.4445    0.7840   -0.1322 O   0  0  0  0  0  0  0  0  0  0  0  0
   -1.8142    0.7414   -0.2053 C   0  0  0  0  0  0  0  0  0  0  0  0
   -2.4718    1.9524   -0.4301 C   0  0  0  0  0  0  0  0  0  0  0  0
   -3.8622    1.9661   -0.5093 C   0  0  0  0  0  0  0  0  0  0  0  0
   -4.5478    3.1242   -0.7283 O   0  0  0  0  0  0  0  0  0  0  0  0
   -4.6007    0.7944   -0.3667 C   0  0  0  0  0  0  0  0  0  0  0  0
   -3.9396   -0.4101   -0.1437 C   0  0  0  0  0  0  0  0  0  0  0  0
   -4.7161   -1.5289   -0.0115 O   0  0  0  0  0  0  0  0  0  0  0  0
   -2.5444   -0.4365   -0.0640 C   0  0  0  0  0  0  0  0  0  0  0  0
   -0.3303   -3.4729    0.5358 H   0  0  0  0  0  0  0  0  0  0  0  0
    1.6074    1.4003    1.5672 H   0  0  0  0  0  0  0  0  0  0  0  0
    4.0334    1.7899    1.6455 H   0  0  0  0  0  0  0  0  0  0  0  0
    6.0533    1.1176    0.8341 H   0  0  0  0  0  0  0  0  0  0  0  0
    5.6771   -1.1591   -1.2051 H   0  0  0  0  0  0  0  0  0  0  0  0
    2.1982   -1.7442   -1.3419 H   0  0  0  0  0  0  0  0  0  0  0  0
   -1.8928    2.8639   -0.5407 H   0  0  0  0  0  0  0  0  0  0  0  0
   -3.9184    3.8575   -0.8281 H   0  0  0  0  0  0  0  0  0  0  0  0
   -5.6851    0.8196   -0.4300 H   0  0  0  0  0  0  0  0  0  0  0  0
   -4.1287   -2.3020    0.1403 H   0  0  0  0  0  0  0  0  0  0  0  0
  1  2  2  0
  2  3  1  0
  3  4  1  0
  3  5  2  0
  5  6  1  0
  6  7  1  0
  7  8  2  0
  8  9  1  0
  9 10  1  0
  9 11  2  0
 11 12  1  0
 11 13  1  0
  5 14  1  0
 14 15  1  0
 15 16  2  0
 16 17  1  0
 17 18  1  0
 17 19  2  0
 19 20  1  0
 20 21  1  0
 20 22  2  0
 22  2  1  0
 13  6  2  0
 22 15  1  0
  4 23  1  0
  7 24  1  0
  8 25  1  0
 10 26  1  0
 12 27  1  0
 13 28  1  0
 16 29  1  0
 18 30  1  0
 19 31  1  0
 21 32  1  0
M  END
$$$$
OCNT-0476578
     RDKit          3D

 38 40  0  0  0  0  0  0  0  0999 V2000
    6.2509   -0.3295   -0.5138 C   0  0  0  0  0  0  0  0  0  0  0  0
    5.1167    0.0099    0.3460 N   0  0  0  0  0  0  0  0  0  0  0  0
    5.3672    1.0645    1.3288 C   0  0  0  0  0  0  0  0  0  0  0  0
    3.8141   -0.1911   -0.1191 C   0  0  0  0  0  0  0  0  0  0  0  0
    3.5404   -0.8746   -1.3119 C   0  0  0  0  0  0  0  0  0  0  0  0
    2.2309   -1.0901   -1.7616 C   0  0  0  0  0  0  0  0  0  0  0  0
    1.1314   -0.6417   -1.0320 C   0  0  0  0  0  0  0  0  0  0  0  0
   -0.1342   -0.9131   -1.5692 N   0  0  0  0  0  0  0  0  0  0  0  0
   -1.2148   -0.5616   -0.9564 C   0  0  0  0  0  0  0  0  0  0  0  0
   -2.4861   -0.9193   -1.6311 C   0  0  0  0  0  0  0  0  0  0  0  0
   -3.6906   -0.6479   -1.1223 C   0  0  0  0  0  0  0  0  0  0  0  0
   -3.8471    0.0514    0.1846 C   0  0  0  0  0  0  0  0  0  0  0  0
   -5.0154    0.3127    0.7031 N   0  0  0  0  0  0  0  0  0  0  0  0
   -5.1826    1.1161    1.9577 C   0  0  0  0  0  0  0  0  0  0  0  0
   -6.2961   -0.1688    0.0904 C   0  0  0  0  0  0  0  0  0  0  0  0
   -2.5659    0.4316    0.8529 C   0  0  0  0  0  0  0  0  0  0  0  0
   -1.3572    0.1547    0.3390 C   0  0  0  0  0  0  0  0  0  0  0  0
    0.0532    0.6422    1.2021 S   0  0  0  0  0  0  0  0  0  0  0  0
    1.3646    0.0293    0.1675 C   0  0  0  0  0  0  0  0  0  0  0  0
    2.6887    0.2413    0.6063 C   0  0  0  0  0  0  0  0  0  0  0  0
    6.2308   -1.3871   -0.7985 H   0  0  0  0  0  0  0  0  0  0  0  0
    7.2027   -0.1782    0.0079 H   0  0  0  0  0  0  0  0  0  0  0  0
    6.2616    0.2950   -1.4138 H   0  0  0  0  0  0  0  0  0  0  0  0
    4.8788    0.8392    2.2827 H   0  0  0  0  0  0  0  0  0  0  0  0
    6.4359    1.1588    1.5522 H   0  0  0  0  0  0  0  0  0  0  0  0
    5.0222    2.0365    0.9591 H   0  0  0  0  0  0  0  0  0  0  0  0
    4.3407   -1.2615   -1.9359 H   0  0  0  0  0  0  0  0  0  0  0  0
    2.0724   -1.6220   -2.6970 H   0  0  0  0  0  0  0  0  0  0  0  0
   -2.3800   -1.4272   -2.5871 H   0  0  0  0  0  0  0  0  0  0  0  0
   -4.5605   -0.9418   -1.7001 H   0  0  0  0  0  0  0  0  0  0  0  0
   -6.2300    1.4077    2.0726 H   0  0  0  0  0  0  0  0  0  0  0  0
   -4.5817    2.0262    1.8797 H   0  0  0  0  0  0  0  0  0  0  0  0
   -4.8718    0.4969    2.8028 H   0  0  0  0  0  0  0  0  0  0  0  0
   -6.5003    0.4403   -0.7936 H   0  0  0  0  0  0  0  0  0  0  0  0
   -6.1948   -1.2276   -0.1626 H   0  0  0  0  0  0  0  0  0  0  0  0
   -7.1110   -0.0678    0.8122 H   0  0  0  0  0  0  0  0  0  0  0  0
   -2.6118    0.9450    1.8088 H   0  0  0  0  0  0  0  0  0  0  0  0
    2.8285    0.7518    1.5552 H   0  0  0  0  0  0  0  0  0  0  0  0
  1  2  1  0
  2  3  1  0
  2  4  1  0
  4  5  1  0
  5  6  2  0
  6  7  1  0
  7  8  1  0
  8  9  2  0
  9 10  1  0
 10 11  2  0
 11 12  1  0
 12 13  2  3
 13 14  1  0
 13 15  1  0
 12 16  1  0
 16 17  2  0
 17 18  1  0
 18 19  1  0
 19 20  1  0
 20  4  2  0
 19  7  2  0
 17  9  1  0
  1 21  1  0
  1 22  1  0
  1 23  1  0
  3 24  1  0
  3 25  1  0
  3 26  1  0
  5 27  1  0
  6 28  1  0
 10 29  1  0
 11 30  1  0
 14 31  1  0
 14 32  1  0
 14 33  1  0
 15 34  1  0
 15 35  1  0
 15 36  1  0
 16 37  1  0
 20 38  1  0
M  CHG  1  13   1
M  END
$$$$
OCNT-0476778
     RDKit          3D

 21 23  0  0  0  0  0  0  0  0999 V2000
    3.5985    0.1643    0.5090 C   0  0  0  0  0  0  0  0  0  0  0  0
    3.5392   -0.4791   -0.7302 C   0  0  0  0  0  0  0  0  0  0  0  0
    2.3145   -0.7533   -1.3509 C   0  0  0  0  0  0  0  0  0  0  0  0
    1.1647   -0.3513   -0.6682 C   0  0  0  0  0  0  0  0  0  0  0  0
   -0.1704   -0.4508   -0.9623 N   0  0  0  0  0  0  0  0  0  0  0  0
   -0.8867    0.1128    0.0639 C   0  0  0  0  0  0  0  0  0  0  0  0
   -2.4535    0.2034    0.1169 C   0  0  0  0  0  0  0  0  0  0  0  0
   -3.2797   -0.2817   -0.8777 C   0  0  0  0  0  0  0  0  0  0  0  0
   -4.9229    0.0004   -0.4633 S   0  0  0  0  0  0  0  0  0  0  0  0
   -4.4049    0.7392    0.9944 C   0  0  0  0  0  0  0  0  0  0  0  0
   -3.1071    0.7878    1.1878 N   0  0  0  0  0  0  0  0  0  0  0  0
   -0.0787    0.5682    1.0003 N   0  0  0  0  0  0  0  0  0  0  0  0
    1.1919    0.2900    0.5644 C   0  0  0  0  0  0  0  0  0  0  0  0
    2.4276    0.5562    1.1706 C   0  0  0  0  0  0  0  0  0  0  0  0
    4.5635    0.3649    0.9684 H   0  0  0  0  0  0  0  0  0  0  0  0
    4.4643   -0.7728   -1.2225 H   0  0  0  0  0  0  0  0  0  0  0  0
    2.2710   -1.2526   -2.3124 H   0  0  0  0  0  0  0  0  0  0  0  0
   -0.5599   -0.8677   -1.7924 H   0  0  0  0  0  0  0  0  0  0  0  0
   -3.0257   -0.7742   -1.8033 H   0  0  0  0  0  0  0  0  0  0  0  0
   -5.1098    1.1408    1.7106 H   0  0  0  0  0  0  0  0  0  0  0  0
    2.4640    1.0558    2.1322 H   0  0  0  0  0  0  0  0  0  0  0  0
  1  2  2  0
  2  3  1  0
  3  4  2  0
  4  5  1  0
  5  6  1  0
  6  7  1  0
  7  8  2  0
  8  9  1  0
  9 10  1  0
 10 11  2  0
  6 12  2  0
 12 13  1  0
 13 14  2  0
 14  1  1  0
 13  4  1  0
 11  7  1  0
  1 15  1  0
  2 16  1  0
  3 17  1  0
  5 18  1  0
  8 19  1  0
 10 20  1  0
 14 21  1  0
M  END
$$$$
OCNT-0478585
     RDKit          3D

 29 31  0  0  0  0  0  0  0  0999 V2000
    0.5048    2.4125   -0.8620 N   0  0  0  0  0  0  0  0  0  0  0  0
    0.4854    1.0293   -0.5529 C   0  0  0  0  0  0  0  0  0  0  0  0
   -0.7528    0.3833   -0.4639 C   0  0  0  0  0  0  0  0  0  0  0  0
   -2.0652    1.0136   -0.8499 C   0  0  0  0  0  0  0  0  0  0  0  0
   -3.1819    0.6339    0.1285 C   0  0  0  0  0  0  0  0  0  0  0  0
   -3.1710   -0.8322    0.5846 C   0  0  0  0  0  0  0  0  0  0  0  0
   -2.0879   -1.6837   -0.0731 C   0  0  0  0  0  0  0  0  0  0  0  0
   -0.7697   -0.9553   -0.0764 C   0  0  0  0  0  0  0  0  0  0  0  0
    0.3341   -1.6480    0.2722 N   0  0  0  0  0  0  0  0  0  0  0  0
    1.5119   -1.0087    0.2621 C   0  0  0  0  0  0  0  0  0  0  0  0
    1.6553    0.3432   -0.1268 C   0  0  0  0  0  0  0  0  0  0  0  0
    2.9470    0.9260   -0.0707 C   0  0  0  0  0  0  0  0  0  0  0  0
    4.0589    0.1916    0.3423 C   0  0  0  0  0  0  0  0  0  0  0  0
    3.9030   -1.1364    0.7083 C   0  0  0  0  0  0  0  0  0  0  0  0
    2.6353   -1.7184    0.6649 C   0  0  0  0  0  0  0  0  0  0  0  0
    1.3887    2.7136   -1.2584 H   0  0  0  0  0  0  0  0  0  0  0  0
    0.2989    2.9584   -0.0272 H   0  0  0  0  0  0  0  0  0  0  0  0
   -2.3250    0.6753   -1.8610 H   0  0  0  0  0  0  0  0  0  0  0  0
   -2.0004    2.1061   -0.8885 H   0  0  0  0  0  0  0  0  0  0  0  0
   -4.1526    0.8767   -0.3203 H   0  0  0  0  0  0  0  0  0  0  0  0
   -3.1000    1.2679    1.0216 H   0  0  0  0  0  0  0  0  0  0  0  0
   -3.0233   -0.8503    1.6729 H   0  0  0  0  0  0  0  0  0  0  0  0
   -4.1535   -1.2857    0.4082 H   0  0  0  0  0  0  0  0  0  0  0  0
   -2.3635   -1.9130   -1.1096 H   0  0  0  0  0  0  0  0  0  0  0  0
   -1.9960   -2.6384    0.4571 H   0  0  0  0  0  0  0  0  0  0  0  0
    3.1029    1.9640   -0.3479 H   0  0  0  0  0  0  0  0  0  0  0  0
    5.0406    0.6569    0.3757 H   0  0  0  0  0  0  0  0  0  0  0  0
    4.7589   -1.7231    1.0309 H   0  0  0  0  0  0  0  0  0  0  0  0
    2.5171   -2.7590    0.9593 H   0  0  0  0  0  0  0  0  0  0  0  0
  1  2  1  0
  2  3  2  0
  3  4  1  0
  4  5  1  0
  5  6  1  0
  6  7  1  0
  7  8  1  0
  8  9  2  0
  9 10  1  0
 10 11  1  0
 11 12  2  0
 12 13  1  0
 13 14  2  0
 14 15  1  0
 11  2  1  0
  8  3  1  0
 15 10  2  0
  1 16  1  0
  1 17  1  0
  4 18  1  0
  4 19  1  0
  5 20  1  0
  5 21  1  0
  6 22  1  0
  6 23  1  0
  7 24  1  0
  7 25  1  0
 12 26  1  0
 13 27  1  0
 14 28  1  0
 15 29  1  0
M  END
$$$$
OCNT-0483505
     RDKit          3D

 24 26  0  0  0  0  0  0  0  0999 V2000
    0.5808    3.1211    0.9755 C   0  0  0  0  0  0  0  0  0  0  0  0
   -0.3375    2.0431    1.0882 O   0  0  0  0  0  0  0  0  0  0  0  0
   -0.0232    0.8876    0.3954 C   0  0  0  0  0  0  0  0  0  0  0  0
   -0.9302   -0.1823    0.5046 C   0  0  0  0  0  0  0  0  0  0  0  0
   -2.0803    0.0217    1.3127 O   0  0  0  0  0  0  0  0  0  0  0  0
   -3.0404   -0.9604    1.4927 C   0  0  0  0  0  0  0  0  0  0  0  0
   -4.0364   -0.7962    2.1872 O   0  0  0  0  0  0  0  0  0  0  0  0
   -2.8121   -2.2396    0.8007 C   0  0  0  0  0  0  0  0  0  0  0  0
   -1.7399   -2.4592    0.0347 C   0  0  0  0  0  0  0  0  0  0  0  0
   -0.7461   -1.4096   -0.1375 C   0  0  0  0  0  0  0  0  0  0  0  0
    0.3868   -1.6148   -0.9353 C   0  0  0  0  0  0  0  0  0  0  0  0
    1.3221   -0.5708   -1.0733 C   0  0  0  0  0  0  0  0  0  0  0  0
    1.0961    0.6384   -0.4128 C   0  0  0  0  0  0  0  0  0  0  0  0
    2.1236    1.4980   -0.6876 O   0  0  0  0  0  0  0  0  0  0  0  0
    2.9915    0.8551   -1.5072 C   0  0  0  0  0  0  0  0  0  0  0  0
    2.5482   -0.4169   -1.7754 C   0  0  0  0  0  0  0  0  0  0  0  0
    1.5597    2.8521    1.3847 H   0  0  0  0  0  0  0  0  0  0  0  0
    0.6553    3.4715   -0.0588 H   0  0  0  0  0  0  0  0  0  0  0  0
    0.1927    3.9507    1.5746 H   0  0  0  0  0  0  0  0  0  0  0  0
   -3.5718   -2.9968    0.9518 H   0  0  0  0  0  0  0  0  0  0  0  0
   -1.5969   -3.4119   -0.4637 H   0  0  0  0  0  0  0  0  0  0  0  0
    0.5519   -2.5601   -1.4444 H   0  0  0  0  0  0  0  0  0  0  0  0
    3.8603    1.4248   -1.8071 H   0  0  0  0  0  0  0  0  0  0  0  0
    3.0458   -1.1454   -2.3997 H   0  0  0  0  0  0  0  0  0  0  0  0
  1  2  1  0
  2  3  1  0
  3  4  1  0
  4  5  1  0
  5  6  1  0
  6  7  2  0
  6  8  1  0
  8  9  2  0
  9 10  1  0
 10 11  1  0
 11 12  2  0
 12 13  1  0
 13 14  1  0
 14 15  1  0
 15 16  2  0
 13  3  2  0
 10  4  2  0
 16 12  1  0
  1 17  1  0
  1 18  1  0
  1 19  1  0
  8 20  1  0
  9 21  1  0
 11 22  1  0
 15 23  1  0
 16 24  1  0
M  END
$$$$
OCNT-0493792
     RDKit          3D

 49 53  0  0  0  0  0  0  0  0999 V2000
   -4.5805    1.8565   -1.6616 C   0  0  0  0  0  0  0  0  0  0  0  0
   -4.0032    1.9953   -0.2605 C   0  0  0  0  0  0  0  0  0  0  0  0
   -3.0721    0.8578    0.0844 C   0  0  0  0  0  0  0  0  0  0  0  0
   -1.7075    0.9964   -0.1262 C   0  0  0  0  0  0  0  0  0  0  0  0
   -0.9026    2.1459   -0.6617 C   0  0  0  0  0  0  0  0  0  0  0  0
    0.4668    1.6251   -0.6254 N   0  0  0  0  0  0  0  0  0  0  0  0
    0.5010    0.3373   -0.1332 C   0  0  0  0  0  0  0  0  0  0  0  0
    1.6502   -0.3342   -0.0084 C   0  0  0  0  0  0  0  0  0  0  0  0
    2.8917    0.3132   -0.4061 C   0  0  0  0  0  0  0  0  0  0  0  0
    2.8611    1.5733   -0.8945 C   0  0  0  0  0  0  0  0  0  0  0  0
    4.1146    2.2593   -1.3235 C   0  0  0  0  0  0  0  0  0  0  0  0
    5.0754    1.3374   -1.8821 O   0  0  0  0  0  0  0  0  0  0  0  0
    5.0632    0.0228   -1.5266 C   0  0  0  0  0  0  0  0  0  0  0  0
    5.6600   -0.8027   -2.2130 O   0  0  0  0  0  0  0  0  0  0  0  0
    4.2599   -0.3304   -0.2354 C   0  0  1  0  0  0  0  0  0  0  0  0
    4.8511    0.3050    0.9071 O   0  0  0  0  0  0  0  0  0  0  0  0
    4.2604   -1.8611   -0.0005 C   0  0  0  0  0  0  0  0  0  0  0  0
    5.6193   -2.4418    0.3930 C   0  0  0  0  0  0  0  0  0  0  0  0
    1.5761    2.3267   -1.0225 C   0  0  0  0  0  0  0  0  0  0  0  0
    1.5442    3.4776   -1.4426 O   0  0  0  0  0  0  0  0  0  0  0  0
   -0.8645   -0.0646    0.1817 C   0  0  0  0  0  0  0  0  0  0  0  0
   -1.2332   -1.2497    0.6771 N   0  0  0  0  0  0  0  0  0  0  0  0
   -2.5514   -1.4054    0.8780 C   0  0  0  0  0  0  0  0  0  0  0  0
   -2.9760   -2.6269    1.3827 C   0  0  0  0  0  0  0  0  0  0  0  0
   -4.3232   -2.9019    1.6248 C   0  0  0  0  0  0  0  0  0  0  0  0
   -5.2662   -1.9268    1.3524 C   0  0  0  0  0  0  0  0  0  0  0  0
   -6.5947   -2.1404    1.5661 O   0  0  0  0  0  0  0  0  0  0  0  0
   -4.8819   -0.6895    0.8473 C   0  0  0  0  0  0  0  0  0  0  0  0
   -3.5227   -0.3929    0.5989 C   0  0  0  0  0  0  0  0  0  0  0  0
   -5.2409    2.7010   -1.8829 H   0  0  0  0  0  0  0  0  0  0  0  0
   -3.7875    1.8401   -2.4169 H   0  0  0  0  0  0  0  0  0  0  0  0
   -5.1627    0.9355   -1.7683 H   0  0  0  0  0  0  0  0  0  0  0  0
   -3.4697    2.9507   -0.1862 H   0  0  0  0  0  0  0  0  0  0  0  0
   -4.8084    2.0688    0.4788 H   0  0  0  0  0  0  0  0  0  0  0  0
   -0.9627    3.0320   -0.0224 H   0  0  0  0  0  0  0  0  0  0  0  0
   -1.1636    2.3931   -1.6952 H   0  0  0  0  0  0  0  0  0  0  0  0
    1.6337   -1.3470    0.3775 H   0  0  0  0  0  0  0  0  0  0  0  0
    3.9129    2.9861   -2.1166 H   0  0  0  0  0  0  0  0  0  0  0  0
    4.5838    2.7949   -0.4915 H   0  0  0  0  0  0  0  0  0  0  0  0
    4.4033   -0.0438    1.6970 H   0  0  0  0  0  0  0  0  0  0  0  0
    3.8861   -2.3847   -0.8887 H   0  0  0  0  0  0  0  0  0  0  0  0
    3.5905   -2.1102    0.8310 H   0  0  0  0  0  0  0  0  0  0  0  0
    6.3777   -2.2872   -0.3779 H   0  0  0  0  0  0  0  0  0  0  0  0
    5.5270   -3.5214    0.5526 H   0  0  0  0  0  0  0  0  0  0  0  0
    5.9847   -2.0012    1.3258 H   0  0  0  0  0  0  0  0  0  0  0  0
   -2.2327   -3.3932    1.5932 H   0  0  0  0  0  0  0  0  0  0  0  0
   -4.6054   -3.8727    2.0190 H   0  0  0  0  0  0  0  0  0  0  0  0
   -6.7178   -3.0399    1.9126 H   0  0  0  0  0  0  0  0  0  0  0  0
   -5.6636    0.0378    0.6475 H   0  0  0  0  0  0  0  0  0  0  0  0
  1  2  1  0
  2  3  1  0
  3  4  2  0
  4  5  1  0
  5  6  1  0
  6  7  1  0
  7  8  2  0
  8  9  1  0
  9 10  2  0
 10 11  1  0
 11 12  1  0
 12 13  1  0
 13 14  2  0
 13 15  1  0
 15 16  1  1
 15 17  1  0
 17 18  1  0
 10 19  1  0
 19 20  2  0
  7 21  1  0
 21 22  2  0
 22 23  1  0
 23 24  2  0
 24 25  1  0
 25 26  2  0
 26 27  1  0
 26 28  1  0
 28 29  2  0
 29  3  1  0
 21  4  1  0
 29 23  1  0
 19  6  1  0
 15  9  1  0
  1 30  1  0
  1 31  1  0
  1 32  1  0
  2 33  1  0
  2 34  1  0
  5 35  1  0
  5 36  1  0
  8 37  1  0
 11 38  1  0
 11 39  1  0
 16 40  1  0
 17 41  1  0
 17 42  1  0
 18 43  1  0
 18 44  1  0
 18 45  1  0
 24 46  1  0
 25 47  1  0
 27 48  1  0
 28 49  1  0
M  END
$$$$
OCNT-0493842
     RDKit          3D

 20 21  0  0  0  0  0  0  0  0999 V2000
    4.5386    0.3496   -0.3693 N   0  0  0  0  0  0  0  0  0  0  0  0
    3.2064    0.2001   -0.2720 C   0  0  0  0  0  0  0  0  0  0  0  0
    2.5147    0.6400    0.7473 N   0  0  0  0  0  0  0  0  0  0  0  0
    1.1744    0.3451    0.5726 C   0  0  0  0  0  0  0  0  0  0  0  0
    0.1329    0.6557    1.4681 C   0  0  0  0  0  0  0  0  0  0  0  0
   -1.1888    0.2978    1.1630 C   0  0  0  0  0  0  0  0  0  0  0  0
   -1.4879   -0.3661   -0.0245 C   0  0  0  0  0  0  0  0  0  0  0  0
   -2.7287   -0.7670   -0.4360 O   0  0  0  0  0  0  0  0  0  0  0  0
   -3.8323   -0.4918    0.4103 C   0  0  0  0  0  0  0  0  0  0  0  0
   -4.9550   -0.9648   -0.1743 F   0  0  0  0  0  0  0  0  0  0  0  0
   -3.9834    0.8368    0.5958 F   0  0  0  0  0  0  0  0  0  0  0  0
   -3.6925   -1.1020    1.6063 F   0  0  0  0  0  0  0  0  0  0  0  0
   -0.4622   -0.6822   -0.9270 C   0  0  0  0  0  0  0  0  0  0  0  0
    0.8578   -0.3195   -0.6112 C   0  0  0  0  0  0  0  0  0  0  0  0
    2.3039   -0.5690   -1.5096 S   0  0  0  0  0  0  0  0  0  0  0  0
    4.9392    0.3506   -1.2992 H   0  0  0  0  0  0  0  0  0  0  0  0
    4.9336    1.0529    0.2456 H   0  0  0  0  0  0  0  0  0  0  0  0
    0.3648    1.1727    2.3946 H   0  0  0  0  0  0  0  0  0  0  0  0
   -1.9523    0.5614    1.8902 H   0  0  0  0  0  0  0  0  0  0  0  0
   -0.6832   -1.2003   -1.8562 H   0  0  0  0  0  0  0  0  0  0  0  0
  1  2  1  0
  2  3  2  0
  3  4  1  0
  4  5  2  0
  5  6  1  0
  6  7  2  0
  7  8  1  0
  8  9  1  0
  9 10  1  0
  9 11  1  0
  9 12  1  0
  7 13  1  0
 13 14  2  0
 14 15  1  0
 15  2  1  0
 14  4  1  0
  1 16  1  0
  1 17  1  0
  5 18  1  0
  6 19  1  0
 13 20  1  0
M  END
$$$$
OCNT-0493904
     RDKit          3D

 36 37  0  0  0  0  0  0  0  0999 V2000
    2.8818    0.2387   -2.7523 C   0  0  0  0  0  0  0  0  0  0  0  0
    2.8526    1.0674   -1.4796 C   0  0  0  0  0  0  0  0  0  0  0  0
    1.9714    0.4319   -0.5571 O   0  0  0  0  0  0  0  0  0  0  0  0
    1.7781    1.0397    0.6578 C   0  0  0  0  0  0  0  0  0  0  0  0
    2.3277    2.2661    1.0406 C   0  0  0  0  0  0  0  0  0  0  0  0
    2.0521    2.8002    2.3049 C   0  0  0  0  0  0  0  0  0  0  0  0
    1.2361    2.1089    3.1994 C   0  0  0  0  0  0  0  0  0  0  0  0
    0.6853    0.8829    2.8300 C   0  0  0  0  0  0  0  0  0  0  0  0
    0.9420    0.3608    1.5591 C   0  0  0  0  0  0  0  0  0  0  0  0
    0.4427   -0.8630    1.1884 O   0  0  0  0  0  0  0  0  0  0  0  0
   -0.9876   -0.8979    1.2195 C   0  0  0  0  0  0  0  0  0  0  0  0
   -1.4802   -2.0259    0.2997 C   0  0  0  0  0  0  0  0  0  0  0  0
   -1.1341   -1.7821   -1.1942 C   0  0  0  0  0  0  0  0  0  0  0  0
   -2.3103   -1.6062   -2.0719 N   0  0  0  0  0  0  0  0  0  0  0  0
   -3.2521   -0.7023   -1.4007 C   0  0  0  0  0  0  0  0  0  0  0  0
   -3.7367   -1.2593   -0.0514 C   0  0  0  0  0  0  0  0  0  0  0  0
   -2.8845   -2.2789    0.4896 O   0  0  0  0  0  0  0  0  0  0  0  0
    3.5472    0.6886   -3.4946 H   0  0  0  0  0  0  0  0  0  0  0  0
    1.8769    0.1558   -3.1807 H   0  0  0  0  0  0  0  0  0  0  0  0
    3.2257   -0.7802   -2.5439 H   0  0  0  0  0  0  0  0  0  0  0  0
    3.8655    1.1216   -1.0604 H   0  0  0  0  0  0  0  0  0  0  0  0
    2.4892    2.0728   -1.7246 H   0  0  0  0  0  0  0  0  0  0  0  0
    2.9769    2.8325    0.3807 H   0  0  0  0  0  0  0  0  0  0  0  0
    2.4852    3.7545    2.5956 H   0  0  0  0  0  0  0  0  0  0  0  0
    1.0398    2.5184    4.1877 H   0  0  0  0  0  0  0  0  0  0  0  0
    0.0765    0.3326    3.5423 H   0  0  0  0  0  0  0  0  0  0  0  0
   -1.3256   -1.1002    2.2436 H   0  0  0  0  0  0  0  0  0  0  0  0
   -1.4205    0.0624    0.9085 H   0  0  0  0  0  0  0  0  0  0  0  0
   -0.9681   -2.9477    0.6048 H   0  0  0  0  0  0  0  0  0  0  0  0
   -0.4665   -0.9205   -1.3104 H   0  0  0  0  0  0  0  0  0  0  0  0
   -0.5667   -2.6432   -1.5697 H   0  0  0  0  0  0  0  0  0  0  0  0
   -2.7646   -2.5203   -2.1403 H   0  0  0  0  0  0  0  0  0  0  0  0
   -2.7762    0.2746   -1.2511 H   0  0  0  0  0  0  0  0  0  0  0  0
   -4.1138   -0.5120   -2.0506 H   0  0  0  0  0  0  0  0  0  0  0  0
   -3.8411   -0.4534    0.6850 H   0  0  0  0  0  0  0  0  0  0  0  0
   -4.7239   -1.7172   -0.1729 H   0  0  0  0  0  0  0  0  0  0  0  0
  1  2  1  0
  2  3  1  0
  3  4  1  0
  4  5  2  0
  5  6  1  0
  6  7  2  0
  7  8  1  0
  8  9  2  0
  9 10  1  0
 10 11  1  0
 11 12  1  0
 12 13  1  0
 13 14  1  0
 14 15  1  0
 15 16  1  0
 16 17  1  0
  9  4  1  0
 17 12  1  0
  1 18  1  0
  1 19  1  0
  1 20  1  0
  2 21  1  0
  2 22  1  0
  5 23  1  0
  6 24  1  0
  7 25  1  0
  8 26  1  0
 11 27  1  0
 11 28  1  0
 12 29  1  0
 13 30  1  0
 13 31  1  0
 14 32  1  0
 15 33  1  0
 15 34  1  0
 16 35  1  0
 16 36  1  0
M  END
$$$$
OCNT-0493927
     RDKit          3D

 30 32  0  0  0  0  0  0  0  0999 V2000
   -1.9797   -3.9690   -0.7559 O   0  0  0  0  0  0  0  0  0  0  0  0
   -1.7194   -2.7828   -0.5992 C   0  0  0  0  0  0  0  0  0  0  0  0
   -2.6230   -1.8117   -0.9229 N   0  0  0  0  0  0  0  0  0  0  0  0
   -2.3634   -0.4501   -0.8682 C   0  0  0  0  0  0  0  0  0  0  0  0
   -3.2558    0.4566   -1.4404 C   0  0  0  0  0  0  0  0  0  0  0  0
   -2.9788    1.8228   -1.3844 C   0  0  0  0  0  0  0  0  0  0  0  0
   -1.8232    2.2680   -0.7459 C   0  0  0  0  0  0  0  0  0  0  0  0
   -1.4870    3.9527   -0.6661 Cl  0  0  0  0  0  0  0  0  0  0  0  0
   -0.9435    1.3578   -0.1573 C   0  0  0  0  0  0  0  0  0  0  0  0
   -1.2070   -0.0219   -0.2214 C   0  0  0  0  0  0  0  0  0  0  0  0
   -0.3637   -1.0800    0.4735 C   0  0  1  0  0  0  0  0  0  0  0  0
    1.0821   -0.7449    0.3947 C   0  0  0  0  0  0  0  0  0  0  0  0
    2.2496   -0.4684    0.3315 C   0  0  0  0  0  0  0  0  0  0  0  0
    3.6394   -0.1300    0.2564 C   0  0  0  0  0  0  0  0  0  0  0  0
    4.1353    1.0591    1.0366 C   0  0  0  0  0  0  0  0  0  0  0  0
    4.0364    1.1346   -0.4593 C   0  0  0  0  0  0  0  0  0  0  0  0
   -0.7970   -1.2154    1.9619 C   0  0  0  0  0  0  0  0  0  0  0  0
   -0.6283   -0.0569    2.6490 F   0  0  0  0  0  0  0  0  0  0  0  0
   -0.0870   -2.1679    2.6153 F   0  0  0  0  0  0  0  0  0  0  0  0
   -2.1055   -1.5542    2.0828 F   0  0  0  0  0  0  0  0  0  0  0  0
   -0.5021   -2.3681   -0.1771 O   0  0  0  0  0  0  0  0  0  0  0  0
   -3.4782   -2.1569   -1.3407 H   0  0  0  0  0  0  0  0  0  0  0  0
   -4.1598    0.1164   -1.9388 H   0  0  0  0  0  0  0  0  0  0  0  0
   -3.6669    2.5331   -1.8359 H   0  0  0  0  0  0  0  0  0  0  0  0
   -0.0634    1.7335    0.3619 H   0  0  0  0  0  0  0  0  0  0  0  0
    4.3202   -0.9719    0.1662 H   0  0  0  0  0  0  0  0  0  0  0  0
    3.4276    1.6360    1.6218 H   0  0  0  0  0  0  0  0  0  0  0  0
    5.1229    0.9954    1.4792 H   0  0  0  0  0  0  0  0  0  0  0  0
    4.9575    1.1227   -1.0312 H   0  0  0  0  0  0  0  0  0  0  0  0
    3.2616    1.7616   -0.8862 H   0  0  0  0  0  0  0  0  0  0  0  0
  1  2  2  0
  2  3  1  0
  3  4  1  0
  4  5  1  0
  5  6  2  0
  6  7  1  0
  7  8  1  0
  7  9  2  0
  9 10  1  0
 10 11  1  0
 11 12  1  1
 12 13  3  0
 13 14  1  0
 14 15  1  0
 15 16  1  0
 11 17  1  0
 17 18  1  0
 17 19  1  0
 17 20  1  0
 11 21  1  0
 21  2  1  0
 10  4  2  0
 16 14  1  0
  3 22  1  0
  5 23  1  0
  6 24  1  0
  9 25  1  0
 14 26  1  0
 15 27  1  0
 15 28  1  0
 16 29  1  0
 16 30  1  0
M  END
$$$$
OCNT-0493951
     RDKit          3D

 60 62  0  0  0  0  0  0  0  0999 V2000
    2.6717   -1.9671    1.0105 O   0  0  0  0  0  0  0  0  0  0  0  0
    1.4839   -2.0482    0.7106 C   0  0  0  0  0  0  0  0  0  0  0  0
    0.9300   -3.2866    0.1210 C   0  0  0  0  0  0  0  0  0  0  0  0
    1.7506   -4.2631   -0.4717 C   0  0  0  0  0  0  0  0  0  0  0  0
    3.0943   -4.0591   -0.6056 O   0  0  0  0  0  0  0  0  0  0  0  0
    1.2080   -5.4505   -0.9681 C   0  0  0  0  0  0  0  0  0  0  0  0
   -0.1625   -5.6722   -0.8802 C   0  0  0  0  0  0  0  0  0  0  0  0
   -0.9826   -4.7034   -0.3106 C   0  0  0  0  0  0  0  0  0  0  0  0
   -2.3190   -5.0009   -0.2767 O   0  0  0  0  0  0  0  0  0  0  0  0
   -0.4452   -3.5026    0.1846 C   0  0  0  0  0  0  0  0  0  0  0  0
   -1.3321   -2.4671    0.7469 C   0  0  0  0  0  0  0  0  0  0  0  0
   -2.5297   -2.7315    0.8575 O   0  0  0  0  0  0  0  0  0  0  0  0
   -0.7993   -1.1242    1.0970 C   0  0  0  0  0  0  0  0  0  0  0  0
    0.5846   -0.9006    1.0061 C   0  0  0  0  0  0  0  0  0  0  0  0
    1.1365    0.3834    1.2542 C   0  0  0  0  0  0  0  0  0  0  0  0
    2.5025    0.6364    1.0394 N   0  0  0  0  0  0  0  0  0  0  0  0
    3.2060    1.6830    1.7923 C   0  0  0  0  0  0  0  0  0  0  0  0
    3.3972    2.9567    0.9398 C   0  0  0  0  0  0  0  0  0  0  0  0
    3.6019    2.7186   -0.4964 N   0  0  0  0  0  0  0  0  0  0  0  0
    4.9882    2.4435   -0.8720 C   0  0  0  0  0  0  0  0  0  0  0  0
    5.4438    0.9841   -0.7325 C   0  0  0  0  0  0  0  0  0  0  0  0
    6.7663    0.8279   -1.2444 O   0  0  0  0  0  0  0  0  0  0  0  0
    0.2501    1.4158    1.5678 C   0  0  0  0  0  0  0  0  0  0  0  0
   -1.1221    1.1853    1.6980 C   0  0  0  0  0  0  0  0  0  0  0  0
   -1.6805   -0.0742    1.4585 C   0  0  0  0  0  0  0  0  0  0  0  0
   -3.0480   -0.2984    1.6696 N   0  0  0  0  0  0  0  0  0  0  0  0
   -4.0504    0.7126    1.3301 C   0  0  0  0  0  0  0  0  0  0  0  0
   -4.1526    0.9372   -0.1935 C   0  0  0  0  0  0  0  0  0  0  0  0
   -5.2687    1.8368   -0.5314 N   0  0  0  0  0  0  0  0  0  0  0  0
   -5.3825    2.0452   -1.9887 C   0  0  0  0  0  0  0  0  0  0  0  0
   -4.3202    3.0183   -2.5172 C   0  0  0  0  0  0  0  0  0  0  0  0
   -4.3054    4.1930   -1.7078 O   0  0  0  0  0  0  0  0  0  0  0  0
    3.5282   -4.8524   -0.9582 H   0  0  0  0  0  0  0  0  0  0  0  0
    1.8353   -6.2083   -1.4296 H   0  0  0  0  0  0  0  0  0  0  0  0
   -0.5955   -6.5940   -1.2618 H   0  0  0  0  0  0  0  0  0  0  0  0
   -2.7829   -4.2653    0.1836 H   0  0  0  0  0  0  0  0  0  0  0  0
    3.0226   -0.2564    1.0724 H   0  0  0  0  0  0  0  0  0  0  0  0
    2.7122    1.9181    2.7426 H   0  0  0  0  0  0  0  0  0  0  0  0
    4.1950    1.2930    2.0583 H   0  0  0  0  0  0  0  0  0  0  0  0
    4.1888    3.5848    1.3649 H   0  0  0  0  0  0  0  0  0  0  0  0
    2.4804    3.5519    1.0183 H   0  0  0  0  0  0  0  0  0  0  0  0
    3.0166    1.9097   -0.7388 H   0  0  0  0  0  0  0  0  0  0  0  0
    5.6827    3.1086   -0.3436 H   0  0  0  0  0  0  0  0  0  0  0  0
    5.0976    2.7192   -1.9287 H   0  0  0  0  0  0  0  0  0  0  0  0
    5.4507    0.6555    0.3090 H   0  0  0  0  0  0  0  0  0  0  0  0
    4.7869    0.3173   -1.3002 H   0  0  0  0  0  0  0  0  0  0  0  0
    7.3532    1.3894   -0.7102 H   0  0  0  0  0  0  0  0  0  0  0  0
    0.6047    2.4300    1.7248 H   0  0  0  0  0  0  0  0  0  0  0  0
   -1.7444    2.0230    2.0016 H   0  0  0  0  0  0  0  0  0  0  0  0
   -3.3262   -1.2413    1.3675 H   0  0  0  0  0  0  0  0  0  0  0  0
   -3.8682    1.6565    1.8556 H   0  0  0  0  0  0  0  0  0  0  0  0
   -5.0152    0.3447    1.7008 H   0  0  0  0  0  0  0  0  0  0  0  0
   -3.2078    1.3583   -0.5530 H   0  0  0  0  0  0  0  0  0  0  0  0
   -4.2925   -0.0311   -0.6903 H   0  0  0  0  0  0  0  0  0  0  0  0
   -6.1375    1.4070   -0.2059 H   0  0  0  0  0  0  0  0  0  0  0  0
   -5.3607    1.0980   -2.5388 H   0  0  0  0  0  0  0  0  0  0  0  0
   -6.3658    2.4983   -2.1631 H   0  0  0  0  0  0  0  0  0  0  0  0
   -4.5446    3.3115   -3.5470 H   0  0  0  0  0  0  0  0  0  0  0  0
   -3.3204    2.5746   -2.4968 H   0  0  0  0  0  0  0  0  0  0  0  0
   -4.5078    3.8714   -0.8054 H   0  0  0  0  0  0  0  0  0  0  0  0
  1  2  2  0
  2  3  1  0
  3  4  2  0
  4  5  1  0
  4  6  1  0
  6  7  2  0
  7  8  1  0
  8  9  1  0
  8 10  2  0
 10 11  1  0
 11 12  2  0
 11 13  1  0
 13 14  1  0
 14 15  2  0
 15 16  1  0
 16 17  1  0
 17 18  1  0
 18 19  1  0
 19 20  1  0
 20 21  1  0
 21 22  1  0
 15 23  1  0
 23 24  2  0
 24 25  1  0
 25 26  1  0
 26 27  1  0
 27 28  1  0
 28 29  1  0
 29 30  1  0
 30 31  1  0
 31 32  1  0
 14  2  1  0
 10  3  1  0
 25 13  2  0
  5 33  1  0
  6 34  1  0
  7 35  1  0
  9 36  1  0
 16 37  1  0
 17 38  1  0
 17 39  1  0
 18 40  1  0
 18 41  1  0
 19 42  1  0
 20 43  1  0
 20 44  1  0
 21 45  1  0
 21 46  1  0
 22 47  1  0
 23 48  1  0
 24 49  1  0
 26 50  1  0
 27 51  1  0
 27 52  1  0
 28 53  1  0
 28 54  1  0
 29 55  1  0
 30 56  1  0
 30 57  1  0
 31 58  1  0
 31 59  1  0
 32 60  1  0
M  END
$$$$
OCNT-0494012
     RDKit          3D

 28 29  0  0  0  0  0  0  0  0999 V2000
    4.4960    1.6112    0.1299 C   0  0  0  0  0  0  0  0  0  0  0  0
    4.0842    0.1942    0.1991 C   0  0  0  0  0  0  0  0  0  0  0  0
    2.8632   -0.4548    0.1858 C   0  0  0  0  0  0  0  0  0  0  0  0
    1.5637    0.1951    0.0907 C   0  0  0  0  0  0  0  0  0  0  0  0
    1.4831    1.4173    0.0518 O   0  0  0  0  0  0  0  0  0  0  0  0
    0.4882   -0.6771    0.0474 N   0  0  0  0  0  0  0  0  0  0  0  0
   -0.8831   -0.3495   -0.0370 C   0  0  0  0  0  0  0  0  0  0  0  0
   -1.7905   -1.4163   -0.0800 C   0  0  0  0  0  0  0  0  0  0  0  0
   -3.1678   -1.1843   -0.1635 C   0  0  0  0  0  0  0  0  0  0  0  0
   -3.6676    0.1231   -0.2121 C   0  0  0  0  0  0  0  0  0  0  0  0
   -5.1536    0.3783   -0.2792 C   0  0  0  0  0  0  0  0  0  0  0  0
   -5.4705    1.5497   -0.8975 F   0  0  0  0  0  0  0  0  0  0  0  0
   -5.8292   -0.5927   -0.9556 F   0  0  0  0  0  0  0  0  0  0  0  0
   -5.7237    0.4388    0.9554 F   0  0  0  0  0  0  0  0  0  0  0  0
   -2.7593    1.1883   -0.1592 C   0  0  0  0  0  0  0  0  0  0  0  0
   -1.3808    0.9536   -0.0756 C   0  0  0  0  0  0  0  0  0  0  0  0
    3.2328   -1.8158    0.2887 C   0  0  0  0  0  0  0  0  0  0  0  0
    4.5538   -1.9891    0.3542 N   0  0  0  0  0  0  0  0  0  0  0  0
    5.0896   -0.7162    0.2979 O   0  0  0  0  0  0  0  0  0  0  0  0
    5.5857    1.7111    0.1552 H   0  0  0  0  0  0  0  0  0  0  0  0
    4.1378    2.0702   -0.7966 H   0  0  0  0  0  0  0  0  0  0  0  0
    4.0871    2.1710    0.9766 H   0  0  0  0  0  0  0  0  0  0  0  0
    0.6887   -1.6653    0.0677 H   0  0  0  0  0  0  0  0  0  0  0  0
   -1.4436   -2.4465   -0.0485 H   0  0  0  0  0  0  0  0  0  0  0  0
   -3.8511   -2.0323   -0.1924 H   0  0  0  0  0  0  0  0  0  0  0  0
   -3.1180    2.2171   -0.1843 H   0  0  0  0  0  0  0  0  0  0  0  0
   -0.7275    1.8202   -0.0405 H   0  0  0  0  0  0  0  0  0  0  0  0
    2.6123   -2.6991    0.3216 H   0  0  0  0  0  0  0  0  0  0  0  0
  1  2  1  0
  2  3  2  0
  3  4  1  0
  4  5  2  0
  4  6  1  0
  6  7  1  0
  7  8  1  0
  8  9  2  0
  9 10  1  0
 10 11  1  0
 11 12  1  0
 11 13  1  0
 11 14  1  0
 10 15  2  0
 15 16  1  0
  3 17  1  0
 17 18  2  0
 18 19  1  0
 19  2  1  0
 16  7  2  0
  1 20  1  0
  1 21  1  0
  1 22  1  0
  6 23  1  0
  8 24  1  0
  9 25  1  0
 15 26  1  0
 16 27  1  0
 17 28  1  0
M  END
$$$$
OCNT-0494105
     RDKit          3D

 44 45  0  0  0  0  0  0  0  0999 V2000
   -0.6545    0.1941    0.1050 O   0  0  0  0  0  0  0  0  0  0  0  0
   -0.7077   -0.7775   -0.6352 C   0  0  0  0  0  0  0  0  0  0  0  0
   -1.7273   -1.0632   -1.4830 O   0  0  0  0  0  0  0  0  0  0  0  0
   -2.7940   -0.1023   -1.5179 C   0  0  0  0  0  0  0  0  0  0  0  0
   -3.7547   -0.2892   -0.3471 C   0  0  0  0  0  0  0  0  0  0  0  0
   -4.8685    0.5912   -0.5057 O   0  0  0  0  0  0  0  0  0  0  0  0
   -5.7816    0.4814    0.5949 C   0  0  0  0  0  0  0  0  0  0  0  0
   -6.9426    1.4373    0.3430 C   0  0  0  0  0  0  0  0  0  0  0  0
   -7.6075    1.0773   -0.8672 O   0  0  0  0  0  0  0  0  0  0  0  0
    0.3647   -1.8125   -0.7182 C   0  0  0  0  0  0  0  0  0  0  0  0
    0.1150   -3.0369   -1.3668 C   0  0  0  0  0  0  0  0  0  0  0  0
    1.1027   -4.0190   -1.4346 C   0  0  0  0  0  0  0  0  0  0  0  0
    2.3426   -3.7924   -0.8500 C   0  0  0  0  0  0  0  0  0  0  0  0
    2.5999   -2.5806   -0.2050 C   0  0  0  0  0  0  0  0  0  0  0  0
    1.6291   -1.5669   -0.1311 C   0  0  0  0  0  0  0  0  0  0  0  0
    1.9253   -0.3393    0.5057 N   0  0  0  0  0  0  0  0  0  0  0  0
    3.0963    0.4435    0.5237 C   0  0  0  0  0  0  0  0  0  0  0  0
    4.1738    0.2442   -0.3445 C   0  0  0  0  0  0  0  0  0  0  0  0
    5.3280    1.0264   -0.2519 C   0  0  0  0  0  0  0  0  0  0  0  0
    5.4242    2.0192    0.7207 C   0  0  0  0  0  0  0  0  0  0  0  0
    4.3624    2.2436    1.6061 C   0  0  0  0  0  0  0  0  0  0  0  0
    4.4706    3.2967    2.6790 C   0  0  0  0  0  0  0  0  0  0  0  0
    3.2625    3.7540    3.1116 F   0  0  0  0  0  0  0  0  0  0  0  0
    5.1170    2.8423    3.7881 F   0  0  0  0  0  0  0  0  0  0  0  0
    5.1591    4.4004    2.2729 F   0  0  0  0  0  0  0  0  0  0  0  0
    3.2115    1.4431    1.5021 C   0  0  0  0  0  0  0  0  0  0  0  0
   -2.4019    0.9220   -1.5547 H   0  0  0  0  0  0  0  0  0  0  0  0
   -3.3315   -0.2490   -2.4617 H   0  0  0  0  0  0  0  0  0  0  0  0
   -3.2471   -0.0804    0.6014 H   0  0  0  0  0  0  0  0  0  0  0  0
   -4.1037   -1.3283   -0.3168 H   0  0  0  0  0  0  0  0  0  0  0  0
   -5.2724    0.7436    1.5284 H   0  0  0  0  0  0  0  0  0  0  0  0
   -6.1491   -0.5494    0.6466 H   0  0  0  0  0  0  0  0  0  0  0  0
   -6.5853    2.4657    0.2305 H   0  0  0  0  0  0  0  0  0  0  0  0
   -7.6670    1.3976    1.1609 H   0  0  0  0  0  0  0  0  0  0  0  0
   -6.8954    0.9780   -1.5285 H   0  0  0  0  0  0  0  0  0  0  0  0
   -0.8513   -3.2431   -1.8212 H   0  0  0  0  0  0  0  0  0  0  0  0
    0.9005   -4.9628   -1.9357 H   0  0  0  0  0  0  0  0  0  0  0  0
    3.1122   -4.5598   -0.8867 H   0  0  0  0  0  0  0  0  0  0  0  0
    3.5677   -2.4420    0.2716 H   0  0  0  0  0  0  0  0  0  0  0  0
    1.0857    0.2202    0.6940 H   0  0  0  0  0  0  0  0  0  0  0  0
    4.1206   -0.5040   -1.1305 H   0  0  0  0  0  0  0  0  0  0  0  0
    6.1503    0.8600   -0.9437 H   0  0  0  0  0  0  0  0  0  0  0  0
    6.3303    2.6200    0.7853 H   0  0  0  0  0  0  0  0  0  0  0  0
    2.3911    1.5971    2.2030 H   0  0  0  0  0  0  0  0  0  0  0  0
  1  2  2  0
  2  3  1  0
  3  4  1  0
  4  5  1  0
  5  6  1  0
  6  7  1  0
  7  8  1  0
  8  9  1  0
  2 10  1  0
 10 11  2  0
 11 12  1  0
 12 13  2  0
 13 14  1  0
 14 15  2  0
 15 16  1  0
 16 17  1  0
 17 18  1  0
 18 19  2  0
 19 20  1  0
 20 21  2  0
 21 22  1  0
 22 23  1  0
 22 24  1  0
 22 25  1  0
 21 26  1  0
 15 10  1  0
 26 17  2  0
  4 27  1  0
  4 28  1  0
  5 29  1  0
  5 30  1  0
  7 31  1  0
  7 32  1  0
  8 33  1  0
  8 34  1  0
  9 35  1  0
 11 36  1  0
 12 37  1  0
 13 38  1  0
 14 39  1  0
 16 40  1  0
 18 41  1  0
 19 42  1  0
 20 43  1  0
 26 44  1  0
M  END
$$$$
OCNT-0494164
     RDKit          3D

 74 78  0  0  0  0  0  0  0  0999 V2000
    0.4384    0.1764   -2.2120 C   0  0  0  0  0  0  0  0  0  0  0  0
    0.2363   -0.8690   -1.2613 O   0  0  0  0  0  0  0  0  0  0  0  0
    1.2553   -0.9444   -0.3463 C   0  0  0  0  0  0  0  0  0  0  0  0
    2.5511   -1.2679   -0.7585 C   0  0  0  0  0  0  0  0  0  0  0  0
    3.5620   -1.4197    0.1971 C   0  0  0  0  0  0  0  0  0  0  0  0
    4.9583   -1.7107   -0.1968 C   0  0  0  0  0  0  0  0  0  0  0  0
    5.6556   -2.4640    0.4612 O   0  0  0  0  0  0  0  0  0  0  0  0
    5.3910   -1.0081   -1.3285 N   0  0  0  0  0  0  0  0  0  0  0  0
    6.9394   -1.0313   -1.9348 S   0  0  0  0  0  0  0  0  0  0  0  0
    7.1679   -2.3351   -2.5238 O   0  0  0  0  0  0  0  0  0  0  0  0
    7.0528    0.1649   -2.7476 O   0  0  0  0  0  0  0  0  0  0  0  0
    7.9931   -0.8138   -0.5120 C   0  0  0  0  0  0  0  0  0  0  0  0
    8.8058   -1.8955   -0.1405 C   0  0  0  0  0  0  0  0  0  0  0  0
    9.6567   -1.7930    0.9599 C   0  0  0  0  0  0  0  0  0  0  0  0
    9.7075   -0.6086    1.6873 C   0  0  0  0  0  0  0  0  0  0  0  0
    8.9116    0.4774    1.3169 C   0  0  0  0  0  0  0  0  0  0  0  0
    8.0380    0.3952    0.2143 C   0  0  0  0  0  0  0  0  0  0  0  0
    7.2357    1.6143   -0.1464 C   0  0  0  0  0  0  0  0  0  0  0  0
    3.2757   -1.2654    1.5579 C   0  0  0  0  0  0  0  0  0  0  0  0
    1.9802   -0.9373    1.9625 C   0  0  0  0  0  0  0  0  0  0  0  0
    0.9547   -0.7694    1.0157 C   0  0  0  0  0  0  0  0  0  0  0  0
   -0.4374   -0.4123    1.4843 C   0  0  0  0  0  0  0  0  0  0  0  0
   -0.6918    1.0329    1.1614 C   0  0  0  0  0  0  0  0  0  0  0  0
    0.1730    2.1100    1.2459 C   0  0  0  0  0  0  0  0  0  0  0  0
   -0.4992    3.2404    0.8685 N   0  0  0  0  0  0  0  0  0  0  0  0
    0.0755    4.5696    0.8531 C   0  0  0  0  0  0  0  0  0  0  0  0
   -1.8068    2.9441    0.5616 C   0  0  0  0  0  0  0  0  0  0  0  0
   -2.8694    3.7612    0.1492 C   0  0  0  0  0  0  0  0  0  0  0  0
   -4.1169    3.1603   -0.0526 C   0  0  0  0  0  0  0  0  0  0  0  0
   -4.3129    1.7924    0.1440 C   0  0  0  0  0  0  0  0  0  0  0  0
   -5.6099    1.2872   -0.0606 N   0  0  0  0  0  0  0  0  0  0  0  0
   -6.0603    0.0119    0.1247 C   0  0  0  0  0  0  0  0  0  0  0  0
   -5.4323   -0.9582    0.5197 O   0  0  0  0  0  0  0  0  0  0  0  0
   -7.3851   -0.0192   -0.1896 O   0  0  0  0  0  0  0  0  0  0  0  0
   -8.0050   -1.2993   -0.0515 C   0  0  0  0  0  0  0  0  0  0  0  0
   -7.6942   -2.2202   -1.2244 C   0  0  0  0  0  0  0  0  0  0  0  0
   -8.7963   -3.2644   -1.1576 C   0  0  0  0  0  0  0  0  0  0  0  0
  -10.0167   -2.5287   -0.6013 C   0  0  0  0  0  0  0  0  0  0  0  0
   -9.5213   -1.1584   -0.1493 C   0  0  0  0  0  0  0  0  0  0  0  0
   -3.2313    0.9955    0.5339 C   0  0  0  0  0  0  0  0  0  0  0  0
   -1.9585    1.5701    0.7489 C   0  0  0  0  0  0  0  0  0  0  0  0
   -0.5377    0.4462   -2.6283 H   0  0  0  0  0  0  0  0  0  0  0  0
    0.8751    1.0761   -1.7595 H   0  0  0  0  0  0  0  0  0  0  0  0
    1.0711   -0.1789   -3.0339 H   0  0  0  0  0  0  0  0  0  0  0  0
    2.7496   -1.4498   -1.8101 H   0  0  0  0  0  0  0  0  0  0  0  0
    4.8488   -0.2395   -1.7070 H   0  0  0  0  0  0  0  0  0  0  0  0
    8.7695   -2.8326   -0.6947 H   0  0  0  0  0  0  0  0  0  0  0  0
   10.2732   -2.6409    1.2475 H   0  0  0  0  0  0  0  0  0  0  0  0
   10.3718   -0.5327    2.5465 H   0  0  0  0  0  0  0  0  0  0  0  0
    8.9765    1.3953    1.8984 H   0  0  0  0  0  0  0  0  0  0  0  0
    6.1854    1.3635   -0.3156 H   0  0  0  0  0  0  0  0  0  0  0  0
    7.2502    2.3521    0.6638 H   0  0  0  0  0  0  0  0  0  0  0  0
    7.6557    2.0955   -1.0377 H   0  0  0  0  0  0  0  0  0  0  0  0
    4.0593   -1.3895    2.3055 H   0  0  0  0  0  0  0  0  0  0  0  0
    1.7715   -0.8125    3.0241 H   0  0  0  0  0  0  0  0  0  0  0  0
   -1.1594   -1.0769    1.0009 H   0  0  0  0  0  0  0  0  0  0  0  0
   -0.5408   -0.5597    2.5648 H   0  0  0  0  0  0  0  0  0  0  0  0
    1.2142    2.1540    1.5417 H   0  0  0  0  0  0  0  0  0  0  0  0
    1.1569    4.4996    0.9935 H   0  0  0  0  0  0  0  0  0  0  0  0
   -0.1387    5.0296   -0.1147 H   0  0  0  0  0  0  0  0  0  0  0  0
   -0.3753    5.1485    1.6649 H   0  0  0  0  0  0  0  0  0  0  0  0
   -2.7413    4.8280   -0.0032 H   0  0  0  0  0  0  0  0  0  0  0  0
   -4.9444    3.7952   -0.3608 H   0  0  0  0  0  0  0  0  0  0  0  0
   -6.3302    1.9289   -0.3595 H   0  0  0  0  0  0  0  0  0  0  0  0
   -7.7440   -1.7633    0.9116 H   0  0  0  0  0  0  0  0  0  0  0  0
   -7.7351   -1.6644   -2.1692 H   0  0  0  0  0  0  0  0  0  0  0  0
   -6.6984   -2.6657   -1.1593 H   0  0  0  0  0  0  0  0  0  0  0  0
   -8.9972   -3.7135   -2.1358 H   0  0  0  0  0  0  0  0  0  0  0  0
   -8.5106   -4.0738   -0.4743 H   0  0  0  0  0  0  0  0  0  0  0  0
  -10.4461   -3.0883    0.2367 H   0  0  0  0  0  0  0  0  0  0  0  0
  -10.7962   -2.4265   -1.3644 H   0  0  0  0  0  0  0  0  0  0  0  0
   -9.9675   -0.8497    0.8007 H   0  0  0  0  0  0  0  0  0  0  0  0
   -9.7948   -0.3944   -0.8876 H   0  0  0  0  0  0  0  0  0  0  0  0
   -3.3416   -0.0696    0.6882 H   0  0  0  0  0  0  0  0  0  0  0  0
  1  2  1  0
  2  3  1  0
  3  4  1  0
  4  5  2  0
  5  6  1  0
  6  7  2  0
  6  8  1  0
  8  9  1  0
  9 10  2  0
  9 11  2  0
  9 12  1  0
 12 13  2  0
 13 14  1  0
 14 15  2  0
 15 16  1  0
 16 17  2  0
 17 18  1  0
  5 19  1  0
 19 20  2  0
 20 21  1  0
 21 22  1  0
 22 23  1  0
 23 24  2  0
 24 25  1  0
 25 26  1  0
 25 27  1  0
 27 28  2  0
 28 29  1  0
 29 30  2  0
 30 31  1  0
 31 32  1  0
 32 33  2  0
 32 34  1  0
 34 35  1  0
 35 36  1  0
 36 37  1  0
 37 38  1  0
 38 39  1  0
 30 40  1  0
 40 41  2  0
 21  3  2  0
 41 23  1  0
 17 12  1  0
 41 27  1  0
 39 35  1  0
  1 42  1  0
  1 43  1  0
  1 44  1  0
  4 45  1  0
  8 46  1  0
 13 47  1  0
 14 48  1  0
 15 49  1  0
 16 50  1  0
 18 51  1  0
 18 52  1  0
 18 53  1  0
 19 54  1  0
 20 55  1  0
 22 56  1  0
 22 57  1  0
 24 58  1  0
 26 59  1  0
 26 60  1  0
 26 61  1  0
 28 62  1  0
 29 63  1  0
 31 64  1  0
 35 65  1  0
 36 66  1  0
 36 67  1  0
 37 68  1  0
 37 69  1  0
 38 70  1  0
 38 71  1  0
 39 72  1  0
 39 73  1  0
 40 74  1  0
M  END
$$$$
OCNT-0495216
     RDKit          3D

 57 58  0  0  0  0  0  0  0  0999 V2000
    4.2794   -2.7901   -1.3751 C   0  0  0  0  0  0  0  0  0  0  0  0
    4.9855   -1.4821   -1.0336 C   0  0  0  0  0  0  0  0  0  0  0  0
    5.0857   -1.2371    0.4079 N   0  0  0  0  0  0  0  0  0  0  0  0
    6.0418   -0.1808    0.7561 C   0  0  0  0  0  0  0  0  0  0  0  0
    5.7304    1.2329    0.2782 C   0  0  0  0  0  0  0  0  0  0  0  0
    3.8117   -1.1630    1.1306 C   0  0  0  0  0  0  0  0  0  0  0  0
    2.8400   -0.2027    0.5862 C   0  0  0  0  0  0  0  0  0  0  0  0
    2.0274    0.5618    0.1396 C   0  0  0  0  0  0  0  0  0  0  0  0
    1.0187    1.4739   -0.4075 C   0  0  0  0  0  0  0  0  0  0  0  0
   -0.2731    0.8605   -0.3312 O   0  0  0  0  0  0  0  0  0  0  0  0
   -0.9873    1.1287    0.7925 C   0  0  0  0  0  0  0  0  0  0  0  0
   -0.6504    1.9168    1.6743 O   0  0  0  0  0  0  0  0  0  0  0  0
   -2.3105    0.3162    0.8664 C   0  0  0  0  0  0  0  0  0  0  0  0
   -2.8094    0.4112    2.2234 O   0  0  0  0  0  0  0  0  0  0  0  0
   -2.0713   -1.1900    0.6891 C   0  0  0  0  0  0  0  0  0  0  0  0
   -0.9684   -1.7993    1.3244 C   0  0  0  0  0  0  0  0  0  0  0  0
   -0.7197   -3.1691    1.2035 C   0  0  0  0  0  0  0  0  0  0  0  0
   -1.5798   -3.9691    0.4607 C   0  0  0  0  0  0  0  0  0  0  0  0
   -2.6931   -3.4006   -0.1483 C   0  0  0  0  0  0  0  0  0  0  0  0
   -2.9416   -2.0286   -0.0264 C   0  0  0  0  0  0  0  0  0  0  0  0
   -3.3987    0.9826   -0.0450 C   0  0  0  0  0  0  0  0  0  0  0  0
   -3.7559    2.4219    0.4037 C   0  0  0  0  0  0  0  0  0  0  0  0
   -4.8947    3.0089   -0.4314 C   0  0  0  0  0  0  0  0  0  0  0  0
   -4.5881    2.9663   -1.9240 C   0  0  0  0  0  0  0  0  0  0  0  0
   -4.2095    1.5614   -2.3797 C   0  0  0  0  0  0  0  0  0  0  0  0
   -3.0554    0.9992   -1.5501 C   0  0  0  0  0  0  0  0  0  0  0  0
    4.3591   -2.9872   -2.4498 H   0  0  0  0  0  0  0  0  0  0  0  0
    3.2146   -2.7561   -1.1259 H   0  0  0  0  0  0  0  0  0  0  0  0
    4.7338   -3.6342   -0.8463 H   0  0  0  0  0  0  0  0  0  0  0  0
    5.9972   -1.5506   -1.4533 H   0  0  0  0  0  0  0  0  0  0  0  0
    4.4885   -0.6569   -1.5555 H   0  0  0  0  0  0  0  0  0  0  0  0
    7.0254   -0.4648    0.3604 H   0  0  0  0  0  0  0  0  0  0  0  0
    6.1763   -0.1616    1.8449 H   0  0  0  0  0  0  0  0  0  0  0  0
    4.8495    1.6446    0.7765 H   0  0  0  0  0  0  0  0  0  0  0  0
    5.5782    1.2760   -0.8037 H   0  0  0  0  0  0  0  0  0  0  0  0
    6.5712    1.8935    0.5158 H   0  0  0  0  0  0  0  0  0  0  0  0
    3.9985   -0.9338    2.1873 H   0  0  0  0  0  0  0  0  0  0  0  0
    3.3537   -2.1596    1.1442 H   0  0  0  0  0  0  0  0  0  0  0  0
    1.2206    1.6562   -1.4683 H   0  0  0  0  0  0  0  0  0  0  0  0
    1.0408    2.4508    0.0878 H   0  0  0  0  0  0  0  0  0  0  0  0
   -2.3801    1.1944    2.6204 H   0  0  0  0  0  0  0  0  0  0  0  0
   -0.2898   -1.2099    1.9387 H   0  0  0  0  0  0  0  0  0  0  0  0
    0.1397   -3.6093    1.7008 H   0  0  0  0  0  0  0  0  0  0  0  0
   -1.3925   -5.0357    0.3697 H   0  0  0  0  0  0  0  0  0  0  0  0
   -3.3796   -4.0266   -0.7127 H   0  0  0  0  0  0  0  0  0  0  0  0
   -3.8392   -1.6417   -0.4979 H   0  0  0  0  0  0  0  0  0  0  0  0
   -4.3274    0.4083    0.0852 H   0  0  0  0  0  0  0  0  0  0  0  0
   -2.8780    3.0737    0.3162 H   0  0  0  0  0  0  0  0  0  0  0  0
   -4.0613    2.4343    1.4560 H   0  0  0  0  0  0  0  0  0  0  0  0
   -5.8167    2.4482   -0.2331 H   0  0  0  0  0  0  0  0  0  0  0  0
   -5.0805    4.0442   -0.1234 H   0  0  0  0  0  0  0  0  0  0  0  0
   -5.4582    3.3163   -2.4901 H   0  0  0  0  0  0  0  0  0  0  0  0
   -3.7643    3.6562   -2.1450 H   0  0  0  0  0  0  0  0  0  0  0  0
   -3.9249    1.5837   -3.4380 H   0  0  0  0  0  0  0  0  0  0  0  0
   -5.0795    0.8982   -2.2964 H   0  0  0  0  0  0  0  0  0  0  0  0
   -2.1733    1.6232   -1.7332 H   0  0  0  0  0  0  0  0  0  0  0  0
   -2.8154   -0.0036   -1.9156 H   0  0  0  0  0  0  0  0  0  0  0  0
  1  2  1  0
  2  3  1  0
  3  4  1  0
  4  5  1  0
  3  6  1  0
  6  7  1  0
  7  8  3  0
  8  9  1  0
  9 10  1  0
 10 11  1  0
 11 12  2  0
 11 13  1  0
 13 14  1  0
 13 15  1  0
 15 16  2  0
 16 17  1  0
 17 18  2  0
 18 19  1  0
 19 20  2  0
 13 21  1  0
 21 22  1  0
 22 23  1  0
 23 24  1  0
 24 25  1  0
 25 26  1  0
 20 15  1  0
 26 21  1  0
  1 27  1  0
  1 28  1  0
  1 29  1  0
  2 30  1  0
  2 31  1  0
  4 32  1  0
  4 33  1  0
  5 34  1  0
  5 35  1  0
  5 36  1  0
  6 37  1  0
  6 38  1  0
  9 39  1  0
  9 40  1  0
 14 41  1  0
 16 42  1  0
 17 43  1  0
 18 44  1  0
 19 45  1  0
 20 46  1  0
 21 47  1  0
 22 48  1  0
 22 49  1  0
 23 50  1  0
 23 51  1  0
 24 52  1  0
 24 53  1  0
 25 54  1  0
 25 55  1  0
 26 56  1  0
 26 57  1  0
M  END
$$$$
OCNT-0495277
     RDKit          3D

 41 44  0  0  0  0  0  0  0  0999 V2000
    4.3566    1.4699    1.2615 C   0  0  0  0  0  0  0  0  0  0  0  0
    4.5091    0.1391    0.6216 C   0  0  0  0  0  0  0  0  0  0  0  0
    5.4572   -0.7346    0.8989 N   0  0  0  0  0  0  0  0  0  0  0  0
    5.2471   -1.7993    0.0654 C   0  0  0  0  0  0  0  0  0  0  0  0
    4.1467   -1.5839   -0.7263 C   0  0  0  0  0  0  0  0  0  0  0  0
    3.6704   -0.3559   -0.3507 N   0  0  0  0  0  0  0  0  0  0  0  0
    2.4966    0.2837   -0.9166 C   0  0  0  0  0  0  0  0  0  0  0  0
    1.1772   -0.3737   -0.4901 C   0  0  0  0  0  0  0  0  0  0  0  0
    0.9474   -0.2903    1.0377 C   0  0  0  0  0  0  0  0  0  0  0  0
   -0.3854   -0.9282    1.4627 C   0  0  0  0  0  0  0  0  0  0  0  0
   -1.4739   -0.4065    0.5903 C   0  0  0  0  0  0  0  0  0  0  0  0
   -1.2991    0.1636   -0.6572 C   0  0  0  0  0  0  0  0  0  0  0  0
    0.0235    0.2913   -1.2572 C   0  0  0  0  0  0  0  0  0  0  0  0
    0.2025    0.8527   -2.3356 O   0  0  0  0  0  0  0  0  0  0  0  0
   -2.5791    0.5602   -1.1324 C   0  0  0  0  0  0  0  0  0  0  0  0
   -3.0356    1.1966   -2.3055 C   0  0  0  0  0  0  0  0  0  0  0  0
   -4.3997    1.4570   -2.4676 C   0  0  0  0  0  0  0  0  0  0  0  0
   -5.3097    1.0935   -1.4807 C   0  0  0  0  0  0  0  0  0  0  0  0
   -4.8853    0.4596   -0.3091 C   0  0  0  0  0  0  0  0  0  0  0  0
   -3.5132    0.1981   -0.1539 C   0  0  0  0  0  0  0  0  0  0  0  0
   -2.8155   -0.4097    0.8752 N   0  0  0  0  0  0  0  0  0  0  0  0
   -3.4268   -0.9533    2.0694 C   0  0  0  0  0  0  0  0  0  0  0  0
    5.1298    1.6187    2.0220 H   0  0  0  0  0  0  0  0  0  0  0  0
    3.3829    1.5591    1.7516 H   0  0  0  0  0  0  0  0  0  0  0  0
    4.4558    2.2692    0.5208 H   0  0  0  0  0  0  0  0  0  0  0  0
    5.9011   -2.6614    0.0775 H   0  0  0  0  0  0  0  0  0  0  0  0
    3.6813   -2.1824   -1.4967 H   0  0  0  0  0  0  0  0  0  0  0  0
    2.6250    0.2353   -2.0055 H   0  0  0  0  0  0  0  0  0  0  0  0
    2.5091    1.3456   -0.6483 H   0  0  0  0  0  0  0  0  0  0  0  0
    1.1816   -1.4310   -0.7882 H   0  0  0  0  0  0  0  0  0  0  0  0
    0.9519    0.7640    1.3465 H   0  0  0  0  0  0  0  0  0  0  0  0
    1.7580   -0.7885    1.5809 H   0  0  0  0  0  0  0  0  0  0  0  0
   -0.5750   -0.6967    2.5163 H   0  0  0  0  0  0  0  0  0  0  0  0
   -0.3267   -2.0178    1.3596 H   0  0  0  0  0  0  0  0  0  0  0  0
   -2.3302    1.4863   -3.0804 H   0  0  0  0  0  0  0  0  0  0  0  0
   -4.7474    1.9487   -3.3726 H   0  0  0  0  0  0  0  0  0  0  0  0
   -6.3672    1.3049   -1.6218 H   0  0  0  0  0  0  0  0  0  0  0  0
   -5.6069    0.1828    0.4526 H   0  0  0  0  0  0  0  0  0  0  0  0
   -3.5857   -0.1321    2.7724 H   0  0  0  0  0  0  0  0  0  0  0  0
   -2.7718   -1.7094    2.5081 H   0  0  0  0  0  0  0  0  0  0  0  0
   -4.3765   -1.4250    1.8053 H   0  0  0  0  0  0  0  0  0  0  0  0
  1  2  1  0
  2  3  2  0
  3  4  1  0
  4  5  2  0
  5  6  1  0
  6  7  1  0
  7  8  1  0
  8  9  1  0
  9 10  1  0
 10 11  1  0
 11 12  2  0
 12 13  1  0
 13 14  2  0
 12 15  1  0
 15 16  2  0
 16 17  1  0
 17 18  2  0
 18 19  1  0
 19 20  2  0
 20 21  1  0
 21 22  1  0
  6  2  1  0
 13  8  1  0
 20 15  1  0
 21 11  1  0
  1 23  1  0
  1 24  1  0
  1 25  1  0
  4 26  1  0
  5 27  1  0
  7 28  1  0
  7 29  1  0
  8 30  1  0
  9 31  1  0
  9 32  1  0
 10 33  1  0
 10 34  1  0
 16 35  1  0
 17 36  1  0
 18 37  1  0
 19 38  1  0
 22 39  1  0
 22 40  1  0
 22 41  1  0
M  END
$$$$
OCNT-0495303
     RDKit          3D

 48 49  0  0  0  0  0  0  0  0999 V2000
    4.4173   -1.1003   -1.9431 C   0  0  0  0  0  0  0  0  0  0  0  0
    3.4279   -0.1760   -1.2407 C   0  0  0  0  0  0  0  0  0  0  0  0
    2.6393   -0.8422   -0.2037 N   0  0  0  0  0  0  0  0  0  0  0  0
    3.3927   -1.4656    0.8862 C   0  0  0  0  0  0  0  0  0  0  0  0
    4.1992   -0.5383    1.7857 C   0  0  0  0  0  0  0  0  0  0  0  0
    1.4545   -0.0846    0.2302 C   0  0  0  0  0  0  0  0  0  0  0  0
    1.6508    1.4184    0.4847 C   0  0  0  0  0  0  0  0  0  0  0  0
    0.4837    2.0942    1.2227 C   0  0  0  0  0  0  0  0  0  0  0  0
   -0.8401    2.1397    0.4325 C   0  0  0  0  0  0  0  0  0  0  0  0
   -1.7814    3.1685    1.0656 C   0  0  0  0  0  0  0  0  0  0  0  0
   -1.4642    0.8170    0.4778 N   0  0  0  0  0  0  0  0  0  0  0  0
   -2.4420    0.3835   -0.4318 C   0  0  0  0  0  0  0  0  0  0  0  0
   -2.7849    1.1214   -1.5652 C   0  0  0  0  0  0  0  0  0  0  0  0
   -3.7415    0.6266   -2.4314 C   0  0  0  0  0  0  0  0  0  0  0  0
   -4.3648   -0.5541   -2.2706 N   0  0  0  0  0  0  0  0  0  0  0  0
   -4.0096   -1.3090   -1.2235 C   0  0  0  0  0  0  0  0  0  0  0  0
   -4.6261   -2.5436   -1.0879 C   0  0  0  0  0  0  0  0  0  0  0  0
   -4.2986   -3.4058   -0.0460 C   0  0  0  0  0  0  0  0  0  0  0  0
   -5.0838   -4.9311    0.0848 Cl  0  0  0  0  0  0  0  0  0  0  0  0
   -3.3351   -3.0457    0.8832 C   0  0  0  0  0  0  0  0  0  0  0  0
   -2.7077   -1.8054    0.7682 C   0  0  0  0  0  0  0  0  0  0  0  0
   -3.0383   -0.9034   -0.2745 C   0  0  0  0  0  0  0  0  0  0  0  0
    5.2341   -1.4013   -1.2801 H   0  0  0  0  0  0  0  0  0  0  0  0
    3.9202   -2.0011   -2.3180 H   0  0  0  0  0  0  0  0  0  0  0  0
    4.8647   -0.5845   -2.7993 H   0  0  0  0  0  0  0  0  0  0  0  0
    3.9688    0.6899   -0.8424 H   0  0  0  0  0  0  0  0  0  0  0  0
    2.7474    0.2026   -2.0141 H   0  0  0  0  0  0  0  0  0  0  0  0
    2.7019   -2.0435    1.5139 H   0  0  0  0  0  0  0  0  0  0  0  0
    4.0691   -2.2222    0.4718 H   0  0  0  0  0  0  0  0  0  0  0  0
    3.5493    0.1093    2.3802 H   0  0  0  0  0  0  0  0  0  0  0  0
    4.7914   -1.1326    2.4900 H   0  0  0  0  0  0  0  0  0  0  0  0
    4.8955    0.0833    1.2156 H   0  0  0  0  0  0  0  0  0  0  0  0
    1.0133   -0.5607    1.1147 H   0  0  0  0  0  0  0  0  0  0  0  0
    0.7109   -0.2010   -0.5669 H   0  0  0  0  0  0  0  0  0  0  0  0
    1.8145    1.9386   -0.4671 H   0  0  0  0  0  0  0  0  0  0  0  0
    2.5510    1.5855    1.0841 H   0  0  0  0  0  0  0  0  0  0  0  0
    0.3354    1.6049    2.1941 H   0  0  0  0  0  0  0  0  0  0  0  0
    0.7998    3.1233    1.4391 H   0  0  0  0  0  0  0  0  0  0  0  0
   -0.6045    2.4394   -0.5945 H   0  0  0  0  0  0  0  0  0  0  0  0
   -1.3318    4.1670    1.0516 H   0  0  0  0  0  0  0  0  0  0  0  0
   -2.7331    3.2263    0.5279 H   0  0  0  0  0  0  0  0  0  0  0  0
   -2.0073    2.9122    2.1069 H   0  0  0  0  0  0  0  0  0  0  0  0
   -1.6804    0.5215    1.4270 H   0  0  0  0  0  0  0  0  0  0  0  0
   -2.3445    2.0839   -1.7890 H   0  0  0  0  0  0  0  0  0  0  0  0
   -4.0411    1.1904   -3.3104 H   0  0  0  0  0  0  0  0  0  0  0  0
   -5.3730   -2.8376   -1.8212 H   0  0  0  0  0  0  0  0  0  0  0  0
   -3.0617   -3.7199    1.6901 H   0  0  0  0  0  0  0  0  0  0  0  0
   -1.9370   -1.5571    1.4929 H   0  0  0  0  0  0  0  0  0  0  0  0
  1  2  1  0
  2  3  1  0
  3  4  1  0
  4  5  1  0
  3  6  1  0
  6  7  1  0
  7  8  1  0
  8  9  1  0
  9 10  1  0
  9 11  1  0
 11 12  1  0
 12 13  2  0
 13 14  1  0
 14 15  2  0
 15 16  1  0
 16 17  2  0
 17 18  1  0
 18 19  1  0
 18 20  2  0
 20 21  1  0
 21 22  2  0
 22 12  1  0
 22 16  1  0
  1 23  1  0
  1 24  1  0
  1 25  1  0
  2 26  1  0
  2 27  1  0
  4 28  1  0
  4 29  1  0
  5 30  1  0
  5 31  1  0
  5 32  1  0
  6 33  1  0
  6 34  1  0
  7 35  1  0
  7 36  1  0
  8 37  1  0
  8 38  1  0
  9 39  1  0
 10 40  1  0
 10 41  1  0
 10 42  1  0
 11 43  1  0
 13 44  1  0
 14 45  1  0
 17 46  1  0
 20 47  1  0
 21 48  1  0
M  END
$$$$
OCNT-0495682
     RDKit          3D

 18 19  0  0  0  0  0  0  0  0999 V2000
   -1.6310   -2.3661   -0.5193 O   0  0  0  0  0  0  0  0  0  0  0  0
   -1.3255   -1.0215   -0.5309 C   0  0  0  0  0  0  0  0  0  0  0  0
   -2.2947   -0.0849   -0.8874 C   0  0  0  0  0  0  0  0  0  0  0  0
   -3.8940   -0.5591   -1.3232 Cl  0  0  0  0  0  0  0  0  0  0  0  0
   -1.9734    1.2664   -0.8948 C   0  0  0  0  0  0  0  0  0  0  0  0
   -0.6832    1.6681   -0.5447 C   0  0  0  0  0  0  0  0  0  0  0  0
   -0.3526    3.3683   -0.5757 Cl  0  0  0  0  0  0  0  0  0  0  0  0
    0.3088    0.7222   -0.1808 C   0  0  0  0  0  0  0  0  0  0  0  0
    1.6350    1.0417    0.1861 C   0  0  0  0  0  0  0  0  0  0  0  0
    2.5370    0.0398    0.5278 C   0  0  0  0  0  0  0  0  0  0  0  0
    2.0955   -1.2664    0.4963 C   0  0  0  0  0  0  0  0  0  0  0  0
    0.8393   -1.6239    0.1529 N   0  0  0  0  0  0  0  0  0  0  0  0
   -0.0317   -0.6463   -0.1778 C   0  0  0  0  0  0  0  0  0  0  0  0
   -0.7982   -2.8047   -0.2407 H   0  0  0  0  0  0  0  0  0  0  0  0
   -2.7230    2.0035   -1.1715 H   0  0  0  0  0  0  0  0  0  0  0  0
    1.9760    2.0744    0.2086 H   0  0  0  0  0  0  0  0  0  0  0  0
    3.5569    0.2763    0.8107 H   0  0  0  0  0  0  0  0  0  0  0  0
    2.7589   -2.0878    0.7540 H   0  0  0  0  0  0  0  0  0  0  0  0
  1  2  1  0
  2  3  1  0
  3  4  1  0
  3  5  2  0
  5  6  1  0
  6  7  1  0
  6  8  2  0
  8  9  1  0
  9 10  2  0
 10 11  1  0
 11 12  2  0
 12 13  1  0
 13  2  2  0
 13  8  1  0
  1 14  1  0
  5 15  1  0
  9 16  1  0
 10 17  1  0
 11 18  1  0
M  END
$$$$
OCNT-0496475
     RDKit          3D

 31 33  0  0  0  0  0  0  0  0999 V2000
   -1.9728   -1.2532   -2.4681 Cl  0  0  0  0  0  0  0  0  0  0  0  0
   -2.6045   -0.5020   -1.0452 C   0  0  0  0  0  0  0  0  0  0  0  0
   -3.7606    0.2734   -1.1862 C   0  0  0  0  0  0  0  0  0  0  0  0
   -4.3319    0.8947   -0.0764 C   0  0  0  0  0  0  0  0  0  0  0  0
   -3.7503    0.7413    1.1786 C   0  0  0  0  0  0  0  0  0  0  0  0
   -2.5964   -0.0311    1.3240 C   0  0  0  0  0  0  0  0  0  0  0  0
   -2.0039   -0.6639    0.2145 C   0  0  0  0  0  0  0  0  0  0  0  0
   -0.7448   -1.4810    0.4191 C   0  0  0  0  0  0  0  0  0  0  0  0
    0.4747   -0.8209   -0.0744 N   0  0  0  0  0  0  0  0  0  0  0  0
    1.6027   -1.7804   -0.0906 C   0  0  0  0  0  0  0  0  0  0  0  0
    2.8441   -1.2088   -0.8088 C   0  0  0  0  0  0  0  0  0  0  0  0
    3.0839    0.1891   -0.3463 C   0  0  0  0  0  0  0  0  0  0  0  0
    2.1433    0.9354    0.3341 C   0  0  0  0  0  0  0  0  0  0  0  0
    2.6416    2.2453    0.6167 C   0  0  0  0  0  0  0  0  0  0  0  0
    3.9226    2.4297    0.1399 C   0  0  0  0  0  0  0  0  0  0  0  0
    4.5264    1.0314   -0.6431 S   0  0  0  0  0  0  0  0  0  0  0  0
    0.8003    0.3817    0.7263 C   0  0  0  0  0  0  0  0  0  0  0  0
   -4.2211    0.3964   -2.1634 H   0  0  0  0  0  0  0  0  0  0  0  0
   -5.2295    1.4967   -0.1926 H   0  0  0  0  0  0  0  0  0  0  0  0
   -4.1940    1.2248    2.0457 H   0  0  0  0  0  0  0  0  0  0  0  0
   -2.1561   -0.1346    2.3138 H   0  0  0  0  0  0  0  0  0  0  0  0
   -0.6356   -1.7437    1.4806 H   0  0  0  0  0  0  0  0  0  0  0  0
   -0.8941   -2.4405   -0.0939 H   0  0  0  0  0  0  0  0  0  0  0  0
    1.3138   -2.6987   -0.6170 H   0  0  0  0  0  0  0  0  0  0  0  0
    1.8666   -2.0683    0.9365 H   0  0  0  0  0  0  0  0  0  0  0  0
    2.6710   -1.2040   -1.8921 H   0  0  0  0  0  0  0  0  0  0  0  0
    3.7107   -1.8482   -0.6070 H   0  0  0  0  0  0  0  0  0  0  0  0
    2.0891    3.0148    1.1418 H   0  0  0  0  0  0  0  0  0  0  0  0
    4.5351    3.3177    0.2110 H   0  0  0  0  0  0  0  0  0  0  0  0
    0.8225    0.1466    1.7983 H   0  0  0  0  0  0  0  0  0  0  0  0
    0.0471    1.1600    0.5593 H   0  0  0  0  0  0  0  0  0  0  0  0
  1  2  1  0
  2  3  2  0
  3  4  1  0
  4  5  2  0
  5  6  1  0
  6  7  2  0
  7  8  1  0
  8  9  1  0
  9 10  1  0
 10 11  1  0
 11 12  1  0
 12 13  2  0
 13 14  1  0
 14 15  2  0
 15 16  1  0
 13 17  1  0
  7  2  1  0
 17  9  1  0
 16 12  1  0
  3 18  1  0
  4 19  1  0
  5 20  1  0
  6 21  1  0
  8 22  1  0
  8 23  1  0
 10 24  1  0
 10 25  1  0
 11 26  1  0
 11 27  1  0
 14 28  1  0
 15 29  1  0
 17 30  1  0
 17 31  1  0
M  END
$$$$
OCNT-0497719
     RDKit          3D

 38 40  0  0  0  0  0  0  0  0999 V2000
    2.9634    2.5007   -1.0155 O   0  0  0  0  0  0  0  0  0  0  0  0
    2.5206    1.3659   -1.1738 C   0  0  0  0  0  0  0  0  0  0  0  0
    1.4257    1.0911   -2.1937 C   0  0  0  0  0  0  0  0  0  0  0  0
    0.1166    0.6782   -1.5656 C   0  0  0  0  0  0  0  0  0  0  0  0
   -0.5328    1.5237   -0.6599 C   0  0  0  0  0  0  0  0  0  0  0  0
   -1.7449    1.1426   -0.0760 C   0  0  0  0  0  0  0  0  0  0  0  0
   -2.3464   -0.0872   -0.3859 C   0  0  0  0  0  0  0  0  0  0  0  0
   -3.6266   -0.4810    0.2264 C   0  0  0  0  0  0  0  0  0  0  0  0
   -3.7964   -0.4733    1.6206 C   0  0  0  0  0  0  0  0  0  0  0  0
   -5.0161   -0.8330    2.2022 C   0  0  0  0  0  0  0  0  0  0  0  0
   -6.0870   -1.2099    1.4000 C   0  0  0  0  0  0  0  0  0  0  0  0
   -5.9399   -1.2270    0.0159 C   0  0  0  0  0  0  0  0  0  0  0  0
   -4.7199   -0.8657   -0.5645 C   0  0  0  0  0  0  0  0  0  0  0  0
   -1.6914   -0.9243   -1.3017 C   0  0  0  0  0  0  0  0  0  0  0  0
   -0.4767   -0.5492   -1.8862 C   0  0  0  0  0  0  0  0  0  0  0  0
    2.9321    0.2331   -0.5114 N   0  0  0  0  0  0  0  0  0  0  0  0
    3.9150    0.1089    0.4689 C   0  0  0  0  0  0  0  0  0  0  0  0
    4.6720    1.1657    0.9571 C   0  0  0  0  0  0  0  0  0  0  0  0
    5.6274    0.9095    1.9403 C   0  0  0  0  0  0  0  0  0  0  0  0
    5.7995   -0.3879    2.4041 C   0  0  0  0  0  0  0  0  0  0  0  0
    5.0020   -1.3799    1.8625 C   0  0  0  0  0  0  0  0  0  0  0  0
    4.0683   -1.1596    0.9097 N   0  0  0  0  0  0  0  0  0  0  0  0
    1.7909    0.3212   -2.8859 H   0  0  0  0  0  0  0  0  0  0  0  0
    1.2660    1.9947   -2.7938 H   0  0  0  0  0  0  0  0  0  0  0  0
   -0.1009    2.4875   -0.3962 H   0  0  0  0  0  0  0  0  0  0  0  0
   -2.2266    1.8245    0.6209 H   0  0  0  0  0  0  0  0  0  0  0  0
   -2.9683   -0.1932    2.2708 H   0  0  0  0  0  0  0  0  0  0  0  0
   -5.1275   -0.8174    3.2819 H   0  0  0  0  0  0  0  0  0  0  0  0
   -7.0362   -1.4873    1.8516 H   0  0  0  0  0  0  0  0  0  0  0  0
   -6.7756   -1.5136   -0.6159 H   0  0  0  0  0  0  0  0  0  0  0  0
   -4.6322   -0.8686   -1.6488 H   0  0  0  0  0  0  0  0  0  0  0  0
   -2.1238   -1.8882   -1.5617 H   0  0  0  0  0  0  0  0  0  0  0  0
   -0.0043   -1.2269   -2.5920 H   0  0  0  0  0  0  0  0  0  0  0  0
    2.4734   -0.6483   -0.7046 H   0  0  0  0  0  0  0  0  0  0  0  0
    4.5434    2.1821    0.6035 H   0  0  0  0  0  0  0  0  0  0  0  0
    6.2288    1.7223    2.3382 H   0  0  0  0  0  0  0  0  0  0  0  0
    6.5347   -0.6186    3.1668 H   0  0  0  0  0  0  0  0  0  0  0  0
    5.0935   -2.4117    2.1904 H   0  0  0  0  0  0  0  0  0  0  0  0
  1  2  2  0
  2  3  1  0
  3  4  1  0
  4  5  1  0
  5  6  2  0
  6  7  1  0
  7  8  1  0
  8  9  2  0
  9 10  1  0
 10 11  2  0
 11 12  1  0
 12 13  2  0
  7 14  2  0
 14 15  1  0
  2 16  1  0
 16 17  1  0
 17 18  2  0
 18 19  1  0
 19 20  2  0
 20 21  1  0
 21 22  2  0
 15  4  2  0
 22 17  1  0
 13  8  1  0
  3 23  1  0
  3 24  1  0
  5 25  1  0
  6 26  1  0
  9 27  1  0
 10 28  1  0
 11 29  1  0
 12 30  1  0
 13 31  1  0
 14 32  1  0
 15 33  1  0
 16 34  1  0
 18 35  1  0
 19 36  1  0
 20 37  1  0
 21 38  1  0
M  END
$$$$
OCNT-0497926
     RDKit          3D

 32 34  0  0  0  0  0  0  0  0999 V2000
    1.3498    0.7691   -3.0220 O   0  0  0  0  0  0  0  0  0  0  0  0
    1.1201    0.6449   -1.8210 C   0  0  0  0  0  0  0  0  0  0  0  0
    2.2373    0.1880   -0.9562 C   0  0  0  0  0  0  0  0  0  0  0  0
    3.0635   -0.8468   -1.4090 C   0  0  0  0  0  0  0  0  0  0  0  0
    4.1241   -1.2868   -0.6164 C   0  0  0  0  0  0  0  0  0  0  0  0
    4.3683   -0.6853    0.6189 C   0  0  0  0  0  0  0  0  0  0  0  0
    3.5604    0.3630    1.0617 C   0  0  0  0  0  0  0  0  0  0  0  0
    2.4975    0.8065    0.2733 C   0  0  0  0  0  0  0  0  0  0  0  0
   -0.1718    0.9418   -1.2305 C   0  0  0  0  0  0  0  0  0  0  0  0
   -1.0860    1.9060   -1.6560 C   0  0  0  0  0  0  0  0  0  0  0  0
   -2.2425    1.8568   -0.8259 C   0  0  0  0  0  0  0  0  0  0  0  0
   -2.0232    0.8319    0.0531 C   0  0  0  0  0  0  0  0  0  0  0  0
   -2.7060    0.0964    1.1508 C   0  0  0  0  0  0  0  0  0  0  0  0
   -4.1547   -0.1942    0.8318 C   0  0  0  0  0  0  0  0  0  0  0  0
   -5.1163    0.2377    1.4505 O   0  0  0  0  0  0  0  0  0  0  0  0
   -4.3474   -0.9945   -0.2355 O   0  0  0  0  0  0  0  0  0  0  0  0
   -1.8393   -1.1838    1.2720 C   0  0  0  0  0  0  0  0  0  0  0  0
   -0.4780   -0.8336    0.6469 C   0  0  0  0  0  0  0  0  0  0  0  0
   -0.7837    0.3139   -0.1902 N   0  0  0  0  0  0  0  0  0  0  0  0
    2.8833   -1.3060   -2.3789 H   0  0  0  0  0  0  0  0  0  0  0  0
    4.7662   -2.0914   -0.9668 H   0  0  0  0  0  0  0  0  0  0  0  0
    5.2007   -1.0249    1.2312 H   0  0  0  0  0  0  0  0  0  0  0  0
    3.7676    0.8420    2.0157 H   0  0  0  0  0  0  0  0  0  0  0  0
    1.8892    1.6405    0.6156 H   0  0  0  0  0  0  0  0  0  0  0  0
   -0.9242    2.5773   -2.4915 H   0  0  0  0  0  0  0  0  0  0  0  0
   -3.1289    2.4729   -0.9048 H   0  0  0  0  0  0  0  0  0  0  0  0
   -2.6527    0.6756    2.0797 H   0  0  0  0  0  0  0  0  0  0  0  0
   -5.3212   -1.0293   -0.3363 H   0  0  0  0  0  0  0  0  0  0  0  0
   -2.2809   -2.0286    0.7294 H   0  0  0  0  0  0  0  0  0  0  0  0
   -1.7334   -1.5041    2.3142 H   0  0  0  0  0  0  0  0  0  0  0  0
   -0.0755   -1.6417    0.0318 H   0  0  0  0  0  0  0  0  0  0  0  0
    0.2376   -0.5134    1.4082 H   0  0  0  0  0  0  0  0  0  0  0  0
  1  2  2  0
  2  3  1  0
  3  4  2  0
  4  5  1  0
  5  6  2  0
  6  7  1  0
  7  8  2  0
  2  9  1  0
  9 10  2  0
 10 11  1  0
 11 12  2  0
 12 13  1  0
 13 14  1  0
 14 15  2  0
 14 16  1  0
 13 17  1  0
 17 18  1  0
 18 19  1  0
  8  3  1  0
 19  9  1  0
 19 12  1  0
  4 20  1  0
  5 21  1  0
  6 22  1  0
  7 23  1  0
  8 24  1  0
 10 25  1  0
 11 26  1  0
 13 27  1  0
 16 28  1  0
 17 29  1  0
 17 30  1  0
 18 31  1  0
 18 32  1  0
M  END
$$$$
OCNT-0497946
     RDKit          3D

 33 33  0  0  0  0  0  0  0  0999 V2000
   -4.9685    1.1198    0.3215 C   0  0  0  0  0  0  0  0  0  0  0  0
   -4.7517   -0.3581    0.6068 C   0  0  0  0  0  0  0  0  0  0  0  0
   -4.2538   -1.1471   -0.6080 C   0  0  0  0  0  0  0  0  0  0  0  0
   -2.8883   -0.7079   -1.1300 C   0  0  0  0  0  0  0  0  0  0  0  0
   -1.9222   -0.8265   -0.0884 O   0  0  0  0  0  0  0  0  0  0  0  0
   -0.6264   -0.4174   -0.5181 C   0  0  0  0  0  0  0  0  0  0  0  0
    0.3611   -0.5648    0.6331 C   0  0  0  0  0  0  0  0  0  0  0  0
    1.6590   -0.1486    0.1858 O   0  0  0  0  0  0  0  0  0  0  0  0
    2.6256   -0.2360    1.1328 C   0  0  0  0  0  0  0  0  0  0  0  0
    2.4736   -0.6244    2.2791 O   0  0  0  0  0  0  0  0  0  0  0  0
    3.9259    0.2109    0.5889 C   0  0  0  0  0  0  0  0  0  0  0  0
    4.1078    0.6572   -0.7232 C   0  0  0  0  0  0  0  0  0  0  0  0
    5.3762    1.0581   -1.1408 C   0  0  0  0  0  0  0  0  0  0  0  0
    6.4200    0.9986   -0.2307 C   0  0  0  0  0  0  0  0  0  0  0  0
    6.2793    0.5729    1.0432 N   0  0  0  0  0  0  0  0  0  0  0  0
    5.0350    0.1883    1.4251 C   0  0  0  0  0  0  0  0  0  0  0  0
   -5.6404    1.2614   -0.5308 H   0  0  0  0  0  0  0  0  0  0  0  0
   -5.4180    1.6083    1.1920 H   0  0  0  0  0  0  0  0  0  0  0  0
   -4.0243    1.6292    0.1076 H   0  0  0  0  0  0  0  0  0  0  0  0
   -5.7034   -0.7933    0.9348 H   0  0  0  0  0  0  0  0  0  0  0  0
   -4.0526   -0.4684    1.4437 H   0  0  0  0  0  0  0  0  0  0  0  0
   -4.1923   -2.2023   -0.3140 H   0  0  0  0  0  0  0  0  0  0  0  0
   -4.9890   -1.0802   -1.4184 H   0  0  0  0  0  0  0  0  0  0  0  0
   -2.9246    0.3258   -1.4906 H   0  0  0  0  0  0  0  0  0  0  0  0
   -2.5980   -1.3538   -1.9668 H   0  0  0  0  0  0  0  0  0  0  0  0
   -0.3008   -1.0301   -1.3674 H   0  0  0  0  0  0  0  0  0  0  0  0
   -0.6531    0.6269   -0.8518 H   0  0  0  0  0  0  0  0  0  0  0  0
    0.0382    0.0535    1.4796 H   0  0  0  0  0  0  0  0  0  0  0  0
    0.3935   -1.6107    0.9619 H   0  0  0  0  0  0  0  0  0  0  0  0
    3.2789    0.6976   -1.4240 H   0  0  0  0  0  0  0  0  0  0  0  0
    5.5468    1.4088   -2.1529 H   0  0  0  0  0  0  0  0  0  0  0  0
    7.4259    1.3003   -0.5099 H   0  0  0  0  0  0  0  0  0  0  0  0
    4.9606   -0.1480    2.4570 H   0  0  0  0  0  0  0  0  0  0  0  0
  1  2  1  0
  2  3  1  0
  3  4  1  0
  4  5  1  0
  5  6  1  0
  6  7  1  0
  7  8  1  0
  8  9  1  0
  9 10  2  0
  9 11  1  0
 11 12  1  0
 12 13  2  0
 13 14  1  0
 14 15  2  0
 15 16  1  0
 16 11  2  0
  1 17  1  0
  1 18  1  0
  1 19  1  0
  2 20  1  0
  2 21  1  0
  3 22  1  0
  3 23  1  0
  4 24  1  0
  4 25  1  0
  6 26  1  0
  6 27  1  0
  7 28  1  0
  7 29  1  0
 12 30  1  0
 13 31  1  0
 14 32  1  0
 16 33  1  0
M  END
$$$$
OCNT-0497954
     RDKit          3D

 39 41  0  0  0  0  0  0  0  0999 V2000
    4.0774    0.4688    0.0778 C   0  0  0  0  0  0  0  0  0  0  0  0
    3.8011   -0.9539    0.2616 N   0  0  0  0  0  0  0  0  0  0  0  0
    4.3035   -1.7351   -0.8646 C   0  0  0  0  0  0  0  0  0  0  0  0
    2.3859   -1.2236    0.5590 C   0  0  0  0  0  0  0  0  0  0  0  0
    1.3694   -0.9376   -0.5622 C   0  0  0  0  0  0  0  0  0  0  0  0
   -0.0478   -1.1599   -0.0918 C   0  0  0  0  0  0  0  0  0  0  0  0
   -1.0390   -0.2576    0.0957 C   0  0  0  0  0  0  0  0  0  0  0  0
   -2.4051   -0.7869    0.3702 C   0  0  0  0  0  0  0  0  0  0  0  0
   -2.6399   -1.7810    1.3339 C   0  0  0  0  0  0  0  0  0  0  0  0
   -3.9335   -2.2519    1.5671 C   0  0  0  0  0  0  0  0  0  0  0  0
   -5.0061   -1.7304    0.8479 C   0  0  0  0  0  0  0  0  0  0  0  0
   -4.7902   -0.7275   -0.0981 C   0  0  0  0  0  0  0  0  0  0  0  0
   -3.4973   -0.2424   -0.3338 C   0  0  0  0  0  0  0  0  0  0  0  0
   -3.2883    1.0656   -1.5441 S   0  0  0  0  0  0  0  0  0  0  0  0
   -1.8308    1.8871   -0.9000 C   0  0  0  0  0  0  0  0  0  0  0  0
   -1.6823    3.2588   -1.1466 C   0  0  0  0  0  0  0  0  0  0  0  0
   -0.5941    3.9560   -0.6194 C   0  0  0  0  0  0  0  0  0  0  0  0
    0.3367    3.2855    0.1688 C   0  0  0  0  0  0  0  0  0  0  0  0
    1.6657    4.1470    0.8413 Cl  0  0  0  0  0  0  0  0  0  0  0  0
    0.2020    1.9207    0.4192 C   0  0  0  0  0  0  0  0  0  0  0  0
   -0.8596    1.1983   -0.1458 C   0  0  0  0  0  0  0  0  0  0  0  0
    3.7248    1.0472    0.9389 H   0  0  0  0  0  0  0  0  0  0  0  0
    5.1577    0.6397    0.0096 H   0  0  0  0  0  0  0  0  0  0  0  0
    3.6144    0.8771   -0.8266 H   0  0  0  0  0  0  0  0  0  0  0  0
    5.3900   -1.6218   -0.9508 H   0  0  0  0  0  0  0  0  0  0  0  0
    3.8567   -1.4347   -1.8185 H   0  0  0  0  0  0  0  0  0  0  0  0
    4.1119   -2.8030   -0.7123 H   0  0  0  0  0  0  0  0  0  0  0  0
    2.1101   -0.6579    1.4588 H   0  0  0  0  0  0  0  0  0  0  0  0
    2.2961   -2.2777    0.8554 H   0  0  0  0  0  0  0  0  0  0  0  0
    1.5443   -1.6216   -1.4019 H   0  0  0  0  0  0  0  0  0  0  0  0
    1.5024    0.0671   -0.9695 H   0  0  0  0  0  0  0  0  0  0  0  0
   -0.2760   -2.2194    0.0323 H   0  0  0  0  0  0  0  0  0  0  0  0
   -1.8188   -2.1899    1.9178 H   0  0  0  0  0  0  0  0  0  0  0  0
   -4.1035   -3.0243    2.3132 H   0  0  0  0  0  0  0  0  0  0  0  0
   -6.0131   -2.0981    1.0286 H   0  0  0  0  0  0  0  0  0  0  0  0
   -5.6388   -0.3223   -0.6444 H   0  0  0  0  0  0  0  0  0  0  0  0
   -2.4197    3.7953   -1.7398 H   0  0  0  0  0  0  0  0  0  0  0  0
   -0.4895    5.0201   -0.8138 H   0  0  0  0  0  0  0  0  0  0  0  0
    0.9234    1.4239    1.0611 H   0  0  0  0  0  0  0  0  0  0  0  0
  1  2  1  0
  2  3  1  0
  2  4  1  0
  4  5  1  0
  5  6  1  0
  6  7  2  0
  7  8  1  0
  8  9  2  0
  9 10  1  0
 10 11  2  0
 11 12  1  0
 12 13  2  0
 13 14  1  0
 14 15  1  0
 15 16  1  0
 16 17  2  0
 17 18  1  0
 18 19  1  0
 18 20  2  0
 20 21  1  0
 21  7  1  0
 13  8  1  0
 21 15  2  0
  1 22  1  0
  1 23  1  0
  1 24  1  0
  3 25  1  0
  3 26  1  0
  3 27  1  0
  4 28  1  0
  4 29  1  0
  5 30  1  0
  5 31  1  0
  6 32  1  0
  9 33  1  0
 10 34  1  0
 11 35  1  0
 12 36  1  0
 16 37  1  0
 17 38  1  0
 20 39  1  0
M  END
$$$$
OCNT-0497994
     RDKit          3D

 44 45  0  0  0  0  0  0  0  0999 V2000
    4.2815   -2.7866    0.9659 C   0  0  0  0  0  0  0  0  0  0  0  0
    2.8810   -2.5984    1.5174 C   0  0  0  0  0  0  0  0  0  0  0  0
    2.2634   -1.4521    0.9155 O   0  0  0  0  0  0  0  0  0  0  0  0
    1.6198   -1.6754   -0.2551 C   0  0  0  0  0  0  0  0  0  0  0  0
    1.5426   -2.7375   -0.8517 O   0  0  0  0  0  0  0  0  0  0  0  0
    1.0139   -0.4104   -0.7216 C   0  0  0  0  0  0  0  0  0  0  0  0
    1.1890    0.0257   -1.9897 C   0  0  0  0  0  0  0  0  0  0  0  0
    2.0372   -0.6687   -3.0253 C   0  0  0  0  0  0  0  0  0  0  0  0
    0.5892    1.2090   -2.3948 N   0  0  0  0  0  0  0  0  0  0  0  0
   -0.1189    2.0572   -1.5571 C   0  0  0  0  0  0  0  0  0  0  0  0
   -0.5327    3.3771   -2.1557 C   0  0  0  0  0  0  0  0  0  0  0  0
   -0.3543    1.6842   -0.2792 C   0  0  0  0  0  0  0  0  0  0  0  0
   -1.0741    2.5351    0.6886 C   0  0  0  0  0  0  0  0  0  0  0  0
   -0.6224    2.8484    1.7780 O   0  0  0  0  0  0  0  0  0  0  0  0
   -2.3086    2.8345    0.2121 O   0  0  0  0  0  0  0  0  0  0  0  0
   -3.1057    3.5942    1.1205 C   0  0  0  0  0  0  0  0  0  0  0  0
    0.1514    0.3563    0.2809 C   0  0  0  0  0  0  0  0  0  0  0  0
   -1.0210   -0.5127    0.7691 C   0  0  0  0  0  0  0  0  0  0  0  0
   -1.9874   -0.9319   -0.1739 C   0  0  0  0  0  0  0  0  0  0  0  0
   -3.0735   -1.7200    0.2011 C   0  0  0  0  0  0  0  0  0  0  0  0
   -3.2196   -2.1090    1.5277 C   0  0  0  0  0  0  0  0  0  0  0  0
   -2.2794   -1.7117    2.4821 C   0  0  0  0  0  0  0  0  0  0  0  0
   -2.5424   -2.2475    4.1082 Cl  0  0  0  0  0  0  0  0  0  0  0  0
   -1.1787   -0.9154    2.1138 C   0  0  0  0  0  0  0  0  0  0  0  0
   -0.0243   -0.4429    3.3206 Cl  0  0  0  0  0  0  0  0  0  0  0  0
    4.8778   -1.8803    1.1138 H   0  0  0  0  0  0  0  0  0  0  0  0
    4.7833   -3.6239    1.4590 H   0  0  0  0  0  0  0  0  0  0  0  0
    4.2571   -2.9791   -0.1114 H   0  0  0  0  0  0  0  0  0  0  0  0
    2.9314   -2.4068    2.5942 H   0  0  0  0  0  0  0  0  0  0  0  0
    2.2704   -3.4980    1.3784 H   0  0  0  0  0  0  0  0  0  0  0  0
    2.7628   -1.3632   -2.5936 H   0  0  0  0  0  0  0  0  0  0  0  0
    1.3998   -1.2183   -3.7253 H   0  0  0  0  0  0  0  0  0  0  0  0
    2.6175    0.0653   -3.5960 H   0  0  0  0  0  0  0  0  0  0  0  0
    0.8014    1.5437   -3.3319 H   0  0  0  0  0  0  0  0  0  0  0  0
   -0.7906    4.1285   -1.4045 H   0  0  0  0  0  0  0  0  0  0  0  0
   -1.3936    3.2360   -2.8170 H   0  0  0  0  0  0  0  0  0  0  0  0
    0.2875    3.7996   -2.7472 H   0  0  0  0  0  0  0  0  0  0  0  0
   -4.0724    3.7837    0.6460 H   0  0  0  0  0  0  0  0  0  0  0  0
   -2.6308    4.5567    1.3353 H   0  0  0  0  0  0  0  0  0  0  0  0
   -3.2772    3.0309    2.0432 H   0  0  0  0  0  0  0  0  0  0  0  0
    0.8143    0.6254    1.1104 H   0  0  0  0  0  0  0  0  0  0  0  0
   -1.8941   -0.6434   -1.2215 H   0  0  0  0  0  0  0  0  0  0  0  0
   -3.8024   -2.0322   -0.5433 H   0  0  0  0  0  0  0  0  0  0  0  0
   -4.0681   -2.7259    1.8141 H   0  0  0  0  0  0  0  0  0  0  0  0
  1  2  1  0
  2  3  1  0
  3  4  1  0
  4  5  2  0
  4  6  1  0
  6  7  2  0
  7  8  1  0
  7  9  1  0
  9 10  1  0
 10 11  1  0
 10 12  2  0
 12 13  1  0
 13 14  2  0
 13 15  1  0
 15 16  1  0
 12 17  1  0
 17 18  1  0
 18 19  2  0
 19 20  1  0
 20 21  2  0
 21 22  1  0
 22 23  1  0
 22 24  2  0
 24 25  1  0
 17  6  1  0
 24 18  1  0
  1 26  1  0
  1 27  1  0
  1 28  1  0
  2 29  1  0
  2 30  1  0
  8 31  1  0
  8 32  1  0
  8 33  1  0
  9 34  1  0
 11 35  1  0
 11 36  1  0
 11 37  1  0
 16 38  1  0
 16 39  1  0
 16 40  1  0
 17 41  1  0
 19 42  1  0
 20 43  1  0
 21 44  1  0
M  END
$$$$
OCNT-0498014
     RDKit          3D

 43 44  0  0  0  0  0  0  0  0999 V2000
   -0.0704   -4.2072    1.3608 C   0  0  0  0  0  0  0  0  0  0  0  0
    0.2057   -2.9641    0.7133 O   0  0  0  0  0  0  0  0  0  0  0  0
    1.0627   -2.1631    1.4008 C   0  0  0  0  0  0  0  0  0  0  0  0
    1.6006   -2.4131    2.4654 O   0  0  0  0  0  0  0  0  0  0  0  0
    1.2837   -0.9238    0.6343 C   0  0  0  0  0  0  0  0  0  0  0  0
    2.4579   -0.7072    0.0051 C   0  0  0  0  0  0  0  0  0  0  0  0
    3.5874   -1.6982   -0.0618 C   0  0  0  0  0  0  0  0  0  0  0  0
    2.6828    0.5119   -0.6170 N   0  0  0  0  0  0  0  0  0  0  0  0
    1.8456    1.6146   -0.4977 C   0  0  0  0  0  0  0  0  0  0  0  0
    2.3915    2.9155   -1.0295 C   0  0  0  0  0  0  0  0  0  0  0  0
    0.6432    1.4766    0.1060 C   0  0  0  0  0  0  0  0  0  0  0  0
   -0.3316    2.5760    0.2892 C   0  0  0  0  0  0  0  0  0  0  0  0
   -1.0025    2.7127    1.3047 O   0  0  0  0  0  0  0  0  0  0  0  0
   -0.4466    3.3101   -0.8466 O   0  0  0  0  0  0  0  0  0  0  0  0
   -1.4235    4.3444   -0.7689 C   0  0  0  0  0  0  0  0  0  0  0  0
    0.1819    0.1292    0.6767 C   0  0  0  0  0  0  0  0  0  0  0  0
   -1.0923   -0.3402   -0.0468 C   0  0  0  0  0  0  0  0  0  0  0  0
   -1.0568   -0.5312   -1.4463 C   0  0  0  0  0  0  0  0  0  0  0  0
   -2.1993   -0.9098   -2.1613 C   0  0  0  0  0  0  0  0  0  0  0  0
   -3.4096   -1.1085   -1.5002 C   0  0  0  0  0  0  0  0  0  0  0  0
   -3.4791   -0.9405   -0.1188 C   0  0  0  0  0  0  0  0  0  0  0  0
   -2.3277   -0.5668    0.5967 C   0  0  0  0  0  0  0  0  0  0  0  0
   -2.4720   -0.4610    2.0439 N   0  0  0  0  0  0  0  0  0  0  0  0
   -3.3967    0.2492    2.4742 O   0  0  0  0  0  0  0  0  0  0  0  0
   -1.6948   -1.1318    2.7377 O   0  0  0  0  0  0  0  0  0  0  0  0
   -0.7329   -4.7914    0.7137 H   0  0  0  0  0  0  0  0  0  0  0  0
    0.8543   -4.7703    1.5059 H   0  0  0  0  0  0  0  0  0  0  0  0
   -0.5735   -4.0406    2.3177 H   0  0  0  0  0  0  0  0  0  0  0  0
    3.8463   -1.9013   -1.1064 H   0  0  0  0  0  0  0  0  0  0  0  0
    4.4756   -1.2835    0.4294 H   0  0  0  0  0  0  0  0  0  0  0  0
    3.3627   -2.6590    0.4066 H   0  0  0  0  0  0  0  0  0  0  0  0
    3.6113    0.6752   -0.9911 H   0  0  0  0  0  0  0  0  0  0  0  0
    1.9864    3.7881   -0.5096 H   0  0  0  0  0  0  0  0  0  0  0  0
    2.1709    3.0056   -2.0980 H   0  0  0  0  0  0  0  0  0  0  0  0
    3.4786    2.9602   -0.9041 H   0  0  0  0  0  0  0  0  0  0  0  0
   -2.4187    3.9202   -0.6040 H   0  0  0  0  0  0  0  0  0  0  0  0
   -1.1642    5.0530    0.0176 H   0  0  0  0  0  0  0  0  0  0  0  0
   -1.4261    4.8793   -1.7240 H   0  0  0  0  0  0  0  0  0  0  0  0
   -0.0197    0.3177    1.7383 H   0  0  0  0  0  0  0  0  0  0  0  0
   -0.1274   -0.3789   -1.9990 H   0  0  0  0  0  0  0  0  0  0  0  0
   -2.1414   -1.0447   -3.2408 H   0  0  0  0  0  0  0  0  0  0  0  0
   -4.2959   -1.3966   -2.0597 H   0  0  0  0  0  0  0  0  0  0  0  0
   -4.4263   -1.1068    0.3935 H   0  0  0  0  0  0  0  0  0  0  0  0
  1  2  1  0
  2  3  1  0
  3  4  2  0
  3  5  1  0
  5  6  2  0
  6  7  1  0
  6  8  1  0
  8  9  1  0
  9 10  1  0
  9 11  2  0
 11 12  1  0
 12 13  2  0
 12 14  1  0
 14 15  1  0
 11 16  1  0
 16 17  1  0
 17 18  2  0
 18 19  1  0
 19 20  2  0
 20 21  1  0
 21 22  2  0
 22 23  1  0
 23 24  2  0
 23 25  1  0
 16  5  1  0
 22 17  1  0
  1 26  1  0
  1 27  1  0
  1 28  1  0
  7 29  1  0
  7 30  1  0
  7 31  1  0
  8 32  1  0
 10 33  1  0
 10 34  1  0
 10 35  1  0
 15 36  1  0
 15 37  1  0
 15 38  1  0
 16 39  1  0
 18 40  1  0
 19 41  1  0
 20 42  1  0
 21 43  1  0
M  CHG  2  23   1  25  -1
M  END
$$$$
OCNT-0498030
     RDKit          3D

 46 48  0  0  0  0  0  0  0  0999 V2000
    3.5574    2.5845   -3.4482 C   0  0  0  0  0  0  0  0  0  0  0  0
    3.7989    1.6932   -2.2686 C   0  0  0  0  0  0  0  0  0  0  0  0
    4.9751    0.9526   -2.1517 C   0  0  0  0  0  0  0  0  0  0  0  0
    5.1475    0.1707   -1.0223 C   0  0  0  0  0  0  0  0  0  0  0  0
    4.2419    0.0779   -0.0228 N   0  0  0  0  0  0  0  0  0  0  0  0
    3.1109    0.8095   -0.1387 C   0  0  0  0  0  0  0  0  0  0  0  0
    2.2411    0.6403    0.9398 N   0  0  0  0  0  0  0  0  0  0  0  0
    0.9938    1.1904    1.1315 C   0  0  0  0  0  0  0  0  0  0  0  0
    0.4283    1.9685    0.3633 O   0  0  0  0  0  0  0  0  0  0  0  0
    0.2771    0.7089    2.4035 C   0  0  0  0  0  0  0  0  0  0  0  0
    1.1283    0.8877    3.6646 C   0  0  0  0  0  0  0  0  0  0  0  0
   -0.2982   -0.6855    2.1952 C   0  0  0  0  0  0  0  0  0  0  0  0
    0.3712   -1.8559    2.5785 C   0  0  0  0  0  0  0  0  0  0  0  0
   -0.1838   -3.1117    2.3166 C   0  0  0  0  0  0  0  0  0  0  0  0
   -1.4082   -3.2169    1.6556 C   0  0  0  0  0  0  0  0  0  0  0  0
   -2.0838   -2.0636    1.2514 C   0  0  0  0  0  0  0  0  0  0  0  0
   -3.3918   -2.2087    0.5572 C   0  0  0  0  0  0  0  0  0  0  0  0
   -4.1216   -3.1567    0.8380 O   0  0  0  0  0  0  0  0  0  0  0  0
   -3.8411   -1.2274   -0.4614 C   0  0  0  0  0  0  0  0  0  0  0  0
   -2.9487   -0.6556   -1.3759 C   0  0  0  0  0  0  0  0  0  0  0  0
   -3.4105    0.2799   -2.3044 C   0  0  0  0  0  0  0  0  0  0  0  0
   -4.7620    0.6307   -2.3339 C   0  0  0  0  0  0  0  0  0  0  0  0
   -5.6576    0.0408   -1.4421 C   0  0  0  0  0  0  0  0  0  0  0  0
   -5.1993   -0.8922   -0.5090 C   0  0  0  0  0  0  0  0  0  0  0  0
   -1.5372   -0.8051    1.5345 C   0  0  0  0  0  0  0  0  0  0  0  0
    2.8613    1.6313   -1.2295 C   0  0  0  0  0  0  0  0  0  0  0  0
    4.1986    2.3141   -4.2944 H   0  0  0  0  0  0  0  0  0  0  0  0
    3.7596    3.6253   -3.1762 H   0  0  0  0  0  0  0  0  0  0  0  0
    2.5191    2.4991   -3.7854 H   0  0  0  0  0  0  0  0  0  0  0  0
    5.7431    0.9807   -2.9198 H   0  0  0  0  0  0  0  0  0  0  0  0
    6.0550   -0.4133   -0.8787 H   0  0  0  0  0  0  0  0  0  0  0  0
    2.5988   -0.0397    1.5970 H   0  0  0  0  0  0  0  0  0  0  0  0
   -0.5750    1.3928    2.5410 H   0  0  0  0  0  0  0  0  0  0  0  0
    2.0317    0.2693    3.6665 H   0  0  0  0  0  0  0  0  0  0  0  0
    1.4534    1.9301    3.7564 H   0  0  0  0  0  0  0  0  0  0  0  0
    0.5482    0.6332    4.5596 H   0  0  0  0  0  0  0  0  0  0  0  0
    1.3322   -1.8175    3.0849 H   0  0  0  0  0  0  0  0  0  0  0  0
    0.3432   -4.0135    2.6222 H   0  0  0  0  0  0  0  0  0  0  0  0
   -1.8342   -4.1990    1.4551 H   0  0  0  0  0  0  0  0  0  0  0  0
   -1.8973   -0.9285   -1.3819 H   0  0  0  0  0  0  0  0  0  0  0  0
   -2.7147    0.7336   -3.0082 H   0  0  0  0  0  0  0  0  0  0  0  0
   -5.1196    1.3616   -3.0581 H   0  0  0  0  0  0  0  0  0  0  0  0
   -6.7130    0.3074   -1.4712 H   0  0  0  0  0  0  0  0  0  0  0  0
   -5.9017   -1.3490    0.1852 H   0  0  0  0  0  0  0  0  0  0  0  0
   -2.0753    0.0992    1.2506 H   0  0  0  0  0  0  0  0  0  0  0  0
    1.9589    2.2262   -1.2966 H   0  0  0  0  0  0  0  0  0  0  0  0
  1  2  1  0
  2  3  2  0
  3  4  1  0
  4  5  2  0
  5  6  1  0
  6  7  1  0
  7  8  1  0
  8  9  2  0
  8 10  1  0
 10 11  1  0
 10 12  1  0
 12 13  2  0
 13 14  1  0
 14 15  2  0
 15 16  1  0
 16 17  1  0
 17 18  2  0
 17 19  1  0
 19 20  2  0
 20 21  1  0
 21 22  2  0
 22 23  1  0
 23 24  2  0
 16 25  2  0
  6 26  2  0
 26  2  1  0
 25 12  1  0
 24 19  1  0
  1 27  1  0
  1 28  1  0
  1 29  1  0
  3 30  1  0
  4 31  1  0
  7 32  1  0
 10 33  1  0
 11 34  1  0
 11 35  1  0
 11 36  1  0
 13 37  1  0
 14 38  1  0
 15 39  1  0
 20 40  1  0
 21 41  1  0
 22 42  1  0
 23 43  1  0
 24 44  1  0
 25 45  1  0
 26 46  1  0
M  END
$$$$
OCNT-0498090
     RDKit          3D

 52 53  0  0  0  0  0  0  0  0999 V2000
   -5.3341    1.4159   -1.4934 C   0  0  0  0  0  0  0  0  0  0  0  0
   -3.9194    1.5925   -1.5580 O   0  0  0  0  0  0  0  0  0  0  0  0
   -3.3299    1.7736   -0.3520 C   0  0  0  0  0  0  0  0  0  0  0  0
   -3.8936    1.7808    0.7321 O   0  0  0  0  0  0  0  0  0  0  0  0
   -1.8612    1.8659   -0.4995 C   0  0  0  0  0  0  0  0  0  0  0  0
   -1.2388    2.6913   -1.3716 C   0  0  0  0  0  0  0  0  0  0  0  0
   -1.9399    3.6322   -2.3171 C   0  0  0  0  0  0  0  0  0  0  0  0
    0.1476    2.7352   -1.3963 N   0  0  0  0  0  0  0  0  0  0  0  0
    0.9763    2.0732   -0.5033 C   0  0  0  0  0  0  0  0  0  0  0  0
    2.4442    2.3976   -0.6015 C   0  0  0  0  0  0  0  0  0  0  0  0
    0.4328    1.2310    0.4031 C   0  0  0  0  0  0  0  0  0  0  0  0
    1.2167    0.5178    1.4324 C   0  0  0  0  0  0  0  0  0  0  0  0
    0.9223    0.5179    2.6177 O   0  0  0  0  0  0  0  0  0  0  0  0
    2.2179   -0.1867    0.8540 O   0  0  0  0  0  0  0  0  0  0  0  0
    2.9756   -0.9936    1.7644 C   0  0  0  0  0  0  0  0  0  0  0  0
    4.0020   -1.8121    0.9714 C   0  0  0  0  0  0  0  0  0  0  0  0
    3.3146   -2.7727   -0.0018 C   0  0  0  0  0  0  0  0  0  0  0  0
    4.9169   -2.5825    1.9209 C   0  0  0  0  0  0  0  0  0  0  0  0
   -1.0684    0.9894    0.4609 C   0  0  0  0  0  0  0  0  0  0  0  0
   -1.4120   -0.4990    0.3119 C   0  0  0  0  0  0  0  0  0  0  0  0
   -1.9858   -1.1552    1.4195 C   0  0  0  0  0  0  0  0  0  0  0  0
   -2.3175   -2.5136    1.3711 C   0  0  0  0  0  0  0  0  0  0  0  0
   -2.0856   -3.2564    0.2159 C   0  0  0  0  0  0  0  0  0  0  0  0
   -1.5208   -2.6418   -0.8976 C   0  0  0  0  0  0  0  0  0  0  0  0
   -1.1912   -1.2783   -0.8411 C   0  0  0  0  0  0  0  0  0  0  0  0
   -0.6106   -0.7204   -2.0477 N   0  0  0  0  0  0  0  0  0  0  0  0
   -1.3976   -0.2813   -2.8960 O   0  0  0  0  0  0  0  0  0  0  0  0
    0.6190   -0.7951   -2.1653 O   0  0  0  0  0  0  0  0  0  0  0  0
   -5.7085    1.3021   -2.5144 H   0  0  0  0  0  0  0  0  0  0  0  0
   -5.5806    0.5100   -0.9308 H   0  0  0  0  0  0  0  0  0  0  0  0
   -5.8113    2.2933   -1.0452 H   0  0  0  0  0  0  0  0  0  0  0  0
   -2.9626    3.8648   -2.0089 H   0  0  0  0  0  0  0  0  0  0  0  0
   -1.4100    4.5903   -2.3649 H   0  0  0  0  0  0  0  0  0  0  0  0
   -1.9631    3.2050   -3.3246 H   0  0  0  0  0  0  0  0  0  0  0  0
    0.5863    3.3577   -2.0713 H   0  0  0  0  0  0  0  0  0  0  0  0
    2.9924    2.1810    0.3198 H   0  0  0  0  0  0  0  0  0  0  0  0
    2.8994    1.8335   -1.4220 H   0  0  0  0  0  0  0  0  0  0  0  0
    2.5869    3.4660   -0.8008 H   0  0  0  0  0  0  0  0  0  0  0  0
    2.3026   -1.6611    2.3172 H   0  0  0  0  0  0  0  0  0  0  0  0
    3.4907   -0.3345    2.4736 H   0  0  0  0  0  0  0  0  0  0  0  0
    4.6132   -1.1220    0.3753 H   0  0  0  0  0  0  0  0  0  0  0  0
    2.6606   -3.4741    0.5279 H   0  0  0  0  0  0  0  0  0  0  0  0
    2.7072   -2.2285   -0.7317 H   0  0  0  0  0  0  0  0  0  0  0  0
    4.0558   -3.3558   -0.5592 H   0  0  0  0  0  0  0  0  0  0  0  0
    5.4528   -1.8964    2.5852 H   0  0  0  0  0  0  0  0  0  0  0  0
    4.3471   -3.2802    2.5437 H   0  0  0  0  0  0  0  0  0  0  0  0
    5.6629   -3.1575    1.3626 H   0  0  0  0  0  0  0  0  0  0  0  0
   -1.3754    1.3131    1.4677 H   0  0  0  0  0  0  0  0  0  0  0  0
   -2.1807   -0.6080    2.3430 H   0  0  0  0  0  0  0  0  0  0  0  0
   -2.7590   -2.9908    2.2439 H   0  0  0  0  0  0  0  0  0  0  0  0
   -2.3460   -4.3119    0.1860 H   0  0  0  0  0  0  0  0  0  0  0  0
   -1.3403   -3.2217   -1.8004 H   0  0  0  0  0  0  0  0  0  0  0  0
  1  2  1  0
  2  3  1  0
  3  4  2  0
  3  5  1  0
  5  6  2  0
  6  7  1  0
  6  8  1  0
  8  9  1  0
  9 10  1  0
  9 11  2  0
 11 12  1  0
 12 13  2  0
 12 14  1  0
 14 15  1  0
 15 16  1  0
 16 17  1  0
 16 18  1  0
 11 19  1  0
 19 20  1  0
 20 21  2  0
 21 22  1  0
 22 23  2  0
 23 24  1  0
 24 25  2  0
 25 26  1  0
 26 27  2  0
 26 28  1  0
 19  5  1  0
 25 20  1  0
  1 29  1  0
  1 30  1  0
  1 31  1  0
  7 32  1  0
  7 33  1  0
  7 34  1  0
  8 35  1  0
 10 36  1  0
 10 37  1  0
 10 38  1  0
 15 39  1  0
 15 40  1  0
 16 41  1  0
 17 42  1  0
 17 43  1  0
 17 44  1  0
 18 45  1  0
 18 46  1  0
 18 47  1  0
 19 48  1  0
 21 49  1  0
 22 50  1  0
 23 51  1  0
 24 52  1  0
M  CHG  2  26   1  28  -1
M  END
$$$$
OCNT-0498125
     RDKit          3D

 57 61  0  0  0  0  0  0  0  0999 V2000
    2.4600    1.1470   -1.5774 C   0  0  0  0  0  0  0  0  0  0  0  0
    2.4037    0.6532   -0.1118 C   0  0  2  0  0  0  0  0  0  0  0  0
    2.9065    1.7844    0.8340 C   0  0  0  0  0  0  0  0  0  0  0  0
    4.4030    2.0760    0.7287 C   0  0  0  0  0  0  0  0  0  0  0  0
    5.2305    0.8155    0.9558 C   0  0  2  0  0  0  0  0  0  0  0  0
    6.6069    1.1429    0.7769 O   0  0  0  0  0  0  0  0  0  0  0  0
    4.8232   -0.2909   -0.0186 C   0  0  0  0  0  0  0  0  0  0  0  0
    3.3347   -0.5633    0.0167 C   0  0  0  0  0  0  0  0  0  0  0  0
    2.8803   -1.8214    0.1623 C   0  0  0  0  0  0  0  0  0  0  0  0
    1.4346   -2.2080    0.1853 C   0  0  0  0  0  0  0  0  0  0  0  0
    0.4971   -1.0931   -0.3017 C   0  0  2  0  0  0  0  0  0  0  0  0
    0.9288    0.2719    0.3105 C   0  0  2  0  0  0  0  0  0  0  0  0
   -0.1149    1.3988    0.0759 C   0  0  0  0  0  0  0  0  0  0  0  0
   -1.5716    0.9864    0.3660 C   0  0  0  0  0  0  0  0  0  0  0  0
   -1.9530   -0.2992   -0.3862 C   0  0  2  0  0  0  0  0  0  0  0  0
   -1.9281   -0.0745   -1.9197 C   0  0  0  0  0  0  0  0  0  0  0  0
   -3.2417   -1.0249   -0.0143 C   0  0  0  0  0  0  0  0  0  0  0  0
   -4.5324   -0.3901    0.2876 C   0  0  0  0  0  0  0  0  0  0  0  0
   -4.9277    0.8315   -0.2619 C   0  0  0  0  0  0  0  0  0  0  0  0
   -6.1596    1.3957    0.0743 C   0  0  0  0  0  0  0  0  0  0  0  0
   -6.9735    0.7205    0.9654 C   0  0  0  0  0  0  0  0  0  0  0  0
   -6.6396   -0.4549    1.5310 N   0  0  0  0  0  0  0  0  0  0  0  0
   -5.4347   -0.9739    1.1812 C   0  0  0  0  0  0  0  0  0  0  0  0
   -3.0338   -2.3590   -0.0410 C   0  0  0  0  0  0  0  0  0  0  0  0
   -1.5944   -2.7049   -0.3036 C   0  0  0  0  0  0  0  0  0  0  0  0
   -0.9523   -1.3813    0.0965 C   0  0  1  0  0  0  0  0  0  0  0  0
    3.4860    1.3194   -1.9195 H   0  0  0  0  0  0  0  0  0  0  0  0
    2.0156    0.4233   -2.2682 H   0  0  0  0  0  0  0  0  0  0  0  0
    1.9347    2.0990   -1.7042 H   0  0  0  0  0  0  0  0  0  0  0  0
    2.3621    2.7157    0.6370 H   0  0  0  0  0  0  0  0  0  0  0  0
    2.6894    1.5146    1.8766 H   0  0  0  0  0  0  0  0  0  0  0  0
    4.6435    2.5168   -0.2466 H   0  0  0  0  0  0  0  0  0  0  0  0
    4.6847    2.8368    1.4674 H   0  0  0  0  0  0  0  0  0  0  0  0
    5.1008    0.4739    1.9901 H   0  0  0  0  0  0  0  0  0  0  0  0
    7.1237    0.3417    0.9691 H   0  0  0  0  0  0  0  0  0  0  0  0
    5.4019   -1.1945    0.2134 H   0  0  0  0  0  0  0  0  0  0  0  0
    5.1243   -0.0184   -1.0380 H   0  0  0  0  0  0  0  0  0  0  0  0
    3.5852   -2.6439    0.2685 H   0  0  0  0  0  0  0  0  0  0  0  0
    1.1819   -2.5071    1.2101 H   0  0  0  0  0  0  0  0  0  0  0  0
    1.2965   -3.0934   -0.4470 H   0  0  0  0  0  0  0  0  0  0  0  0
    0.5735   -1.0517   -1.3937 H   0  0  0  0  0  0  0  0  0  0  0  0
    0.9415    0.1181    1.4022 H   0  0  0  0  0  0  0  0  0  0  0  0
   -0.0634    1.7617   -0.9545 H   0  0  0  0  0  0  0  0  0  0  0  0
    0.1241    2.2584    0.7126 H   0  0  0  0  0  0  0  0  0  0  0  0
   -2.2298    1.8161    0.0855 H   0  0  0  0  0  0  0  0  0  0  0  0
   -1.6961    0.8479    1.4480 H   0  0  0  0  0  0  0  0  0  0  0  0
   -2.6194    0.7203   -2.2158 H   0  0  0  0  0  0  0  0  0  0  0  0
   -2.2176   -0.9729   -2.4768 H   0  0  0  0  0  0  0  0  0  0  0  0
   -0.9428    0.2199   -2.2905 H   0  0  0  0  0  0  0  0  0  0  0  0
   -4.2992    1.3627   -0.9674 H   0  0  0  0  0  0  0  0  0  0  0  0
   -6.4745    2.3407   -0.3538 H   0  0  0  0  0  0  0  0  0  0  0  0
   -7.9409    1.1191    1.2562 H   0  0  0  0  0  0  0  0  0  0  0  0
   -5.2056   -1.9125    1.6793 H   0  0  0  0  0  0  0  0  0  0  0  0
   -3.7837   -3.1215    0.1230 H   0  0  0  0  0  0  0  0  0  0  0  0
   -1.2585   -3.5230    0.3402 H   0  0  0  0  0  0  0  0  0  0  0  0
   -1.4313   -2.9737   -1.3512 H   0  0  0  0  0  0  0  0  0  0  0  0
   -0.9584   -1.3780    1.2034 H   0  0  0  0  0  0  0  0  0  0  0  0
  2  1  1  6
  2  3  1  0
  3  4  1  0
  4  5  1  0
  5  6  1  0
  5  7  1  0
  7  8  1  0
  8  9  2  0
  9 10  1  0
 10 11  1  0
 11 12  1  0
 12 13  1  0
 13 14  1  0
 14 15  1  0
 15 16  1  6
 15 17  1  0
 17 18  1  0
 18 19  1  0
 19 20  2  0
 20 21  1  0
 21 22  2  0
 22 23  1  0
 17 24  2  0
 24 25  1  0
 25 26  1  0
  8  2  1  0
 26 11  1  0
 12  2  1  0
 26 15  1  0
 23 18  2  0
  1 27  1  0
  1 28  1  0
  1 29  1  0
  3 30  1  0
  3 31  1  0
  4 32  1  0
  4 33  1  0
  5 34  1  1
  6 35  1  0
  7 36  1  0
  7 37  1  0
  9 38  1  0
 10 39  1  0
 10 40  1  0
 11 41  1  6
 12 42  1  1
 13 43  1  0
 13 44  1  0
 14 45  1  0
 14 46  1  0
 16 47  1  0
 16 48  1  0
 16 49  1  0
 19 50  1  0
 20 51  1  0
 21 52  1  0
 23 53  1  0
 24 54  1  0
 25 55  1  0
 25 56  1  0
 26 57  1  1
M  END
$$$$
OCNT-0498126
     RDKit          3D

 15 16  0  0  0  0  0  0  0  0999 V2000
    3.7538    0.1323   -0.2625 O   0  0  0  0  0  0  0  0  0  0  0  0
    2.5373    0.0357   -0.1998 C   0  0  0  0  0  0  0  0  0  0  0  0
    1.6955    1.0131    0.2783 N   0  0  0  0  0  0  0  0  0  0  0  0
    0.4177    0.5428    0.1906 C   0  0  0  0  0  0  0  0  0  0  0  0
   -0.7781    1.1269    0.5349 C   0  0  0  0  0  0  0  0  0  0  0  0
   -1.9253    0.3617    0.3134 C   0  0  0  0  0  0  0  0  0  0  0  0
   -3.4669    1.0152    0.7159 Cl  0  0  0  0  0  0  0  0  0  0  0  0
   -1.8477   -0.9363   -0.2334 C   0  0  0  0  0  0  0  0  0  0  0  0
   -0.6090   -1.4949   -0.5707 C   0  0  0  0  0  0  0  0  0  0  0  0
    0.5112   -0.7254   -0.3452 C   0  0  0  0  0  0  0  0  0  0  0  0
    1.8194   -1.0957   -0.6100 O   0  0  0  0  0  0  0  0  0  0  0  0
    2.0129    1.9044    0.6224 H   0  0  0  0  0  0  0  0  0  0  0  0
   -0.8307    2.1237    0.9543 H   0  0  0  0  0  0  0  0  0  0  0  0
   -2.7562   -1.5123   -0.3963 H   0  0  0  0  0  0  0  0  0  0  0  0
   -0.5339   -2.4912   -0.9918 H   0  0  0  0  0  0  0  0  0  0  0  0
  1  2  2  0
  2  3  1  0
  3  4  1  0
  4  5  1  0
  5  6  2  0
  6  7  1  0
  6  8  1  0
  8  9  2  0
  9 10  1  0
 10 11  1  0
 11  2  1  0
 10  4  2  0
  3 12  1  0
  5 13  1  0
  8 14  1  0
  9 15  1  0
M  END
$$$$
OCNT-0498430
     RDKit          3D

 31 33  0  0  0  0  0  0  0  0999 V2000
   -5.4856   -0.7167   -0.1111 C   0  0  0  0  0  0  0  0  0  0  0  0
   -4.8361    0.8780    0.3145 S   0  0  0  0  0  0  0  0  0  0  0  0
   -5.1734    1.8044   -0.7492 O   0  0  0  0  0  0  0  0  0  0  0  0
   -5.2042    1.1586    1.6896 O   0  0  0  0  0  0  0  0  0  0  0  0
   -3.0783    0.6261    0.2677 C   0  0  0  0  0  0  0  0  0  0  0  0
   -2.4032    0.7258   -0.9489 C   0  0  0  0  0  0  0  0  0  0  0  0
   -1.0203    0.5279   -0.9824 C   0  0  0  0  0  0  0  0  0  0  0  0
   -0.3003    0.2452    0.1903 C   0  0  0  0  0  0  0  0  0  0  0  0
    1.1400    0.0452    0.1091 C   0  0  0  0  0  0  0  0  0  0  0  0
    2.0203   -0.0589    1.1667 C   0  0  0  0  0  0  0  0  0  0  0  0
    3.2596   -0.2311    0.6028 N   0  0  0  0  0  0  0  0  0  0  0  0
    4.5002   -0.3873    1.2171 C   0  0  0  0  0  0  0  0  0  0  0  0
    5.5938   -0.5427    0.4513 C   0  0  0  0  0  0  0  0  0  0  0  0
    5.4453   -0.5424   -0.9970 C   0  0  0  0  0  0  0  0  0  0  0  0
    4.2407   -0.3901   -1.5822 C   0  0  0  0  0  0  0  0  0  0  0  0
    3.0793   -0.2252   -0.7751 C   0  0  0  0  0  0  0  0  0  0  0  0
    1.8127   -0.0596   -1.0908 N   0  0  0  0  0  0  0  0  0  0  0  0
   -0.9983    0.1664    1.4055 C   0  0  0  0  0  0  0  0  0  0  0  0
   -2.3832    0.3599    1.4486 C   0  0  0  0  0  0  0  0  0  0  0  0
   -6.5758   -0.6524   -0.0992 H   0  0  0  0  0  0  0  0  0  0  0  0
   -5.1492   -1.4471    0.6272 H   0  0  0  0  0  0  0  0  0  0  0  0
   -5.1416   -0.9881   -1.1109 H   0  0  0  0  0  0  0  0  0  0  0  0
   -2.9332    0.9616   -1.8690 H   0  0  0  0  0  0  0  0  0  0  0  0
   -0.4969    0.6043   -1.9351 H   0  0  0  0  0  0  0  0  0  0  0  0
    1.8906   -0.0204    2.2376 H   0  0  0  0  0  0  0  0  0  0  0  0
    4.5291   -0.3759    2.2989 H   0  0  0  0  0  0  0  0  0  0  0  0
    6.5829   -0.6675    0.8788 H   0  0  0  0  0  0  0  0  0  0  0  0
    6.3404   -0.6685   -1.5989 H   0  0  0  0  0  0  0  0  0  0  0  0
    4.1262   -0.3884   -2.6600 H   0  0  0  0  0  0  0  0  0  0  0  0
   -0.4790   -0.0464    2.3361 H   0  0  0  0  0  0  0  0  0  0  0  0
   -2.9026    0.3052    2.4032 H   0  0  0  0  0  0  0  0  0  0  0  0
  1  2  1  0
  2  3  2  0
  2  4  2  0
  2  5  1  0
  5  6  1  0
  6  7  2  0
  7  8  1  0
  8  9  1  0
  9 10  2  0
 10 11  1  0
 11 12  1  0
 12 13  2  0
 13 14  1  0
 14 15  2  0
 15 16  1  0
 16 17  2  0
  8 18  2  0
 18 19  1  0
 19  5  2  0
 17  9  1  0
 16 11  1  0
  1 20  1  0
  1 21  1  0
  1 22  1  0
  6 23  1  0
  7 24  1  0
 10 25  1  0
 12 26  1  0
 13 27  1  0
 14 28  1  0
 15 29  1  0
 18 30  1  0
 19 31  1  0
M  END
$$$$
OCNT-1755349
     RDKit          3D

 30 30  0  0  0  0  0  0  0  0999 V2000
    3.8177   -0.2228    0.7350 C   0  0  0  0  0  0  0  0  0  0  0  0
    3.2266    0.5864   -0.4183 C   0  0  0  0  0  0  0  0  0  0  0  0
    3.9354    1.9349   -0.5340 C   0  0  0  0  0  0  0  0  0  0  0  0
    1.7171    0.7700   -0.2286 C   0  0  0  0  0  0  0  0  0  0  0  0
    1.2225    1.8653    0.0133 O   0  0  0  0  0  0  0  0  0  0  0  0
    1.0189   -0.4209   -0.3639 N   0  0  0  0  0  0  0  0  0  0  0  0
   -0.3696   -0.6255   -0.2317 C   0  0  0  0  0  0  0  0  0  0  0  0
   -1.2821    0.3805    0.1103 C   0  0  0  0  0  0  0  0  0  0  0  0
   -2.6625    0.1144    0.2339 C   0  0  0  0  0  0  0  0  0  0  0  0
   -3.6059    1.2213    0.6274 C   0  0  0  0  0  0  0  0  0  0  0  0
   -2.9744    2.2645    1.2361 F   0  0  0  0  0  0  0  0  0  0  0  0
   -4.2609    1.7576   -0.4340 F   0  0  0  0  0  0  0  0  0  0  0  0
   -4.5539    0.8155    1.5145 F   0  0  0  0  0  0  0  0  0  0  0  0
   -3.1018   -1.1925   -0.0179 C   0  0  0  0  0  0  0  0  0  0  0  0
   -4.5160   -1.5375    0.0436 N   0  0  0  0  0  0  0  0  0  0  0  0
   -5.2929   -0.8459   -0.6232 O   0  0  0  0  0  0  0  0  0  0  0  0
   -4.8251   -2.5181    0.7318 O   0  0  0  0  0  0  0  0  0  0  0  0
   -2.2045   -2.2148   -0.3507 C   0  0  0  0  0  0  0  0  0  0  0  0
   -0.8429   -1.9251   -0.4540 C   0  0  0  0  0  0  0  0  0  0  0  0
    4.9003   -0.3374    0.6168 H   0  0  0  0  0  0  0  0  0  0  0  0
    3.3824   -1.2261    0.7866 H   0  0  0  0  0  0  0  0  0  0  0  0
    3.6282    0.2661    1.6971 H   0  0  0  0  0  0  0  0  0  0  0  0
    3.3814    0.0413   -1.3581 H   0  0  0  0  0  0  0  0  0  0  0  0
    3.5178    2.5247   -1.3573 H   0  0  0  0  0  0  0  0  0  0  0  0
    5.0045    1.7978   -0.7269 H   0  0  0  0  0  0  0  0  0  0  0  0
    3.8286    2.5239    0.3838 H   0  0  0  0  0  0  0  0  0  0  0  0
    1.5674   -1.2358   -0.6105 H   0  0  0  0  0  0  0  0  0  0  0  0
   -0.9419    1.3973    0.2988 H   0  0  0  0  0  0  0  0  0  0  0  0
   -2.5547   -3.2291   -0.5354 H   0  0  0  0  0  0  0  0  0  0  0  0
   -0.1596   -2.7303   -0.7160 H   0  0  0  0  0  0  0  0  0  0  0  0
  1  2  1  0
  2  3  1  0
  2  4  1  0
  4  5  2  0
  4  6  1  0
  6  7  1  0
  7  8  2  0
  8  9  1  0
  9 10  1  0
 10 11  1  0
 10 12  1  0
 10 13  1  0
  9 14  2  0
 14 15  1  0
 15 16  2  0
 15 17  1  0
 14 18  1  0
 18 19  2  0
 19  7  1  0
  1 20  1  0
  1 21  1  0
  1 22  1  0
  2 23  1  0
  3 24  1  0
  3 25  1  0
  3 26  1  0
  6 27  1  0
  8 28  1  0
 18 29  1  0
 19 30  1  0
M  CHG  2  15   1  17  -1
M  END
$$$$
OCNT-1911800
     RDKit          3D

 44 47  0  0  0  0  0  0  0  0999 V2000
   -4.1314    4.2936    1.1415 F   0  0  0  0  0  0  0  0  0  0  0  0
   -3.7005    3.0925    0.7345 C   0  0  0  0  0  0  0  0  0  0  0  0
   -3.3748    2.1264    1.6774 C   0  0  0  0  0  0  0  0  0  0  0  0
   -2.9260    0.8741    1.2544 C   0  0  0  0  0  0  0  0  0  0  0  0
   -2.7968    0.5870   -0.1155 C   0  0  0  0  0  0  0  0  0  0  0  0
   -2.3073   -0.7695   -0.6015 C   0  0  2  0  0  0  0  0  0  0  0  0
   -3.3932   -1.8464   -0.3721 C   0  0  0  0  0  0  0  0  0  0  0  0
   -2.8143   -3.2191   -0.0320 C   0  0  0  0  0  0  0  0  0  0  0  0
   -1.6518   -3.4966   -0.8592 N   0  0  0  0  0  0  0  0  0  0  0  0
   -0.5385   -2.5800   -0.5930 C   0  0  0  0  0  0  0  0  0  0  0  0
   -0.9527   -1.2123   -0.0025 C   0  0  1  0  0  0  0  0  0  0  0  0
    0.1658   -0.1797   -0.2309 C   0  0  0  0  0  0  0  0  0  0  0  0
    1.3724   -0.6757    0.3550 O   0  0  0  0  0  0  0  0  0  0  0  0
    2.4933    0.1002    0.2316 C   0  0  0  0  0  0  0  0  0  0  0  0
    3.6504   -0.4644    0.7813 C   0  0  0  0  0  0  0  0  0  0  0  0
    4.8259    0.2509    0.7015 C   0  0  0  0  0  0  0  0  0  0  0  0
    4.8799    1.4864    0.1037 C   0  0  0  0  0  0  0  0  0  0  0  0
    3.7611    2.0725   -0.4454 C   0  0  0  0  0  0  0  0  0  0  0  0
    2.5523    1.3674   -0.3787 C   0  0  0  0  0  0  0  0  0  0  0  0
    6.1285    2.0228    0.1296 O   0  0  0  0  0  0  0  0  0  0  0  0
    6.8560    0.9816    0.8143 C   0  0  0  0  0  0  0  0  0  0  0  0
    6.0351   -0.1472    1.1798 O   0  0  0  0  0  0  0  0  0  0  0  0
   -3.1394    1.5787   -1.0501 C   0  0  0  0  0  0  0  0  0  0  0  0
   -3.5886    2.8300   -0.6246 C   0  0  0  0  0  0  0  0  0  0  0  0
   -3.4743    2.3523    2.7341 H   0  0  0  0  0  0  0  0  0  0  0  0
   -2.6818    0.1242    2.0036 H   0  0  0  0  0  0  0  0  0  0  0  0
   -2.1556   -0.6968   -1.6891 H   0  0  0  0  0  0  0  0  0  0  0  0
   -4.0036   -1.9192   -1.2825 H   0  0  0  0  0  0  0  0  0  0  0  0
   -4.0882   -1.5645    0.4286 H   0  0  0  0  0  0  0  0  0  0  0  0
   -3.5801   -3.9822   -0.2103 H   0  0  0  0  0  0  0  0  0  0  0  0
   -2.5541   -3.2805    1.0319 H   0  0  0  0  0  0  0  0  0  0  0  0
   -1.3394   -4.4584   -0.7261 H   0  0  0  0  0  0  0  0  0  0  0  0
    0.0020   -2.4422   -1.5368 H   0  0  0  0  0  0  0  0  0  0  0  0
    0.1608   -3.0645    0.1000 H   0  0  0  0  0  0  0  0  0  0  0  0
   -1.0596   -1.3486    1.0831 H   0  0  0  0  0  0  0  0  0  0  0  0
    0.3078   -0.0216   -1.3074 H   0  0  0  0  0  0  0  0  0  0  0  0
   -0.0985    0.7691    0.2487 H   0  0  0  0  0  0  0  0  0  0  0  0
    3.6249   -1.4381    1.2571 H   0  0  0  0  0  0  0  0  0  0  0  0
    3.8162    3.0493   -0.9128 H   0  0  0  0  0  0  0  0  0  0  0  0
    1.6715    1.8336   -0.8089 H   0  0  0  0  0  0  0  0  0  0  0  0
    7.2979    1.4031    1.7245 H   0  0  0  0  0  0  0  0  0  0  0  0
    7.6636    0.6309    0.1614 H   0  0  0  0  0  0  0  0  0  0  0  0
   -3.0613    1.3826   -2.1176 H   0  0  0  0  0  0  0  0  0  0  0  0
   -3.8538    3.5983   -1.3436 H   0  0  0  0  0  0  0  0  0  0  0  0
  1  2  1  0
  2  3  1  0
  3  4  2  0
  4  5  1  0
  5  6  1  0
  6  7  1  0
  7  8  1  0
  8  9  1  0
  9 10  1  0
 10 11  1  0
 11 12  1  0
 12 13  1  0
 13 14  1  0
 14 15  2  0
 15 16  1  0
 16 17  2  0
 17 18  1  0
 18 19  2  0
 17 20  1  0
 20 21  1  0
 21 22  1  0
  5 23  2  0
 23 24  1  0
 24  2  2  0
 11  6  1  0
 19 14  1  0
 22 16  1  0
  3 25  1  0
  4 26  1  0
  6 27  1  6
  7 28  1  0
  7 29  1  0
  8 30  1  0
  8 31  1  0
  9 32  1  0
 10 33  1  0
 10 34  1  0
 11 35  1  1
 12 36  1  0
 12 37  1  0
 15 38  1  0
 18 39  1  0
 19 40  1  0
 21 41  1  0
 21 42  1  0
 23 43  1  0
 24 44  1  0
M  END
$$$$
OCNT-2308460
     RDKit          3D

 40 43  0  0  0  0  0  0  0  0999 V2000
   -5.3439   -1.4378    1.7551 C   0  0  0  0  0  0  0  0  0  0  0  0
   -3.9203   -1.1207    1.3779 C   0  0  0  0  0  0  0  0  0  0  0  0
   -2.8897   -1.7260    2.1178 C   0  0  0  0  0  0  0  0  0  0  0  0
   -1.5458   -1.4803    1.8267 C   0  0  0  0  0  0  0  0  0  0  0  0
   -1.1991   -0.6214    0.7909 C   0  0  0  0  0  0  0  0  0  0  0  0
    0.1309   -0.3201    0.4250 N   0  0  0  0  0  0  0  0  0  0  0  0
    1.2890   -0.7409    1.0541 C   0  0  0  0  0  0  0  0  0  0  0  0
    1.3702   -1.3985    2.0843 O   0  0  0  0  0  0  0  0  0  0  0  0
    2.5560   -0.2940    0.4071 C   0  0  0  0  0  0  0  0  0  0  0  0
    3.6531   -0.0005    1.2327 C   0  0  0  0  0  0  0  0  0  0  0  0
    4.8782    0.4233    0.7022 C   0  0  0  0  0  0  0  0  0  0  0  0
    4.9528    0.5299   -0.6896 C   0  0  0  0  0  0  0  0  0  0  0  0
    3.8861    0.2294   -1.5300 C   0  0  0  0  0  0  0  0  0  0  0  0
    2.6651   -0.1972   -0.9894 C   0  0  0  0  0  0  0  0  0  0  0  0
    4.2575    0.4183   -2.8330 N   0  0  0  0  0  0  0  0  0  0  0  0
    5.5180    0.8304   -2.8459 N   0  0  0  0  0  0  0  0  0  0  0  0
    5.9382    0.8932   -1.5685 N   0  0  0  0  0  0  0  0  0  0  0  0
    7.2880    1.3056   -1.2907 C   0  0  0  0  0  0  0  0  0  0  0  0
   -2.2218   -0.0170    0.0466 C   0  0  0  0  0  0  0  0  0  0  0  0
   -3.5889   -0.2476    0.3189 C   0  0  0  0  0  0  0  0  0  0  0  0
   -4.6124    0.4209   -0.4985 C   0  0  0  0  0  0  0  0  0  0  0  0
   -5.9304    0.3869   -0.4137 N   0  0  0  0  0  0  0  0  0  0  0  0
   -6.3608    1.1967   -1.4323 C   0  0  0  0  0  0  0  0  0  0  0  0
   -5.2829    1.7019   -2.1098 C   0  0  0  0  0  0  0  0  0  0  0  0
   -4.1546    1.2157   -1.5251 O   0  0  0  0  0  0  0  0  0  0  0  0
   -5.3892   -2.1421    2.5933 H   0  0  0  0  0  0  0  0  0  0  0  0
   -5.8682   -0.5303    2.0706 H   0  0  0  0  0  0  0  0  0  0  0  0
   -5.8683   -1.9057    0.9160 H   0  0  0  0  0  0  0  0  0  0  0  0
   -3.1257   -2.4037    2.9368 H   0  0  0  0  0  0  0  0  0  0  0  0
   -0.7964   -1.9826    2.4304 H   0  0  0  0  0  0  0  0  0  0  0  0
    0.2333    0.3260   -0.3467 H   0  0  0  0  0  0  0  0  0  0  0  0
    3.5534   -0.1035    2.3137 H   0  0  0  0  0  0  0  0  0  0  0  0
    5.7188    0.6488    1.3498 H   0  0  0  0  0  0  0  0  0  0  0  0
    1.8554   -0.4650   -1.6578 H   0  0  0  0  0  0  0  0  0  0  0  0
    7.9702    0.5880   -1.7534 H   0  0  0  0  0  0  0  0  0  0  0  0
    7.4391    2.3024   -1.7129 H   0  0  0  0  0  0  0  0  0  0  0  0
    7.4566    1.3337   -0.2124 H   0  0  0  0  0  0  0  0  0  0  0  0
   -1.9534    0.6542   -0.7668 H   0  0  0  0  0  0  0  0  0  0  0  0
   -7.4114    1.3688   -1.6190 H   0  0  0  0  0  0  0  0  0  0  0  0
   -5.1467    2.3606   -2.9541 H   0  0  0  0  0  0  0  0  0  0  0  0
  1  2  1  0
  2  3  1  0
  3  4  2  0
  4  5  1  0
  5  6  1  0
  6  7  1  0
  7  8  2  0
  7  9  1  0
  9 10  2  0
 10 11  1  0
 11 12  2  0
 12 13  1  0
 13 14  2  0
 13 15  1  0
 15 16  2  0
 16 17  1  0
 17 18  1  0
  5 19  2  0
 19 20  1  0
 20 21  1  0
 21 22  2  0
 22 23  1  0
 23 24  2  0
 24 25  1  0
 20  2  2  0
 25 21  1  0
 14  9  1  0
 17 12  1  0
  1 26  1  0
  1 27  1  0
  1 28  1  0
  3 29  1  0
  4 30  1  0
  6 31  1  0
 10 32  1  0
 11 33  1  0
 14 34  1  0
 18 35  1  0
 18 36  1  0
 18 37  1  0
 19 38  1  0
 23 39  1  0
 24 40  1  0
M  END
$$$$
OCNT-2308465
     RDKit          3D

 31 34  0  0  0  0  0  0  0  0999 V2000
    1.9770    0.2685    1.3036 C   0  0  0  0  0  0  0  0  0  0  0  0
    3.2469    0.7641    1.6225 C   0  0  0  0  0  0  0  0  0  0  0  0
    4.2391    0.6335    0.6771 C   0  0  0  0  0  0  0  0  0  0  0  0
    4.0038    0.0398   -0.5400 C   0  0  0  0  0  0  0  0  0  0  0  0
    2.7631   -0.4577   -0.8826 C   0  0  0  0  0  0  0  0  0  0  0  0
    1.7214   -0.3454    0.0535 C   0  0  0  0  0  0  0  0  0  0  0  0
    0.3864   -0.8525   -0.2494 C   0  0  0  0  0  0  0  0  0  0  0  0
    0.0494   -1.4384   -1.4111 N   0  0  0  0  0  0  0  0  0  0  0  0
   -1.2980   -1.7477   -1.2524 O   0  0  0  0  0  0  0  0  0  0  0  0
   -1.6471   -1.3230   -0.0065 C   0  0  0  0  0  0  0  0  0  0  0  0
   -3.0527   -1.5431    0.4086 C   0  0  0  0  0  0  0  0  0  0  0  0
   -3.9210   -0.3488    0.1632 C   0  0  0  0  0  0  0  0  0  0  0  0
   -4.7848   -0.2640   -0.9108 C   0  0  0  0  0  0  0  0  0  0  0  0
   -5.5704    0.8014   -1.1576 N   0  0  0  0  0  0  0  0  0  0  0  0
   -5.4650    1.8176   -0.2882 C   0  0  0  0  0  0  0  0  0  0  0  0
   -4.6591    1.8566    0.7832 N   0  0  0  0  0  0  0  0  0  0  0  0
   -3.8953    0.7652    0.9808 C   0  0  0  0  0  0  0  0  0  0  0  0
   -0.6548   -0.7725    0.6541 N   0  0  0  0  0  0  0  0  0  0  0  0
    5.1139    0.0117   -1.3256 O   0  0  0  0  0  0  0  0  0  0  0  0
    6.0736    0.6587   -0.4641 C   0  0  0  0  0  0  0  0  0  0  0  0
    5.5250    1.0532    0.8107 O   0  0  0  0  0  0  0  0  0  0  0  0
    1.1779    0.3634    2.0375 H   0  0  0  0  0  0  0  0  0  0  0  0
    3.4431    1.2350    2.5791 H   0  0  0  0  0  0  0  0  0  0  0  0
    2.6132   -0.9197   -1.8534 H   0  0  0  0  0  0  0  0  0  0  0  0
   -3.4624   -2.4185   -0.1106 H   0  0  0  0  0  0  0  0  0  0  0  0
   -3.0808   -1.7938    1.4764 H   0  0  0  0  0  0  0  0  0  0  0  0
   -4.8801   -1.0716   -1.6323 H   0  0  0  0  0  0  0  0  0  0  0  0
   -6.0875    2.6871   -0.4683 H   0  0  0  0  0  0  0  0  0  0  0  0
   -3.2386    0.8202    1.8461 H   0  0  0  0  0  0  0  0  0  0  0  0
    6.9077   -0.0305   -0.2887 H   0  0  0  0  0  0  0  0  0  0  0  0
    6.4558    1.5512   -0.9729 H   0  0  0  0  0  0  0  0  0  0  0  0
  1  2  2  0
  2  3  1  0
  3  4  2  0
  4  5  1  0
  5  6  2  0
  6  7  1  0
  7  8  2  0
  8  9  1  0
  9 10  1  0
 10 11  1  0
 11 12  1  0
 12 13  2  0
 13 14  1  0
 14 15  2  0
 15 16  1  0
 16 17  2  0
 10 18  2  0
  4 19  1  0
 19 20  1  0
 20 21  1  0
  6  1  1  0
 18  7  1  0
 21  3  1  0
 17 12  1  0
  1 22  1  0
  2 23  1  0
  5 24  1  0
 11 25  1  0
 11 26  1  0
 13 27  1  0
 15 28  1  0
 17 29  1  0
 20 30  1  0
 20 31  1  0
M  END
$$$$
OCNT-2308468
     RDKit          3D

 44 47  0  0  0  0  0  0  0  0999 V2000
    5.3357    3.2088   -0.7773 C   0  0  0  0  0  0  0  0  0  0  0  0
    4.5773    2.2349   -0.0387 N   0  0  0  0  0  0  0  0  0  0  0  0
    4.5726    2.2848    1.3066 N   0  0  0  0  0  0  0  0  0  0  0  0
    3.8191    1.2838    1.7418 N   0  0  0  0  0  0  0  0  0  0  0  0
    3.3448    0.6051    0.6528 C   0  0  0  0  0  0  0  0  0  0  0  0
    2.5137   -0.5192    0.5782 C   0  0  0  0  0  0  0  0  0  0  0  0
    2.1687   -0.9953   -0.6949 C   0  0  0  0  0  0  0  0  0  0  0  0
    1.3013   -2.1866   -0.8319 C   0  0  0  0  0  0  0  0  0  0  0  0
    1.7200   -3.1230   -1.5078 O   0  0  0  0  0  0  0  0  0  0  0  0
    0.0607   -2.1977   -0.1945 N   0  0  0  0  0  0  0  0  0  0  0  0
   -0.7163   -3.4341   -0.2533 C   0  0  0  0  0  0  0  0  0  0  0  0
   -1.7753   -3.4848    0.8401 C   0  0  0  0  0  0  0  0  0  0  0  0
   -2.7602   -2.3170    0.7463 C   0  0  0  0  0  0  0  0  0  0  0  0
   -2.1383   -1.0551    0.1220 C   0  0  0  0  0  0  0  0  0  0  0  0
   -2.7817    0.1691    0.5834 N   0  0  0  0  0  0  0  0  0  0  0  0
   -2.8078    0.6655    1.8545 C   0  0  0  0  0  0  0  0  0  0  0  0
   -3.5116    1.8433    1.7902 C   0  0  0  0  0  0  0  0  0  0  0  0
   -3.8777    1.9932    0.4255 C   0  0  0  0  0  0  0  0  0  0  0  0
   -4.6643    3.1292   -0.1741 C   0  0  0  0  0  0  0  0  0  0  0  0
   -3.9619    3.8066   -1.1214 F   0  0  0  0  0  0  0  0  0  0  0  0
   -5.0197    4.0489    0.7672 F   0  0  0  0  0  0  0  0  0  0  0  0
   -5.8210    2.7140   -0.7561 F   0  0  0  0  0  0  0  0  0  0  0  0
   -3.4166    0.9563   -0.3044 N   0  0  0  0  0  0  0  0  0  0  0  0
   -0.6183   -0.9966    0.3188 C   0  0  0  0  0  0  0  0  0  0  0  0
    2.6744   -0.3999   -1.8582 C   0  0  0  0  0  0  0  0  0  0  0  0
    3.5100    0.7213   -1.7922 C   0  0  0  0  0  0  0  0  0  0  0  0
    3.8179    1.1988   -0.5135 C   0  0  0  0  0  0  0  0  0  0  0  0
    5.0423    4.2066   -0.4411 H   0  0  0  0  0  0  0  0  0  0  0  0
    5.1329    3.1087   -1.8455 H   0  0  0  0  0  0  0  0  0  0  0  0
    6.3972    3.0374   -0.5821 H   0  0  0  0  0  0  0  0  0  0  0  0
    2.1647   -1.0020    1.4834 H   0  0  0  0  0  0  0  0  0  0  0  0
   -1.1814   -3.4869   -1.2451 H   0  0  0  0  0  0  0  0  0  0  0  0
   -0.0402   -4.2916   -0.1606 H   0  0  0  0  0  0  0  0  0  0  0  0
   -2.3218   -4.4335    0.7977 H   0  0  0  0  0  0  0  0  0  0  0  0
   -1.2788   -3.4498    1.8184 H   0  0  0  0  0  0  0  0  0  0  0  0
   -3.1644   -2.1237    1.7472 H   0  0  0  0  0  0  0  0  0  0  0  0
   -3.6214   -2.6163    0.1347 H   0  0  0  0  0  0  0  0  0  0  0  0
   -2.3233   -1.1052   -0.9614 H   0  0  0  0  0  0  0  0  0  0  0  0
   -2.3389    0.1540    2.6842 H   0  0  0  0  0  0  0  0  0  0  0  0
   -3.7371    2.5134    2.6093 H   0  0  0  0  0  0  0  0  0  0  0  0
   -0.2175   -0.1028   -0.1715 H   0  0  0  0  0  0  0  0  0  0  0  0
   -0.3707   -0.9279    1.3851 H   0  0  0  0  0  0  0  0  0  0  0  0
    2.4152   -0.8174   -2.8307 H   0  0  0  0  0  0  0  0  0  0  0  0
    3.8979    1.1828   -2.6941 H   0  0  0  0  0  0  0  0  0  0  0  0
  1  2  1  0
  2  3  1  0
  3  4  2  0
  4  5  1  0
  5  6  2  0
  6  7  1  0
  7  8  1  0
  8  9  2  0
  8 10  1  0
 10 11  1  0
 11 12  1  0
 12 13  1  0
 13 14  1  0
 14 15  1  0
 15 16  1  0
 16 17  2  0
 17 18  1  0
 18 19  1  0
 19 20  1  0
 19 21  1  0
 19 22  1  0
 18 23  2  0
 14 24  1  0
  7 25  2  0
 25 26  1  0
 26 27  2  0
 27  2  1  0
 27  5  1  0
 24 10  1  0
 23 15  1  0
  1 28  1  0
  1 29  1  0
  1 30  1  0
  6 31  1  0
 11 32  1  0
 11 33  1  0
 12 34  1  0
 12 35  1  0
 13 36  1  0
 13 37  1  0
 14 38  1  0
 16 39  1  0
 17 40  1  0
 24 41  1  0
 24 42  1  0
 25 43  1  0
 26 44  1  0
M  END
$$$$
OCNT-2308470
     RDKit          3D

 43 45  0  0  0  0  0  0  0  0999 V2000
   -5.6048   -1.6633   -1.3586 C   0  0  0  0  0  0  0  0  0  0  0  0
   -4.5196   -0.8490   -0.9341 O   0  0  0  0  0  0  0  0  0  0  0  0
   -4.7610    0.0806    0.0472 C   0  0  0  0  0  0  0  0  0  0  0  0
   -5.9653    0.1460    0.7656 C   0  0  0  0  0  0  0  0  0  0  0  0
   -6.1686    1.1291    1.7372 C   0  0  0  0  0  0  0  0  0  0  0  0
   -5.1732    2.0603    2.0040 C   0  0  0  0  0  0  0  0  0  0  0  0
   -3.9688    2.0026    1.3040 C   0  0  0  0  0  0  0  0  0  0  0  0
   -3.7386    1.0135    0.3286 C   0  0  0  0  0  0  0  0  0  0  0  0
   -2.4472    1.0260   -0.3432 C   0  0  0  0  0  0  0  0  0  0  0  0
   -1.7487   -0.0464   -0.8505 C   0  0  0  0  0  0  0  0  0  0  0  0
   -0.5928    0.5019   -1.3267 N   0  0  0  0  0  0  0  0  0  0  0  0
    0.4774   -0.1659   -2.0407 C   0  0  0  0  0  0  0  0  0  0  0  0
    1.5622   -0.6096   -1.1137 C   0  0  0  0  0  0  0  0  0  0  0  0
    2.7716   -0.0880   -1.0822 N   0  0  0  0  0  0  0  0  0  0  0  0
    3.5592   -0.7150   -0.1258 C   0  0  0  0  0  0  0  0  0  0  0  0
    4.9872   -0.2370    0.1008 C   0  0  0  0  0  0  0  0  0  0  0  0
    5.3338    0.9590   -0.8109 C   0  0  0  0  0  0  0  0  0  0  0  0
    5.9810   -1.3744   -0.2065 C   0  0  0  0  0  0  0  0  0  0  0  0
    5.1709    0.2115    1.5642 C   0  0  0  0  0  0  0  0  0  0  0  0
    2.9198   -1.7515    0.5328 C   0  0  0  0  0  0  0  0  0  0  0  0
    1.3212   -1.9384   -0.0459 S   0  0  0  0  0  0  0  0  0  0  0  0
   -0.5741    1.8346   -1.1448 N   0  0  0  0  0  0  0  0  0  0  0  0
   -1.6980    2.1649   -0.5224 N   0  0  0  0  0  0  0  0  0  0  0  0
   -5.9169   -2.3467   -0.5624 H   0  0  0  0  0  0  0  0  0  0  0  0
   -5.2560   -2.2716   -2.1989 H   0  0  0  0  0  0  0  0  0  0  0  0
   -6.4437   -1.0560   -1.7145 H   0  0  0  0  0  0  0  0  0  0  0  0
   -6.7730   -0.5576    0.5929 H   0  0  0  0  0  0  0  0  0  0  0  0
   -7.1083    1.1678    2.2827 H   0  0  0  0  0  0  0  0  0  0  0  0
   -5.3283    2.8305    2.7551 H   0  0  0  0  0  0  0  0  0  0  0  0
   -3.1967    2.7380    1.5278 H   0  0  0  0  0  0  0  0  0  0  0  0
   -1.9614   -1.1033   -0.9039 H   0  0  0  0  0  0  0  0  0  0  0  0
    0.0441   -1.0155   -2.5804 H   0  0  0  0  0  0  0  0  0  0  0  0
    0.8678    0.5357   -2.7866 H   0  0  0  0  0  0  0  0  0  0  0  0
    5.2430    0.6933   -1.8709 H   0  0  0  0  0  0  0  0  0  0  0  0
    4.6678    1.8098   -0.6243 H   0  0  0  0  0  0  0  0  0  0  0  0
    6.3616    1.3014   -0.6436 H   0  0  0  0  0  0  0  0  0  0  0  0
    7.0172   -1.0432   -0.0739 H   0  0  0  0  0  0  0  0  0  0  0  0
    5.8246   -2.2365    0.4523 H   0  0  0  0  0  0  0  0  0  0  0  0
    5.8713   -1.7272   -1.2388 H   0  0  0  0  0  0  0  0  0  0  0  0
    4.9985   -0.6139    2.2645 H   0  0  0  0  0  0  0  0  0  0  0  0
    4.4690    1.0130    1.8232 H   0  0  0  0  0  0  0  0  0  0  0  0
    6.1861    0.5850    1.7408 H   0  0  0  0  0  0  0  0  0  0  0  0
    3.3097   -2.3947    1.3086 H   0  0  0  0  0  0  0  0  0  0  0  0
  1  2  1  0
  2  3  1  0
  3  4  2  0
  4  5  1  0
  5  6  2  0
  6  7  1  0
  7  8  2  0
  8  9  1  0
  9 10  2  0
 10 11  1  0
 11 12  1  0
 12 13  1  0
 13 14  2  0
 14 15  1  0
 15 16  1  0
 16 17  1  0
 16 18  1  0
 16 19  1  0
 15 20  2  0
 20 21  1  0
 11 22  1  0
 22 23  2  0
  8  3  1  0
 23  9  1  0
 21 13  1  0
  1 24  1  0
  1 25  1  0
  1 26  1  0
  4 27  1  0
  5 28  1  0
  6 29  1  0
  7 30  1  0
 10 31  1  0
 12 32  1  0
 12 33  1  0
 17 34  1  0
 17 35  1  0
 17 36  1  0
 18 37  1  0
 18 38  1  0
 18 39  1  0
 19 40  1  0
 19 41  1  0
 19 42  1  0
 20 43  1  0
M  END
$$$$
OCNT-2308474
     RDKit          3D

 41 44  0  0  0  0  0  0  0  0999 V2000
   -1.7811   -0.5522   -1.8937 O   0  0  0  0  0  0  0  0  0  0  0  0
   -1.0508   -0.5750   -0.9124 C   0  0  0  0  0  0  0  0  0  0  0  0
   -1.4578   -0.8689    0.3787 N   0  0  0  0  0  0  0  0  0  0  0  0
   -2.7859   -1.2214    0.7362 C   0  0  0  0  0  0  0  0  0  0  0  0
   -2.8944   -2.3234    1.6060 C   0  0  0  0  0  0  0  0  0  0  0  0
   -4.1399   -2.8308    1.9769 C   0  0  0  0  0  0  0  0  0  0  0  0
   -5.2970   -2.2354    1.4955 C   0  0  0  0  0  0  0  0  0  0  0  0
   -5.2045   -1.1106    0.6755 C   0  0  0  0  0  0  0  0  0  0  0  0
   -3.9588   -0.5617    0.3059 C   0  0  0  0  0  0  0  0  0  0  0  0
   -4.0054    0.7306   -0.3951 C   0  0  0  0  0  0  0  0  0  0  0  0
   -4.9961    1.1751   -1.1525 N   0  0  0  0  0  0  0  0  0  0  0  0
   -4.6440    2.4389   -1.5476 C   0  0  0  0  0  0  0  0  0  0  0  0
   -3.4435    2.8030   -0.9925 C   0  0  0  0  0  0  0  0  0  0  0  0
   -3.0604    1.7219   -0.2508 N   0  0  0  0  0  0  0  0  0  0  0  0
    0.3621   -0.3206   -1.0401 C   0  0  0  0  0  0  0  0  0  0  0  0
    1.3986   -0.1867   -0.1372 C   0  0  0  0  0  0  0  0  0  0  0  0
    2.5696    0.0720   -0.9076 C   0  0  0  0  0  0  0  0  0  0  0  0
    3.9442    0.2926   -0.4371 C   0  0  0  0  0  0  0  0  0  0  0  0
    4.2488    0.3500    0.9318 C   0  0  0  0  0  0  0  0  0  0  0  0
    5.5632    0.5592    1.3622 C   0  0  0  0  0  0  0  0  0  0  0  0
    6.5801    0.7127    0.4292 C   0  0  0  0  0  0  0  0  0  0  0  0
    7.8447    0.9145    0.8949 O   0  0  0  0  0  0  0  0  0  0  0  0
    6.3075    0.6617   -0.9317 C   0  0  0  0  0  0  0  0  0  0  0  0
    4.9926    0.4524   -1.3599 C   0  0  0  0  0  0  0  0  0  0  0  0
    2.2617    0.0963   -2.2142 N   0  0  0  0  0  0  0  0  0  0  0  0
    0.9420   -0.1295   -2.2628 N   0  0  0  0  0  0  0  0  0  0  0  0
   -0.7307   -1.2804    0.9495 H   0  0  0  0  0  0  0  0  0  0  0  0
   -2.0070   -2.8345    1.9722 H   0  0  0  0  0  0  0  0  0  0  0  0
   -4.2053   -3.6998    2.6267 H   0  0  0  0  0  0  0  0  0  0  0  0
   -6.2733   -2.6281    1.7678 H   0  0  0  0  0  0  0  0  0  0  0  0
   -6.1234   -0.6295    0.3391 H   0  0  0  0  0  0  0  0  0  0  0  0
   -5.2790    3.0195   -2.2037 H   0  0  0  0  0  0  0  0  0  0  0  0
   -2.8505    3.7033   -1.0568 H   0  0  0  0  0  0  0  0  0  0  0  0
   -2.2269    1.6434    0.3117 H   0  0  0  0  0  0  0  0  0  0  0  0
    1.3326   -0.2559    0.9385 H   0  0  0  0  0  0  0  0  0  0  0  0
    3.4780    0.2382    1.6877 H   0  0  0  0  0  0  0  0  0  0  0  0
    5.7915    0.6033    2.4235 H   0  0  0  0  0  0  0  0  0  0  0  0
    8.4427    1.0075    0.1349 H   0  0  0  0  0  0  0  0  0  0  0  0
    7.0919    0.7807   -1.6721 H   0  0  0  0  0  0  0  0  0  0  0  0
    4.7883    0.4139   -2.4289 H   0  0  0  0  0  0  0  0  0  0  0  0
    0.4758   -0.1461   -3.1661 H   0  0  0  0  0  0  0  0  0  0  0  0
  1  2  2  0
  2  3  1  0
  3  4  1  0
  4  5  2  0
  5  6  1  0
  6  7  2  0
  7  8  1  0
  8  9  2  0
  9 10  1  0
 10 11  2  0
 11 12  1  0
 12 13  2  0
 13 14  1  0
  2 15  1  0
 15 16  2  0
 16 17  1  0
 17 18  1  0
 18 19  1  0
 19 20  2  0
 20 21  1  0
 21 22  1  0
 21 23  2  0
 23 24  1  0
 17 25  2  0
 25 26  1  0
  9  4  1  0
 14 10  1  0
 26 15  1  0
 24 18  2  0
  3 27  1  0
  5 28  1  0
  6 29  1  0
  7 30  1  0
  8 31  1  0
 12 32  1  0
 13 33  1  0
 14 34  1  0
 16 35  1  0
 19 36  1  0
 20 37  1  0
 22 38  1  0
 23 39  1  0
 24 40  1  0
 26 41  1  0
M  END
$$$$
OCNT-2308475
     RDKit          3D

 35 38  0  0  0  0  0  0  0  0999 V2000
    0.4837   -1.5343   -1.4683 O   0  0  0  0  0  0  0  0  0  0  0  0
    0.5625   -0.2987   -2.2172 S   0  0  0  0  0  0  0  0  0  0  0  0
    1.0387   -0.3082   -3.5852 O   0  0  0  0  0  0  0  0  0  0  0  0
   -0.9866    0.4113   -2.2501 N   0  0  0  0  0  0  0  0  0  0  0  0
   -1.6325    0.5370   -0.9762 C   0  0  0  0  0  0  0  0  0  0  0  0
   -1.4387    1.7063   -0.2307 C   0  0  0  0  0  0  0  0  0  0  0  0
   -2.0114    1.8483    1.0316 C   0  0  0  0  0  0  0  0  0  0  0  0
   -2.7886    0.8290    1.5884 C   0  0  0  0  0  0  0  0  0  0  0  0
   -2.9680   -0.3379    0.8354 C   0  0  0  0  0  0  0  0  0  0  0  0
   -2.4053   -0.5133   -0.4314 C   0  0  0  0  0  0  0  0  0  0  0  0
   -2.7860   -1.8142   -0.8734 C   0  0  0  0  0  0  0  0  0  0  0  0
   -3.5646   -2.3843    0.1074 C   0  0  0  0  0  0  0  0  0  0  0  0
   -3.6686   -1.4853    1.1342 N   0  0  0  0  0  0  0  0  0  0  0  0
    1.6532    0.7762   -1.3105 C   0  0  0  0  0  0  0  0  0  0  0  0
    2.2218    0.7257   -0.0526 C   0  0  0  0  0  0  0  0  0  0  0  0
    2.0066   -0.4474    0.9463 C   0  0  0  0  0  0  0  0  0  0  0  0
    3.1213   -0.8809    1.8643 C   0  0  0  0  0  0  0  0  0  0  0  0
    2.7368   -1.7430    0.7006 C   0  0  0  0  0  0  0  0  0  0  0  0
    2.9880    1.8802    0.2657 C   0  0  0  0  0  0  0  0  0  0  0  0
    3.0062    2.7792   -0.7764 C   0  0  0  0  0  0  0  0  0  0  0  0
    2.0836    2.2358   -2.1095 S   0  0  0  0  0  0  0  0  0  0  0  0
   -1.5461   -0.1234   -2.9152 H   0  0  0  0  0  0  0  0  0  0  0  0
   -0.8492    2.5223   -0.6404 H   0  0  0  0  0  0  0  0  0  0  0  0
   -1.8533    2.7677    1.5914 H   0  0  0  0  0  0  0  0  0  0  0  0
   -3.2337    0.9442    2.5718 H   0  0  0  0  0  0  0  0  0  0  0  0
   -2.5075   -2.2886   -1.8053 H   0  0  0  0  0  0  0  0  0  0  0  0
   -4.0428   -3.3529    0.1659 H   0  0  0  0  0  0  0  0  0  0  0  0
   -4.1770   -1.6398    1.9941 H   0  0  0  0  0  0  0  0  0  0  0  0
    0.9938   -0.5227    1.3339 H   0  0  0  0  0  0  0  0  0  0  0  0
    2.8519   -1.2222    2.8572 H   0  0  0  0  0  0  0  0  0  0  0  0
    4.0811   -0.3811    1.8158 H   0  0  0  0  0  0  0  0  0  0  0  0
    3.4201   -1.8046   -0.1387 H   0  0  0  0  0  0  0  0  0  0  0  0
    2.1947   -2.6623    0.8920 H   0  0  0  0  0  0  0  0  0  0  0  0
    3.5031    2.0480    1.2035 H   0  0  0  0  0  0  0  0  0  0  0  0
    3.5128    3.7339   -0.8194 H   0  0  0  0  0  0  0  0  0  0  0  0
  1  2  2  0
  2  3  2  0
  2  4  1  0
  4  5  1  0
  5  6  1  0
  6  7  2  0
  7  8  1  0
  8  9  2  0
  9 10  1  0
 10 11  1  0
 11 12  2  0
 12 13  1  0
  2 14  1  0
 14 15  2  0
 15 16  1  0
 16 17  1  0
 17 18  1  0
 15 19  1  0
 19 20  2  0
 20 21  1  0
 10  5  2  0
 21 14  1  0
 13  9  1  0
 18 16  1  0
  4 22  1  0
  6 23  1  0
  7 24  1  0
  8 25  1  0
 11 26  1  0
 12 27  1  0
 13 28  1  0
 16 29  1  0
 17 30  1  0
 17 31  1  0
 18 32  1  0
 18 33  1  0
 19 34  1  0
 20 35  1  0
M  END
$$$$
OCNT-2308476
     RDKit          3D

 50 52  0  0  0  0  0  0  0  0999 V2000
   -5.6550    1.0683   -0.5084 C   0  0  0  0  0  0  0  0  0  0  0  0
   -4.1352    1.0560   -0.3864 C   0  0  0  0  0  0  0  0  0  0  0  0
   -3.4927   -0.3379   -0.1113 C   0  0  0  0  0  0  0  0  0  0  0  0
   -3.7931   -1.3093   -1.2815 C   0  0  0  0  0  0  0  0  0  0  0  0
   -3.2797   -0.8189   -2.5131 O   0  0  0  0  0  0  0  0  0  0  0  0
   -4.0015   -0.9874    1.1881 C   0  0  0  0  0  0  0  0  0  0  0  0
   -3.6614   -0.1857    2.4387 C   0  0  0  0  0  0  0  0  0  0  0  0
   -2.3666    0.6168    2.3480 C   0  0  0  0  0  0  0  0  0  0  0  0
   -1.4280    0.1408    1.3387 N   0  0  0  0  0  0  0  0  0  0  0  0
   -0.0753    0.4659    1.5579 C   0  0  0  0  0  0  0  0  0  0  0  0
    0.2814    1.0554    2.5754 O   0  0  0  0  0  0  0  0  0  0  0  0
    0.7755    0.0634    0.5502 N   0  0  0  0  0  0  0  0  0  0  0  0
    2.1509    0.3542    0.4095 C   0  0  0  0  0  0  0  0  0  0  0  0
    2.8329    1.2923    1.2011 C   0  0  0  0  0  0  0  0  0  0  0  0
    4.1906    1.5545    0.9952 C   0  0  0  0  0  0  0  0  0  0  0  0
    4.8486    0.8583   -0.0023 C   0  0  0  0  0  0  0  0  0  0  0  0
    6.2688    0.9780   -0.4374 C   0  0  0  0  0  0  0  0  0  0  0  0
    6.3979   -0.2931   -1.2932 C   0  0  0  0  0  0  0  0  0  0  0  0
    5.0469   -0.6388   -1.7781 N   0  0  0  0  0  0  0  0  0  0  0  0
    4.8032   -2.0158   -2.1717 C   0  0  0  0  0  0  0  0  0  0  0  0
    4.1939   -0.0795   -0.8039 C   0  0  0  0  0  0  0  0  0  0  0  0
    2.8424   -0.3245   -0.6096 C   0  0  0  0  0  0  0  0  0  0  0  0
   -1.9510   -0.1821    0.0014 C   0  0  0  0  0  0  0  0  0  0  0  0
   -6.0011    2.0902   -0.6969 H   0  0  0  0  0  0  0  0  0  0  0  0
   -6.0018    0.4492   -1.3399 H   0  0  0  0  0  0  0  0  0  0  0  0
   -6.1370    0.7247    0.4108 H   0  0  0  0  0  0  0  0  0  0  0  0
   -3.8648    1.7692    0.3972 H   0  0  0  0  0  0  0  0  0  0  0  0
   -3.7180    1.4762   -1.3105 H   0  0  0  0  0  0  0  0  0  0  0  0
   -3.3218   -2.2828   -1.1030 H   0  0  0  0  0  0  0  0  0  0  0  0
   -4.8652   -1.5006   -1.3970 H   0  0  0  0  0  0  0  0  0  0  0  0
   -3.9210   -0.1783   -2.8677 H   0  0  0  0  0  0  0  0  0  0  0  0
   -3.5393   -1.9797    1.2908 H   0  0  0  0  0  0  0  0  0  0  0  0
   -5.0811   -1.1737    1.1515 H   0  0  0  0  0  0  0  0  0  0  0  0
   -3.5996   -0.8811    3.2855 H   0  0  0  0  0  0  0  0  0  0  0  0
   -4.4831    0.4995    2.6810 H   0  0  0  0  0  0  0  0  0  0  0  0
   -2.5784    1.6677    2.1197 H   0  0  0  0  0  0  0  0  0  0  0  0
   -1.8935    0.6199    3.3373 H   0  0  0  0  0  0  0  0  0  0  0  0
    0.4197   -0.6351   -0.0795 H   0  0  0  0  0  0  0  0  0  0  0  0
    2.3230    1.8509    1.9800 H   0  0  0  0  0  0  0  0  0  0  0  0
    4.7058    2.2906    1.6032 H   0  0  0  0  0  0  0  0  0  0  0  0
    6.4032    1.8794   -1.0442 H   0  0  0  0  0  0  0  0  0  0  0  0
    6.9757    0.9752    0.3966 H   0  0  0  0  0  0  0  0  0  0  0  0
    7.0881   -0.1410   -2.1299 H   0  0  0  0  0  0  0  0  0  0  0  0
    6.7949   -1.1129   -0.6779 H   0  0  0  0  0  0  0  0  0  0  0  0
    3.8434   -2.1140   -2.6894 H   0  0  0  0  0  0  0  0  0  0  0  0
    5.5796   -2.3460   -2.8704 H   0  0  0  0  0  0  0  0  0  0  0  0
    4.8149   -2.6904   -1.3082 H   0  0  0  0  0  0  0  0  0  0  0  0
    2.3257   -1.0282   -1.2513 H   0  0  0  0  0  0  0  0  0  0  0  0
   -1.4804   -1.1332   -0.2769 H   0  0  0  0  0  0  0  0  0  0  0  0
   -1.5814    0.5737   -0.7031 H   0  0  0  0  0  0  0  0  0  0  0  0
  1  2  1  0
  2  3  1  0
  3  4  1  0
  4  5  1  0
  3  6  1  0
  6  7  1  0
  7  8  1  0
  8  9  1  0
  9 10  1  0
 10 11  2  0
 10 12  1  0
 12 13  1  0
 13 14  1  0
 14 15  2  0
 15 16  1  0
 16 17  1  0
 17 18  1  0
 18 19  1  0
 19 20  1  0
 19 21  1  0
 21 22  1  0
  9 23  1  0
 23  3  1  0
 22 13  2  0
 21 16  2  0
  1 24  1  0
  1 25  1  0
  1 26  1  0
  2 27  1  0
  2 28  1  0
  4 29  1  0
  4 30  1  0
  5 31  1  0
  6 32  1  0
  6 33  1  0
  7 34  1  0
  7 35  1  0
  8 36  1  0
  8 37  1  0
 12 38  1  0
 14 39  1  0
 15 40  1  0
 17 41  1  0
 17 42  1  0
 18 43  1  0
 18 44  1  0
 20 45  1  0
 20 46  1  0
 20 47  1  0
 22 48  1  0
 23 49  1  0
 23 50  1  0
M  END
$$$$
OCNT-2308483
     RDKit          3D

 36 39  0  0  0  0  0  0  0  0999 V2000
    5.5301    0.7544   -0.3735 C   0  0  0  0  0  0  0  0  0  0  0  0
    4.0814    0.3687   -0.5070 C   0  0  0  0  0  0  0  0  0  0  0  0
    3.6374   -0.1781   -1.7145 C   0  0  0  0  0  0  0  0  0  0  0  0
    2.3041   -0.5397   -1.8745 C   0  0  0  0  0  0  0  0  0  0  0  0
    1.3895   -0.3578   -0.8292 C   0  0  0  0  0  0  0  0  0  0  0  0
    0.0397   -0.7061   -0.9941 C   0  0  0  0  0  0  0  0  0  0  0  0
   -0.8673   -0.5132    0.0444 C   0  0  0  0  0  0  0  0  0  0  0  0
   -2.2709   -0.8525   -0.0943 C   0  0  0  0  0  0  0  0  0  0  0  0
   -2.7049   -2.0669   -0.5891 C   0  0  0  0  0  0  0  0  0  0  0  0
   -4.0748   -2.0738   -0.5635 N   0  0  0  0  0  0  0  0  0  0  0  0
   -4.5456   -0.8815   -0.0669 C   0  0  0  0  0  0  0  0  0  0  0  0
   -5.8476   -0.4421    0.1366 C   0  0  0  0  0  0  0  0  0  0  0  0
   -6.0550    0.7956    0.6386 N   0  0  0  0  0  0  0  0  0  0  0  0
   -4.9881    1.5728    0.9249 C   0  0  0  0  0  0  0  0  0  0  0  0
   -3.6646    1.1971    0.7483 C   0  0  0  0  0  0  0  0  0  0  0  0
   -3.4368   -0.0898    0.2352 C   0  0  0  0  0  0  0  0  0  0  0  0
   -0.3687    0.0240    1.2191 C   0  0  0  0  0  0  0  0  0  0  0  0
    0.9272    0.3715    1.4121 N   0  0  0  0  0  0  0  0  0  0  0  0
    1.8089    0.1843    0.4068 C   0  0  0  0  0  0  0  0  0  0  0  0
    3.1654    0.5240    0.5630 C   0  0  0  0  0  0  0  0  0  0  0  0
    3.6246    1.1196    1.8739 C   0  0  0  0  0  0  0  0  0  0  0  0
    6.0451    0.0602    0.2980 H   0  0  0  0  0  0  0  0  0  0  0  0
    6.0427    0.7282   -1.3412 H   0  0  0  0  0  0  0  0  0  0  0  0
    5.6235    1.7752    0.0106 H   0  0  0  0  0  0  0  0  0  0  0  0
    4.3273   -0.3217   -2.5436 H   0  0  0  0  0  0  0  0  0  0  0  0
    1.9827   -0.9581   -2.8256 H   0  0  0  0  0  0  0  0  0  0  0  0
   -0.3042   -1.1148   -1.9412 H   0  0  0  0  0  0  0  0  0  0  0  0
   -2.1601   -2.9328   -0.9427 H   0  0  0  0  0  0  0  0  0  0  0  0
   -4.6585   -2.8431   -0.8632 H   0  0  0  0  0  0  0  0  0  0  0  0
   -6.7250   -1.0364   -0.0866 H   0  0  0  0  0  0  0  0  0  0  0  0
   -5.2325    2.5563    1.3179 H   0  0  0  0  0  0  0  0  0  0  0  0
   -2.8558    1.8756    0.9907 H   0  0  0  0  0  0  0  0  0  0  0  0
   -1.0086    0.1905    2.0816 H   0  0  0  0  0  0  0  0  0  0  0  0
    3.6226    2.2119    1.8055 H   0  0  0  0  0  0  0  0  0  0  0  0
    2.9850    0.8201    2.7102 H   0  0  0  0  0  0  0  0  0  0  0  0
    4.6317    0.7782    2.1331 H   0  0  0  0  0  0  0  0  0  0  0  0
  1  2  1  0
  2  3  2  0
  3  4  1  0
  4  5  2  0
  5  6  1  0
  6  7  2  0
  7  8  1  0
  8  9  2  0
  9 10  1  0
 10 11  1  0
 11 12  2  0
 12 13  1  0
 13 14  2  0
 14 15  1  0
 15 16  2  0
  7 17  1  0
 17 18  2  0
 18 19  1  0
 19 20  2  0
 20 21  1  0
 20  2  1  0
 19  5  1  0
 16  8  1  0
 16 11  1  0
  1 22  1  0
  1 23  1  0
  1 24  1  0
  3 25  1  0
  4 26  1  0
  6 27  1  0
  9 28  1  0
 10 29  1  0
 12 30  1  0
 14 31  1  0
 15 32  1  0
 17 33  1  0
 21 34  1  0
 21 35  1  0
 21 36  1  0
M  END
$$$$
OCNT-2308499
     RDKit          3D

 33 35  0  0  0  0  0  0  0  0999 V2000
    6.1322   -0.7271   -0.9656 C   0  0  0  0  0  0  0  0  0  0  0  0
    4.8045   -0.6298   -0.4096 N   0  0  0  0  0  0  0  0  0  0  0  0
    3.9965    0.4692   -0.4025 C   0  0  0  0  0  0  0  0  0  0  0  0
    2.8456    0.0802    0.2338 C   0  0  0  0  0  0  0  0  0  0  0  0
    1.8142    0.9234    0.4222 O   0  0  0  0  0  0  0  0  0  0  0  0
    0.6428    0.3152    1.0048 C   0  0  0  0  0  0  0  0  0  0  0  0
   -0.2472   -0.5375    0.0823 C   0  0  0  0  0  0  0  0  0  0  0  0
   -1.3886    0.1160    0.6696 N   0  0  0  0  0  0  0  0  0  0  0  0
   -2.7167    0.1124    0.1688 C   0  0  0  0  0  0  0  0  0  0  0  0
   -3.1000   -0.9247   -0.7097 C   0  0  0  0  0  0  0  0  0  0  0  0
   -4.3920   -0.9974   -1.2363 C   0  0  0  0  0  0  0  0  0  0  0  0
   -4.8477   -2.4013   -2.4164 Br  0  0  0  0  0  0  0  0  0  0  0  0
   -5.3420   -0.0481   -0.8971 C   0  0  0  0  0  0  0  0  0  0  0  0
   -4.9872    0.9681   -0.0190 C   0  0  0  0  0  0  0  0  0  0  0  0
   -5.9239    1.8715    0.3086 F   0  0  0  0  0  0  0  0  0  0  0  0
   -3.6981    1.0619    0.5232 C   0  0  0  0  0  0  0  0  0  0  0  0
   -3.4558    2.1338    1.4399 C   0  0  0  0  0  0  0  0  0  0  0  0
   -3.2590    3.0090    2.1778 N   0  0  0  0  0  0  0  0  0  0  0  0
   -0.5916    1.2308    1.1098 C   0  0  0  0  0  0  0  0  0  0  0  0
    3.0549   -1.2684    0.5815 C   0  0  0  0  0  0  0  0  0  0  0  0
    4.2510   -1.7098    0.1785 N   0  0  0  0  0  0  0  0  0  0  0  0
    6.4173    0.2353   -1.3974 H   0  0  0  0  0  0  0  0  0  0  0  0
    6.8231   -0.9954   -0.1625 H   0  0  0  0  0  0  0  0  0  0  0  0
    6.1253   -1.4970   -1.7411 H   0  0  0  0  0  0  0  0  0  0  0  0
    4.2971    1.4113   -0.8372 H   0  0  0  0  0  0  0  0  0  0  0  0
    0.8644   -0.1577    1.9731 H   0  0  0  0  0  0  0  0  0  0  0  0
   -0.2239   -1.6133    0.2734 H   0  0  0  0  0  0  0  0  0  0  0  0
   -0.1405   -0.3318   -0.9883 H   0  0  0  0  0  0  0  0  0  0  0  0
   -2.3809   -1.6925   -0.9873 H   0  0  0  0  0  0  0  0  0  0  0  0
   -6.3521   -0.0843   -1.2928 H   0  0  0  0  0  0  0  0  0  0  0  0
   -0.6081    2.0730    0.4103 H   0  0  0  0  0  0  0  0  0  0  0  0
   -0.8165    1.5582    2.1270 H   0  0  0  0  0  0  0  0  0  0  0  0
    2.4029   -1.9534    1.1056 H   0  0  0  0  0  0  0  0  0  0  0  0
  1  2  1  0
  2  3  1  0
  3  4  2  0
  4  5  1  0
  5  6  1  0
  6  7  1  0
  7  8  1  0
  8  9  1  0
  9 10  1  0
 10 11  2  0
 11 12  1  0
 11 13  1  0
 13 14  2  0
 14 15  1  0
 14 16  1  0
 16 17  1  0
 17 18  3  0
  8 19  1  0
  4 20  1  0
 20 21  2  0
 21  2  1  0
 19  6  1  0
 16  9  2  0
  1 22  1  0
  1 23  1  0
  1 24  1  0
  3 25  1  0
  6 26  1  0
  7 27  1  0
  7 28  1  0
 10 29  1  0
 13 30  1  0
 19 31  1  0
 19 32  1  0
 20 33  1  0
M  END
$$$$
OCNT-2308506
     RDKit          3D

  0  0  0  0  0  0  0  0  0  0999 V3000
M  V30 BEGIN CTAB
M  V30 COUNTS 43 47 0 0 0
M  V30 BEGIN ATOM
M  V30 1 O -6.049251 -2.419826 -0.196859 0
M  V30 2 C -5.277942 -1.488396 -0.005998 0
M  V30 3 C -5.259922 -0.233420 -0.839477 0
M  V30 4 C -3.825103 0.238724 -1.051141 0 CFG=1
M  V30 5 O -3.865941 1.522948 -1.714320 0
M  V30 6 C -3.031432 2.433002 -0.990902 0
M  V30 7 C -3.044218 1.934577 0.436748 0
M  V30 8 C -3.029827 0.415351 0.261208 0 CFG=2
M  V30 9 C -1.626429 -0.090566 0.092304 0
M  V30 10 N -0.483889 0.546942 0.208307 0
M  V30 11 C 0.445376 -0.443317 -0.043320 0
M  V30 12 C 1.882538 -0.186640 -0.031302 0
M  V30 13 C 2.364028 1.113312 0.241705 0
M  V30 14 C 3.735100 1.390941 0.266843 0
M  V30 15 C 4.617687 0.359394 0.003733 0
M  V30 16 C 6.113900 0.400436 0.008572 0
M  V30 17 C 6.449930 -0.894136 -0.745901 0
M  V30 18 C 5.300804 -1.874970 -0.471338 0
M  V30 19 C 4.156478 -0.931614 -0.268461 0
M  V30 20 C 2.800112 -1.220317 -0.283354 0
M  V30 21 N -0.104077 -1.644567 -0.288386 0
M  V30 22 O -1.471830 -1.414260 -0.198983 0
M  V30 23 C -3.690560 -0.303072 1.449244 0
M  V30 24 N -4.386002 -1.501999 1.034556 0
M  V30 25 H -5.728648 -0.435488 -1.809223 0
M  V30 26 H -5.867526 0.534442 -0.346719 0
M  V30 27 H -3.328598 -0.457017 -1.739557 0
M  V30 28 H -2.027910 2.407889 -1.428732 0
M  V30 29 H -3.428339 3.447541 -1.084568 0
M  V30 30 H -3.982232 2.257607 0.905979 0
M  V30 31 H -2.220210 2.341761 1.030722 0
M  V30 32 H 1.663127 1.921775 0.442543 0
M  V30 33 H 4.091306 2.392024 0.488148 0
M  V30 34 H 6.511015 1.278254 -0.508682 0
M  V30 35 H 6.488227 0.368016 1.036898 0
M  V30 36 H 7.424879 -1.302418 -0.461958 0
M  V30 37 H 6.490567 -0.681401 -1.823420 0
M  V30 38 H 5.480987 -2.450422 0.442438 0
M  V30 39 H 5.142448 -2.550736 -1.316360 0
M  V30 40 H 2.463064 -2.233186 -0.487442 0
M  V30 41 H -2.968136 -0.584022 2.224045 0
M  V30 42 H -4.447236 0.331107 1.926585 0
M  V30 43 H -4.476317 -2.294254 1.663374 0
M  V30 END ATOM
M  V30 BEGIN BOND
M  V30 1 2 1 2
M  V30 2 1 2 3
M  V30 3 1 3 4
M  V30 4 1 4 5
M  V30 5 1 5 6
M  V30 6 1 6 7
M  V30 7 1 7 8
M  V30 8 1 8 9 CFG=3
M  V30 9 2 9 10
M  V30 10 1 10 11
M  V30 11 1 11 12
M  V30 12 1 12 13
M  V30 13 2 13 14
M  V30 14 1 14 15
M  V30 15 1 15 16
M  V30 16 1 16 17
M  V30 17 1 17 18
M  V30 18 1 18 19
M  V30 19 1 19 20
M  V30 20 2 11 21
M  V30 21 1 21 22
M  V30 22 1 8 23
M  V30 23 1 23 24
M  V30 24 1 24 2
M  V30 25 1 8 4
M  V30 26 1 22 9
M  V30 27 2 20 12
M  V30 28 2 19 15
M  V30 29 1 3 25
M  V30 30 1 3 26
M  V30 31 1 4 27 CFG=3
M  V30 32 1 6 28
M  V30 33 1 6 29
M  V30 34 1 7 30
M  V30 35 1 7 31
M  V30 36 1 13 32
M  V30 37 1 14 33
M  V30 38 1 16 34
M  V30 39 1 16 35
M  V30 40 1 17 36
M  V30 41 1 17 37
M  V30 42 1 18 38
M  V30 43 1 18 39
M  V30 44 1 20 40
M  V30 45 1 23 41
M  V30 46 1 23 42
M  V30 47 1 24 43
M  V30 END BOND
M  V30 BEGIN COLLECTION
M  V30 MDLV30/STERAC1 ATOMS=(2 4 8)
M  V30 END COLLECTION
M  V30 END CTAB
M  END
>  <_CXSMILES_Data>  (59) 
|&1:3,7|

$$$$
OCNT-2308508
     RDKit          3D

 42 45  0  0  0  0  0  0  0  0999 V2000
    0.7120    1.5392   -1.5990 O   0  0  0  0  0  0  0  0  0  0  0  0
    0.0912    0.6254   -1.0653 C   0  0  0  0  0  0  0  0  0  0  0  0
   -1.2255    0.2962   -1.3090 N   0  0  0  0  0  0  0  0  0  0  0  0
   -2.0687    0.9278   -2.2083 C   0  0  0  0  0  0  0  0  0  0  0  0
   -1.8134    2.0124   -3.0076 C   0  0  0  0  0  0  0  0  0  0  0  0
   -2.9587    2.2480   -3.7002 N   0  0  0  0  0  0  0  0  0  0  0  0
   -3.9558    1.3935   -3.4140 N   0  0  0  0  0  0  0  0  0  0  0  0
   -3.4263    0.5626   -2.4920 C   0  0  0  0  0  0  0  0  0  0  0  0
   -4.1839   -0.5521   -1.8969 C   0  0  0  0  0  0  0  0  0  0  0  0
   -5.4901   -0.8240   -2.2965 C   0  0  0  0  0  0  0  0  0  0  0  0
   -6.1642   -1.8948   -1.7140 C   0  0  0  0  0  0  0  0  0  0  0  0
   -5.5205   -2.6598   -0.7491 C   0  0  0  0  0  0  0  0  0  0  0  0
   -4.2237   -2.3196   -0.3988 C   0  0  0  0  0  0  0  0  0  0  0  0
   -3.5358   -1.2925   -0.9465 N   0  0  0  0  0  0  0  0  0  0  0  0
    0.7904   -0.2161   -0.0460 C   0  0  0  0  0  0  0  0  0  0  0  0
    0.4049   -1.5341    0.2349 C   0  0  0  0  0  0  0  0  0  0  0  0
    1.0862   -2.2732    1.2061 C   0  0  0  0  0  0  0  0  0  0  0  0
    2.1642   -1.7117    1.8960 C   0  0  0  0  0  0  0  0  0  0  0  0
    2.5778   -0.4043    1.6087 C   0  0  0  0  0  0  0  0  0  0  0  0
    3.6931    0.1803    2.2762 N   0  0  0  0  0  0  0  0  0  0  0  0
    4.5001   -0.3861    3.2390 C   0  0  0  0  0  0  0  0  0  0  0  0
    5.4659    0.5384    3.5560 C   0  0  0  0  0  0  0  0  0  0  0  0
    5.1880    1.6617    2.7419 C   0  0  0  0  0  0  0  0  0  0  0  0
    5.9682    2.9495    2.6982 C   0  0  0  0  0  0  0  0  0  0  0  0
    6.1266    3.4354    1.4399 F   0  0  0  0  0  0  0  0  0  0  0  0
    7.2233    2.7896    3.2075 F   0  0  0  0  0  0  0  0  0  0  0  0
    5.3825    3.9297    3.4353 F   0  0  0  0  0  0  0  0  0  0  0  0
    4.0962    1.4423    1.9845 N   0  0  0  0  0  0  0  0  0  0  0  0
    1.8857    0.3389    0.6354 C   0  0  0  0  0  0  0  0  0  0  0  0
   -1.6827   -0.4593   -0.8017 H   0  0  0  0  0  0  0  0  0  0  0  0
   -0.9352    2.6286   -3.1396 H   0  0  0  0  0  0  0  0  0  0  0  0
   -3.1311    2.9778   -4.3833 H   0  0  0  0  0  0  0  0  0  0  0  0
   -5.9777   -0.2150   -3.0525 H   0  0  0  0  0  0  0  0  0  0  0  0
   -7.1854   -2.1195   -2.0086 H   0  0  0  0  0  0  0  0  0  0  0  0
   -6.0242   -3.4950   -0.2744 H   0  0  0  0  0  0  0  0  0  0  0  0
   -3.6916   -2.8824    0.3657 H   0  0  0  0  0  0  0  0  0  0  0  0
   -0.4050   -2.0155   -0.3061 H   0  0  0  0  0  0  0  0  0  0  0  0
    0.7803   -3.2941    1.4216 H   0  0  0  0  0  0  0  0  0  0  0  0
    2.6600   -2.3234    2.6424 H   0  0  0  0  0  0  0  0  0  0  0  0
    4.3398   -1.3851    3.6105 H   0  0  0  0  0  0  0  0  0  0  0  0
    6.2729    0.4213    4.2675 H   0  0  0  0  0  0  0  0  0  0  0  0
    2.1904    1.3590    0.4000 H   0  0  0  0  0  0  0  0  0  0  0  0
  1  2  2  0
  2  3  1  0
  3  4  1  0
  4  5  2  0
  5  6  1  0
  6  7  1  0
  7  8  2  0
  8  9  1  0
  9 10  2  0
 10 11  1  0
 11 12  2  0
 12 13  1  0
 13 14  2  0
  2 15  1  0
 15 16  1  0
 16 17  2  0
 17 18  1  0
 18 19  2  0
 19 20  1  0
 20 21  1  0
 21 22  2  0
 22 23  1  0
 23 24  1  0
 24 25  1  0
 24 26  1  0
 24 27  1  0
 23 28  2  0
 19 29  1  0
  8  4  1  0
 14  9  1  0
 29 15  2  0
 28 20  1  0
  3 30  1  0
  5 31  1  0
  6 32  1  0
 10 33  1  0
 11 34  1  0
 12 35  1  0
 13 36  1  0
 16 37  1  0
 17 38  1  0
 18 39  1  0
 21 40  1  0
 22 41  1  0
 29 42  1  0
M  END
$$$$
OCNT-2308510
     RDKit          3D

 46 48  0  0  0  0  0  0  0  0999 V2000
    7.0833    0.6802    1.4208 C   0  0  0  0  0  0  0  0  0  0  0  0
    5.5800    0.4734    1.3431 C   0  0  0  0  0  0  0  0  0  0  0  0
    5.2203   -0.6032    0.3235 C   0  0  0  0  0  0  0  0  0  0  0  0
    3.7837   -0.7880    0.2073 N   0  0  0  0  0  0  0  0  0  0  0  0
    3.1676   -1.5996    1.0819 N   0  0  0  0  0  0  0  0  0  0  0  0
    1.8966   -1.6321    0.6692 C   0  0  0  0  0  0  0  0  0  0  0  0
    0.9362   -2.5340    1.3561 C   0  0  0  0  0  0  0  0  0  0  0  0
    1.6781   -0.7656   -0.4402 C   0  0  0  0  0  0  0  0  0  0  0  0
    0.4512   -0.4975   -1.1863 C   0  0  0  0  0  0  0  0  0  0  0  0
    0.4692   -0.3601   -2.4038 O   0  0  0  0  0  0  0  0  0  0  0  0
   -0.6629   -0.3798   -0.3757 N   0  0  0  0  0  0  0  0  0  0  0  0
   -2.0046   -0.2126   -0.7748 C   0  0  0  0  0  0  0  0  0  0  0  0
   -2.4356   -0.2655   -2.0999 C   0  0  0  0  0  0  0  0  0  0  0  0
   -3.7910   -0.1273   -2.4087 C   0  0  0  0  0  0  0  0  0  0  0  0
   -4.7279    0.0747   -1.3953 C   0  0  0  0  0  0  0  0  0  0  0  0
   -4.3171    0.1552   -0.0602 C   0  0  0  0  0  0  0  0  0  0  0  0
   -5.2624    0.3612    1.0340 C   0  0  0  0  0  0  0  0  0  0  0  0
   -5.2125   -0.2207    2.2205 N   0  0  0  0  0  0  0  0  0  0  0  0
   -6.2815    0.2499    2.9395 N   0  0  0  0  0  0  0  0  0  0  0  0
   -6.9738    1.1299    2.2357 N   0  0  0  0  0  0  0  0  0  0  0  0
   -6.3330    1.2214    1.0589 N   0  0  0  0  0  0  0  0  0  0  0  0
   -6.7565    2.1922    0.0887 C   0  0  0  0  0  0  0  0  0  0  0  0
   -2.9534   -0.0082    0.2371 C   0  0  0  0  0  0  0  0  0  0  0  0
    2.9330   -0.2374   -0.7163 C   0  0  0  0  0  0  0  0  0  0  0  0
    3.3750    0.7169   -1.7671 C   0  0  0  0  0  0  0  0  0  0  0  0
    7.3235    1.4411    2.1696 H   0  0  0  0  0  0  0  0  0  0  0  0
    7.5936   -0.2462    1.7016 H   0  0  0  0  0  0  0  0  0  0  0  0
    7.4833    1.0134    0.4579 H   0  0  0  0  0  0  0  0  0  0  0  0
    5.2020    0.1924    2.3338 H   0  0  0  0  0  0  0  0  0  0  0  0
    5.0965    1.4215    1.0790 H   0  0  0  0  0  0  0  0  0  0  0  0
    5.6500   -1.5707    0.6086 H   0  0  0  0  0  0  0  0  0  0  0  0
    5.6121   -0.3558   -0.6686 H   0  0  0  0  0  0  0  0  0  0  0  0
    0.2350   -2.9769    0.6413 H   0  0  0  0  0  0  0  0  0  0  0  0
    1.4562   -3.3562    1.8601 H   0  0  0  0  0  0  0  0  0  0  0  0
    0.3651   -1.9814    2.1089 H   0  0  0  0  0  0  0  0  0  0  0  0
   -0.4867   -0.3497    0.6199 H   0  0  0  0  0  0  0  0  0  0  0  0
   -1.7447   -0.4363   -2.9203 H   0  0  0  0  0  0  0  0  0  0  0  0
   -4.1140   -0.1959   -3.4455 H   0  0  0  0  0  0  0  0  0  0  0  0
   -5.7780    0.1351   -1.6688 H   0  0  0  0  0  0  0  0  0  0  0  0
   -7.3383    1.6827   -0.6835 H   0  0  0  0  0  0  0  0  0  0  0  0
   -7.3774    2.9492    0.5773 H   0  0  0  0  0  0  0  0  0  0  0  0
   -5.8773    2.6768   -0.3413 H   0  0  0  0  0  0  0  0  0  0  0  0
   -2.6392    0.0266    1.2794 H   0  0  0  0  0  0  0  0  0  0  0  0
    3.8734    0.1798   -2.5795 H   0  0  0  0  0  0  0  0  0  0  0  0
    2.5311    1.2708   -2.1882 H   0  0  0  0  0  0  0  0  0  0  0  0
    4.0720    1.4565   -1.3604 H   0  0  0  0  0  0  0  0  0  0  0  0
  1  2  1  0
  2  3  1  0
  3  4  1  0
  4  5  1  0
  5  6  2  0
  6  7  1  0
  6  8  1  0
  8  9  1  0
  9 10  2  0
  9 11  1  0
 11 12  1  0
 12 13  2  0
 13 14  1  0
 14 15  2  0
 15 16  1  0
 16 17  1  0
 17 18  2  0
 18 19  1  0
 19 20  2  0
 20 21  1  0
 21 22  1  0
 16 23  2  0
  8 24  2  0
 24 25  1  0
 24  4  1  0
 23 12  1  0
 21 17  1  0
  1 26  1  0
  1 27  1  0
  1 28  1  0
  2 29  1  0
  2 30  1  0
  3 31  1  0
  3 32  1  0
  7 33  1  0
  7 34  1  0
  7 35  1  0
 11 36  1  0
 13 37  1  0
 14 38  1  0
 15 39  1  0
 22 40  1  0
 22 41  1  0
 22 42  1  0
 23 43  1  0
 25 44  1  0
 25 45  1  0
 25 46  1  0
M  END
$$$$
OCNT-2308519
     RDKit          3D

 44 48  0  0  0  0  0  0  0  0999 V2000
    1.5572   -1.9387   -2.1787 O   0  0  0  0  0  0  0  0  0  0  0  0
    2.0548   -1.2213   -1.3140 C   0  0  0  0  0  0  0  0  0  0  0  0
    3.2499   -0.4746   -1.5516 C   0  0  0  0  0  0  0  0  0  0  0  0
    4.0633   -0.3853   -2.6581 C   0  0  0  0  0  0  0  0  0  0  0  0
    5.1096    0.4700   -2.4248 N   0  0  0  0  0  0  0  0  0  0  0  0
    4.9315    0.8955   -1.1916 C   0  0  0  0  0  0  0  0  0  0  0  0
    3.8126    0.3485   -0.6191 N   0  0  0  0  0  0  0  0  0  0  0  0
    3.2582    0.5241    0.6575 C   0  0  0  0  0  0  0  0  0  0  0  0
    3.8561    1.3814    1.5915 C   0  0  0  0  0  0  0  0  0  0  0  0
    3.2801    1.5300    2.8496 C   0  0  0  0  0  0  0  0  0  0  0  0
    2.1227    0.8272    3.1680 C   0  0  0  0  0  0  0  0  0  0  0  0
    1.5316   -0.0282    2.2302 C   0  0  0  0  0  0  0  0  0  0  0  0
    2.0821   -0.1969    0.9528 C   0  0  0  0  0  0  0  0  0  0  0  0
    1.4962   -1.0685   -0.0316 N   0  0  0  0  0  0  0  0  0  0  0  0
    0.2508   -1.7884    0.2276 C   0  0  0  0  0  0  0  0  0  0  0  0
   -0.9389   -0.9575   -0.1648 C   0  0  0  0  0  0  0  0  0  0  0  0
   -2.3341   -1.4509    0.1586 C   0  0  0  0  0  0  0  0  0  0  0  0
   -3.4384   -1.4363   -0.8569 C   0  0  0  0  0  0  0  0  0  0  0  0
   -3.6442   -0.1472   -1.6415 C   0  0  0  0  0  0  0  0  0  0  0  0
   -4.3283    0.9703   -0.8538 C   0  0  0  0  0  0  0  0  0  0  0  0
   -3.7569    1.2714    0.5318 C   0  0  0  0  0  0  0  0  0  0  0  0
   -2.2382    1.1712    0.5992 C   0  0  0  0  0  0  0  0  0  0  0  0
   -1.7817   -0.2309    0.8670 C   0  0  0  0  0  0  0  0  0  0  0  0
    3.9455   -0.8935   -3.6074 H   0  0  0  0  0  0  0  0  0  0  0  0
    5.5836    1.5918   -0.6834 H   0  0  0  0  0  0  0  0  0  0  0  0
    4.7601    1.9413    1.3716 H   0  0  0  0  0  0  0  0  0  0  0  0
    3.7334    2.1924    3.5836 H   0  0  0  0  0  0  0  0  0  0  0  0
    1.6737    0.9412    4.1524 H   0  0  0  0  0  0  0  0  0  0  0  0
    0.6355   -0.5500    2.5446 H   0  0  0  0  0  0  0  0  0  0  0  0
    0.2055   -2.1327    1.2654 H   0  0  0  0  0  0  0  0  0  0  0  0
    0.2357   -2.7051   -0.3747 H   0  0  0  0  0  0  0  0  0  0  0  0
   -0.7929   -0.5044   -1.1394 H   0  0  0  0  0  0  0  0  0  0  0  0
   -2.4046   -2.3610    0.7511 H   0  0  0  0  0  0  0  0  0  0  0  0
   -4.3767   -1.7084   -0.3579 H   0  0  0  0  0  0  0  0  0  0  0  0
   -3.2294   -2.2420   -1.5718 H   0  0  0  0  0  0  0  0  0  0  0  0
   -2.6978    0.2146   -2.0568 H   0  0  0  0  0  0  0  0  0  0  0  0
   -4.2782   -0.3701   -2.5095 H   0  0  0  0  0  0  0  0  0  0  0  0
   -5.3952    0.7382   -0.7445 H   0  0  0  0  0  0  0  0  0  0  0  0
   -4.2817    1.8839   -1.4605 H   0  0  0  0  0  0  0  0  0  0  0  0
   -4.0641    2.2878    0.8075 H   0  0  0  0  0  0  0  0  0  0  0  0
   -4.2135    0.6018    1.2715 H   0  0  0  0  0  0  0  0  0  0  0  0
   -1.8846    1.7960    1.4291 H   0  0  0  0  0  0  0  0  0  0  0  0
   -1.7750    1.5847   -0.3041 H   0  0  0  0  0  0  0  0  0  0  0  0
   -1.5752   -0.3710    1.9229 H   0  0  0  0  0  0  0  0  0  0  0  0
  1  2  2  0
  2  3  1  0
  3  4  2  0
  4  5  1  0
  5  6  2  0
  6  7  1  0
  7  8  1  0
  8  9  2  0
  9 10  1  0
 10 11  2  0
 11 12  1  0
 12 13  2  0
 13 14  1  0
 14 15  1  0
 15 16  1  0
 16 17  1  0
 17 18  1  0
 18 19  1  0
 19 20  1  0
 20 21  1  0
 21 22  1  0
 22 23  1  0
 14  2  1  0
 23 16  1  0
  7  3  1  0
 13  8  1  0
 23 17  1  0
  4 24  1  0
  6 25  1  0
  9 26  1  0
 10 27  1  0
 11 28  1  0
 12 29  1  0
 15 30  1  0
 15 31  1  0
 16 32  1  0
 17 33  1  0
 18 34  1  0
 18 35  1  0
 19 36  1  0
 19 37  1  0
 20 38  1  0
 20 39  1  0
 21 40  1  0
 21 41  1  0
 22 42  1  0
 22 43  1  0
 23 44  1  0
M  END
$$$$
OCNT-2308520
     RDKit          3D

 42 45  0  0  0  0  0  0  0  0999 V2000
   -0.6341    2.2959   -0.6110 O   0  0  0  0  0  0  0  0  0  0  0  0
   -1.0164    1.4711    0.2071 C   0  0  0  0  0  0  0  0  0  0  0  0
   -0.4421    1.2615    1.4308 N   0  0  0  0  0  0  0  0  0  0  0  0
    0.7571    1.9681    1.8244 C   0  0  0  0  0  0  0  0  0  0  0  0
    1.9947    1.1837    1.4960 C   0  0  0  0  0  0  0  0  0  0  0  0
    2.5095    1.1411    0.1986 C   0  0  0  0  0  0  0  0  0  0  0  0
    3.6511    0.3883   -0.0782 C   0  0  0  0  0  0  0  0  0  0  0  0
    4.2533   -0.3141    0.9610 C   0  0  0  0  0  0  0  0  0  0  0  0
    5.4171   -1.0955    0.7234 N   0  0  0  0  0  0  0  0  0  0  0  0
    6.1076   -1.2920   -0.4530 C   0  0  0  0  0  0  0  0  0  0  0  0
    7.1515   -2.1316   -0.1392 C   0  0  0  0  0  0  0  0  0  0  0  0
    7.1317   -2.4612    1.1863 N   0  0  0  0  0  0  0  0  0  0  0  0
    6.0876   -1.8289    1.6776 C   0  0  0  0  0  0  0  0  0  0  0  0
    3.7686   -0.2921    2.2304 N   0  0  0  0  0  0  0  0  0  0  0  0
    2.6618    0.4486    2.4662 C   0  0  0  0  0  0  0  0  0  0  0  0
   -2.0840    0.6393    0.0078 N   0  0  0  0  0  0  0  0  0  0  0  0
   -2.8817    0.7779   -1.1966 C   0  0  0  0  0  0  0  0  0  0  0  0
   -3.8212    2.0010   -1.1747 C   0  0  0  0  0  0  0  0  0  0  0  0
   -5.1213    1.5840   -0.6770 O   0  0  0  0  0  0  0  0  0  0  0  0
   -5.1473    0.2386   -0.9403 C   0  0  0  0  0  0  0  0  0  0  0  0
   -6.2801   -0.5446   -0.8652 C   0  0  0  0  0  0  0  0  0  0  0  0
   -6.1518   -1.9063   -1.1479 C   0  0  0  0  0  0  0  0  0  0  0  0
   -4.9013   -2.4512   -1.4858 C   0  0  0  0  0  0  0  0  0  0  0  0
   -3.7635   -1.6418   -1.5422 C   0  0  0  0  0  0  0  0  0  0  0  0
   -3.9078   -0.2919   -1.2682 C   0  0  0  0  0  0  0  0  0  0  0  0
   -0.5779    0.3393    1.8178 H   0  0  0  0  0  0  0  0  0  0  0  0
    0.6877    2.1361    2.9049 H   0  0  0  0  0  0  0  0  0  0  0  0
    0.7963    2.9538    1.3464 H   0  0  0  0  0  0  0  0  0  0  0  0
    2.0206    1.6926   -0.6035 H   0  0  0  0  0  0  0  0  0  0  0  0
    4.0284    0.3742   -1.0937 H   0  0  0  0  0  0  0  0  0  0  0  0
    5.8237   -0.8419   -1.3913 H   0  0  0  0  0  0  0  0  0  0  0  0
    7.9167   -2.5152   -0.8022 H   0  0  0  0  0  0  0  0  0  0  0  0
    5.7629   -1.8593    2.7098 H   0  0  0  0  0  0  0  0  0  0  0  0
    2.3182    0.4280    3.4976 H   0  0  0  0  0  0  0  0  0  0  0  0
   -2.5871    0.3698    0.8413 H   0  0  0  0  0  0  0  0  0  0  0  0
   -2.2241    0.8085   -2.0718 H   0  0  0  0  0  0  0  0  0  0  0  0
   -3.4507    2.8196   -0.5491 H   0  0  0  0  0  0  0  0  0  0  0  0
   -3.9759    2.3900   -2.1897 H   0  0  0  0  0  0  0  0  0  0  0  0
   -7.2388   -0.1134   -0.5997 H   0  0  0  0  0  0  0  0  0  0  0  0
   -7.0263   -2.5512   -1.1039 H   0  0  0  0  0  0  0  0  0  0  0  0
   -4.8191   -3.5148   -1.6988 H   0  0  0  0  0  0  0  0  0  0  0  0
   -2.7936   -2.0640   -1.7862 H   0  0  0  0  0  0  0  0  0  0  0  0
  1  2  2  0
  2  3  1  0
  3  4  1  0
  4  5  1  0
  5  6  2  0
  6  7  1  0
  7  8  2  0
  8  9  1  0
  9 10  1  0
 10 11  2  0
 11 12  1  0
 12 13  2  0
  8 14  1  0
 14 15  2  0
  2 16  1  0
 16 17  1  0
 17 18  1  0
 18 19  1  0
 19 20  1  0
 20 21  2  0
 21 22  1  0
 22 23  2  0
 23 24  1  0
 24 25  2  0
 15  5  1  0
 25 17  1  0
 13  9  1  0
 25 20  1  0
  3 26  1  0
  4 27  1  0
  4 28  1  0
  6 29  1  0
  7 30  1  0
 10 31  1  0
 11 32  1  0
 13 33  1  0
 15 34  1  0
 16 35  1  0
 17 36  1  0
 18 37  1  0
 18 38  1  0
 21 39  1  0
 22 40  1  0
 23 41  1  0
 24 42  1  0
M  END
$$$$
OCNT-2308529
     RDKit          3D

 44 46  0  0  0  0  0  0  0  0999 V2000
   -4.2158   -3.2686    2.3088 C   0  0  0  0  0  0  0  0  0  0  0  0
   -4.6038   -2.9877    0.8691 C   0  0  0  0  0  0  0  0  0  0  0  0
   -4.5738   -1.5763    0.6130 O   0  0  0  0  0  0  0  0  0  0  0  0
   -3.3624   -1.0601    0.2521 C   0  0  0  0  0  0  0  0  0  0  0  0
   -2.3340   -1.7187    0.1523 O   0  0  0  0  0  0  0  0  0  0  0  0
   -3.4334    0.3651    0.0046 C   0  0  0  0  0  0  0  0  0  0  0  0
   -2.4107    1.2097   -0.3865 C   0  0  0  0  0  0  0  0  0  0  0  0
   -1.0215    1.0505   -0.6784 C   0  0  0  0  0  0  0  0  0  0  0  0
   -0.2617    2.1111   -1.0389 C   0  0  0  0  0  0  0  0  0  0  0  0
    1.0724    1.9000   -1.3027 N   0  0  0  0  0  0  0  0  0  0  0  0
    2.0810    2.8029   -1.5990 C   0  0  0  0  0  0  0  0  0  0  0  0
    1.9493    4.0205   -1.7100 O   0  0  0  0  0  0  0  0  0  0  0  0
    3.4303    2.1495   -1.8728 C   0  0  0  0  0  0  0  0  0  0  0  0
    3.7878    1.1023   -0.8714 C   0  0  0  0  0  0  0  0  0  0  0  0
    3.0785   -0.0368   -0.8031 N   0  0  0  0  0  0  0  0  0  0  0  0
    3.6726   -0.7306    0.1890 N   0  0  0  0  0  0  0  0  0  0  0  0
    3.1617   -2.0350    0.5654 C   0  0  0  0  0  0  0  0  0  0  0  0
    3.6396   -3.1297   -0.3709 C   0  0  0  0  0  0  0  0  0  0  0  0
    4.7230   -0.0701    0.7545 C   0  0  0  0  0  0  0  0  0  0  0  0
    4.8272    1.1260    0.0861 C   0  0  0  0  0  0  0  0  0  0  0  0
   -0.8705    3.4334   -1.1418 C   0  0  0  0  0  0  0  0  0  0  0  0
   -2.1779    3.5861   -0.8703 C   0  0  0  0  0  0  0  0  0  0  0  0
   -2.9515    2.4918   -0.4940 N   0  0  0  0  0  0  0  0  0  0  0  0
   -4.2739    2.4900   -0.1912 N   0  0  0  0  0  0  0  0  0  0  0  0
   -4.5502    1.2199    0.1036 C   0  0  0  0  0  0  0  0  0  0  0  0
   -3.1898   -2.9446    2.5100 H   0  0  0  0  0  0  0  0  0  0  0  0
   -4.2940   -4.3367    2.5299 H   0  0  0  0  0  0  0  0  0  0  0  0
   -4.8649   -2.7171    2.9966 H   0  0  0  0  0  0  0  0  0  0  0  0
   -3.9648   -3.5344    0.1661 H   0  0  0  0  0  0  0  0  0  0  0  0
   -5.6321   -3.3215    0.6946 H   0  0  0  0  0  0  0  0  0  0  0  0
   -0.5903    0.0562   -0.5978 H   0  0  0  0  0  0  0  0  0  0  0  0
    1.4051    0.9376   -1.1896 H   0  0  0  0  0  0  0  0  0  0  0  0
    3.4035    1.7189   -2.8803 H   0  0  0  0  0  0  0  0  0  0  0  0
    4.1949    2.9351   -1.8706 H   0  0  0  0  0  0  0  0  0  0  0  0
    3.4883   -2.2394    1.5906 H   0  0  0  0  0  0  0  0  0  0  0  0
    2.0682   -1.9719    0.5672 H   0  0  0  0  0  0  0  0  0  0  0  0
    3.3037   -2.9476   -1.3971 H   0  0  0  0  0  0  0  0  0  0  0  0
    4.7333   -3.1871   -0.3834 H   0  0  0  0  0  0  0  0  0  0  0  0
    3.2496   -4.1008   -0.0509 H   0  0  0  0  0  0  0  0  0  0  0  0
    5.2971   -0.4952    1.5658 H   0  0  0  0  0  0  0  0  0  0  0  0
    5.5506    1.9095    0.2650 H   0  0  0  0  0  0  0  0  0  0  0  0
   -0.2856    4.2943   -1.4389 H   0  0  0  0  0  0  0  0  0  0  0  0
   -2.6906    4.5366   -0.9276 H   0  0  0  0  0  0  0  0  0  0  0  0
   -5.5647    0.9627    0.3832 H   0  0  0  0  0  0  0  0  0  0  0  0
  1  2  1  0
  2  3  1  0
  3  4  1  0
  4  5  2  0
  4  6  1  0
  6  7  2  0
  7  8  1  0
  8  9  2  0
  9 10  1  0
 10 11  1  0
 11 12  2  0
 11 13  1  0
 13 14  1  0
 14 15  2  0
 15 16  1  0
 16 17  1  0
 17 18  1  0
 16 19  1  0
 19 20  2  0
  9 21  1  0
 21 22  2  0
 22 23  1  0
 23 24  1  0
 24 25  2  0
 25  6  1  0
 23  7  1  0
 20 14  1  0
  1 26  1  0
  1 27  1  0
  1 28  1  0
  2 29  1  0
  2 30  1  0
  8 31  1  0
 10 32  1  0
 13 33  1  0
 13 34  1  0
 17 35  1  0
 17 36  1  0
 18 37  1  0
 18 38  1  0
 18 39  1  0
 19 40  1  0
 20 41  1  0
 21 42  1  0
 22 43  1  0
 25 44  1  0
M  END
$$$$
OCNT-2308546
     RDKit          3D

  0  0  0  0  0  0  0  0  0  0999 V3000
M  V30 BEGIN CTAB
M  V30 COUNTS 37 40 0 0 0
M  V30 BEGIN ATOM
M  V30 1 C -4.867533 -1.436969 1.292485 0
M  V30 2 N -4.374810 -0.670471 0.177600 0
M  V30 3 C -5.067188 -0.381216 -0.963321 0
M  V30 4 N -4.340056 0.322832 -1.803002 0
M  V30 5 C -3.132017 0.498387 -1.177703 0
M  V30 6 C -3.135573 -0.106608 0.057020 0
M  V30 7 C -1.969630 -0.165246 1.069955 0 CFG=2
M  V30 8 C -2.133201 0.489562 2.411758 0
M  V30 9 C -1.207123 1.103359 1.389892 0 CFG=1
M  V30 10 C 0.266946 1.044995 1.585766 0
M  V30 11 O 0.736425 1.338974 2.674892 0
M  V30 12 N 0.932507 0.659556 0.445036 0
M  V30 13 C 2.302837 0.513101 0.318100 0
M  V30 14 C 3.259326 0.723987 1.282944 0
M  V30 15 N 4.486621 0.465087 0.734490 0
M  V30 16 C 4.349664 0.083530 -0.580109 0
M  V30 17 C 5.322642 -0.273588 -1.521285 0
M  V30 18 C 4.887299 -0.620947 -2.803091 0
M  V30 19 C 3.533270 -0.610942 -3.128036 0
M  V30 20 C 2.572765 -0.251193 -2.174888 0
M  V30 21 C 2.984331 0.104562 -0.872210 0
M  V30 22 H -5.793057 -1.943465 1.006680 0
M  V30 23 H -5.057840 -0.753307 2.123402 0
M  V30 24 H -4.115751 -2.180011 1.570442 0
M  V30 25 H -6.086118 -0.704180 -1.134029 0
M  V30 26 H -2.333712 1.050807 -1.654747 0
M  V30 27 H -1.411570 -1.097955 1.052316 0
M  V30 28 H -3.048016 1.026498 2.634183 0
M  V30 29 H -1.686792 0.007639 3.275244 0
M  V30 30 H -1.546689 2.041126 0.961578 0
M  V30 31 H 0.387592 0.458962 -0.382055 0
M  V30 32 H 3.180135 1.038240 2.315352 0
M  V30 33 H 5.368021 0.542654 1.222493 0
M  V30 34 H 6.378666 -0.281947 -1.271671 0
M  V30 35 H 5.618461 -0.902673 -3.557595 0
M  V30 36 H 3.217310 -0.884424 -4.131914 0
M  V30 37 H 1.521859 -0.248718 -2.445969 0
M  V30 END ATOM
M  V30 BEGIN BOND
M  V30 1 1 1 2
M  V30 2 1 2 3
M  V30 3 2 3 4
M  V30 4 1 4 5
M  V30 5 2 5 6
M  V30 6 1 6 7
M  V30 7 1 7 8
M  V30 8 1 8 9
M  V30 9 1 9 10
M  V30 10 2 10 11
M  V30 11 1 10 12
M  V30 12 1 12 13
M  V30 13 2 13 14
M  V30 14 1 14 15
M  V30 15 1 15 16
M  V30 16 2 16 17
M  V30 17 1 17 18
M  V30 18 2 18 19
M  V30 19 1 19 20
M  V30 20 2 20 21
M  V30 21 1 6 2
M  V30 22 1 9 7
M  V30 23 1 21 13
M  V30 24 1 21 16
M  V30 25 1 1 22
M  V30 26 1 1 23
M  V30 27 1 1 24
M  V30 28 1 3 25
M  V30 29 1 5 26
M  V30 30 1 7 27 CFG=1
M  V30 31 1 8 28
M  V30 32 1 8 29
M  V30 33 1 9 30 CFG=3
M  V30 34 1 12 31
M  V30 35 1 14 32
M  V30 36 1 15 33
M  V30 37 1 17 34
M  V30 38 1 18 35
M  V30 39 1 19 36
M  V30 40 1 20 37
M  V30 END BOND
M  V30 BEGIN COLLECTION
M  V30 MDLV30/STERAC1 ATOMS=(2 7 9)
M  V30 END COLLECTION
M  V30 END CTAB
M  END
>  <_CXSMILES_Data>  (65) 
|&1:6,8|

$$$$
OCNT-2308553
     RDKit          3D

 45 48  0  0  0  0  0  0  0  0999 V2000
   -5.5698    0.1494   -0.6230 C   0  0  0  0  0  0  0  0  0  0  0  0
   -4.4745    1.0227   -0.0102 C   0  0  0  0  0  0  0  0  0  0  0  0
   -5.0629    2.2343    0.7055 C   0  0  0  0  0  0  0  0  0  0  0  0
   -3.4330    0.2377    0.8331 C   0  0  0  0  0  0  0  0  0  0  0  0
   -2.5253    0.1471   -0.4246 C   0  0  0  0  0  0  0  0  0  0  0  0
   -0.9906    0.3174   -0.2052 C   0  0  0  0  0  0  0  0  0  0  0  0
   -0.4858    1.4466   -0.2316 O   0  0  0  0  0  0  0  0  0  0  0  0
   -0.2593   -0.8662    0.0130 N   0  0  0  0  0  0  0  0  0  0  0  0
   -0.8922   -2.1901    0.0947 C   0  0  0  0  0  0  0  0  0  0  0  0
   -0.0337   -3.2110    0.8463 C   0  0  0  0  0  0  0  0  0  0  0  0
    1.3813   -3.2476    0.2838 C   0  0  0  0  0  0  0  0  0  0  0  0
    1.8995   -1.9063    0.1553 N   0  0  0  0  0  0  0  0  0  0  0  0
    3.2115   -1.6468    0.1205 N   0  0  0  0  0  0  0  0  0  0  0  0
    3.2099   -0.3090   -0.0274 C   0  0  0  0  0  0  0  0  0  0  0  0
    4.4149    0.5101   -0.1169 C   0  0  0  0  0  0  0  0  0  0  0  0
    4.3125    1.9007   -0.2696 C   0  0  0  0  0  0  0  0  0  0  0  0
    5.4592    2.6943   -0.3562 C   0  0  0  0  0  0  0  0  0  0  0  0
    6.7209    2.1058   -0.2910 C   0  0  0  0  0  0  0  0  0  0  0  0
    6.8379    0.7252   -0.1393 C   0  0  0  0  0  0  0  0  0  0  0  0
    5.6910   -0.0687   -0.0526 C   0  0  0  0  0  0  0  0  0  0  0  0
    1.9447    0.2397   -0.0944 N   0  0  0  0  0  0  0  0  0  0  0  0
    1.1332   -0.7823    0.0204 C   0  0  0  0  0  0  0  0  0  0  0  0
   -3.3147    1.3664   -0.9849 C   0  0  0  0  0  0  0  0  0  0  0  0
   -6.1564    0.7173   -1.3533 H   0  0  0  0  0  0  0  0  0  0  0  0
   -5.1582   -0.7250   -1.1379 H   0  0  0  0  0  0  0  0  0  0  0  0
   -6.2545   -0.2149    0.1506 H   0  0  0  0  0  0  0  0  0  0  0  0
   -5.6359    2.8580    0.0109 H   0  0  0  0  0  0  0  0  0  0  0  0
   -5.7332    1.9229    1.5140 H   0  0  0  0  0  0  0  0  0  0  0  0
   -4.2808    2.8620    1.1467 H   0  0  0  0  0  0  0  0  0  0  0  0
   -2.9861    0.8111    1.6548 H   0  0  0  0  0  0  0  0  0  0  0  0
   -3.7738   -0.7213    1.2350 H   0  0  0  0  0  0  0  0  0  0  0  0
   -2.7525   -0.7367   -1.0377 H   0  0  0  0  0  0  0  0  0  0  0  0
   -1.8588   -2.1093    0.5995 H   0  0  0  0  0  0  0  0  0  0  0  0
   -1.0760   -2.5267   -0.9327 H   0  0  0  0  0  0  0  0  0  0  0  0
   -0.4902   -4.2051    0.7946 H   0  0  0  0  0  0  0  0  0  0  0  0
    0.0076   -2.9271    1.9061 H   0  0  0  0  0  0  0  0  0  0  0  0
    2.0463   -3.8152    0.9425 H   0  0  0  0  0  0  0  0  0  0  0  0
    1.3999   -3.6948   -0.7158 H   0  0  0  0  0  0  0  0  0  0  0  0
    3.3321    2.3730   -0.3215 H   0  0  0  0  0  0  0  0  0  0  0  0
    5.3632    3.7704   -0.4742 H   0  0  0  0  0  0  0  0  0  0  0  0
    7.6125    2.7236   -0.3584 H   0  0  0  0  0  0  0  0  0  0  0  0
    7.8206    0.2642   -0.0881 H   0  0  0  0  0  0  0  0  0  0  0  0
    5.7977   -1.1449    0.0659 H   0  0  0  0  0  0  0  0  0  0  0  0
   -3.5550    1.3111   -2.0515 H   0  0  0  0  0  0  0  0  0  0  0  0
   -2.8430    2.3380   -0.7952 H   0  0  0  0  0  0  0  0  0  0  0  0
  1  2  1  0
  2  3  1  0
  2  4  1  0
  4  5  1  0
  5  6  1  0
  6  7  2  0
  6  8  1  0
  8  9  1  0
  9 10  1  0
 10 11  1  0
 11 12  1  0
 12 13  1  0
 13 14  2  0
 14 15  1  0
 15 16  2  0
 16 17  1  0
 17 18  2  0
 18 19  1  0
 19 20  2  0
 14 21  1  0
 21 22  2  0
  5 23  1  0
 23  2  1  0
 22  8  1  0
 22 12  1  0
 20 15  1  0
  1 24  1  0
  1 25  1  0
  1 26  1  0
  3 27  1  0
  3 28  1  0
  3 29  1  0
  4 30  1  0
  4 31  1  0
  5 32  1  0
  9 33  1  0
  9 34  1  0
 10 35  1  0
 10 36  1  0
 11 37  1  0
 11 38  1  0
 16 39  1  0
 17 40  1  0
 18 41  1  0
 19 42  1  0
 20 43  1  0
 23 44  1  0
 23 45  1  0
M  END
$$$$
OCNT-2308554
     RDKit          3D

 50 54  0  0  0  0  0  0  0  0999 V2000
    6.3205   -2.4987   -1.3227 C   0  0  0  0  0  0  0  0  0  0  0  0
    5.1473   -1.7304   -0.7961 C   0  0  0  0  0  0  0  0  0  0  0  0
    5.0785   -0.3907   -0.8252 C   0  0  0  0  0  0  0  0  0  0  0  0
    3.8840    0.3171   -0.2851 C   0  0  0  0  0  0  0  0  0  0  0  0
    3.8555    1.6150   -0.3276 N   0  0  0  0  0  0  0  0  0  0  0  0
    2.7340    2.2277    0.1603 C   0  0  0  0  0  0  0  0  0  0  0  0
    1.6657    1.5943    0.6572 C   0  0  0  0  0  0  0  0  0  0  0  0
    0.5125    2.4022    1.1111 C   0  0  0  0  0  0  0  0  0  0  0  0
    0.7148    3.3201    1.9111 O   0  0  0  0  0  0  0  0  0  0  0  0
   -0.7676    2.0476    0.6949 N   0  0  0  0  0  0  0  0  0  0  0  0
   -1.8378    2.3596    1.6413 C   0  0  0  0  0  0  0  0  0  0  0  0
   -3.2339    1.9790    1.1651 C   0  0  0  0  0  0  0  0  0  0  0  0
   -3.2628    0.6165    0.6066 N   0  0  0  0  0  0  0  0  0  0  0  0
   -3.0436   -0.4681    1.6007 C   0  0  0  0  0  0  0  0  0  0  0  0
   -3.9893   -0.6721    2.7552 C   0  0  0  0  0  0  0  0  0  0  0  0
   -3.9431   -1.6728    1.6422 C   0  0  0  0  0  0  0  0  0  0  0  0
   -2.3581    0.5851   -0.5127 C   0  0  0  0  0  0  0  0  0  0  0  0
   -2.7077   -0.1617   -1.6616 C   0  0  0  0  0  0  0  0  0  0  0  0
   -3.9897   -0.9418   -1.7476 C   0  0  0  0  0  0  0  0  0  0  0  0
   -1.8300   -0.1966   -2.7544 C   0  0  0  0  0  0  0  0  0  0  0  0
   -0.6485    0.5362   -2.7381 C   0  0  0  0  0  0  0  0  0  0  0  0
   -0.3073    1.2899   -1.6155 C   0  0  0  0  0  0  0  0  0  0  0  0
   -1.1236    1.2970   -0.4757 C   0  0  0  0  0  0  0  0  0  0  0  0
    1.7313    0.1242    0.7897 C   0  0  0  0  0  0  0  0  0  0  0  0
    0.8445   -0.4916    1.3822 O   0  0  0  0  0  0  0  0  0  0  0  0
    2.8636   -0.4713    0.2362 N   0  0  0  0  0  0  0  0  0  0  0  0
    2.9770   -1.8565    0.2565 C   0  0  0  0  0  0  0  0  0  0  0  0
    4.0525   -2.4866   -0.2315 C   0  0  0  0  0  0  0  0  0  0  0  0
    7.0936   -1.8355   -1.7256 H   0  0  0  0  0  0  0  0  0  0  0  0
    6.0092   -3.1725   -2.1281 H   0  0  0  0  0  0  0  0  0  0  0  0
    6.7781   -3.0963   -0.5271 H   0  0  0  0  0  0  0  0  0  0  0  0
    5.8669    0.2318   -1.2312 H   0  0  0  0  0  0  0  0  0  0  0  0
    2.7402    3.3148    0.0942 H   0  0  0  0  0  0  0  0  0  0  0  0
   -1.8091    3.4332    1.8644 H   0  0  0  0  0  0  0  0  0  0  0  0
   -1.6025    1.8371    2.5779 H   0  0  0  0  0  0  0  0  0  0  0  0
   -3.9482    2.0681    1.9916 H   0  0  0  0  0  0  0  0  0  0  0  0
   -3.5753    2.6886    0.3984 H   0  0  0  0  0  0  0  0  0  0  0  0
   -1.9886   -0.6416    1.8139 H   0  0  0  0  0  0  0  0  0  0  0  0
   -4.8716   -0.0481    2.8248 H   0  0  0  0  0  0  0  0  0  0  0  0
   -3.5631   -0.9541    3.7104 H   0  0  0  0  0  0  0  0  0  0  0  0
   -4.7944   -1.7097    0.9749 H   0  0  0  0  0  0  0  0  0  0  0  0
   -3.4812   -2.6336    1.8330 H   0  0  0  0  0  0  0  0  0  0  0  0
   -4.2942   -1.0795   -2.7912 H   0  0  0  0  0  0  0  0  0  0  0  0
   -3.8576   -1.9301   -1.2982 H   0  0  0  0  0  0  0  0  0  0  0  0
   -4.8126   -0.4178   -1.2518 H   0  0  0  0  0  0  0  0  0  0  0  0
   -2.0807   -0.7777   -3.6394 H   0  0  0  0  0  0  0  0  0  0  0  0
    0.0021    0.5346   -3.6093 H   0  0  0  0  0  0  0  0  0  0  0  0
    0.5869    1.8995   -1.6823 H   0  0  0  0  0  0  0  0  0  0  0  0
    2.1484   -2.4135    0.6876 H   0  0  0  0  0  0  0  0  0  0  0  0
    4.1151   -3.5705   -0.2035 H   0  0  0  0  0  0  0  0  0  0  0  0
  1  2  1  0
  2  3  2  0
  3  4  1  0
  4  5  2  0
  5  6  1  0
  6  7  2  0
  7  8  1  0
  8  9  2  0
  8 10  1  0
 10 11  1  0
 11 12  1  0
 12 13  1  0
 13 14  1  0
 14 15  1  0
 15 16  1  0
 13 17  1  0
 17 18  1  0
 18 19  1  0
 18 20  2  0
 20 21  1  0
 21 22  2  0
 22 23  1  0
  7 24  1  0
 24 25  2  0
 24 26  1  0
 26 27  1  0
 27 28  2  0
 28  2  1  0
 26  4  1  0
 23 10  1  0
 16 14  1  0
 23 17  2  0
  1 29  1  0
  1 30  1  0
  1 31  1  0
  3 32  1  0
  6 33  1  0
 11 34  1  0
 11 35  1  0
 12 36  1  0
 12 37  1  0
 14 38  1  0
 15 39  1  0
 15 40  1  0
 16 41  1  0
 16 42  1  0
 19 43  1  0
 19 44  1  0
 19 45  1  0
 20 46  1  0
 21 47  1  0
 22 48  1  0
 27 49  1  0
 28 50  1  0
M  END
$$$$
OCNT-2308562
     RDKit          3D

 39 41  0  0  0  0  0  0  0  0999 V2000
    3.9253    1.4097   -2.6932 C   0  0  0  0  0  0  0  0  0  0  0  0
    4.4901    0.1375   -2.9977 O   0  0  0  0  0  0  0  0  0  0  0  0
    4.2152   -0.8620   -2.0688 C   0  0  0  0  0  0  0  0  0  0  0  0
    5.1217   -1.9326   -2.1072 C   0  0  0  0  0  0  0  0  0  0  0  0
    4.9895   -3.0121   -1.2414 C   0  0  0  0  0  0  0  0  0  0  0  0
    3.9484   -3.0567   -0.3136 C   0  0  0  0  0  0  0  0  0  0  0  0
    3.0273   -1.9960   -0.2928 C   0  0  0  0  0  0  0  0  0  0  0  0
    3.1229   -0.9014   -1.1598 C   0  0  0  0  0  0  0  0  0  0  0  0
    2.0923    0.0263   -1.0209 N   0  0  0  0  0  0  0  0  0  0  0  0
    1.2736   -0.3446   -0.0695 C   0  0  0  0  0  0  0  0  0  0  0  0
    0.1559    0.3975    0.2079 N   0  0  0  0  0  0  0  0  0  0  0  0
   -0.7913    0.1617    1.1852 C   0  0  0  0  0  0  0  0  0  0  0  0
   -0.7338   -0.7066    2.0457 O   0  0  0  0  0  0  0  0  0  0  0  0
   -1.9665    1.1384    1.0780 C   0  0  0  0  0  0  0  0  0  0  0  0
   -2.7310    0.9711   -0.2527 C   0  0  0  0  0  0  0  0  0  0  0  0
   -4.2012    0.6371   -0.0727 C   0  0  0  0  0  0  0  0  0  0  0  0
   -4.8844    1.5079    0.9747 C   0  0  0  0  0  0  0  0  0  0  0  0
   -4.0099    2.0352    1.9691 O   0  0  0  0  0  0  0  0  0  0  0  0
   -2.8931    1.1969    2.3077 C   0  0  0  0  0  0  0  0  0  0  0  0
   -3.3735   -0.1102    2.9408 C   0  0  0  0  0  0  0  0  0  0  0  0
    1.6526   -1.7931    0.7237 S   0  0  0  0  0  0  0  0  0  0  0  0
    4.0747    1.6854   -1.6432 H   0  0  0  0  0  0  0  0  0  0  0  0
    4.4489    2.1570   -3.2984 H   0  0  0  0  0  0  0  0  0  0  0  0
    2.8696    1.4399   -2.9782 H   0  0  0  0  0  0  0  0  0  0  0  0
    5.9447   -1.9095   -2.8181 H   0  0  0  0  0  0  0  0  0  0  0  0
    5.7076   -3.8282   -1.2841 H   0  0  0  0  0  0  0  0  0  0  0  0
    3.8465   -3.8970    0.3684 H   0  0  0  0  0  0  0  0  0  0  0  0
    0.0454    1.1791   -0.4245 H   0  0  0  0  0  0  0  0  0  0  0  0
   -1.5009    2.1374    1.0214 H   0  0  0  0  0  0  0  0  0  0  0  0
   -2.2740    0.2075   -0.8945 H   0  0  0  0  0  0  0  0  0  0  0  0
   -2.6641    1.9127   -0.8111 H   0  0  0  0  0  0  0  0  0  0  0  0
   -4.2900   -0.4155    0.2160 H   0  0  0  0  0  0  0  0  0  0  0  0
   -4.7349    0.7156   -1.0284 H   0  0  0  0  0  0  0  0  0  0  0  0
   -5.3571    2.3676    0.4852 H   0  0  0  0  0  0  0  0  0  0  0  0
   -5.6873    0.9502    1.4694 H   0  0  0  0  0  0  0  0  0  0  0  0
   -2.3566    1.7372    3.0989 H   0  0  0  0  0  0  0  0  0  0  0  0
   -3.6263   -0.8728    2.2019 H   0  0  0  0  0  0  0  0  0  0  0  0
   -2.6082   -0.5338    3.6012 H   0  0  0  0  0  0  0  0  0  0  0  0
   -4.2682    0.0633    3.5501 H   0  0  0  0  0  0  0  0  0  0  0  0
  1  2  1  0
  2  3  1  0
  3  4  1  0
  4  5  2  0
  5  6  1  0
  6  7  2  0
  7  8  1  0
  8  9  1  0
  9 10  2  0
 10 11  1  0
 11 12  1  0
 12 13  2  0
 12 14  1  0
 14 15  1  0
 15 16  1  0
 16 17  1  0
 17 18  1  0
 18 19  1  0
 19 20  1  0
 10 21  1  0
  8  3  2  0
 19 14  1  0
 21  7  1  0
  1 22  1  0
  1 23  1  0
  1 24  1  0
  4 25  1  0
  5 26  1  0
  6 27  1  0
 11 28  1  0
 14 29  1  0
 15 30  1  0
 15 31  1  0
 16 32  1  0
 16 33  1  0
 17 34  1  0
 17 35  1  0
 19 36  1  0
 20 37  1  0
 20 38  1  0
 20 39  1  0
M  END
$$$$
OCNT-2308571
     RDKit          3D

 37 39  0  0  0  0  0  0  0  0999 V2000
    1.9670    0.0467   -1.5245 O   0  0  0  0  0  0  0  0  0  0  0  0
    2.7524    0.1337   -0.5881 C   0  0  0  0  0  0  0  0  0  0  0  0
    2.3592    0.4234    0.7016 N   0  0  0  0  0  0  0  0  0  0  0  0
    0.9614    0.6606    1.0258 C   0  0  0  0  0  0  0  0  0  0  0  0
    0.1384   -0.6248    1.0652 C   0  0  0  0  0  0  0  0  0  0  0  0
   -1.2484   -0.3395    1.4884 C   0  0  0  0  0  0  0  0  0  0  0  0
   -1.7281   -0.1483    2.6979 N   0  0  0  0  0  0  0  0  0  0  0  0
   -3.0774    0.0950    2.5417 N   0  0  0  0  0  0  0  0  0  0  0  0
   -3.3266    0.0353    1.2476 C   0  0  0  0  0  0  0  0  0  0  0  0
   -4.5777    0.2137    0.5222 C   0  0  0  0  0  0  0  0  0  0  0  0
   -4.6430    0.1267   -0.8772 C   0  0  0  0  0  0  0  0  0  0  0  0
   -5.8567    0.3028   -1.5479 C   0  0  0  0  0  0  0  0  0  0  0  0
   -7.0199    0.5679   -0.8284 C   0  0  0  0  0  0  0  0  0  0  0  0
   -6.9724    0.6575    0.5607 C   0  0  0  0  0  0  0  0  0  0  0  0
   -5.7591    0.4817    1.2311 C   0  0  0  0  0  0  0  0  0  0  0  0
   -2.2003   -0.2374    0.5120 O   0  0  0  0  0  0  0  0  0  0  0  0
    4.2028   -0.1194   -0.8058 C   0  0  0  0  0  0  0  0  0  0  0  0
    4.5788   -0.9432   -1.8782 C   0  0  0  0  0  0  0  0  0  0  0  0
    5.9276   -1.2056   -2.1253 C   0  0  0  0  0  0  0  0  0  0  0  0
    6.8986   -0.6373   -1.3069 C   0  0  0  0  0  0  0  0  0  0  0  0
    8.1887   -0.9017   -1.5588 F   0  0  0  0  0  0  0  0  0  0  0  0
    6.5350    0.1956   -0.2496 C   0  0  0  0  0  0  0  0  0  0  0  0
    7.7367    0.9115    0.7548 Cl  0  0  0  0  0  0  0  0  0  0  0  0
    5.1875    0.4621    0.0039 C   0  0  0  0  0  0  0  0  0  0  0  0
    3.0075    0.3085    1.4693 H   0  0  0  0  0  0  0  0  0  0  0  0
    0.5485    1.3554    0.2842 H   0  0  0  0  0  0  0  0  0  0  0  0
    0.9447    1.1655    1.9984 H   0  0  0  0  0  0  0  0  0  0  0  0
    0.1394   -1.1158    0.0855 H   0  0  0  0  0  0  0  0  0  0  0  0
    0.5915   -1.3341    1.7682 H   0  0  0  0  0  0  0  0  0  0  0  0
   -3.7484   -0.0786   -1.4620 H   0  0  0  0  0  0  0  0  0  0  0  0
   -5.8923    0.2330   -2.6323 H   0  0  0  0  0  0  0  0  0  0  0  0
   -7.9637    0.7048   -1.3505 H   0  0  0  0  0  0  0  0  0  0  0  0
   -7.8786    0.8644    1.1247 H   0  0  0  0  0  0  0  0  0  0  0  0
   -5.7401    0.5552    2.3177 H   0  0  0  0  0  0  0  0  0  0  0  0
    3.8186   -1.3823   -2.5233 H   0  0  0  0  0  0  0  0  0  0  0  0
    6.2260   -1.8449   -2.9510 H   0  0  0  0  0  0  0  0  0  0  0  0
    4.9225    1.1412    0.8087 H   0  0  0  0  0  0  0  0  0  0  0  0
  1  2  2  0
  2  3  1  0
  3  4  1  0
  4  5  1  0
  5  6  1  0
  6  7  2  0
  7  8  1  0
  8  9  2  0
  9 10  1  0
 10 11  2  0
 11 12  1  0
 12 13  2  0
 13 14  1  0
 14 15  2  0
  9 16  1  0
  2 17  1  0
 17 18  1  0
 18 19  2  0
 19 20  1  0
 20 21  1  0
 20 22  2  0
 22 23  1  0
 22 24  1  0
 16  6  1  0
 24 17  2  0
 15 10  1  0
  3 25  1  0
  4 26  1  0
  4 27  1  0
  5 28  1  0
  5 29  1  0
 11 30  1  0
 12 31  1  0
 13 32  1  0
 14 33  1  0
 15 34  1  0
 18 35  1  0
 19 36  1  0
 24 37  1  0
M  END
$$$$
OCNT-2308588
     RDKit          3D

 47 49  0  0  0  0  0  0  0  0999 V2000
    5.8203   -1.2756   -0.0441 C   0  0  0  0  0  0  0  0  0  0  0  0
    4.8636   -0.2534    0.5870 C   0  0  0  0  0  0  0  0  0  0  0  0
    4.6498   -0.5980    2.0629 C   0  0  0  0  0  0  0  0  0  0  0  0
    3.6615   -0.1566   -0.2503 N   0  0  0  0  0  0  0  0  0  0  0  0
    3.1565    1.1941   -0.4877 C   0  0  0  0  0  0  0  0  0  0  0  0
    2.2573    1.7955    0.5943 C   0  0  0  0  0  0  0  0  0  0  0  0
    0.7870    1.4124    0.4335 C   0  0  0  0  0  0  0  0  0  0  0  0
    0.5254   -0.0176    0.4616 N   0  0  0  0  0  0  0  0  0  0  0  0
   -0.5961   -0.4829   -0.1985 C   0  0  0  0  0  0  0  0  0  0  0  0
   -0.7285   -1.8057   -0.4075 N   0  0  0  0  0  0  0  0  0  0  0  0
   -1.8253   -2.2415   -1.0541 C   0  0  0  0  0  0  0  0  0  0  0  0
   -2.8154   -1.4118   -1.4989 C   0  0  0  0  0  0  0  0  0  0  0  0
   -2.6107   -0.0837   -1.2224 C   0  0  0  0  0  0  0  0  0  0  0  0
   -3.5216    0.8597   -1.6537 O   0  0  0  0  0  0  0  0  0  0  0  0
   -4.7557    0.8284   -1.0433 C   0  0  0  0  0  0  0  0  0  0  0  0
   -4.9219    0.6690    0.3353 C   0  0  0  0  0  0  0  0  0  0  0  0
   -6.2052    0.6719    0.8838 C   0  0  0  0  0  0  0  0  0  0  0  0
   -7.3172    0.8482    0.0598 C   0  0  0  0  0  0  0  0  0  0  0  0
   -7.1486    1.0311   -1.3129 C   0  0  0  0  0  0  0  0  0  0  0  0
   -5.8668    1.0286   -1.8641 C   0  0  0  0  0  0  0  0  0  0  0  0
   -1.5215    0.3996   -0.6008 N   0  0  0  0  0  0  0  0  0  0  0  0
    1.5218   -0.9719    0.9260 C   0  0  0  0  0  0  0  0  0  0  0  0
    2.6367   -1.1999   -0.1167 C   0  0  0  0  0  0  0  0  0  0  0  0
    6.0255   -1.0264   -1.0914 H   0  0  0  0  0  0  0  0  0  0  0  0
    5.4189   -2.2939   -0.0088 H   0  0  0  0  0  0  0  0  0  0  0  0
    6.7802   -1.2790    0.4843 H   0  0  0  0  0  0  0  0  0  0  0  0
    5.3991    0.7047    0.5581 H   0  0  0  0  0  0  0  0  0  0  0  0
    5.6110   -0.6181    2.5895 H   0  0  0  0  0  0  0  0  0  0  0  0
    4.1901   -1.5825    2.1957 H   0  0  0  0  0  0  0  0  0  0  0  0
    4.0297    0.1483    2.5656 H   0  0  0  0  0  0  0  0  0  0  0  0
    4.0070    1.8699   -0.6453 H   0  0  0  0  0  0  0  0  0  0  0  0
    2.6256    1.2032   -1.4487 H   0  0  0  0  0  0  0  0  0  0  0  0
    2.3198    2.8890    0.5168 H   0  0  0  0  0  0  0  0  0  0  0  0
    2.6195    1.5559    1.5979 H   0  0  0  0  0  0  0  0  0  0  0  0
    0.4462    1.8564   -0.5115 H   0  0  0  0  0  0  0  0  0  0  0  0
    0.2105    1.8921    1.2341 H   0  0  0  0  0  0  0  0  0  0  0  0
   -1.8768   -3.3150   -1.2072 H   0  0  0  0  0  0  0  0  0  0  0  0
   -3.6868   -1.7727   -2.0236 H   0  0  0  0  0  0  0  0  0  0  0  0
   -4.0617    0.5587    0.9911 H   0  0  0  0  0  0  0  0  0  0  0  0
   -6.3367    0.5470    1.9558 H   0  0  0  0  0  0  0  0  0  0  0  0
   -8.3157    0.8547    0.4900 H   0  0  0  0  0  0  0  0  0  0  0  0
   -8.0145    1.1822   -1.9520 H   0  0  0  0  0  0  0  0  0  0  0  0
   -5.7348    1.1816   -2.9317 H   0  0  0  0  0  0  0  0  0  0  0  0
    1.0670   -1.9401    1.1725 H   0  0  0  0  0  0  0  0  0  0  0  0
    1.9355   -0.6298    1.8798 H   0  0  0  0  0  0  0  0  0  0  0  0
    3.1190   -2.1596    0.1033 H   0  0  0  0  0  0  0  0  0  0  0  0
    2.1771   -1.3410   -1.1036 H   0  0  0  0  0  0  0  0  0  0  0  0
  1  2  1  0
  2  3  1  0
  2  4  1  0
  4  5  1  0
  5  6  1  0
  6  7  1  0
  7  8  1  0
  8  9  1  0
  9 10  2  0
 10 11  1  0
 11 12  2  0
 12 13  1  0
 13 14  1  0
 14 15  1  0
 15 16  2  0
 16 17  1  0
 17 18  2  0
 18 19  1  0
 19 20  2  0
 13 21  2  0
  8 22  1  0
 22 23  1  0
 23  4  1  0
 21  9  1  0
 20 15  1  0
  1 24  1  0
  1 25  1  0
  1 26  1  0
  2 27  1  0
  3 28  1  0
  3 29  1  0
  3 30  1  0
  5 31  1  0
  5 32  1  0
  6 33  1  0
  6 34  1  0
  7 35  1  0
  7 36  1  0
 11 37  1  0
 12 38  1  0
 16 39  1  0
 17 40  1  0
 18 41  1  0
 19 42  1  0
 20 43  1  0
 22 44  1  0
 22 45  1  0
 23 46  1  0
 23 47  1  0
M  END
$$$$
OCNT-2308594
     RDKit          3D

  0  0  0  0  0  0  0  0  0  0999 V3000
M  V30 BEGIN CTAB
M  V30 COUNTS 50 52 0 0 0
M  V30 BEGIN ATOM
M  V30 1 C 1.078359 -3.219427 -1.267573 0
M  V30 2 C 2.141001 -2.259207 -0.807737 0
M  V30 3 C 3.478782 -2.651288 -0.994014 0
M  V30 4 C 4.537470 -1.795341 -0.683371 0
M  V30 5 C 4.295621 -0.513417 -0.179128 0
M  V30 6 C 5.402329 0.402667 0.128889 0
M  V30 7 C 6.469632 0.021973 0.950439 0
M  V30 8 N 7.525390 0.813847 1.269489 0
M  V30 9 C 7.520598 2.059617 0.743372 0
M  V30 10 C 6.514390 2.535275 -0.076575 0
M  V30 11 F 6.565297 3.779410 -0.569060 0
M  V30 12 C 5.446148 1.704644 -0.387770 0
M  V30 13 C 2.958362 -0.132350 0.026982 0
M  V30 14 C 1.882409 -1.001005 -0.240368 0
M  V30 15 N 0.594994 -0.490167 0.041980 0
M  V30 16 C -0.459289 -1.206465 0.577305 0
M  V30 17 O -0.417290 -2.352965 1.003590 0
M  V30 18 N -1.596352 -0.417641 0.620631 0
M  V30 19 C -2.866320 -0.928530 1.059931 0 CFG=1
M  V30 20 C -3.778055 -0.071207 1.894044 0
M  V30 21 C -4.138629 -0.357901 0.461866 0 CFG=2
M  V30 22 C -5.249929 -1.299026 0.119680 0
M  V30 23 O -3.918329 0.707292 -0.497850 0
M  V30 24 C -4.882845 1.764797 -0.449168 0
M  V30 25 C -5.660852 1.763757 -1.758183 0
M  V30 26 C -4.129122 3.075779 -0.267541 0
M  V30 27 H 1.424902 -3.784258 -2.141543 0
M  V30 28 H 0.172573 -2.698238 -1.590809 0
M  V30 29 H 0.839457 -3.936644 -0.476965 0
M  V30 30 H 3.703966 -3.631839 -1.410516 0
M  V30 31 H 5.554719 -2.136720 -0.866264 0
M  V30 32 H 6.503592 -0.968227 1.401115 0
M  V30 33 H 8.367776 2.685895 1.001811 0
M  V30 34 H 4.664774 2.076559 -1.043407 0
M  V30 35 H 2.757464 0.852024 0.447250 0
M  V30 36 H 0.551597 0.484998 0.302598 0
M  V30 37 H -1.665636 0.269664 -0.123471 0
M  V30 38 H -2.858453 -1.992019 1.290112 0
M  V30 39 H -4.344264 -0.560511 2.678063 0
M  V30 40 H -3.440492 0.923466 2.156199 0
M  V30 41 H -5.117099 -1.689590 -0.894241 0
M  V30 42 H -5.290520 -2.150307 0.807534 0
M  V30 43 H -6.216243 -0.788755 0.167196 0
M  V30 44 H -5.576083 1.628443 0.389756 0
M  V30 45 H -6.403579 2.566668 -1.778695 0
M  V30 46 H -4.988699 1.885959 -2.615004 0
M  V30 47 H -6.177335 0.808618 -1.900338 0
M  V30 48 H -4.816052 3.926723 -0.230123 0
M  V30 49 H -3.544290 3.058584 0.658673 0
M  V30 50 H -3.415846 3.236387 -1.085052 0
M  V30 END ATOM
M  V30 BEGIN BOND
M  V30 1 1 1 2
M  V30 2 1 2 3
M  V30 3 2 3 4
M  V30 4 1 4 5
M  V30 5 1 5 6
M  V30 6 2 6 7
M  V30 7 1 7 8
M  V30 8 2 8 9
M  V30 9 1 9 10
M  V30 10 1 10 11
M  V30 11 2 10 12
M  V30 12 2 5 13
M  V30 13 1 13 14
M  V30 14 1 14 15
M  V30 15 1 15 16
M  V30 16 2 16 17
M  V30 17 1 16 18
M  V30 18 1 18 19
M  V30 19 1 19 20
M  V30 20 1 20 21
M  V30 21 1 21 22
M  V30 22 1 21 23 CFG=3
M  V30 23 1 23 24
M  V30 24 1 24 25
M  V30 25 1 24 26
M  V30 26 2 14 2
M  V30 27 1 21 19
M  V30 28 1 12 6
M  V30 29 1 1 27
M  V30 30 1 1 28
M  V30 31 1 1 29
M  V30 32 1 3 30
M  V30 33 1 4 31
M  V30 34 1 7 32
M  V30 35 1 9 33
M  V30 36 1 12 34
M  V30 37 1 13 35
M  V30 38 1 15 36
M  V30 39 1 18 37
M  V30 40 1 19 38 CFG=1
M  V30 41 1 20 39
M  V30 42 1 20 40
M  V30 43 1 22 41
M  V30 44 1 22 42
M  V30 45 1 22 43
M  V30 46 1 24 44
M  V30 47 1 25 45
M  V30 48 1 25 46
M  V30 49 1 25 47
M  V30 50 1 26 48
M  V30 51 1 26 49
M  V30 52 1 26 50
M  V30 END BOND
M  V30 BEGIN COLLECTION
M  V30 MDLV30/STERAC1 ATOMS=(2 19 21)
M  V30 END COLLECTION
M  V30 END CTAB
M  END
>  <_CXSMILES_Data>  (71) 
|&1:18,20|

$$$$
OCNT-2308597
     RDKit          3D

 48 51  0  0  0  0  0  0  0  0999 V2000
    6.8528   -1.4672    0.5082 C   0  0  0  0  0  0  0  0  0  0  0  0
    5.5428   -1.1476    0.9753 O   0  0  0  0  0  0  0  0  0  0  0  0
    5.3155    0.1878    1.1267 C   0  0  0  0  0  0  0  0  0  0  0  0
    6.1397    1.0678    0.9082 O   0  0  0  0  0  0  0  0  0  0  0  0
    3.9043    0.4508    1.6501 C   0  0  0  0  0  0  0  0  0  0  0  0
    2.8718   -0.4164    1.1990 O   0  0  0  0  0  0  0  0  0  0  0  0
    2.5595   -0.2189   -0.1837 C   0  0  0  0  0  0  0  0  0  0  0  0
    1.3372   -1.0789   -0.5364 C   0  0  0  0  0  0  0  0  0  0  0  0
    1.1284   -1.1883   -2.0561 C   0  0  0  0  0  0  0  0  0  0  0  0
    0.6272    0.1179   -2.6724 C   0  0  0  0  0  0  0  0  0  0  0  0
   -0.6264    0.6228   -1.9586 C   0  0  0  0  0  0  0  0  0  0  0  0
   -0.3625    0.6933   -0.5276 N   0  0  0  0  0  0  0  0  0  0  0  0
   -1.2809    1.4534    0.1932 C   0  0  0  0  0  0  0  0  0  0  0  0
   -0.7977    2.6318    0.6687 N   0  0  0  0  0  0  0  0  0  0  0  0
   -1.5984    3.4398    1.3800 C   0  0  0  0  0  0  0  0  0  0  0  0
   -2.8809    3.2406    1.7041 N   0  0  0  0  0  0  0  0  0  0  0  0
   -3.3306    2.0751    1.2204 C   0  0  0  0  0  0  0  0  0  0  0  0
   -2.6329    1.1345    0.4724 C   0  0  0  0  0  0  0  0  0  0  0  0
   -3.5689    0.0694    0.2026 C   0  0  0  0  0  0  0  0  0  0  0  0
   -3.5199   -1.1620   -0.4909 C   0  0  0  0  0  0  0  0  0  0  0  0
   -4.6537   -1.9835   -0.5600 C   0  0  0  0  0  0  0  0  0  0  0  0
   -5.8387   -1.5957    0.0523 C   0  0  0  0  0  0  0  0  0  0  0  0
   -7.3556   -2.7220   -0.0556 Br  0  0  0  0  0  0  0  0  0  0  0  0
   -5.9330   -0.3893    0.7464 C   0  0  0  0  0  0  0  0  0  0  0  0
   -4.7867    0.4162    0.8027 C   0  0  0  0  0  0  0  0  0  0  0  0
   -4.6050    1.6334    1.4094 N   0  0  0  0  0  0  0  0  0  0  0  0
    0.0689   -0.5329    0.1429 C   0  0  0  0  0  0  0  0  0  0  0  0
    7.6082   -1.1310    1.2253 H   0  0  0  0  0  0  0  0  0  0  0  0
    7.0278   -1.0236   -0.4770 H   0  0  0  0  0  0  0  0  0  0  0  0
    6.9237   -2.5545    0.4152 H   0  0  0  0  0  0  0  0  0  0  0  0
    3.6342    1.4882    1.4209 H   0  0  0  0  0  0  0  0  0  0  0  0
    3.9523    0.3594    2.7404 H   0  0  0  0  0  0  0  0  0  0  0  0
    3.4199   -0.5315   -0.7858 H   0  0  0  0  0  0  0  0  0  0  0  0
    2.3689    0.8433   -0.3743 H   0  0  0  0  0  0  0  0  0  0  0  0
    1.5160   -2.0871   -0.1390 H   0  0  0  0  0  0  0  0  0  0  0  0
    2.0581   -1.4971   -2.5479 H   0  0  0  0  0  0  0  0  0  0  0  0
    0.3917   -1.9773   -2.2554 H   0  0  0  0  0  0  0  0  0  0  0  0
    1.4159    0.8777   -2.6137 H   0  0  0  0  0  0  0  0  0  0  0  0
    0.4108   -0.0329   -3.7360 H   0  0  0  0  0  0  0  0  0  0  0  0
   -1.4657   -0.0421   -2.1815 H   0  0  0  0  0  0  0  0  0  0  0  0
   -0.8778    1.6137   -2.3577 H   0  0  0  0  0  0  0  0  0  0  0  0
   -1.1501    4.3632    1.7321 H   0  0  0  0  0  0  0  0  0  0  0  0
   -2.6111   -1.4937   -0.9796 H   0  0  0  0  0  0  0  0  0  0  0  0
   -4.5927   -2.9263   -1.0981 H   0  0  0  0  0  0  0  0  0  0  0  0
   -6.8579   -0.0841    1.2256 H   0  0  0  0  0  0  0  0  0  0  0  0
   -5.3022    2.1473    1.9262 H   0  0  0  0  0  0  0  0  0  0  0  0
    0.2657   -0.3461    1.2064 H   0  0  0  0  0  0  0  0  0  0  0  0
   -0.7121   -1.2976    0.0957 H   0  0  0  0  0  0  0  0  0  0  0  0
  1  2  1  0
  2  3  1  0
  3  4  2  0
  3  5  1  0
  5  6  1  0
  6  7  1  0
  7  8  1  0
  8  9  1  0
  9 10  1  0
 10 11  1  0
 11 12  1  0
 12 13  1  0
 13 14  1  0
 14 15  2  0
 15 16  1  0
 16 17  2  0
 17 18  1  0
 18 19  1  0
 19 20  2  0
 20 21  1  0
 21 22  2  0
 22 23  1  0
 22 24  1  0
 24 25  2  0
 25 26  1  0
 12 27  1  0
 27  8  1  0
 18 13  2  0
 25 19  1  0
 26 17  1  0
  1 28  1  0
  1 29  1  0
  1 30  1  0
  5 31  1  0
  5 32  1  0
  7 33  1  0
  7 34  1  0
  8 35  1  0
  9 36  1  0
  9 37  1  0
 10 38  1  0
 10 39  1  0
 11 40  1  0
 11 41  1  0
 15 42  1  0
 20 43  1  0
 21 44  1  0
 24 45  1  0
 26 46  1  0
 27 47  1  0
 27 48  1  0
M  END
$$$$
OCNT-2308600
     RDKit          3D

 47 49  0  0  0  0  0  0  0  0999 V2000
    5.4632    1.6820   -1.7944 C   0  0  0  0  0  0  0  0  0  0  0  0
    4.2901    1.3533   -1.0604 O   0  0  0  0  0  0  0  0  0  0  0  0
    3.9870    0.0238   -0.9350 C   0  0  0  0  0  0  0  0  0  0  0  0
    4.7137   -1.0349   -1.4806 C   0  0  0  0  0  0  0  0  0  0  0  0
    4.3185   -2.3650   -1.2829 C   0  0  0  0  0  0  0  0  0  0  0  0
    3.1643   -2.5866   -0.5269 C   0  0  0  0  0  0  0  0  0  0  0  0
    2.5383   -3.7398   -0.1461 N   0  0  0  0  0  0  0  0  0  0  0  0
    1.4325   -3.5531    0.5858 N   0  0  0  0  0  0  0  0  0  0  0  0
    1.3255   -2.2147    0.6996 C   0  0  0  0  0  0  0  0  0  0  0  0
    0.2083   -1.6031    1.4419 C   0  0  0  0  0  0  0  0  0  0  0  0
   -0.3126   -2.1244    2.4250 O   0  0  0  0  0  0  0  0  0  0  0  0
   -0.2401   -0.4066    0.9169 N   0  0  0  0  0  0  0  0  0  0  0  0
   -1.4060    0.2769    1.4538 C   0  0  0  0  0  0  0  0  0  0  0  0
   -1.0619    1.0171    2.7540 C   0  0  0  0  0  0  0  0  0  0  0  0
   -1.9896    1.1979    0.3919 C   0  0  0  0  0  0  0  0  0  0  0  0
   -1.2755    2.3750    0.0594 C   0  0  0  0  0  0  0  0  0  0  0  0
   -1.7460    3.2750   -0.8956 C   0  0  0  0  0  0  0  0  0  0  0  0
   -2.9398    3.0172   -1.5491 C   0  0  0  0  0  0  0  0  0  0  0  0
   -3.6476    1.8541   -1.2517 C   0  0  0  0  0  0  0  0  0  0  0  0
   -3.1917    0.9220   -0.2969 C   0  0  0  0  0  0  0  0  0  0  0  0
   -4.0002   -0.2098   -0.1318 N   0  0  0  0  0  0  0  0  0  0  0  0
   -4.8687   -0.1688    1.0409 C   0  0  0  0  0  0  0  0  0  0  0  0
   -3.4000   -1.4995   -0.4586 C   0  0  0  0  0  0  0  0  0  0  0  0
    2.4040   -1.5601    0.0202 C   0  0  0  0  0  0  0  0  0  0  0  0
    2.8332   -0.2319   -0.1790 C   0  0  0  0  0  0  0  0  0  0  0  0
    6.3562    1.2620   -1.3202 H   0  0  0  0  0  0  0  0  0  0  0  0
    5.5656    2.7715   -1.7902 H   0  0  0  0  0  0  0  0  0  0  0  0
    5.3790    1.3595   -2.8375 H   0  0  0  0  0  0  0  0  0  0  0  0
    5.6101   -0.8624   -2.0685 H   0  0  0  0  0  0  0  0  0  0  0  0
    4.8944   -3.1848   -1.7006 H   0  0  0  0  0  0  0  0  0  0  0  0
    2.8184   -4.6916   -0.3526 H   0  0  0  0  0  0  0  0  0  0  0  0
    0.0597   -0.1559   -0.0156 H   0  0  0  0  0  0  0  0  0  0  0  0
   -2.1315   -0.4853    1.7396 H   0  0  0  0  0  0  0  0  0  0  0  0
   -0.2224    1.7091    2.6285 H   0  0  0  0  0  0  0  0  0  0  0  0
   -1.9231    1.5866    3.1206 H   0  0  0  0  0  0  0  0  0  0  0  0
   -0.7709    0.3097    3.5384 H   0  0  0  0  0  0  0  0  0  0  0  0
   -0.3314    2.6017    0.5506 H   0  0  0  0  0  0  0  0  0  0  0  0
   -1.1801    4.1738   -1.1248 H   0  0  0  0  0  0  0  0  0  0  0  0
   -3.3208    3.7092   -2.2943 H   0  0  0  0  0  0  0  0  0  0  0  0
   -4.5771    1.6524   -1.7811 H   0  0  0  0  0  0  0  0  0  0  0  0
   -5.4325    0.7707    1.0807 H   0  0  0  0  0  0  0  0  0  0  0  0
   -5.6008   -0.9820    0.9904 H   0  0  0  0  0  0  0  0  0  0  0  0
   -4.3096   -0.2777    1.9753 H   0  0  0  0  0  0  0  0  0  0  0  0
   -4.1909   -2.2018   -0.7450 H   0  0  0  0  0  0  0  0  0  0  0  0
   -2.7159   -1.4207   -1.3115 H   0  0  0  0  0  0  0  0  0  0  0  0
   -2.8647   -1.9417    0.3858 H   0  0  0  0  0  0  0  0  0  0  0  0
    2.2895    0.6017    0.2570 H   0  0  0  0  0  0  0  0  0  0  0  0
  1  2  1  0
  2  3  1  0
  3  4  2  0
  4  5  1  0
  5  6  2  0
  6  7  1  0
  7  8  1  0
  8  9  2  0
  9 10  1  0
 10 11  2  0
 10 12  1  0
 12 13  1  0
 13 14  1  0
 13 15  1  0
 15 16  2  0
 16 17  1  0
 17 18  2  0
 18 19  1  0
 19 20  2  0
 20 21  1  0
 21 22  1  0
 21 23  1  0
  9 24  1  0
 24 25  2  0
 25  3  1  0
 24  6  1  0
 20 15  1  0
  1 26  1  0
  1 27  1  0
  1 28  1  0
  4 29  1  0
  5 30  1  0
  7 31  1  0
 12 32  1  0
 13 33  1  0
 14 34  1  0
 14 35  1  0
 14 36  1  0
 16 37  1  0
 17 38  1  0
 18 39  1  0
 19 40  1  0
 22 41  1  0
 22 42  1  0
 22 43  1  0
 23 44  1  0
 23 45  1  0
 23 46  1  0
 25 47  1  0
M  END
$$$$
OCNT-2308605
     RDKit          3D

 39 41  0  0  0  0  0  0  0  0999 V2000
   -2.3958    0.3052    3.1504 C   0  0  0  0  0  0  0  0  0  0  0  0
   -2.7739   -0.3169    1.8569 C   0  0  0  0  0  0  0  0  0  0  0  0
   -4.0586   -0.5705    1.5900 N   0  0  0  0  0  0  0  0  0  0  0  0
   -4.0459   -1.0920    0.3407 N   0  0  0  0  0  0  0  0  0  0  0  0
   -5.3023   -1.4639   -0.3063 C   0  0  0  0  0  0  0  0  0  0  0  0
   -5.3379   -2.7975   -0.5854 F   0  0  0  0  0  0  0  0  0  0  0  0
   -5.4648   -0.8181   -1.4941 F   0  0  0  0  0  0  0  0  0  0  0  0
   -2.7749   -1.2277   -0.1699 C   0  0  0  0  0  0  0  0  0  0  0  0
   -2.5135   -1.7964   -1.5174 C   0  0  0  0  0  0  0  0  0  0  0  0
   -1.9182   -0.7275    0.7983 C   0  0  0  0  0  0  0  0  0  0  0  0
   -0.4248   -0.6454    0.7619 C   0  0  0  0  0  0  0  0  0  0  0  0
    0.1045    0.6514    0.1561 C   0  0  0  0  0  0  0  0  0  0  0  0
   -0.6338    1.5992   -0.1191 O   0  0  0  0  0  0  0  0  0  0  0  0
    1.4813    0.7162   -0.0839 N   0  0  0  0  0  0  0  0  0  0  0  0
    2.4698   -0.1659    0.5861 C   0  0  0  0  0  0  0  0  0  0  0  0
    3.6881   -0.5096   -0.3020 C   0  0  0  0  0  0  0  0  0  0  0  0
    4.1210    0.7230   -0.9914 C   0  0  0  0  0  0  0  0  0  0  0  0
    3.3502    1.8514   -1.1489 C   0  0  0  0  0  0  0  0  0  0  0  0
    4.1757    2.7304   -1.8730 C   0  0  0  0  0  0  0  0  0  0  0  0
    5.3736    2.1961   -2.1417 N   0  0  0  0  0  0  0  0  0  0  0  0
    5.3112    0.9639   -1.6020 N   0  0  0  0  0  0  0  0  0  0  0  0
    1.9710    2.0046   -0.6215 C   0  0  0  0  0  0  0  0  0  0  0  0
   -3.2639    0.7422    3.6547 H   0  0  0  0  0  0  0  0  0  0  0  0
   -1.9573   -0.4449    3.8152 H   0  0  0  0  0  0  0  0  0  0  0  0
   -1.6623    1.1026    2.9964 H   0  0  0  0  0  0  0  0  0  0  0  0
   -6.1384   -1.2143    0.3538 H   0  0  0  0  0  0  0  0  0  0  0  0
   -3.0282   -1.2169   -2.2894 H   0  0  0  0  0  0  0  0  0  0  0  0
   -1.4457   -1.7863   -1.7548 H   0  0  0  0  0  0  0  0  0  0  0  0
   -2.8578   -2.8338   -1.5706 H   0  0  0  0  0  0  0  0  0  0  0  0
   -0.0380   -1.4896    0.1809 H   0  0  0  0  0  0  0  0  0  0  0  0
   -0.0376   -0.7294    1.7835 H   0  0  0  0  0  0  0  0  0  0  0  0
    2.0124   -1.0974    0.9253 H   0  0  0  0  0  0  0  0  0  0  0  0
    2.7973    0.3709    1.4859 H   0  0  0  0  0  0  0  0  0  0  0  0
    4.4898   -0.9366    0.3094 H   0  0  0  0  0  0  0  0  0  0  0  0
    3.3955   -1.2549   -1.0511 H   0  0  0  0  0  0  0  0  0  0  0  0
    3.9624    3.7365   -2.2135 H   0  0  0  0  0  0  0  0  0  0  0  0
    6.1197    0.3563   -1.6921 H   0  0  0  0  0  0  0  0  0  0  0  0
    1.2970    2.3506   -1.4132 H   0  0  0  0  0  0  0  0  0  0  0  0
    1.9534    2.7351    0.1956 H   0  0  0  0  0  0  0  0  0  0  0  0
  1  2  1  0
  2  3  2  0
  3  4  1  0
  4  5  1  0
  5  6  1  0
  5  7  1  0
  4  8  1  0
  8  9  1  0
  8 10  2  0
 10 11  1  0
 11 12  1  0
 12 13  2  0
 12 14  1  0
 14 15  1  0
 15 16  1  0
 16 17  1  0
 17 18  2  0
 18 19  1  0
 19 20  2  0
 20 21  1  0
 18 22  1  0
 10  2  1  0
 22 14  1  0
 21 17  1  0
  1 23  1  0
  1 24  1  0
  1 25  1  0
  5 26  1  0
  9 27  1  0
  9 28  1  0
  9 29  1  0
 11 30  1  0
 11 31  1  0
 15 32  1  0
 15 33  1  0
 16 34  1  0
 16 35  1  0
 19 36  1  0
 21 37  1  0
 22 38  1  0
 22 39  1  0
M  END
$$$$
OCNT-2308619
     RDKit          3D

 43 46  0  0  0  0  0  0  0  0999 V2000
   -1.4809   -0.1870    0.9958 O   0  0  0  0  0  0  0  0  0  0  0  0
   -1.6352    1.0274    0.9055 C   0  0  0  0  0  0  0  0  0  0  0  0
   -0.6087    1.9233    1.1271 N   0  0  0  0  0  0  0  0  0  0  0  0
    0.7627    1.4665    1.2088 C   0  0  0  0  0  0  0  0  0  0  0  0
    1.4127    1.4574   -0.1816 C   0  0  0  0  0  0  0  0  0  0  0  0
    0.9207    2.0753   -1.1289 O   0  0  0  0  0  0  0  0  0  0  0  0
    2.6016    0.7779   -0.3020 N   0  0  0  0  0  0  0  0  0  0  0  0
    3.2718   -0.0006    0.7396 C   0  0  0  0  0  0  0  0  0  0  0  0
    4.5136   -0.4870    0.0666 C   0  0  0  0  0  0  0  0  0  0  0  0
    5.5411   -1.2518    0.5918 C   0  0  0  0  0  0  0  0  0  0  0  0
    6.6064   -1.5897   -0.2461 C   0  0  0  0  0  0  0  0  0  0  0  0
    6.6293   -1.1642   -1.5845 C   0  0  0  0  0  0  0  0  0  0  0  0
    5.5872   -0.3943   -2.1060 C   0  0  0  0  0  0  0  0  0  0  0  0
    4.5361   -0.0632   -1.2682 C   0  0  0  0  0  0  0  0  0  0  0  0
    3.3126    0.7385   -1.5769 C   0  0  0  0  0  0  0  0  0  0  0  0
   -2.8970    1.6670    0.5489 C   0  0  0  0  0  0  0  0  0  0  0  0
   -4.1158    1.0902    0.2180 C   0  0  0  0  0  0  0  0  0  0  0  0
   -4.5893   -0.2778    0.0623 C   0  0  0  0  0  0  0  0  0  0  0  0
   -5.7823   -0.6903    0.6732 C   0  0  0  0  0  0  0  0  0  0  0  0
   -6.2543   -1.9944    0.5026 C   0  0  0  0  0  0  0  0  0  0  0  0
   -5.5397   -2.8978   -0.2808 C   0  0  0  0  0  0  0  0  0  0  0  0
   -4.3523   -2.4997   -0.8907 C   0  0  0  0  0  0  0  0  0  0  0  0
   -3.8800   -1.1958   -0.7207 C   0  0  0  0  0  0  0  0  0  0  0  0
   -4.9185    2.1790   -0.0081 N   0  0  0  0  0  0  0  0  0  0  0  0
   -4.2732    3.3373    0.1775 N   0  0  0  0  0  0  0  0  0  0  0  0
   -3.0286    3.0423    0.5151 N   0  0  0  0  0  0  0  0  0  0  0  0
   -0.7737    2.8662    0.7860 H   0  0  0  0  0  0  0  0  0  0  0  0
    0.7922    0.4700    1.6563 H   0  0  0  0  0  0  0  0  0  0  0  0
    1.3083    2.1731    1.8411 H   0  0  0  0  0  0  0  0  0  0  0  0
    3.4912    0.6496    1.5913 H   0  0  0  0  0  0  0  0  0  0  0  0
    2.6261   -0.8315    1.0383 H   0  0  0  0  0  0  0  0  0  0  0  0
    5.5258   -1.5848    1.6246 H   0  0  0  0  0  0  0  0  0  0  0  0
    7.4275   -2.1898    0.1394 H   0  0  0  0  0  0  0  0  0  0  0  0
    7.4677   -1.4389   -2.2206 H   0  0  0  0  0  0  0  0  0  0  0  0
    5.6059   -0.0676   -3.1409 H   0  0  0  0  0  0  0  0  0  0  0  0
    3.5566    1.7594   -1.8860 H   0  0  0  0  0  0  0  0  0  0  0  0
    2.6816    0.2487   -2.3249 H   0  0  0  0  0  0  0  0  0  0  0  0
   -6.3478   -0.0104    1.3059 H   0  0  0  0  0  0  0  0  0  0  0  0
   -7.1749   -2.3076    0.9882 H   0  0  0  0  0  0  0  0  0  0  0  0
   -5.9025   -3.9143   -0.4097 H   0  0  0  0  0  0  0  0  0  0  0  0
   -3.7868   -3.2039   -1.4956 H   0  0  0  0  0  0  0  0  0  0  0  0
   -2.9487   -0.9082   -1.2046 H   0  0  0  0  0  0  0  0  0  0  0  0
   -5.8884    2.2014   -0.2994 H   0  0  0  0  0  0  0  0  0  0  0  0
  1  2  2  0
  2  3  1  0
  3  4  1  0
  4  5  1  0
  5  6  2  0
  5  7  1  0
  7  8  1  0
  8  9  1  0
  9 10  2  0
 10 11  1  0
 11 12  2  0
 12 13  1  0
 13 14  2  0
 14 15  1  0
  2 16  1  0
 16 17  2  0
 17 18  1  0
 18 19  2  0
 19 20  1  0
 20 21  2  0
 21 22  1  0
 22 23  2  0
 17 24  1  0
 24 25  1  0
 25 26  2  0
 15  7  1  0
 26 16  1  0
 14  9  1  0
 23 18  1  0
  3 27  1  0
  4 28  1  0
  4 29  1  0
  8 30  1  0
  8 31  1  0
 10 32  1  0
 11 33  1  0
 12 34  1  0
 13 35  1  0
 15 36  1  0
 15 37  1  0
 19 38  1  0
 20 39  1  0
 21 40  1  0
 22 41  1  0
 23 42  1  0
 24 43  1  0
M  END
$$$$
OCNT-2308626
     RDKit          3D

 46 48  0  0  0  0  0  0  0  0999 V2000
    2.9054    2.3975    3.9535 C   0  0  0  0  0  0  0  0  0  0  0  0
    2.2656    1.4392    2.9650 C   0  0  0  0  0  0  0  0  0  0  0  0
    3.2895    0.5905    2.4495 O   0  0  0  0  0  0  0  0  0  0  0  0
    2.9145   -0.3565    1.5373 C   0  0  0  0  0  0  0  0  0  0  0  0
    3.9536   -1.1663    1.0772 C   0  0  0  0  0  0  0  0  0  0  0  0
    3.7051   -2.1816    0.1536 C   0  0  0  0  0  0  0  0  0  0  0  0
    2.4117   -2.3942   -0.3186 C   0  0  0  0  0  0  0  0  0  0  0  0
    2.2634   -3.4220   -1.2109 O   0  0  0  0  0  0  0  0  0  0  0  0
    0.9140   -3.8607   -1.3849 C   0  0  0  0  0  0  0  0  0  0  0  0
   -0.0139   -2.6951   -1.6612 C   0  0  0  0  0  0  0  0  0  0  0  0
   -0.0375   -1.7854   -0.4328 C   0  0  0  0  0  0  0  0  0  0  0  0
   -0.6812   -0.5236   -0.7575 N   0  0  0  0  0  0  0  0  0  0  0  0
   -2.0529   -0.4118   -0.8694 C   0  0  0  0  0  0  0  0  0  0  0  0
   -2.8089   -1.3352   -0.5740 O   0  0  0  0  0  0  0  0  0  0  0  0
   -2.5514    0.9833   -1.3482 C   0  0  0  0  0  0  0  0  0  0  0  0
   -1.9107    1.3088   -2.7059 C   0  0  0  0  0  0  0  0  0  0  0  0
   -0.5110    1.5776   -2.5865 O   0  0  0  0  0  0  0  0  0  0  0  0
   -2.2679    2.0417   -0.2832 C   0  0  0  0  0  0  0  0  0  0  0  0
   -3.4679    1.8981    0.6230 C   0  0  0  0  0  0  0  0  0  0  0  0
   -4.5805    1.5839   -0.3545 C   0  0  0  0  0  0  0  0  0  0  0  0
   -3.9824    0.9890   -1.5147 O   0  0  0  0  0  0  0  0  0  0  0  0
    1.3610   -1.5685    0.0974 C   0  0  0  0  0  0  0  0  0  0  0  0
    1.6222   -0.5634    1.0506 C   0  0  0  0  0  0  0  0  0  0  0  0
    3.3891    1.8463    4.7668 H   0  0  0  0  0  0  0  0  0  0  0  0
    3.6838    2.9928    3.4647 H   0  0  0  0  0  0  0  0  0  0  0  0
    2.1591    3.0736    4.3799 H   0  0  0  0  0  0  0  0  0  0  0  0
    1.5045    0.8455    3.4842 H   0  0  0  0  0  0  0  0  0  0  0  0
    1.8058    2.0164    2.1544 H   0  0  0  0  0  0  0  0  0  0  0  0
    4.9639   -1.0107    1.4471 H   0  0  0  0  0  0  0  0  0  0  0  0
    4.5196   -2.8138   -0.1891 H   0  0  0  0  0  0  0  0  0  0  0  0
    0.6011   -4.4350   -0.5039 H   0  0  0  0  0  0  0  0  0  0  0  0
    0.9062   -4.5468   -2.2385 H   0  0  0  0  0  0  0  0  0  0  0  0
   -1.0220   -3.0513   -1.9001 H   0  0  0  0  0  0  0  0  0  0  0  0
    0.3515   -2.1377   -2.5344 H   0  0  0  0  0  0  0  0  0  0  0  0
   -0.6205   -2.2751    0.3587 H   0  0  0  0  0  0  0  0  0  0  0  0
   -0.1254    0.1814   -1.2427 H   0  0  0  0  0  0  0  0  0  0  0  0
   -2.0439    0.4766   -3.4068 H   0  0  0  0  0  0  0  0  0  0  0  0
   -2.3911    2.1880   -3.1509 H   0  0  0  0  0  0  0  0  0  0  0  0
   -0.2082    1.8601   -3.4698 H   0  0  0  0  0  0  0  0  0  0  0  0
   -2.2716    3.0459   -0.7252 H   0  0  0  0  0  0  0  0  0  0  0  0
   -1.3239    1.9098    0.2535 H   0  0  0  0  0  0  0  0  0  0  0  0
   -3.6710    2.7882    1.2246 H   0  0  0  0  0  0  0  0  0  0  0  0
   -3.3230    1.0556    1.3094 H   0  0  0  0  0  0  0  0  0  0  0  0
   -5.3244    0.9013    0.0664 H   0  0  0  0  0  0  0  0  0  0  0  0
   -5.0915    2.4967   -0.6777 H   0  0  0  0  0  0  0  0  0  0  0  0
    0.7924    0.0468    1.3939 H   0  0  0  0  0  0  0  0  0  0  0  0
  1  2  1  0
  2  3  1  0
  3  4  1  0
  4  5  1  0
  5  6  2  0
  6  7  1  0
  7  8  1  0
  8  9  1  0
  9 10  1  0
 10 11  1  0
 11 12  1  0
 12 13  1  0
 13 14  2  0
 13 15  1  0
 15 16  1  0
 16 17  1  0
 15 18  1  0
 18 19  1  0
 19 20  1  0
 20 21  1  0
 11 22  1  0
 22 23  1  0
 23  4  2  0
 22  7  2  0
 21 15  1  0
  1 24  1  0
  1 25  1  0
  1 26  1  0
  2 27  1  0
  2 28  1  0
  5 29  1  0
  6 30  1  0
  9 31  1  0
  9 32  1  0
 10 33  1  0
 10 34  1  0
 11 35  1  0
 12 36  1  0
 16 37  1  0
 16 38  1  0
 17 39  1  0
 18 40  1  0
 18 41  1  0
 19 42  1  0
 19 43  1  0
 20 44  1  0
 20 45  1  0
 23 46  1  0
M  END
$$$$
OCNT-2308632
     RDKit          3D

 38 40  0  0  0  0  0  0  0  0999 V2000
    4.0913    0.2346   -2.4616 C   0  0  0  0  0  0  0  0  0  0  0  0
    4.0507    0.6272   -0.9957 C   0  0  0  0  0  0  0  0  0  0  0  0
    2.6176    0.8656   -0.5297 C   0  0  0  0  0  0  0  0  0  0  0  0
    1.9929    1.7850   -1.0656 O   0  0  0  0  0  0  0  0  0  0  0  0
    2.1286    0.0260    0.4777 N   0  0  0  0  0  0  0  0  0  0  0  0
    1.0023    0.3700    1.2475 C   0  0  0  0  0  0  0  0  0  0  0  0
    0.5146   -0.3786    2.2218 N   0  0  0  0  0  0  0  0  0  0  0  0
   -0.5962    0.1730    2.8265 N   0  0  0  0  0  0  0  0  0  0  0  0
   -0.9148    1.3297    2.2935 C   0  0  0  0  0  0  0  0  0  0  0  0
   -2.2809    2.2478    2.8788 S   0  0  0  0  0  0  0  0  0  0  0  0
   -3.2295    2.5095    1.3532 C   0  0  0  0  0  0  0  0  0  0  0  0
   -3.6796    1.2343    0.6785 C   0  0  0  0  0  0  0  0  0  0  0  0
   -4.6152    0.3859    1.2955 C   0  0  0  0  0  0  0  0  0  0  0  0
   -5.0253   -0.7911    0.6667 C   0  0  0  0  0  0  0  0  0  0  0  0
   -4.5061   -1.1207   -0.5794 C   0  0  0  0  0  0  0  0  0  0  0  0
   -4.9037   -2.2484   -1.1843 F   0  0  0  0  0  0  0  0  0  0  0  0
   -3.5837   -0.2955   -1.2099 C   0  0  0  0  0  0  0  0  0  0  0  0
   -3.1714    0.8818   -0.5839 C   0  0  0  0  0  0  0  0  0  0  0  0
    0.1556    1.8514    1.0706 S   0  0  0  0  0  0  0  0  0  0  0  0
    2.8059   -1.1999    0.8715 C   0  0  0  0  0  0  0  0  0  0  0  0
    3.0808   -2.3223   -0.1073 C   0  0  0  0  0  0  0  0  0  0  0  0
    2.0857   -2.5277    0.9845 C   0  0  0  0  0  0  0  0  0  0  0  0
    3.6517    1.0145   -3.0922 H   0  0  0  0  0  0  0  0  0  0  0  0
    5.1252    0.0803   -2.7858 H   0  0  0  0  0  0  0  0  0  0  0  0
    3.5318   -0.6881   -2.6437 H   0  0  0  0  0  0  0  0  0  0  0  0
    4.5899    1.5727   -0.8563 H   0  0  0  0  0  0  0  0  0  0  0  0
    4.5863   -0.1059   -0.3911 H   0  0  0  0  0  0  0  0  0  0  0  0
   -4.1188    3.0989    1.6057 H   0  0  0  0  0  0  0  0  0  0  0  0
   -2.6455    3.1310    0.6643 H   0  0  0  0  0  0  0  0  0  0  0  0
   -5.0249    0.6340    2.2736 H   0  0  0  0  0  0  0  0  0  0  0  0
   -5.7436   -1.4525    1.1416 H   0  0  0  0  0  0  0  0  0  0  0  0
   -3.1918   -0.5733   -2.1836 H   0  0  0  0  0  0  0  0  0  0  0  0
   -2.4496    1.5202   -1.0907 H   0  0  0  0  0  0  0  0  0  0  0  0
    3.5611   -1.0133    1.6340 H   0  0  0  0  0  0  0  0  0  0  0  0
    2.6877   -2.2614   -1.1150 H   0  0  0  0  0  0  0  0  0  0  0  0
    4.0325   -2.8345   -0.0295 H   0  0  0  0  0  0  0  0  0  0  0  0
    2.3490   -3.1744    1.8135 H   0  0  0  0  0  0  0  0  0  0  0  0
    1.0395   -2.5857    0.7050 H   0  0  0  0  0  0  0  0  0  0  0  0
  1  2  1  0
  2  3  1  0
  3  4  2  0
  3  5  1  0
  5  6  1  0
  6  7  2  0
  7  8  1  0
  8  9  2  0
  9 10  1  0
 10 11  1  0
 11 12  1  0
 12 13  1  0
 13 14  2  0
 14 15  1  0
 15 16  1  0
 15 17  2  0
 17 18  1  0
  9 19  1  0
  5 20  1  0
 20 21  1  0
 21 22  1  0
 19  6  1  0
 22 20  1  0
 18 12  2  0
  1 23  1  0
  1 24  1  0
  1 25  1  0
  2 26  1  0
  2 27  1  0
 11 28  1  0
 11 29  1  0
 13 30  1  0
 14 31  1  0
 17 32  1  0
 18 33  1  0
 20 34  1  0
 21 35  1  0
 21 36  1  0
 22 37  1  0
 22 38  1  0
M  END
$$$$
OCNT-2308635
     RDKit          3D

 47 49  0  0  0  0  0  0  0  0999 V2000
    4.0734    3.5227    0.3995 C   0  0  0  0  0  0  0  0  0  0  0  0
    3.8066    2.0937    0.8457 C   0  0  0  0  0  0  0  0  0  0  0  0
    3.9612    1.2450   -0.2969 O   0  0  0  0  0  0  0  0  0  0  0  0
    3.2218    0.0920   -0.1977 C   0  0  0  0  0  0  0  0  0  0  0  0
    2.3063   -0.1192   -1.2342 C   0  0  0  0  0  0  0  0  0  0  0  0
    1.5026   -1.2645   -1.2520 C   0  0  0  0  0  0  0  0  0  0  0  0
    0.4767   -1.4710   -2.3350 C   0  0  0  0  0  0  0  0  0  0  0  0
   -0.8066   -0.9528   -1.9154 N   0  0  0  0  0  0  0  0  0  0  0  0
   -1.7673   -1.7651   -1.3604 C   0  0  0  0  0  0  0  0  0  0  0  0
   -1.6549   -2.9867   -1.2898 O   0  0  0  0  0  0  0  0  0  0  0  0
   -2.9832   -1.0494   -0.7934 C   0  0  0  0  0  0  0  0  0  0  0  0
   -3.6598   -0.1240   -1.8390 C   0  0  0  0  0  0  0  0  0  0  0  0
   -4.9561    0.5123   -1.2980 C   0  0  0  0  0  0  0  0  0  0  0  0
   -4.7165    0.9916    0.0839 C   0  0  0  0  0  0  0  0  0  0  0  0
   -3.6801    0.6280    0.9138 C   0  0  0  0  0  0  0  0  0  0  0  0
   -3.9210    1.3316    2.1065 C   0  0  0  0  0  0  0  0  0  0  0  0
   -5.0266    2.0814    2.0344 N   0  0  0  0  0  0  0  0  0  0  0  0
   -5.4986    1.8514    0.7939 N   0  0  0  0  0  0  0  0  0  0  0  0
   -2.5967   -0.3022    0.5060 C   0  0  0  0  0  0  0  0  0  0  0  0
    1.6322   -2.1916   -0.2117 C   0  0  0  0  0  0  0  0  0  0  0  0
    2.5735   -2.0001    0.8067 C   0  0  0  0  0  0  0  0  0  0  0  0
    3.3910   -0.8658    0.8150 C   0  0  0  0  0  0  0  0  0  0  0  0
    4.3554   -0.6192    1.7559 O   0  0  0  0  0  0  0  0  0  0  0  0
    4.7572   -1.7128    2.5720 C   0  0  0  0  0  0  0  0  0  0  0  0
    3.9431    4.2211    1.2306 H   0  0  0  0  0  0  0  0  0  0  0  0
    3.3972    3.8064   -0.4156 H   0  0  0  0  0  0  0  0  0  0  0  0
    5.0958    3.6193    0.0138 H   0  0  0  0  0  0  0  0  0  0  0  0
    2.7906    2.0303    1.2605 H   0  0  0  0  0  0  0  0  0  0  0  0
    4.5367    1.8227    1.6172 H   0  0  0  0  0  0  0  0  0  0  0  0
    2.2237    0.6244   -2.0225 H   0  0  0  0  0  0  0  0  0  0  0  0
    0.4031   -2.5328   -2.5972 H   0  0  0  0  0  0  0  0  0  0  0  0
    0.7660   -0.9306   -3.2434 H   0  0  0  0  0  0  0  0  0  0  0  0
   -0.8715    0.0471   -1.7870 H   0  0  0  0  0  0  0  0  0  0  0  0
   -3.7143   -1.8309   -0.5363 H   0  0  0  0  0  0  0  0  0  0  0  0
   -3.8823   -0.6845   -2.7549 H   0  0  0  0  0  0  0  0  0  0  0  0
   -2.9691    0.6792   -2.1276 H   0  0  0  0  0  0  0  0  0  0  0  0
   -5.7568   -0.2366   -1.2886 H   0  0  0  0  0  0  0  0  0  0  0  0
   -5.2709    1.3318   -1.9533 H   0  0  0  0  0  0  0  0  0  0  0  0
   -3.3436    1.3357    3.0226 H   0  0  0  0  0  0  0  0  0  0  0  0
   -6.3566    2.3144    0.5107 H   0  0  0  0  0  0  0  0  0  0  0  0
   -2.3992   -1.0300    1.3026 H   0  0  0  0  0  0  0  0  0  0  0  0
   -1.6736    0.2739    0.3688 H   0  0  0  0  0  0  0  0  0  0  0  0
    0.9990   -3.0784   -0.1906 H   0  0  0  0  0  0  0  0  0  0  0  0
    2.6379   -2.7572    1.5817 H   0  0  0  0  0  0  0  0  0  0  0  0
    5.0540   -2.5769    1.9667 H   0  0  0  0  0  0  0  0  0  0  0  0
    5.6315   -1.3951    3.1481 H   0  0  0  0  0  0  0  0  0  0  0  0
    3.9687   -1.9785    3.2839 H   0  0  0  0  0  0  0  0  0  0  0  0
  1  2  1  0
  2  3  1  0
  3  4  1  0
  4  5  1  0
  5  6  2  0
  6  7  1  0
  7  8  1  0
  8  9  1  0
  9 10  2  0
  9 11  1  0
 11 12  1  0
 12 13  1  0
 13 14  1  0
 14 15  2  0
 15 16  1  0
 16 17  2  0
 17 18  1  0
 15 19  1  0
  6 20  1  0
 20 21  2  0
 21 22  1  0
 22 23  1  0
 23 24  1  0
 22  4  2  0
 19 11  1  0
 18 14  1  0
  1 25  1  0
  1 26  1  0
  1 27  1  0
  2 28  1  0
  2 29  1  0
  5 30  1  0
  7 31  1  0
  7 32  1  0
  8 33  1  0
 11 34  1  0
 12 35  1  0
 12 36  1  0
 13 37  1  0
 13 38  1  0
 16 39  1  0
 18 40  1  0
 19 41  1  0
 19 42  1  0
 20 43  1  0
 21 44  1  0
 24 45  1  0
 24 46  1  0
 24 47  1  0
M  END
$$$$
OCNT-2308638
     RDKit          3D

 38 41  0  0  0  0  0  0  0  0999 V2000
   -1.6491   -2.2718    0.6711 O   0  0  0  0  0  0  0  0  0  0  0  0
   -1.9156   -1.1149    0.3587 C   0  0  0  0  0  0  0  0  0  0  0  0
   -0.9998   -0.1016    0.1362 N   0  0  0  0  0  0  0  0  0  0  0  0
    0.4062   -0.1792    0.2205 C   0  0  0  0  0  0  0  0  0  0  0  0
    1.1282    0.9863   -0.0558 C   0  0  0  0  0  0  0  0  0  0  0  0
    2.5277    0.9952    0.0049 C   0  0  0  0  0  0  0  0  0  0  0  0
    3.2464   -0.1614    0.3426 C   0  0  0  0  0  0  0  0  0  0  0  0
    4.7117   -0.1563    0.4042 C   0  0  0  0  0  0  0  0  0  0  0  0
    5.5012   -1.1211   -0.2012 C   0  0  0  0  0  0  0  0  0  0  0  0
    6.8522   -1.1437   -0.1649 N   0  0  0  0  0  0  0  0  0  0  0  0
    7.4304   -0.1431    0.5137 C   0  0  0  0  0  0  0  0  0  0  0  0
    6.7901    0.8523    1.1429 N   0  0  0  0  0  0  0  0  0  0  0  0
    5.4410    0.8147    1.0721 C   0  0  0  0  0  0  0  0  0  0  0  0
    2.5104   -1.3238    0.6178 C   0  0  0  0  0  0  0  0  0  0  0  0
    1.1095   -1.3333    0.5585 C   0  0  0  0  0  0  0  0  0  0  0  0
   -3.3707   -0.6956    0.1841 C   0  0  2  0  0  0  0  0  0  0  0  0
   -3.6955   -0.1943   -1.2387 C   0  0  0  0  0  0  0  0  0  0  0  0
   -4.7248    0.8811   -1.0630 C   0  0  2  0  0  0  0  0  0  0  0  0
   -4.7896    1.2593    0.3839 C   0  0  2  0  0  0  0  0  0  0  0  0
   -3.8024    0.4294    1.1479 C   0  0  0  0  0  0  0  0  0  0  0  0
   -5.9692    0.6479   -0.2835 C   0  0  0  0  0  0  0  0  0  0  0  0
   -6.3832   -0.6238    0.0304 F   0  0  0  0  0  0  0  0  0  0  0  0
   -7.0904    1.4032   -0.5311 F   0  0  0  0  0  0  0  0  0  0  0  0
   -1.3698    0.8047   -0.1193 H   0  0  0  0  0  0  0  0  0  0  0  0
    0.6187    1.9075   -0.3271 H   0  0  0  0  0  0  0  0  0  0  0  0
    3.0514    1.9199   -0.2322 H   0  0  0  0  0  0  0  0  0  0  0  0
    5.0574   -1.9361   -0.7683 H   0  0  0  0  0  0  0  0  0  0  0  0
    8.5139   -0.1383    0.5575 H   0  0  0  0  0  0  0  0  0  0  0  0
    4.9454    1.6233    1.6038 H   0  0  0  0  0  0  0  0  0  0  0  0
    3.0170   -2.2460    0.8997 H   0  0  0  0  0  0  0  0  0  0  0  0
    0.6034   -2.2662    0.7876 H   0  0  0  0  0  0  0  0  0  0  0  0
   -3.9931   -1.5782    0.3870 H   0  0  0  0  0  0  0  0  0  0  0  0
   -4.0846   -1.0100   -1.8578 H   0  0  0  0  0  0  0  0  0  0  0  0
   -2.8187    0.2138   -1.7516 H   0  0  0  0  0  0  0  0  0  0  0  0
   -4.7354    1.6380   -1.8317 H   0  0  0  0  0  0  0  0  0  0  0  0
   -4.8480    2.2947    0.6811 H   0  0  0  0  0  0  0  0  0  0  0  0
   -4.2597    0.0118    2.0515 H   0  0  0  0  0  0  0  0  0  0  0  0
   -2.9630    1.0553    1.4675 H   0  0  0  0  0  0  0  0  0  0  0  0
  1  2  2  0
  2  3  1  0
  3  4  1  0
  4  5  1  0
  5  6  2  0
  6  7  1  0
  7  8  1  0
  8  9  2  0
  9 10  1  0
 10 11  2  0
 11 12  1  0
 12 13  2  0
  7 14  2  0
 14 15  1  0
  2 16  1  0
 16 17  1  0
 17 18  1  0
 18 19  1  0
 19 20  1  0
 19 21  1  0
 21 22  1  0
 21 23  1  0
 15  4  2  0
 20 16  1  0
 13  8  1  0
 21 18  1  0
  3 24  1  0
  5 25  1  0
  6 26  1  0
  9 27  1  0
 11 28  1  0
 13 29  1  0
 14 30  1  0
 15 31  1  0
 16 32  1  1
 17 33  1  0
 17 34  1  0
 18 35  1  6
 19 36  1  6
 20 37  1  0
 20 38  1  0
M  END
$$$$
OCNT-2308646
     RDKit          3D

 37 39  0  0  0  0  0  0  0  0999 V2000
    1.4834   -0.8559   -1.8794 C   0  0  0  0  0  0  0  0  0  0  0  0
    1.4951   -0.0403   -0.5828 C   0  0  0  0  0  0  0  0  0  0  0  0
    0.6797   -0.7141    0.5395 C   0  0  0  0  0  0  0  0  0  0  0  0
   -0.7965   -0.7247    0.2843 C   0  0  0  0  0  0  0  0  0  0  0  0
   -1.5526   -1.8157   -0.0967 C   0  0  0  0  0  0  0  0  0  0  0  0
   -2.8552   -1.4163   -0.2235 N   0  0  0  0  0  0  0  0  0  0  0  0
   -3.9471   -2.2824   -0.6094 C   0  0  0  0  0  0  0  0  0  0  0  0
   -2.9761   -0.0752    0.0722 C   0  0  0  0  0  0  0  0  0  0  0  0
   -4.1008    0.7677    0.0821 C   0  0  0  0  0  0  0  0  0  0  0  0
   -3.9106    2.1063    0.4326 C   0  0  0  0  0  0  0  0  0  0  0  0
   -2.6460    2.5754    0.7581 C   0  0  0  0  0  0  0  0  0  0  0  0
   -2.4942    3.8648    1.0910 F   0  0  0  0  0  0  0  0  0  0  0  0
   -1.5300    1.7404    0.7478 C   0  0  0  0  0  0  0  0  0  0  0  0
   -1.6951    0.3844    0.3979 C   0  0  0  0  0  0  0  0  0  0  0  0
    2.8614    0.2341   -0.1318 N   0  0  0  0  0  0  0  0  0  0  0  0
    3.2684    1.4512    0.3480 C   0  0  0  0  0  0  0  0  0  0  0  0
    2.6056    2.4784    0.3964 O   0  0  0  0  0  0  0  0  0  0  0  0
    4.6961    1.3252    0.8503 C   0  0  0  0  0  0  0  0  0  0  0  0
    4.9295   -0.0715    0.6311 N   0  0  0  0  0  0  0  0  0  0  0  0
    3.8138   -0.7053    0.1332 C   0  0  0  0  0  0  0  0  0  0  0  0
    3.7310   -1.9153    0.0094 O   0  0  0  0  0  0  0  0  0  0  0  0
    2.1386   -0.3983   -2.6288 H   0  0  0  0  0  0  0  0  0  0  0  0
    0.4760   -0.9030   -2.3051 H   0  0  0  0  0  0  0  0  0  0  0  0
    1.8255   -1.8833   -1.7208 H   0  0  0  0  0  0  0  0  0  0  0  0
    1.0397    0.9313   -0.8127 H   0  0  0  0  0  0  0  0  0  0  0  0
    1.0341   -1.7406    0.6995 H   0  0  0  0  0  0  0  0  0  0  0  0
    0.8571   -0.1882    1.4875 H   0  0  0  0  0  0  0  0  0  0  0  0
   -1.2599   -2.8411   -0.2854 H   0  0  0  0  0  0  0  0  0  0  0  0
   -3.5696   -3.2931   -0.7847 H   0  0  0  0  0  0  0  0  0  0  0  0
   -4.6799   -2.2970    0.2013 H   0  0  0  0  0  0  0  0  0  0  0  0
   -4.3916   -1.8898   -1.5275 H   0  0  0  0  0  0  0  0  0  0  0  0
   -5.0894    0.3995   -0.1719 H   0  0  0  0  0  0  0  0  0  0  0  0
   -4.7524    2.7918    0.4536 H   0  0  0  0  0  0  0  0  0  0  0  0
   -0.5561    2.1445    1.0056 H   0  0  0  0  0  0  0  0  0  0  0  0
    5.3893    1.9169    0.2510 H   0  0  0  0  0  0  0  0  0  0  0  0
    4.7608    1.5453    1.9172 H   0  0  0  0  0  0  0  0  0  0  0  0
    5.7182   -0.6063    0.9708 H   0  0  0  0  0  0  0  0  0  0  0  0
  1  2  1  0
  2  3  1  0
  3  4  1  0
  4  5  2  0
  5  6  1  0
  6  7  1  0
  6  8  1  0
  8  9  2  0
  9 10  1  0
 10 11  2  0
 11 12  1  0
 11 13  1  0
 13 14  2  0
  2 15  1  0
 15 16  1  0
 16 17  2  0
 16 18  1  0
 18 19  1  0
 19 20  1  0
 20 21  2  0
 14  4  1  0
 20 15  1  0
 14  8  1  0
  1 22  1  0
  1 23  1  0
  1 24  1  0
  2 25  1  0
  3 26  1  0
  3 27  1  0
  5 28  1  0
  7 29  1  0
  7 30  1  0
  7 31  1  0
  9 32  1  0
 10 33  1  0
 13 34  1  0
 18 35  1  0
 18 36  1  0
 19 37  1  0
M  END
$$$$
OCNT-2308649
     RDKit          3D

 50 52  0  0  0  0  0  0  0  0999 V2000
    8.9482   -0.2733   -0.3708 C   0  0  0  0  0  0  0  0  0  0  0  0
    7.7361    0.5085   -0.3054 N   0  0  0  0  0  0  0  0  0  0  0  0
    6.6456    0.0429    0.4121 C   0  0  0  0  0  0  0  0  0  0  0  0
    6.6878   -0.9827    1.0868 O   0  0  0  0  0  0  0  0  0  0  0  0
    5.4087    0.9416    0.2926 C   0  0  0  0  0  0  0  0  0  0  0  0
    4.2626    0.2920    0.8231 O   0  0  0  0  0  0  0  0  0  0  0  0
    3.0750    0.9627    0.7644 C   0  0  0  0  0  0  0  0  0  0  0  0
    2.8923    2.2812    0.3499 C   0  0  0  0  0  0  0  0  0  0  0  0
    1.6123    2.8433    0.3495 C   0  0  0  0  0  0  0  0  0  0  0  0
    0.5106    2.0935    0.7643 C   0  0  0  0  0  0  0  0  0  0  0  0
    0.6795    0.7689    1.1847 C   0  0  0  0  0  0  0  0  0  0  0  0
   -0.4987   -0.0720    1.6088 C   0  0  0  0  0  0  0  0  0  0  0  0
   -0.9671   -1.0103    0.5106 C   0  0  0  0  0  0  0  0  0  0  0  0
   -0.6770   -2.2031    0.4896 O   0  0  0  0  0  0  0  0  0  0  0  0
   -1.7435   -0.3997   -0.4507 N   0  0  0  0  0  0  0  0  0  0  0  0
   -2.3047   -1.1332   -1.5613 C   0  0  0  0  0  0  0  0  0  0  0  0
   -3.6684   -1.7089   -1.2403 C   0  0  0  0  0  0  0  0  0  0  0  0
   -3.7936   -3.1125   -1.3396 C   0  0  0  0  0  0  0  0  0  0  0  0
   -4.9629   -3.7749   -0.9629 C   0  0  0  0  0  0  0  0  0  0  0  0
   -6.0377   -3.0505   -0.4658 C   0  0  0  0  0  0  0  0  0  0  0  0
   -5.9476   -1.6632   -0.3566 C   0  0  0  0  0  0  0  0  0  0  0  0
   -4.7820   -0.9794   -0.7605 C   0  0  0  0  0  0  0  0  0  0  0  0
   -4.7852    0.4363   -0.6355 N   0  0  0  0  0  0  0  0  0  0  0  0
   -5.4277    1.1723    0.3407 C   0  0  0  0  0  0  0  0  0  0  0  0
   -5.0931    2.4855    0.1083 C   0  0  0  0  0  0  0  0  0  0  0  0
   -4.3047    2.5944   -1.0032 N   0  0  0  0  0  0  0  0  0  0  0  0
   -4.1985    1.3664   -1.4632 C   0  0  0  0  0  0  0  0  0  0  0  0
    1.9681    0.2153    1.1779 C   0  0  0  0  0  0  0  0  0  0  0  0
    9.2372   -0.6035    0.6316 H   0  0  0  0  0  0  0  0  0  0  0  0
    8.7718   -1.1468   -1.0079 H   0  0  0  0  0  0  0  0  0  0  0  0
    9.7379    0.3448   -0.8014 H   0  0  0  0  0  0  0  0  0  0  0  0
    7.5967    1.2338   -1.0004 H   0  0  0  0  0  0  0  0  0  0  0  0
    5.6238    1.8601    0.8550 H   0  0  0  0  0  0  0  0  0  0  0  0
    5.2537    1.1648   -0.7717 H   0  0  0  0  0  0  0  0  0  0  0  0
    3.7213    2.9013    0.0275 H   0  0  0  0  0  0  0  0  0  0  0  0
    1.4741    3.8723    0.0258 H   0  0  0  0  0  0  0  0  0  0  0  0
   -0.4754    2.5537    0.7575 H   0  0  0  0  0  0  0  0  0  0  0  0
   -0.2350   -0.6699    2.4901 H   0  0  0  0  0  0  0  0  0  0  0  0
   -1.3372    0.5642    1.9211 H   0  0  0  0  0  0  0  0  0  0  0  0
   -1.9102    0.5954   -0.3796 H   0  0  0  0  0  0  0  0  0  0  0  0
   -1.6015   -1.9304   -1.8341 H   0  0  0  0  0  0  0  0  0  0  0  0
   -2.3549   -0.4747   -2.4327 H   0  0  0  0  0  0  0  0  0  0  0  0
   -2.9507   -3.7143   -1.6822 H   0  0  0  0  0  0  0  0  0  0  0  0
   -5.0203   -4.8584   -1.0406 H   0  0  0  0  0  0  0  0  0  0  0  0
   -6.9462   -3.5643   -0.1636 H   0  0  0  0  0  0  0  0  0  0  0  0
   -6.8217   -1.1289    0.0122 H   0  0  0  0  0  0  0  0  0  0  0  0
   -6.0057    0.7151    1.1306 H   0  0  0  0  0  0  0  0  0  0  0  0
   -5.3783    3.3554    0.6879 H   0  0  0  0  0  0  0  0  0  0  0  0
   -3.7323    1.1068   -2.4028 H   0  0  0  0  0  0  0  0  0  0  0  0
    2.1187   -0.8174    1.4941 H   0  0  0  0  0  0  0  0  0  0  0  0
  1  2  1  0
  2  3  1  0
  3  4  2  0
  3  5  1  0
  5  6  1  0
  6  7  1  0
  7  8  1  0
  8  9  2  0
  9 10  1  0
 10 11  2  0
 11 12  1  0
 12 13  1  0
 13 14  2  0
 13 15  1  0
 15 16  1  0
 16 17  1  0
 17 18  2  0
 18 19  1  0
 19 20  2  0
 20 21  1  0
 21 22  2  0
 22 23  1  0
 23 24  1  0
 24 25  2  0
 25 26  1  0
 26 27  2  0
 11 28  1  0
 28  7  2  0
 22 17  1  0
 27 23  1  0
  1 29  1  0
  1 30  1  0
  1 31  1  0
  2 32  1  0
  5 33  1  0
  5 34  1  0
  8 35  1  0
  9 36  1  0
 10 37  1  0
 12 38  1  0
 12 39  1  0
 15 40  1  0
 16 41  1  0
 16 42  1  0
 18 43  1  0
 19 44  1  0
 20 45  1  0
 21 46  1  0
 24 47  1  0
 25 48  1  0
 27 49  1  0
 28 50  1  0
M  END
$$$$
OCNT-2308682
     RDKit          3D

 44 48  0  0  0  0  0  0  0  0999 V2000
    3.4073   -1.1938   -2.0354 O   0  0  0  0  0  0  0  0  0  0  0  0
    2.3399   -0.8063   -1.5664 C   0  0  0  0  0  0  0  0  0  0  0  0
    1.1415   -1.6553   -1.6922 C   0  0  0  0  0  0  0  0  0  0  0  0
    1.2404   -2.8771   -2.3778 C   0  0  0  0  0  0  0  0  0  0  0  0
    0.1168   -3.6831   -2.5371 C   0  0  0  0  0  0  0  0  0  0  0  0
   -1.1047   -3.2669   -2.0191 C   0  0  0  0  0  0  0  0  0  0  0  0
   -1.2031   -2.0504   -1.3340 C   0  0  0  0  0  0  0  0  0  0  0  0
   -0.0744   -1.2364   -1.1519 C   0  0  0  0  0  0  0  0  0  0  0  0
   -0.0813    0.0686   -0.4374 C   0  0  0  0  0  0  0  0  0  0  0  0
   -1.2670    0.5733    0.2286 C   0  0  0  0  0  0  0  0  0  0  0  0
   -2.3906   -0.0554    0.5067 N   0  0  0  0  0  0  0  0  0  0  0  0
   -3.1328    0.9119    1.1394 C   0  0  0  0  0  0  0  0  0  0  0  0
   -4.5024    0.6759    1.6486 C   0  0  0  0  0  0  0  0  0  0  0  0
   -5.4774    0.9479    0.6128 N   0  0  0  0  0  0  0  0  0  0  0  0
   -5.8198    2.1569    0.0870 C   0  0  0  0  0  0  0  0  0  0  0  0
   -6.7880    1.9975   -0.7853 N   0  0  0  0  0  0  0  0  0  0  0  0
   -7.0182    0.6522   -0.7488 C   0  0  0  0  0  0  0  0  0  0  0  0
   -6.2498   -0.0342    0.1014 N   0  0  0  0  0  0  0  0  0  0  0  0
   -2.5095    2.0886    1.2818 N   0  0  0  0  0  0  0  0  0  0  0  0
   -1.2682    1.8683    0.6808 O   0  0  0  0  0  0  0  0  0  0  0  0
    0.9790    0.8211   -0.3647 N   0  0  0  0  0  0  0  0  0  0  0  0
    2.1638    0.4099   -0.9230 N   0  0  0  0  0  0  0  0  0  0  0  0
    3.3156    1.2842   -0.7114 C   0  0  0  0  0  0  0  0  0  0  0  0
    3.9786    1.0369    0.6242 C   0  0  0  0  0  0  0  0  0  0  0  0
    5.0179    0.1028    0.7416 C   0  0  0  0  0  0  0  0  0  0  0  0
    5.6183   -0.1364    1.9786 C   0  0  0  0  0  0  0  0  0  0  0  0
    5.1819    0.5495    3.1107 C   0  0  0  0  0  0  0  0  0  0  0  0
    4.1413    1.4710    3.0088 C   0  0  0  0  0  0  0  0  0  0  0  0
    3.5394    1.7113    1.7727 C   0  0  0  0  0  0  0  0  0  0  0  0
    2.1941   -3.1987   -2.7935 H   0  0  0  0  0  0  0  0  0  0  0  0
    0.1937   -4.6281   -3.0698 H   0  0  0  0  0  0  0  0  0  0  0  0
   -1.9892   -3.8879   -2.1490 H   0  0  0  0  0  0  0  0  0  0  0  0
   -2.1860   -1.7746   -0.9657 H   0  0  0  0  0  0  0  0  0  0  0  0
   -4.7381    1.3257    2.4984 H   0  0  0  0  0  0  0  0  0  0  0  0
   -4.6226   -0.3637    1.9715 H   0  0  0  0  0  0  0  0  0  0  0  0
   -5.3472    3.0901    0.3633 H   0  0  0  0  0  0  0  0  0  0  0  0
   -7.7688    0.1613   -1.3552 H   0  0  0  0  0  0  0  0  0  0  0  0
    4.0436    1.1427   -1.5194 H   0  0  0  0  0  0  0  0  0  0  0  0
    2.9789    2.3262   -0.7809 H   0  0  0  0  0  0  0  0  0  0  0  0
    5.3599   -0.4483   -0.1331 H   0  0  0  0  0  0  0  0  0  0  0  0
    6.4241   -0.8613    2.0580 H   0  0  0  0  0  0  0  0  0  0  0  0
    5.6494    0.3615    4.0735 H   0  0  0  0  0  0  0  0  0  0  0  0
    3.7949    2.0001    3.8926 H   0  0  0  0  0  0  0  0  0  0  0  0
    2.7187    2.4227    1.7071 H   0  0  0  0  0  0  0  0  0  0  0  0
  1  2  2  0
  2  3  1  0
  3  4  2  0
  4  5  1  0
  5  6  2  0
  6  7  1  0
  7  8  2  0
  8  9  1  0
  9 10  1  0
 10 11  2  0
 11 12  1  0
 12 13  1  0
 13 14  1  0
 14 15  1  0
 15 16  2  0
 16 17  1  0
 17 18  2  0
 12 19  2  0
 19 20  1  0
  9 21  2  0
 21 22  1  0
 22 23  1  0
 23 24  1  0
 24 25  2  0
 25 26  1  0
 26 27  2  0
 27 28  1  0
 28 29  2  0
 22  2  1  0
 29 24  1  0
  8  3  1  0
 20 10  1  0
 18 14  1  0
  4 30  1  0
  5 31  1  0
  6 32  1  0
  7 33  1  0
 13 34  1  0
 13 35  1  0
 15 36  1  0
 17 37  1  0
 23 38  1  0
 23 39  1  0
 25 40  1  0
 26 41  1  0
 27 42  1  0
 28 43  1  0
 29 44  1  0
M  END
$$$$
OCNT-2308693
     RDKit          3D

 39 41  0  0  0  0  0  0  0  0999 V2000
   -3.9108    0.6876    2.2728 C   0  0  0  0  0  0  0  0  0  0  0  0
   -3.1905    0.9748    0.9716 C   0  0  0  0  0  0  0  0  0  0  0  0
   -3.0923    2.1517    0.6242 O   0  0  0  0  0  0  0  0  0  0  0  0
   -2.7057   -0.1460    0.2834 N   0  0  0  0  0  0  0  0  0  0  0  0
   -1.8121   -0.0314   -0.7960 C   0  0  0  0  0  0  0  0  0  0  0  0
   -1.2105   -1.0622   -1.3668 N   0  0  0  0  0  0  0  0  0  0  0  0
   -0.3697   -0.6952   -2.3972 N   0  0  0  0  0  0  0  0  0  0  0  0
   -0.3543    0.6066   -2.5674 C   0  0  0  0  0  0  0  0  0  0  0  0
    0.6271    1.3878   -3.7847 S   0  0  0  0  0  0  0  0  0  0  0  0
    2.1808    0.4427   -3.6278 C   0  0  0  0  0  0  0  0  0  0  0  0
    2.9891    0.8360   -2.3896 C   0  0  0  0  0  0  0  0  0  0  0  0
    2.3604    0.3066   -1.2228 O   0  0  0  0  0  0  0  0  0  0  0  0
    2.9832    0.4926   -0.0228 C   0  0  0  0  0  0  0  0  0  0  0  0
    2.3308   -0.0984    1.0640 C   0  0  0  0  0  0  0  0  0  0  0  0
    2.8605    0.0024    2.3524 C   0  0  0  0  0  0  0  0  0  0  0  0
    4.0475    0.7016    2.5541 C   0  0  0  0  0  0  0  0  0  0  0  0
    4.7065    0.8318    4.1376 Cl  0  0  0  0  0  0  0  0  0  0  0  0
    4.7041    1.2986    1.4793 C   0  0  0  0  0  0  0  0  0  0  0  0
    4.1710    1.1955    0.1887 C   0  0  0  0  0  0  0  0  0  0  0  0
   -1.3836    1.4654   -1.5131 S   0  0  0  0  0  0  0  0  0  0  0  0
   -2.9694   -1.5031    0.7405 C   0  0  0  0  0  0  0  0  0  0  0  0
   -3.4503   -2.5984   -0.1888 C   0  0  0  0  0  0  0  0  0  0  0  0
   -4.3758   -2.0538    0.8471 C   0  0  0  0  0  0  0  0  0  0  0  0
   -3.9353    1.6020    2.8741 H   0  0  0  0  0  0  0  0  0  0  0  0
   -4.9393    0.3827    2.0715 H   0  0  0  0  0  0  0  0  0  0  0  0
   -3.3898   -0.0688    2.8642 H   0  0  0  0  0  0  0  0  0  0  0  0
    1.9660   -0.6310   -3.6327 H   0  0  0  0  0  0  0  0  0  0  0  0
    2.7728    0.6674   -4.5213 H   0  0  0  0  0  0  0  0  0  0  0  0
    3.0788    1.9274   -2.3204 H   0  0  0  0  0  0  0  0  0  0  0  0
    3.9893    0.3974   -2.4885 H   0  0  0  0  0  0  0  0  0  0  0  0
    1.4046   -0.6455    0.9008 H   0  0  0  0  0  0  0  0  0  0  0  0
    2.3443   -0.4645    3.1863 H   0  0  0  0  0  0  0  0  0  0  0  0
    5.6292    1.8481    1.6381 H   0  0  0  0  0  0  0  0  0  0  0  0
    4.7067    1.6741   -0.6241 H   0  0  0  0  0  0  0  0  0  0  0  0
   -2.2513   -1.8196    1.4956 H   0  0  0  0  0  0  0  0  0  0  0  0
   -3.0385   -3.5917   -0.0462 H   0  0  0  0  0  0  0  0  0  0  0  0
   -3.6530   -2.3574   -1.2262 H   0  0  0  0  0  0  0  0  0  0  0  0
   -5.2084   -1.4576    0.4913 H   0  0  0  0  0  0  0  0  0  0  0  0
   -4.6121   -2.6815    1.6988 H   0  0  0  0  0  0  0  0  0  0  0  0
  1  2  1  0
  2  3  2  0
  2  4  1  0
  4  5  1  0
  5  6  2  0
  6  7  1  0
  7  8  2  0
  8  9  1  0
  9 10  1  0
 10 11  1  0
 11 12  1  0
 12 13  1  0
 13 14  1  0
 14 15  2  0
 15 16  1  0
 16 17  1  0
 16 18  2  0
 18 19  1  0
  8 20  1  0
  4 21  1  0
 21 22  1  0
 22 23  1  0
 20  5  1  0
 23 21  1  0
 19 13  2  0
  1 24  1  0
  1 25  1  0
  1 26  1  0
 10 27  1  0
 10 28  1  0
 11 29  1  0
 11 30  1  0
 14 31  1  0
 15 32  1  0
 18 33  1  0
 19 34  1  0
 21 35  1  0
 22 36  1  0
 22 37  1  0
 23 38  1  0
 23 39  1  0
M  END
$$$$
OCNT-2308707
     RDKit          3D

  0  0  0  0  0  0  0  0  0  0999 V3000
M  V30 BEGIN CTAB
M  V30 COUNTS 42 46 0 0 0
M  V30 BEGIN ATOM
M  V30 1 O 0.396823 -1.411176 2.384806 0
M  V30 2 C 0.792539 -1.042406 1.281136 0
M  V30 3 N -0.069414 -0.885968 0.209408 0
M  V30 4 C -1.495256 -1.081121 0.338500 0
M  V30 5 C -2.263360 0.205427 0.522250 0 CFG=2
M  V30 6 C -1.640041 1.561453 0.194061 0
M  V30 7 C -1.899580 1.174244 1.626100 0 CFG=1
M  V30 8 C -3.157109 1.583903 2.329443 0
M  V30 9 O -4.259862 1.076455 1.551873 0
M  V30 10 C -3.805948 0.084253 0.571652 0
M  V30 11 C -4.494932 -1.308620 0.758647 0
M  V30 12 C -5.592938 -0.829800 -0.207956 0
M  V30 13 C -4.565325 0.155552 -0.791096 0
M  V30 14 C 2.207916 -0.716537 0.996696 0
M  V30 15 N 3.118435 -0.620469 1.985522 0
M  V30 16 N 4.268189 -0.321398 1.365066 0
M  V30 17 C 4.154862 -0.211726 0.011244 0
M  V30 18 C 5.229835 0.099144 -0.872932 0
M  V30 19 C 6.565976 0.340697 -0.595464 0
M  V30 20 C 7.211597 0.601624 -1.829648 0
M  V30 21 C 6.238553 0.506109 -2.792362 0
M  V30 22 O 5.043423 0.204817 -2.228021 0
M  V30 23 C 2.829204 -0.465937 -0.261449 0
M  V30 24 H 0.269052 -0.473287 -0.645013 0
M  V30 25 H -1.699040 -1.764857 1.169239 0
M  V30 26 H -1.817164 -1.564130 -0.590118 0
M  V30 27 H -2.274819 2.319930 -0.253592 0
M  V30 28 H -0.606799 1.633230 -0.119866 0
M  V30 29 H -1.069482 0.976187 2.287299 0
M  V30 30 H -3.244549 2.671289 2.402480 0
M  V30 31 H -3.212393 1.142340 3.328757 0
M  V30 32 H -3.938763 -2.172228 0.380120 0
M  V30 33 H -4.840489 -1.534424 1.771621 0
M  V30 34 H -6.437740 -0.341674 0.291339 0
M  V30 35 H -5.976704 -1.581677 -0.901915 0
M  V30 36 H -4.967280 1.135869 -1.061950 0
M  V30 37 H -3.998473 -0.240769 -1.641546 0
M  V30 38 H 5.098439 -0.205826 1.934969 0
M  V30 39 H 7.031588 0.331452 0.379749 0
M  V30 40 H 8.255061 0.830005 -1.995645 0
M  V30 41 H 6.233084 0.618073 -3.867740 0
M  V30 42 H 2.382883 -0.478023 -1.245205 0
M  V30 END ATOM
M  V30 BEGIN BOND
M  V30 1 2 1 2
M  V30 2 1 2 3
M  V30 3 1 3 4
M  V30 4 1 5 4 CFG=1
M  V30 5 1 5 6
M  V30 6 1 6 7
M  V30 7 1 7 8
M  V30 8 1 8 9
M  V30 9 1 9 10
M  V30 10 1 10 11
M  V30 11 1 11 12
M  V30 12 1 12 13
M  V30 13 1 2 14
M  V30 14 2 14 15
M  V30 15 1 15 16
M  V30 16 1 16 17
M  V30 17 1 17 18
M  V30 18 2 18 19
M  V30 19 1 19 20
M  V30 20 2 20 21
M  V30 21 1 21 22
M  V30 22 2 17 23
M  V30 23 1 7 5
M  V30 24 1 13 10
M  V30 25 1 23 14
M  V30 26 1 10 5
M  V30 27 1 22 18
M  V30 28 1 3 24
M  V30 29 1 4 25
M  V30 30 1 4 26
M  V30 31 1 6 27
M  V30 32 1 6 28
M  V30 33 1 7 29 CFG=1
M  V30 34 1 8 30
M  V30 35 1 8 31
M  V30 36 1 11 32
M  V30 37 1 11 33
M  V30 38 1 12 34
M  V30 39 1 12 35
M  V30 40 1 13 36
M  V30 41 1 13 37
M  V30 42 1 16 38
M  V30 43 1 19 39
M  V30 44 1 20 40
M  V30 45 1 21 41
M  V30 46 1 23 42
M  V30 END BOND
M  V30 BEGIN COLLECTION
M  V30 MDLV30/STERAC1 ATOMS=(2 5 7)
M  V30 END COLLECTION
M  V30 END CTAB
M  END
>  <_CXSMILES_Data>  (84) 
|&1:4,6|

$$$$
OCNT-2308723
     RDKit          3D

 44 47  0  0  0  0  0  0  0  0999 V2000
   -0.0779   -1.4840   -0.5342 C   0  0  0  0  0  0  0  0  0  0  0  0
    0.1364   -0.7072    0.7670 C   0  0  0  0  0  0  0  0  0  0  0  0
   -0.5754    0.6615    0.7944 C   0  0  0  0  0  0  0  0  0  0  0  0
   -2.0700    0.5504    0.9117 C   0  0  0  0  0  0  0  0  0  0  0  0
   -2.7846    0.3571    2.0784 C   0  0  0  0  0  0  0  0  0  0  0  0
   -4.1164    0.3137    1.7688 N   0  0  0  0  0  0  0  0  0  0  0  0
   -5.1787    0.1270    2.7319 C   0  0  0  0  0  0  0  0  0  0  0  0
   -4.2987    0.4775    0.4122 C   0  0  0  0  0  0  0  0  0  0  0  0
   -5.4709    0.5039   -0.3632 C   0  0  0  0  0  0  0  0  0  0  0  0
   -5.3390    0.6949   -1.7407 C   0  0  0  0  0  0  0  0  0  0  0  0
   -4.0844    0.8531   -2.3115 C   0  0  0  0  0  0  0  0  0  0  0  0
   -3.9874    1.0349   -3.6360 F   0  0  0  0  0  0  0  0  0  0  0  0
   -2.9223    0.8271   -1.5431 C   0  0  0  0  0  0  0  0  0  0  0  0
   -3.0269    0.6341   -0.1504 C   0  0  0  0  0  0  0  0  0  0  0  0
    1.5627   -0.6040    1.1000 N   0  0  0  0  0  0  0  0  0  0  0  0
    2.4648   -0.0122    0.2194 C   0  0  0  0  0  0  0  0  0  0  0  0
    2.0881    0.9786   -0.6293 N   0  0  0  0  0  0  0  0  0  0  0  0
    3.0133    1.5282   -1.4468 C   0  0  0  0  0  0  0  0  0  0  0  0
    4.3207    1.2219   -1.5589 N   0  0  0  0  0  0  0  0  0  0  0  0
    4.6485    0.2375   -0.7076 C   0  0  0  0  0  0  0  0  0  0  0  0
    3.8159   -0.4149    0.1865 C   0  0  0  0  0  0  0  0  0  0  0  0
    4.5118   -1.3832    0.8881 N   0  0  0  0  0  0  0  0  0  0  0  0
    5.7451   -1.3060    0.4318 C   0  0  0  0  0  0  0  0  0  0  0  0
    5.8725   -0.3428   -0.5306 N   0  0  0  0  0  0  0  0  0  0  0  0
    7.0743    0.0069   -1.2394 C   0  0  0  0  0  0  0  0  0  0  0  0
    0.4977   -2.4164   -0.5305 H   0  0  0  0  0  0  0  0  0  0  0  0
   -1.1318   -1.7490   -0.6640 H   0  0  0  0  0  0  0  0  0  0  0  0
    0.2305   -0.9060   -1.4113 H   0  0  0  0  0  0  0  0  0  0  0  0
   -0.2992   -1.3189    1.5687 H   0  0  0  0  0  0  0  0  0  0  0  0
   -0.2084    1.2462    1.6488 H   0  0  0  0  0  0  0  0  0  0  0  0
   -0.3341    1.2485   -0.0982 H   0  0  0  0  0  0  0  0  0  0  0  0
   -2.4418    0.2509    3.1000 H   0  0  0  0  0  0  0  0  0  0  0  0
   -5.7271   -0.7814    2.4699 H   0  0  0  0  0  0  0  0  0  0  0  0
   -5.8350    1.0003    2.6964 H   0  0  0  0  0  0  0  0  0  0  0  0
   -4.7527    0.0254    3.7333 H   0  0  0  0  0  0  0  0  0  0  0  0
   -6.4515    0.3821    0.0852 H   0  0  0  0  0  0  0  0  0  0  0  0
   -6.2189    0.7222   -2.3762 H   0  0  0  0  0  0  0  0  0  0  0  0
   -1.9577    0.9544   -2.0223 H   0  0  0  0  0  0  0  0  0  0  0  0
    1.9707   -1.4566    1.4817 H   0  0  0  0  0  0  0  0  0  0  0  0
    2.6534    2.3195   -2.0982 H   0  0  0  0  0  0  0  0  0  0  0  0
    6.5743   -1.9192    0.7616 H   0  0  0  0  0  0  0  0  0  0  0  0
    6.9100   -0.1596   -2.3071 H   0  0  0  0  0  0  0  0  0  0  0  0
    7.9003   -0.6183   -0.8909 H   0  0  0  0  0  0  0  0  0  0  0  0
    7.2998    1.0587   -1.0455 H   0  0  0  0  0  0  0  0  0  0  0  0
  1  2  1  0
  2  3  1  0
  3  4  1  0
  4  5  2  0
  5  6  1  0
  6  7  1  0
  6  8  1  0
  8  9  2  0
  9 10  1  0
 10 11  2  0
 11 12  1  0
 11 13  1  0
 13 14  2  0
  2 15  1  0
 15 16  1  0
 16 17  1  0
 17 18  2  0
 18 19  1  0
 19 20  2  0
 20 21  1  0
 21 22  1  0
 22 23  2  0
 23 24  1  0
 24 25  1  0
 14  4  1  0
 21 16  2  0
 14  8  1  0
 24 20  1  0
  1 26  1  0
  1 27  1  0
  1 28  1  0
  2 29  1  0
  3 30  1  0
  3 31  1  0
  5 32  1  0
  7 33  1  0
  7 34  1  0
  7 35  1  0
  9 36  1  0
 10 37  1  0
 13 38  1  0
 15 39  1  0
 18 40  1  0
 23 41  1  0
 25 42  1  0
 25 43  1  0
 25 44  1  0
M  END
$$$$
OCNT-2308740
     RDKit          3D

  0  0  0  0  0  0  0  0  0  0999 V3000
M  V30 BEGIN CTAB
M  V30 COUNTS 43 46 0 0 0
M  V30 BEGIN ATOM
M  V30 1 O -1.968263 0.679743 -3.716389 0
M  V30 2 C -1.552915 0.819320 -2.360609 0 CFG=1
M  V30 3 C -2.735681 0.587382 -1.420300 0
M  V30 4 C -2.081019 0.033573 -0.157875 0
M  V30 5 C -3.061289 -0.634387 0.801070 0
M  V30 6 N -3.958238 0.316569 1.432683 0
M  V30 7 C -5.293224 0.471722 1.193223 0
M  V30 8 C -5.708338 1.499245 2.007303 0
M  V30 9 C -4.549009 1.896756 2.699742 0
M  V30 10 N -3.478622 1.181219 2.345856 0
M  V30 11 C -1.056761 -0.947435 -0.730598 0
M  V30 12 C -0.480159 -0.234429 -1.966679 0 CFG=2
M  V30 13 N 0.768199 0.458966 -1.650476 0
M  V30 14 C 1.887612 -0.340390 -1.484390 0
M  V30 15 N 2.066596 -1.431181 -2.239773 0
M  V30 16 C 3.181389 -2.154438 -2.020660 0
M  V30 17 C 4.114727 -1.837747 -1.067179 0
M  V30 18 C 3.838116 -0.706974 -0.327269 0
M  V30 19 N 4.738959 -0.323478 0.708437 0
M  V30 20 C 4.605652 0.768593 1.540526 0
M  V30 21 C 5.676067 0.750605 2.404485 0
M  V30 22 C 6.414002 -0.383840 2.027431 0
M  V30 23 N 5.862452 -1.039542 1.003634 0
M  V30 24 N 2.732525 0.053723 -0.527086 0
M  V30 25 H -1.165847 0.808206 -4.258565 0
M  V30 26 H -1.177455 1.847906 -2.230543 0
M  V30 27 H -3.276447 1.525206 -1.225548 0
M  V30 28 H -3.460612 -0.121815 -1.855534 0
M  V30 29 H -1.547540 0.844583 0.356928 0
M  V30 30 H -2.525599 -1.147134 1.610560 0
M  V30 31 H -3.674951 -1.384866 0.286342 0
M  V30 32 H -5.821570 -0.136109 0.470275 0
M  V30 33 H -6.704567 1.909066 2.087908 0
M  V30 34 H -4.438971 2.679148 3.441172 0
M  V30 35 H -0.303998 -1.228379 0.015228 0
M  V30 36 H -1.560886 -1.870026 -1.053300 0
M  V30 37 H -0.332532 -0.944636 -2.790910 0
M  V30 38 H 0.736787 1.068628 -0.837375 0
M  V30 39 H 3.301821 -3.027661 -2.656764 0
M  V30 40 H 4.996841 -2.447404 -0.914636 0
M  V30 41 H 3.766467 1.445106 1.437865 0
M  V30 42 H 5.890973 1.458254 3.191736 0
M  V30 43 H 7.335311 -0.761649 2.457606 0
M  V30 END ATOM
M  V30 BEGIN BOND
M  V30 1 1 1 2
M  V30 2 1 2 3
M  V30 3 1 3 4
M  V30 4 1 4 5
M  V30 5 1 5 6
M  V30 6 1 6 7
M  V30 7 2 7 8
M  V30 8 1 8 9
M  V30 9 2 9 10
M  V30 10 1 4 11
M  V30 11 1 11 12
M  V30 12 1 12 13
M  V30 13 1 13 14
M  V30 14 2 14 15
M  V30 15 1 15 16
M  V30 16 2 16 17
M  V30 17 1 17 18
M  V30 18 1 18 19
M  V30 19 1 19 20
M  V30 20 2 20 21
M  V30 21 1 21 22
M  V30 22 2 22 23
M  V30 23 2 18 24
M  V30 24 1 12 2
M  V30 25 1 24 14
M  V30 26 1 10 6
M  V30 27 1 23 19
M  V30 28 1 1 25
M  V30 29 1 2 26 CFG=3
M  V30 30 1 3 27
M  V30 31 1 3 28
M  V30 32 1 4 29
M  V30 33 1 5 30
M  V30 34 1 5 31
M  V30 35 1 7 32
M  V30 36 1 8 33
M  V30 37 1 9 34
M  V30 38 1 11 35
M  V30 39 1 11 36
M  V30 40 1 12 37 CFG=3
M  V30 41 1 13 38
M  V30 42 1 16 39
M  V30 43 1 17 40
M  V30 44 1 20 41
M  V30 45 1 21 42
M  V30 46 1 22 43
M  V30 END BOND
M  V30 BEGIN COLLECTION
M  V30 MDLV30/STERAC1 ATOMS=(2 2 12)
M  V30 END COLLECTION
M  V30 END CTAB
M  END
>  <_CXSMILES_Data>  (86) 
|&1:1,11|

$$$$
OCNT-2308747
     RDKit          3D

 33 36  0  0  0  0  0  0  0  0999 V2000
    4.7109   -0.0583   -2.1133 C   0  0  0  0  0  0  0  0  0  0  0  0
    4.2873    0.0667   -0.6878 C   0  0  0  0  0  0  0  0  0  0  0  0
    5.1454    0.0190    0.3957 C   0  0  0  0  0  0  0  0  0  0  0  0
    4.3367    0.1921    1.8932 S   0  0  0  0  0  0  0  0  0  0  0  0
    2.8204    0.3344    1.1282 C   0  0  0  0  0  0  0  0  0  0  0  0
    2.9329    0.2529   -0.2449 C   0  0  0  0  0  0  0  0  0  0  0  0
    1.7113    0.3587   -1.0179 C   0  0  0  0  0  0  0  0  0  0  0  0
    1.6565    0.2827   -2.2408 O   0  0  0  0  0  0  0  0  0  0  0  0
    0.5857    0.5543   -0.2515 N   0  0  0  0  0  0  0  0  0  0  0  0
    0.5978    0.5987    1.1289 C   0  0  0  0  0  0  0  0  0  0  0  0
   -0.7454    0.8124    1.8010 C   0  0  0  0  0  0  0  0  0  0  0  0
   -1.7616   -0.1915    1.3577 C   0  0  0  0  0  0  0  0  0  0  0  0
   -1.8216   -1.5216    1.7407 C   0  0  0  0  0  0  0  0  0  0  0  0
   -2.8876   -2.1065    1.1076 N   0  0  0  0  0  0  0  0  0  0  0  0
   -3.5200   -1.1859    0.3213 C   0  0  0  0  0  0  0  0  0  0  0  0
   -4.5991   -1.4498   -0.4369 N   0  0  0  0  0  0  0  0  0  0  0  0
   -5.0407   -0.3689   -1.1180 C   0  0  0  0  0  0  0  0  0  0  0  0
   -4.4769    0.8996   -1.0762 C   0  0  0  0  0  0  0  0  0  0  0  0
   -3.3554    1.1177   -0.2739 C   0  0  0  0  0  0  0  0  0  0  0  0
   -2.8526    0.0268    0.4567 C   0  0  0  0  0  0  0  0  0  0  0  0
    1.6780    0.5053    1.8444 N   0  0  0  0  0  0  0  0  0  0  0  0
    4.4349    0.8402   -2.6745 H   0  0  0  0  0  0  0  0  0  0  0  0
    5.7951   -0.1870   -2.1967 H   0  0  0  0  0  0  0  0  0  0  0  0
    4.2324   -0.9253   -2.5797 H   0  0  0  0  0  0  0  0  0  0  0  0
    6.2193   -0.1110    0.3839 H   0  0  0  0  0  0  0  0  0  0  0  0
   -0.2861    0.5766   -0.7609 H   0  0  0  0  0  0  0  0  0  0  0  0
   -1.0792    1.8302    1.5694 H   0  0  0  0  0  0  0  0  0  0  0  0
   -0.6186    0.7530    2.8885 H   0  0  0  0  0  0  0  0  0  0  0  0
   -1.1946   -2.1005    2.4075 H   0  0  0  0  0  0  0  0  0  0  0  0
   -3.1834   -3.0684    1.1889 H   0  0  0  0  0  0  0  0  0  0  0  0
   -5.9152   -0.5554   -1.7377 H   0  0  0  0  0  0  0  0  0  0  0  0
   -4.9066    1.7082   -1.6580 H   0  0  0  0  0  0  0  0  0  0  0  0
   -2.9001    2.1006   -0.2175 H   0  0  0  0  0  0  0  0  0  0  0  0
  1  2  1  0
  2  3  2  0
  3  4  1  0
  4  5  1  0
  5  6  2  0
  6  7  1  0
  7  8  2  0
  7  9  1  0
  9 10  1  0
 10 11  1  0
 11 12  1  0
 12 13  2  0
 13 14  1  0
 14 15  1  0
 15 16  1  0
 16 17  2  0
 17 18  1  0
 18 19  2  0
 19 20  1  0
 10 21  2  0
  6  2  1  0
 20 12  1  0
 21  5  1  0
 20 15  2  0
  1 22  1  0
  1 23  1  0
  1 24  1  0
  3 25  1  0
  9 26  1  0
 11 27  1  0
 11 28  1  0
 13 29  1  0
 14 30  1  0
 17 31  1  0
 18 32  1  0
 19 33  1  0
M  END
$$$$
OCNT-2308748
     RDKit          3D

 55 57  0  0  0  0  0  0  0  0999 V2000
   -4.3306    1.3807    3.3954 C   0  0  0  0  0  0  0  0  0  0  0  0
   -4.1454    1.3514    1.9883 O   0  0  0  0  0  0  0  0  0  0  0  0
   -3.2885    0.3146    1.4563 C   0  0  0  0  0  0  0  0  0  0  0  0
   -3.7378   -1.0482    2.0271 C   0  0  0  0  0  0  0  0  0  0  0  0
   -1.7634    0.5552    1.8364 C   0  0  0  0  0  0  0  0  0  0  0  0
   -1.4436    1.5373    2.5215 O   0  0  0  0  0  0  0  0  0  0  0  0
   -0.7765   -0.3652    1.4523 N   0  0  0  0  0  0  0  0  0  0  0  0
   -0.8544   -1.1695    0.2148 C   0  0  0  0  0  0  0  0  0  0  0  0
    0.1093   -2.3743    0.2202 C   0  0  0  0  0  0  0  0  0  0  0  0
    1.4752   -1.9550    0.5590 N   0  0  0  0  0  0  0  0  0  0  0  0
    2.1801   -1.3556   -0.4850 C   0  0  0  0  0  0  0  0  0  0  0  0
    1.8389   -1.6500   -1.7494 N   0  0  0  0  0  0  0  0  0  0  0  0
    2.5559   -1.0864   -2.7368 C   0  0  0  0  0  0  0  0  0  0  0  0
    3.6028   -0.2280   -2.5211 C   0  0  0  0  0  0  0  0  0  0  0  0
    3.8904    0.0451   -1.2021 C   0  0  0  0  0  0  0  0  0  0  0  0
    5.0218    0.9682   -0.7983 C   0  0  0  0  0  0  0  0  0  0  0  0
    6.3787    0.3115   -1.0528 C   0  0  0  0  0  0  0  0  0  0  0  0
    4.9372    2.3344   -1.4830 C   0  0  0  0  0  0  0  0  0  0  0  0
    3.1888   -0.5164   -0.1923 N   0  0  0  0  0  0  0  0  0  0  0  0
    1.5489   -1.2501    1.8468 C   0  0  0  0  0  0  0  0  0  0  0  0
    0.6034   -0.0345    1.8677 C   0  0  0  0  0  0  0  0  0  0  0  0
   -3.5117    0.4843   -0.0566 C   0  0  0  0  0  0  0  0  0  0  0  0
   -2.9608    1.6029   -0.7147 C   0  0  0  0  0  0  0  0  0  0  0  0
   -3.1374    1.7964   -2.0862 C   0  0  0  0  0  0  0  0  0  0  0  0
   -3.8835    0.8858   -2.8270 C   0  0  0  0  0  0  0  0  0  0  0  0
   -4.4628   -0.2105   -2.1945 C   0  0  0  0  0  0  0  0  0  0  0  0
   -4.2886   -0.4047   -0.8207 C   0  0  0  0  0  0  0  0  0  0  0  0
   -4.7460    2.3566    3.6593 H   0  0  0  0  0  0  0  0  0  0  0  0
   -3.4004    1.2420    3.9496 H   0  0  0  0  0  0  0  0  0  0  0  0
   -5.0560    0.6186    3.6940 H   0  0  0  0  0  0  0  0  0  0  0  0
   -3.4473   -1.1452    3.0800 H   0  0  0  0  0  0  0  0  0  0  0  0
   -3.3036   -1.9058    1.5074 H   0  0  0  0  0  0  0  0  0  0  0  0
   -4.8284   -1.1533    1.9930 H   0  0  0  0  0  0  0  0  0  0  0  0
   -1.8614   -1.5463    0.0553 H   0  0  0  0  0  0  0  0  0  0  0  0
   -0.6219   -0.4943   -0.6173 H   0  0  0  0  0  0  0  0  0  0  0  0
   -0.2245   -3.0828    0.9892 H   0  0  0  0  0  0  0  0  0  0  0  0
    0.0533   -2.9228   -0.7270 H   0  0  0  0  0  0  0  0  0  0  0  0
    2.2514   -1.3584   -3.7425 H   0  0  0  0  0  0  0  0  0  0  0  0
    4.1599    0.1958   -3.3450 H   0  0  0  0  0  0  0  0  0  0  0  0
    4.9375    1.1446    0.2824 H   0  0  0  0  0  0  0  0  0  0  0  0
    6.5433    0.1184   -2.1180 H   0  0  0  0  0  0  0  0  0  0  0  0
    6.4547   -0.6466   -0.5266 H   0  0  0  0  0  0  0  0  0  0  0  0
    7.1922    0.9542   -0.7000 H   0  0  0  0  0  0  0  0  0  0  0  0
    3.9528    2.7914   -1.3317 H   0  0  0  0  0  0  0  0  0  0  0  0
    5.6914    3.0155   -1.0741 H   0  0  0  0  0  0  0  0  0  0  0  0
    5.1119    2.2603   -2.5624 H   0  0  0  0  0  0  0  0  0  0  0  0
    1.2297   -1.9507    2.6295 H   0  0  0  0  0  0  0  0  0  0  0  0
    2.5715   -0.9582    2.1142 H   0  0  0  0  0  0  0  0  0  0  0  0
    0.9632    0.7507    1.1919 H   0  0  0  0  0  0  0  0  0  0  0  0
    0.5940    0.3828    2.8810 H   0  0  0  0  0  0  0  0  0  0  0  0
   -2.3960    2.3450   -0.1509 H   0  0  0  0  0  0  0  0  0  0  0  0
   -2.7006    2.6669   -2.5692 H   0  0  0  0  0  0  0  0  0  0  0  0
   -4.0278    1.0395   -3.8933 H   0  0  0  0  0  0  0  0  0  0  0  0
   -5.0615   -0.9124   -2.7698 H   0  0  0  0  0  0  0  0  0  0  0  0
   -4.7776   -1.2613   -0.3644 H   0  0  0  0  0  0  0  0  0  0  0  0
  1  2  1  0
  2  3  1  0
  3  4  1  0
  3  5  1  0
  5  6  2  0
  5  7  1  0
  7  8  1  0
  8  9  1  0
  9 10  1  0
 10 11  1  0
 11 12  2  0
 12 13  1  0
 13 14  2  0
 14 15  1  0
 15 16  1  0
 16 17  1  0
 16 18  1  0
 15 19  2  0
 10 20  1  0
 20 21  1  0
  3 22  1  0
 22 23  2  0
 23 24  1  0
 24 25  2  0
 25 26  1  0
 26 27  2  0
 21  7  1  0
 27 22  1  0
 19 11  1  0
  1 28  1  0
  1 29  1  0
  1 30  1  0
  4 31  1  0
  4 32  1  0
  4 33  1  0
  8 34  1  0
  8 35  1  0
  9 36  1  0
  9 37  1  0
 13 38  1  0
 14 39  1  0
 16 40  1  0
 17 41  1  0
 17 42  1  0
 17 43  1  0
 18 44  1  0
 18 45  1  0
 18 46  1  0
 20 47  1  0
 20 48  1  0
 21 49  1  0
 21 50  1  0
 23 51  1  0
 24 52  1  0
 25 53  1  0
 26 54  1  0
 27 55  1  0
M  END
$$$$
OCNT-2308758
     RDKit          3D

 44 47  0  0  0  0  0  0  0  0999 V2000
   -0.4200    0.6343   -0.1579 O   0  0  0  0  0  0  0  0  0  0  0  0
   -0.5041   -0.5335   -0.5134 C   0  0  0  0  0  0  0  0  0  0  0  0
    0.5420   -1.3801   -0.8118 N   0  0  0  0  0  0  0  0  0  0  0  0
    1.8795   -1.0354   -0.8073 C   0  0  0  0  0  0  0  0  0  0  0  0
    2.4497    0.2016   -0.6422 C   0  0  0  0  0  0  0  0  0  0  0  0
    3.8173    0.0397   -0.7086 N   0  0  0  0  0  0  0  0  0  0  0  0
    4.8278    1.0323   -0.5722 C   0  0  0  0  0  0  0  0  0  0  0  0
    4.5029    2.3725   -0.3175 C   0  0  0  0  0  0  0  0  0  0  0  0
    5.5192    3.3256   -0.1775 C   0  0  0  0  0  0  0  0  0  0  0  0
    6.8578    2.9486   -0.2909 C   0  0  0  0  0  0  0  0  0  0  0  0
    7.1867    1.6192   -0.5485 C   0  0  0  0  0  0  0  0  0  0  0  0
    6.1773    0.6637   -0.6886 C   0  0  0  0  0  0  0  0  0  0  0  0
    4.1464   -1.2622   -0.9374 N   0  0  0  0  0  0  0  0  0  0  0  0
    2.9765   -1.8970   -0.9873 C   0  0  0  0  0  0  0  0  0  0  0  0
   -1.7103   -1.1914   -0.6480 N   0  0  0  0  0  0  0  0  0  0  0  0
   -2.9493   -0.4524   -0.4551 C   0  0  0  0  0  0  0  0  0  0  0  0
   -3.2517   -0.2017    1.0164 C   0  0  0  0  0  0  0  0  0  0  0  0
   -3.6864    1.0684    1.4319 C   0  0  0  0  0  0  0  0  0  0  0  0
   -4.0082    1.3052    2.7686 C   0  0  0  0  0  0  0  0  0  0  0  0
   -3.9007    0.2807    3.7051 C   0  0  0  0  0  0  0  0  0  0  0  0
   -3.4726   -0.9844    3.3085 C   0  0  0  0  0  0  0  0  0  0  0  0
   -3.1524   -1.2257    1.9719 C   0  0  0  0  0  0  0  0  0  0  0  0
   -4.0370   -1.2282   -1.1440 C   0  0  0  0  0  0  0  0  0  0  0  0
   -3.9226   -1.9334   -2.2561 N   0  0  0  0  0  0  0  0  0  0  0  0
   -5.1506   -2.4775   -2.5441 N   0  0  0  0  0  0  0  0  0  0  0  0
   -5.9871   -2.0921   -1.6090 C   0  0  0  0  0  0  0  0  0  0  0  0
   -5.3370   -1.3044   -0.7112 N   0  0  0  0  0  0  0  0  0  0  0  0
    0.3210   -2.3583   -0.9149 H   0  0  0  0  0  0  0  0  0  0  0  0
    1.9967    1.1687   -0.4915 H   0  0  0  0  0  0  0  0  0  0  0  0
    3.4756    2.7101   -0.2192 H   0  0  0  0  0  0  0  0  0  0  0  0
    5.2661    4.3635    0.0271 H   0  0  0  0  0  0  0  0  0  0  0  0
    7.6444    3.6917   -0.1777 H   0  0  0  0  0  0  0  0  0  0  0  0
    8.2286    1.3222   -0.6369 H   0  0  0  0  0  0  0  0  0  0  0  0
    6.4600   -0.3703   -0.8848 H   0  0  0  0  0  0  0  0  0  0  0  0
    2.9779   -2.9662   -1.1523 H   0  0  0  0  0  0  0  0  0  0  0  0
   -1.7432   -1.8046   -1.4544 H   0  0  0  0  0  0  0  0  0  0  0  0
   -2.8431    0.5071   -0.9786 H   0  0  0  0  0  0  0  0  0  0  0  0
   -3.7609    1.8865    0.7178 H   0  0  0  0  0  0  0  0  0  0  0  0
   -4.3283    2.2954    3.0817 H   0  0  0  0  0  0  0  0  0  0  0  0
   -4.1396    0.4710    4.7480 H   0  0  0  0  0  0  0  0  0  0  0  0
   -3.3757   -1.7786    4.0447 H   0  0  0  0  0  0  0  0  0  0  0  0
   -2.8120   -2.2177    1.6792 H   0  0  0  0  0  0  0  0  0  0  0  0
   -7.0338   -2.3422   -1.5404 H   0  0  0  0  0  0  0  0  0  0  0  0
   -5.7268   -0.8705    0.1153 H   0  0  0  0  0  0  0  0  0  0  0  0
  1  2  2  0
  2  3  1  0
  3  4  1  0
  4  5  2  0
  5  6  1  0
  6  7  1  0
  7  8  2  0
  8  9  1  0
  9 10  2  0
 10 11  1  0
 11 12  2  0
  6 13  1  0
 13 14  2  0
  2 15  1  0
 15 16  1  0
 16 17  1  0
 17 18  2  0
 18 19  1  0
 19 20  2  0
 20 21  1  0
 21 22  2  0
 16 23  1  0
 23 24  2  0
 24 25  1  0
 25 26  2  0
 26 27  1  0
 14  4  1  0
 22 17  1  0
 27 23  1  0
 12  7  1  0
  3 28  1  0
  5 29  1  0
  8 30  1  0
  9 31  1  0
 10 32  1  0
 11 33  1  0
 12 34  1  0
 14 35  1  0
 15 36  1  0
 16 37  1  0
 18 38  1  0
 19 39  1  0
 20 40  1  0
 21 41  1  0
 22 42  1  0
 26 43  1  0
 27 44  1  0
M  END
$$$$
OCNT-2308762
     RDKit          3D

 46 49  0  0  0  0  0  0  0  0999 V2000
   -5.2343   -3.0055    1.3433 C   0  0  0  0  0  0  0  0  0  0  0  0
   -5.6300   -1.5500    1.3162 C   0  0  0  0  0  0  0  0  0  0  0  0
   -4.6966   -0.6681    1.0840 N   0  0  0  0  0  0  0  0  0  0  0  0
   -5.0921    0.6471    1.0588 C   0  0  0  0  0  0  0  0  0  0  0  0
   -4.3819    1.8148    0.8464 C   0  0  0  0  0  0  0  0  0  0  0  0
   -2.9614    1.9773    0.5798 C   0  0  0  0  0  0  0  0  0  0  0  0
   -2.4884    3.0945    0.4083 O   0  0  0  0  0  0  0  0  0  0  0  0
   -2.2617    0.7863    0.5474 N   0  0  0  0  0  0  0  0  0  0  0  0
   -0.8912    0.5849    0.3029 C   0  0  0  0  0  0  0  0  0  0  0  0
    0.0167    1.6116    0.0340 C   0  0  0  0  0  0  0  0  0  0  0  0
    1.3705    1.3305   -0.2110 C   0  0  0  0  0  0  0  0  0  0  0  0
    1.8306    0.0150   -0.1942 C   0  0  0  0  0  0  0  0  0  0  0  0
    3.1183   -0.3848   -0.4191 O   0  0  0  0  0  0  0  0  0  0  0  0
    4.0415    0.6043   -0.8727 C   0  0  0  0  0  0  0  0  0  0  0  0
    5.3776   -0.0336   -1.1920 C   0  0  0  0  0  0  0  0  0  0  0  0
    5.4671   -1.3517   -1.6653 C   0  0  0  0  0  0  0  0  0  0  0  0
    6.7037   -1.9123   -1.9902 C   0  0  0  0  0  0  0  0  0  0  0  0
    7.8687   -1.1578   -1.8594 C   0  0  0  0  0  0  0  0  0  0  0  0
    7.7980    0.1618   -1.4053 C   0  0  0  0  0  0  0  0  0  0  0  0
    8.9924    0.9460   -1.2819 C   0  0  0  0  0  0  0  0  0  0  0  0
    9.9542    1.5887   -1.1835 N   0  0  0  0  0  0  0  0  0  0  0  0
    6.5562    0.7214   -1.0774 C   0  0  0  0  0  0  0  0  0  0  0  0
    0.9171   -1.0039    0.0837 C   0  0  0  0  0  0  0  0  0  0  0  0
    1.3238   -2.2826    0.1099 F   0  0  0  0  0  0  0  0  0  0  0  0
   -0.4271   -0.7319    0.3299 C   0  0  0  0  0  0  0  0  0  0  0  0
   -5.3525    2.8328    0.9490 C   0  0  0  0  0  0  0  0  0  0  0  0
   -6.5784    2.3699    1.2002 N   0  0  0  0  0  0  0  0  0  0  0  0
   -6.4213    1.0275    1.2659 N   0  0  0  0  0  0  0  0  0  0  0  0
   -7.3971    0.0690    1.5083 C   0  0  0  0  0  0  0  0  0  0  0  0
   -7.0756   -1.2308    1.5492 C   0  0  0  0  0  0  0  0  0  0  0  0
   -4.4064   -3.1443    2.0450 H   0  0  0  0  0  0  0  0  0  0  0  0
   -6.0676   -3.6430    1.6497 H   0  0  0  0  0  0  0  0  0  0  0  0
   -4.9075   -3.3048    0.3427 H   0  0  0  0  0  0  0  0  0  0  0  0
   -2.8229   -0.0476    0.7177 H   0  0  0  0  0  0  0  0  0  0  0  0
   -0.2965    2.6518    0.0007 H   0  0  0  0  0  0  0  0  0  0  0  0
    2.0286    2.1698   -0.4098 H   0  0  0  0  0  0  0  0  0  0  0  0
    3.6714    1.0859   -1.7864 H   0  0  0  0  0  0  0  0  0  0  0  0
    4.1846    1.3490   -0.0803 H   0  0  0  0  0  0  0  0  0  0  0  0
    4.5675   -1.9559   -1.7780 H   0  0  0  0  0  0  0  0  0  0  0  0
    6.7554   -2.9391   -2.3456 H   0  0  0  0  0  0  0  0  0  0  0  0
    8.8271   -1.6044   -2.1172 H   0  0  0  0  0  0  0  0  0  0  0  0
    6.5068    1.7534   -0.7309 H   0  0  0  0  0  0  0  0  0  0  0  0
   -1.0923   -1.5646    0.5368 H   0  0  0  0  0  0  0  0  0  0  0  0
   -5.2030    3.9016    0.8493 H   0  0  0  0  0  0  0  0  0  0  0  0
   -8.4013    0.4428    1.6567 H   0  0  0  0  0  0  0  0  0  0  0  0
   -7.7905   -2.0207    1.7318 H   0  0  0  0  0  0  0  0  0  0  0  0
  1  2  1  0
  2  3  2  0
  3  4  1  0
  4  5  2  0
  5  6  1  0
  6  7  2  0
  6  8  1  0
  8  9  1  0
  9 10  1  0
 10 11  2  0
 11 12  1  0
 12 13  1  0
 13 14  1  0
 14 15  1  0
 15 16  2  0
 16 17  1  0
 17 18  2  0
 18 19  1  0
 19 20  1  0
 20 21  3  0
 19 22  2  0
 12 23  2  0
 23 24  1  0
 23 25  1  0
  5 26  1  0
 26 27  2  0
 27 28  1  0
 28 29  1  0
 29 30  2  0
 30  2  1  0
 28  4  1  0
 25  9  2  0
 22 15  1  0
  1 31  1  0
  1 32  1  0
  1 33  1  0
  8 34  1  0
 10 35  1  0
 11 36  1  0
 14 37  1  0
 14 38  1  0
 16 39  1  0
 17 40  1  0
 18 41  1  0
 22 42  1  0
 25 43  1  0
 26 44  1  0
 29 45  1  0
 30 46  1  0
M  END
$$$$
OCNT-2308765
     RDKit          3D

  0  0  0  0  0  0  0  0  0  0999 V3000
M  V30 BEGIN CTAB
M  V30 COUNTS 42 45 0 0 0
M  V30 BEGIN ATOM
M  V30 1 O 2.155145 -2.338488 1.460587 0
M  V30 2 C 2.305970 -1.279394 0.852397 0
M  V30 3 N 1.298335 -0.787862 0.035302 0
M  V30 4 C 0.034977 -1.502624 -0.083678 0 CFG=2
M  V30 5 C -0.889334 -0.879279 -1.139414 0
M  V30 6 C -2.090826 -0.331668 -0.360654 0
M  V30 7 C -3.351456 -0.235886 -1.217997 0
M  V30 8 N -4.438958 0.441080 -0.536266 0
M  V30 9 C -5.555859 -0.130856 -0.000124 0
M  V30 10 C -6.290054 0.901380 0.534895 0
M  V30 11 C -5.531741 2.055260 0.265764 0
M  V30 12 N -4.401263 1.779304 -0.389654 0
M  V30 13 C -2.213724 -1.307093 0.808512 0
M  V30 14 C -0.766512 -1.493569 1.238138 0 CFG=1
M  V30 15 O -0.603824 -2.701560 1.961293 0
M  V30 16 C 3.470251 -0.440308 0.977351 0
M  V30 17 C 4.109883 0.485913 0.191113 0
M  V30 18 C 3.793382 0.863076 -1.115090 0
M  V30 19 C 4.682580 1.845227 -1.599682 0
M  V30 20 C 5.772229 2.376744 -0.844270 0
M  V30 21 C 6.081306 1.966481 0.470158 0
M  V30 22 C 5.213589 0.985612 0.979243 0
M  V30 23 N 5.221027 0.362718 2.166827 0
M  V30 24 O 4.166501 -0.530870 2.151775 0
M  V30 25 H 1.310769 0.204035 -0.166929 0
M  V30 26 H 0.283583 -2.531451 -0.374394 0
M  V30 27 H -1.216661 -1.663876 -1.833521 0
M  V30 28 H -0.406674 -0.097355 -1.735559 0
M  V30 29 H -1.828029 0.660936 0.031140 0
M  V30 30 H -3.153831 0.331884 -2.135194 0
M  V30 31 H -3.708848 -1.228301 -1.516575 0
M  V30 32 H -5.729928 -1.197054 -0.037675 0
M  V30 33 H -7.238612 0.831922 1.047476 0
M  V30 34 H -5.755424 3.083503 0.519307 0
M  V30 35 H -2.657081 -2.262224 0.500238 0
M  V30 36 H -2.826303 -0.911379 1.625089 0
M  V30 37 H -0.460563 -0.661703 1.884695 0
M  V30 38 H 0.364701 -2.837472 2.059793 0
M  V30 39 H 2.994853 0.460989 -1.723441 0
M  V30 40 H 4.537986 2.218585 -2.615231 0
M  V30 41 H 6.404031 3.132901 -1.312188 0
M  V30 42 H 6.914407 2.362721 1.034589 0
M  V30 END ATOM
M  V30 BEGIN BOND
M  V30 1 2 1 2
M  V30 2 1 2 3
M  V30 3 1 3 4
M  V30 4 1 4 5
M  V30 5 1 5 6
M  V30 6 1 6 7
M  V30 7 1 7 8
M  V30 8 1 8 9
M  V30 9 2 9 10
M  V30 10 1 10 11
M  V30 11 2 11 12
M  V30 12 1 6 13
M  V30 13 1 13 14
M  V30 14 1 14 15
M  V30 15 1 2 16
M  V30 16 2 16 17
M  V30 17 1 17 18
M  V30 18 2 18 19
M  V30 19 1 19 20
M  V30 20 2 20 21
M  V30 21 1 21 22
M  V30 22 2 22 23
M  V30 23 1 23 24
M  V30 24 1 14 4
M  V30 25 1 24 16
M  V30 26 1 12 8
M  V30 27 1 22 17
M  V30 28 1 3 25
M  V30 29 1 4 26 CFG=3
M  V30 30 1 5 27
M  V30 31 1 5 28
M  V30 32 1 6 29
M  V30 33 1 7 30
M  V30 34 1 7 31
M  V30 35 1 9 32
M  V30 36 1 10 33
M  V30 37 1 11 34
M  V30 38 1 13 35
M  V30 39 1 13 36
M  V30 40 1 14 37 CFG=1
M  V30 41 1 15 38
M  V30 42 1 18 39
M  V30 43 1 19 40
M  V30 44 1 20 41
M  V30 45 1 21 42
M  V30 END BOND
M  V30 BEGIN COLLECTION
M  V30 MDLV30/STERAC1 ATOMS=(2 4 14)
M  V30 END COLLECTION
M  V30 END CTAB
M  END
>  <_CXSMILES_Data>  (91) 
|&1:3,13|

$$$$
OCNT-2308768
     RDKit          3D

 39 42  0  0  0  0  0  0  0  0999 V2000
    3.2257   -2.2874    0.2917 C   0  0  0  0  0  0  0  0  0  0  0  0
    3.9918   -1.1107   -0.2076 C   0  0  0  0  0  0  0  0  0  0  0  0
    4.0643    0.1444    0.6176 C   0  0  0  0  0  0  0  0  0  0  0  0
    3.2981    0.1472   -0.6877 C   0  0  0  0  0  0  0  0  0  0  0  0
    1.8103    0.2456   -0.7365 C   0  0  0  0  0  0  0  0  0  0  0  0
    1.1996   -0.4151   -1.5652 O   0  0  0  0  0  0  0  0  0  0  0  0
    1.3077    1.2088    0.1065 N   0  0  0  0  0  0  0  0  0  0  0  0
   -0.0078    1.6117    0.0338 C   0  0  0  0  0  0  0  0  0  0  0  0
   -0.3134    2.8869    0.1314 N   0  0  0  0  0  0  0  0  0  0  0  0
   -1.6144    2.9704   -0.2707 C   0  0  0  0  0  0  0  0  0  0  0  0
   -2.3962    4.1241   -0.4458 C   0  0  0  0  0  0  0  0  0  0  0  0
   -3.7180    3.9926   -0.8769 C   0  0  0  0  0  0  0  0  0  0  0  0
   -4.2564    2.7324   -1.1188 C   0  0  0  0  0  0  0  0  0  0  0  0
   -3.4957    1.5699   -0.9373 C   0  0  0  0  0  0  0  0  0  0  0  0
   -2.1594    1.7100   -0.5224 C   0  0  0  0  0  0  0  0  0  0  0  0
   -1.1411    0.8180   -0.1710 N   0  0  0  0  0  0  0  0  0  0  0  0
   -1.2798   -0.5865    0.0804 C   0  0  0  0  0  0  0  0  0  0  0  0
   -0.4276   -1.1861    0.9274 N   0  0  0  0  0  0  0  0  0  0  0  0
   -0.8609   -2.4584    0.9717 N   0  0  0  0  0  0  0  0  0  0  0  0
   -0.1664   -3.4272    1.7836 C   0  0  0  0  0  0  0  0  0  0  0  0
   -1.9667   -2.6827    0.2077 C   0  0  0  0  0  0  0  0  0  0  0  0
   -2.2698   -1.4777   -0.3836 C   0  0  0  0  0  0  0  0  0  0  0  0
    2.4256   -1.9966    0.9782 H   0  0  0  0  0  0  0  0  0  0  0  0
    2.7830   -2.8363   -0.5451 H   0  0  0  0  0  0  0  0  0  0  0  0
    3.8938   -2.9680    0.8288 H   0  0  0  0  0  0  0  0  0  0  0  0
    4.8771   -1.4187   -0.7532 H   0  0  0  0  0  0  0  0  0  0  0  0
    5.0102    0.6733    0.6503 H   0  0  0  0  0  0  0  0  0  0  0  0
    3.5133    0.1730    1.5517 H   0  0  0  0  0  0  0  0  0  0  0  0
    3.7691    0.6416   -1.5331 H   0  0  0  0  0  0  0  0  0  0  0  0
    1.9445    1.9261    0.4207 H   0  0  0  0  0  0  0  0  0  0  0  0
   -1.9673    5.1013   -0.2510 H   0  0  0  0  0  0  0  0  0  0  0  0
   -4.3282    4.8811   -1.0192 H   0  0  0  0  0  0  0  0  0  0  0  0
   -5.2911    2.6465   -1.4456 H   0  0  0  0  0  0  0  0  0  0  0  0
   -3.9563    0.6069   -1.1125 H   0  0  0  0  0  0  0  0  0  0  0  0
    0.2101   -2.9342    2.6835 H   0  0  0  0  0  0  0  0  0  0  0  0
    0.6581   -3.8357    1.1952 H   0  0  0  0  0  0  0  0  0  0  0  0
   -0.8609   -4.2232    2.0638 H   0  0  0  0  0  0  0  0  0  0  0  0
   -2.4290   -3.6572    0.1382 H   0  0  0  0  0  0  0  0  0  0  0  0
   -3.0757   -1.3102   -1.0790 H   0  0  0  0  0  0  0  0  0  0  0  0
  1  2  1  0
  2  3  1  0
  3  4  1  0
  4  5  1  0
  5  6  2  0
  5  7  1  0
  7  8  1  0
  8  9  2  0
  9 10  1  0
 10 11  2  0
 11 12  1  0
 12 13  2  0
 13 14  1  0
 14 15  2  0
 15 16  1  0
 16 17  1  0
 17 18  2  0
 18 19  1  0
 19 20  1  0
 19 21  1  0
 21 22  2  0
  4  2  1  0
 16  8  1  0
 22 17  1  0
 15 10  1  0
  1 23  1  0
  1 24  1  0
  1 25  1  0
  2 26  1  0
  3 27  1  0
  3 28  1  0
  4 29  1  0
  7 30  1  0
 11 31  1  0
 12 32  1  0
 13 33  1  0
 14 34  1  0
 20 35  1  0
 20 36  1  0
 20 37  1  0
 21 38  1  0
 22 39  1  0
M  END
$$$$
OCNT-2308774
     RDKit          3D

 46 48  0  0  0  0  0  0  0  0999 V2000
    4.3547    2.3505   -1.2887 C   0  0  0  0  0  0  0  0  0  0  0  0
    4.2301    0.8667   -1.0521 C   0  0  0  0  0  0  0  0  0  0  0  0
    4.9664    0.0068   -1.8808 C   0  0  0  0  0  0  0  0  0  0  0  0
    4.8802   -1.3691   -1.7276 C   0  0  0  0  0  0  0  0  0  0  0  0
    4.0531   -1.9018   -0.7450 C   0  0  0  0  0  0  0  0  0  0  0  0
    3.2995   -1.0766    0.1182 C   0  0  0  0  0  0  0  0  0  0  0  0
    2.4323   -1.8026    1.1473 C   0  0  0  0  0  0  0  0  0  0  0  0
    3.0724   -1.8031    2.5357 C   0  0  0  0  0  0  0  0  0  0  0  0
    1.0726   -1.3165    1.1881 N   0  0  0  0  0  0  0  0  0  0  0  0
    0.1156   -1.7023    0.2762 C   0  0  0  0  0  0  0  0  0  0  0  0
    0.2498   -2.6257   -0.5202 O   0  0  0  0  0  0  0  0  0  0  0  0
   -1.1057   -0.8851    0.3544 C   0  0  0  0  0  0  0  0  0  0  0  0
   -1.2263    0.1401    1.2229 N   0  0  0  0  0  0  0  0  0  0  0  0
   -2.4606    0.6164    0.9789 N   0  0  0  0  0  0  0  0  0  0  0  0
   -3.1511   -0.0411   -0.0072 C   0  0  0  0  0  0  0  0  0  0  0  0
   -4.5114    0.3309   -0.4216 C   0  0  0  0  0  0  0  0  0  0  0  0
   -5.1480   -0.3896   -1.4453 C   0  0  0  0  0  0  0  0  0  0  0  0
   -6.4416   -0.0633   -1.8647 C   0  0  0  0  0  0  0  0  0  0  0  0
   -7.1246    0.9917   -1.2673 C   0  0  0  0  0  0  0  0  0  0  0  0
   -6.5172    1.7237   -0.2494 C   0  0  0  0  0  0  0  0  0  0  0  0
   -5.2232    1.3948    0.1677 C   0  0  0  0  0  0  0  0  0  0  0  0
   -4.6472    2.1335    1.1741 O   0  0  0  0  0  0  0  0  0  0  0  0
   -2.2799   -1.0275   -0.4287 C   0  0  0  0  0  0  0  0  0  0  0  0
    3.4098    0.3336   -0.0205 C   0  0  0  0  0  0  0  0  0  0  0  0
    2.6200    1.2854    0.8446 C   0  0  0  0  0  0  0  0  0  0  0  0
    4.9065    2.8189   -0.4677 H   0  0  0  0  0  0  0  0  0  0  0  0
    4.8934    2.5661   -2.2179 H   0  0  0  0  0  0  0  0  0  0  0  0
    3.3654    2.8102   -1.3810 H   0  0  0  0  0  0  0  0  0  0  0  0
    5.6069    0.4087   -2.6626 H   0  0  0  0  0  0  0  0  0  0  0  0
    5.4452   -2.0285   -2.3804 H   0  0  0  0  0  0  0  0  0  0  0  0
    3.9885   -2.9858   -0.6609 H   0  0  0  0  0  0  0  0  0  0  0  0
    2.3565   -2.8555    0.8436 H   0  0  0  0  0  0  0  0  0  0  0  0
    3.1649   -0.7992    2.9590 H   0  0  0  0  0  0  0  0  0  0  0  0
    2.4689   -2.3931    3.2348 H   0  0  0  0  0  0  0  0  0  0  0  0
    4.0761   -2.2414    2.5040 H   0  0  0  0  0  0  0  0  0  0  0  0
    0.8331   -0.4804    1.7110 H   0  0  0  0  0  0  0  0  0  0  0  0
   -2.8044    1.4079    1.5155 H   0  0  0  0  0  0  0  0  0  0  0  0
   -4.6448   -1.2197   -1.9351 H   0  0  0  0  0  0  0  0  0  0  0  0
   -6.9123   -0.6367   -2.6597 H   0  0  0  0  0  0  0  0  0  0  0  0
   -8.1301    1.2428   -1.5957 H   0  0  0  0  0  0  0  0  0  0  0  0
   -7.0657    2.5434    0.2046 H   0  0  0  0  0  0  0  0  0  0  0  0
   -5.2843    2.8137    1.4546 H   0  0  0  0  0  0  0  0  0  0  0  0
   -2.4422   -1.7677   -1.1997 H   0  0  0  0  0  0  0  0  0  0  0  0
    1.6388    1.4693    0.3964 H   0  0  0  0  0  0  0  0  0  0  0  0
    2.4891    0.9117    1.8605 H   0  0  0  0  0  0  0  0  0  0  0  0
    3.1308    2.2452    0.9669 H   0  0  0  0  0  0  0  0  0  0  0  0
  1  2  1  0
  2  3  1  0
  3  4  2  0
  4  5  1  0
  5  6  2  0
  6  7  1  0
  7  8  1  0
  7  9  1  0
  9 10  1  0
 10 11  2  0
 10 12  1  0
 12 13  2  0
 13 14  1  0
 14 15  1  0
 15 16  1  0
 16 17  2  0
 17 18  1  0
 18 19  2  0
 19 20  1  0
 20 21  2  0
 21 22  1  0
 15 23  2  0
  6 24  1  0
 24 25  1  0
 24  2  2  0
 23 12  1  0
 21 16  1  0
  1 26  1  0
  1 27  1  0
  1 28  1  0
  3 29  1  0
  4 30  1  0
  5 31  1  0
  7 32  1  0
  8 33  1  0
  8 34  1  0
  8 35  1  0
  9 36  1  0
 14 37  1  0
 17 38  1  0
 18 39  1  0
 19 40  1  0
 20 41  1  0
 22 42  1  0
 23 43  1  0
 25 44  1  0
 25 45  1  0
 25 46  1  0
M  END
$$$$
OCNT-2308786
     RDKit          3D

 37 40  0  0  0  0  0  0  0  0999 V2000
   -1.1711   -2.1835   -0.4002 F   0  0  0  0  0  0  0  0  0  0  0  0
   -2.2343   -1.3753   -0.2567 C   0  0  0  0  0  0  0  0  0  0  0  0
   -3.4930   -1.9905   -0.2008 C   0  0  0  0  0  0  0  0  0  0  0  0
   -4.6406   -1.1904   -0.0756 C   0  0  0  0  0  0  0  0  0  0  0  0
   -4.4814    0.1916   -0.0146 C   0  0  0  0  0  0  0  0  0  0  0  0
   -5.7351    0.7455    0.1056 N   0  0  0  0  0  0  0  0  0  0  0  0
   -6.6833   -0.2432    0.1198 C   0  0  0  0  0  0  0  0  0  0  0  0
   -6.0350   -1.4531    0.0088 C   0  0  0  0  0  0  0  0  0  0  0  0
   -3.2257    0.8050   -0.0716 C   0  0  0  0  0  0  0  0  0  0  0  0
   -3.1534    2.1435   -0.0017 F   0  0  0  0  0  0  0  0  0  0  0  0
   -2.0728    0.0147   -0.1896 C   0  0  0  0  0  0  0  0  0  0  0  0
   -0.7607    0.6419   -0.2508 C   0  0  0  0  0  0  0  0  0  0  0  0
    0.4191    0.0790    0.1890 C   0  0  0  0  0  0  0  0  0  0  0  0
    1.4065    1.0011   -0.0331 N   0  0  0  0  0  0  0  0  0  0  0  0
    2.8406    0.8531    0.2298 C   0  0  0  0  0  0  0  0  0  0  0  0
    3.5672    0.2828   -0.9902 C   0  0  0  0  0  0  0  0  0  0  0  0
    5.0454    0.0678   -0.6812 C   0  0  0  0  0  0  0  0  0  0  0  0
    5.2153   -0.7264    0.6092 C   0  0  0  0  0  0  0  0  0  0  0  0
    4.4017   -0.1053    1.7369 C   0  0  0  0  0  0  0  0  0  0  0  0
    3.0273   -0.0032    1.3708 O   0  0  0  0  0  0  0  0  0  0  0  0
    0.9458    2.1378   -0.6019 N   0  0  0  0  0  0  0  0  0  0  0  0
   -0.3673    1.9198   -0.7154 C   0  0  0  0  0  0  0  0  0  0  0  0
   -3.5644   -3.0719   -0.2589 H   0  0  0  0  0  0  0  0  0  0  0  0
   -5.9160    1.7389    0.1737 H   0  0  0  0  0  0  0  0  0  0  0  0
   -7.7343   -0.0016    0.2079 H   0  0  0  0  0  0  0  0  0  0  0  0
   -6.5132   -2.4241   -0.0091 H   0  0  0  0  0  0  0  0  0  0  0  0
    0.6479   -0.8770    0.6406 H   0  0  0  0  0  0  0  0  0  0  0  0
    3.2115    1.8554    0.4814 H   0  0  0  0  0  0  0  0  0  0  0  0
    3.4562    0.9454   -1.8563 H   0  0  0  0  0  0  0  0  0  0  0  0
    3.1259   -0.6841   -1.2659 H   0  0  0  0  0  0  0  0  0  0  0  0
    5.5405    1.0411   -0.5778 H   0  0  0  0  0  0  0  0  0  0  0  0
    5.5320   -0.4545   -1.5122 H   0  0  0  0  0  0  0  0  0  0  0  0
    6.2731   -0.7793    0.8868 H   0  0  0  0  0  0  0  0  0  0  0  0
    4.8653   -1.7517    0.4370 H   0  0  0  0  0  0  0  0  0  0  0  0
    4.7839    0.8864    2.0062 H   0  0  0  0  0  0  0  0  0  0  0  0
    4.4627   -0.7358    2.6295 H   0  0  0  0  0  0  0  0  0  0  0  0
   -0.9862    2.7002   -1.1400 H   0  0  0  0  0  0  0  0  0  0  0  0
  1  2  1  0
  2  3  1  0
  3  4  2  0
  4  5  1  0
  5  6  1  0
  6  7  1  0
  7  8  2  0
  5  9  2  0
  9 10  1  0
  9 11  1  0
 11 12  1  0
 12 13  2  0
 13 14  1  0
 14 15  1  0
 15 16  1  0
 16 17  1  0
 17 18  1  0
 18 19  1  0
 19 20  1  0
 14 21  1  0
 21 22  2  0
 11  2  2  0
 22 12  1  0
  8  4  1  0
 20 15  1  0
  3 23  1  0
  6 24  1  0
  7 25  1  0
  8 26  1  0
 13 27  1  0
 15 28  1  0
 16 29  1  0
 16 30  1  0
 17 31  1  0
 17 32  1  0
 18 33  1  0
 18 34  1  0
 19 35  1  0
 19 36  1  0
 22 37  1  0
M  END
$$$$
OCNT-2308803
     RDKit          3D

 50 52  0  0  0  0  0  0  0  0999 V2000
   -5.9011    0.6900    0.4461 O   0  0  0  0  0  0  0  0  0  0  0  0
   -5.4031    0.4707   -0.8973 S   0  0  0  0  0  0  0  0  0  0  0  0
   -6.2762    0.4135   -2.0498 O   0  0  0  0  0  0  0  0  0  0  0  0
   -4.3497   -0.9707   -0.8915 C   0  0  0  0  0  0  0  0  0  0  0  0
   -3.0129   -0.4866   -1.4440 C   0  0  0  0  0  0  0  0  0  0  0  0
   -2.7954    0.9509   -0.9314 C   0  0  0  0  0  0  0  0  0  0  0  0
   -2.4442    1.0184    0.5694 C   0  0  0  0  0  0  0  0  0  0  0  0
   -1.1798    0.3324    0.7940 N   0  0  0  0  0  0  0  0  0  0  0  0
   -0.6516    0.3255    2.1011 C   0  0  0  0  0  0  0  0  0  0  0  0
   -1.4422    0.2751    3.2543 C   0  0  0  0  0  0  0  0  0  0  0  0
   -0.8565    0.2147    4.5259 C   0  0  0  0  0  0  0  0  0  0  0  0
    0.5300    0.1794    4.6645 C   0  0  0  0  0  0  0  0  0  0  0  0
    1.3376    0.1896    3.5310 C   0  0  0  0  0  0  0  0  0  0  0  0
    0.7457    0.2301    2.2669 C   0  0  0  0  0  0  0  0  0  0  0  0
    1.5470    0.2646    1.1473 O   0  0  0  0  0  0  0  0  0  0  0  0
    2.0061   -1.0578    0.8322 C   0  0  0  0  0  0  0  0  0  0  0  0
    2.8173   -1.0330   -0.4732 C   0  0  0  0  0  0  0  0  0  0  0  0
    1.9483   -0.6285   -1.6804 C   0  0  0  0  0  0  0  0  0  0  0  0
    2.7510   -0.0307   -2.8421 C   0  0  0  0  0  0  0  0  0  0  0  0
    4.1762   -0.5625   -2.8833 C   0  0  0  0  0  0  0  0  0  0  0  0
    4.9417   -0.2278   -1.6022 C   0  0  0  0  0  0  0  0  0  0  0  0
    4.0466   -0.1231   -0.3635 C   0  0  0  0  0  0  0  0  0  0  0  0
   -4.1170    1.6691   -1.2197 C   0  0  0  0  0  0  0  0  0  0  0  0
   -4.7978   -1.7536   -1.5040 H   0  0  0  0  0  0  0  0  0  0  0  0
   -4.2520   -1.3179    0.1413 H   0  0  0  0  0  0  0  0  0  0  0  0
   -2.1993   -1.1659   -1.1706 H   0  0  0  0  0  0  0  0  0  0  0  0
   -3.0645   -0.4715   -2.5421 H   0  0  0  0  0  0  0  0  0  0  0  0
   -1.9857    1.4225   -1.5020 H   0  0  0  0  0  0  0  0  0  0  0  0
   -3.2409    0.5594    1.1622 H   0  0  0  0  0  0  0  0  0  0  0  0
   -2.3588    2.0660    0.8791 H   0  0  0  0  0  0  0  0  0  0  0  0
   -0.4339    0.6570    0.1740 H   0  0  0  0  0  0  0  0  0  0  0  0
   -2.5261    0.2785    3.1937 H   0  0  0  0  0  0  0  0  0  0  0  0
   -1.4908    0.1909    5.4095 H   0  0  0  0  0  0  0  0  0  0  0  0
    0.9785    0.1404    5.6535 H   0  0  0  0  0  0  0  0  0  0  0  0
    2.4184    0.1680    3.6296 H   0  0  0  0  0  0  0  0  0  0  0  0
    2.6486   -1.4322    1.6404 H   0  0  0  0  0  0  0  0  0  0  0  0
    1.1531   -1.7385    0.7203 H   0  0  0  0  0  0  0  0  0  0  0  0
    3.1745   -2.0582   -0.6465 H   0  0  0  0  0  0  0  0  0  0  0  0
    1.4150   -1.5201   -2.0341 H   0  0  0  0  0  0  0  0  0  0  0  0
    1.1725    0.0915   -1.3962 H   0  0  0  0  0  0  0  0  0  0  0  0
    2.2397   -0.2382   -3.7902 H   0  0  0  0  0  0  0  0  0  0  0  0
    2.7796    1.0626   -2.7351 H   0  0  0  0  0  0  0  0  0  0  0  0
    4.7115   -0.1531   -3.7465 H   0  0  0  0  0  0  0  0  0  0  0  0
    4.1493   -1.6511   -3.0157 H   0  0  0  0  0  0  0  0  0  0  0  0
    5.4812    0.7178   -1.7281 H   0  0  0  0  0  0  0  0  0  0  0  0
    5.7077   -0.9965   -1.4404 H   0  0  0  0  0  0  0  0  0  0  0  0
    4.6360   -0.3760    0.5266 H   0  0  0  0  0  0  0  0  0  0  0  0
    3.7265    0.9178   -0.2399 H   0  0  0  0  0  0  0  0  0  0  0  0
   -4.2761    2.5560   -0.6017 H   0  0  0  0  0  0  0  0  0  0  0  0
   -4.1842    1.9409   -2.2764 H   0  0  0  0  0  0  0  0  0  0  0  0
  1  2  2  0
  2  3  2  0
  2  4  1  0
  4  5  1  0
  5  6  1  0
  6  7  1  0
  7  8  1  0
  8  9  1  0
  9 10  2  0
 10 11  1  0
 11 12  2  0
 12 13  1  0
 13 14  2  0
 14 15  1  0
 15 16  1  0
 16 17  1  0
 17 18  1  0
 18 19  1  0
 19 20  1  0
 20 21  1  0
 21 22  1  0
  6 23  1  0
 23  2  1  0
 14  9  1  0
 22 17  1  0
  4 24  1  0
  4 25  1  0
  5 26  1  0
  5 27  1  0
  6 28  1  0
  7 29  1  0
  7 30  1  0
  8 31  1  0
 10 32  1  0
 11 33  1  0
 12 34  1  0
 13 35  1  0
 16 36  1  0
 16 37  1  0
 17 38  1  0
 18 39  1  0
 18 40  1  0
 19 41  1  0
 19 42  1  0
 20 43  1  0
 20 44  1  0
 21 45  1  0
 21 46  1  0
 22 47  1  0
 22 48  1  0
 23 49  1  0
 23 50  1  0
M  END
$$$$
OCNT-2308808
     RDKit          3D

 34 35  0  0  0  0  0  0  0  0999 V2000
   -4.9132   -1.1331    0.1326 C   0  0  0  0  0  0  0  0  0  0  0  0
   -3.4280   -1.0515    0.4676 C   0  0  0  0  0  0  0  0  0  0  0  0
   -2.8626    0.2841    0.4102 N   0  0  0  0  0  0  0  0  0  0  0  0
   -3.5178    1.4270    0.8041 C   0  0  0  0  0  0  0  0  0  0  0  0
   -2.7469    2.4643    0.3447 C   0  0  0  0  0  0  0  0  0  0  0  0
   -1.6234    1.9896   -0.2710 N   0  0  0  0  0  0  0  0  0  0  0  0
   -1.6603    0.6798   -0.1403 C   0  0  0  0  0  0  0  0  0  0  0  0
   -0.6083   -0.0927   -0.5678 N   0  0  0  0  0  0  0  0  0  0  0  0
   -0.2229   -1.2834    0.0124 C   0  0  0  0  0  0  0  0  0  0  0  0
   -0.7941   -1.8746    0.9253 O   0  0  0  0  0  0  0  0  0  0  0  0
    1.0477   -1.8423   -0.5944 C   0  0  0  0  0  0  0  0  0  0  0  0
    2.2409   -1.0118   -0.2131 C   0  0  0  0  0  0  0  0  0  0  0  0
    2.9436   -1.2672    0.9585 C   0  0  0  0  0  0  0  0  0  0  0  0
    4.0156   -0.4458    1.2879 C   0  0  0  0  0  0  0  0  0  0  0  0
    4.3530    0.6102    0.4472 C   0  0  0  0  0  0  0  0  0  0  0  0
    3.6001    0.8268   -0.7075 C   0  0  0  0  0  0  0  0  0  0  0  0
    3.9889    1.9748   -1.6319 C   0  0  0  0  0  0  0  0  0  0  0  0
    3.0426    2.2864   -2.5619 F   0  0  0  0  0  0  0  0  0  0  0  0
    5.1304    1.7127   -2.3336 F   0  0  0  0  0  0  0  0  0  0  0  0
    4.2377    3.1344   -0.9543 F   0  0  0  0  0  0  0  0  0  0  0  0
    2.5470    0.0208   -1.0388 N   0  0  0  0  0  0  0  0  0  0  0  0
   -5.2334   -2.1795    0.1011 H   0  0  0  0  0  0  0  0  0  0  0  0
   -5.5249   -0.6235    0.8835 H   0  0  0  0  0  0  0  0  0  0  0  0
   -5.1235   -0.6814   -0.8426 H   0  0  0  0  0  0  0  0  0  0  0  0
   -3.2473   -1.4350    1.4767 H   0  0  0  0  0  0  0  0  0  0  0  0
   -2.9016   -1.6732   -0.2621 H   0  0  0  0  0  0  0  0  0  0  0  0
   -4.4652    1.4117    1.3231 H   0  0  0  0  0  0  0  0  0  0  0  0
   -2.9438    3.5255    0.4213 H   0  0  0  0  0  0  0  0  0  0  0  0
    0.1185    0.4510   -1.0277 H   0  0  0  0  0  0  0  0  0  0  0  0
    1.1783   -2.8806   -0.2680 H   0  0  0  0  0  0  0  0  0  0  0  0
    0.9392   -1.8704   -1.6855 H   0  0  0  0  0  0  0  0  0  0  0  0
    2.6611   -2.0867    1.6132 H   0  0  0  0  0  0  0  0  0  0  0  0
    4.5824   -0.6252    2.1981 H   0  0  0  0  0  0  0  0  0  0  0  0
    5.1900    1.2586    0.6938 H   0  0  0  0  0  0  0  0  0  0  0  0
  1  2  1  0
  2  3  1  0
  3  4  1  0
  4  5  2  0
  5  6  1  0
  6  7  2  0
  7  8  1  0
  8  9  1  0
  9 10  2  0
  9 11  1  0
 11 12  1  0
 12 13  2  0
 13 14  1  0
 14 15  2  0
 15 16  1  0
 16 17  1  0
 17 18  1  0
 17 19  1  0
 17 20  1  0
 16 21  2  0
  7  3  1  0
 21 12  1  0
  1 22  1  0
  1 23  1  0
  1 24  1  0
  2 25  1  0
  2 26  1  0
  4 27  1  0
  5 28  1  0
  8 29  1  0
 11 30  1  0
 11 31  1  0
 13 32  1  0
 14 33  1  0
 15 34  1  0
M  END
$$$$
OCNT-2308829
     RDKit          3D

 51 52  0  0  0  0  0  0  0  0999 V2000
   -6.0850    0.1623    0.1256 C   0  0  0  0  0  0  0  0  0  0  0  0
   -4.9541   -0.8694    0.2083 C   0  0  0  0  0  0  0  0  0  0  0  0
   -5.0585   -1.6934    1.4969 C   0  0  0  0  0  0  0  0  0  0  0  0
   -5.0604   -1.8177   -0.9947 C   0  0  0  0  0  0  0  0  0  0  0  0
   -3.6642   -0.2526    0.0807 O   0  0  0  0  0  0  0  0  0  0  0  0
   -3.2971    0.7042    1.0705 C   0  0  0  0  0  0  0  0  0  0  0  0
   -1.8865    1.2301    0.7698 C   0  0  0  0  0  0  0  0  0  0  0  0
   -1.8113    1.9254   -0.6083 C   0  0  0  0  0  0  0  0  0  0  0  0
   -0.8824    1.2060   -1.5820 C   0  0  0  0  0  0  0  0  0  0  0  0
    0.5026    0.9964   -0.9713 C   0  0  0  0  0  0  0  0  0  0  0  0
    0.4516    0.5349    0.4144 N   0  0  0  0  0  0  0  0  0  0  0  0
    1.5776    0.3670    1.2143 C   0  0  0  0  0  0  0  0  0  0  0  0
    1.5096   -0.0824    2.3618 O   0  0  0  0  0  0  0  0  0  0  0  0
    2.9315    0.8291    0.6539 C   0  0  0  0  0  0  0  0  0  0  0  0
    3.3114    0.1437   -0.5328 O   0  0  0  0  0  0  0  0  0  0  0  0
    4.6215    0.4948   -0.9769 C   0  0  0  0  0  0  0  0  0  0  0  0
    5.6976   -0.2560   -0.2354 C   0  0  0  0  0  0  0  0  0  0  0  0
    6.9173    0.3593    0.0608 C   0  0  0  0  0  0  0  0  0  0  0  0
    7.8923   -0.3770    0.7171 C   0  0  0  0  0  0  0  0  0  0  0  0
    7.7409   -1.6665    1.0845 N   0  0  0  0  0  0  0  0  0  0  0  0
    6.5597   -2.2466    0.7829 C   0  0  0  0  0  0  0  0  0  0  0  0
    5.5264   -1.5952    0.1283 C   0  0  0  0  0  0  0  0  0  0  0  0
   -0.8528    0.1008    0.9059 C   0  0  0  0  0  0  0  0  0  0  0  0
   -7.0643   -0.3224    0.0483 H   0  0  0  0  0  0  0  0  0  0  0  0
   -5.9512    0.8190   -0.7412 H   0  0  0  0  0  0  0  0  0  0  0  0
   -6.1080    0.8061    1.0113 H   0  0  0  0  0  0  0  0  0  0  0  0
   -5.9703   -2.3005    1.5113 H   0  0  0  0  0  0  0  0  0  0  0  0
   -5.0792   -1.0524    2.3843 H   0  0  0  0  0  0  0  0  0  0  0  0
   -4.1946   -2.3582    1.6048 H   0  0  0  0  0  0  0  0  0  0  0  0
   -6.0168   -2.3511   -1.0108 H   0  0  0  0  0  0  0  0  0  0  0  0
   -4.9556   -1.2657   -1.9366 H   0  0  0  0  0  0  0  0  0  0  0  0
   -4.2519   -2.5583   -0.9790 H   0  0  0  0  0  0  0  0  0  0  0  0
   -3.3076    0.2483    2.0654 H   0  0  0  0  0  0  0  0  0  0  0  0
   -3.9994    1.5437    1.0622 H   0  0  0  0  0  0  0  0  0  0  0  0
   -1.6561    1.9907    1.5289 H   0  0  0  0  0  0  0  0  0  0  0  0
   -1.4342    2.9462   -0.4609 H   0  0  0  0  0  0  0  0  0  0  0  0
   -2.8050    2.0361   -1.0580 H   0  0  0  0  0  0  0  0  0  0  0  0
   -1.3207    0.2349   -1.8457 H   0  0  0  0  0  0  0  0  0  0  0  0
   -0.7946    1.7732   -2.5155 H   0  0  0  0  0  0  0  0  0  0  0  0
    1.0661    1.9355   -0.9973 H   0  0  0  0  0  0  0  0  0  0  0  0
    1.0495    0.2571   -1.5652 H   0  0  0  0  0  0  0  0  0  0  0  0
    3.6795    0.6598    1.4375 H   0  0  0  0  0  0  0  0  0  0  0  0
    2.8772    1.9079    0.4679 H   0  0  0  0  0  0  0  0  0  0  0  0
    4.6894    0.2246   -2.0367 H   0  0  0  0  0  0  0  0  0  0  0  0
    4.7622    1.5802   -0.9068 H   0  0  0  0  0  0  0  0  0  0  0  0
    7.1136    1.3913   -0.2100 H   0  0  0  0  0  0  0  0  0  0  0  0
    8.8521    0.0650    0.9698 H   0  0  0  0  0  0  0  0  0  0  0  0
    6.4602   -3.2837    1.0901 H   0  0  0  0  0  0  0  0  0  0  0  0
    4.6020   -2.1222   -0.0879 H   0  0  0  0  0  0  0  0  0  0  0  0
   -1.1354   -0.7875    0.3277 H   0  0  0  0  0  0  0  0  0  0  0  0
   -0.7944   -0.2147    1.9531 H   0  0  0  0  0  0  0  0  0  0  0  0
  1  2  1  0
  2  3  1  0
  2  4  1  0
  2  5  1  0
  5  6  1  0
  6  7  1  0
  7  8  1  0
  8  9  1  0
  9 10  1  0
 10 11  1  0
 11 12  1  0
 12 13  2  0
 12 14  1  0
 14 15  1  0
 15 16  1  0
 16 17  1  0
 17 18  2  0
 18 19  1  0
 19 20  2  0
 20 21  1  0
 21 22  2  0
 11 23  1  0
 23  7  1  0
 22 17  1  0
  1 24  1  0
  1 25  1  0
  1 26  1  0
  3 27  1  0
  3 28  1  0
  3 29  1  0
  4 30  1  0
  4 31  1  0
  4 32  1  0
  6 33  1  0
  6 34  1  0
  7 35  1  0
  8 36  1  0
  8 37  1  0
  9 38  1  0
  9 39  1  0
 10 40  1  0
 10 41  1  0
 14 42  1  0
 14 43  1  0
 16 44  1  0
 16 45  1  0
 18 46  1  0
 19 47  1  0
 21 48  1  0
 22 49  1  0
 23 50  1  0
 23 51  1  0
M  END
$$$$
OCNT-2308837
     RDKit          3D

 47 49  0  0  0  0  0  0  0  0999 V2000
   -0.3778   -1.7502   -1.9933 C   0  0  0  0  0  0  0  0  0  0  0  0
   -0.6174   -0.7065   -0.8958 C   0  0  0  0  0  0  0  0  0  0  0  0
    0.4334   -0.7468    0.1372 N   0  0  0  0  0  0  0  0  0  0  0  0
    1.6861   -0.0979   -0.3138 C   0  0  0  0  0  0  0  0  0  0  0  0
    2.8583   -0.3151    0.6949 C   0  0  0  0  0  0  0  0  0  0  0  0
    3.3115   -1.7846    0.7219 C   0  0  0  0  0  0  0  0  0  0  0  0
    2.3577   -0.0126    2.0114 O   0  0  0  0  0  0  0  0  0  0  0  0
    4.0299    0.6070    0.3548 C   0  0  0  0  0  0  0  0  0  0  0  0
    4.4474    1.6171    1.2376 C   0  0  0  0  0  0  0  0  0  0  0  0
    5.5130    2.4620    0.9165 C   0  0  0  0  0  0  0  0  0  0  0  0
    6.1819    2.3136   -0.2949 C   0  0  0  0  0  0  0  0  0  0  0  0
    5.7861    1.3203   -1.1858 C   0  0  0  0  0  0  0  0  0  0  0  0
    4.7203    0.4754   -0.8648 C   0  0  0  0  0  0  0  0  0  0  0  0
   -1.9809   -0.9341   -0.2505 C   0  0  0  0  0  0  0  0  0  0  0  0
   -2.2427   -2.0869    0.5035 C   0  0  0  0  0  0  0  0  0  0  0  0
   -3.4920   -2.2832    1.0871 C   0  0  0  0  0  0  0  0  0  0  0  0
   -4.5013   -1.3312    0.9284 C   0  0  0  0  0  0  0  0  0  0  0  0
   -4.2669   -0.1680    0.1816 C   0  0  0  0  0  0  0  0  0  0  0  0
   -5.2948    0.8077    0.0176 N   0  0  0  0  0  0  0  0  0  0  0  0
   -5.2217    1.9977   -0.6775 C   0  0  0  0  0  0  0  0  0  0  0  0
   -6.4539    2.5946   -0.5531 C   0  0  0  0  0  0  0  0  0  0  0  0
   -7.2925    1.8215    0.1930 N   0  0  0  0  0  0  0  0  0  0  0  0
   -6.5796    0.7656    0.5203 C   0  0  0  0  0  0  0  0  0  0  0  0
   -3.0030    0.0216   -0.4034 C   0  0  0  0  0  0  0  0  0  0  0  0
   -1.2131   -1.7658   -2.7033 H   0  0  0  0  0  0  0  0  0  0  0  0
   -0.2774   -2.7612   -1.5821 H   0  0  0  0  0  0  0  0  0  0  0  0
    0.5292   -1.5337   -2.5661 H   0  0  0  0  0  0  0  0  0  0  0  0
   -0.6242    0.2885   -1.3600 H   0  0  0  0  0  0  0  0  0  0  0  0
    0.0902   -0.1935    0.9271 H   0  0  0  0  0  0  0  0  0  0  0  0
    1.4890    0.9779   -0.4140 H   0  0  0  0  0  0  0  0  0  0  0  0
    1.9876   -0.4689   -1.2991 H   0  0  0  0  0  0  0  0  0  0  0  0
    3.6480   -2.1344   -0.2594 H   0  0  0  0  0  0  0  0  0  0  0  0
    2.5042   -2.4457    1.0569 H   0  0  0  0  0  0  0  0  0  0  0  0
    4.1354   -1.9220    1.4327 H   0  0  0  0  0  0  0  0  0  0  0  0
    1.6628   -0.6746    2.1777 H   0  0  0  0  0  0  0  0  0  0  0  0
    3.9434    1.7552    2.1925 H   0  0  0  0  0  0  0  0  0  0  0  0
    5.8190    3.2347    1.6170 H   0  0  0  0  0  0  0  0  0  0  0  0
    7.0114    2.9702   -0.5426 H   0  0  0  0  0  0  0  0  0  0  0  0
    6.3082    1.2008   -2.1315 H   0  0  0  0  0  0  0  0  0  0  0  0
    4.4371   -0.2916   -1.5822 H   0  0  0  0  0  0  0  0  0  0  0  0
   -1.4657   -2.8366    0.6424 H   0  0  0  0  0  0  0  0  0  0  0  0
   -3.6801   -3.1821    1.6698 H   0  0  0  0  0  0  0  0  0  0  0  0
   -5.4543   -1.5367    1.4058 H   0  0  0  0  0  0  0  0  0  0  0  0
   -4.3361    2.3317   -1.1939 H   0  0  0  0  0  0  0  0  0  0  0  0
   -6.7763    3.5426   -0.9643 H   0  0  0  0  0  0  0  0  0  0  0  0
   -6.9565   -0.0510    1.1187 H   0  0  0  0  0  0  0  0  0  0  0  0
   -2.7829    0.9091   -0.9894 H   0  0  0  0  0  0  0  0  0  0  0  0
  1  2  1  0
  2  3  1  0
  3  4  1  0
  4  5  1  0
  5  6  1  0
  5  7  1  0
  5  8  1  0
  8  9  2  0
  9 10  1  0
 10 11  2  0
 11 12  1  0
 12 13  2  0
  2 14  1  0
 14 15  2  0
 15 16  1  0
 16 17  2  0
 17 18  1  0
 18 19  1  0
 19 20  1  0
 20 21  2  0
 21 22  1  0
 22 23  2  0
 18 24  2  0
 13  8  1  0
 24 14  1  0
 23 19  1  0
  1 25  1  0
  1 26  1  0
  1 27  1  0
  2 28  1  0
  3 29  1  0
  4 30  1  0
  4 31  1  0
  6 32  1  0
  6 33  1  0
  6 34  1  0
  7 35  1  0
  9 36  1  0
 10 37  1  0
 11 38  1  0
 12 39  1  0
 13 40  1  0
 15 41  1  0
 16 42  1  0
 17 43  1  0
 20 44  1  0
 21 45  1  0
 23 46  1  0
 24 47  1  0
M  END
$$$$
OCNT-2308847
     RDKit          3D

 47 49  0  0  0  0  0  0  0  0999 V2000
    6.1117    0.5355   -0.6824 C   0  0  0  0  0  0  0  0  0  0  0  0
    5.4155   -0.5564   -0.0021 N   0  0  0  0  0  0  0  0  0  0  0  0
    4.3933   -0.0660    0.9328 C   0  0  0  0  0  0  0  0  0  0  0  0
    3.1398    0.5019    0.2601 C   0  0  0  0  0  0  0  0  0  0  0  0
    2.5302   -0.4941   -0.7333 C   0  0  0  0  0  0  0  0  0  0  0  0
    1.3731    0.1169   -1.5307 C   0  0  0  0  0  0  0  0  0  0  0  0
    0.2152    0.3919   -0.7104 N   0  0  0  0  0  0  0  0  0  0  0  0
   -0.0669    1.6419   -0.1780 C   0  0  0  0  0  0  0  0  0  0  0  0
    0.6550    2.6181   -0.3414 O   0  0  0  0  0  0  0  0  0  0  0  0
   -1.3505    1.6866    0.6038 C   0  0  0  0  0  0  0  0  0  0  0  0
   -2.1122    0.5637    0.4448 N   0  0  0  0  0  0  0  0  0  0  0  0
   -3.2891    0.5049    1.0785 C   0  0  0  0  0  0  0  0  0  0  0  0
   -4.0792   -0.6030    0.8962 N   0  0  0  0  0  0  0  0  0  0  0  0
   -5.4395   -0.5761    1.4218 C   0  0  0  0  0  0  0  0  0  0  0  0
   -6.1525   -1.6543    0.6082 C   0  0  0  0  0  0  0  0  0  0  0  0
   -5.4869   -1.5208   -0.7537 C   0  0  0  0  0  0  0  0  0  0  0  0
   -4.0207   -1.2808   -0.3957 C   0  0  0  0  0  0  0  0  0  0  0  0
   -3.7070    1.4806    1.8927 N   0  0  0  0  0  0  0  0  0  0  0  0
   -2.9276    2.5764    2.0198 C   0  0  0  0  0  0  0  0  0  0  0  0
   -1.7234    2.7567    1.3833 C   0  0  0  0  0  0  0  0  0  0  0  0
   -0.8479    4.2085    1.6377 Cl  0  0  0  0  0  0  0  0  0  0  0  0
    3.6128   -1.0078   -1.6951 C   0  0  0  0  0  0  0  0  0  0  0  0
    4.8437   -1.5227   -0.9434 C   0  0  0  0  0  0  0  0  0  0  0  0
    5.4528    1.1428   -1.3092 H   0  0  0  0  0  0  0  0  0  0  0  0
    6.9165    0.1413   -1.3166 H   0  0  0  0  0  0  0  0  0  0  0  0
    6.5885    1.1982    0.0463 H   0  0  0  0  0  0  0  0  0  0  0  0
    4.0953   -0.8995    1.5851 H   0  0  0  0  0  0  0  0  0  0  0  0
    4.8244    0.6875    1.6018 H   0  0  0  0  0  0  0  0  0  0  0  0
    3.3857    1.4430   -0.2509 H   0  0  0  0  0  0  0  0  0  0  0  0
    2.4071    0.7459    1.0402 H   0  0  0  0  0  0  0  0  0  0  0  0
    2.1467   -1.3490   -0.1613 H   0  0  0  0  0  0  0  0  0  0  0  0
    1.6895    1.0345   -2.0391 H   0  0  0  0  0  0  0  0  0  0  0  0
    1.0407   -0.5871   -2.3005 H   0  0  0  0  0  0  0  0  0  0  0  0
   -0.4610   -0.3434   -0.5190 H   0  0  0  0  0  0  0  0  0  0  0  0
   -5.4670   -0.8025    2.4979 H   0  0  0  0  0  0  0  0  0  0  0  0
   -5.9242    0.3932    1.2431 H   0  0  0  0  0  0  0  0  0  0  0  0
   -7.2337   -1.5026    0.5674 H   0  0  0  0  0  0  0  0  0  0  0  0
   -5.9599   -2.6480    1.0260 H   0  0  0  0  0  0  0  0  0  0  0  0
   -5.6314   -2.3986   -1.3948 H   0  0  0  0  0  0  0  0  0  0  0  0
   -5.8869   -0.6422   -1.2789 H   0  0  0  0  0  0  0  0  0  0  0  0
   -3.4953   -2.2327   -0.2788 H   0  0  0  0  0  0  0  0  0  0  0  0
   -3.5304   -0.7065   -1.1940 H   0  0  0  0  0  0  0  0  0  0  0  0
   -3.3288    3.3340    2.6900 H   0  0  0  0  0  0  0  0  0  0  0  0
    3.2056   -1.8209   -2.3056 H   0  0  0  0  0  0  0  0  0  0  0  0
    3.9067   -0.2130   -2.3929 H   0  0  0  0  0  0  0  0  0  0  0  0
    5.6084   -1.8492   -1.6614 H   0  0  0  0  0  0  0  0  0  0  0  0
    4.5639   -2.4265   -0.3828 H   0  0  0  0  0  0  0  0  0  0  0  0
  1  2  1  0
  2  3  1  0
  3  4  1  0
  4  5  1  0
  5  6  1  0
  6  7  1  0
  7  8  1  0
  8  9  2  0
  8 10  1  0
 10 11  2  0
 11 12  1  0
 12 13  1  0
 13 14  1  0
 14 15  1  0
 15 16  1  0
 16 17  1  0
 12 18  2  0
 18 19  1  0
 19 20  2  0
 20 21  1  0
  5 22  1  0
 22 23  1  0
 23  2  1  0
 20 10  1  0
 17 13  1  0
  1 24  1  0
  1 25  1  0
  1 26  1  0
  3 27  1  0
  3 28  1  0
  4 29  1  0
  4 30  1  0
  5 31  1  0
  6 32  1  0
  6 33  1  0
  7 34  1  0
 14 35  1  0
 14 36  1  0
 15 37  1  0
 15 38  1  0
 16 39  1  0
 16 40  1  0
 17 41  1  0
 17 42  1  0
 19 43  1  0
 22 44  1  0
 22 45  1  0
 23 46  1  0
 23 47  1  0
M  END
$$$$
OCNT-2308854
     RDKit          3D

 42 45  0  0  0  0  0  0  0  0999 V2000
   -1.6899    1.9844    2.3407 O   0  0  0  0  0  0  0  0  0  0  0  0
   -1.7982    0.9245    1.7301 C   0  0  0  0  0  0  0  0  0  0  0  0
   -0.7402    0.0464    1.5826 N   0  0  0  0  0  0  0  0  0  0  0  0
    0.5894    0.3916    2.0266 C   0  0  0  0  0  0  0  0  0  0  0  0
    1.4186    0.9115    0.8799 C   0  0  0  0  0  0  0  0  0  0  0  0
    1.3135    2.2521    0.4880 C   0  0  0  0  0  0  0  0  0  0  0  0
    2.0650    2.7377   -0.5804 C   0  0  0  0  0  0  0  0  0  0  0  0
    2.9291    1.8887   -1.2713 C   0  0  0  0  0  0  0  0  0  0  0  0
    3.0521    0.5418   -0.9011 C   0  0  0  0  0  0  0  0  0  0  0  0
    3.9732   -0.3713   -1.6731 C   0  0  0  0  0  0  0  0  0  0  0  0
    4.9316   -1.0499   -0.8166 N   0  0  0  0  0  0  0  0  0  0  0  0
    5.0176   -2.3990   -0.6051 C   0  0  0  0  0  0  0  0  0  0  0  0
    6.0963   -2.5571    0.2334 C   0  0  0  0  0  0  0  0  0  0  0  0
    6.6667   -1.3458    0.5263 N   0  0  0  0  0  0  0  0  0  0  0  0
    5.9470   -0.4567   -0.1208 C   0  0  0  0  0  0  0  0  0  0  0  0
    2.2793    0.0605    0.1698 C   0  0  0  0  0  0  0  0  0  0  0  0
   -3.0540    0.5004    1.0908 C   0  0  0  0  0  0  0  0  0  0  0  0
   -3.3603   -0.7325    0.5346 C   0  0  0  0  0  0  0  0  0  0  0  0
   -4.6517   -0.6354    0.0795 N   0  0  0  0  0  0  0  0  0  0  0  0
   -5.4410   -1.5903   -0.5581 C   0  0  0  0  0  0  0  0  0  0  0  0
   -6.6949   -1.2668   -0.9184 C   0  0  0  0  0  0  0  0  0  0  0  0
   -7.1872    0.0725   -0.6295 C   0  0  0  0  0  0  0  0  0  0  0  0
   -6.4156    0.9885   -0.0113 C   0  0  0  0  0  0  0  0  0  0  0  0
   -5.0872    0.6495    0.3717 C   0  0  0  0  0  0  0  0  0  0  0  0
   -4.1501    1.3440    0.9766 N   0  0  0  0  0  0  0  0  0  0  0  0
   -0.8259   -0.7063    0.9190 H   0  0  0  0  0  0  0  0  0  0  0  0
    0.5554    1.1284    2.8369 H   0  0  0  0  0  0  0  0  0  0  0  0
    1.0394   -0.5186    2.4384 H   0  0  0  0  0  0  0  0  0  0  0  0
    0.6382    2.9247    1.0167 H   0  0  0  0  0  0  0  0  0  0  0  0
    1.9734    3.7808   -0.8736 H   0  0  0  0  0  0  0  0  0  0  0  0
    3.5041    2.2921   -2.1024 H   0  0  0  0  0  0  0  0  0  0  0  0
    4.5587    0.1806   -2.4179 H   0  0  0  0  0  0  0  0  0  0  0  0
    3.3839   -1.1276   -2.2040 H   0  0  0  0  0  0  0  0  0  0  0  0
    4.3361   -3.1098   -1.0501 H   0  0  0  0  0  0  0  0  0  0  0  0
    6.4956   -3.4780    0.6386 H   0  0  0  0  0  0  0  0  0  0  0  0
    6.1129    0.6132   -0.1166 H   0  0  0  0  0  0  0  0  0  0  0  0
    2.3576   -0.9851    0.4646 H   0  0  0  0  0  0  0  0  0  0  0  0
   -2.8006   -1.6499    0.4367 H   0  0  0  0  0  0  0  0  0  0  0  0
   -5.0054   -2.5646   -0.7375 H   0  0  0  0  0  0  0  0  0  0  0  0
   -7.3518   -1.9721   -1.4163 H   0  0  0  0  0  0  0  0  0  0  0  0
   -8.2030    0.3159   -0.9268 H   0  0  0  0  0  0  0  0  0  0  0  0
   -6.7776    1.9867    0.2076 H   0  0  0  0  0  0  0  0  0  0  0  0
  1  2  2  0
  2  3  1  0
  3  4  1  0
  4  5  1  0
  5  6  1  0
  6  7  2  0
  7  8  1  0
  8  9  2  0
  9 10  1  0
 10 11  1  0
 11 12  1  0
 12 13  2  0
 13 14  1  0
 14 15  2  0
  9 16  1  0
  2 17  1  0
 17 18  2  0
 18 19  1  0
 19 20  1  0
 20 21  2  0
 21 22  1  0
 22 23  2  0
 23 24  1  0
 24 25  2  0
 16  5  2  0
 25 17  1  0
 15 11  1  0
 24 19  1  0
  3 26  1  0
  4 27  1  0
  4 28  1  0
  6 29  1  0
  7 30  1  0
  8 31  1  0
 10 32  1  0
 10 33  1  0
 12 34  1  0
 13 35  1  0
 15 36  1  0
 16 37  1  0
 18 38  1  0
 20 39  1  0
 21 40  1  0
 22 41  1  0
 23 42  1  0
M  END
$$$$
