OCNT-2313198
     RDKit          3D

 47 50  0  0  0  0  0  0  0  0999 V2000
    0.8874   -0.8020   -1.5230 O   0  0  0  0  0  0  0  0  0  0  0  0
    1.1606    0.2197   -0.9000 C   0  0  0  0  0  0  0  0  0  0  0  0
    0.2003    1.1742   -0.6079 N   0  0  0  0  0  0  0  0  0  0  0  0
   -1.1511    1.0667   -1.1280 C   0  0  0  0  0  0  0  0  0  0  0  0
   -1.9726   -0.0911   -0.5515 C   0  0  0  0  0  0  0  0  0  0  0  0
   -2.0274   -0.1190    0.9669 C   0  0  0  0  0  0  0  0  0  0  0  0
   -3.3066   -0.8861    1.2001 C   0  0  0  0  0  0  0  0  0  0  0  0
   -4.2253   -0.3394    0.1015 C   0  0  0  0  0  0  0  0  0  0  0  0
   -5.2229   -1.3830   -0.4184 C   0  0  0  0  0  0  0  0  0  0  0  0
   -6.5310   -1.2953    0.3493 C   0  0  0  0  0  0  0  0  0  0  0  0
   -7.1662   -0.0206    0.2363 O   0  0  0  0  0  0  0  0  0  0  0  0
   -6.3015    1.0584   -0.1219 C   0  0  0  0  0  0  0  0  0  0  0  0
   -4.9463    0.9439    0.5603 C   0  0  0  0  0  0  0  0  0  0  0  0
   -3.3438    0.0224   -0.9896 O   0  0  0  0  0  0  0  0  0  0  0  0
    2.5120    0.5110   -0.4204 C   0  0  0  0  0  0  0  0  0  0  0  0
    2.9259    1.5281    0.4126 C   0  0  0  0  0  0  0  0  0  0  0  0
    4.2691    1.4174    0.6042 O   0  0  0  0  0  0  0  0  0  0  0  0
    4.6266    0.3148   -0.1274 C   0  0  0  0  0  0  0  0  0  0  0  0
    6.0372   -0.0623   -0.1136 C   0  0  0  0  0  0  0  0  0  0  0  0
    6.4598   -1.1845   -0.8430 C   0  0  0  0  0  0  0  0  0  0  0  0
    7.8025   -1.5709   -0.8501 C   0  0  0  0  0  0  0  0  0  0  0  0
    8.7412   -0.8390   -0.1268 C   0  0  0  0  0  0  0  0  0  0  0  0
    8.3393    0.2778    0.6030 C   0  0  0  0  0  0  0  0  0  0  0  0
    6.9956    0.6640    0.6097 C   0  0  0  0  0  0  0  0  0  0  0  0
    3.6167   -0.2580   -0.7515 N   0  0  0  0  0  0  0  0  0  0  0  0
    0.4911    2.0749   -0.2590 H   0  0  0  0  0  0  0  0  0  0  0  0
   -1.0986    0.9748   -2.2195 H   0  0  0  0  0  0  0  0  0  0  0  0
   -1.6531    2.0195   -0.9220 H   0  0  0  0  0  0  0  0  0  0  0  0
   -1.5989   -1.0511   -0.9265 H   0  0  0  0  0  0  0  0  0  0  0  0
   -2.1166    0.8926    1.3803 H   0  0  0  0  0  0  0  0  0  0  0  0
   -1.1523   -0.5978    1.4152 H   0  0  0  0  0  0  0  0  0  0  0  0
   -3.1078   -1.9548    1.0511 H   0  0  0  0  0  0  0  0  0  0  0  0
   -3.7027   -0.7655    2.2126 H   0  0  0  0  0  0  0  0  0  0  0  0
   -5.4174   -1.2051   -1.4845 H   0  0  0  0  0  0  0  0  0  0  0  0
   -4.8089   -2.3957   -0.3559 H   0  0  0  0  0  0  0  0  0  0  0  0
   -6.3686   -1.4976    1.4142 H   0  0  0  0  0  0  0  0  0  0  0  0
   -7.2372   -2.0474   -0.0166 H   0  0  0  0  0  0  0  0  0  0  0  0
   -6.2004    1.0860   -1.2130 H   0  0  0  0  0  0  0  0  0  0  0  0
   -6.7973    1.9870    0.1789 H   0  0  0  0  0  0  0  0  0  0  0  0
   -4.3478    1.8352    0.3402 H   0  0  0  0  0  0  0  0  0  0  0  0
   -5.1195    0.9115    1.6430 H   0  0  0  0  0  0  0  0  0  0  0  0
    2.4454    2.3461    0.9272 H   0  0  0  0  0  0  0  0  0  0  0  0
    5.7364   -1.7664   -1.4131 H   0  0  0  0  0  0  0  0  0  0  0  0
    8.1119   -2.4430   -1.4206 H   0  0  0  0  0  0  0  0  0  0  0  0
    9.7860   -1.1392   -0.1319 H   0  0  0  0  0  0  0  0  0  0  0  0
    9.0711    0.8497    1.1679 H   0  0  0  0  0  0  0  0  0  0  0  0
    6.7057    1.5392    1.1869 H   0  0  0  0  0  0  0  0  0  0  0  0
  1  2  2  0
  2  3  1  0
  3  4  1  0
  4  5  1  0
  5  6  1  0
  6  7  1  0
  7  8  1  0
  8  9  1  0
  9 10  1  0
 10 11  1  0
 11 12  1  0
 12 13  1  0
  8 14  1  0
  2 15  1  0
 15 16  2  0
 16 17  1  0
 17 18  1  0
 18 19  1  0
 19 20  2  0
 20 21  1  0
 21 22  2  0
 22 23  1  0
 23 24  2  0
 18 25  2  0
 14  5  1  0
 25 15  1  0
 13  8  1  0
 24 19  1  0
  3 26  1  0
  4 27  1  0
  4 28  1  0
  5 29  1  0
  6 30  1  0
  6 31  1  0
  7 32  1  0
  7 33  1  0
  9 34  1  0
  9 35  1  0
 10 36  1  0
 10 37  1  0
 12 38  1  0
 12 39  1  0
 13 40  1  0
 13 41  1  0
 16 42  1  0
 20 43  1  0
 21 44  1  0
 22 45  1  0
 23 46  1  0
 24 47  1  0
M  END
$$$$
OCNT-2313220
     RDKit          3D

 44 48  0  0  0  0  0  0  0  0999 V2000
   -2.4597   -1.8352   -2.2901 O   0  0  0  0  0  0  0  0  0  0  0  0
   -1.5532   -1.4015   -1.5817 C   0  0  0  0  0  0  0  0  0  0  0  0
   -0.5194   -2.3510   -1.0775 C   0  0  0  0  0  0  0  0  0  0  0  0
   -0.6354   -3.7053   -1.4283 C   0  0  0  0  0  0  0  0  0  0  0  0
    0.3058   -4.6294   -0.9837 C   0  0  0  0  0  0  0  0  0  0  0  0
    1.3648   -4.2039   -0.1886 C   0  0  0  0  0  0  0  0  0  0  0  0
    1.4902   -2.8562    0.1676 C   0  0  0  0  0  0  0  0  0  0  0  0
    0.5488   -1.9201   -0.2727 C   0  0  0  0  0  0  0  0  0  0  0  0
    0.5944   -0.5404    0.0348 N   0  0  0  0  0  0  0  0  0  0  0  0
    1.4440    0.2722    0.7664 C   0  0  0  0  0  0  0  0  0  0  0  0
    2.8524   -0.2154    1.6479 S   0  0  0  0  0  0  0  0  0  0  0  0
    3.6417    1.3722    2.0218 C   0  0  0  0  0  0  0  0  0  0  0  0
    4.3372    1.9061    0.8071 C   0  0  0  0  0  0  0  0  0  0  0  0
    5.5664    2.7675    0.9613 C   0  0  0  0  0  0  0  0  0  0  0  0
    5.6894    1.3838    0.3869 C   0  0  0  0  0  0  0  0  0  0  0  0
    1.0232    1.5180    0.7194 N   0  0  0  0  0  0  0  0  0  0  0  0
   -0.1087    1.5578   -0.0402 N   0  0  0  0  0  0  0  0  0  0  0  0
   -0.3690    0.3338   -0.4406 C   0  0  0  0  0  0  0  0  0  0  0  0
   -1.4340   -0.0644   -1.2290 N   0  0  0  0  0  0  0  0  0  0  0  0
   -2.4597    0.8828   -1.6525 C   0  0  0  0  0  0  0  0  0  0  0  0
   -3.5662    1.0198   -0.6306 C   0  0  0  0  0  0  0  0  0  0  0  0
   -3.4888    1.9896    0.3794 C   0  0  0  0  0  0  0  0  0  0  0  0
   -4.5015    2.1015    1.3335 C   0  0  0  0  0  0  0  0  0  0  0  0
   -5.5985    1.2431    1.2915 C   0  0  0  0  0  0  0  0  0  0  0  0
   -5.6824    0.2695    0.2982 C   0  0  0  0  0  0  0  0  0  0  0  0
   -4.6706    0.1557   -0.6565 C   0  0  0  0  0  0  0  0  0  0  0  0
   -1.4621   -4.0451   -2.0504 H   0  0  0  0  0  0  0  0  0  0  0  0
    0.2123   -5.6778   -1.2571 H   0  0  0  0  0  0  0  0  0  0  0  0
    2.1018   -4.9253    0.1597 H   0  0  0  0  0  0  0  0  0  0  0  0
    2.3407   -2.6039    0.7867 H   0  0  0  0  0  0  0  0  0  0  0  0
    2.9122    2.0952    2.4006 H   0  0  0  0  0  0  0  0  0  0  0  0
    4.3610    1.1951    2.8291 H   0  0  0  0  0  0  0  0  0  0  0  0
    3.6388    2.2011    0.0300 H   0  0  0  0  0  0  0  0  0  0  0  0
    5.9639    2.9415    1.9548 H   0  0  0  0  0  0  0  0  0  0  0  0
    5.6812    3.6094    0.2873 H   0  0  0  0  0  0  0  0  0  0  0  0
    5.8860    1.2895   -0.6753 H   0  0  0  0  0  0  0  0  0  0  0  0
    6.1675    0.6234    0.9940 H   0  0  0  0  0  0  0  0  0  0  0  0
   -1.9975    1.8585   -1.8488 H   0  0  0  0  0  0  0  0  0  0  0  0
   -2.8879    0.5606   -2.6100 H   0  0  0  0  0  0  0  0  0  0  0  0
   -2.6332    2.6608    0.4322 H   0  0  0  0  0  0  0  0  0  0  0  0
   -4.4307    2.8569    2.1117 H   0  0  0  0  0  0  0  0  0  0  0  0
   -6.3857    1.3303    2.0354 H   0  0  0  0  0  0  0  0  0  0  0  0
   -6.5343   -0.4048    0.2673 H   0  0  0  0  0  0  0  0  0  0  0  0
   -4.7450   -0.6157   -1.4214 H   0  0  0  0  0  0  0  0  0  0  0  0
  1  2  2  0
  2  3  1  0
  3  4  2  0
  4  5  1  0
  5  6  2  0
  6  7  1  0
  7  8  2  0
  8  9  1  0
  9 10  1  0
 10 11  1  0
 11 12  1  0
 12 13  1  0
 13 14  1  0
 14 15  1  0
 10 16  2  0
 16 17  1  0
 17 18  2  0
 18 19  1  0
 19 20  1  0
 20 21  1  0
 21 22  2  0
 22 23  1  0
 23 24  2  0
 24 25  1  0
 25 26  2  0
 19  2  1  0
 26 21  1  0
  8  3  1  0
 18  9  1  0
 15 13  1  0
  4 27  1  0
  5 28  1  0
  6 29  1  0
  7 30  1  0
 12 31  1  0
 12 32  1  0
 13 33  1  0
 14 34  1  0
 14 35  1  0
 15 36  1  0
 15 37  1  0
 20 38  1  0
 20 39  1  0
 22 40  1  0
 23 41  1  0
 24 42  1  0
 25 43  1  0
 26 44  1  0
M  END
$$$$
OCNT-2313221
     RDKit          3D

 42 44  0  0  0  0  0  0  0  0999 V2000
    8.0134    1.2303    0.6252 N   0  0  0  0  0  0  0  0  0  0  0  0
    7.2678    0.3342   -0.0843 C   0  0  0  0  0  0  0  0  0  0  0  0
    7.7884   -0.4003   -0.9136 O   0  0  0  0  0  0  0  0  0  0  0  0
    5.7945    0.3550    0.2486 C   0  0  0  0  0  0  0  0  0  0  0  0
    5.0180   -0.6644   -0.5800 C   0  0  0  0  0  0  0  0  0  0  0  0
    3.5475   -0.6408   -0.2444 C   0  0  0  0  0  0  0  0  0  0  0  0
    2.6727    0.2028   -0.9367 C   0  0  0  0  0  0  0  0  0  0  0  0
    1.3119    0.2399   -0.6112 C   0  0  0  0  0  0  0  0  0  0  0  0
    0.7943   -0.5615    0.4108 C   0  0  0  0  0  0  0  0  0  0  0  0
   -0.5584   -0.5581    0.7982 N   0  0  0  0  0  0  0  0  0  0  0  0
   -1.6013    0.3279    0.5082 C   0  0  0  0  0  0  0  0  0  0  0  0
   -1.4119    1.6918    0.4424 C   0  0  0  0  0  0  0  0  0  0  0  0
   -2.5235    2.4535    0.1796 C   0  0  0  0  0  0  0  0  0  0  0  0
   -3.7480    1.9361   -0.0032 N   0  0  0  0  0  0  0  0  0  0  0  0
   -3.8521    0.5973    0.0987 C   0  0  0  0  0  0  0  0  0  0  0  0
   -5.1879   -0.0089   -0.0846 C   0  0  0  0  0  0  0  0  0  0  0  0
   -6.3251    0.7805   -0.3471 C   0  0  0  0  0  0  0  0  0  0  0  0
   -7.5903    0.2094   -0.5213 C   0  0  0  0  0  0  0  0  0  0  0  0
   -7.7493   -1.1701   -0.4371 C   0  0  0  0  0  0  0  0  0  0  0  0
   -6.6459   -1.9773   -0.1793 C   0  0  0  0  0  0  0  0  0  0  0  0
   -5.3825   -1.4021   -0.0056 C   0  0  0  0  0  0  0  0  0  0  0  0
   -2.8165   -0.2263    0.3592 N   0  0  0  0  0  0  0  0  0  0  0  0
    1.6784   -1.4024    1.1009 C   0  0  0  0  0  0  0  0  0  0  0  0
    3.0390   -1.4425    0.7816 C   0  0  0  0  0  0  0  0  0  0  0  0
    9.0145    1.2236    0.4770 H   0  0  0  0  0  0  0  0  0  0  0  0
    7.6428    1.7568    1.4037 H   0  0  0  0  0  0  0  0  0  0  0  0
    5.6806    0.1432    1.3187 H   0  0  0  0  0  0  0  0  0  0  0  0
    5.4140    1.3669    0.0633 H   0  0  0  0  0  0  0  0  0  0  0  0
    5.4145   -1.6746   -0.4138 H   0  0  0  0  0  0  0  0  0  0  0  0
    5.1521   -0.4683   -1.6518 H   0  0  0  0  0  0  0  0  0  0  0  0
    3.0411    0.8321   -1.7443 H   0  0  0  0  0  0  0  0  0  0  0  0
    0.6630    0.8819   -1.1993 H   0  0  0  0  0  0  0  0  0  0  0  0
   -0.9449   -1.4965    0.8525 H   0  0  0  0  0  0  0  0  0  0  0  0
   -0.4484    2.1502    0.6145 H   0  0  0  0  0  0  0  0  0  0  0  0
   -2.4599    3.5354    0.1139 H   0  0  0  0  0  0  0  0  0  0  0  0
   -6.2296    1.8631   -0.4184 H   0  0  0  0  0  0  0  0  0  0  0  0
   -8.4479    0.8461   -0.7226 H   0  0  0  0  0  0  0  0  0  0  0  0
   -8.7314   -1.6153   -0.5724 H   0  0  0  0  0  0  0  0  0  0  0  0
   -6.7632   -3.0558   -0.1126 H   0  0  0  0  0  0  0  0  0  0  0  0
   -4.5368   -2.0582    0.1944 H   0  0  0  0  0  0  0  0  0  0  0  0
    1.3101   -2.0300    1.9094 H   0  0  0  0  0  0  0  0  0  0  0  0
    3.6961   -2.1048    1.3408 H   0  0  0  0  0  0  0  0  0  0  0  0
  1  2  1  0
  2  3  2  0
  2  4  1  0
  4  5  1  0
  5  6  1  0
  6  7  1  0
  7  8  2  0
  8  9  1  0
  9 10  1  0
 10 11  1  0
 11 12  1  0
 12 13  2  0
 13 14  1  0
 14 15  2  0
 15 16  1  0
 16 17  2  0
 17 18  1  0
 18 19  2  0
 19 20  1  0
 20 21  2  0
 15 22  1  0
  9 23  2  0
 23 24  1  0
 24  6  2  0
 22 11  2  0
 21 16  1  0
  1 25  1  0
  1 26  1  0
  4 27  1  0
  4 28  1  0
  5 29  1  0
  5 30  1  0
  7 31  1  0
  8 32  1  0
 10 33  1  0
 12 34  1  0
 13 35  1  0
 17 36  1  0
 18 37  1  0
 19 38  1  0
 20 39  1  0
 21 40  1  0
 23 41  1  0
 24 42  1  0
M  END
$$$$
OCNT-2313224
     RDKit          3D

 35 37  0  0  0  0  0  0  0  0999 V2000
   -4.4484    0.2459    1.4233 C   0  0  0  0  0  0  0  0  0  0  0  0
   -3.7587    0.3506    0.0529 C   0  0  0  0  0  0  0  0  0  0  0  0
   -3.7509    1.8259   -0.3860 C   0  0  0  0  0  0  0  0  0  0  0  0
   -4.5436   -0.4698   -0.9841 C   0  0  0  0  0  0  0  0  0  0  0  0
   -2.3486   -0.1678    0.1513 C   0  0  0  0  0  0  0  0  0  0  0  0
   -1.2107    0.4606   -0.0805 N   0  0  0  0  0  0  0  0  0  0  0  0
   -0.2426   -0.4984    0.1663 C   0  0  0  0  0  0  0  0  0  0  0  0
    1.1725   -0.2406    0.0337 C   0  0  0  0  0  0  0  0  0  0  0  0
    2.0415   -1.1675    0.2749 N   0  0  0  0  0  0  0  0  0  0  0  0
    3.3994   -0.8323    0.1216 C   0  0  0  0  0  0  0  0  0  0  0  0
    4.3583   -1.8185    0.3769 C   0  0  0  0  0  0  0  0  0  0  0  0
    5.7209   -1.5415    0.2406 C   0  0  0  0  0  0  0  0  0  0  0  0
    6.1330   -0.2699   -0.1537 C   0  0  0  0  0  0  0  0  0  0  0  0
    5.1845    0.7178   -0.4099 C   0  0  0  0  0  0  0  0  0  0  0  0
    5.6202    1.9274   -0.7868 F   0  0  0  0  0  0  0  0  0  0  0  0
    3.8261    0.4417   -0.2741 C   0  0  0  0  0  0  0  0  0  0  0  0
    2.7887    1.4552   -0.5344 C   0  0  0  0  0  0  0  0  0  0  0  0
    3.0409    2.5999   -0.8847 O   0  0  0  0  0  0  0  0  0  0  0  0
    1.4992    1.0284   -0.3565 N   0  0  0  0  0  0  0  0  0  0  0  0
   -0.8509   -1.6727    0.5395 C   0  0  0  0  0  0  0  0  0  0  0  0
   -2.1970   -1.4763    0.5344 O   0  0  0  0  0  0  0  0  0  0  0  0
   -4.5090   -0.7938    1.7657 H   0  0  0  0  0  0  0  0  0  0  0  0
   -5.4702    0.6404    1.3837 H   0  0  0  0  0  0  0  0  0  0  0  0
   -3.9010    0.8100    2.1878 H   0  0  0  0  0  0  0  0  0  0  0  0
   -4.7699    2.2221   -0.4635 H   0  0  0  0  0  0  0  0  0  0  0  0
   -3.2045    2.4529    0.3287 H   0  0  0  0  0  0  0  0  0  0  0  0
   -3.2714    1.9495   -1.3644 H   0  0  0  0  0  0  0  0  0  0  0  0
   -4.6064   -1.5264   -0.6983 H   0  0  0  0  0  0  0  0  0  0  0  0
   -5.5681   -0.0957   -1.0921 H   0  0  0  0  0  0  0  0  0  0  0  0
   -4.0654   -0.4262   -1.9698 H   0  0  0  0  0  0  0  0  0  0  0  0
    4.0366   -2.8110    0.6847 H   0  0  0  0  0  0  0  0  0  0  0  0
    6.4567   -2.3166    0.4420 H   0  0  0  0  0  0  0  0  0  0  0  0
    7.1886   -0.0384   -0.2643 H   0  0  0  0  0  0  0  0  0  0  0  0
    0.7517    1.6914   -0.5241 H   0  0  0  0  0  0  0  0  0  0  0  0
   -0.5018   -2.6561    0.8181 H   0  0  0  0  0  0  0  0  0  0  0  0
  1  2  1  0
  2  3  1  0
  2  4  1  0
  2  5  1  0
  5  6  2  0
  6  7  1  0
  7  8  1  0
  8  9  2  0
  9 10  1  0
 10 11  2  0
 11 12  1  0
 12 13  2  0
 13 14  1  0
 14 15  1  0
 14 16  2  0
 16 17  1  0
 17 18  2  0
 17 19  1  0
  7 20  2  0
 20 21  1  0
 21  5  1  0
 19  8  1  0
 16 10  1  0
  1 22  1  0
  1 23  1  0
  1 24  1  0
  3 25  1  0
  3 26  1  0
  3 27  1  0
  4 28  1  0
  4 29  1  0
  4 30  1  0
 11 31  1  0
 12 32  1  0
 13 33  1  0
 19 34  1  0
 20 35  1  0
M  END
$$$$
OCNT-2313234
     RDKit          3D

 35 37  0  0  0  0  0  0  0  0999 V2000
    0.0434   -0.2514   -3.6282 O   0  0  0  0  0  0  0  0  0  0  0  0
   -0.2600   -0.1972   -2.4404 C   0  0  0  0  0  0  0  0  0  0  0  0
   -1.7230   -0.3283   -2.0026 C   0  0  0  0  0  0  0  0  0  0  0  0
   -1.8448   -0.2366   -0.5834 O   0  0  0  0  0  0  0  0  0  0  0  0
   -3.1052   -0.3388   -0.0616 C   0  0  0  0  0  0  0  0  0  0  0  0
   -4.2823   -0.5244   -0.7900 C   0  0  0  0  0  0  0  0  0  0  0  0
   -5.5120   -0.6127   -0.1290 C   0  0  0  0  0  0  0  0  0  0  0  0
   -5.5701   -0.5162    1.2606 C   0  0  0  0  0  0  0  0  0  0  0  0
   -4.3960   -0.3313    1.9854 C   0  0  0  0  0  0  0  0  0  0  0  0
   -4.4602   -0.2113    3.7007 Cl  0  0  0  0  0  0  0  0  0  0  0  0
   -3.1683   -0.2426    1.3311 C   0  0  0  0  0  0  0  0  0  0  0  0
    0.6073   -0.0216   -1.3788 N   0  0  0  0  0  0  0  0  0  0  0  0
    2.0150    0.1333   -1.4112 C   0  0  0  0  0  0  0  0  0  0  0  0
    2.7440    0.1265   -2.6022 C   0  0  0  0  0  0  0  0  0  0  0  0
    4.0876    0.2705   -2.6851 N   0  0  0  0  0  0  0  0  0  0  0  0
    4.7472    0.4305   -1.5214 C   0  0  0  0  0  0  0  0  0  0  0  0
    4.1438    0.4562   -0.2654 C   0  0  0  0  0  0  0  0  0  0  0  0
    4.9146    0.6287    0.8989 C   0  0  0  0  0  0  0  0  0  0  0  0
    4.3136    0.6546    2.1539 C   0  0  0  0  0  0  0  0  0  0  0  0
    2.9376    0.5085    2.2575 C   0  0  0  0  0  0  0  0  0  0  0  0
    2.1618    0.3364    1.1059 C   0  0  0  0  0  0  0  0  0  0  0  0
    2.7379    0.3045   -0.1925 C   0  0  0  0  0  0  0  0  0  0  0  0
   -2.0752   -1.3065   -2.3494 H   0  0  0  0  0  0  0  0  0  0  0  0
   -2.2757    0.4876   -2.4825 H   0  0  0  0  0  0  0  0  0  0  0  0
   -4.2841   -0.6048   -1.8728 H   0  0  0  0  0  0  0  0  0  0  0  0
   -6.4262   -0.7573   -0.7004 H   0  0  0  0  0  0  0  0  0  0  0  0
   -6.5281   -0.5856    1.7690 H   0  0  0  0  0  0  0  0  0  0  0  0
   -2.2573   -0.0983    1.9052 H   0  0  0  0  0  0  0  0  0  0  0  0
    0.1501   -0.0057   -0.4751 H   0  0  0  0  0  0  0  0  0  0  0  0
    2.2749    0.0021   -3.5721 H   0  0  0  0  0  0  0  0  0  0  0  0
    5.8231    0.5425   -1.6326 H   0  0  0  0  0  0  0  0  0  0  0  0
    5.9949    0.7445    0.8327 H   0  0  0  0  0  0  0  0  0  0  0  0
    4.9187    0.7885    3.0469 H   0  0  0  0  0  0  0  0  0  0  0  0
    2.4615    0.5278    3.2350 H   0  0  0  0  0  0  0  0  0  0  0  0
    1.0917    0.2277    1.2529 H   0  0  0  0  0  0  0  0  0  0  0  0
  1  2  2  0
  2  3  1  0
  3  4  1  0
  4  5  1  0
  5  6  2  0
  6  7  1  0
  7  8  2  0
  8  9  1  0
  9 10  1  0
  9 11  2  0
  2 12  1  0
 12 13  1  0
 13 14  1  0
 14 15  2  0
 15 16  1  0
 16 17  2  0
 17 18  1  0
 18 19  2  0
 19 20  1  0
 20 21  2  0
 21 22  1  0
 11  5  1  0
 22 13  2  0
 22 17  1  0
  3 23  1  0
  3 24  1  0
  6 25  1  0
  7 26  1  0
  8 27  1  0
 11 28  1  0
 12 29  1  0
 14 30  1  0
 16 31  1  0
 18 32  1  0
 19 33  1  0
 20 34  1  0
 21 35  1  0
M  END
$$$$
OCNT-2313241
     RDKit          3D

 40 42  0  0  0  0  0  0  0  0999 V2000
   -3.4243    1.2056    2.9270 C   0  0  0  0  0  0  0  0  0  0  0  0
   -2.9501    0.6497    1.7056 O   0  0  0  0  0  0  0  0  0  0  0  0
   -3.8439   -0.0947    0.9679 C   0  0  0  0  0  0  0  0  0  0  0  0
   -5.1633   -0.3618    1.3437 C   0  0  0  0  0  0  0  0  0  0  0  0
   -5.9753   -1.1341    0.5130 C   0  0  0  0  0  0  0  0  0  0  0  0
   -7.6003   -1.4624    0.9779 Cl  0  0  0  0  0  0  0  0  0  0  0  0
   -5.4861   -1.6438   -0.6860 C   0  0  0  0  0  0  0  0  0  0  0  0
   -4.1684   -1.3810   -1.0674 C   0  0  0  0  0  0  0  0  0  0  0  0
   -3.3418   -0.6064   -0.2504 C   0  0  0  0  0  0  0  0  0  0  0  0
   -1.9988   -0.2998   -0.5643 N   0  0  0  0  0  0  0  0  0  0  0  0
   -1.2960   -0.6199   -1.7070 C   0  0  0  0  0  0  0  0  0  0  0  0
   -1.7346   -1.1874   -2.7004 O   0  0  0  0  0  0  0  0  0  0  0  0
    0.1287   -0.1810   -1.7129 C   0  0  0  0  0  0  0  0  0  0  0  0
    0.7041    0.1963   -2.9292 C   0  0  0  0  0  0  0  0  0  0  0  0
    2.0338    0.6080   -2.9694 C   0  0  0  0  0  0  0  0  0  0  0  0
    2.7963    0.6307   -1.7978 C   0  0  0  0  0  0  0  0  0  0  0  0
    2.2471    0.2401   -0.5708 C   0  0  0  0  0  0  0  0  0  0  0  0
    2.9765    0.1972    0.6301 N   0  0  0  0  0  0  0  0  0  0  0  0
    4.3461    0.2630    0.8903 C   0  0  0  0  0  0  0  0  0  0  0  0
    5.3236   -0.2915    0.0629 C   0  0  0  0  0  0  0  0  0  0  0  0
    6.6557   -0.2380    0.3256 N   0  0  0  0  0  0  0  0  0  0  0  0
    6.9831    0.3818    1.4771 C   0  0  0  0  0  0  0  0  0  0  0  0
    6.0264    0.9152    2.3213 C   0  0  0  0  0  0  0  0  0  0  0  0
    4.6999    0.8621    2.0504 N   0  0  0  0  0  0  0  0  0  0  0  0
    0.9049   -0.1712   -0.5441 C   0  0  0  0  0  0  0  0  0  0  0  0
   -4.2497    1.9028    2.7494 H   0  0  0  0  0  0  0  0  0  0  0  0
   -2.6024    1.7710    3.3767 H   0  0  0  0  0  0  0  0  0  0  0  0
   -3.7120    0.4191    3.6323 H   0  0  0  0  0  0  0  0  0  0  0  0
   -5.5818    0.0140    2.2704 H   0  0  0  0  0  0  0  0  0  0  0  0
   -6.1195   -2.2471   -1.3312 H   0  0  0  0  0  0  0  0  0  0  0  0
   -3.8152   -1.7967   -2.0060 H   0  0  0  0  0  0  0  0  0  0  0  0
   -1.5512    0.2848    0.1339 H   0  0  0  0  0  0  0  0  0  0  0  0
    0.1159    0.1734   -3.8447 H   0  0  0  0  0  0  0  0  0  0  0  0
    2.4787    0.9138   -3.9134 H   0  0  0  0  0  0  0  0  0  0  0  0
    3.8208    0.9866   -1.8656 H   0  0  0  0  0  0  0  0  0  0  0  0
    2.4878    0.6165    1.4160 H   0  0  0  0  0  0  0  0  0  0  0  0
    5.0599   -0.8285   -0.8414 H   0  0  0  0  0  0  0  0  0  0  0  0
    8.0405    0.4349    1.7087 H   0  0  0  0  0  0  0  0  0  0  0  0
    6.3013    1.4049    3.2486 H   0  0  0  0  0  0  0  0  0  0  0  0
    0.4836   -0.5262    0.3934 H   0  0  0  0  0  0  0  0  0  0  0  0
  1  2  1  0
  2  3  1  0
  3  4  1  0
  4  5  2  0
  5  6  1  0
  5  7  1  0
  7  8  2  0
  8  9  1  0
  9 10  1  0
 10 11  1  0
 11 12  2  0
 11 13  1  0
 13 14  1  0
 14 15  2  0
 15 16  1  0
 16 17  2  0
 17 18  1  0
 18 19  1  0
 19 20  2  0
 20 21  1  0
 21 22  2  0
 22 23  1  0
 23 24  2  0
 17 25  1  0
  9  3  2  0
 25 13  2  0
 24 19  1  0
  1 26  1  0
  1 27  1  0
  1 28  1  0
  4 29  1  0
  7 30  1  0
  8 31  1  0
 10 32  1  0
 14 33  1  0
 15 34  1  0
 16 35  1  0
 18 36  1  0
 20 37  1  0
 22 38  1  0
 23 39  1  0
 25 40  1  0
M  END
$$$$
OCNT-2313250
     RDKit          3D

 44 47  0  0  0  0  0  0  0  0999 V2000
   -1.1671   -1.2805    0.6632 O   0  0  0  0  0  0  0  0  0  0  0  0
   -1.4272   -0.0841    0.6701 C   0  0  0  0  0  0  0  0  0  0  0  0
   -2.8521    0.4406    0.5420 C   0  0  0  0  0  0  0  0  0  0  0  0
   -3.8964   -0.6719    0.5162 C   0  0  0  0  0  0  0  0  0  0  0  0
   -3.9456   -1.4771   -0.7946 C   0  0  0  0  0  0  0  0  0  0  0  0
   -5.4292   -1.4068   -1.1591 C   0  0  0  0  0  0  0  0  0  0  0  0
   -5.7790   -0.0185   -1.6927 C   0  0  0  0  0  0  0  0  0  0  0  0
   -5.7551    0.8271   -0.4186 C   0  0  0  0  0  0  0  0  0  0  0  0
   -5.3526   -0.1994    0.6391 C   0  0  0  0  0  0  0  0  0  0  0  0
   -6.0499   -1.3704    0.1470 O   0  0  0  0  0  0  0  0  0  0  0  0
   -0.5143    0.9552    0.7723 N   0  0  0  0  0  0  0  0  0  0  0  0
    0.8871    0.8573    0.9051 C   0  0  0  0  0  0  0  0  0  0  0  0
    1.5833   -0.3519    0.9724 C   0  0  0  0  0  0  0  0  0  0  0  0
    2.9766   -0.3665    1.1055 C   0  0  0  0  0  0  0  0  0  0  0  0
    3.6892    0.8336    1.1558 C   0  0  0  0  0  0  0  0  0  0  0  0
    5.0548    0.8388    1.3284 O   0  0  0  0  0  0  0  0  0  0  0  0
    5.8083    0.1353    0.4157 C   0  0  0  0  0  0  0  0  0  0  0  0
    6.8891   -0.5806    0.9177 C   0  0  0  0  0  0  0  0  0  0  0  0
    7.6806   -1.2726    0.0192 C   0  0  0  0  0  0  0  0  0  0  0  0
    7.4689   -1.2812   -1.3149 N   0  0  0  0  0  0  0  0  0  0  0  0
    6.4255   -0.5550   -1.7721 C   0  0  0  0  0  0  0  0  0  0  0  0
    5.5754    0.1706   -0.9562 C   0  0  0  0  0  0  0  0  0  0  0  0
    2.9989    2.0459    1.1113 C   0  0  0  0  0  0  0  0  0  0  0  0
    3.8297    3.5568    1.1975 Cl  0  0  0  0  0  0  0  0  0  0  0  0
    1.6065    2.0575    0.9796 C   0  0  0  0  0  0  0  0  0  0  0  0
   -3.0451    1.0963    1.3999 H   0  0  0  0  0  0  0  0  0  0  0  0
   -2.9013    1.0460   -0.3703 H   0  0  0  0  0  0  0  0  0  0  0  0
   -3.6982   -1.3786    1.3343 H   0  0  0  0  0  0  0  0  0  0  0  0
   -3.6553   -2.5146   -0.5917 H   0  0  0  0  0  0  0  0  0  0  0  0
   -3.2980   -1.0906   -1.5875 H   0  0  0  0  0  0  0  0  0  0  0  0
   -5.7883   -2.2354   -1.7732 H   0  0  0  0  0  0  0  0  0  0  0  0
   -5.0796    0.3353   -2.4558 H   0  0  0  0  0  0  0  0  0  0  0  0
   -6.7885   -0.0100   -2.1186 H   0  0  0  0  0  0  0  0  0  0  0  0
   -5.0884    1.6901   -0.4823 H   0  0  0  0  0  0  0  0  0  0  0  0
   -6.7664    1.1995   -0.2171 H   0  0  0  0  0  0  0  0  0  0  0  0
   -5.6573    0.0582    1.6564 H   0  0  0  0  0  0  0  0  0  0  0  0
   -0.8941    1.8937    0.7492 H   0  0  0  0  0  0  0  0  0  0  0  0
    1.0727   -1.3099    0.9330 H   0  0  0  0  0  0  0  0  0  0  0  0
    3.4935   -1.3206    1.1755 H   0  0  0  0  0  0  0  0  0  0  0  0
    7.1055   -0.6008    1.9792 H   0  0  0  0  0  0  0  0  0  0  0  0
    8.5336   -1.8545    0.3564 H   0  0  0  0  0  0  0  0  0  0  0  0
    6.2903   -0.5686   -2.8499 H   0  0  0  0  0  0  0  0  0  0  0  0
    4.7682    0.7488   -1.3885 H   0  0  0  0  0  0  0  0  0  0  0  0
    1.0911    3.0134    0.9383 H   0  0  0  0  0  0  0  0  0  0  0  0
  1  2  2  0
  2  3  1  0
  3  4  1  0
  4  5  1  0
  5  6  1  0
  6  7  1  0
  7  8  1  0
  8  9  1  0
  9 10  1  0
  2 11  1  0
 11 12  1  0
 12 13  1  0
 13 14  2  0
 14 15  1  0
 15 16  1  0
 16 17  1  0
 17 18  2  0
 18 19  1  0
 19 20  2  0
 20 21  1  0
 21 22  2  0
 15 23  2  0
 23 24  1  0
 23 25  1  0
  9  4  1  0
 25 12  2  0
 10  6  1  0
 22 17  1  0
  3 26  1  0
  3 27  1  0
  4 28  1  0
  5 29  1  0
  5 30  1  0
  6 31  1  0
  7 32  1  0
  7 33  1  0
  8 34  1  0
  8 35  1  0
  9 36  1  0
 11 37  1  0
 13 38  1  0
 14 39  1  0
 18 40  1  0
 19 41  1  0
 21 42  1  0
 22 43  1  0
 25 44  1  0
M  END
$$$$
OCNT-2313258
     RDKit          3D

 42 46  0  0  0  0  0  0  0  0999 V2000
   -3.7637   -2.0954    3.5052 C   0  0  0  0  0  0  0  0  0  0  0  0
   -3.3498   -1.3679    2.3296 N   0  0  0  0  0  0  0  0  0  0  0  0
   -2.0801   -1.2073    1.8722 C   0  0  0  0  0  0  0  0  0  0  0  0
   -2.1918   -0.4464    0.7305 C   0  0  0  0  0  0  0  0  0  0  0  0
   -0.9920   -0.0384   -0.1646 C   0  0  0  0  0  0  0  0  0  0  0  0
    0.2567   -0.3623    0.1061 N   0  0  0  0  0  0  0  0  0  0  0  0
    0.9538    0.2185   -0.9267 C   0  0  0  0  0  0  0  0  0  0  0  0
    2.4401    0.1344   -1.0532 C   0  0  0  0  0  0  0  0  0  0  0  0
    2.9003   -1.3219   -1.1004 C   0  0  0  0  0  0  0  0  0  0  0  0
    4.3066   -1.4057   -1.3734 O   0  0  0  0  0  0  0  0  0  0  0  0
    5.0165   -0.5283   -0.5949 C   0  0  0  0  0  0  0  0  0  0  0  0
    6.3934   -0.7299   -0.5210 C   0  0  0  0  0  0  0  0  0  0  0  0
    7.1775    0.1103    0.2711 C   0  0  0  0  0  0  0  0  0  0  0  0
    6.5839    1.1519    0.9859 C   0  0  0  0  0  0  0  0  0  0  0  0
    5.2068    1.3631    0.8999 C   0  0  0  0  0  0  0  0  0  0  0  0
    4.4258    0.5329    0.0980 C   0  0  0  0  0  0  0  0  0  0  0  0
    3.0854    0.8149    0.0436 O   0  0  0  0  0  0  0  0  0  0  0  0
    0.1895    0.8532   -1.8251 N   0  0  0  0  0  0  0  0  0  0  0  0
   -1.0998    0.6842   -1.3231 O   0  0  0  0  0  0  0  0  0  0  0  0
   -3.5771   -0.1714    0.5829 C   0  0  0  0  0  0  0  0  0  0  0  0
   -4.2692    0.6137   -0.4332 C   0  0  0  0  0  0  0  0  0  0  0  0
   -3.8611    1.9104   -0.7464 C   0  0  0  0  0  0  0  0  0  0  0  0
   -4.5638    2.6026   -1.7188 C   0  0  0  0  0  0  0  0  0  0  0  0
   -5.6295    2.1002   -2.3776 N   0  0  0  0  0  0  0  0  0  0  0  0
   -6.0187    0.8522   -2.0412 C   0  0  0  0  0  0  0  0  0  0  0  0
   -5.3812    0.0791   -1.0869 C   0  0  0  0  0  0  0  0  0  0  0  0
   -4.2782   -0.7725    1.5617 N   0  0  0  0  0  0  0  0  0  0  0  0
   -2.8837   -2.5024    4.0091 H   0  0  0  0  0  0  0  0  0  0  0  0
   -4.4239   -2.9080    3.1921 H   0  0  0  0  0  0  0  0  0  0  0  0
   -4.2888   -1.4053    4.1701 H   0  0  0  0  0  0  0  0  0  0  0  0
   -1.2219   -1.6394    2.3685 H   0  0  0  0  0  0  0  0  0  0  0  0
    2.7500    0.6484   -1.9748 H   0  0  0  0  0  0  0  0  0  0  0  0
    2.3832   -1.8684   -1.8971 H   0  0  0  0  0  0  0  0  0  0  0  0
    2.7014   -1.8468   -0.1564 H   0  0  0  0  0  0  0  0  0  0  0  0
    6.8536   -1.5461   -1.0707 H   0  0  0  0  0  0  0  0  0  0  0  0
    8.2507   -0.0505    0.3345 H   0  0  0  0  0  0  0  0  0  0  0  0
    7.1945    1.8024    1.6067 H   0  0  0  0  0  0  0  0  0  0  0  0
    4.7458    2.1797    1.4490 H   0  0  0  0  0  0  0  0  0  0  0  0
   -3.0269    2.3870   -0.2441 H   0  0  0  0  0  0  0  0  0  0  0  0
   -4.2815    3.6136   -1.9992 H   0  0  0  0  0  0  0  0  0  0  0  0
   -6.8870    0.4774   -2.5754 H   0  0  0  0  0  0  0  0  0  0  0  0
   -5.7462   -0.9159   -0.8541 H   0  0  0  0  0  0  0  0  0  0  0  0
  1  2  1  0
  2  3  1  0
  3  4  2  0
  4  5  1  0
  5  6  2  0
  6  7  1  0
  7  8  1  0
  8  9  1  0
  9 10  1  0
 10 11  1  0
 11 12  2  0
 12 13  1  0
 13 14  2  0
 14 15  1  0
 15 16  2  0
 16 17  1  0
  7 18  2  0
 18 19  1  0
  4 20  1  0
 20 21  1  0
 21 22  2  0
 22 23  1  0
 23 24  2  0
 24 25  1  0
 25 26  2  0
 20 27  2  0
 27  2  1  0
 19  5  1  0
 26 21  1  0
 17  8  1  0
 16 11  1  0
  1 28  1  0
  1 29  1  0
  1 30  1  0
  3 31  1  0
  8 32  1  0
  9 33  1  0
  9 34  1  0
 12 35  1  0
 13 36  1  0
 14 37  1  0
 15 38  1  0
 22 39  1  0
 23 40  1  0
 25 41  1  0
 26 42  1  0
M  END
$$$$
OCNT-2313300
     RDKit          3D

 37 39  0  0  0  0  0  0  0  0999 V2000
    3.3022   -1.1368   -1.7240 C   0  0  0  0  0  0  0  0  0  0  0  0
    3.3898    0.3770   -1.6041 C   0  0  0  0  0  0  0  0  0  0  0  0
    3.7889    0.8061   -0.2252 C   0  0  0  0  0  0  0  0  0  0  0  0
    3.1498    0.7254    1.0136 C   0  0  0  0  0  0  0  0  0  0  0  0
    1.8090    0.2150    1.3259 C   0  0  0  0  0  0  0  0  0  0  0  0
    1.6069   -0.4228    2.3522 O   0  0  0  0  0  0  0  0  0  0  0  0
    0.8542    0.5861    0.4002 N   0  0  0  0  0  0  0  0  0  0  0  0
   -0.5064    0.2277    0.3705 C   0  0  0  0  0  0  0  0  0  0  0  0
   -1.3015    0.8115   -0.6204 C   0  0  0  0  0  0  0  0  0  0  0  0
   -2.6645    0.5038   -0.7252 C   0  0  0  0  0  0  0  0  0  0  0  0
   -3.2575   -0.4017    0.1637 C   0  0  0  0  0  0  0  0  0  0  0  0
   -4.6438   -0.7184    0.0621 N   0  0  0  0  0  0  0  0  0  0  0  0
   -5.5522   -0.2257   -0.8525 C   0  0  0  0  0  0  0  0  0  0  0  0
   -6.7568   -0.8192   -0.5583 C   0  0  0  0  0  0  0  0  0  0  0  0
   -6.6332   -1.6629    0.5051 N   0  0  0  0  0  0  0  0  0  0  0  0
   -5.3679   -1.5843    0.8561 C   0  0  0  0  0  0  0  0  0  0  0  0
   -2.4592   -0.9901    1.1531 C   0  0  0  0  0  0  0  0  0  0  0  0
   -1.0955   -0.6769    1.2516 C   0  0  0  0  0  0  0  0  0  0  0  0
    4.0914    1.1864    1.9832 C   0  0  0  0  0  0  0  0  0  0  0  0
    5.2312    1.5754    1.3232 C   0  0  0  0  0  0  0  0  0  0  0  0
    5.0399    1.3453   -0.0098 N   0  0  0  0  0  0  0  0  0  0  0  0
    4.2589   -1.6088   -1.4754 H   0  0  0  0  0  0  0  0  0  0  0  0
    3.0399   -1.4201   -2.7483 H   0  0  0  0  0  0  0  0  0  0  0  0
    2.5403   -1.5503   -1.0553 H   0  0  0  0  0  0  0  0  0  0  0  0
    2.4338    0.8290   -1.8850 H   0  0  0  0  0  0  0  0  0  0  0  0
    4.1213    0.7438   -2.3352 H   0  0  0  0  0  0  0  0  0  0  0  0
    1.1610    1.2548   -0.2911 H   0  0  0  0  0  0  0  0  0  0  0  0
   -0.8754    1.5193   -1.3275 H   0  0  0  0  0  0  0  0  0  0  0  0
   -3.2268    0.9935   -1.5142 H   0  0  0  0  0  0  0  0  0  0  0  0
   -5.2952    0.4854   -1.6213 H   0  0  0  0  0  0  0  0  0  0  0  0
   -7.7056   -0.6794   -1.0604 H   0  0  0  0  0  0  0  0  0  0  0  0
   -4.9365   -2.1371    1.6781 H   0  0  0  0  0  0  0  0  0  0  0  0
   -2.8513   -1.7017    1.8739 H   0  0  0  0  0  0  0  0  0  0  0  0
   -0.5209   -1.1667    2.0327 H   0  0  0  0  0  0  0  0  0  0  0  0
    3.9328    1.2271    3.0543 H   0  0  0  0  0  0  0  0  0  0  0  0
    6.1648    1.9800    1.6908 H   0  0  0  0  0  0  0  0  0  0  0  0
    5.7343    1.5103   -0.7277 H   0  0  0  0  0  0  0  0  0  0  0  0
  1  2  1  0
  2  3  1  0
  3  4  2  0
  4  5  1  0
  5  6  2  0
  5  7  1  0
  7  8  1  0
  8  9  1  0
  9 10  2  0
 10 11  1  0
 11 12  1  0
 12 13  1  0
 13 14  2  0
 14 15  1  0
 15 16  2  0
 11 17  2  0
 17 18  1  0
  4 19  1  0
 19 20  2  0
 20 21  1  0
 21  3  1  0
 18  8  2  0
 16 12  1  0
  1 22  1  0
  1 23  1  0
  1 24  1  0
  2 25  1  0
  2 26  1  0
  7 27  1  0
  9 28  1  0
 10 29  1  0
 13 30  1  0
 14 31  1  0
 16 32  1  0
 17 33  1  0
 18 34  1  0
 19 35  1  0
 20 36  1  0
 21 37  1  0
M  END
$$$$
OCNT-2313361
     RDKit          3D

 42 45  0  0  0  0  0  0  0  0999 V2000
    0.9978   -1.8210    1.1401 C   0  0  0  0  0  0  0  0  0  0  0  0
    1.3487   -0.7174    0.2677 N   0  0  0  0  0  0  0  0  0  0  0  0
    0.6367    0.4620    0.1401 C   0  0  0  0  0  0  0  0  0  0  0  0
   -0.6461    0.7834    0.7262 C   0  0  0  0  0  0  0  0  0  0  0  0
   -0.9109    1.8803    1.2127 O   0  0  0  0  0  0  0  0  0  0  0  0
   -1.5866   -0.2202    0.6270 N   0  0  0  0  0  0  0  0  0  0  0  0
   -2.9808   -0.0720    1.1152 C   0  0  0  0  0  0  0  0  0  0  0  0
   -3.7721    0.9770    0.2802 C   0  0  0  0  0  0  0  0  0  0  0  0
   -4.7845    0.7204   -0.5179 N   0  0  0  0  0  0  0  0  0  0  0  0
   -5.1892    1.9141   -1.0740 N   0  0  0  0  0  0  0  0  0  0  0  0
   -4.4038    2.8589   -0.6100 C   0  0  0  0  0  0  0  0  0  0  0  0
   -3.5002    2.3171    0.2479 N   0  0  0  0  0  0  0  0  0  0  0  0
   -3.7059   -1.4408    1.2852 C   0  0  0  0  0  0  0  0  0  0  0  0
   -3.2239   -1.4508    2.7486 C   0  0  0  0  0  0  0  0  0  0  0  0
   -3.1169    0.0838    2.6567 C   0  0  0  0  0  0  0  0  0  0  0  0
    1.4217    1.3106   -0.6228 C   0  0  0  0  0  0  0  0  0  0  0  0
    2.5716    0.6031   -1.0535 C   0  0  0  0  0  0  0  0  0  0  0  0
    3.6707    0.9393   -1.8682 C   0  0  0  0  0  0  0  0  0  0  0  0
    4.6719   -0.0143   -2.1270 C   0  0  0  0  0  0  0  0  0  0  0  0
    5.8608    0.3470   -2.9828 C   0  0  0  0  0  0  0  0  0  0  0  0
    6.3574   -0.7130   -3.6810 F   0  0  0  0  0  0  0  0  0  0  0  0
    6.9005    0.8291   -2.2476 F   0  0  0  0  0  0  0  0  0  0  0  0
    5.5838    1.3043   -3.9121 F   0  0  0  0  0  0  0  0  0  0  0  0
    4.5718   -1.2878   -1.5531 C   0  0  0  0  0  0  0  0  0  0  0  0
    3.4913   -1.6394   -0.7363 C   0  0  0  0  0  0  0  0  0  0  0  0
    2.4996   -0.6743   -0.4995 C   0  0  0  0  0  0  0  0  0  0  0  0
    0.4485   -1.4423    2.0053 H   0  0  0  0  0  0  0  0  0  0  0  0
    0.3884   -2.5252    0.5688 H   0  0  0  0  0  0  0  0  0  0  0  0
    1.9081   -2.3075    1.4985 H   0  0  0  0  0  0  0  0  0  0  0  0
   -1.3889   -0.9538   -0.0428 H   0  0  0  0  0  0  0  0  0  0  0  0
   -4.4429    3.9091   -0.8590 H   0  0  0  0  0  0  0  0  0  0  0  0
   -2.7330    2.7740    0.7277 H   0  0  0  0  0  0  0  0  0  0  0  0
   -3.3395   -2.2683    0.6702 H   0  0  0  0  0  0  0  0  0  0  0  0
   -4.7986   -1.4030    1.1956 H   0  0  0  0  0  0  0  0  0  0  0  0
   -3.9380   -1.8340    3.4817 H   0  0  0  0  0  0  0  0  0  0  0  0
   -2.2607   -1.9534    2.8936 H   0  0  0  0  0  0  0  0  0  0  0  0
   -2.2665    0.5169    3.1911 H   0  0  0  0  0  0  0  0  0  0  0  0
   -4.0272    0.6017    2.9840 H   0  0  0  0  0  0  0  0  0  0  0  0
    1.1652    2.3327   -0.8740 H   0  0  0  0  0  0  0  0  0  0  0  0
    3.7366    1.9365   -2.2989 H   0  0  0  0  0  0  0  0  0  0  0  0
    5.3491   -2.0287   -1.7411 H   0  0  0  0  0  0  0  0  0  0  0  0
    3.4360   -2.6339   -0.3043 H   0  0  0  0  0  0  0  0  0  0  0  0
  1  2  1  0
  2  3  1  0
  3  4  1  0
  4  5  2  0
  4  6  1  0
  6  7  1  0
  7  8  1  0
  8  9  2  0
  9 10  1  0
 10 11  2  0
 11 12  1  0
  7 13  1  0
 13 14  1  0
 14 15  1  0
  3 16  2  0
 16 17  1  0
 17 18  2  0
 18 19  1  0
 19 20  1  0
 20 21  1  0
 20 22  1  0
 20 23  1  0
 19 24  2  0
 24 25  1  0
 25 26  2  0
 26  2  1  0
 15  7  1  0
 26 17  1  0
 12  8  1  0
  1 27  1  0
  1 28  1  0
  1 29  1  0
  6 30  1  0
 11 31  1  0
 12 32  1  0
 13 33  1  0
 13 34  1  0
 14 35  1  0
 14 36  1  0
 15 37  1  0
 15 38  1  0
 16 39  1  0
 18 40  1  0
 24 41  1  0
 25 42  1  0
M  END
$$$$
OCNT-2313362
     RDKit          3D

  0  0  0  0  0  0  0  0  0  0999 V3000
M  V30 BEGIN CTAB
M  V30 COUNTS 39 42 0 0 0
M  V30 BEGIN ATOM
M  V30 1 O 1.012213 -2.964235 0.557499 0
M  V30 2 S 0.169380 -1.790363 0.592095 0
M  V30 3 O -1.048867 -1.738102 1.365552 0
M  V30 4 N -0.186067 -1.432399 -1.016930 0
M  V30 5 C -1.430428 -0.696458 -1.360762 0 CFG=2
M  V30 6 C -2.654947 -1.630482 -1.269195 0
M  V30 7 C -3.509196 -1.317276 -2.486795 0
M  V30 8 C -2.477626 -1.033348 -3.561422 0
M  V30 9 C -1.361000 -0.261386 -2.850557 0 CFG=1
M  V30 10 C -1.579847 1.254194 -2.830325 0
M  V30 11 N -2.261788 1.524923 -1.567240 0
M  V30 12 C -1.602612 0.635318 -0.607938 0
M  V30 13 C 1.203421 -0.521902 1.241921 0
M  V30 14 C 1.602858 -0.231441 2.529766 0
M  V30 15 Cl 1.199862 -1.040221 3.964087 0
M  V30 16 C 2.430804 0.898499 2.406761 0
M  V30 17 C 3.126496 1.631354 3.586325 0
M  V30 18 C 4.277505 0.960928 4.293244 0
M  V30 19 C 4.531935 2.150175 3.414988 0
M  V30 20 N 2.539227 1.303310 1.140683 0
M  V30 21 O 1.787238 0.400901 0.409247 0
M  V30 22 H -0.018353 -2.260507 -1.591957 0
M  V30 23 H -3.222691 -1.500638 -0.342209 0
M  V30 24 H -2.346952 -2.683307 -1.312220 0
M  V30 25 H -4.166110 -2.150213 -2.754144 0
M  V30 26 H -4.137188 -0.438109 -2.306094 0
M  V30 27 H -2.902249 -0.493835 -4.413234 0
M  V30 28 H -2.076528 -1.982873 -3.937728 0
M  V30 29 H -0.398399 -0.480711 -3.327985 0
M  V30 30 H -2.160441 1.615803 -3.683976 0
M  V30 31 H -0.610889 1.768788 -2.840385 0
M  V30 32 H -2.141152 2.499976 -1.294664 0
M  V30 33 H -2.201265 0.535464 0.302246 0
M  V30 34 H -0.637193 1.070626 -0.330835 0
M  V30 35 H 2.454402 2.232905 4.190130 0
M  V30 36 H 4.357615 1.093587 5.366155 0
M  V30 37 H 4.618789 -0.006432 3.941787 0
M  V30 38 H 4.783400 3.091792 3.889322 0
M  V30 39 H 5.036642 1.985691 2.469202 0
M  V30 END ATOM
M  V30 BEGIN BOND
M  V30 1 2 1 2
M  V30 2 2 2 3
M  V30 3 1 2 4
M  V30 4 1 5 4 CFG=1
M  V30 5 1 5 6
M  V30 6 1 6 7
M  V30 7 1 7 8
M  V30 8 1 8 9
M  V30 9 1 9 10
M  V30 10 1 10 11
M  V30 11 1 11 12
M  V30 12 1 2 13
M  V30 13 2 13 14
M  V30 14 1 14 15
M  V30 15 1 14 16
M  V30 16 1 16 17
M  V30 17 1 17 18
M  V30 18 1 18 19
M  V30 19 2 16 20
M  V30 20 1 20 21
M  V30 21 1 9 5
M  V30 22 1 21 13
M  V30 23 1 12 5
M  V30 24 1 19 17
M  V30 25 1 4 22
M  V30 26 1 6 23
M  V30 27 1 6 24
M  V30 28 1 7 25
M  V30 29 1 7 26
M  V30 30 1 8 27
M  V30 31 1 8 28
M  V30 32 1 9 29 CFG=3
M  V30 33 1 10 30
M  V30 34 1 10 31
M  V30 35 1 11 32
M  V30 36 1 12 33
M  V30 37 1 12 34
M  V30 38 1 17 35
M  V30 39 1 18 36
M  V30 40 1 18 37
M  V30 41 1 19 38
M  V30 42 1 19 39
M  V30 END BOND
M  V30 BEGIN COLLECTION
M  V30 MDLV30/STERAC1 ATOMS=(2 5 9)
M  V30 END COLLECTION
M  V30 END CTAB
M  END
>  <_CXSMILES_Data>  (711) 
|&1:4,8|

$$$$
OCNT-2313365
     RDKit          3D

 37 39  0  0  0  0  0  0  0  0999 V2000
   -3.9278   -0.0662   -2.6509 C   0  0  0  0  0  0  0  0  0  0  0  0
   -3.0197    0.0922   -1.4615 C   0  0  0  0  0  0  0  0  0  0  0  0
   -3.5043    0.4848   -0.1884 C   0  0  0  0  0  0  0  0  0  0  0  0
   -4.8656    0.7597    0.0767 C   0  0  0  0  0  0  0  0  0  0  0  0
   -5.2911    1.1428    1.3479 C   0  0  0  0  0  0  0  0  0  0  0  0
   -4.3653    1.2577    2.3743 C   0  0  0  0  0  0  0  0  0  0  0  0
   -3.0184    0.9886    2.1237 C   0  0  0  0  0  0  0  0  0  0  0  0
   -2.5674    0.6055    0.8678 C   0  0  0  0  0  0  0  0  0  0  0  0
   -1.2560    0.3663    0.7151 N   0  0  0  0  0  0  0  0  0  0  0  0
   -0.8242   -0.0088   -0.5202 C   0  0  0  0  0  0  0  0  0  0  0  0
    0.6510   -0.2663   -0.6459 C   0  0  0  0  0  0  0  0  0  0  0  0
    1.1133   -0.6073   -1.7262 O   0  0  0  0  0  0  0  0  0  0  0  0
    1.3163   -0.0704    0.5447 N   0  0  0  0  0  0  0  0  0  0  0  0
    2.6614   -0.2043    0.8331 C   0  0  0  0  0  0  0  0  0  0  0  0
    3.7463   -0.5654    0.0541 C   0  0  0  0  0  0  0  0  0  0  0  0
    3.8741   -0.9434   -1.3779 C   0  0  0  0  0  0  0  0  0  0  0  0
    4.8341   -0.5205    0.8993 N   0  0  0  0  0  0  0  0  0  0  0  0
    6.2130   -0.8120    0.5782 C   0  0  0  0  0  0  0  0  0  0  0  0
    4.5304   -0.1589    2.1585 N   0  0  0  0  0  0  0  0  0  0  0  0
    3.2139    0.0318    2.1149 C   0  0  0  0  0  0  0  0  0  0  0  0
   -1.6538   -0.1566   -1.6192 C   0  0  0  0  0  0  0  0  0  0  0  0
   -4.6829   -0.8339   -2.4537 H   0  0  0  0  0  0  0  0  0  0  0  0
   -4.4198    0.8837   -2.8833 H   0  0  0  0  0  0  0  0  0  0  0  0
   -3.3724   -0.3745   -3.5433 H   0  0  0  0  0  0  0  0  0  0  0  0
   -5.6131    0.6777   -0.7089 H   0  0  0  0  0  0  0  0  0  0  0  0
   -6.3422    1.3501    1.5328 H   0  0  0  0  0  0  0  0  0  0  0  0
   -4.6840    1.5555    3.3699 H   0  0  0  0  0  0  0  0  0  0  0  0
   -2.3015    1.0821    2.9364 H   0  0  0  0  0  0  0  0  0  0  0  0
    0.7128    0.2145    1.3140 H   0  0  0  0  0  0  0  0  0  0  0  0
    3.5442   -0.1219   -2.0211 H   0  0  0  0  0  0  0  0  0  0  0  0
    4.9037   -1.1734   -1.6662 H   0  0  0  0  0  0  0  0  0  0  0  0
    3.2810   -1.8377   -1.5916 H   0  0  0  0  0  0  0  0  0  0  0  0
    6.2762   -1.8468    0.2331 H   0  0  0  0  0  0  0  0  0  0  0  0
    6.8322   -0.6837    1.4702 H   0  0  0  0  0  0  0  0  0  0  0  0
    6.5410   -0.1180   -0.1995 H   0  0  0  0  0  0  0  0  0  0  0  0
    2.7044    0.3362    3.0193 H   0  0  0  0  0  0  0  0  0  0  0  0
   -1.2399   -0.4595   -2.5767 H   0  0  0  0  0  0  0  0  0  0  0  0
  1  2  1  0
  2  3  1  0
  3  4  2  0
  4  5  1  0
  5  6  2  0
  6  7  1  0
  7  8  2  0
  8  9  1  0
  9 10  2  0
 10 11  1  0
 11 12  2  0
 11 13  1  0
 13 14  1  0
 14 15  2  0
 15 16  1  0
 15 17  1  0
 17 18  1  0
 17 19  1  0
 19 20  2  0
 10 21  1  0
 21  2  2  0
  8  3  1  0
 20 14  1  0
  1 22  1  0
  1 23  1  0
  1 24  1  0
  4 25  1  0
  5 26  1  0
  6 27  1  0
  7 28  1  0
 13 29  1  0
 16 30  1  0
 16 31  1  0
 16 32  1  0
 18 33  1  0
 18 34  1  0
 18 35  1  0
 20 36  1  0
 21 37  1  0
M  END
$$$$
OCNT-2313366
     RDKit          3D

 35 38  0  0  0  0  0  0  0  0999 V2000
   -2.0577    1.3855    2.8237 C   0  0  0  0  0  0  0  0  0  0  0  0
   -1.8874    0.6434    1.5331 C   0  0  0  0  0  0  0  0  0  0  0  0
   -0.6206    0.4794    1.0926 N   0  0  0  0  0  0  0  0  0  0  0  0
   -0.3752   -0.1576   -0.0873 C   0  0  0  0  0  0  0  0  0  0  0  0
    0.9417   -0.3163   -0.5498 N   0  0  0  0  0  0  0  0  0  0  0  0
    1.2334    0.3420   -1.8430 C   0  0  0  0  0  0  0  0  0  0  0  0
    2.7628    0.3625   -2.0229 C   0  0  0  0  0  0  0  0  0  0  0  0
    3.2113    0.2783   -0.6055 C   0  0  0  0  0  0  0  0  0  0  0  0
    4.4793    0.4934   -0.0875 C   0  0  0  0  0  0  0  0  0  0  0  0
    4.6630    0.3120    1.2827 C   0  0  0  0  0  0  0  0  0  0  0  0
    3.5901   -0.0877    2.0869 C   0  0  0  0  0  0  0  0  0  0  0  0
    3.7932   -0.2660    3.3998 F   0  0  0  0  0  0  0  0  0  0  0  0
    2.3222   -0.3126    1.5565 C   0  0  0  0  0  0  0  0  0  0  0  0
    2.1345   -0.1170    0.1984 C   0  0  0  0  0  0  0  0  0  0  0  0
   -1.4940   -0.6381   -0.7858 C   0  0  0  0  0  0  0  0  0  0  0  0
   -1.7653   -1.3715   -1.9606 C   0  0  0  0  0  0  0  0  0  0  0  0
   -3.0729   -1.5552   -2.1749 N   0  0  0  0  0  0  0  0  0  0  0  0
   -3.6455   -0.9573   -1.1042 N   0  0  0  0  0  0  0  0  0  0  0  0
   -5.0803   -0.9685   -0.9695 C   0  0  0  0  0  0  0  0  0  0  0  0
   -2.7422   -0.3999   -0.2399 C   0  0  0  0  0  0  0  0  0  0  0  0
   -3.0089    0.2444    0.9070 N   0  0  0  0  0  0  0  0  0  0  0  0
   -2.9665    1.0600    3.3391 H   0  0  0  0  0  0  0  0  0  0  0  0
   -1.2057    1.2056    3.4865 H   0  0  0  0  0  0  0  0  0  0  0  0
   -2.1298    2.4585    2.6241 H   0  0  0  0  0  0  0  0  0  0  0  0
    0.8585    1.3761   -1.8327 H   0  0  0  0  0  0  0  0  0  0  0  0
    0.7650   -0.1752   -2.6869 H   0  0  0  0  0  0  0  0  0  0  0  0
    3.0954    1.2758   -2.5236 H   0  0  0  0  0  0  0  0  0  0  0  0
    3.1052   -0.5167   -2.5786 H   0  0  0  0  0  0  0  0  0  0  0  0
    5.3066    0.7898   -0.7238 H   0  0  0  0  0  0  0  0  0  0  0  0
    5.6364    0.4703    1.7367 H   0  0  0  0  0  0  0  0  0  0  0  0
    1.5144   -0.6337    2.2024 H   0  0  0  0  0  0  0  0  0  0  0  0
   -1.0609   -1.7830   -2.6713 H   0  0  0  0  0  0  0  0  0  0  0  0
   -5.5127   -0.4957   -1.8550 H   0  0  0  0  0  0  0  0  0  0  0  0
   -5.4095   -2.0077   -0.8920 H   0  0  0  0  0  0  0  0  0  0  0  0
   -5.3777   -0.4173   -0.0747 H   0  0  0  0  0  0  0  0  0  0  0  0
  1  2  1  0
  2  3  2  0
  3  4  1  0
  4  5  1  0
  5  6  1  0
  6  7  1  0
  7  8  1  0
  8  9  1  0
  9 10  2  0
 10 11  1  0
 11 12  1  0
 11 13  2  0
 13 14  1  0
  4 15  2  0
 15 16  1  0
 16 17  2  0
 17 18  1  0
 18 19  1  0
 18 20  1  0
 20 21  2  0
 21  2  1  0
 14  5  1  0
 20 15  1  0
 14  8  2  0
  1 22  1  0
  1 23  1  0
  1 24  1  0
  6 25  1  0
  6 26  1  0
  7 27  1  0
  7 28  1  0
  9 29  1  0
 10 30  1  0
 13 31  1  0
 16 32  1  0
 19 33  1  0
 19 34  1  0
 19 35  1  0
M  END
$$$$
OCNT-2313367
     RDKit          3D

 45 48  0  0  0  0  0  0  0  0999 V2000
    6.4703    0.8100    0.4285 C   0  0  0  0  0  0  0  0  0  0  0  0
    5.6378   -0.4007    0.1270 C   0  0  0  0  0  0  0  0  0  0  0  0
    4.2375   -0.3195    0.1448 C   0  0  0  0  0  0  0  0  0  0  0  0
    3.4331   -1.4295   -0.1627 C   0  0  0  0  0  0  0  0  0  0  0  0
    1.9726   -1.2848   -0.1175 C   0  0  0  0  0  0  0  0  0  0  0  0
    1.3117   -0.1595    0.0789 N   0  0  0  0  0  0  0  0  0  0  0  0
   -0.0383   -0.4595    0.0485 C   0  0  0  0  0  0  0  0  0  0  0  0
   -1.0623    0.5742    0.2389 C   0  0  0  0  0  0  0  0  0  0  0  0
   -0.8979    1.5592    0.9584 O   0  0  0  0  0  0  0  0  0  0  0  0
   -2.2397    0.3677   -0.4555 N   0  0  0  0  0  0  0  0  0  0  0  0
   -3.3806    1.3034   -0.3960 C   0  0  0  0  0  0  0  0  0  0  0  0
   -4.0336    1.3136    1.0255 C   0  0  0  0  0  0  0  0  0  0  0  0
   -5.2368    0.8783    1.3272 N   0  0  0  0  0  0  0  0  0  0  0  0
   -5.4154    1.0540    2.6822 N   0  0  0  0  0  0  0  0  0  0  0  0
   -4.3128    1.5780    3.1668 C   0  0  0  0  0  0  0  0  0  0  0  0
   -3.4169    1.7608    2.1621 N   0  0  0  0  0  0  0  0  0  0  0  0
   -3.0928    2.7132   -0.9860 C   0  0  0  0  0  0  0  0  0  0  0  0
   -4.4686    2.6511   -1.6766 C   0  0  0  0  0  0  0  0  0  0  0  0
   -4.3840    1.1164   -1.5717 C   0  0  0  0  0  0  0  0  0  0  0  0
   -0.2014   -1.8239   -0.1459 C   0  0  0  0  0  0  0  0  0  0  0  0
   -1.3868   -2.7119   -0.1906 C   0  0  0  0  0  0  0  0  0  0  0  0
    1.0769   -2.3175   -0.2596 N   0  0  0  0  0  0  0  0  0  0  0  0
    4.0657   -2.6323   -0.5079 C   0  0  0  0  0  0  0  0  0  0  0  0
    5.4606   -2.7193   -0.5432 C   0  0  0  0  0  0  0  0  0  0  0  0
    6.2424   -1.6081   -0.2315 C   0  0  0  0  0  0  0  0  0  0  0  0
    5.9626    1.4656    1.1439 H   0  0  0  0  0  0  0  0  0  0  0  0
    7.4285    0.5236    0.8749 H   0  0  0  0  0  0  0  0  0  0  0  0
    6.6617    1.3706   -0.4917 H   0  0  0  0  0  0  0  0  0  0  0  0
    3.7595    0.6253    0.4053 H   0  0  0  0  0  0  0  0  0  0  0  0
   -2.2721   -0.4183   -1.0889 H   0  0  0  0  0  0  0  0  0  0  0  0
   -4.1178    1.8280    4.1993 H   0  0  0  0  0  0  0  0  0  0  0  0
   -2.4621    2.0979    2.2195 H   0  0  0  0  0  0  0  0  0  0  0  0
   -2.9697    3.5329   -0.2720 H   0  0  0  0  0  0  0  0  0  0  0  0
   -2.2547    2.7457   -1.6933 H   0  0  0  0  0  0  0  0  0  0  0  0
   -4.5088    3.0561   -2.6908 H   0  0  0  0  0  0  0  0  0  0  0  0
   -5.2803    3.0911   -1.0861 H   0  0  0  0  0  0  0  0  0  0  0  0
   -5.3285    0.6117   -1.3491 H   0  0  0  0  0  0  0  0  0  0  0  0
   -3.9524    0.6473   -2.4652 H   0  0  0  0  0  0  0  0  0  0  0  0
   -1.8230   -2.7157   -1.1943 H   0  0  0  0  0  0  0  0  0  0  0  0
   -2.1504   -2.3809    0.5202 H   0  0  0  0  0  0  0  0  0  0  0  0
   -1.1211   -3.7426    0.0673 H   0  0  0  0  0  0  0  0  0  0  0  0
    1.3242   -3.2876   -0.3869 H   0  0  0  0  0  0  0  0  0  0  0  0
    3.4973   -3.5197   -0.7663 H   0  0  0  0  0  0  0  0  0  0  0  0
    5.9401   -3.6553   -0.8192 H   0  0  0  0  0  0  0  0  0  0  0  0
    7.3264   -1.6893   -0.2709 H   0  0  0  0  0  0  0  0  0  0  0  0
  1  2  1  0
  2  3  1  0
  3  4  2  0
  4  5  1  0
  5  6  2  0
  6  7  1  0
  7  8  1  0
  8  9  2  0
  8 10  1  0
 10 11  1  0
 11 12  1  0
 12 13  2  0
 13 14  1  0
 14 15  2  0
 15 16  1  0
 11 17  1  0
 17 18  1  0
 18 19  1  0
  7 20  2  0
 20 21  1  0
 20 22  1  0
  4 23  1  0
 23 24  2  0
 24 25  1  0
 25  2  2  0
 22  5  1  0
 19 11  1  0
 16 12  1  0
  1 26  1  0
  1 27  1  0
  1 28  1  0
  3 29  1  0
 10 30  1  0
 15 31  1  0
 16 32  1  0
 17 33  1  0
 17 34  1  0
 18 35  1  0
 18 36  1  0
 19 37  1  0
 19 38  1  0
 21 39  1  0
 21 40  1  0
 21 41  1  0
 22 42  1  0
 23 43  1  0
 24 44  1  0
 25 45  1  0
M  END
$$$$
OCNT-2313368
     RDKit          3D

 31 34  0  0  0  0  0  0  0  0999 V2000
    0.0636   -1.8848   -1.8724 O   0  0  0  0  0  0  0  0  0  0  0  0
    0.4213   -0.8865   -1.2593 C   0  0  0  0  0  0  0  0  0  0  0  0
   -0.3714   -0.1140   -0.4310 N   0  0  0  0  0  0  0  0  0  0  0  0
   -1.7044   -0.3535   -0.0351 C   0  0  0  0  0  0  0  0  0  0  0  0
   -2.4195   -1.5110   -0.3698 C   0  0  0  0  0  0  0  0  0  0  0  0
   -3.7438   -1.7151    0.0504 C   0  0  0  0  0  0  0  0  0  0  0  0
   -4.3111   -0.7056    0.8236 C   0  0  0  0  0  0  0  0  0  0  0  0
   -5.5365   -0.5398    1.4043 N   0  0  0  0  0  0  0  0  0  0  0  0
   -5.6209    0.6231    2.0717 N   0  0  0  0  0  0  0  0  0  0  0  0
   -4.4544    1.2433    1.9395 N   0  0  0  0  0  0  0  0  0  0  0  0
   -3.6359    0.4513    1.1797 C   0  0  0  0  0  0  0  0  0  0  0  0
   -2.3141    0.6398    0.7509 C   0  0  0  0  0  0  0  0  0  0  0  0
    1.7797   -0.3560   -1.4196 C   0  0  0  0  0  0  0  0  0  0  0  0
    2.4124   -0.3976   -2.6480 C   0  0  0  0  0  0  0  0  0  0  0  0
    3.9465    0.3331   -2.6321 S   0  0  0  0  0  0  0  0  0  0  0  0
    3.8496    0.6668   -0.9479 C   0  0  0  0  0  0  0  0  0  0  0  0
    4.8371    1.2935   -0.1610 C   0  0  0  0  0  0  0  0  0  0  0  0
    4.6138    1.4596    1.2059 C   0  0  0  0  0  0  0  0  0  0  0  0
    3.4399    1.0043    1.7844 C   0  0  0  0  0  0  0  0  0  0  0  0
    2.4602    0.3874    0.9998 C   0  0  0  0  0  0  0  0  0  0  0  0
    2.6392    0.2240   -0.4014 C   0  0  0  0  0  0  0  0  0  0  0  0
    0.0325    0.7623   -0.1244 H   0  0  0  0  0  0  0  0  0  0  0  0
   -1.9676   -2.2987   -0.9678 H   0  0  0  0  0  0  0  0  0  0  0  0
   -4.2844   -2.6163   -0.2186 H   0  0  0  0  0  0  0  0  0  0  0  0
   -6.3404   -1.1552    1.3916 H   0  0  0  0  0  0  0  0  0  0  0  0
   -1.7973    1.5491    1.0353 H   0  0  0  0  0  0  0  0  0  0  0  0
    2.0191   -0.8065   -3.5702 H   0  0  0  0  0  0  0  0  0  0  0  0
    5.7665    1.6339   -0.6098 H   0  0  0  0  0  0  0  0  0  0  0  0
    5.3738    1.9362    1.8209 H   0  0  0  0  0  0  0  0  0  0  0  0
    3.2826    1.1184    2.8546 H   0  0  0  0  0  0  0  0  0  0  0  0
    1.5639    0.0145    1.4909 H   0  0  0  0  0  0  0  0  0  0  0  0
  1  2  2  0
  2  3  1  0
  3  4  1  0
  4  5  2  0
  5  6  1  0
  6  7  2  0
  7  8  1  0
  8  9  1  0
  9 10  2  0
 10 11  1  0
 11 12  2  0
  2 13  1  0
 13 14  2  0
 14 15  1  0
 15 16  1  0
 16 17  2  0
 17 18  1  0
 18 19  2  0
 19 20  1  0
 20 21  2  0
 12  4  1  0
 21 13  1  0
 11  7  1  0
 21 16  1  0
  3 22  1  0
  5 23  1  0
  6 24  1  0
  8 25  1  0
 12 26  1  0
 14 27  1  0
 17 28  1  0
 18 29  1  0
 19 30  1  0
 20 31  1  0
M  END
$$$$
OCNT-2313402
     RDKit          3D

 41 43  0  0  0  0  0  0  0  0999 V2000
   -2.8546   -1.9566    0.2789 C   0  0  0  0  0  0  0  0  0  0  0  0
   -2.3867   -0.7613   -0.5619 C   0  0  0  0  0  0  0  0  0  0  0  0
   -1.1474   -0.0829    0.0457 C   0  0  0  0  0  0  0  0  0  0  0  0
    0.1210   -0.8990   -0.1198 C   0  0  0  0  0  0  0  0  0  0  0  0
    0.1945   -1.9255   -0.7842 O   0  0  0  0  0  0  0  0  0  0  0  0
    1.1994   -0.3505    0.5491 N   0  0  0  0  0  0  0  0  0  0  0  0
    2.5363   -0.9214    0.4298 C   0  0  0  0  0  0  0  0  0  0  0  0
    3.3973   -0.5368    1.6460 C   0  0  0  0  0  0  0  0  0  0  0  0
    4.2371    0.7121    1.3887 C   0  0  0  0  0  0  0  0  0  0  0  0
    5.1345    0.5062    0.2025 C   0  0  0  0  0  0  0  0  0  0  0  0
    4.6916   -0.4714   -0.8469 C   0  0  0  0  0  0  0  0  0  0  0  0
    3.1685   -0.5147   -0.9158 C   0  0  0  0  0  0  0  0  0  0  0  0
    6.5747    0.7142    0.3789 N   0  0  0  0  0  0  0  0  0  0  0  0
    5.9804    1.6305   -0.2107 N   0  0  0  0  0  0  0  0  0  0  0  0
   -3.5152    0.2482   -0.7349 C   0  0  0  0  0  0  0  0  0  0  0  0
   -4.1015    0.8960    0.3663 C   0  0  0  0  0  0  0  0  0  0  0  0
   -5.1289    1.8225    0.1796 C   0  0  0  0  0  0  0  0  0  0  0  0
   -5.5726    2.1054   -1.1057 C   0  0  0  0  0  0  0  0  0  0  0  0
   -6.5578    2.9955   -1.2828 F   0  0  0  0  0  0  0  0  0  0  0  0
   -5.0089    1.4790   -2.2094 C   0  0  0  0  0  0  0  0  0  0  0  0
   -3.9817    0.5519   -2.0253 C   0  0  0  0  0  0  0  0  0  0  0  0
   -2.0866   -2.7352    0.3220 H   0  0  0  0  0  0  0  0  0  0  0  0
   -3.7566   -2.4061   -0.1517 H   0  0  0  0  0  0  0  0  0  0  0  0
   -3.0877   -1.6665    1.3091 H   0  0  0  0  0  0  0  0  0  0  0  0
   -2.1228   -1.1509   -1.5543 H   0  0  0  0  0  0  0  0  0  0  0  0
   -0.9682    0.8804   -0.4501 H   0  0  0  0  0  0  0  0  0  0  0  0
   -1.2987    0.1175    1.1137 H   0  0  0  0  0  0  0  0  0  0  0  0
    1.1068    0.5975    0.8934 H   0  0  0  0  0  0  0  0  0  0  0  0
    2.4189   -2.0129    0.4421 H   0  0  0  0  0  0  0  0  0  0  0  0
    2.7769   -0.3969    2.5392 H   0  0  0  0  0  0  0  0  0  0  0  0
    4.0792   -1.3693    1.8657 H   0  0  0  0  0  0  0  0  0  0  0  0
    3.5803    1.5714    1.2075 H   0  0  0  0  0  0  0  0  0  0  0  0
    4.8277    0.9402    2.2840 H   0  0  0  0  0  0  0  0  0  0  0  0
    5.0911   -0.1940   -1.8296 H   0  0  0  0  0  0  0  0  0  0  0  0
    5.0826   -1.4681   -0.6094 H   0  0  0  0  0  0  0  0  0  0  0  0
    2.8480   -1.2104   -1.7004 H   0  0  0  0  0  0  0  0  0  0  0  0
    2.8025    0.4766   -1.2168 H   0  0  0  0  0  0  0  0  0  0  0  0
   -3.7664    0.6827    1.3786 H   0  0  0  0  0  0  0  0  0  0  0  0
   -5.5862    2.3229    1.0270 H   0  0  0  0  0  0  0  0  0  0  0  0
   -5.3721    1.7140   -3.2046 H   0  0  0  0  0  0  0  0  0  0  0  0
   -3.5486    0.0659   -2.8976 H   0  0  0  0  0  0  0  0  0  0  0  0
  1  2  1  0
  2  3  1  0
  3  4  1  0
  4  5  2  0
  4  6  1  0
  6  7  1  0
  7  8  1  0
  8  9  1  0
  9 10  1  0
 10 11  1  0
 11 12  1  0
 10 13  1  0
 13 14  2  0
  2 15  1  0
 15 16  1  0
 16 17  2  0
 17 18  1  0
 18 19  1  0
 18 20  2  0
 20 21  1  0
 12  7  1  0
 21 15  2  0
 14 10  1  0
  1 22  1  0
  1 23  1  0
  1 24  1  0
  2 25  1  0
  3 26  1  0
  3 27  1  0
  6 28  1  0
  7 29  1  0
  8 30  1  0
  8 31  1  0
  9 32  1  0
  9 33  1  0
 11 34  1  0
 11 35  1  0
 12 36  1  0
 12 37  1  0
 16 38  1  0
 17 39  1  0
 20 40  1  0
 21 41  1  0
M  END
$$$$
OCNT-2313403
     RDKit          3D

 48 50  0  0  0  0  0  0  0  0999 V2000
    3.7258    0.9145    2.9877 O   0  0  0  0  0  0  0  0  0  0  0  0
    3.4052    0.5434    1.8670 C   0  0  0  0  0  0  0  0  0  0  0  0
    2.1181    0.3442    1.4549 N   0  0  0  0  0  0  0  0  0  0  0  0
    1.0387    0.4526    2.4068 C   0  0  0  0  0  0  0  0  0  0  0  0
   -0.2934    0.3646    1.7130 C   0  0  0  0  0  0  0  0  0  0  0  0
   -0.8651    1.5040    1.1340 C   0  0  0  0  0  0  0  0  0  0  0  0
   -2.0913    1.4243    0.4696 C   0  0  0  0  0  0  0  0  0  0  0  0
   -2.7718    0.2029    0.3634 C   0  0  0  0  0  0  0  0  0  0  0  0
   -4.1030    0.1418   -0.3637 C   0  0  0  0  0  0  0  0  0  0  0  0
   -3.9740   -0.5742   -1.7243 C   0  0  0  0  0  0  0  0  0  0  0  0
   -5.2916   -1.1752   -2.2227 C   0  0  0  0  0  0  0  0  0  0  0  0
   -6.5005   -0.3916   -1.7299 C   0  0  0  0  0  0  0  0  0  0  0  0
   -6.5823   -0.3651   -0.2024 C   0  0  0  0  0  0  0  0  0  0  0  0
   -5.2190   -0.4823    0.4865 C   0  0  0  0  0  0  0  0  0  0  0  0
   -2.1864   -0.9397    0.9273 C   0  0  0  0  0  0  0  0  0  0  0  0
   -0.9606   -0.8607    1.5939 C   0  0  0  0  0  0  0  0  0  0  0  0
    4.2982    0.2748    0.8697 N   0  0  0  0  0  0  0  0  0  0  0  0
    5.6977    0.5981    1.0501 C   0  0  0  0  0  0  0  0  0  0  0  0
    6.5108    0.2824   -0.1792 C   0  0  0  0  0  0  0  0  0  0  0  0
    7.8951    0.1700   -0.0882 C   0  0  0  0  0  0  0  0  0  0  0  0
    8.6844   -0.0778   -1.1601 N   0  0  0  0  0  0  0  0  0  0  0  0
    8.0343   -0.2041   -2.3392 C   0  0  0  0  0  0  0  0  0  0  0  0
    6.6590   -0.0830   -2.4460 C   0  0  0  0  0  0  0  0  0  0  0  0
    5.8672    0.1680   -1.3781 N   0  0  0  0  0  0  0  0  0  0  0  0
    2.0064   -0.3426    0.7247 H   0  0  0  0  0  0  0  0  0  0  0  0
    1.1472   -0.3518    3.1441 H   0  0  0  0  0  0  0  0  0  0  0  0
    1.1291    1.3986    2.9537 H   0  0  0  0  0  0  0  0  0  0  0  0
   -0.3540    2.4635    1.1962 H   0  0  0  0  0  0  0  0  0  0  0  0
   -2.5103    2.3291    0.0333 H   0  0  0  0  0  0  0  0  0  0  0  0
   -4.4151    1.1763   -0.5694 H   0  0  0  0  0  0  0  0  0  0  0  0
   -3.6023    0.1485   -2.4621 H   0  0  0  0  0  0  0  0  0  0  0  0
   -3.2251   -1.3751   -1.6946 H   0  0  0  0  0  0  0  0  0  0  0  0
   -5.2853   -1.2145   -3.3177 H   0  0  0  0  0  0  0  0  0  0  0  0
   -5.3707   -2.2125   -1.8742 H   0  0  0  0  0  0  0  0  0  0  0  0
   -7.4227   -0.8178   -2.1396 H   0  0  0  0  0  0  0  0  0  0  0  0
   -6.4392    0.6364   -2.1075 H   0  0  0  0  0  0  0  0  0  0  0  0
   -7.0756    0.5646    0.1068 H   0  0  0  0  0  0  0  0  0  0  0  0
   -7.2240   -1.1823    0.1494 H   0  0  0  0  0  0  0  0  0  0  0  0
   -5.0078   -1.5449    0.6664 H   0  0  0  0  0  0  0  0  0  0  0  0
   -5.2706   -0.0090    1.4755 H   0  0  0  0  0  0  0  0  0  0  0  0
   -2.6780   -1.9061    0.8483 H   0  0  0  0  0  0  0  0  0  0  0  0
   -0.5307   -1.7646    2.0198 H   0  0  0  0  0  0  0  0  0  0  0  0
    3.9641    0.3763   -0.0801 H   0  0  0  0  0  0  0  0  0  0  0  0
    5.7759    1.6690    1.2699 H   0  0  0  0  0  0  0  0  0  0  0  0
    6.0671    0.0353    1.9152 H   0  0  0  0  0  0  0  0  0  0  0  0
    8.4167    0.2798    0.8576 H   0  0  0  0  0  0  0  0  0  0  0  0
    8.6545   -0.4047   -3.2051 H   0  0  0  0  0  0  0  0  0  0  0  0
    6.1547   -0.1835   -3.4010 H   0  0  0  0  0  0  0  0  0  0  0  0
  1  2  2  0
  2  3  1  0
  3  4  1  0
  4  5  1  0
  5  6  1  0
  6  7  2  0
  7  8  1  0
  8  9  1  0
  9 10  1  0
 10 11  1  0
 11 12  1  0
 12 13  1  0
 13 14  1  0
  8 15  2  0
 15 16  1  0
  2 17  1  0
 17 18  1  0
 18 19  1  0
 19 20  2  0
 20 21  1  0
 21 22  2  0
 22 23  1  0
 23 24  2  0
 16  5  2  0
 24 19  1  0
 14  9  1  0
  3 25  1  0
  4 26  1  0
  4 27  1  0
  6 28  1  0
  7 29  1  0
  9 30  1  0
 10 31  1  0
 10 32  1  0
 11 33  1  0
 11 34  1  0
 12 35  1  0
 12 36  1  0
 13 37  1  0
 13 38  1  0
 14 39  1  0
 14 40  1  0
 15 41  1  0
 16 42  1  0
 17 43  1  0
 18 44  1  0
 18 45  1  0
 20 46  1  0
 22 47  1  0
 23 48  1  0
M  END
$$$$
OCNT-2313433
     RDKit          3D

 43 46  0  0  0  0  0  0  0  0999 V2000
    7.1402    3.1980    0.2631 Cl  0  0  0  0  0  0  0  0  0  0  0  0
    5.8378    2.0802    0.1555 C   0  0  0  0  0  0  0  0  0  0  0  0
    4.7007    2.4069   -0.5752 C   0  0  0  0  0  0  0  0  0  0  0  0
    3.6415    1.4951   -0.6633 C   0  0  0  0  0  0  0  0  0  0  0  0
    3.6897    0.2614   -0.0023 C   0  0  0  0  0  0  0  0  0  0  0  0
    2.6964   -0.7184   -0.1086 N   0  0  0  0  0  0  0  0  0  0  0  0
    1.3515   -0.3418   -0.5471 C   0  0  0  0  0  0  0  0  0  0  0  0
    0.4116   -1.5618   -0.5111 C   0  0  0  0  0  0  0  0  0  0  0  0
    0.1862   -2.0610    0.9336 C   0  0  0  0  0  0  0  0  0  0  0  0
   -1.2272   -2.5963    1.1275 C   0  0  0  0  0  0  0  0  0  0  0  0
   -2.2775   -1.5200    0.8291 C   0  0  0  0  0  0  0  0  0  0  0  0
   -1.8376   -0.6144   -0.2514 N   0  0  0  0  0  0  0  0  0  0  0  0
   -2.9429   -0.0077   -0.8704 C   0  0  0  0  0  0  0  0  0  0  0  0
   -3.3456   -0.3546   -2.1145 N   0  0  0  0  0  0  0  0  0  0  0  0
   -4.4239    0.2585   -2.6496 C   0  0  0  0  0  0  0  0  0  0  0  0
   -5.1881    1.2135   -2.1070 N   0  0  0  0  0  0  0  0  0  0  0  0
   -4.7641    1.5716   -0.8835 C   0  0  0  0  0  0  0  0  0  0  0  0
   -3.6745    0.9972   -0.2585 C   0  0  0  0  0  0  0  0  0  0  0  0
   -3.5683    1.6642    0.9301 N   0  0  0  0  0  0  0  0  0  0  0  0
   -4.5871    2.5738    0.9876 C   0  0  0  0  0  0  0  0  0  0  0  0
   -5.3322    2.5378   -0.0951 N   0  0  0  0  0  0  0  0  0  0  0  0
   -0.9195   -1.2330   -1.2175 C   0  0  0  0  0  0  0  0  0  0  0  0
    4.8654   -0.0583    0.6955 C   0  0  0  0  0  0  0  0  0  0  0  0
    5.9285    0.8460    0.7881 C   0  0  0  0  0  0  0  0  0  0  0  0
    4.6310    3.3619   -1.0887 H   0  0  0  0  0  0  0  0  0  0  0  0
    2.7814    1.7767   -1.2630 H   0  0  0  0  0  0  0  0  0  0  0  0
    2.7016   -1.3338    0.7010 H   0  0  0  0  0  0  0  0  0  0  0  0
    1.4039    0.0289   -1.5777 H   0  0  0  0  0  0  0  0  0  0  0  0
    0.9530    0.4606    0.0863 H   0  0  0  0  0  0  0  0  0  0  0  0
    0.8886   -2.3693   -1.0839 H   0  0  0  0  0  0  0  0  0  0  0  0
    0.3555   -1.2510    1.6546 H   0  0  0  0  0  0  0  0  0  0  0  0
    0.9151   -2.8454    1.1692 H   0  0  0  0  0  0  0  0  0  0  0  0
   -1.3817   -3.4555    0.4623 H   0  0  0  0  0  0  0  0  0  0  0  0
   -1.3600   -2.9681    2.1497 H   0  0  0  0  0  0  0  0  0  0  0  0
   -2.4380   -0.9269    1.7375 H   0  0  0  0  0  0  0  0  0  0  0  0
   -3.2261   -2.0188    0.5887 H   0  0  0  0  0  0  0  0  0  0  0  0
   -4.7059   -0.0666   -3.6465 H   0  0  0  0  0  0  0  0  0  0  0  0
   -2.8476    1.5187    1.6225 H   0  0  0  0  0  0  0  0  0  0  0  0
   -4.7316    3.2333    1.8334 H   0  0  0  0  0  0  0  0  0  0  0  0
   -0.7283   -0.5701   -2.0716 H   0  0  0  0  0  0  0  0  0  0  0  0
   -1.3584   -2.1563   -1.6211 H   0  0  0  0  0  0  0  0  0  0  0  0
    4.9656   -1.0290    1.1755 H   0  0  0  0  0  0  0  0  0  0  0  0
    6.8210    0.5738    1.3442 H   0  0  0  0  0  0  0  0  0  0  0  0
  1  2  1  0
  2  3  1  0
  3  4  2  0
  4  5  1  0
  5  6  1  0
  6  7  1  0
  7  8  1  0
  8  9  1  0
  9 10  1  0
 10 11  1  0
 11 12  1  0
 12 13  1  0
 13 14  1  0
 14 15  2  0
 15 16  1  0
 16 17  2  0
 17 18  1  0
 18 19  1  0
 19 20  1  0
 20 21  2  0
 12 22  1  0
  5 23  2  0
 23 24  1  0
 24  2  2  0
 22  8  1  0
 18 13  2  0
 21 17  1  0
  3 25  1  0
  4 26  1  0
  6 27  1  0
  7 28  1  0
  7 29  1  0
  8 30  1  0
  9 31  1  0
  9 32  1  0
 10 33  1  0
 10 34  1  0
 11 35  1  0
 11 36  1  0
 15 37  1  0
 19 38  1  0
 20 39  1  0
 22 40  1  0
 22 41  1  0
 23 42  1  0
 24 43  1  0
M  END
$$$$
OCNT-2313441
     RDKit          3D

 38 41  0  0  0  0  0  0  0  0999 V2000
   -1.7917    0.9449   -1.8047 O   0  0  0  0  0  0  0  0  0  0  0  0
   -2.1178    1.5387   -0.5434 C   0  0  0  0  0  0  0  0  0  0  0  0
   -2.0185    0.5168    0.6178 C   0  0  0  0  0  0  0  0  0  0  0  0
   -0.7103   -0.1439    0.6424 N   0  0  0  0  0  0  0  0  0  0  0  0
    0.3867    0.6344    0.9980 C   0  0  0  0  0  0  0  0  0  0  0  0
    0.2597    1.7085    1.8171 N   0  0  0  0  0  0  0  0  0  0  0  0
    1.3643    2.4129    2.1464 C   0  0  0  0  0  0  0  0  0  0  0  0
    2.6317    2.2082    1.7499 N   0  0  0  0  0  0  0  0  0  0  0  0
    2.7525    1.1389    0.9276 C   0  0  0  0  0  0  0  0  0  0  0  0
    1.6741    0.3575    0.5491 C   0  0  0  0  0  0  0  0  0  0  0  0
    2.0742   -0.6455   -0.2833 O   0  0  0  0  0  0  0  0  0  0  0  0
    3.4223   -0.5068   -0.4356 C   0  0  0  0  0  0  0  0  0  0  0  0
    4.2330   -1.3331   -1.2110 C   0  0  0  0  0  0  0  0  0  0  0  0
    5.5972   -1.0236   -1.2393 C   0  0  0  0  0  0  0  0  0  0  0  0
    6.1085    0.0617   -0.5223 C   0  0  0  0  0  0  0  0  0  0  0  0
    5.2688    0.8767    0.2499 C   0  0  0  0  0  0  0  0  0  0  0  0
    3.8932    0.5829    0.2925 C   0  0  0  0  0  0  0  0  0  0  0  0
   -3.1296   -0.5108    0.5178 C   0  0  0  0  0  0  0  0  0  0  0  0
   -3.0355   -1.6764   -0.2486 C   0  0  0  0  0  0  0  0  0  0  0  0
   -1.9162   -1.9537   -0.9344 F   0  0  0  0  0  0  0  0  0  0  0  0
   -4.0923   -2.5849   -0.3330 C   0  0  0  0  0  0  0  0  0  0  0  0
   -5.2823   -2.3363    0.3470 C   0  0  0  0  0  0  0  0  0  0  0  0
   -5.4075   -1.1733    1.1021 C   0  0  0  0  0  0  0  0  0  0  0  0
   -4.3416   -0.2764    1.1756 C   0  0  0  0  0  0  0  0  0  0  0  0
   -4.5060    0.8478    1.8885 F   0  0  0  0  0  0  0  0  0  0  0  0
   -1.8093    1.6580   -2.4655 H   0  0  0  0  0  0  0  0  0  0  0  0
   -1.4212    2.3684   -0.3836 H   0  0  0  0  0  0  0  0  0  0  0  0
   -3.1291    1.9538   -0.6142 H   0  0  0  0  0  0  0  0  0  0  0  0
   -2.1614    1.0527    1.5654 H   0  0  0  0  0  0  0  0  0  0  0  0
   -0.5269   -0.6611   -0.2196 H   0  0  0  0  0  0  0  0  0  0  0  0
    1.2054    3.2538    2.8155 H   0  0  0  0  0  0  0  0  0  0  0  0
    3.8219   -2.1712   -1.7609 H   0  0  0  0  0  0  0  0  0  0  0  0
    6.2712   -1.6406   -1.8304 H   0  0  0  0  0  0  0  0  0  0  0  0
    7.1741    0.2787   -0.5621 H   0  0  0  0  0  0  0  0  0  0  0  0
    5.6696    1.7189    0.8066 H   0  0  0  0  0  0  0  0  0  0  0  0
   -3.9749   -3.4813   -0.9349 H   0  0  0  0  0  0  0  0  0  0  0  0
   -6.1069   -3.0414    0.2836 H   0  0  0  0  0  0  0  0  0  0  0  0
   -6.3291   -0.9538    1.6328 H   0  0  0  0  0  0  0  0  0  0  0  0
  1  2  1  0
  2  3  1  0
  3  4  1  0
  4  5  1  0
  5  6  1  0
  6  7  2  0
  7  8  1  0
  8  9  2  0
  9 10  1  0
 10 11  1  0
 11 12  1  0
 12 13  2  0
 13 14  1  0
 14 15  2  0
 15 16  1  0
 16 17  2  0
  3 18  1  0
 18 19  2  0
 19 20  1  0
 19 21  1  0
 21 22  2  0
 22 23  1  0
 23 24  2  0
 24 25  1  0
 10  5  2  0
 17 12  1  0
 24 18  1  0
 17  9  1  0
  1 26  1  0
  2 27  1  0
  2 28  1  0
  3 29  1  0
  4 30  1  0
  7 31  1  0
 13 32  1  0
 14 33  1  0
 15 34  1  0
 16 35  1  0
 21 36  1  0
 22 37  1  0
 23 38  1  0
M  END
$$$$
OCNT-2313450
     RDKit          3D

 39 41  0  0  0  0  0  0  0  0999 V2000
   -5.3885    0.5319    1.8334 C   0  0  0  0  0  0  0  0  0  0  0  0
   -4.6728   -0.2030    0.7330 C   0  0  0  0  0  0  0  0  0  0  0  0
   -5.4336   -1.0102   -0.1429 C   0  0  0  0  0  0  0  0  0  0  0  0
   -4.8380   -1.7225   -1.1823 C   0  0  0  0  0  0  0  0  0  0  0  0
   -3.4649   -1.6510   -1.3792 C   0  0  0  0  0  0  0  0  0  0  0  0
   -2.8874   -2.3350   -2.3754 F   0  0  0  0  0  0  0  0  0  0  0  0
   -2.7056   -0.8562   -0.5236 C   0  0  0  0  0  0  0  0  0  0  0  0
   -3.2723   -0.1340    0.5242 C   0  0  0  0  0  0  0  0  0  0  0  0
   -2.1960    0.5386    1.1703 C   0  0  0  0  0  0  0  0  0  0  0  0
   -1.0147    0.2415    0.5092 C   0  0  0  0  0  0  0  0  0  0  0  0
    0.3193    0.6998    0.8289 C   0  0  0  0  0  0  0  0  0  0  0  0
    0.6150    1.2071    1.9054 O   0  0  0  0  0  0  0  0  0  0  0  0
    1.2381    0.5471   -0.1905 N   0  0  0  0  0  0  0  0  0  0  0  0
    2.5766    1.1339   -0.0492 C   0  0  0  0  0  0  0  0  0  0  0  0
    3.6056    0.3891   -0.9066 C   0  0  0  0  0  0  0  0  0  0  0  0
    3.8653   -1.0032   -0.4003 C   0  0  0  0  0  0  0  0  0  0  0  0
    5.1690   -1.6882   -0.7178 C   0  0  0  0  0  0  0  0  0  0  0  0
    4.8789   -1.2400    0.6884 C   0  0  0  0  0  0  0  0  0  0  0  0
    2.5044    2.5851   -0.5165 C   0  0  0  0  0  0  0  0  0  0  0  0
    1.7218    3.0354   -1.3413 O   0  0  0  0  0  0  0  0  0  0  0  0
    3.4500    3.3718    0.0333 O   0  0  0  0  0  0  0  0  0  0  0  0
   -1.3514   -0.6272   -0.5036 N   0  0  0  0  0  0  0  0  0  0  0  0
   -5.8885   -0.1810    2.4969 H   0  0  0  0  0  0  0  0  0  0  0  0
   -4.6988    1.1283    2.4374 H   0  0  0  0  0  0  0  0  0  0  0  0
   -6.1359    1.2094    1.4079 H   0  0  0  0  0  0  0  0  0  0  0  0
   -6.5116   -1.0820   -0.0062 H   0  0  0  0  0  0  0  0  0  0  0  0
   -5.4401   -2.3381   -1.8435 H   0  0  0  0  0  0  0  0  0  0  0  0
   -2.2660    1.1877    2.0349 H   0  0  0  0  0  0  0  0  0  0  0  0
    0.8540    0.5865   -1.1255 H   0  0  0  0  0  0  0  0  0  0  0  0
    2.8626    1.1182    1.0088 H   0  0  0  0  0  0  0  0  0  0  0  0
    4.5440    0.9580   -0.9347 H   0  0  0  0  0  0  0  0  0  0  0  0
    3.2550    0.3223   -1.9446 H   0  0  0  0  0  0  0  0  0  0  0  0
    2.9717   -1.6185   -0.4007 H   0  0  0  0  0  0  0  0  0  0  0  0
    5.1471   -2.7526   -0.9241 H   0  0  0  0  0  0  0  0  0  0  0  0
    5.9246   -1.1468   -1.2757 H   0  0  0  0  0  0  0  0  0  0  0  0
    5.4381   -0.3965    1.0777 H   0  0  0  0  0  0  0  0  0  0  0  0
    4.6574   -2.0002    1.4297 H   0  0  0  0  0  0  0  0  0  0  0  0
    3.2650    4.2647   -0.3269 H   0  0  0  0  0  0  0  0  0  0  0  0
   -0.6972   -1.0702   -1.1335 H   0  0  0  0  0  0  0  0  0  0  0  0
  1  2  1  0
  2  3  1  0
  3  4  2  0
  4  5  1  0
  5  6  1  0
  5  7  2  0
  7  8  1  0
  8  9  1  0
  9 10  2  0
 10 11  1  0
 11 12  2  0
 11 13  1  0
 13 14  1  0
 14 15  1  0
 15 16  1  0
 16 17  1  0
 17 18  1  0
 14 19  1  0
 19 20  2  0
 19 21  1  0
 10 22  1  0
  8  2  2  0
 18 16  1  0
 22  7  1  0
  1 23  1  0
  1 24  1  0
  1 25  1  0
  3 26  1  0
  4 27  1  0
  9 28  1  0
 13 29  1  0
 14 30  1  0
 15 31  1  0
 15 32  1  0
 16 33  1  0
 17 34  1  0
 17 35  1  0
 18 36  1  0
 18 37  1  0
 21 38  1  0
 22 39  1  0
M  END
$$$$
OCNT-2313460
     RDKit          3D

 38 40  0  0  0  0  0  0  0  0999 V2000
   -1.8322   -1.9388    0.9531 C   0  0  0  0  0  0  0  0  0  0  0  0
   -1.0462   -0.6545    0.5982 C   0  0  0  0  0  0  0  0  0  0  0  0
   -1.2446    0.3768    1.7293 C   0  0  0  0  0  0  0  0  0  0  0  0
   -0.6163   -0.0544    2.9333 O   0  0  0  0  0  0  0  0  0  0  0  0
    0.4480   -1.0752    0.4656 C   0  0  0  0  0  0  0  0  0  0  0  0
    1.3163    0.0800    0.2344 N   0  0  0  0  0  0  0  0  0  0  0  0
    2.6276   -0.2231   -0.1570 C   0  0  0  0  0  0  0  0  0  0  0  0
    2.9028   -1.3962   -0.7713 N   0  0  0  0  0  0  0  0  0  0  0  0
    4.1657   -1.6586   -1.1429 C   0  0  0  0  0  0  0  0  0  0  0  0
    5.2419   -0.8856   -0.9829 N   0  0  0  0  0  0  0  0  0  0  0  0
    4.9407    0.2776   -0.3838 C   0  0  0  0  0  0  0  0  0  0  0  0
    3.6885    0.6850    0.0497 C   0  0  0  0  0  0  0  0  0  0  0  0
    3.7587    1.9999    0.6294 C   0  0  0  0  0  0  0  0  0  0  0  0
    5.0356    2.5176    0.6216 C   0  0  0  0  0  0  0  0  0  0  0  0
    6.1561    1.4358   -0.0829 S   0  0  0  0  0  0  0  0  0  0  0  0
   -1.5161   -0.0785   -0.7695 C   0  0  0  0  0  0  0  0  0  0  0  0
   -2.9687    0.3195   -0.8453 C   0  0  0  0  0  0  0  0  0  0  0  0
   -4.0575   -0.4732   -1.1543 C   0  0  0  0  0  0  0  0  0  0  0  0
   -5.2812    0.2558   -1.1518 C   0  0  0  0  0  0  0  0  0  0  0  0
   -5.0864    1.5869   -0.8620 C   0  0  0  0  0  0  0  0  0  0  0  0
   -3.4375    1.9524   -0.6030 S   0  0  0  0  0  0  0  0  0  0  0  0
   -1.7913   -2.6658    0.1341 H   0  0  0  0  0  0  0  0  0  0  0  0
   -1.4198   -2.4242    1.8452 H   0  0  0  0  0  0  0  0  0  0  0  0
   -2.8852   -1.7268    1.1643 H   0  0  0  0  0  0  0  0  0  0  0  0
   -2.3082    0.5196    1.9486 H   0  0  0  0  0  0  0  0  0  0  0  0
   -0.8213    1.3509    1.4624 H   0  0  0  0  0  0  0  0  0  0  0  0
   -0.9123    0.5481    3.6386 H   0  0  0  0  0  0  0  0  0  0  0  0
    0.5220   -1.7911   -0.3640 H   0  0  0  0  0  0  0  0  0  0  0  0
    0.7839   -1.5978    1.3707 H   0  0  0  0  0  0  0  0  0  0  0  0
    1.3335    0.7116    1.0300 H   0  0  0  0  0  0  0  0  0  0  0  0
    4.3297   -2.6147   -1.6303 H   0  0  0  0  0  0  0  0  0  0  0  0
    2.9072    2.5382    1.0264 H   0  0  0  0  0  0  0  0  0  0  0  0
    5.3657    3.4788    0.9917 H   0  0  0  0  0  0  0  0  0  0  0  0
   -0.8973    0.7872   -1.0412 H   0  0  0  0  0  0  0  0  0  0  0  0
   -1.3343   -0.8242   -1.5565 H   0  0  0  0  0  0  0  0  0  0  0  0
   -3.9812   -1.5325   -1.3701 H   0  0  0  0  0  0  0  0  0  0  0  0
   -6.2536   -0.1732   -1.3599 H   0  0  0  0  0  0  0  0  0  0  0  0
   -5.8326    2.3670   -0.7995 H   0  0  0  0  0  0  0  0  0  0  0  0
  1  2  1  0
  2  3  1  0
  3  4  1  0
  2  5  1  0
  5  6  1  0
  6  7  1  0
  7  8  1  0
  8  9  2  0
  9 10  1  0
 10 11  2  0
 11 12  1  0
 12 13  1  0
 13 14  2  0
 14 15  1  0
  2 16  1  0
 16 17  1  0
 17 18  2  0
 18 19  1  0
 19 20  2  0
 20 21  1  0
 12  7  2  0
 21 17  1  0
 15 11  1  0
  1 22  1  0
  1 23  1  0
  1 24  1  0
  3 25  1  0
  3 26  1  0
  4 27  1  0
  5 28  1  0
  5 29  1  0
  6 30  1  0
  9 31  1  0
 13 32  1  0
 14 33  1  0
 16 34  1  0
 16 35  1  0
 18 36  1  0
 19 37  1  0
 20 38  1  0
M  END
$$$$
OCNT-2313469
     RDKit          3D

 42 45  0  0  0  0  0  0  0  0999 V2000
    3.4678    1.3618    1.7794 O   0  0  0  0  0  0  0  0  0  0  0  0
    2.5475    0.6830    1.3235 C   0  0  0  0  0  0  0  0  0  0  0  0
    2.6696   -0.6635    1.1245 N   0  0  0  0  0  0  0  0  0  0  0  0
    3.9411   -1.3213    1.3449 C   0  0  0  0  0  0  0  0  0  0  0  0
    4.7211   -1.3009    0.0681 C   0  0  0  0  0  0  0  0  0  0  0  0
    4.2710   -1.9498   -1.0198 N   0  0  0  0  0  0  0  0  0  0  0  0
    5.2039   -1.6982   -1.9540 N   0  0  0  0  0  0  0  0  0  0  0  0
    6.2241   -0.9128   -1.5076 C   0  0  0  0  0  0  0  0  0  0  0  0
    5.9386   -0.6302   -0.1945 C   0  0  0  0  0  0  0  0  0  0  0  0
    1.3459    1.2409    0.9500 N   0  0  0  0  0  0  0  0  0  0  0  0
    1.1970    2.7001    0.9047 C   0  0  0  0  0  0  0  0  0  0  0  0
   -0.1394    2.9909    0.2174 C   0  0  0  0  0  0  0  0  0  0  0  0
   -0.8073    1.6535    0.2891 C   0  0  0  0  0  0  0  0  0  0  0  0
   -2.1272    1.3581   -0.0294 C   0  0  0  0  0  0  0  0  0  0  0  0
   -2.5824    0.0342    0.0824 C   0  0  0  0  0  0  0  0  0  0  0  0
   -3.9750   -0.3166   -0.2433 C   0  0  0  0  0  0  0  0  0  0  0  0
   -4.2688   -1.3514   -1.1508 C   0  0  0  0  0  0  0  0  0  0  0  0
   -5.5900   -1.6882   -1.4645 C   0  0  0  0  0  0  0  0  0  0  0  0
   -6.6411   -0.9937   -0.8731 C   0  0  0  0  0  0  0  0  0  0  0  0
   -6.3616    0.0289    0.0240 C   0  0  0  0  0  0  0  0  0  0  0  0
   -7.3721    0.6975    0.5954 F   0  0  0  0  0  0  0  0  0  0  0  0
   -5.0500    0.3709    0.3412 C   0  0  0  0  0  0  0  0  0  0  0  0
   -1.6727   -0.9524    0.5237 C   0  0  0  0  0  0  0  0  0  0  0  0
   -0.3406   -0.6445    0.8364 C   0  0  0  0  0  0  0  0  0  0  0  0
    0.0888    0.6624    0.6956 C   0  0  0  0  0  0  0  0  0  0  0  0
    2.2115   -0.9798    0.2804 H   0  0  0  0  0  0  0  0  0  0  0  0
    4.4915   -0.8411    2.1604 H   0  0  0  0  0  0  0  0  0  0  0  0
    3.7271   -2.3558    1.6331 H   0  0  0  0  0  0  0  0  0  0  0  0
    5.0772   -2.0941   -2.8796 H   0  0  0  0  0  0  0  0  0  0  0  0
    7.0410   -0.6232   -2.1525 H   0  0  0  0  0  0  0  0  0  0  0  0
    6.5149   -0.0169    0.4846 H   0  0  0  0  0  0  0  0  0  0  0  0
    2.0416    3.1573    0.3775 H   0  0  0  0  0  0  0  0  0  0  0  0
    1.2011    3.0696    1.9379 H   0  0  0  0  0  0  0  0  0  0  0  0
    0.0116    3.2778   -0.8284 H   0  0  0  0  0  0  0  0  0  0  0  0
   -0.6991    3.7714    0.7401 H   0  0  0  0  0  0  0  0  0  0  0  0
   -2.7920    2.1474   -0.3702 H   0  0  0  0  0  0  0  0  0  0  0  0
   -3.4603   -1.8989   -1.6330 H   0  0  0  0  0  0  0  0  0  0  0  0
   -5.7939   -2.4890   -2.1707 H   0  0  0  0  0  0  0  0  0  0  0  0
   -7.6722   -1.2407   -1.1039 H   0  0  0  0  0  0  0  0  0  0  0  0
   -4.8795    1.1699    1.0572 H   0  0  0  0  0  0  0  0  0  0  0  0
   -2.0093   -1.9807    0.6488 H   0  0  0  0  0  0  0  0  0  0  0  0
    0.3006   -1.4318    1.2133 H   0  0  0  0  0  0  0  0  0  0  0  0
  1  2  2  0
  2  3  1  0
  3  4  1  0
  4  5  1  0
  5  6  2  0
  6  7  1  0
  7  8  1  0
  8  9  2  0
  2 10  1  0
 10 11  1  0
 11 12  1  0
 12 13  1  0
 13 14  1  0
 14 15  2  0
 15 16  1  0
 16 17  2  0
 17 18  1  0
 18 19  2  0
 19 20  1  0
 20 21  1  0
 20 22  2  0
 15 23  1  0
 23 24  2  0
 24 25  1  0
  9  5  1  0
 25 10  1  0
 25 13  2  0
 22 16  1  0
  3 26  1  0
  4 27  1  0
  4 28  1  0
  7 29  1  0
  8 30  1  0
  9 31  1  0
 11 32  1  0
 11 33  1  0
 12 34  1  0
 12 35  1  0
 14 36  1  0
 17 37  1  0
 18 38  1  0
 19 39  1  0
 22 40  1  0
 23 41  1  0
 24 42  1  0
M  END
$$$$
OCNT-2313477
     RDKit          3D

  0  0  0  0  0  0  0  0  0  0999 V3000
M  V30 BEGIN CTAB
M  V30 COUNTS 44 46 0 0 0
M  V30 BEGIN ATOM
M  V30 1 C 1.660372 -0.348820 -2.973287 0
M  V30 2 C 2.855104 -0.715119 -2.111318 0
M  V30 3 O 2.379727 -1.011256 -0.798648 0
M  V30 4 C 3.398634 -0.956375 0.231936 0 CFG=1
M  V30 5 C 4.396538 -2.070967 0.204581 0
M  V30 6 C 3.772341 0.406396 0.746283 0
M  V30 7 C 2.884970 -0.475895 1.578083 0 CFG=1
M  V30 8 N 1.499790 -0.175301 1.724246 0
M  V30 9 C 0.934011 0.395729 2.842118 0
M  V30 10 O 1.535025 0.654982 3.879152 0
M  V30 11 C -0.523214 0.696192 2.688090 0
M  V30 12 C -1.215147 1.273678 3.721894 0
M  V30 13 C -2.537122 1.501703 3.455080 0
M  V30 14 N -3.120271 1.197107 2.278856 0
M  V30 15 C -2.367086 0.633230 1.318308 0
M  V30 16 N -2.951813 0.290690 0.124084 0
M  V30 17 C -2.125500 -0.242941 -0.954055 0
M  V30 18 C -3.033299 -0.778346 -2.072650 0
M  V30 19 O -3.914355 0.208057 -2.633566 0
M  V30 20 C -4.232439 1.273626 -1.727153 0
M  V30 21 C -4.248126 0.857683 -0.246532 0
M  V30 22 N -1.067160 0.367452 1.490177 0
M  V30 23 H 1.964834 -0.163512 -4.009324 0
M  V30 24 H 1.165916 0.551470 -2.582887 0
M  V30 25 H 0.914461 -1.150908 -2.963327 0
M  V30 26 H 3.572795 0.111831 -2.086148 0
M  V30 27 H 3.351569 -1.604358 -2.519675 0
M  V30 28 H 5.085948 -2.022620 1.054133 0
M  V30 29 H 3.882623 -3.038451 0.238301 0
M  V30 30 H 4.995926 -2.030328 -0.708905 0
M  V30 31 H 4.784535 0.571237 1.097493 0
M  V30 32 H 3.325386 1.275714 0.278324 0
M  V30 33 H 3.326369 -0.914674 2.470324 0
M  V30 34 H 0.892141 -0.326230 0.919791 0
M  V30 35 H -0.755010 1.525185 4.666840 0
M  V30 36 H -3.194115 1.948528 4.195279 0
M  V30 37 H -1.480918 0.549351 -1.351189 0
M  V30 38 H -1.492664 -1.064086 -0.597680 0
M  V30 39 H -2.426686 -1.180950 -2.890990 0
M  V30 40 H -3.657465 -1.595730 -1.695033 0
M  V30 41 H -3.495366 2.071796 -1.887036 0
M  V30 42 H -5.210539 1.672820 -2.018451 0
M  V30 43 H -5.016848 0.093700 -0.086459 0
M  V30 44 H -4.513871 1.738711 0.347931 0
M  V30 END ATOM
M  V30 BEGIN BOND
M  V30 1 1 1 2
M  V30 2 1 2 3
M  V30 3 1 4 3 CFG=3
M  V30 4 1 4 5
M  V30 5 1 4 6
M  V30 6 1 6 7
M  V30 7 1 7 8
M  V30 8 1 8 9
M  V30 9 2 9 10
M  V30 10 1 9 11
M  V30 11 1 11 12
M  V30 12 2 12 13
M  V30 13 1 13 14
M  V30 14 2 14 15
M  V30 15 1 15 16
M  V30 16 1 16 17
M  V30 17 1 17 18
M  V30 18 1 18 19
M  V30 19 1 19 20
M  V30 20 1 20 21
M  V30 21 1 15 22
M  V30 22 1 7 4
M  V30 23 2 22 11
M  V30 24 1 21 16
M  V30 25 1 1 23
M  V30 26 1 1 24
M  V30 27 1 1 25
M  V30 28 1 2 26
M  V30 29 1 2 27
M  V30 30 1 5 28
M  V30 31 1 5 29
M  V30 32 1 5 30
M  V30 33 1 6 31
M  V30 34 1 6 32
M  V30 35 1 7 33 CFG=1
M  V30 36 1 8 34
M  V30 37 1 12 35
M  V30 38 1 13 36
M  V30 39 1 17 37
M  V30 40 1 17 38
M  V30 41 1 18 39
M  V30 42 1 18 40
M  V30 43 1 20 41
M  V30 44 1 20 42
M  V30 45 1 21 43
M  V30 46 1 21 44
M  V30 END BOND
M  V30 BEGIN COLLECTION
M  V30 MDLV30/STERAC1 ATOMS=(2 4 7)
M  V30 END COLLECTION
M  V30 END CTAB
M  END
>  <_CXSMILES_Data>  (723) 
|&1:3,6|

$$$$
OCNT-2313486
     RDKit          3D

 41 45  0  0  0  0  0  0  0  0999 V2000
    6.1320    2.2539   -0.5264 C   0  0  0  0  0  0  0  0  0  0  0  0
    6.3601    0.8799   -0.5245 C   0  0  0  0  0  0  0  0  0  0  0  0
    5.2831   -0.0096   -0.5742 C   0  0  0  0  0  0  0  0  0  0  0  0
    3.9636    0.4640   -0.6294 C   0  0  0  0  0  0  0  0  0  0  0  0
    2.8164   -0.4529   -0.6690 C   0  0  0  0  0  0  0  0  0  0  0  0
    1.6266   -0.3753    0.0320 C   0  0  0  0  0  0  0  0  0  0  0  0
    0.7135   -1.4410   -0.2746 C   0  0  0  0  0  0  0  0  0  0  0  0
    1.2665   -2.2990   -1.2080 C   0  0  0  0  0  0  0  0  0  0  0  0
    0.6966   -3.4049   -1.7135 N   0  0  0  0  0  0  0  0  0  0  0  0
   -0.5187   -3.6201   -1.2059 C   0  0  0  0  0  0  0  0  0  0  0  0
   -1.1779   -2.8735   -0.3044 N   0  0  0  0  0  0  0  0  0  0  0  0
   -0.5808   -1.7625    0.1888 C   0  0  0  0  0  0  0  0  0  0  0  0
   -1.2515   -0.9499    1.1182 N   0  0  0  0  0  0  0  0  0  0  0  0
   -2.3369   -1.6131    1.8590 C   0  0  0  0  0  0  0  0  0  0  0  0
   -3.6212   -1.0250    1.2903 C   0  0  0  0  0  0  0  0  0  0  0  0
   -3.2149    0.4226    1.0262 C   0  0  0  0  0  0  0  0  0  0  0  0
   -4.0792    1.1902    0.1670 N   0  0  0  0  0  0  0  0  0  0  0  0
   -5.2903    0.8649   -0.3589 C   0  0  0  0  0  0  0  0  0  0  0  0
   -5.7512    1.8728   -1.0631 N   0  0  0  0  0  0  0  0  0  0  0  0
   -4.7743    2.8149   -0.9271 C   0  0  0  0  0  0  0  0  0  0  0  0
   -3.7322    2.4466   -0.1778 N   0  0  0  0  0  0  0  0  0  0  0  0
   -1.8027    0.2559    0.4502 C   0  0  0  0  0  0  0  0  0  0  0  0
    2.8209   -1.8191   -1.7072 S   0  0  0  0  0  0  0  0  0  0  0  0
    3.7508    1.8512   -0.6252 C   0  0  0  0  0  0  0  0  0  0  0  0
    4.8279    2.7403   -0.5762 C   0  0  0  0  0  0  0  0  0  0  0  0
    6.9702    2.9449   -0.4889 H   0  0  0  0  0  0  0  0  0  0  0  0
    7.3768    0.4973   -0.4825 H   0  0  0  0  0  0  0  0  0  0  0  0
    5.4890   -1.0776   -0.5590 H   0  0  0  0  0  0  0  0  0  0  0  0
    1.4101    0.4046    0.7524 H   0  0  0  0  0  0  0  0  0  0  0  0
   -1.0387   -4.5024   -1.5662 H   0  0  0  0  0  0  0  0  0  0  0  0
   -2.3296   -2.7081    1.8270 H   0  0  0  0  0  0  0  0  0  0  0  0
   -2.2413   -1.3300    2.9147 H   0  0  0  0  0  0  0  0  0  0  0  0
   -3.8913   -1.5425    0.3614 H   0  0  0  0  0  0  0  0  0  0  0  0
   -4.4606   -1.1098    1.9871 H   0  0  0  0  0  0  0  0  0  0  0  0
   -3.1643    0.9623    1.9819 H   0  0  0  0  0  0  0  0  0  0  0  0
   -5.7864   -0.0838   -0.2091 H   0  0  0  0  0  0  0  0  0  0  0  0
   -4.8246    3.7949   -1.3844 H   0  0  0  0  0  0  0  0  0  0  0  0
   -1.8450    0.1431   -0.6428 H   0  0  0  0  0  0  0  0  0  0  0  0
   -1.1800    1.1289    0.6763 H   0  0  0  0  0  0  0  0  0  0  0  0
    2.7419    2.2549   -0.6730 H   0  0  0  0  0  0  0  0  0  0  0  0
    4.6473    3.8122   -0.5797 H   0  0  0  0  0  0  0  0  0  0  0  0
  1  2  2  0
  2  3  1  0
  3  4  2  0
  4  5  1  0
  5  6  2  0
  6  7  1  0
  7  8  1  0
  8  9  2  0
  9 10  1  0
 10 11  2  0
 11 12  1  0
 12 13  1  0
 13 14  1  0
 14 15  1  0
 15 16  1  0
 16 17  1  0
 17 18  1  0
 18 19  2  0
 19 20  1  0
 20 21  2  0
 16 22  1  0
  8 23  1  0
  4 24  1  0
 24 25  2  0
 25  1  1  0
 23  5  1  0
 12  7  2  0
 22 13  1  0
 21 17  1  0
  1 26  1  0
  2 27  1  0
  3 28  1  0
  6 29  1  0
 10 30  1  0
 14 31  1  0
 14 32  1  0
 15 33  1  0
 15 34  1  0
 16 35  1  0
 18 36  1  0
 20 37  1  0
 22 38  1  0
 22 39  1  0
 24 40  1  0
 25 41  1  0
M  END
$$$$
OCNT-2313532
     RDKit          3D

 36 39  0  0  0  0  0  0  0  0999 V2000
   -1.8502   -0.4488   -1.4493 O   0  0  0  0  0  0  0  0  0  0  0  0
   -1.1549   -0.5492   -0.4449 C   0  0  0  0  0  0  0  0  0  0  0  0
    0.1787   -0.9175   -0.4005 N   0  0  0  0  0  0  0  0  0  0  0  0
    0.9446   -1.1904   -1.5180 C   0  0  0  0  0  0  0  0  0  0  0  0
    0.6384   -1.1818   -2.8618 C   0  0  0  0  0  0  0  0  0  0  0  0
    1.8316   -1.5256   -3.5192 C   0  0  0  0  0  0  0  0  0  0  0  0
    2.8357   -1.7472   -2.6701 N   0  0  0  0  0  0  0  0  0  0  0  0
    2.2778   -1.5421   -1.4540 N   0  0  0  0  0  0  0  0  0  0  0  0
    3.0927   -1.7515   -0.2615 C   0  0  0  0  0  0  0  0  0  0  0  0
    3.4389   -0.4479    0.3928 C   0  0  0  0  0  0  0  0  0  0  0  0
    4.1781    0.6052   -0.1192 C   0  0  0  0  0  0  0  0  0  0  0  0
    4.2914    1.6883    0.8031 C   0  0  0  0  0  0  0  0  0  0  0  0
    3.6418    1.4074    1.9762 C   0  0  0  0  0  0  0  0  0  0  0  0
    3.5219    2.4260    3.3528 Cl  0  0  0  0  0  0  0  0  0  0  0  0
    2.9104   -0.1171    1.9937 S   0  0  0  0  0  0  0  0  0  0  0  0
   -1.6636   -0.2878    0.8992 C   0  0  0  0  0  0  0  0  0  0  0  0
   -2.9240    0.1403    1.2661 C   0  0  0  0  0  0  0  0  0  0  0  0
   -4.1216    0.4557    0.3364 C   0  0  0  0  0  0  0  0  0  0  0  0
   -5.1998    1.3920    0.8150 C   0  0  0  0  0  0  0  0  0  0  0  0
   -4.2363    1.8406   -0.2447 C   0  0  0  0  0  0  0  0  0  0  0  0
   -2.9487    0.2491    2.6293 O   0  0  0  0  0  0  0  0  0  0  0  0
   -1.6979   -0.1135    3.0166 C   0  0  0  0  0  0  0  0  0  0  0  0
   -0.8825   -0.4480    2.0420 N   0  0  0  0  0  0  0  0  0  0  0  0
    0.5911   -0.9334    0.5295 H   0  0  0  0  0  0  0  0  0  0  0  0
   -0.3146   -0.9521   -3.3173 H   0  0  0  0  0  0  0  0  0  0  0  0
    2.0088   -1.6238   -4.5826 H   0  0  0  0  0  0  0  0  0  0  0  0
    2.5290   -2.4227    0.3959 H   0  0  0  0  0  0  0  0  0  0  0  0
    4.0069   -2.2756   -0.5640 H   0  0  0  0  0  0  0  0  0  0  0  0
    4.6077    0.6016   -1.1160 H   0  0  0  0  0  0  0  0  0  0  0  0
    4.8179    2.6141    0.6081 H   0  0  0  0  0  0  0  0  0  0  0  0
   -4.4331   -0.3720   -0.2935 H   0  0  0  0  0  0  0  0  0  0  0  0
   -5.1092    1.8313    1.8019 H   0  0  0  0  0  0  0  0  0  0  0  0
   -6.2203    1.1801    0.5177 H   0  0  0  0  0  0  0  0  0  0  0  0
   -3.4934    2.5825    0.0248 H   0  0  0  0  0  0  0  0  0  0  0  0
   -4.5960    1.9264   -1.2637 H   0  0  0  0  0  0  0  0  0  0  0  0
   -1.4971   -0.0924    4.0788 H   0  0  0  0  0  0  0  0  0  0  0  0
  1  2  2  0
  2  3  1  0
  3  4  1  0
  4  5  2  0
  5  6  1  0
  6  7  2  0
  7  8  1  0
  8  9  1  0
  9 10  1  0
 10 11  2  0
 11 12  1  0
 12 13  2  0
 13 14  1  0
 13 15  1  0
  2 16  1  0
 16 17  2  0
 17 18  1  0
 18 19  1  0
 19 20  1  0
 17 21  1  0
 21 22  1  0
 22 23  2  0
  8  4  1  0
 15 10  1  0
 23 16  1  0
 20 18  1  0
  3 24  1  0
  5 25  1  0
  6 26  1  0
  9 27  1  0
  9 28  1  0
 11 29  1  0
 12 30  1  0
 18 31  1  0
 19 32  1  0
 19 33  1  0
 20 34  1  0
 20 35  1  0
 22 36  1  0
M  END
$$$$
OCNT-2313533
     RDKit          3D

 39 42  0  0  0  0  0  0  0  0999 V2000
    0.6959    3.1106   -0.5554 O   0  0  0  0  0  0  0  0  0  0  0  0
    0.8037    2.0227   -1.1171 C   0  0  0  0  0  0  0  0  0  0  0  0
    2.0492    1.6313   -1.8914 C   0  0  0  0  0  0  0  0  0  0  0  0
    2.8578    0.5595   -1.1956 C   0  0  0  0  0  0  0  0  0  0  0  0
    3.0213   -0.7015   -1.7897 C   0  0  0  0  0  0  0  0  0  0  0  0
    3.7583   -1.7135   -1.1580 C   0  0  0  0  0  0  0  0  0  0  0  0
    4.3420   -1.4449    0.0916 C   0  0  0  0  0  0  0  0  0  0  0  0
    5.1311   -2.1544    1.0240 C   0  0  0  0  0  0  0  0  0  0  0  0
    5.4401   -1.4268    2.1008 N   0  0  0  0  0  0  0  0  0  0  0  0
    4.8461   -0.2438    1.8579 N   0  0  0  0  0  0  0  0  0  0  0  0
    4.1729   -0.1906    0.6648 C   0  0  0  0  0  0  0  0  0  0  0  0
    3.4431    0.8344    0.0540 C   0  0  0  0  0  0  0  0  0  0  0  0
   -0.1812    1.0517   -1.1197 N   0  0  0  0  0  0  0  0  0  0  0  0
   -1.3816    1.1959   -0.3547 C   0  0  0  0  0  0  0  0  0  0  0  0
   -2.5216    2.0399   -0.8364 C   0  0  0  0  0  0  0  0  0  0  0  0
   -2.6637    0.5384   -0.8327 C   0  0  0  0  0  0  0  0  0  0  0  0
   -3.5378   -0.1840    0.1728 C   0  0  0  0  0  0  0  0  0  0  0  0
   -4.7957    0.3340    0.5373 C   0  0  0  0  0  0  0  0  0  0  0  0
   -5.6261   -0.3233    1.4509 C   0  0  0  0  0  0  0  0  0  0  0  0
   -5.2228   -1.5276    2.0188 C   0  0  0  0  0  0  0  0  0  0  0  0
   -3.9902   -2.0747    1.6715 C   0  0  0  0  0  0  0  0  0  0  0  0
   -3.1621   -1.4122    0.7575 C   0  0  0  0  0  0  0  0  0  0  0  0
   -1.6552   -2.1651    0.3509 Cl  0  0  0  0  0  0  0  0  0  0  0  0
    2.6735    2.5216   -2.0319 H   0  0  0  0  0  0  0  0  0  0  0  0
    1.7444    1.3087   -2.8944 H   0  0  0  0  0  0  0  0  0  0  0  0
    2.5762   -0.9160   -2.7612 H   0  0  0  0  0  0  0  0  0  0  0  0
    3.8761   -2.6852   -1.6285 H   0  0  0  0  0  0  0  0  0  0  0  0
    5.4915   -3.1723    0.9597 H   0  0  0  0  0  0  0  0  0  0  0  0
    4.9371    0.4921    2.5488 H   0  0  0  0  0  0  0  0  0  0  0  0
    3.3289    1.8052    0.5303 H   0  0  0  0  0  0  0  0  0  0  0  0
    0.1004    0.1051   -1.3551 H   0  0  0  0  0  0  0  0  0  0  0  0
   -1.1914    1.2166    0.7166 H   0  0  0  0  0  0  0  0  0  0  0  0
   -2.4154    2.5399   -1.7923 H   0  0  0  0  0  0  0  0  0  0  0  0
   -3.0368    2.6350   -0.0918 H   0  0  0  0  0  0  0  0  0  0  0  0
   -2.6338    0.0731   -1.8161 H   0  0  0  0  0  0  0  0  0  0  0  0
   -5.1392    1.2713    0.1019 H   0  0  0  0  0  0  0  0  0  0  0  0
   -6.5889    0.1080    1.7149 H   0  0  0  0  0  0  0  0  0  0  0  0
   -5.8676   -2.0407    2.7280 H   0  0  0  0  0  0  0  0  0  0  0  0
   -3.6789   -3.0186    2.1121 H   0  0  0  0  0  0  0  0  0  0  0  0
  1  2  2  0
  2  3  1  0
  3  4  1  0
  4  5  2  0
  5  6  1  0
  6  7  2  0
  7  8  1  0
  8  9  2  0
  9 10  1  0
 10 11  1  0
 11 12  2  0
  2 13  1  0
 13 14  1  0
 14 15  1  0
 15 16  1  0
 16 17  1  0
 17 18  2  0
 18 19  1  0
 19 20  2  0
 20 21  1  0
 21 22  2  0
 22 23  1  0
 12  4  1  0
 16 14  1  0
 22 17  1  0
 11  7  1  0
  3 24  1  0
  3 25  1  0
  5 26  1  0
  6 27  1  0
  8 28  1  0
 10 29  1  0
 12 30  1  0
 13 31  1  0
 14 32  1  0
 15 33  1  0
 15 34  1  0
 16 35  1  0
 18 36  1  0
 19 37  1  0
 20 38  1  0
 21 39  1  0
M  END
$$$$
OCNT-2313538
     RDKit          3D

 36 39  0  0  0  0  0  0  0  0999 V2000
    7.2345    1.2685    0.1925 C   0  0  0  0  0  0  0  0  0  0  0  0
    5.8625    0.6581    0.2552 C   0  0  0  0  0  0  0  0  0  0  0  0
    5.7340   -0.6902    0.5939 C   0  0  0  0  0  0  0  0  0  0  0  0
    4.4646   -1.2678    0.6554 C   0  0  0  0  0  0  0  0  0  0  0  0
    3.3593   -0.4530    0.3709 C   0  0  0  0  0  0  0  0  0  0  0  0
    2.0233   -0.8058    0.3672 N   0  0  0  0  0  0  0  0  0  0  0  0
    1.3090    0.2484    0.0650 C   0  0  0  0  0  0  0  0  0  0  0  0
   -0.0474    0.3694   -0.0672 N   0  0  0  0  0  0  0  0  0  0  0  0
   -0.9184   -0.5888    0.3817 C   0  0  0  0  0  0  0  0  0  0  0  0
   -0.6092   -1.5628    1.0627 O   0  0  0  0  0  0  0  0  0  0  0  0
   -2.2533   -0.3492    0.0310 N   0  0  0  0  0  0  0  0  0  0  0  0
   -2.6450    0.3380   -1.2274 C   0  0  0  0  0  0  0  0  0  0  0  0
   -3.9748    1.1152   -1.1008 C   0  0  0  0  0  0  0  0  0  0  0  0
   -4.9657    0.2836   -0.3832 C   0  0  0  0  0  0  0  0  0  0  0  0
   -4.5859   -0.7995    0.3743 C   0  0  0  0  0  0  0  0  0  0  0  0
   -3.2164   -1.3227    0.5753 C   0  0  0  0  0  0  0  0  0  0  0  0
   -5.7280   -1.3205    0.9003 N   0  0  0  0  0  0  0  0  0  0  0  0
   -6.8309   -0.6438    0.5229 N   0  0  0  0  0  0  0  0  0  0  0  0
   -6.3611    0.3381   -0.2551 C   0  0  0  0  0  0  0  0  0  0  0  0
    2.1576    1.6957   -0.2642 S   0  0  0  0  0  0  0  0  0  0  0  0
    3.6188    0.8753    0.0471 C   0  0  0  0  0  0  0  0  0  0  0  0
    4.8226    1.4782   -0.0279 N   0  0  0  0  0  0  0  0  0  0  0  0
    7.7247    1.1968    1.1684 H   0  0  0  0  0  0  0  0  0  0  0  0
    7.8435    0.7524   -0.5563 H   0  0  0  0  0  0  0  0  0  0  0  0
    7.1786    2.3264   -0.0840 H   0  0  0  0  0  0  0  0  0  0  0  0
    6.6115   -1.2928    0.8101 H   0  0  0  0  0  0  0  0  0  0  0  0
    4.3250   -2.3112    0.9153 H   0  0  0  0  0  0  0  0  0  0  0  0
   -0.3955    1.2971   -0.2348 H   0  0  0  0  0  0  0  0  0  0  0  0
   -2.7380   -0.4477   -1.9891 H   0  0  0  0  0  0  0  0  0  0  0  0
   -1.8647    1.0166   -1.5804 H   0  0  0  0  0  0  0  0  0  0  0  0
   -4.3387    1.3985   -2.0939 H   0  0  0  0  0  0  0  0  0  0  0  0
   -3.8039    2.0348   -0.5285 H   0  0  0  0  0  0  0  0  0  0  0  0
   -3.0821   -2.2700    0.0405 H   0  0  0  0  0  0  0  0  0  0  0  0
   -3.0117   -1.4854    1.6392 H   0  0  0  0  0  0  0  0  0  0  0  0
   -5.8398   -2.1230    1.5121 H   0  0  0  0  0  0  0  0  0  0  0  0
   -7.0591    1.0429   -0.6884 H   0  0  0  0  0  0  0  0  0  0  0  0
  1  2  1  0
  2  3  1  0
  3  4  2  0
  4  5  1  0
  5  6  1  0
  6  7  2  0
  7  8  1  0
  8  9  1  0
  9 10  2  0
  9 11  1  0
 11 12  1  0
 12 13  1  0
 13 14  1  0
 14 15  2  0
 15 16  1  0
 15 17  1  0
 17 18  1  0
 18 19  2  0
  7 20  1  0
 20 21  1  0
 21 22  1  0
 22  2  2  0
 21  5  2  0
 16 11  1  0
 19 14  1  0
  1 23  1  0
  1 24  1  0
  1 25  1  0
  3 26  1  0
  4 27  1  0
  8 28  1  0
 12 29  1  0
 12 30  1  0
 13 31  1  0
 13 32  1  0
 16 33  1  0
 16 34  1  0
 17 35  1  0
 19 36  1  0
M  END
$$$$
OCNT-2313565
     RDKit          3D

 47 50  0  0  0  0  0  0  0  0999 V2000
   -0.4205    2.6433    2.0372 O   0  0  0  0  0  0  0  0  0  0  0  0
   -0.0341    2.1531    0.9765 C   0  0  0  0  0  0  0  0  0  0  0  0
   -0.8396    2.1928   -0.1489 N   0  0  0  0  0  0  0  0  0  0  0  0
   -2.2070    2.6611   -0.0997 C   0  0  0  0  0  0  0  0  0  0  0  0
   -3.1891    1.5451    0.2638 C   0  0  0  0  0  0  0  0  0  0  0  0
   -3.5626    0.6558   -0.9260 C   0  0  0  0  0  0  0  0  0  0  0  0
   -2.3931   -0.2242   -1.4270 C   0  0  0  0  0  0  0  0  0  0  0  0
   -1.3172    0.1615   -1.8597 O   0  0  0  0  0  0  0  0  0  0  0  0
   -2.7828   -1.5506   -1.3190 N   0  0  0  0  0  0  0  0  0  0  0  0
   -4.0685   -1.6594   -0.8183 C   0  0  0  0  0  0  0  0  0  0  0  0
   -4.7806   -2.8164   -0.5887 C   0  0  0  0  0  0  0  0  0  0  0  0
   -6.0742   -2.6805   -0.0819 C   0  0  0  0  0  0  0  0  0  0  0  0
   -6.6148   -1.4078    0.1771 C   0  0  0  0  0  0  0  0  0  0  0  0
   -5.8709   -0.2485   -0.0647 C   0  0  0  0  0  0  0  0  0  0  0  0
   -4.5878   -0.3918   -0.5620 C   0  0  0  0  0  0  0  0  0  0  0  0
    1.2557    1.4904    0.8021 C   0  0  0  0  0  0  0  0  0  0  0  0
    1.8050    0.8544   -0.2961 C   0  0  0  0  0  0  0  0  0  0  0  0
    3.1181    0.3202   -0.0576 C   0  0  0  0  0  0  0  0  0  0  0  0
    3.5238    0.5725    1.2424 C   0  0  0  0  0  0  0  0  0  0  0  0
    4.8165    0.2103    1.9217 C   0  0  0  0  0  0  0  0  0  0  0  0
    5.3901   -1.1153    1.4262 C   0  0  0  0  0  0  0  0  0  0  0  0
    6.1067   -1.0247    0.0761 C   0  0  0  0  0  0  0  0  0  0  0  0
    5.4158   -0.1978   -1.0111 C   0  0  0  0  0  0  0  0  0  0  0  0
    3.9080   -0.4182   -1.1052 C   0  0  0  0  0  0  0  0  0  0  0  0
    2.3424    1.4398    2.1253 S   0  0  0  0  0  0  0  0  0  0  0  0
   -0.5801    1.6272   -0.9518 H   0  0  0  0  0  0  0  0  0  0  0  0
   -2.2767    3.4619    0.6443 H   0  0  0  0  0  0  0  0  0  0  0  0
   -2.4454    3.0941   -1.0766 H   0  0  0  0  0  0  0  0  0  0  0  0
   -4.1033    2.0203    0.6419 H   0  0  0  0  0  0  0  0  0  0  0  0
   -2.7869    0.9397    1.0869 H   0  0  0  0  0  0  0  0  0  0  0  0
   -3.9346    1.2418   -1.7747 H   0  0  0  0  0  0  0  0  0  0  0  0
   -2.1906   -2.3225   -1.5856 H   0  0  0  0  0  0  0  0  0  0  0  0
   -4.3625   -3.7946   -0.7912 H   0  0  0  0  0  0  0  0  0  0  0  0
   -6.6725   -3.5665    0.1147 H   0  0  0  0  0  0  0  0  0  0  0  0
   -7.6256   -1.3258    0.5711 H   0  0  0  0  0  0  0  0  0  0  0  0
   -6.2958    0.7296    0.1359 H   0  0  0  0  0  0  0  0  0  0  0  0
    1.3012    0.7590   -1.2507 H   0  0  0  0  0  0  0  0  0  0  0  0
    5.5433    1.0177    1.7790 H   0  0  0  0  0  0  0  0  0  0  0  0
    4.6494    0.1198    3.0025 H   0  0  0  0  0  0  0  0  0  0  0  0
    4.5995   -1.8753    1.3741 H   0  0  0  0  0  0  0  0  0  0  0  0
    6.1153   -1.4833    2.1628 H   0  0  0  0  0  0  0  0  0  0  0  0
    7.1089   -0.6086    0.2319 H   0  0  0  0  0  0  0  0  0  0  0  0
    6.2623   -2.0456   -0.2958 H   0  0  0  0  0  0  0  0  0  0  0  0
    5.6320    0.8670   -0.8570 H   0  0  0  0  0  0  0  0  0  0  0  0
    5.8734   -0.4636   -1.9724 H   0  0  0  0  0  0  0  0  0  0  0  0
    3.6717   -1.4874   -1.0541 H   0  0  0  0  0  0  0  0  0  0  0  0
    3.5780   -0.0699   -2.0920 H   0  0  0  0  0  0  0  0  0  0  0  0
  1  2  2  0
  2  3  1  0
  3  4  1  0
  4  5  1  0
  5  6  1  0
  6  7  1  0
  7  8  2  0
  7  9  1  0
  9 10  1  0
 10 11  2  0
 11 12  1  0
 12 13  2  0
 13 14  1  0
 14 15  2  0
  2 16  1  0
 16 17  2  0
 17 18  1  0
 18 19  2  0
 19 20  1  0
 20 21  1  0
 21 22  1  0
 22 23  1  0
 23 24  1  0
 19 25  1  0
 15  6  1  0
 25 16  1  0
 15 10  1  0
 24 18  1  0
  3 26  1  0
  4 27  1  0
  4 28  1  0
  5 29  1  0
  5 30  1  0
  6 31  1  0
  9 32  1  0
 11 33  1  0
 12 34  1  0
 13 35  1  0
 14 36  1  0
 17 37  1  0
 20 38  1  0
 20 39  1  0
 21 40  1  0
 21 41  1  0
 22 42  1  0
 22 43  1  0
 23 44  1  0
 23 45  1  0
 24 46  1  0
 24 47  1  0
M  END
$$$$
OCNT-2313567
     RDKit          3D

 37 40  0  0  0  0  0  0  0  0999 V2000
    5.4490   -2.2037    0.4483 C   0  0  0  0  0  0  0  0  0  0  0  0
    4.1791   -1.5279    0.4838 N   0  0  0  0  0  0  0  0  0  0  0  0
    3.5192   -1.1138    1.6083 C   0  0  0  0  0  0  0  0  0  0  0  0
    2.3798   -0.5192    1.3188 N   0  0  0  0  0  0  0  0  0  0  0  0
    2.2998   -0.5589   -0.0620 C   0  0  0  0  0  0  0  0  0  0  0  0
    1.3311   -0.0913   -0.9612 C   0  0  0  0  0  0  0  0  0  0  0  0
    0.0941    0.5888   -0.5116 C   0  0  0  0  0  0  0  0  0  0  0  0
   -0.6002    1.1386   -1.3609 O   0  0  0  0  0  0  0  0  0  0  0  0
   -0.1235    0.5947    0.8508 N   0  0  0  0  0  0  0  0  0  0  0  0
   -1.2603    1.0779    1.4744 C   0  0  0  0  0  0  0  0  0  0  0  0
   -1.2530    1.4528    2.7985 C   0  0  0  0  0  0  0  0  0  0  0  0
   -2.4949    1.9396    3.0593 N   0  0  0  0  0  0  0  0  0  0  0  0
   -3.3319    1.8794    2.0170 N   0  0  0  0  0  0  0  0  0  0  0  0
   -2.6110    1.2812    1.0423 C   0  0  0  0  0  0  0  0  0  0  0  0
   -3.2589    0.8628   -0.2030 C   0  0  0  0  0  0  0  0  0  0  0  0
   -4.0423    1.7605   -0.9235 C   0  0  0  0  0  0  0  0  0  0  0  0
   -4.6745    1.3150   -2.0809 C   0  0  0  0  0  0  0  0  0  0  0  0
   -4.5129   -0.0077   -2.4770 C   0  0  0  0  0  0  0  0  0  0  0  0
   -3.7284   -0.8377   -1.6921 C   0  0  0  0  0  0  0  0  0  0  0  0
   -3.1072   -0.4423   -0.5611 N   0  0  0  0  0  0  0  0  0  0  0  0
    1.5725   -0.2856   -2.3285 C   0  0  0  0  0  0  0  0  0  0  0  0
    2.7376   -0.9300   -2.7240 C   0  0  0  0  0  0  0  0  0  0  0  0
    3.6998   -1.4043   -1.8968 N   0  0  0  0  0  0  0  0  0  0  0  0
    3.4199   -1.1842   -0.5984 C   0  0  0  0  0  0  0  0  0  0  0  0
    6.0495   -1.8790    1.3025 H   0  0  0  0  0  0  0  0  0  0  0  0
    5.2659   -3.2799    0.5011 H   0  0  0  0  0  0  0  0  0  0  0  0
    5.9728   -1.9513   -0.4773 H   0  0  0  0  0  0  0  0  0  0  0  0
    3.9105   -1.2713    2.6055 H   0  0  0  0  0  0  0  0  0  0  0  0
    0.6526    0.3270    1.4549 H   0  0  0  0  0  0  0  0  0  0  0  0
   -0.4779    1.4529    3.5502 H   0  0  0  0  0  0  0  0  0  0  0  0
   -2.8434    2.3295    3.9283 H   0  0  0  0  0  0  0  0  0  0  0  0
   -4.1547    2.7853   -0.5871 H   0  0  0  0  0  0  0  0  0  0  0  0
   -5.2867    1.9946   -2.6650 H   0  0  0  0  0  0  0  0  0  0  0  0
   -4.9887   -0.3840   -3.3755 H   0  0  0  0  0  0  0  0  0  0  0  0
   -3.5760   -1.8784   -1.9605 H   0  0  0  0  0  0  0  0  0  0  0  0
    0.8578    0.0589   -3.0706 H   0  0  0  0  0  0  0  0  0  0  0  0
    2.9353   -1.0890   -3.7825 H   0  0  0  0  0  0  0  0  0  0  0  0
  1  2  1  0
  2  3  1  0
  3  4  2  0
  4  5  1  0
  5  6  2  0
  6  7  1  0
  7  8  2  0
  7  9  1  0
  9 10  1  0
 10 11  2  0
 11 12  1  0
 12 13  1  0
 13 14  2  0
 14 15  1  0
 15 16  2  0
 16 17  1  0
 17 18  2  0
 18 19  1  0
 19 20  2  0
  6 21  1  0
 21 22  2  0
 22 23  1  0
 23 24  2  0
 24  2  1  0
 24  5  1  0
 14 10  1  0
 20 15  1  0
  1 25  1  0
  1 26  1  0
  1 27  1  0
  3 28  1  0
  9 29  1  0
 11 30  1  0
 12 31  1  0
 16 32  1  0
 17 33  1  0
 18 34  1  0
 19 35  1  0
 21 36  1  0
 22 37  1  0
M  END
$$$$
OCNT-2313571
     RDKit          3D

  0  0  0  0  0  0  0  0  0  0999 V3000
M  V30 BEGIN CTAB
M  V30 COUNTS 43 46 0 0 0
M  V30 BEGIN ATOM
M  V30 1 O 4.212690 3.704371 -2.142660 0
M  V30 2 C 3.524192 2.876922 -1.560870 0
M  V30 3 C 2.242733 2.414807 -2.102615 0
M  V30 4 C 1.520165 1.576045 -1.346250 0
M  V30 5 C 0.211405 1.108611 -1.926500 0
M  V30 6 O -0.217505 1.466274 -3.020710 0
M  V30 7 N -0.461010 0.248640 -1.097699 0
M  V30 8 C -1.774224 -0.296959 -1.411079 0 CFG=1
M  V30 9 C -1.992054 -1.556168 -0.592357 0
M  V30 10 C -1.261600 -2.714027 -0.911747 0
M  V30 11 C -1.411977 -3.881813 -0.164887 0
M  V30 12 C -2.290718 -3.907622 0.914251 0
M  V30 13 C -3.019893 -2.767388 1.245696 0
M  V30 14 C -2.867889 -1.580051 0.511274 0
M  V30 15 C -3.699846 -0.382758 0.893994 0
M  V30 16 C -3.209531 0.923154 0.277852 0
M  V30 17 C -2.918465 0.737793 -1.207669 0 CFG=1
M  V30 18 O -2.636540 2.025204 -1.763996 0
M  V30 19 N 1.892878 1.113342 -0.098947 0
M  V30 20 C 3.045805 1.508457 0.328252 0
M  V30 21 C 3.528632 1.066570 1.654545 0
M  V30 22 C 4.533491 -0.062795 1.738261 0
M  V30 23 C 3.132510 -0.271246 2.240378 0
M  V30 24 N 3.880083 2.336219 -0.363060 0
M  V30 25 H 1.935519 2.784014 -3.068713 0
M  V30 26 H -0.049222 0.075759 -0.185115 0
M  V30 27 H -1.765051 -0.558263 -2.477558 0
M  V30 28 H -0.564956 -2.707310 -1.748135 0
M  V30 29 H -0.838957 -4.767545 -0.418259 0
M  V30 30 H -2.413897 -4.818298 1.494722 0
M  V30 31 H -3.708363 -2.805411 2.088143 0
M  V30 32 H -4.734782 -0.567641 0.574785 0
M  V30 33 H -3.703481 -0.275339 1.987623 0
M  V30 34 H -2.299819 1.268156 0.791231 0
M  V30 35 H -3.952787 1.713689 0.430585 0
M  V30 36 H -3.824780 0.369863 -1.706278 0
M  V30 37 H -2.020050 1.898608 -2.518215 0
M  V30 38 H 3.632786 1.877853 2.372479 0
M  V30 39 H 4.813114 -0.591786 0.834800 0
M  V30 40 H 5.327713 0.024314 2.468135 0
M  V30 41 H 2.470837 -0.916464 1.668158 0
M  V30 42 H 2.975969 -0.333690 3.312685 0
M  V30 43 H 4.756875 2.643911 0.033018 0
M  V30 END ATOM
M  V30 BEGIN BOND
M  V30 1 2 1 2
M  V30 2 1 2 3
M  V30 3 2 3 4
M  V30 4 1 4 5
M  V30 5 2 5 6
M  V30 6 1 5 7
M  V30 7 1 7 8
M  V30 8 1 8 9
M  V30 9 2 9 10
M  V30 10 1 10 11
M  V30 11 2 11 12
M  V30 12 1 12 13
M  V30 13 2 13 14
M  V30 14 1 14 15
M  V30 15 1 15 16
M  V30 16 1 16 17
M  V30 17 1 17 18
M  V30 18 1 4 19
M  V30 19 2 19 20
M  V30 20 1 20 21
M  V30 21 1 21 22
M  V30 22 1 22 23
M  V30 23 1 20 24
M  V30 24 1 24 2
M  V30 25 1 17 8
M  V30 26 1 23 21
M  V30 27 1 14 9
M  V30 28 1 3 25
M  V30 29 1 7 26
M  V30 30 1 8 27 CFG=3
M  V30 31 1 10 28
M  V30 32 1 11 29
M  V30 33 1 12 30
M  V30 34 1 13 31
M  V30 35 1 15 32
M  V30 36 1 15 33
M  V30 37 1 16 34
M  V30 38 1 16 35
M  V30 39 1 17 36 CFG=3
M  V30 40 1 18 37
M  V30 41 1 21 38
M  V30 42 1 22 39
M  V30 43 1 22 40
M  V30 44 1 23 41
M  V30 45 1 23 42
M  V30 46 1 24 43
M  V30 END BOND
M  V30 BEGIN COLLECTION
M  V30 MDLV30/STERAC1 ATOMS=(2 8 17)
M  V30 END COLLECTION
M  V30 END CTAB
M  END
>  <_CXSMILES_Data>  (730) 
|&1:7,16|

$$$$
OCNT-2313573
     RDKit          3D

 58 63  0  0  0  0  0  0  0  0999 V2000
    0.6035    1.9374    1.5137 O   0  0  0  0  0  0  0  0  0  0  0  0
    0.6001    0.9789    0.7447 C   0  0  0  0  0  0  0  0  0  0  0  0
   -0.4221    0.0585    0.6567 N   0  0  0  0  0  0  0  0  0  0  0  0
   -1.5439   -0.0653    1.5045 C   0  0  0  0  0  0  0  0  0  0  0  0
   -1.6806    0.6038    2.7209 C   0  0  0  0  0  0  0  0  0  0  0  0
   -2.8254    0.4252    3.5028 C   0  0  0  0  0  0  0  0  0  0  0  0
   -3.8381   -0.4352    3.0829 C   0  0  0  0  0  0  0  0  0  0  0  0
   -3.7093   -1.1379    1.8797 C   0  0  0  0  0  0  0  0  0  0  0  0
   -4.8050   -2.0615    1.4070 C   0  0  0  0  0  0  0  0  0  0  0  0
   -5.7071   -1.4043    0.4950 N   0  0  0  0  0  0  0  0  0  0  0  0
   -5.4482   -1.2581   -0.8599 N   0  0  0  0  0  0  0  0  0  0  0  0
   -6.4214   -0.5034   -1.2702 C   0  0  0  0  0  0  0  0  0  0  0  0
   -6.6681   -0.0186   -2.6446 C   0  0  0  0  0  0  0  0  0  0  0  0
   -7.7412    0.7645   -2.8492 C   0  0  0  0  0  0  0  0  0  0  0  0
   -8.6318    1.1284   -1.7608 C   0  0  0  0  0  0  0  0  0  0  0  0
   -8.3902    0.6773   -0.5202 C   0  0  0  0  0  0  0  0  0  0  0  0
   -7.3031   -0.1239   -0.3084 N   0  0  0  0  0  0  0  0  0  0  0  0
   -6.8532   -0.6829    0.8639 C   0  0  0  0  0  0  0  0  0  0  0  0
   -7.3347   -0.5781    1.9821 O   0  0  0  0  0  0  0  0  0  0  0  0
   -2.5613   -0.9384    1.0949 C   0  0  0  0  0  0  0  0  0  0  0  0
    1.6619    0.7516   -0.1305 N   0  0  0  0  0  0  0  0  0  0  0  0
    1.8029   -0.4158   -0.9970 C   0  0  0  0  0  0  0  0  0  0  0  0
    3.2331   -0.7065   -1.3410 C   0  0  0  0  0  0  0  0  0  0  0  0
    4.2873    0.0235   -0.9322 C   0  0  0  0  0  0  0  0  0  0  0  0
    5.6446   -0.2671   -1.2778 C   0  0  0  0  0  0  0  0  0  0  0  0
    6.0671   -0.5653   -2.5606 C   0  0  0  0  0  0  0  0  0  0  0  0
    7.4225   -0.7685   -2.5222 N   0  0  0  0  0  0  0  0  0  0  0  0
    7.8794   -0.6186   -1.2432 C   0  0  0  0  0  0  0  0  0  0  0  0
    9.1682   -0.7612   -0.8821 N   0  0  0  0  0  0  0  0  0  0  0  0
    9.3658   -0.5746    0.4423 C   0  0  0  0  0  0  0  0  0  0  0  0
    8.3816   -0.2710    1.3730 C   0  0  0  0  0  0  0  0  0  0  0  0
    7.0610   -0.1344    0.9418 C   0  0  0  0  0  0  0  0  0  0  0  0
    6.7935   -0.3084   -0.4285 C   0  0  0  0  0  0  0  0  0  0  0  0
    4.0757    1.2707   -0.1116 C   0  0  0  0  0  0  0  0  0  0  0  0
    2.6582    1.8092   -0.3024 C   0  0  0  0  0  0  0  0  0  0  0  0
   -0.4824   -0.4544   -0.2064 H   0  0  0  0  0  0  0  0  0  0  0  0
   -0.9116    1.2751    3.0905 H   0  0  0  0  0  0  0  0  0  0  0  0
   -2.9253    0.9653    4.4411 H   0  0  0  0  0  0  0  0  0  0  0  0
   -4.7303   -0.5491    3.6964 H   0  0  0  0  0  0  0  0  0  0  0  0
   -5.3785   -2.4293    2.2661 H   0  0  0  0  0  0  0  0  0  0  0  0
   -4.3777   -2.9384    0.9069 H   0  0  0  0  0  0  0  0  0  0  0  0
   -5.9790   -0.3107   -3.4244 H   0  0  0  0  0  0  0  0  0  0  0  0
   -7.9671    1.1487   -3.8394 H   0  0  0  0  0  0  0  0  0  0  0  0
   -9.4822    1.7681   -1.9732 H   0  0  0  0  0  0  0  0  0  0  0  0
   -9.0102    0.9131    0.3382 H   0  0  0  0  0  0  0  0  0  0  0  0
   -2.4818   -1.4673    0.1473 H   0  0  0  0  0  0  0  0  0  0  0  0
    1.2343   -0.2194   -1.9124 H   0  0  0  0  0  0  0  0  0  0  0  0
    1.3778   -1.2971   -0.5063 H   0  0  0  0  0  0  0  0  0  0  0  0
    3.3980   -1.5941   -1.9473 H   0  0  0  0  0  0  0  0  0  0  0  0
    5.5284   -0.6382   -3.4958 H   0  0  0  0  0  0  0  0  0  0  0  0
    8.0199   -0.9969   -3.3026 H   0  0  0  0  0  0  0  0  0  0  0  0
   10.3997   -0.6844    0.7616 H   0  0  0  0  0  0  0  0  0  0  0  0
    8.6360   -0.1451    2.4198 H   0  0  0  0  0  0  0  0  0  0  0  0
    6.2708    0.0911    1.6492 H   0  0  0  0  0  0  0  0  0  0  0  0
    4.7859    2.0581   -0.3916 H   0  0  0  0  0  0  0  0  0  0  0  0
    4.2319    1.0374    0.9481 H   0  0  0  0  0  0  0  0  0  0  0  0
    2.4905    2.6423    0.3873 H   0  0  0  0  0  0  0  0  0  0  0  0
    2.5312    2.2083   -1.3170 H   0  0  0  0  0  0  0  0  0  0  0  0
  1  2  2  0
  2  3  1  0
  3  4  1  0
  4  5  1  0
  5  6  2  0
  6  7  1  0
  7  8  2  0
  8  9  1  0
  9 10  1  0
 10 11  1  0
 11 12  2  0
 12 13  1  0
 13 14  2  0
 14 15  1  0
 15 16  2  0
 16 17  1  0
 17 18  1  0
 18 19  2  0
  8 20  1  0
  2 21  1  0
 21 22  1  0
 22 23  1  0
 23 24  2  0
 24 25  1  0
 25 26  2  0
 26 27  1  0
 27 28  1  0
 28 29  1  0
 29 30  2  0
 30 31  1  0
 31 32  2  0
 32 33  1  0
 24 34  1  0
 34 35  1  0
 20  4  2  0
 35 21  1  0
 18 10  1  0
 33 25  1  0
 17 12  1  0
 33 28  2  0
  3 36  1  0
  5 37  1  0
  6 38  1  0
  7 39  1  0
  9 40  1  0
  9 41  1  0
 13 42  1  0
 14 43  1  0
 15 44  1  0
 16 45  1  0
 20 46  1  0
 22 47  1  0
 22 48  1  0
 23 49  1  0
 26 50  1  0
 27 51  1  0
 30 52  1  0
 31 53  1  0
 32 54  1  0
 34 55  1  0
 34 56  1  0
 35 57  1  0
 35 58  1  0
M  END
$$$$
OCNT-2313586
     RDKit          3D

 40 42  0  0  0  0  0  0  0  0999 V2000
    4.5091    3.0043    0.5489 C   0  0  0  0  0  0  0  0  0  0  0  0
    4.3479    1.7870   -0.2692 C   0  0  0  0  0  0  0  0  0  0  0  0
    5.1668    1.1120   -1.1453 C   0  0  0  0  0  0  0  0  0  0  0  0
    4.4185    0.0018   -1.6098 C   0  0  0  0  0  0  0  0  0  0  0  0
    3.1835    0.0606   -0.9905 C   0  0  0  0  0  0  0  0  0  0  0  0
    1.9750   -0.7633   -1.0306 C   0  0  0  0  0  0  0  0  0  0  0  0
    1.9145   -1.8867   -1.8601 C   0  0  0  0  0  0  0  0  0  0  0  0
    0.7655   -2.6768   -1.9069 C   0  0  0  0  0  0  0  0  0  0  0  0
   -0.3562   -2.3650   -1.1230 C   0  0  0  0  0  0  0  0  0  0  0  0
   -1.5624   -3.2606   -1.2243 C   0  0  0  0  0  0  0  0  0  0  0  0
   -0.3151   -1.2362   -0.2762 C   0  0  0  0  0  0  0  0  0  0  0  0
   -1.4590   -0.9358    0.5043 N   0  0  0  0  0  0  0  0  0  0  0  0
   -1.6317    0.0944    1.4198 C   0  0  0  0  0  0  0  0  0  0  0  0
   -0.7911    0.9213    1.7479 O   0  0  0  0  0  0  0  0  0  0  0  0
   -3.0377    0.0831    2.0211 C   0  0  2  0  0  0  0  0  0  0  0  0
   -4.0896    0.4511    0.9921 C   0  0  0  0  0  0  0  0  0  0  0  0
   -4.1736    1.9536    1.1394 C   0  0  0  0  0  0  0  0  0  0  0  0
   -4.0120    2.2108    2.5353 O   0  0  0  0  0  0  0  0  0  0  0  0
   -3.2373    1.1382    3.1011 C   0  0  0  0  0  0  0  0  0  0  0  0
    0.8491   -0.4536   -0.2456 C   0  0  0  0  0  0  0  0  0  0  0  0
    3.1471    1.1553   -0.1722 O   0  0  0  0  0  0  0  0  0  0  0  0
    3.7564    3.7509    0.2774 H   0  0  0  0  0  0  0  0  0  0  0  0
    5.4984    3.4484    0.4015 H   0  0  0  0  0  0  0  0  0  0  0  0
    4.3959    2.7688    1.6116 H   0  0  0  0  0  0  0  0  0  0  0  0
    6.1771    1.3852   -1.4155 H   0  0  0  0  0  0  0  0  0  0  0  0
    4.7462   -0.7502   -2.3126 H   0  0  0  0  0  0  0  0  0  0  0  0
    2.7603   -2.1635   -2.4842 H   0  0  0  0  0  0  0  0  0  0  0  0
    0.7551   -3.5429   -2.5659 H   0  0  0  0  0  0  0  0  0  0  0  0
   -1.7869   -3.7075   -0.2504 H   0  0  0  0  0  0  0  0  0  0  0  0
   -1.3996   -4.0818   -1.9305 H   0  0  0  0  0  0  0  0  0  0  0  0
   -2.4287   -2.6925   -1.5784 H   0  0  0  0  0  0  0  0  0  0  0  0
   -2.2432   -1.5629    0.3940 H   0  0  0  0  0  0  0  0  0  0  0  0
   -3.1974   -0.9199    2.4349 H   0  0  0  0  0  0  0  0  0  0  0  0
   -3.8686    0.1526   -0.0362 H   0  0  0  0  0  0  0  0  0  0  0  0
   -5.0476    0.0016    1.2805 H   0  0  0  0  0  0  0  0  0  0  0  0
   -5.1306    2.3570    0.7974 H   0  0  0  0  0  0  0  0  0  0  0  0
   -3.3652    2.4581    0.5989 H   0  0  0  0  0  0  0  0  0  0  0  0
   -3.8241    0.7302    3.9313 H   0  0  0  0  0  0  0  0  0  0  0  0
   -2.3148    1.5497    3.5197 H   0  0  0  0  0  0  0  0  0  0  0  0
    0.9061    0.4231    0.3927 H   0  0  0  0  0  0  0  0  0  0  0  0
  1  2  1  0
  2  3  2  0
  3  4  1  0
  4  5  2  0
  5  6  1  0
  6  7  1  0
  7  8  2  0
  8  9  1  0
  9 10  1  0
  9 11  2  0
 11 12  1  0
 12 13  1  0
 13 14  2  0
 13 15  1  0
 15 16  1  0
 16 17  1  0
 17 18  1  0
 18 19  1  0
 11 20  1  0
  5 21  1  0
 21  2  1  0
 20  6  2  0
 19 15  1  0
  1 22  1  0
  1 23  1  0
  1 24  1  0
  3 25  1  0
  4 26  1  0
  7 27  1  0
  8 28  1  0
 10 29  1  0
 10 30  1  0
 10 31  1  0
 12 32  1  0
 15 33  1  1
 16 34  1  0
 16 35  1  0
 17 36  1  0
 17 37  1  0
 19 38  1  0
 19 39  1  0
 20 40  1  0
M  END
$$$$
OCNT-2313602
     RDKit          3D

 44 46  0  0  0  0  0  0  0  0999 V2000
   -5.0498    2.9958   -0.2112 C   0  0  0  0  0  0  0  0  0  0  0  0
   -4.5801    1.8362    0.4640 O   0  0  0  0  0  0  0  0  0  0  0  0
   -3.5605    1.1220   -0.1225 C   0  0  0  0  0  0  0  0  0  0  0  0
   -2.8677    1.5533   -1.2590 C   0  0  0  0  0  0  0  0  0  0  0  0
   -1.8379    0.7799   -1.7852 C   0  0  0  0  0  0  0  0  0  0  0  0
   -1.4941   -0.4280   -1.1722 C   0  0  0  0  0  0  0  0  0  0  0  0
   -0.3729   -1.1784   -1.7737 C   0  0  0  0  0  0  0  0  0  0  0  0
   -0.6044   -1.9327   -2.7122 O   0  0  0  0  0  0  0  0  0  0  0  0
    0.8856   -0.9599   -1.2502 N   0  0  0  0  0  0  0  0  0  0  0  0
    2.0498   -1.6315   -1.7953 C   0  0  0  0  0  0  0  0  0  0  0  0
    3.2296   -0.8738   -1.2039 C   0  0  0  0  0  0  0  0  0  0  0  0
    2.6977   -0.4182    0.1600 C   0  0  0  0  0  0  0  0  0  0  0  0
    3.4438    0.7594    0.7712 C   0  0  0  0  0  0  0  0  0  0  0  0
    5.0860    0.3045    1.3135 S   0  0  0  0  0  0  0  0  0  0  0  0
    5.5990    1.7214    2.0483 N   0  0  0  0  0  0  0  0  0  0  0  0
    4.9955   -0.6685    2.3753 O   0  0  0  0  0  0  0  0  0  0  0  0
    5.9504    0.1320    0.1710 O   0  0  0  0  0  0  0  0  0  0  0  0
    1.2422   -0.0712   -0.1546 C   0  0  0  0  0  0  0  0  0  0  0  0
   -2.1813   -0.9096   -0.0353 C   0  0  0  0  0  0  0  0  0  0  0  0
   -1.8756   -2.1439    0.5873 C   0  0  0  0  0  0  0  0  0  0  0  0
   -2.5641   -2.5814    1.7181 C   0  0  0  0  0  0  0  0  0  0  0  0
   -3.5761   -1.7980    2.2517 C   0  0  0  0  0  0  0  0  0  0  0  0
   -3.9014   -0.5818    1.6496 C   0  0  0  0  0  0  0  0  0  0  0  0
   -3.2240   -0.1115    0.5019 C   0  0  0  0  0  0  0  0  0  0  0  0
   -5.9001    3.3894    0.3541 H   0  0  0  0  0  0  0  0  0  0  0  0
   -4.2800    3.7737   -0.2368 H   0  0  0  0  0  0  0  0  0  0  0  0
   -5.4043    2.7532   -1.2185 H   0  0  0  0  0  0  0  0  0  0  0  0
   -3.1042    2.4873   -1.7573 H   0  0  0  0  0  0  0  0  0  0  0  0
   -1.3039    1.1131   -2.6720 H   0  0  0  0  0  0  0  0  0  0  0  0
    2.0391   -1.6172   -2.8892 H   0  0  0  0  0  0  0  0  0  0  0  0
    2.0283   -2.6716   -1.4516 H   0  0  0  0  0  0  0  0  0  0  0  0
    3.4699   -0.0074   -1.8324 H   0  0  0  0  0  0  0  0  0  0  0  0
    4.1212   -1.5027   -1.1306 H   0  0  0  0  0  0  0  0  0  0  0  0
    2.7172   -1.2765    0.8452 H   0  0  0  0  0  0  0  0  0  0  0  0
    3.5493    1.5839    0.0586 H   0  0  0  0  0  0  0  0  0  0  0  0
    2.9105    1.1195    1.6577 H   0  0  0  0  0  0  0  0  0  0  0  0
    6.4144    2.0938    1.5570 H   0  0  0  0  0  0  0  0  0  0  0  0
    5.7704    1.5566    3.0426 H   0  0  0  0  0  0  0  0  0  0  0  0
    1.1275    0.9593   -0.5093 H   0  0  0  0  0  0  0  0  0  0  0  0
    0.5883   -0.2248    0.7080 H   0  0  0  0  0  0  0  0  0  0  0  0
   -1.0941   -2.7873    0.1851 H   0  0  0  0  0  0  0  0  0  0  0  0
   -2.3115   -3.5350    2.1742 H   0  0  0  0  0  0  0  0  0  0  0  0
   -4.1211   -2.1315    3.1307 H   0  0  0  0  0  0  0  0  0  0  0  0
   -4.7065    0.0081    2.0853 H   0  0  0  0  0  0  0  0  0  0  0  0
  1  2  1  0
  2  3  1  0
  3  4  2  0
  4  5  1  0
  5  6  2  0
  6  7  1  0
  7  8  2  0
  7  9  1  0
  9 10  1  0
 10 11  1  0
 11 12  1  0
 12 13  1  0
 13 14  1  0
 14 15  1  0
 14 16  2  0
 14 17  2  0
 12 18  1  0
  6 19  1  0
 19 20  2  0
 20 21  1  0
 21 22  2  0
 22 23  1  0
 23 24  2  0
 24  3  1  0
 18  9  1  0
 24 19  1  0
  1 25  1  0
  1 26  1  0
  1 27  1  0
  4 28  1  0
  5 29  1  0
 10 30  1  0
 10 31  1  0
 11 32  1  0
 11 33  1  0
 12 34  1  0
 13 35  1  0
 13 36  1  0
 15 37  1  0
 15 38  1  0
 18 39  1  0
 18 40  1  0
 20 41  1  0
 21 42  1  0
 22 43  1  0
 23 44  1  0
M  END
$$$$
OCNT-2313618
     RDKit          3D

 39 42  0  0  0  0  0  0  0  0999 V2000
   -0.1415   -2.4961    0.2896 O   0  0  0  0  0  0  0  0  0  0  0  0
    0.1455   -1.3530   -0.0571 C   0  0  0  0  0  0  0  0  0  0  0  0
   -0.7968   -0.4782   -0.5654 N   0  0  0  0  0  0  0  0  0  0  0  0
   -2.2033   -0.8107   -0.5584 C   0  0  0  0  0  0  0  0  0  0  0  0
   -2.8467   -0.2692    0.7072 C   0  0  0  0  0  0  0  0  0  0  0  0
   -2.9278   -1.0895    1.8403 C   0  0  0  0  0  0  0  0  0  0  0  0
   -3.4820   -0.5785    3.0033 C   0  0  0  0  0  0  0  0  0  0  0  0
   -3.9537    0.6805    3.1192 N   0  0  0  0  0  0  0  0  0  0  0  0
   -3.8540    1.4645    2.0263 C   0  0  0  0  0  0  0  0  0  0  0  0
   -3.3104    1.0469    0.8203 C   0  0  0  0  0  0  0  0  0  0  0  0
   -2.9113   -0.3139   -1.8017 C   0  0  0  0  0  0  0  0  0  0  0  0
   -2.4776    0.8842   -2.6214 C   0  0  0  0  0  0  0  0  0  0  0  0
   -2.2930   -0.5034   -3.1695 C   0  0  0  0  0  0  0  0  0  0  0  0
    1.5083   -0.8043    0.0477 C   0  0  0  0  0  0  0  0  0  0  0  0
    1.9919    0.4017   -0.4672 C   0  0  0  0  0  0  0  0  0  0  0  0
    3.2858    0.4161   -0.1017 N   0  0  0  0  0  0  0  0  0  0  0  0
    4.4158    1.3056   -0.2535 C   0  0  0  0  0  0  0  0  0  0  0  0
    5.4041    0.7475    0.7884 C   0  0  0  0  0  0  0  0  0  0  0  0
    4.9907   -0.7282    1.0239 C   0  0  0  0  0  0  0  0  0  0  0  0
    3.5791   -0.7082    0.5981 C   0  0  0  0  0  0  0  0  0  0  0  0
    2.5373   -1.4847    0.7133 N   0  0  0  0  0  0  0  0  0  0  0  0
   -0.5544    0.4969   -0.6078 H   0  0  0  0  0  0  0  0  0  0  0  0
   -2.3160   -1.9024   -0.5643 H   0  0  0  0  0  0  0  0  0  0  0  0
   -2.5508   -2.1090    1.8243 H   0  0  0  0  0  0  0  0  0  0  0  0
   -3.5573   -1.1878    3.8995 H   0  0  0  0  0  0  0  0  0  0  0  0
   -4.2323    2.4754    2.1484 H   0  0  0  0  0  0  0  0  0  0  0  0
   -3.2577    1.7445   -0.0075 H   0  0  0  0  0  0  0  0  0  0  0  0
   -3.9777   -0.5205   -1.7418 H   0  0  0  0  0  0  0  0  0  0  0  0
   -3.2551    1.4997   -3.0620 H   0  0  0  0  0  0  0  0  0  0  0  0
   -1.5891    1.4384   -2.3485 H   0  0  0  0  0  0  0  0  0  0  0  0
   -2.9421   -0.8241   -3.9770 H   0  0  0  0  0  0  0  0  0  0  0  0
   -1.2849   -0.8976   -3.2382 H   0  0  0  0  0  0  0  0  0  0  0  0
    1.5329    1.1900   -1.0446 H   0  0  0  0  0  0  0  0  0  0  0  0
    4.7883    1.2011   -1.2765 H   0  0  0  0  0  0  0  0  0  0  0  0
    4.1084    2.3327   -0.0439 H   0  0  0  0  0  0  0  0  0  0  0  0
    6.4474    0.8459    0.4736 H   0  0  0  0  0  0  0  0  0  0  0  0
    5.2907    1.3058    1.7271 H   0  0  0  0  0  0  0  0  0  0  0  0
    5.5743   -1.4006    0.3872 H   0  0  0  0  0  0  0  0  0  0  0  0
    5.1151   -1.0174    2.0704 H   0  0  0  0  0  0  0  0  0  0  0  0
  1  2  2  0
  2  3  1  0
  3  4  1  0
  4  5  1  0
  5  6  2  0
  6  7  1  0
  7  8  2  0
  8  9  1  0
  9 10  2  0
  4 11  1  0
 11 12  1  0
 12 13  1  0
  2 14  1  0
 14 15  2  0
 15 16  1  0
 16 17  1  0
 17 18  1  0
 18 19  1  0
 19 20  1  0
 20 21  2  0
 10  5  1  0
 13 11  1  0
 21 14  1  0
 20 16  1  0
  3 22  1  0
  4 23  1  0
  6 24  1  0
  7 25  1  0
  9 26  1  0
 10 27  1  0
 11 28  1  0
 12 29  1  0
 12 30  1  0
 13 31  1  0
 13 32  1  0
 15 33  1  0
 17 34  1  0
 17 35  1  0
 18 36  1  0
 18 37  1  0
 19 38  1  0
 19 39  1  0
M  END
$$$$
OCNT-2313623
     RDKit          3D

 38 40  0  0  0  0  0  0  0  0999 V2000
   -2.0561   -1.2296    1.8445 N   0  0  0  0  0  0  0  0  0  0  0  0
   -1.7012   -0.3177    0.8915 C   0  0  0  0  0  0  0  0  0  0  0  0
   -0.4635    0.2890    0.7061 C   0  0  0  0  0  0  0  0  0  0  0  0
    0.7002    0.1040    1.5656 C   0  0  0  0  0  0  0  0  0  0  0  0
    0.5641   -0.2748    2.7311 O   0  0  0  0  0  0  0  0  0  0  0  0
    1.9713    0.3192    1.0517 N   0  0  0  0  0  0  0  0  0  0  0  0
    3.1297    0.1493    1.9108 C   0  0  0  0  0  0  0  0  0  0  0  0
    4.3182    0.4905    1.0301 C   0  0  0  0  0  0  0  0  0  0  0  0
    3.8675    0.0140   -0.3509 C   0  0  2  0  0  0  0  0  0  0  0  0
    4.5351    0.6782   -1.4113 O   0  0  0  0  0  0  0  0  0  0  0  0
    5.8250    0.1512   -1.6595 C   0  0  0  0  0  0  0  0  0  0  0  0
    6.6114    0.3916   -0.5865 F   0  0  0  0  0  0  0  0  0  0  0  0
    6.3492    0.8387   -2.7000 F   0  0  0  0  0  0  0  0  0  0  0  0
    2.3788    0.3917   -0.3450 C   0  0  0  0  0  0  0  0  0  0  0  0
   -0.6474    1.0767   -0.4443 C   0  0  0  0  0  0  0  0  0  0  0  0
   -1.8454    0.9342   -1.0024 N   0  0  0  0  0  0  0  0  0  0  0  0
   -2.5479    0.1594   -0.1240 N   0  0  0  0  0  0  0  0  0  0  0  0
   -3.9600   -0.0353   -0.3221 C   0  0  0  0  0  0  0  0  0  0  0  0
   -4.7715   -0.4850    0.7181 C   0  0  0  0  0  0  0  0  0  0  0  0
   -6.1375   -0.6558    0.4874 C   0  0  0  0  0  0  0  0  0  0  0  0
   -6.6635   -0.3680   -0.7648 C   0  0  0  0  0  0  0  0  0  0  0  0
   -5.8009    0.0926   -1.7412 C   0  0  0  0  0  0  0  0  0  0  0  0
   -4.4769    0.2669   -1.5482 N   0  0  0  0  0  0  0  0  0  0  0  0
   -1.3174   -1.5029    2.5023 H   0  0  0  0  0  0  0  0  0  0  0  0
   -2.6048   -2.0420    1.5662 H   0  0  0  0  0  0  0  0  0  0  0  0
    3.1659   -0.8969    2.2363 H   0  0  0  0  0  0  0  0  0  0  0  0
    3.0535    0.7923    2.7929 H   0  0  0  0  0  0  0  0  0  0  0  0
    4.5017    1.5721    1.0191 H   0  0  0  0  0  0  0  0  0  0  0  0
    5.2359    0.0040    1.3727 H   0  0  0  0  0  0  0  0  0  0  0  0
    3.9655   -1.0762   -0.4404 H   0  0  0  0  0  0  0  0  0  0  0  0
    5.8080   -0.9173   -1.8960 H   0  0  0  0  0  0  0  0  0  0  0  0
    1.7894   -0.2874   -0.9681 H   0  0  0  0  0  0  0  0  0  0  0  0
    2.2379    1.4188   -0.6973 H   0  0  0  0  0  0  0  0  0  0  0  0
    0.0474    1.7490   -0.9275 H   0  0  0  0  0  0  0  0  0  0  0  0
   -4.3934   -0.6578    1.7184 H   0  0  0  0  0  0  0  0  0  0  0  0
   -6.7877   -0.9956    1.2891 H   0  0  0  0  0  0  0  0  0  0  0  0
   -7.7213   -0.4858   -0.9707 H   0  0  0  0  0  0  0  0  0  0  0  0
   -6.1592    0.3448   -2.7351 H   0  0  0  0  0  0  0  0  0  0  0  0
  1  2  1  0
  2  3  2  0
  3  4  1  0
  4  5  2  0
  4  6  1  0
  6  7  1  0
  7  8  1  0
  8  9  1  0
  9 10  1  0
 10 11  1  0
 11 12  1  0
 11 13  1  0
  9 14  1  0
  3 15  1  0
 15 16  2  0
 16 17  1  0
 17 18  1  0
 18 19  2  0
 19 20  1  0
 20 21  2  0
 21 22  1  0
 22 23  2  0
 17  2  1  0
 23 18  1  0
 14  6  1  0
  1 24  1  0
  1 25  1  0
  7 26  1  0
  7 27  1  0
  8 28  1  0
  8 29  1  0
  9 30  1  1
 11 31  1  0
 14 32  1  0
 14 33  1  0
 15 34  1  0
 19 35  1  0
 20 36  1  0
 21 37  1  0
 22 38  1  0
M  END
$$$$
OCNT-2313625
     RDKit          3D

 35 37  0  0  0  0  0  0  0  0999 V2000
    1.4958    1.5244   -2.6394 O   0  0  0  0  0  0  0  0  0  0  0  0
    0.8230    0.8844   -1.8384 C   0  0  0  0  0  0  0  0  0  0  0  0
    1.1618   -0.3292   -1.2677 N   0  0  0  0  0  0  0  0  0  0  0  0
    2.3617   -1.0529   -1.4421 C   0  0  0  0  0  0  0  0  0  0  0  0
    2.4772   -2.2715   -0.7714 C   0  0  0  0  0  0  0  0  0  0  0  0
    3.6443   -3.0038   -0.9195 C   0  0  0  0  0  0  0  0  0  0  0  0
    4.6857   -2.6082   -1.6778 N   0  0  0  0  0  0  0  0  0  0  0  0
    4.5504   -1.4265   -2.3157 C   0  0  0  0  0  0  0  0  0  0  0  0
    3.4237   -0.6232   -2.2306 C   0  0  0  0  0  0  0  0  0  0  0  0
   -0.5126    1.4243   -1.4779 C   0  0  0  0  0  0  0  0  0  0  0  0
   -1.2310    2.1247   -2.4542 C   0  0  0  0  0  0  0  0  0  0  0  0
   -2.4922    2.6327   -2.1547 C   0  0  0  0  0  0  0  0  0  0  0  0
   -2.9942    2.4295   -0.8810 C   0  0  0  0  0  0  0  0  0  0  0  0
   -2.3252    1.7744    0.0921 N   0  0  0  0  0  0  0  0  0  0  0  0
   -1.0941    1.2895   -0.2200 C   0  0  0  0  0  0  0  0  0  0  0  0
   -0.3538    0.6692    0.7829 O   0  0  0  0  0  0  0  0  0  0  0  0
   -1.0645    0.2403    1.8780 C   0  0  0  0  0  0  0  0  0  0  0  0
   -1.1339    1.0736    2.9970 C   0  0  0  0  0  0  0  0  0  0  0  0
   -1.8203    0.6451    4.1337 C   0  0  0  0  0  0  0  0  0  0  0  0
   -2.4171   -0.6166    4.1490 C   0  0  0  0  0  0  0  0  0  0  0  0
   -3.2610   -1.1404    5.5543 Cl  0  0  0  0  0  0  0  0  0  0  0  0
   -2.3293   -1.4616    3.0428 C   0  0  0  0  0  0  0  0  0  0  0  0
   -1.6437   -1.0332    1.9065 C   0  0  0  0  0  0  0  0  0  0  0  0
   -1.5024   -2.1089    0.5630 Cl  0  0  0  0  0  0  0  0  0  0  0  0
    0.4765   -0.7619   -0.6571 H   0  0  0  0  0  0  0  0  0  0  0  0
    1.6844   -2.6580   -0.1414 H   0  0  0  0  0  0  0  0  0  0  0  0
    3.7752   -3.9567   -0.4147 H   0  0  0  0  0  0  0  0  0  0  0  0
    5.4015   -1.1259   -2.9204 H   0  0  0  0  0  0  0  0  0  0  0  0
    3.4102    0.3103   -2.7784 H   0  0  0  0  0  0  0  0  0  0  0  0
   -0.8098    2.2704   -3.4471 H   0  0  0  0  0  0  0  0  0  0  0  0
   -3.0671    3.1743   -2.8986 H   0  0  0  0  0  0  0  0  0  0  0  0
   -3.9747    2.8044   -0.5991 H   0  0  0  0  0  0  0  0  0  0  0  0
   -0.6697    2.0561    2.9768 H   0  0  0  0  0  0  0  0  0  0  0  0
   -1.8875    1.2976    5.0008 H   0  0  0  0  0  0  0  0  0  0  0  0
   -2.7872   -2.4463    3.0704 H   0  0  0  0  0  0  0  0  0  0  0  0
  1  2  2  0
  2  3  1  0
  3  4  1  0
  4  5  2  0
  5  6  1  0
  6  7  2  0
  7  8  1  0
  8  9  2  0
  2 10  1  0
 10 11  1  0
 11 12  2  0
 12 13  1  0
 13 14  2  0
 14 15  1  0
 15 16  1  0
 16 17  1  0
 17 18  1  0
 18 19  2  0
 19 20  1  0
 20 21  1  0
 20 22  2  0
 22 23  1  0
 23 24  1  0
  9  4  1  0
 15 10  2  0
 23 17  2  0
  3 25  1  0
  5 26  1  0
  6 27  1  0
  8 28  1  0
  9 29  1  0
 11 30  1  0
 12 31  1  0
 13 32  1  0
 18 33  1  0
 19 34  1  0
 22 35  1  0
M  END
$$$$
OCNT-2313637
     RDKit          3D

 44 47  0  0  0  0  0  0  0  0999 V2000
    1.5474   -1.8358   -1.6297 O   0  0  0  0  0  0  0  0  0  0  0  0
    1.8192   -1.4567   -0.4921 C   0  0  0  0  0  0  0  0  0  0  0  0
    0.7112   -1.3951    0.4755 C   0  0  0  0  0  0  0  0  0  0  0  0
    0.8012   -2.0237    1.7071 C   0  0  0  0  0  0  0  0  0  0  0  0
   -0.1898   -2.0016    2.6264 N   0  0  0  0  0  0  0  0  0  0  0  0
   -1.3311   -1.3565    2.2725 C   0  0  0  0  0  0  0  0  0  0  0  0
   -1.5442   -0.7177    1.0471 C   0  0  0  0  0  0  0  0  0  0  0  0
   -2.8148   -0.0489    0.7285 C   0  0  0  0  0  0  0  0  0  0  0  0
   -3.3878    0.8852    1.6262 C   0  0  0  0  0  0  0  0  0  0  0  0
   -4.5980    1.5272    1.3413 C   0  0  0  0  0  0  0  0  0  0  0  0
   -5.2186    1.2319    0.1483 C   0  0  0  0  0  0  0  0  0  0  0  0
   -6.4083    1.7742   -0.2607 O   0  0  0  0  0  0  0  0  0  0  0  0
   -6.5011    1.3814   -1.6509 C   0  0  0  0  0  0  0  0  0  0  0  0
   -5.6101    0.1611   -1.8893 C   0  0  0  0  0  0  0  0  0  0  0  0
   -4.6838    0.3227   -0.7470 C   0  0  0  0  0  0  0  0  0  0  0  0
   -3.4917   -0.3288   -0.4749 C   0  0  0  0  0  0  0  0  0  0  0  0
   -0.4819   -0.7547    0.1341 C   0  0  0  0  0  0  0  0  0  0  0  0
    3.0859   -1.0758   -0.0529 N   0  0  0  0  0  0  0  0  0  0  0  0
    3.3611   -0.0386    0.9504 C   0  0  0  0  0  0  0  0  0  0  0  0
    4.8214    0.0519    1.3889 C   0  0  0  0  0  0  0  0  0  0  0  0
    5.8529    0.2813    0.2780 C   0  0  0  0  0  0  0  0  0  0  0  0
    5.3072    0.9493   -0.9820 C   0  0  0  0  0  0  0  0  0  0  0  0
    4.2552    0.1225   -1.7277 C   0  0  0  0  0  0  0  0  0  0  0  0
    4.0456   -1.1470   -1.1065 O   0  0  0  0  0  0  0  0  0  0  0  0
    1.6879   -2.5793    2.0001 H   0  0  0  0  0  0  0  0  0  0  0  0
   -2.1105   -1.3846    3.0316 H   0  0  0  0  0  0  0  0  0  0  0  0
   -2.8832    1.1273    2.5601 H   0  0  0  0  0  0  0  0  0  0  0  0
   -5.0336    2.2395    2.0330 H   0  0  0  0  0  0  0  0  0  0  0  0
   -6.1745    2.2336   -2.2606 H   0  0  0  0  0  0  0  0  0  0  0  0
   -7.5467    1.1709   -1.8985 H   0  0  0  0  0  0  0  0  0  0  0  0
   -6.1787   -0.7689   -1.7880 H   0  0  0  0  0  0  0  0  0  0  0  0
   -5.1208    0.1982   -2.8658 H   0  0  0  0  0  0  0  0  0  0  0  0
   -3.1010   -1.0596   -1.1787 H   0  0  0  0  0  0  0  0  0  0  0  0
   -0.5741   -0.2841   -0.8428 H   0  0  0  0  0  0  0  0  0  0  0  0
    3.0078    0.9201    0.5521 H   0  0  0  0  0  0  0  0  0  0  0  0
    2.7472   -0.2291    1.8350 H   0  0  0  0  0  0  0  0  0  0  0  0
    4.9008    0.8768    2.1085 H   0  0  0  0  0  0  0  0  0  0  0  0
    5.0976   -0.8569    1.9379 H   0  0  0  0  0  0  0  0  0  0  0  0
    6.6736    0.8873    0.6815 H   0  0  0  0  0  0  0  0  0  0  0  0
    6.3066   -0.6805    0.0052 H   0  0  0  0  0  0  0  0  0  0  0  0
    4.8914    1.9346   -0.7379 H   0  0  0  0  0  0  0  0  0  0  0  0
    6.1414    1.1503   -1.6658 H   0  0  0  0  0  0  0  0  0  0  0  0
    3.3125    0.6731   -1.8354 H   0  0  0  0  0  0  0  0  0  0  0  0
    4.6095   -0.0766   -2.7452 H   0  0  0  0  0  0  0  0  0  0  0  0
  1  2  2  0
  2  3  1  0
  3  4  1  0
  4  5  2  0
  5  6  1  0
  6  7  2  0
  7  8  1  0
  8  9  1  0
  9 10  2  0
 10 11  1  0
 11 12  1  0
 12 13  1  0
 13 14  1  0
 14 15  1  0
 15 16  1  0
  7 17  1  0
  2 18  1  0
 18 19  1  0
 19 20  1  0
 20 21  1  0
 21 22  1  0
 22 23  1  0
 23 24  1  0
 17  3  2  0
 24 18  1  0
 16  8  2  0
 15 11  2  0
  4 25  1  0
  6 26  1  0
  9 27  1  0
 10 28  1  0
 13 29  1  0
 13 30  1  0
 14 31  1  0
 14 32  1  0
 16 33  1  0
 17 34  1  0
 19 35  1  0
 19 36  1  0
 20 37  1  0
 20 38  1  0
 21 39  1  0
 21 40  1  0
 22 41  1  0
 22 42  1  0
 23 43  1  0
 23 44  1  0
M  END
$$$$
OCNT-2313641
     RDKit          3D

 43 46  0  0  0  0  0  0  0  0999 V2000
   -3.9467    2.8853   -1.7716 C   0  0  0  0  0  0  0  0  0  0  0  0
   -3.5332    1.5919   -1.1165 C   0  0  0  0  0  0  0  0  0  0  0  0
   -4.3562    1.0451   -0.1038 C   0  0  0  0  0  0  0  0  0  0  0  0
   -3.8703   -0.1730    0.3601 C   0  0  0  0  0  0  0  0  0  0  0  0
   -4.4712   -0.9423    1.3154 C   0  0  0  0  0  0  0  0  0  0  0  0
   -3.6711   -2.0406    1.4233 N   0  0  0  0  0  0  0  0  0  0  0  0
   -2.5887   -2.0237    0.6228 N   0  0  0  0  0  0  0  0  0  0  0  0
   -2.6783   -0.8706   -0.0718 C   0  0  0  0  0  0  0  0  0  0  0  0
   -1.8685   -0.2984   -1.0723 C   0  0  0  0  0  0  0  0  0  0  0  0
   -0.6639   -0.9173   -1.6304 C   0  0  0  0  0  0  0  0  0  0  0  0
   -0.5919   -1.0241   -2.8538 O   0  0  0  0  0  0  0  0  0  0  0  0
    0.3732   -1.2763   -0.7923 N   0  0  0  0  0  0  0  0  0  0  0  0
    1.5988   -1.8314   -1.3353 C   0  0  0  0  0  0  0  0  0  0  0  0
    2.4305   -2.2060   -0.1191 C   0  0  0  0  0  0  0  0  0  0  0  0
    2.0197   -1.1714    0.9461 C   0  0  0  0  0  0  0  0  0  0  0  0
    2.1584   -1.7563    2.2476 O   0  0  0  0  0  0  0  0  0  0  0  0
    2.9002    0.0762    0.8714 C   0  0  0  0  0  0  0  0  0  0  0  0
    2.5876    1.1766    0.0511 C   0  0  0  0  0  0  0  0  0  0  0  0
    3.4284    2.2919   -0.0095 C   0  0  0  0  0  0  0  0  0  0  0  0
    4.5933    2.3173    0.7441 C   0  0  0  0  0  0  0  0  0  0  0  0
    5.3970    3.3871    0.6835 F   0  0  0  0  0  0  0  0  0  0  0  0
    4.9373    1.2463    1.5547 C   0  0  0  0  0  0  0  0  0  0  0  0
    4.0977    0.1316    1.6141 C   0  0  0  0  0  0  0  0  0  0  0  0
    0.5187   -0.9593    0.6264 C   0  0  0  0  0  0  0  0  0  0  0  0
   -2.3497    0.9322   -1.5914 C   0  0  0  0  0  0  0  0  0  0  0  0
   -4.5534    3.4925   -1.0917 H   0  0  0  0  0  0  0  0  0  0  0  0
   -4.5291    2.6757   -2.6738 H   0  0  0  0  0  0  0  0  0  0  0  0
   -3.0683    3.4803   -2.0424 H   0  0  0  0  0  0  0  0  0  0  0  0
   -5.2635    1.5196    0.2467 H   0  0  0  0  0  0  0  0  0  0  0  0
   -5.3702   -0.8297    1.9037 H   0  0  0  0  0  0  0  0  0  0  0  0
   -3.8030   -2.8461    2.0262 H   0  0  0  0  0  0  0  0  0  0  0  0
    2.0893   -1.0615   -1.9411 H   0  0  0  0  0  0  0  0  0  0  0  0
    1.3787   -2.6899   -1.9774 H   0  0  0  0  0  0  0  0  0  0  0  0
    2.1616   -3.2182    0.2105 H   0  0  0  0  0  0  0  0  0  0  0  0
    3.5030   -2.2180   -0.3400 H   0  0  0  0  0  0  0  0  0  0  0  0
    1.6183   -2.5649    2.2698 H   0  0  0  0  0  0  0  0  0  0  0  0
    1.6910    1.1845   -0.5647 H   0  0  0  0  0  0  0  0  0  0  0  0
    3.1816    3.1373   -0.6439 H   0  0  0  0  0  0  0  0  0  0  0  0
    5.8531    1.2810    2.1354 H   0  0  0  0  0  0  0  0  0  0  0  0
    4.3813   -0.7027    2.2542 H   0  0  0  0  0  0  0  0  0  0  0  0
   -0.0907   -1.6729    1.1888 H   0  0  0  0  0  0  0  0  0  0  0  0
    0.1524    0.0475    0.8494 H   0  0  0  0  0  0  0  0  0  0  0  0
   -1.7833    1.3945   -2.4026 H   0  0  0  0  0  0  0  0  0  0  0  0
  1  2  1  0
  2  3  2  0
  3  4  1  0
  4  5  2  0
  5  6  1  0
  6  7  1  0
  7  8  2  0
  8  9  1  0
  9 10  1  0
 10 11  2  0
 10 12  1  0
 12 13  1  0
 13 14  1  0
 14 15  1  0
 15 16  1  0
 15 17  1  0
 17 18  1  0
 18 19  2  0
 19 20  1  0
 20 21  1  0
 20 22  2  0
 22 23  1  0
 15 24  1  0
  9 25  2  0
 25  2  1  0
  8  4  1  0
 24 12  1  0
 23 17  2  0
  1 26  1  0
  1 27  1  0
  1 28  1  0
  3 29  1  0
  5 30  1  0
  6 31  1  0
 13 32  1  0
 13 33  1  0
 14 34  1  0
 14 35  1  0
 16 36  1  0
 18 37  1  0
 19 38  1  0
 22 39  1  0
 23 40  1  0
 24 41  1  0
 24 42  1  0
 25 43  1  0
M  END
$$$$
OCNT-2313643
     RDKit          3D

 48 51  0  0  0  0  0  0  0  0999 V2000
    2.5671   -1.1263    3.2390 O   0  0  0  0  0  0  0  0  0  0  0  0
    2.0573   -0.1697    2.6645 C   0  0  0  0  0  0  0  0  0  0  0  0
    2.7700    1.1859    2.6409 C   0  0  0  0  0  0  0  0  0  0  0  0
    3.4532    1.3562    1.3711 N   0  0  0  0  0  0  0  0  0  0  0  0
    2.7632    1.7448    0.2493 C   0  0  0  0  0  0  0  0  0  0  0  0
    1.5699    2.0293    0.2712 O   0  0  0  0  0  0  0  0  0  0  0  0
    3.5040    1.7425   -1.0397 C   0  0  0  0  0  0  0  0  0  0  0  0
    4.0739    0.4458   -1.5698 C   0  0  0  0  0  0  0  0  0  0  0  0
    4.9970    1.5620   -1.1737 C   0  0  0  0  0  0  0  0  0  0  0  0
    0.8787   -0.1339    1.9415 N   0  0  0  0  0  0  0  0  0  0  0  0
    0.1073   -1.2487    1.7183 C   0  0  0  0  0  0  0  0  0  0  0  0
    0.3511   -2.4765    2.1151 N   0  0  0  0  0  0  0  0  0  0  0  0
   -0.6603   -3.2527    1.6185 C   0  0  0  0  0  0  0  0  0  0  0  0
   -0.8683   -4.6346    1.7402 C   0  0  0  0  0  0  0  0  0  0  0  0
   -1.9953   -5.2038    1.1342 C   0  0  0  0  0  0  0  0  0  0  0  0
   -2.8977   -4.4120    0.4224 C   0  0  0  0  0  0  0  0  0  0  0  0
   -2.7078   -3.0308    0.2947 C   0  0  0  0  0  0  0  0  0  0  0  0
   -1.5706   -2.4834    0.9045 C   0  0  0  0  0  0  0  0  0  0  0  0
   -1.0698   -1.2020    0.9989 N   0  0  0  0  0  0  0  0  0  0  0  0
   -1.7439   -0.0148    0.5003 C   0  0  0  0  0  0  0  0  0  0  0  0
   -1.4650    0.2344   -0.9809 C   0  0  0  0  0  0  0  0  0  0  0  0
   -2.2487    1.4047   -1.5249 C   0  0  0  0  0  0  0  0  0  0  0  0
   -2.4536    1.5252   -2.8987 C   0  0  0  0  0  0  0  0  0  0  0  0
   -3.1654    2.6222   -3.3808 C   0  0  0  0  0  0  0  0  0  0  0  0
   -3.6399    3.5745   -2.4864 C   0  0  0  0  0  0  0  0  0  0  0  0
   -3.3821    3.3882   -1.1391 C   0  0  0  0  0  0  0  0  0  0  0  0
   -2.7021    2.3291   -0.6437 N   0  0  0  0  0  0  0  0  0  0  0  0
    2.0512    1.9963    2.7978 H   0  0  0  0  0  0  0  0  0  0  0  0
    3.5169    1.2177    3.4393 H   0  0  0  0  0  0  0  0  0  0  0  0
    4.3306    0.8653    1.2590 H   0  0  0  0  0  0  0  0  0  0  0  0
    3.0488    2.4038   -1.7745 H   0  0  0  0  0  0  0  0  0  0  0  0
    4.0263   -0.4351   -0.9367 H   0  0  0  0  0  0  0  0  0  0  0  0
    3.9578    0.2336   -2.6256 H   0  0  0  0  0  0  0  0  0  0  0  0
    5.5024    2.1049   -1.9683 H   0  0  0  0  0  0  0  0  0  0  0  0
    5.6162    1.4338   -0.2946 H   0  0  0  0  0  0  0  0  0  0  0  0
    0.6571    0.7291    1.4529 H   0  0  0  0  0  0  0  0  0  0  0  0
   -0.1646   -5.2389    2.3006 H   0  0  0  0  0  0  0  0  0  0  0  0
   -2.1681   -6.2736    1.2233 H   0  0  0  0  0  0  0  0  0  0  0  0
   -3.7704   -4.8759   -0.0361 H   0  0  0  0  0  0  0  0  0  0  0  0
   -3.4205   -2.4209   -0.2506 H   0  0  0  0  0  0  0  0  0  0  0  0
   -2.8193   -0.1531    0.6849 H   0  0  0  0  0  0  0  0  0  0  0  0
   -1.4345    0.8365    1.1197 H   0  0  0  0  0  0  0  0  0  0  0  0
   -1.7302   -0.6617   -1.5585 H   0  0  0  0  0  0  0  0  0  0  0  0
   -0.3944    0.4194   -1.1426 H   0  0  0  0  0  0  0  0  0  0  0  0
   -2.0704    0.7780   -3.5885 H   0  0  0  0  0  0  0  0  0  0  0  0
   -3.3428    2.7342   -4.4476 H   0  0  0  0  0  0  0  0  0  0  0  0
   -4.1924    4.4433   -2.8299 H   0  0  0  0  0  0  0  0  0  0  0  0
   -3.7216    4.1075   -0.3984 H   0  0  0  0  0  0  0  0  0  0  0  0
  1  2  2  0
  2  3  1  0
  3  4  1  0
  4  5  1  0
  5  6  2  0
  5  7  1  0
  7  8  1  0
  8  9  1  0
  2 10  1  0
 10 11  1  0
 11 12  2  0
 12 13  1  0
 13 14  2  0
 14 15  1  0
 15 16  2  0
 16 17  1  0
 17 18  2  0
 18 19  1  0
 19 20  1  0
 20 21  1  0
 21 22  1  0
 22 23  2  0
 23 24  1  0
 24 25  2  0
 25 26  1  0
 26 27  2  0
  9  7  1  0
 19 11  1  0
 27 22  1  0
 18 13  1  0
  3 28  1  0
  3 29  1  0
  4 30  1  0
  7 31  1  0
  8 32  1  0
  8 33  1  0
  9 34  1  0
  9 35  1  0
 10 36  1  0
 14 37  1  0
 15 38  1  0
 16 39  1  0
 17 40  1  0
 20 41  1  0
 20 42  1  0
 21 43  1  0
 21 44  1  0
 23 45  1  0
 24 46  1  0
 25 47  1  0
 26 48  1  0
M  END
$$$$
OCNT-2313644
     RDKit          3D

 39 41  0  0  0  0  0  0  0  0999 V2000
    5.3920    0.6709    0.5392 C   0  0  0  0  0  0  0  0  0  0  0  0
    4.2753    1.1056   -0.2612 N   0  0  0  0  0  0  0  0  0  0  0  0
    4.3845    2.2311   -0.9932 N   0  0  0  0  0  0  0  0  0  0  0  0
    3.2598    2.3744   -1.6777 N   0  0  0  0  0  0  0  0  0  0  0  0
    2.4395    1.3367   -1.3506 C   0  0  0  0  0  0  0  0  0  0  0  0
    3.0449    0.5271   -0.4134 C   0  0  0  0  0  0  0  0  0  0  0  0
    2.5514   -0.9163    0.4213 S   0  0  0  0  0  0  0  0  0  0  0  0
    2.9502   -1.9806   -0.4670 O   0  0  0  0  0  0  0  0  0  0  0  0
    3.0767   -0.7787    1.7592 O   0  0  0  0  0  0  0  0  0  0  0  0
    0.8777   -0.9144    0.4942 N   0  0  0  0  0  0  0  0  0  0  0  0
    0.2328    0.0489    1.4117 C   0  0  0  0  0  0  0  0  0  0  0  0
   -1.3102   -0.0324    1.3068 C   0  0  0  0  0  0  0  0  0  0  0  0
   -1.7908   -1.3991    1.8402 C   0  0  0  0  0  0  0  0  0  0  0  0
   -3.2457   -1.6590    1.4824 C   0  0  0  0  0  0  0  0  0  0  0  0
   -3.3936   -1.7186   -0.0335 C   0  0  0  0  0  0  0  0  0  0  0  0
   -2.8197   -0.4975   -0.7083 C   0  0  0  0  0  0  0  0  0  0  0  0
   -3.2641   -0.1752   -2.0008 C   0  0  0  0  0  0  0  0  0  0  0  0
   -2.7906    0.9598   -2.6546 C   0  0  0  0  0  0  0  0  0  0  0  0
   -1.8754    1.7904   -2.0198 C   0  0  0  0  0  0  0  0  0  0  0  0
   -1.4137    1.4710   -0.7424 C   0  0  0  0  0  0  0  0  0  0  0  0
   -1.8448    0.3049   -0.0835 C   0  0  0  0  0  0  0  0  0  0  0  0
    5.2062    0.9610    1.5758 H   0  0  0  0  0  0  0  0  0  0  0  0
    6.3044    1.1528    0.1771 H   0  0  0  0  0  0  0  0  0  0  0  0
    5.5010   -0.4121    0.4475 H   0  0  0  0  0  0  0  0  0  0  0  0
    1.4630    1.2283   -1.7991 H   0  0  0  0  0  0  0  0  0  0  0  0
    0.4441   -1.0090   -0.4262 H   0  0  0  0  0  0  0  0  0  0  0  0
    0.5361   -0.1769    2.4406 H   0  0  0  0  0  0  0  0  0  0  0  0
    0.5771    1.0617    1.1815 H   0  0  0  0  0  0  0  0  0  0  0  0
   -1.7266    0.7332    1.9775 H   0  0  0  0  0  0  0  0  0  0  0  0
   -1.6642   -1.4302    2.9292 H   0  0  0  0  0  0  0  0  0  0  0  0
   -1.1822   -2.2164    1.4331 H   0  0  0  0  0  0  0  0  0  0  0  0
   -3.5774   -2.6062    1.9222 H   0  0  0  0  0  0  0  0  0  0  0  0
   -3.8808   -0.8673    1.8989 H   0  0  0  0  0  0  0  0  0  0  0  0
   -4.4586   -1.8148   -0.2763 H   0  0  0  0  0  0  0  0  0  0  0  0
   -2.8812   -2.6055   -0.4259 H   0  0  0  0  0  0  0  0  0  0  0  0
   -3.9983   -0.8049   -2.4998 H   0  0  0  0  0  0  0  0  0  0  0  0
   -3.1517    1.2049   -3.6501 H   0  0  0  0  0  0  0  0  0  0  0  0
   -1.5267    2.6932   -2.5156 H   0  0  0  0  0  0  0  0  0  0  0  0
   -0.7202    2.1596   -0.2650 H   0  0  0  0  0  0  0  0  0  0  0  0
  1  2  1  0
  2  3  1  0
  3  4  2  0
  4  5  1  0
  5  6  2  0
  6  7  1  0
  7  8  2  0
  7  9  2  0
  7 10  1  0
 10 11  1  0
 11 12  1  0
 12 13  1  0
 13 14  1  0
 14 15  1  0
 15 16  1  0
 16 17  2  0
 17 18  1  0
 18 19  2  0
 19 20  1  0
 20 21  2  0
  6  2  1  0
 21 12  1  0
 21 16  1  0
  1 22  1  0
  1 23  1  0
  1 24  1  0
  5 25  1  0
 10 26  1  0
 11 27  1  0
 11 28  1  0
 12 29  1  0
 13 30  1  0
 13 31  1  0
 14 32  1  0
 14 33  1  0
 15 34  1  0
 15 35  1  0
 17 36  1  0
 18 37  1  0
 19 38  1  0
 20 39  1  0
M  END
$$$$
OCNT-2313645
     RDKit          3D

 35 37  0  0  0  0  0  0  0  0999 V2000
    0.7220    1.7427   -2.1963 O   0  0  0  0  0  0  0  0  0  0  0  0
    0.6331    1.3665   -1.0317 C   0  0  0  0  0  0  0  0  0  0  0  0
   -0.2869    0.4253   -0.6365 N   0  0  0  0  0  0  0  0  0  0  0  0
   -1.2609   -0.1093   -1.5678 C   0  0  0  0  0  0  0  0  0  0  0  0
   -0.6475   -1.0642   -2.6162 C   0  0  0  0  0  0  0  0  0  0  0  0
   -0.7961   -2.4364   -2.1565 O   0  0  0  0  0  0  0  0  0  0  0  0
   -1.8323   -2.3661   -1.2638 C   0  0  0  0  0  0  0  0  0  0  0  0
   -2.4838   -3.4643   -0.7415 C   0  0  0  0  0  0  0  0  0  0  0  0
   -3.5186   -3.2269    0.1598 C   0  0  0  0  0  0  0  0  0  0  0  0
   -4.1814   -4.2661    0.6848 F   0  0  0  0  0  0  0  0  0  0  0  0
   -3.8835   -1.9297    0.5316 C   0  0  0  0  0  0  0  0  0  0  0  0
   -3.1945   -0.8480   -0.0063 C   0  0  0  0  0  0  0  0  0  0  0  0
   -3.5184    0.3987    0.3565 F   0  0  0  0  0  0  0  0  0  0  0  0
   -2.1697   -1.0714   -0.9030 C   0  0  0  0  0  0  0  0  0  0  0  0
    1.5348    1.9300    0.0186 C   0  0  0  0  0  0  0  0  0  0  0  0
    2.2408    3.0996   -0.3074 C   0  0  0  0  0  0  0  0  0  0  0  0
    3.1001    3.6972    0.6172 C   0  0  0  0  0  0  0  0  0  0  0  0
    3.2614    3.1358    1.8811 C   0  0  0  0  0  0  0  0  0  0  0  0
    2.5753    1.9696    2.2176 C   0  0  0  0  0  0  0  0  0  0  0  0
    1.7339    1.3525    1.2833 C   0  0  0  0  0  0  0  0  0  0  0  0
    1.0646    0.2140    1.6519 O   0  0  0  0  0  0  0  0  0  0  0  0
    1.9572   -0.8957    1.7338 C   0  0  0  0  0  0  0  0  0  0  0  0
    2.5451   -0.8915    2.9551 F   0  0  0  0  0  0  0  0  0  0  0  0
    1.1964   -2.0166    1.6722 F   0  0  0  0  0  0  0  0  0  0  0  0
   -0.4075    0.2427    0.3546 H   0  0  0  0  0  0  0  0  0  0  0  0
   -1.7853    0.7190   -2.0557 H   0  0  0  0  0  0  0  0  0  0  0  0
    0.4132   -0.8755   -2.8098 H   0  0  0  0  0  0  0  0  0  0  0  0
   -1.1866   -0.9875   -3.5696 H   0  0  0  0  0  0  0  0  0  0  0  0
   -2.2085   -4.4741   -1.0198 H   0  0  0  0  0  0  0  0  0  0  0  0
   -4.6902   -1.7716    1.2382 H   0  0  0  0  0  0  0  0  0  0  0  0
    2.1169    3.5585   -1.2876 H   0  0  0  0  0  0  0  0  0  0  0  0
    3.6343    4.6068    0.3517 H   0  0  0  0  0  0  0  0  0  0  0  0
    3.9176    3.6101    2.6075 H   0  0  0  0  0  0  0  0  0  0  0  0
    2.6949    1.5517    3.2153 H   0  0  0  0  0  0  0  0  0  0  0  0
    2.7104   -0.9258    0.9376 H   0  0  0  0  0  0  0  0  0  0  0  0
  1  2  2  0
  2  3  1  0
  3  4  1  0
  4  5  1  0
  5  6  1  0
  6  7  1  0
  7  8  2  0
  8  9  1  0
  9 10  1  0
  9 11  2  0
 11 12  1  0
 12 13  1  0
 12 14  2  0
  2 15  1  0
 15 16  2  0
 16 17  1  0
 17 18  2  0
 18 19  1  0
 19 20  2  0
 20 21  1  0
 21 22  1  0
 22 23  1  0
 22 24  1  0
 14  4  1  0
 20 15  1  0
 14  7  1  0
  3 25  1  0
  4 26  1  0
  5 27  1  0
  5 28  1  0
  8 29  1  0
 11 30  1  0
 16 31  1  0
 17 32  1  0
 18 33  1  0
 19 34  1  0
 22 35  1  0
M  END
$$$$
OCNT-2313657
     RDKit          3D

 45 47  0  0  0  0  0  0  0  0999 V2000
    5.5995    0.3848   -1.9892 C   0  0  0  0  0  0  0  0  0  0  0  0
    5.8779   -0.3390   -0.6808 C   0  0  0  0  0  0  0  0  0  0  0  0
    4.6368   -0.4656    0.1647 C   0  0  0  0  0  0  0  0  0  0  0  0
    4.2963    0.5358    1.0816 C   0  0  0  0  0  0  0  0  0  0  0  0
    3.1367    0.4271    1.8528 C   0  0  0  0  0  0  0  0  0  0  0  0
    2.2953   -0.6858    1.7225 C   0  0  0  0  0  0  0  0  0  0  0  0
    1.0270   -0.7935    2.5423 C   0  0  0  0  0  0  0  0  0  0  0  0
   -0.1126   -0.1941    1.8635 N   0  0  0  0  0  0  0  0  0  0  0  0
   -0.3715    1.1461    2.0927 C   0  0  0  0  0  0  0  0  0  0  0  0
    0.2696    1.8591    2.8638 O   0  0  0  0  0  0  0  0  0  0  0  0
   -1.4239    1.6939    1.4147 N   0  0  0  0  0  0  0  0  0  0  0  0
   -2.2321    0.9870    0.5291 C   0  0  0  0  0  0  0  0  0  0  0  0
   -3.2783    1.6344   -0.1292 C   0  0  0  0  0  0  0  0  0  0  0  0
   -4.0918    0.9183   -1.0162 C   0  0  0  0  0  0  0  0  0  0  0  0
   -5.1442    1.4609   -1.7113 O   0  0  0  0  0  0  0  0  0  0  0  0
   -5.4156    2.8441   -1.5372 C   0  0  0  0  0  0  0  0  0  0  0  0
   -3.8496   -0.4558   -1.2382 C   0  0  0  0  0  0  0  0  0  0  0  0
   -4.6946   -1.0805   -2.1214 O   0  0  0  0  0  0  0  0  0  0  0  0
   -4.4785   -2.4613   -2.3796 C   0  0  0  0  0  0  0  0  0  0  0  0
   -2.7980   -1.0904   -0.5704 C   0  0  0  0  0  0  0  0  0  0  0  0
   -1.9931   -0.3621    0.3117 C   0  0  0  0  0  0  0  0  0  0  0  0
   -0.8778   -1.0078    1.0318 C   0  0  0  0  0  0  0  0  0  0  0  0
   -0.6891   -2.2122    0.8740 O   0  0  0  0  0  0  0  0  0  0  0  0
    2.6305   -1.6801    0.7938 C   0  0  0  0  0  0  0  0  0  0  0  0
    3.7900   -1.5711    0.0227 C   0  0  0  0  0  0  0  0  0  0  0  0
    5.2246    1.3983   -1.8107 H   0  0  0  0  0  0  0  0  0  0  0  0
    6.5168    0.4620   -2.5815 H   0  0  0  0  0  0  0  0  0  0  0  0
    4.8532   -0.1487   -2.5876 H   0  0  0  0  0  0  0  0  0  0  0  0
    6.6539    0.1954   -0.1193 H   0  0  0  0  0  0  0  0  0  0  0  0
    6.2863   -1.3357   -0.8881 H   0  0  0  0  0  0  0  0  0  0  0  0
    4.9307    1.4114    1.1995 H   0  0  0  0  0  0  0  0  0  0  0  0
    2.8908    1.2225    2.5546 H   0  0  0  0  0  0  0  0  0  0  0  0
    0.8223   -1.8492    2.7595 H   0  0  0  0  0  0  0  0  0  0  0  0
    1.1799   -0.3128    3.5166 H   0  0  0  0  0  0  0  0  0  0  0  0
   -1.5847    2.6769    1.5935 H   0  0  0  0  0  0  0  0  0  0  0  0
   -3.4452    2.6888    0.0589 H   0  0  0  0  0  0  0  0  0  0  0  0
   -6.2715    3.0994   -2.1693 H   0  0  0  0  0  0  0  0  0  0  0  0
   -5.6904    3.0645   -0.5006 H   0  0  0  0  0  0  0  0  0  0  0  0
   -4.5681    3.4568   -1.8616 H   0  0  0  0  0  0  0  0  0  0  0  0
   -3.4939   -2.6298   -2.8281 H   0  0  0  0  0  0  0  0  0  0  0  0
   -4.6083   -3.0577   -1.4706 H   0  0  0  0  0  0  0  0  0  0  0  0
   -5.2327   -2.7882   -3.1018 H   0  0  0  0  0  0  0  0  0  0  0  0
   -2.5831   -2.1443   -0.7164 H   0  0  0  0  0  0  0  0  0  0  0  0
    1.9849   -2.5468    0.6607 H   0  0  0  0  0  0  0  0  0  0  0  0
    4.0254   -2.3553   -0.6934 H   0  0  0  0  0  0  0  0  0  0  0  0
  1  2  1  0
  2  3  1  0
  3  4  1  0
  4  5  2  0
  5  6  1  0
  6  7  1  0
  7  8  1  0
  8  9  1  0
  9 10  2  0
  9 11  1  0
 11 12  1  0
 12 13  1  0
 13 14  2  0
 14 15  1  0
 15 16  1  0
 14 17  1  0
 17 18  1  0
 18 19  1  0
 17 20  2  0
 20 21  1  0
 21 22  1  0
 22 23  2  0
  6 24  2  0
 24 25  1  0
 25  3  2  0
 22  8  1  0
 21 12  2  0
  1 26  1  0
  1 27  1  0
  1 28  1  0
  2 29  1  0
  2 30  1  0
  4 31  1  0
  5 32  1  0
  7 33  1  0
  7 34  1  0
 11 35  1  0
 13 36  1  0
 16 37  1  0
 16 38  1  0
 16 39  1  0
 19 40  1  0
 19 41  1  0
 19 42  1  0
 20 43  1  0
 24 44  1  0
 25 45  1  0
M  END
$$$$
OCNT-2313669
     RDKit          3D

  0  0  0  0  0  0  0  0  0  0999 V3000
M  V30 BEGIN CTAB
M  V30 COUNTS 42 44 0 0 0
M  V30 BEGIN ATOM
M  V30 1 C -4.791839 -1.058490 0.965841 0
M  V30 2 C -4.686551 -0.670663 -0.505791 0 CFG=1
M  V30 3 C -4.861476 0.842319 -0.732148 0
M  V30 4 N -3.706356 1.611512 -0.249378 0
M  V30 5 C -2.494044 1.097998 -0.907311 0
M  V30 6 C -2.295671 -0.435444 -0.803166 0 CFG=1
M  V30 7 C -1.525454 -0.884996 0.469893 0
M  V30 8 O -1.896507 -1.798578 1.204032 0
M  V30 9 N -0.322287 -0.229911 0.680393 0
M  V30 10 C 0.580469 -0.668640 1.731767 0
M  V30 11 C 1.626458 0.389320 2.090725 0
M  V30 12 C 2.527174 0.751574 0.946505 0
M  V30 13 C 2.497812 1.931627 0.227151 0
M  V30 14 N 3.479325 1.881416 -0.724452 0
M  V30 15 C 4.151451 0.683401 -0.651951 0
M  V30 16 C 5.214970 0.189691 -1.416415 0
M  V30 17 Cl 5.892742 1.112327 -2.697856 0
M  V30 18 C 5.716343 -1.077795 -1.114335 0
M  V30 19 C 5.169234 -1.826530 -0.074849 0
M  V30 20 C 4.105728 -1.322533 0.684732 0
M  V30 21 C 3.581500 -0.045155 0.393356 0
M  V30 22 O -3.486627 -1.160872 -1.125680 0
M  V30 23 H -5.795674 -0.846307 1.348420 0
M  V30 24 H -4.591425 -2.126632 1.097439 0
M  V30 25 H -4.081818 -0.508615 1.589926 0
M  V30 26 H -5.507113 -1.178812 -1.026614 0
M  V30 27 H -5.766457 1.197042 -0.226931 0
M  V30 28 H -4.990944 1.035838 -1.804565 0
M  V30 29 H -3.833767 2.594902 -0.485752 0
M  V30 30 H -1.631623 1.643549 -0.512406 0
M  V30 31 H -2.561030 1.358740 -1.972205 0
M  V30 32 H -1.600839 -0.705930 -1.611216 0
M  V30 33 H 0.111396 0.215830 -0.118470 0
M  V30 34 H 1.053803 -1.594259 1.385417 0
M  V30 35 H -0.009211 -0.914072 2.622384 0
M  V30 36 H 2.239518 0.020752 2.922216 0
M  V30 37 H 1.118501 1.292845 2.451691 0
M  V30 38 H 1.868331 2.807222 0.321869 0
M  V30 39 H 3.697962 2.613472 -1.387799 0
M  V30 40 H 6.541894 -1.487298 -1.691356 0
M  V30 41 H 5.570569 -2.811834 0.151389 0
M  V30 42 H 3.691534 -1.918014 1.493863 0
M  V30 END ATOM
M  V30 BEGIN BOND
M  V30 1 1 1 2
M  V30 2 1 2 3
M  V30 3 1 3 4
M  V30 4 1 4 5
M  V30 5 1 5 6
M  V30 6 1 6 7
M  V30 7 2 7 8
M  V30 8 1 7 9
M  V30 9 1 9 10
M  V30 10 1 10 11
M  V30 11 1 11 12
M  V30 12 2 12 13
M  V30 13 1 13 14
M  V30 14 1 14 15
M  V30 15 2 15 16
M  V30 16 1 16 17
M  V30 17 1 16 18
M  V30 18 2 18 19
M  V30 19 1 19 20
M  V30 20 2 20 21
M  V30 21 1 6 22
M  V30 22 1 22 2
M  V30 23 1 21 12
M  V30 24 1 21 15
M  V30 25 1 1 23
M  V30 26 1 1 24
M  V30 27 1 1 25
M  V30 28 1 2 26 CFG=3
M  V30 29 1 3 27
M  V30 30 1 3 28
M  V30 31 1 4 29
M  V30 32 1 5 30
M  V30 33 1 5 31
M  V30 34 1 6 32 CFG=3
M  V30 35 1 9 33
M  V30 36 1 10 34
M  V30 37 1 10 35
M  V30 38 1 11 36
M  V30 39 1 11 37
M  V30 40 1 13 38
M  V30 41 1 14 39
M  V30 42 1 18 40
M  V30 43 1 19 41
M  V30 44 1 20 42
M  V30 END BOND
M  V30 BEGIN COLLECTION
M  V30 MDLV30/STERAC1 ATOMS=(2 2 6)
M  V30 END COLLECTION
M  V30 END CTAB
M  END
>  <_CXSMILES_Data>  (743) 
|&1:1,5|

$$$$
OCNT-2313682
     RDKit          3D

 46 49  0  0  0  0  0  0  0  0999 V2000
    0.4721   -3.6930    0.2215 O   0  0  0  0  0  0  0  0  0  0  0  0
    0.2698   -2.6319   -0.3628 C   0  0  0  0  0  0  0  0  0  0  0  0
    1.1684   -2.0844   -1.2362 N   0  0  0  0  0  0  0  0  0  0  0  0
    2.4845   -2.6639   -1.3834 C   0  0  0  0  0  0  0  0  0  0  0  0
    3.3881   -2.0344   -0.3721 C   0  0  0  0  0  0  0  0  0  0  0  0
    3.9688   -2.6555    0.7165 C   0  0  0  0  0  0  0  0  0  0  0  0
    4.8994   -1.5295    1.6083 S   0  0  0  0  0  0  0  0  0  0  0  0
    4.4555   -0.2892    0.5020 C   0  0  0  0  0  0  0  0  0  0  0  0
    4.9022    1.0746    0.6346 C   0  0  0  0  0  0  0  0  0  0  0  0
    5.7325    1.6546    1.5859 C   0  0  0  0  0  0  0  0  0  0  0  0
    5.8578    3.0288    1.2655 C   0  0  0  0  0  0  0  0  0  0  0  0
    5.1009    3.2225    0.1383 C   0  0  0  0  0  0  0  0  0  0  0  0
    4.5224    2.0603   -0.2493 O   0  0  0  0  0  0  0  0  0  0  0  0
    3.6688   -0.6760   -0.4822 N   0  0  0  0  0  0  0  0  0  0  0  0
   -0.8855   -1.9114   -0.2061 N   0  0  0  0  0  0  0  0  0  0  0  0
   -1.9327   -2.3629    0.6903 C   0  0  0  0  0  0  0  0  0  0  0  0
   -2.8997   -1.1887    0.7768 C   0  0  0  0  0  0  0  0  0  0  0  0
   -2.8004   -0.5730   -0.6281 C   0  0  0  0  0  0  0  0  0  0  0  0
   -3.3678    0.7577   -0.8453 N   0  0  0  0  0  0  0  0  0  0  0  0
   -2.7881    1.8547   -0.0744 C   0  0  0  0  0  0  0  0  0  0  0  0
   -3.7804    2.9932   -0.2814 C   0  0  0  0  0  0  0  0  0  0  0  0
   -5.0826    2.3236   -0.7049 C   0  0  0  0  0  0  0  0  0  0  0  0
   -4.8078    0.8323   -0.6041 C   0  0  0  0  0  0  0  0  0  0  0  0
   -1.2951   -0.7142   -0.9328 C   0  0  0  0  0  0  0  0  0  0  0  0
    1.1614   -1.0767   -1.2871 H   0  0  0  0  0  0  0  0  0  0  0  0
    2.4454   -3.7522   -1.2724 H   0  0  0  0  0  0  0  0  0  0  0  0
    2.8368   -2.4272   -2.3924 H   0  0  0  0  0  0  0  0  0  0  0  0
    3.8782   -3.6880    1.0244 H   0  0  0  0  0  0  0  0  0  0  0  0
    6.1975    1.1448    2.4186 H   0  0  0  0  0  0  0  0  0  0  0  0
    6.4288    3.7814    1.7906 H   0  0  0  0  0  0  0  0  0  0  0  0
    4.8810    4.0817   -0.4801 H   0  0  0  0  0  0  0  0  0  0  0  0
   -2.4093   -3.2403    0.2386 H   0  0  0  0  0  0  0  0  0  0  0  0
   -1.5204   -2.6460    1.6636 H   0  0  0  0  0  0  0  0  0  0  0  0
   -3.9113   -1.5132    1.0371 H   0  0  0  0  0  0  0  0  0  0  0  0
   -2.5528   -0.4914    1.5470 H   0  0  0  0  0  0  0  0  0  0  0  0
   -3.3194   -1.2567   -1.3168 H   0  0  0  0  0  0  0  0  0  0  0  0
   -2.7222    1.6262    0.9948 H   0  0  0  0  0  0  0  0  0  0  0  0
   -1.7938    2.1392   -0.4316 H   0  0  0  0  0  0  0  0  0  0  0  0
   -3.9093    3.5766    0.6363 H   0  0  0  0  0  0  0  0  0  0  0  0
   -3.4386    3.6756   -1.0681 H   0  0  0  0  0  0  0  0  0  0  0  0
   -5.3225    2.6027   -1.7380 H   0  0  0  0  0  0  0  0  0  0  0  0
   -5.9227    2.6266   -0.0720 H   0  0  0  0  0  0  0  0  0  0  0  0
   -5.3837    0.2691   -1.3451 H   0  0  0  0  0  0  0  0  0  0  0  0
   -5.0777    0.4758    0.3971 H   0  0  0  0  0  0  0  0  0  0  0  0
   -1.0954   -0.8188   -2.0039 H   0  0  0  0  0  0  0  0  0  0  0  0
   -0.7010    0.1165   -0.5383 H   0  0  0  0  0  0  0  0  0  0  0  0
  1  2  2  0
  2  3  1  0
  3  4  1  0
  4  5  1  0
  5  6  2  0
  6  7  1  0
  7  8  1  0
  8  9  1  0
  9 10  2  0
 10 11  1  0
 11 12  2  0
 12 13  1  0
  8 14  2  0
  2 15  1  0
 15 16  1  0
 16 17  1  0
 17 18  1  0
 18 19  1  0
 19 20  1  0
 20 21  1  0
 21 22  1  0
 22 23  1  0
 18 24  1  0
 14  5  1  0
 24 15  1  0
 13  9  1  0
 23 19  1  0
  3 25  1  0
  4 26  1  0
  4 27  1  0
  6 28  1  0
 10 29  1  0
 11 30  1  0
 12 31  1  0
 16 32  1  0
 16 33  1  0
 17 34  1  0
 17 35  1  0
 18 36  1  0
 20 37  1  0
 20 38  1  0
 21 39  1  0
 21 40  1  0
 22 41  1  0
 22 42  1  0
 23 43  1  0
 23 44  1  0
 24 45  1  0
 24 46  1  0
M  END
$$$$
OCNT-2313684
     RDKit          3D

 36 39  0  0  0  0  0  0  0  0999 V2000
   -0.4463    1.7173    1.9481 O   0  0  0  0  0  0  0  0  0  0  0  0
    0.1304    1.4724    0.8935 C   0  0  0  0  0  0  0  0  0  0  0  0
   -0.4148    1.7771   -0.3346 N   0  0  0  0  0  0  0  0  0  0  0  0
   -1.7530    2.3137   -0.4497 C   0  0  0  0  0  0  0  0  0  0  0  0
   -2.6198    1.2759   -1.0610 C   0  0  0  0  0  0  0  0  0  0  0  0
   -3.1664    0.1474   -0.4824 C   0  0  0  0  0  0  0  0  0  0  0  0
   -3.1326   -0.4315    0.8207 C   0  0  0  0  0  0  0  0  0  0  0  0
   -3.7926   -1.5818    1.0546 C   0  0  0  0  0  0  0  0  0  0  0  0
   -4.5455   -2.2539    0.0099 C   0  0  0  0  0  0  0  0  0  0  0  0
   -4.5805   -1.7067   -1.2159 C   0  0  0  0  0  0  0  0  0  0  0  0
   -3.9004   -0.5147   -1.4715 N   0  0  0  0  0  0  0  0  0  0  0  0
   -3.8377    0.1573   -2.6501 N   0  0  0  0  0  0  0  0  0  0  0  0
   -3.0848    1.2255   -2.3921 C   0  0  0  0  0  0  0  0  0  0  0  0
    1.4223    0.8200    0.8421 C   0  0  0  0  0  0  0  0  0  0  0  0
    2.0496    0.1169    1.8585 C   0  0  0  0  0  0  0  0  0  0  0  0
    3.3038   -0.3499    1.3853 C   0  0  0  0  0  0  0  0  0  0  0  0
    4.3450   -1.1097    1.9524 C   0  0  0  0  0  0  0  0  0  0  0  0
    5.4817   -1.3934    1.1850 C   0  0  0  0  0  0  0  0  0  0  0  0
    5.5824   -0.9272   -0.1235 C   0  0  0  0  0  0  0  0  0  0  0  0
    6.9933   -1.2893   -1.0446 Cl  0  0  0  0  0  0  0  0  0  0  0  0
    4.5640   -0.1691   -0.7093 C   0  0  0  0  0  0  0  0  0  0  0  0
    3.4342    0.1005    0.0737 C   0  0  0  0  0  0  0  0  0  0  0  0
    2.2956    0.8140   -0.2233 N   0  0  0  0  0  0  0  0  0  0  0  0
   -0.0398    1.3297   -1.1554 H   0  0  0  0  0  0  0  0  0  0  0  0
   -1.6894    3.1928   -1.0995 H   0  0  0  0  0  0  0  0  0  0  0  0
   -2.1461    2.6360    0.5194 H   0  0  0  0  0  0  0  0  0  0  0  0
   -2.5776    0.0591    1.6159 H   0  0  0  0  0  0  0  0  0  0  0  0
   -3.7778   -2.0355    2.0414 H   0  0  0  0  0  0  0  0  0  0  0  0
   -5.0628   -3.1782    0.2414 H   0  0  0  0  0  0  0  0  0  0  0  0
   -5.1161   -2.1368   -2.0510 H   0  0  0  0  0  0  0  0  0  0  0  0
   -2.8983    1.9295   -3.1938 H   0  0  0  0  0  0  0  0  0  0  0  0
    1.6314   -0.0452    2.8448 H   0  0  0  0  0  0  0  0  0  0  0  0
    4.2700   -1.4719    2.9739 H   0  0  0  0  0  0  0  0  0  0  0  0
    6.2858   -1.9802    1.6218 H   0  0  0  0  0  0  0  0  0  0  0  0
    4.6485    0.1936   -1.7280 H   0  0  0  0  0  0  0  0  0  0  0  0
    2.1445    1.2962   -1.0971 H   0  0  0  0  0  0  0  0  0  0  0  0
  1  2  2  0
  2  3  1  0
  3  4  1  0
  4  5  1  0
  5  6  2  0
  6  7  1  0
  7  8  2  0
  8  9  1  0
  9 10  2  0
 10 11  1  0
 11 12  1  0
 12 13  2  0
  2 14  1  0
 14 15  2  0
 15 16  1  0
 16 17  2  0
 17 18  1  0
 18 19  2  0
 19 20  1  0
 19 21  1  0
 21 22  2  0
 22 23  1  0
 13  5  1  0
 23 14  1  0
 11  6  1  0
 22 16  1  0
  3 24  1  0
  4 25  1  0
  4 26  1  0
  7 27  1  0
  8 28  1  0
  9 29  1  0
 10 30  1  0
 13 31  1  0
 15 32  1  0
 17 33  1  0
 18 34  1  0
 21 35  1  0
 23 36  1  0
M  END
$$$$
OCNT-2313685
     RDKit          3D

 45 48  0  0  0  0  0  0  0  0999 V2000
    5.3506    1.7196    2.7197 C   0  0  0  0  0  0  0  0  0  0  0  0
    4.4134    1.3598    1.6836 N   0  0  0  0  0  0  0  0  0  0  0  0
    4.1484    2.2372    0.6961 N   0  0  0  0  0  0  0  0  0  0  0  0
    3.2891    1.5864   -0.0949 C   0  0  0  0  0  0  0  0  0  0  0  0
    2.9768    0.3072    0.3955 C   0  0  0  0  0  0  0  0  0  0  0  0
    3.7162    0.1942    1.5531 C   0  0  0  0  0  0  0  0  0  0  0  0
    3.7638   -0.9871    2.4481 C   0  0  0  0  0  0  0  0  0  0  0  0
    2.5804   -1.9240    2.1447 C   0  0  0  0  0  0  0  0  0  0  0  0
    2.3288   -2.1015    0.6359 C   0  0  0  0  0  0  0  0  0  0  0  0
    2.0837   -0.7676   -0.1288 C   0  0  0  0  0  0  0  0  0  0  0  0
    0.6684   -0.3635   -0.1146 N   0  0  0  0  0  0  0  0  0  0  0  0
    0.1577    0.4772    0.9646 C   0  0  0  0  0  0  0  0  0  0  0  0
   -0.1693   -0.9695   -1.0653 C   0  0  0  0  0  0  0  0  0  0  0  0
    0.2296   -1.9248   -1.7320 O   0  0  0  0  0  0  0  0  0  0  0  0
   -1.5232   -0.4655   -1.2353 C   0  0  0  0  0  0  0  0  0  0  0  0
   -2.7062   -1.2093   -1.2519 C   0  0  0  0  0  0  0  0  0  0  0  0
   -3.7654   -0.3539   -1.5276 C   0  0  0  0  0  0  0  0  0  0  0  0
   -3.4311    0.9221   -1.7376 C   0  0  0  0  0  0  0  0  0  0  0  0
   -1.8014    1.2163   -1.6300 S   0  0  0  0  0  0  0  0  0  0  0  0
   -4.5815    1.5774   -2.0050 N   0  0  0  0  0  0  0  0  0  0  0  0
   -4.7717    2.9717   -2.3161 C   0  0  0  0  0  0  0  0  0  0  0  0
   -5.6618    0.7396   -1.9813 N   0  0  0  0  0  0  0  0  0  0  0  0
   -5.1427   -0.4802   -1.6792 C   0  0  0  0  0  0  0  0  0  0  0  0
   -5.9991   -1.6954   -1.5692 C   0  0  0  0  0  0  0  0  0  0  0  0
   -6.4588   -1.8706   -0.2974 F   0  0  0  0  0  0  0  0  0  0  0  0
   -5.3110   -2.8311   -1.8782 F   0  0  0  0  0  0  0  0  0  0  0  0
    5.8442    0.8172    3.0877 H   0  0  0  0  0  0  0  0  0  0  0  0
    6.0998    2.3975    2.3053 H   0  0  0  0  0  0  0  0  0  0  0  0
    4.7979    2.2033    3.5294 H   0  0  0  0  0  0  0  0  0  0  0  0
    2.9209    2.0745   -0.9864 H   0  0  0  0  0  0  0  0  0  0  0  0
    3.7333   -0.6856    3.4982 H   0  0  0  0  0  0  0  0  0  0  0  0
    4.7024   -1.5242    2.2815 H   0  0  0  0  0  0  0  0  0  0  0  0
    1.6743   -1.5355    2.6185 H   0  0  0  0  0  0  0  0  0  0  0  0
    2.7691   -2.9016    2.6010 H   0  0  0  0  0  0  0  0  0  0  0  0
    1.4970   -2.7978    0.4851 H   0  0  0  0  0  0  0  0  0  0  0  0
    3.2175   -2.5831    0.2092 H   0  0  0  0  0  0  0  0  0  0  0  0
    2.3592   -0.9453   -1.1769 H   0  0  0  0  0  0  0  0  0  0  0  0
    0.2365    1.5238    0.6629 H   0  0  0  0  0  0  0  0  0  0  0  0
   -0.8820    0.2295    1.1892 H   0  0  0  0  0  0  0  0  0  0  0  0
    0.7311    0.3322    1.8821 H   0  0  0  0  0  0  0  0  0  0  0  0
   -2.7499   -2.2779   -1.0838 H   0  0  0  0  0  0  0  0  0  0  0  0
   -5.5392    3.3740   -1.6498 H   0  0  0  0  0  0  0  0  0  0  0  0
   -3.8335    3.5165   -2.1743 H   0  0  0  0  0  0  0  0  0  0  0  0
   -5.0970    3.0501   -3.3556 H   0  0  0  0  0  0  0  0  0  0  0  0
   -6.8649   -1.6324   -2.2336 H   0  0  0  0  0  0  0  0  0  0  0  0
  1  2  1  0
  2  3  1  0
  3  4  2  0
  4  5  1  0
  5  6  2  0
  6  7  1  0
  7  8  1  0
  8  9  1  0
  9 10  1  0
 10 11  1  0
 11 12  1  0
 11 13  1  0
 13 14  2  0
 13 15  1  0
 15 16  2  0
 16 17  1  0
 17 18  2  0
 18 19  1  0
 18 20  1  0
 20 21  1  0
 20 22  1  0
 22 23  2  0
 23 24  1  0
 24 25  1  0
 24 26  1  0
  6  2  1  0
 19 15  1  0
 10  5  1  0
 23 17  1  0
  1 27  1  0
  1 28  1  0
  1 29  1  0
  4 30  1  0
  7 31  1  0
  7 32  1  0
  8 33  1  0
  8 34  1  0
  9 35  1  0
  9 36  1  0
 10 37  1  0
 12 38  1  0
 12 39  1  0
 12 40  1  0
 16 41  1  0
 21 42  1  0
 21 43  1  0
 21 44  1  0
 24 45  1  0
M  END
$$$$
OCNT-2313689
     RDKit          3D

 44 47  0  0  0  0  0  0  0  0999 V2000
   -3.7838   -0.4977   -0.9265 C   0  0  0  0  0  0  0  0  0  0  0  0
   -4.5637   -0.2238    0.3679 C   0  0  0  0  0  0  0  0  0  0  0  0
   -4.7569   -1.4744    1.0414 O   0  0  0  0  0  0  0  0  0  0  0  0
   -3.8171    0.7560    1.3081 C   0  0  0  0  0  0  0  0  0  0  0  0
   -2.4223    0.3507    1.5998 C   0  0  0  0  0  0  0  0  0  0  0  0
   -1.2963    0.8106    1.1041 N   0  0  0  0  0  0  0  0  0  0  0  0
   -0.3617    0.0118    1.7222 C   0  0  0  0  0  0  0  0  0  0  0  0
    1.1022    0.1442    1.4733 C   0  0  0  0  0  0  0  0  0  0  0  0
    1.4917   -0.5754    0.2981 O   0  0  0  0  0  0  0  0  0  0  0  0
    2.8067   -0.5085   -0.0710 C   0  0  0  0  0  0  0  0  0  0  0  0
    3.1099   -1.1845   -1.2528 C   0  0  0  0  0  0  0  0  0  0  0  0
    4.4144   -1.2007   -1.7502 C   0  0  0  0  0  0  0  0  0  0  0  0
    5.4443   -0.5388   -1.0684 C   0  0  0  0  0  0  0  0  0  0  0  0
    6.7626   -0.5439   -1.5520 C   0  0  0  0  0  0  0  0  0  0  0  0
    7.7780    0.1187   -0.8609 C   0  0  0  0  0  0  0  0  0  0  0  0
    7.4881    0.7940    0.3207 C   0  0  0  0  0  0  0  0  0  0  0  0
    6.1820    0.8085    0.8136 C   0  0  0  0  0  0  0  0  0  0  0  0
    5.1470    0.1471    0.1313 C   0  0  0  0  0  0  0  0  0  0  0  0
    3.8252    0.1538    0.6174 C   0  0  0  0  0  0  0  0  0  0  0  0
   -0.8729   -0.8882    2.5758 N   0  0  0  0  0  0  0  0  0  0  0  0
   -2.2470   -0.6621    2.4970 O   0  0  0  0  0  0  0  0  0  0  0  0
   -5.9647    0.3242    0.1388 C   0  0  0  0  0  0  0  0  0  0  0  0
   -6.7989    0.0306   -1.0869 C   0  0  0  0  0  0  0  0  0  0  0  0
   -6.2627    1.4182   -0.8597 C   0  0  0  0  0  0  0  0  0  0  0  0
   -4.3123   -1.2133   -1.5652 H   0  0  0  0  0  0  0  0  0  0  0  0
   -2.8144   -0.9653   -0.7207 H   0  0  0  0  0  0  0  0  0  0  0  0
   -3.6054    0.4162   -1.5009 H   0  0  0  0  0  0  0  0  0  0  0  0
   -3.9082   -1.9517    1.0591 H   0  0  0  0  0  0  0  0  0  0  0  0
   -3.8042    1.7595    0.8644 H   0  0  0  0  0  0  0  0  0  0  0  0
   -4.3557    0.8387    2.2613 H   0  0  0  0  0  0  0  0  0  0  0  0
    1.6492   -0.2417    2.3424 H   0  0  0  0  0  0  0  0  0  0  0  0
    1.3323    1.2096    1.3480 H   0  0  0  0  0  0  0  0  0  0  0  0
    2.3227   -1.7038   -1.7947 H   0  0  0  0  0  0  0  0  0  0  0  0
    4.6181   -1.7359   -2.6749 H   0  0  0  0  0  0  0  0  0  0  0  0
    7.0084   -1.0664   -2.4739 H   0  0  0  0  0  0  0  0  0  0  0  0
    8.7944    0.1066   -1.2459 H   0  0  0  0  0  0  0  0  0  0  0  0
    8.2782    1.3100    0.8605 H   0  0  0  0  0  0  0  0  0  0  0  0
    5.9787    1.3424    1.7392 H   0  0  0  0  0  0  0  0  0  0  0  0
    3.6232    0.6860    1.5414 H   0  0  0  0  0  0  0  0  0  0  0  0
   -6.5126    0.3618    1.0787 H   0  0  0  0  0  0  0  0  0  0  0  0
   -6.3864   -0.5493   -1.9021 H   0  0  0  0  0  0  0  0  0  0  0  0
   -7.8611   -0.1359   -0.9396 H   0  0  0  0  0  0  0  0  0  0  0  0
   -6.9677    2.1895   -0.5683 H   0  0  0  0  0  0  0  0  0  0  0  0
   -5.4814    1.7725   -1.5209 H   0  0  0  0  0  0  0  0  0  0  0  0
  1  2  1  0
  2  3  1  0
  2  4  1  0
  4  5  1  0
  5  6  2  0
  6  7  1  0
  7  8  1  0
  8  9  1  0
  9 10  1  0
 10 11  1  0
 11 12  2  0
 12 13  1  0
 13 14  2  0
 14 15  1  0
 15 16  2  0
 16 17  1  0
 17 18  2  0
 18 19  1  0
  7 20  2  0
 20 21  1  0
  2 22  1  0
 22 23  1  0
 23 24  1  0
 21  5  1  0
 24 22  1  0
 19 10  2  0
 18 13  1  0
  1 25  1  0
  1 26  1  0
  1 27  1  0
  3 28  1  0
  4 29  1  0
  4 30  1  0
  8 31  1  0
  8 32  1  0
 11 33  1  0
 12 34  1  0
 14 35  1  0
 15 36  1  0
 16 37  1  0
 17 38  1  0
 19 39  1  0
 22 40  1  0
 23 41  1  0
 23 42  1  0
 24 43  1  0
 24 44  1  0
M  END
$$$$
OCNT-2313694
     RDKit          3D

 45 48  0  0  0  0  0  0  0  0999 V2000
    6.0266   -1.2471   -1.2001 C   0  0  0  0  0  0  0  0  0  0  0  0
    5.8864   -1.7593    0.1204 O   0  0  0  0  0  0  0  0  0  0  0  0
    4.9747   -1.1362    0.9316 C   0  0  0  0  0  0  0  0  0  0  0  0
    4.8538   -1.7059    2.2069 C   0  0  0  0  0  0  0  0  0  0  0  0
    3.9627   -1.2001    3.1617 C   0  0  0  0  0  0  0  0  0  0  0  0
    3.2082   -0.1010    2.7677 C   0  0  0  0  0  0  0  0  0  0  0  0
    2.2846    0.5528    3.5202 O   0  0  0  0  0  0  0  0  0  0  0  0
    1.7421    1.5966    2.7869 N   0  0  0  0  0  0  0  0  0  0  0  0
    2.3479    1.5547    1.5900 C   0  0  0  0  0  0  0  0  0  0  0  0
    2.0010    2.5549    0.5481 C   0  0  0  0  0  0  0  0  0  0  0  0
    1.4594    1.8804   -0.6941 C   0  0  0  0  0  0  0  0  0  0  0  0
    2.1756    1.5938   -1.6518 O   0  0  0  0  0  0  0  0  0  0  0  0
    0.1183    1.6109   -0.6624 N   0  0  0  0  0  0  0  0  0  0  0  0
   -0.5574    0.9268   -1.7416 C   0  0  0  0  0  0  0  0  0  0  0  0
   -1.9770    0.6538   -1.3509 C   0  0  0  0  0  0  0  0  0  0  0  0
   -2.5037    1.1640   -0.2215 N   0  0  0  0  0  0  0  0  0  0  0  0
   -3.7724    0.7067   -0.2182 N   0  0  0  0  0  0  0  0  0  0  0  0
   -4.6571    1.0804    0.8583 C   0  0  0  0  0  0  0  0  0  0  0  0
   -4.0563   -0.0940   -1.2862 C   0  0  0  0  0  0  0  0  0  0  0  0
   -5.3985   -0.7954   -1.6050 C   0  0  0  0  0  0  0  0  0  0  0  0
   -5.9144   -1.8424   -0.6532 C   0  0  0  0  0  0  0  0  0  0  0  0
   -5.3938   -2.2488   -2.0003 C   0  0  0  0  0  0  0  0  0  0  0  0
   -2.9188   -0.1359   -2.0538 C   0  0  0  0  0  0  0  0  0  0  0  0
    3.2940    0.4972    1.5240 C   0  0  0  0  0  0  0  0  0  0  0  0
    4.1974   -0.0238    0.5766 C   0  0  0  0  0  0  0  0  0  0  0  0
    6.7725   -1.8580   -1.7180 H   0  0  0  0  0  0  0  0  0  0  0  0
    5.0866   -1.3266   -1.7567 H   0  0  0  0  0  0  0  0  0  0  0  0
    6.3943   -0.2156   -1.1859 H   0  0  0  0  0  0  0  0  0  0  0  0
    5.4678   -2.5684    2.4619 H   0  0  0  0  0  0  0  0  0  0  0  0
    3.8632   -1.6372    4.1478 H   0  0  0  0  0  0  0  0  0  0  0  0
    2.8897    3.1316    0.2672 H   0  0  0  0  0  0  0  0  0  0  0  0
    1.2624    3.2775    0.9153 H   0  0  0  0  0  0  0  0  0  0  0  0
   -0.4471    1.7818    0.1663 H   0  0  0  0  0  0  0  0  0  0  0  0
   -0.5164    1.5622   -2.6331 H   0  0  0  0  0  0  0  0  0  0  0  0
   -0.0268   -0.0083   -1.9523 H   0  0  0  0  0  0  0  0  0  0  0  0
   -5.6897    1.0673    0.5022 H   0  0  0  0  0  0  0  0  0  0  0  0
   -4.5245    0.3642    1.6733 H   0  0  0  0  0  0  0  0  0  0  0  0
   -4.4037    2.0898    1.1937 H   0  0  0  0  0  0  0  0  0  0  0  0
   -6.1328   -0.1592   -2.0908 H   0  0  0  0  0  0  0  0  0  0  0  0
   -5.3180   -2.1096    0.2123 H   0  0  0  0  0  0  0  0  0  0  0  0
   -6.9843   -1.8937   -0.4870 H   0  0  0  0  0  0  0  0  0  0  0  0
   -6.1107   -2.5715   -2.7468 H   0  0  0  0  0  0  0  0  0  0  0  0
   -4.4509   -2.7834   -2.0344 H   0  0  0  0  0  0  0  0  0  0  0  0
   -2.7775   -0.6668   -2.9849 H   0  0  0  0  0  0  0  0  0  0  0  0
    4.2628    0.4409   -0.4007 H   0  0  0  0  0  0  0  0  0  0  0  0
  1  2  1  0
  2  3  1  0
  3  4  2  0
  4  5  1  0
  5  6  2  0
  6  7  1  0
  7  8  1  0
  8  9  2  0
  9 10  1  0
 10 11  1  0
 11 12  2  0
 11 13  1  0
 13 14  1  0
 14 15  1  0
 15 16  2  0
 16 17  1  0
 17 18  1  0
 17 19  1  0
 19 20  1  0
 20 21  1  0
 21 22  1  0
 19 23  2  0
  9 24  1  0
 24 25  2  0
 25  3  1  0
 24  6  1  0
 23 15  1  0
 22 20  1  0
  1 26  1  0
  1 27  1  0
  1 28  1  0
  4 29  1  0
  5 30  1  0
 10 31  1  0
 10 32  1  0
 13 33  1  0
 14 34  1  0
 14 35  1  0
 18 36  1  0
 18 37  1  0
 18 38  1  0
 20 39  1  0
 21 40  1  0
 21 41  1  0
 22 42  1  0
 22 43  1  0
 23 44  1  0
 25 45  1  0
M  END
$$$$
OCNT-2313698
     RDKit          3D

 40 42  0  0  0  0  0  0  0  0999 V2000
    5.3819   -1.8639   -0.5123 C   0  0  0  0  0  0  0  0  0  0  0  0
    4.1194   -1.1659   -0.4104 N   0  0  0  0  0  0  0  0  0  0  0  0
    3.2266   -1.5652    0.5099 N   0  0  0  0  0  0  0  0  0  0  0  0
    2.1764   -0.7367    0.3687 C   0  0  0  0  0  0  0  0  0  0  0  0
    0.9720   -0.8636    1.2180 C   0  0  0  0  0  0  0  0  0  0  0  0
    0.9251   -1.5576    2.2312 O   0  0  0  0  0  0  0  0  0  0  0  0
   -0.1248   -0.1468    0.7771 N   0  0  0  0  0  0  0  0  0  0  0  0
   -1.4241   -0.2736    1.4107 C   0  0  0  0  0  0  0  0  0  0  0  0
   -2.1401   -1.5841    1.0295 C   0  0  0  0  0  0  0  0  0  0  0  0
   -2.2920   -1.8446   -0.4732 C   0  0  0  0  0  0  0  0  0  0  0  0
   -3.0788   -0.7623   -1.2007 C   0  0  0  0  0  0  0  0  0  0  0  0
   -2.3415    0.4638   -1.2394 O   0  0  0  0  0  0  0  0  0  0  0  0
   -2.6847    1.2644   -0.1816 C   0  0  0  0  0  0  0  0  0  0  0  0
   -3.4006    2.4347   -0.4358 C   0  0  0  0  0  0  0  0  0  0  0  0
   -3.7820    2.7348   -1.6859 F   0  0  0  0  0  0  0  0  0  0  0  0
   -3.7383    3.2984    0.5989 C   0  0  0  0  0  0  0  0  0  0  0  0
   -3.3411    2.9977    1.9001 C   0  0  0  0  0  0  0  0  0  0  0  0
   -2.6039    1.8369    2.1568 C   0  0  0  0  0  0  0  0  0  0  0  0
   -2.2628    0.9527    1.1179 C   0  0  0  0  0  0  0  0  0  0  0  0
    2.4392    0.2060   -0.6671 C   0  0  0  0  0  0  0  0  0  0  0  0
    3.6983   -0.0944   -1.1452 C   0  0  0  0  0  0  0  0  0  0  0  0
    4.5246    0.5208   -2.2021 C   0  0  0  0  0  0  0  0  0  0  0  0
    4.7097   -0.3465   -3.2313 F   0  0  0  0  0  0  0  0  0  0  0  0
    5.7640    0.8240   -1.7343 F   0  0  0  0  0  0  0  0  0  0  0  0
    5.3262   -2.7989    0.0516 H   0  0  0  0  0  0  0  0  0  0  0  0
    6.1611   -1.2215   -0.0954 H   0  0  0  0  0  0  0  0  0  0  0  0
    5.5803   -2.0849   -1.5634 H   0  0  0  0  0  0  0  0  0  0  0  0
   -0.1145    0.2364   -0.1576 H   0  0  0  0  0  0  0  0  0  0  0  0
   -1.2485   -0.3194    2.4939 H   0  0  0  0  0  0  0  0  0  0  0  0
   -1.5818   -2.4291    1.4527 H   0  0  0  0  0  0  0  0  0  0  0  0
   -3.1326   -1.6070    1.4985 H   0  0  0  0  0  0  0  0  0  0  0  0
   -1.2982   -1.9423   -0.9260 H   0  0  0  0  0  0  0  0  0  0  0  0
   -2.8021   -2.8055   -0.6088 H   0  0  0  0  0  0  0  0  0  0  0  0
   -3.2216   -1.0712   -2.2424 H   0  0  0  0  0  0  0  0  0  0  0  0
   -4.0826   -0.6324   -0.7730 H   0  0  0  0  0  0  0  0  0  0  0  0
   -4.3027    4.2000    0.3838 H   0  0  0  0  0  0  0  0  0  0  0  0
   -3.5952    3.6710    2.7156 H   0  0  0  0  0  0  0  0  0  0  0  0
   -2.2866    1.6318    3.1785 H   0  0  0  0  0  0  0  0  0  0  0  0
    1.8011    1.0092   -1.0083 H   0  0  0  0  0  0  0  0  0  0  0  0
    4.0750    1.4350   -2.5993 H   0  0  0  0  0  0  0  0  0  0  0  0
  1  2  1  0
  2  3  1  0
  3  4  2  0
  4  5  1  0
  5  6  2  0
  5  7  1  0
  7  8  1  0
  8  9  1  0
  9 10  1  0
 10 11  1  0
 11 12  1  0
 12 13  1  0
 13 14  2  0
 14 15  1  0
 14 16  1  0
 16 17  2  0
 17 18  1  0
 18 19  2  0
  4 20  1  0
 20 21  2  0
 21 22  1  0
 22 23  1  0
 22 24  1  0
 21  2  1  0
 19  8  1  0
 19 13  1  0
  1 25  1  0
  1 26  1  0
  1 27  1  0
  7 28  1  0
  8 29  1  0
  9 30  1  0
  9 31  1  0
 10 32  1  0
 10 33  1  0
 11 34  1  0
 11 35  1  0
 16 36  1  0
 17 37  1  0
 18 38  1  0
 20 39  1  0
 22 40  1  0
M  END
$$$$
OCNT-2313708
     RDKit          3D

 50 52  0  0  0  0  0  0  0  0999 V2000
    4.3953    1.6645   -1.9394 C   0  0  0  0  0  0  0  0  0  0  0  0
    5.6488    0.9415   -1.4671 C   0  0  0  0  0  0  0  0  0  0  0  0
    5.5718    0.4871   -0.0052 C   0  0  0  0  0  0  0  0  0  0  0  0
    4.5008   -0.5385    0.2618 C   0  0  0  0  0  0  0  0  0  0  0  0
    3.4112   -0.2948    1.0076 C   0  0  0  0  0  0  0  0  0  0  0  0
    2.4216   -1.3329    1.2294 C   0  0  0  0  0  0  0  0  0  0  0  0
    1.2269   -1.0358    2.0762 C   0  0  0  0  0  0  0  0  0  0  0  0
    1.2975   -0.2650    3.0277 O   0  0  0  0  0  0  0  0  0  0  0  0
    0.0572   -1.6279    1.6622 N   0  0  0  0  0  0  0  0  0  0  0  0
   -1.2161   -1.2575    2.2576 C   0  0  0  0  0  0  0  0  0  0  0  0
   -1.7707    0.0279    1.6409 C   0  0  0  0  0  0  0  0  0  0  0  0
   -3.0662    0.4863    2.2819 C   0  0  0  0  0  0  0  0  0  0  0  0
   -3.6716    1.3124    1.1720 C   0  0  0  0  0  0  0  0  0  0  0  0
   -3.2958    0.5151   -0.0856 C   0  0  0  0  0  0  0  0  0  0  0  0
   -3.0286    1.4075   -1.3052 C   0  0  0  0  0  0  0  0  0  0  0  0
   -4.2736    1.6147   -2.1618 C   0  0  0  0  0  0  0  0  0  0  0  0
   -5.4547    1.4629   -1.3828 O   0  0  0  0  0  0  0  0  0  0  0  0
   -5.6450    0.1171   -0.9420 C   0  0  0  0  0  0  0  0  0  0  0  0
   -4.3535   -0.5311   -0.4519 C   0  0  0  0  0  0  0  0  0  0  0  0
   -2.0773   -0.1914    0.2459 O   0  0  0  0  0  0  0  0  0  0  0  0
    2.6055   -2.5662    0.7309 C   0  0  0  0  0  0  0  0  0  0  0  0
    3.8059   -2.8436   -0.0901 C   0  0  0  0  0  0  0  0  0  0  0  0
    3.9930   -3.9522   -0.5771 O   0  0  0  0  0  0  0  0  0  0  0  0
    4.6748   -1.7971   -0.2694 N   0  0  0  0  0  0  0  0  0  0  0  0
    4.1721    2.5228   -1.2977 H   0  0  0  0  0  0  0  0  0  0  0  0
    4.5369    2.0332   -2.9604 H   0  0  0  0  0  0  0  0  0  0  0  0
    3.5260    1.0000   -1.9434 H   0  0  0  0  0  0  0  0  0  0  0  0
    5.8422    0.0850   -2.1237 H   0  0  0  0  0  0  0  0  0  0  0  0
    6.5043    1.6191   -1.5751 H   0  0  0  0  0  0  0  0  0  0  0  0
    5.4230    1.3670    0.6340 H   0  0  0  0  0  0  0  0  0  0  0  0
    6.5423    0.0652    0.2865 H   0  0  0  0  0  0  0  0  0  0  0  0
    3.2385    0.6761    1.4646 H   0  0  0  0  0  0  0  0  0  0  0  0
    0.0137   -2.0039    0.7232 H   0  0  0  0  0  0  0  0  0  0  0  0
   -1.8942   -2.0972    2.0712 H   0  0  0  0  0  0  0  0  0  0  0  0
   -1.0850   -1.1409    3.3387 H   0  0  0  0  0  0  0  0  0  0  0  0
   -1.0244    0.8311    1.6798 H   0  0  0  0  0  0  0  0  0  0  0  0
   -3.7180   -0.3641    2.5137 H   0  0  0  0  0  0  0  0  0  0  0  0
   -2.9046    1.0535    3.2029 H   0  0  0  0  0  0  0  0  0  0  0  0
   -3.1939    2.2999    1.1697 H   0  0  0  0  0  0  0  0  0  0  0  0
   -4.7456    1.4697    1.3036 H   0  0  0  0  0  0  0  0  0  0  0  0
   -2.2303    0.9909   -1.9328 H   0  0  0  0  0  0  0  0  0  0  0  0
   -2.6435    2.3819   -0.9794 H   0  0  0  0  0  0  0  0  0  0  0  0
   -4.2703    2.6213   -2.5924 H   0  0  0  0  0  0  0  0  0  0  0  0
   -4.2980    0.9061   -2.9988 H   0  0  0  0  0  0  0  0  0  0  0  0
   -6.0872   -0.4684   -1.7559 H   0  0  0  0  0  0  0  0  0  0  0  0
   -6.3813    0.1476   -0.1320 H   0  0  0  0  0  0  0  0  0  0  0  0
   -4.5585   -1.2222    0.3743 H   0  0  0  0  0  0  0  0  0  0  0  0
   -3.9519   -1.1723   -1.2493 H   0  0  0  0  0  0  0  0  0  0  0  0
    1.9351   -3.3988    0.8956 H   0  0  0  0  0  0  0  0  0  0  0  0
    5.4956   -2.0056   -0.8253 H   0  0  0  0  0  0  0  0  0  0  0  0
  1  2  1  0
  2  3  1  0
  3  4  1  0
  4  5  2  0
  5  6  1  0
  6  7  1  0
  7  8  2  0
  7  9  1  0
  9 10  1  0
 10 11  1  0
 11 12  1  0
 12 13  1  0
 13 14  1  0
 14 15  1  0
 15 16  1  0
 16 17  1  0
 17 18  1  0
 18 19  1  0
 14 20  1  0
  6 21  2  0
 21 22  1  0
 22 23  2  0
 22 24  1  0
 24  4  1  0
 20 11  1  0
 19 14  1  0
  1 25  1  0
  1 26  1  0
  1 27  1  0
  2 28  1  0
  2 29  1  0
  3 30  1  0
  3 31  1  0
  5 32  1  0
  9 33  1  0
 10 34  1  0
 10 35  1  0
 11 36  1  0
 12 37  1  0
 12 38  1  0
 13 39  1  0
 13 40  1  0
 15 41  1  0
 15 42  1  0
 16 43  1  0
 16 44  1  0
 18 45  1  0
 18 46  1  0
 19 47  1  0
 19 48  1  0
 21 49  1  0
 24 50  1  0
M  END
$$$$
OCNT-2313726
     RDKit          3D

 39 41  0  0  0  0  0  0  0  0999 V2000
    5.4000    1.6897    0.2687 C   0  0  0  0  0  0  0  0  0  0  0  0
    4.1349    0.8928    0.1443 C   0  0  0  0  0  0  0  0  0  0  0  0
    2.9049    1.4898    0.4238 C   0  0  0  0  0  0  0  0  0  0  0  0
    1.7116    0.8622    0.3427 N   0  0  0  0  0  0  0  0  0  0  0  0
    1.7480   -0.4422   -0.0424 C   0  0  0  0  0  0  0  0  0  0  0  0
    0.4240   -1.1380   -0.1348 C   0  0  0  0  0  0  0  0  0  0  0  0
    0.3212   -2.3121   -0.4759 O   0  0  0  0  0  0  0  0  0  0  0  0
   -0.6578   -0.3471    0.1775 N   0  0  0  0  0  0  0  0  0  0  0  0
   -2.0085   -0.8603    0.2055 C   0  0  1  0  0  0  0  0  0  0  0  0
   -3.0263    0.1755    0.5854 C   0  0  0  0  0  0  0  0  0  0  0  0
   -2.9736    1.1001    1.6192 C   0  0  0  0  0  0  0  0  0  0  0  0
   -4.0662    1.9483    1.8122 C   0  0  0  0  0  0  0  0  0  0  0  0
   -5.1977    1.8542    0.9883 C   0  0  0  0  0  0  0  0  0  0  0  0
   -5.2538    0.9086   -0.0372 C   0  0  0  0  0  0  0  0  0  0  0  0
   -4.1608    0.0789   -0.2292 C   0  0  0  0  0  0  0  0  0  0  0  0
   -4.0222   -1.0268   -1.2294 C   0  0  0  0  0  0  0  0  0  0  0  0
   -2.5086   -1.3004   -1.2033 C   0  0  2  0  0  0  0  0  0  0  0  0
   -2.2470   -2.6814   -1.4529 O   0  0  0  0  0  0  0  0  0  0  0  0
    2.9151   -1.1316   -0.3431 C   0  0  0  0  0  0  0  0  0  0  0  0
    4.1375   -0.4569   -0.2498 C   0  0  0  0  0  0  0  0  0  0  0  0
    5.4133   -1.1834   -0.5712 C   0  0  0  0  0  0  0  0  0  0  0  0
    5.9167    1.7366   -0.6951 H   0  0  0  0  0  0  0  0  0  0  0  0
    5.1975    2.7187    0.5847 H   0  0  0  0  0  0  0  0  0  0  0  0
    6.0615    1.2396    1.0156 H   0  0  0  0  0  0  0  0  0  0  0  0
    2.8447    2.5312    0.7326 H   0  0  0  0  0  0  0  0  0  0  0  0
   -0.4609    0.6181    0.4292 H   0  0  0  0  0  0  0  0  0  0  0  0
   -2.0417   -1.7034    0.9067 H   0  0  0  0  0  0  0  0  0  0  0  0
   -2.1091    1.1628    2.2730 H   0  0  0  0  0  0  0  0  0  0  0  0
   -4.0452    2.6825    2.6141 H   0  0  0  0  0  0  0  0  0  0  0  0
   -6.0427    2.5173    1.1574 H   0  0  0  0  0  0  0  0  0  0  0  0
   -6.1369    0.8255   -0.6631 H   0  0  0  0  0  0  0  0  0  0  0  0
   -4.3442   -0.7170   -2.2285 H   0  0  0  0  0  0  0  0  0  0  0  0
   -4.6010   -1.9042   -0.9216 H   0  0  0  0  0  0  0  0  0  0  0  0
   -2.0168   -0.7146   -1.9915 H   0  0  0  0  0  0  0  0  0  0  0  0
   -1.2987   -2.8187   -1.2298 H   0  0  0  0  0  0  0  0  0  0  0  0
    2.8675   -2.1742   -0.6440 H   0  0  0  0  0  0  0  0  0  0  0  0
    6.0739   -1.1960    0.3015 H   0  0  0  0  0  0  0  0  0  0  0  0
    5.9248   -0.7005   -1.4097 H   0  0  0  0  0  0  0  0  0  0  0  0
    5.2223   -2.2237   -0.8555 H   0  0  0  0  0  0  0  0  0  0  0  0
  1  2  1  0
  2  3  1  0
  3  4  2  0
  4  5  1  0
  5  6  1  0
  6  7  2  0
  6  8  1  0
  8  9  1  0
  9 10  1  0
 10 11  2  0
 11 12  1  0
 12 13  2  0
 13 14  1  0
 14 15  2  0
 15 16  1  0
 16 17  1  0
 17 18  1  0
  5 19  2  0
 19 20  1  0
 20 21  1  0
 20  2  2  0
 17  9  1  0
 15 10  1  0
  1 22  1  0
  1 23  1  0
  1 24  1  0
  3 25  1  0
  8 26  1  0
  9 27  1  1
 11 28  1  0
 12 29  1  0
 13 30  1  0
 14 31  1  0
 16 32  1  0
 16 33  1  0
 17 34  1  6
 18 35  1  0
 19 36  1  0
 21 37  1  0
 21 38  1  0
 21 39  1  0
M  END
$$$$
OCNT-2313749
     RDKit          3D

 41 44  0  0  0  0  0  0  0  0999 V2000
    0.6614   -1.9728    1.6115 O   0  0  0  0  0  0  0  0  0  0  0  0
    0.9209   -1.2172    0.6758 C   0  0  0  0  0  0  0  0  0  0  0  0
    2.2808   -0.8173    0.4125 C   0  0  0  0  0  0  0  0  0  0  0  0
    3.0506   -0.8313   -0.7354 C   0  0  0  0  0  0  0  0  0  0  0  0
    2.6142   -1.3962   -2.2835 Cl  0  0  0  0  0  0  0  0  0  0  0  0
    4.3451   -0.3235   -0.4151 C   0  0  0  0  0  0  0  0  0  0  0  0
    5.5227   -0.0771   -1.1530 C   0  0  0  0  0  0  0  0  0  0  0  0
    6.6453    0.4297   -0.4918 C   0  0  0  0  0  0  0  0  0  0  0  0
    8.0835    0.7409   -1.3875 Cl  0  0  0  0  0  0  0  0  0  0  0  0
    6.6218    0.6852    0.8768 C   0  0  0  0  0  0  0  0  0  0  0  0
    5.4703    0.4384    1.6307 C   0  0  0  0  0  0  0  0  0  0  0  0
    4.3518   -0.0636    0.9553 C   0  0  0  0  0  0  0  0  0  0  0  0
    3.1133   -0.4167    1.4346 N   0  0  0  0  0  0  0  0  0  0  0  0
   -0.0878   -0.6564   -0.0804 N   0  0  0  0  0  0  0  0  0  0  0  0
   -0.0047    0.4730   -0.9895 C   0  0  0  0  0  0  0  0  0  0  0  0
   -1.4111    1.0632   -0.9887 C   0  0  0  0  0  0  0  0  0  0  0  0
   -2.3155   -0.1727   -0.8336 C   0  0  0  0  0  0  0  0  0  0  0  0
   -2.3717   -0.8284   -2.1097 O   0  0  0  0  0  0  0  0  0  0  0  0
   -3.7409    0.1068   -0.3823 C   0  0  0  0  0  0  0  0  0  0  0  0
   -4.3907    1.3071   -0.7260 C   0  0  0  0  0  0  0  0  0  0  0  0
   -5.7109    1.5465   -0.3362 C   0  0  0  0  0  0  0  0  0  0  0  0
   -6.3987    0.5828    0.3872 C   0  0  0  0  0  0  0  0  0  0  0  0
   -7.6647    0.8122    0.7582 F   0  0  0  0  0  0  0  0  0  0  0  0
   -5.7938   -0.6205    0.7209 C   0  0  0  0  0  0  0  0  0  0  0  0
   -4.4738   -0.8615    0.3315 C   0  0  0  0  0  0  0  0  0  0  0  0
   -1.4781   -1.0283    0.1496 C   0  0  0  0  0  0  0  0  0  0  0  0
    5.5537   -0.2779   -2.2199 H   0  0  0  0  0  0  0  0  0  0  0  0
    7.5074    1.0757    1.3730 H   0  0  0  0  0  0  0  0  0  0  0  0
    5.4543    0.6271    2.6998 H   0  0  0  0  0  0  0  0  0  0  0  0
    2.8331   -0.3818    2.4064 H   0  0  0  0  0  0  0  0  0  0  0  0
    0.7507    1.1964   -0.6715 H   0  0  0  0  0  0  0  0  0  0  0  0
    0.2431    0.0972   -1.9858 H   0  0  0  0  0  0  0  0  0  0  0  0
   -1.5230    1.7393   -0.1314 H   0  0  0  0  0  0  0  0  0  0  0  0
   -1.5932    1.6274   -1.9093 H   0  0  0  0  0  0  0  0  0  0  0  0
   -3.2974   -1.0624   -2.2957 H   0  0  0  0  0  0  0  0  0  0  0  0
   -3.8813    2.0711   -1.3097 H   0  0  0  0  0  0  0  0  0  0  0  0
   -6.2070    2.4759   -0.5982 H   0  0  0  0  0  0  0  0  0  0  0  0
   -6.3533   -1.3662    1.2772 H   0  0  0  0  0  0  0  0  0  0  0  0
   -4.0299   -1.8213    0.5904 H   0  0  0  0  0  0  0  0  0  0  0  0
   -1.7077   -0.7978    1.1970 H   0  0  0  0  0  0  0  0  0  0  0  0
   -1.5891   -2.1051   -0.0183 H   0  0  0  0  0  0  0  0  0  0  0  0
  1  2  2  0
  2  3  1  0
  3  4  2  0
  4  5  1  0
  4  6  1  0
  6  7  2  0
  7  8  1  0
  8  9  1  0
  8 10  2  0
 10 11  1  0
 11 12  2  0
 12 13  1  0
  2 14  1  0
 14 15  1  0
 15 16  1  0
 16 17  1  0
 17 18  1  0
 17 19  1  0
 19 20  1  0
 20 21  2  0
 21 22  1  0
 22 23  1  0
 22 24  2  0
 24 25  1  0
 17 26  1  0
 13  3  1  0
 26 14  1  0
 12  6  1  0
 25 19  2  0
  7 27  1  0
 10 28  1  0
 11 29  1  0
 13 30  1  0
 15 31  1  0
 15 32  1  0
 16 33  1  0
 16 34  1  0
 18 35  1  0
 20 36  1  0
 21 37  1  0
 24 38  1  0
 25 39  1  0
 26 40  1  0
 26 41  1  0
M  END
$$$$
OCNT-2313771
     RDKit          3D

 38 40  0  0  0  0  0  0  0  0999 V2000
   -4.2811   -1.3750    2.4681 F   0  0  0  0  0  0  0  0  0  0  0  0
   -4.4851   -0.5695    1.4160 C   0  0  0  0  0  0  0  0  0  0  0  0
   -5.7755   -0.3744    0.9427 C   0  0  0  0  0  0  0  0  0  0  0  0
   -5.9723    0.4630   -0.1509 C   0  0  0  0  0  0  0  0  0  0  0  0
   -4.8625    1.0692   -0.7235 C   0  0  0  0  0  0  0  0  0  0  0  0
   -3.5952    0.8966   -0.2831 N   0  0  0  0  0  0  0  0  0  0  0  0
   -3.4304    0.0785    0.7838 C   0  0  0  0  0  0  0  0  0  0  0  0
   -2.1641   -0.1522    1.2843 O   0  0  0  0  0  0  0  0  0  0  0  0
   -1.1015    0.5647    0.6352 C   0  0  0  0  0  0  0  0  0  0  0  0
   -0.6812   -0.1755   -0.6432 C   0  0  0  0  0  0  0  0  0  0  0  0
    0.8030    0.0171   -0.9192 C   0  0  0  0  0  0  0  0  0  0  0  0
    1.6038   -0.6031    0.1593 N   0  0  0  0  0  0  0  0  0  0  0  0
    2.9220   -0.0947    0.1116 C   0  0  0  0  0  0  0  0  0  0  0  0
    3.2118    1.0282    0.8161 N   0  0  0  0  0  0  0  0  0  0  0  0
    4.4747    1.5024    0.7248 C   0  0  0  0  0  0  0  0  0  0  0  0
    5.4426    0.8903   -0.0428 C   0  0  0  0  0  0  0  0  0  0  0  0
    5.1908   -0.2288   -0.7485 N   0  0  0  0  0  0  0  0  0  0  0  0
    3.9158   -0.7255   -0.6587 C   0  0  0  0  0  0  0  0  0  0  0  0
    3.5847   -1.9888   -1.4145 C   0  0  0  0  0  0  0  0  0  0  0  0
    2.9623   -1.7504   -2.6081 F   0  0  0  0  0  0  0  0  0  0  0  0
    4.6831   -2.7420   -1.7309 F   0  0  0  0  0  0  0  0  0  0  0  0
    1.0052   -0.5140    1.5100 C   0  0  0  0  0  0  0  0  0  0  0  0
    0.0543    0.6708    1.6418 C   0  0  0  0  0  0  0  0  0  0  0  0
   -6.6093   -0.8725    1.4254 H   0  0  0  0  0  0  0  0  0  0  0  0
   -6.9659    0.6394   -0.5487 H   0  0  0  0  0  0  0  0  0  0  0  0
   -4.9681    1.7307   -1.5795 H   0  0  0  0  0  0  0  0  0  0  0  0
   -1.4106    1.5946    0.4117 H   0  0  0  0  0  0  0  0  0  0  0  0
   -0.9125   -1.2457   -0.5608 H   0  0  0  0  0  0  0  0  0  0  0  0
   -1.2642    0.1963   -1.4936 H   0  0  0  0  0  0  0  0  0  0  0  0
    1.0167    1.0904   -1.0208 H   0  0  0  0  0  0  0  0  0  0  0  0
    1.0477   -0.4575   -1.8755 H   0  0  0  0  0  0  0  0  0  0  0  0
    4.6860    2.4011    1.2926 H   0  0  0  0  0  0  0  0  0  0  0  0
    6.4507    1.2825   -0.1104 H   0  0  0  0  0  0  0  0  0  0  0  0
    2.9348   -2.6396   -0.8221 H   0  0  0  0  0  0  0  0  0  0  0  0
    0.4472   -1.4431    1.6841 H   0  0  0  0  0  0  0  0  0  0  0  0
    1.7683   -0.4835    2.2986 H   0  0  0  0  0  0  0  0  0  0  0  0
   -0.3317    0.7186    2.6668 H   0  0  0  0  0  0  0  0  0  0  0  0
    0.6057    1.6013    1.4602 H   0  0  0  0  0  0  0  0  0  0  0  0
  1  2  1  0
  2  3  1  0
  3  4  2  0
  4  5  1  0
  5  6  2  0
  6  7  1  0
  7  8  1  0
  8  9  1  0
  9 10  1  0
 10 11  1  0
 11 12  1  0
 12 13  1  0
 13 14  1  0
 14 15  2  0
 15 16  1  0
 16 17  2  0
 17 18  1  0
 18 19  1  0
 19 20  1  0
 19 21  1  0
 12 22  1  0
 22 23  1  0
  7  2  2  0
 23  9  1  0
 18 13  2  0
  3 24  1  0
  4 25  1  0
  5 26  1  0
  9 27  1  0
 10 28  1  0
 10 29  1  0
 11 30  1  0
 11 31  1  0
 15 32  1  0
 16 33  1  0
 19 34  1  0
 22 35  1  0
 22 36  1  0
 23 37  1  0
 23 38  1  0
M  END
$$$$
OCNT-2313778
     RDKit          3D

  0  0  0  0  0  0  0  0  0  0999 V3000
M  V30 BEGIN CTAB
M  V30 COUNTS 49 53 0 0 0
M  V30 BEGIN ATOM
M  V30 1 O -0.335852 -1.882377 -1.977666 0
M  V30 2 C -0.256763 -0.960248 -1.170270 0
M  V30 3 C 1.071158 -0.327975 -0.966588 0
M  V30 4 C 1.871709 -0.071928 -2.083991 0
M  V30 5 C 3.134992 0.502393 -1.924068 0
M  V30 6 C 3.617695 0.811851 -0.643196 0
M  V30 7 C 4.982237 1.434386 -0.469057 0
M  V30 8 N 5.882562 0.568729 0.269818 0
M  V30 9 C 6.471321 -0.580653 -0.159052 0
M  V30 10 N 7.258358 -1.047789 0.782664 0
M  V30 11 C 7.111609 -0.133507 1.786740 0
M  V30 12 N 6.284236 0.880756 1.519165 0
M  V30 13 C 2.812292 0.534884 0.474128 0
M  V30 14 C 1.550476 -0.042459 0.315195 0
M  V30 15 N -1.337050 -0.474876 -0.446164 0
M  V30 16 C -1.459050 0.903035 0.017456 0
M  V30 17 C -2.930495 1.257315 -0.211300 0 CFG=2
M  V30 18 C -3.371166 2.442547 0.596280 0
M  V30 19 C -3.675681 2.374206 2.072085 0
M  V30 20 C -4.789966 2.594037 1.083719 0
M  V30 21 C -3.620556 -0.078703 0.051947 0
M  V30 22 C -2.652306 -1.101180 -0.561131 0 CFG=2
M  V30 23 C -2.694425 -2.398117 0.197803 0
M  V30 24 C -2.472275 -3.715621 -0.502194 0
M  V30 25 C -3.843233 -3.356308 -0.004932 0
M  V30 26 H 1.510228 -0.324066 -3.079124 0
M  V30 27 H 3.736446 0.697664 -2.809832 0
M  V30 28 H 4.895581 2.387275 0.065625 0
M  V30 29 H 5.458878 1.638623 -1.434743 0
M  V30 30 H 6.296391 -1.019316 -1.131478 0
M  V30 31 H 7.624588 -0.208438 2.737083 0
M  V30 32 H 3.172650 0.752287 1.479715 0
M  V30 33 H 0.957166 -0.285488 1.192961 0
M  V30 34 H -0.793058 1.580482 -0.525583 0
M  V30 35 H -1.202841 0.922310 1.082624 0
M  V30 36 H -3.069551 1.504041 -1.273324 0
M  V30 37 H -2.880048 3.346622 0.243761 0
M  V30 38 H -3.633182 1.423700 2.589355 0
M  V30 39 H -3.377448 3.214799 2.690228 0
M  V30 40 H -5.238533 3.580820 1.037363 0
M  V30 41 H -5.498958 1.788541 0.933567 0
M  V30 42 H -4.613390 -0.136883 -0.406511 0
M  V30 43 H -3.748229 -0.261470 1.125022 0
M  V30 44 H -2.875830 -1.243931 -1.626129 0
M  V30 45 H -2.303097 -2.299013 1.204909 0
M  V30 46 H -1.913497 -4.478217 0.027914 0
M  V30 47 H -2.293795 -3.707770 -1.572178 0
M  V30 48 H -4.221483 -3.885650 0.862083 0
M  V30 49 H -4.598814 -3.119317 -0.745191 0
M  V30 END ATOM
M  V30 BEGIN BOND
M  V30 1 2 1 2
M  V30 2 1 2 3
M  V30 3 1 3 4
M  V30 4 2 4 5
M  V30 5 1 5 6
M  V30 6 1 6 7
M  V30 7 1 7 8
M  V30 8 1 8 9
M  V30 9 2 9 10
M  V30 10 1 10 11
M  V30 11 2 11 12
M  V30 12 2 6 13
M  V30 13 1 13 14
M  V30 14 1 2 15
M  V30 15 1 15 16
M  V30 16 1 16 17
M  V30 17 1 17 18
M  V30 18 1 18 19
M  V30 19 1 19 20
M  V30 20 1 17 21
M  V30 21 1 21 22
M  V30 22 1 22 23
M  V30 23 1 23 24
M  V30 24 1 24 25
M  V30 25 2 14 3
M  V30 26 1 22 15
M  V30 27 1 25 23
M  V30 28 1 12 8
M  V30 29 1 20 18
M  V30 30 1 4 26
M  V30 31 1 5 27
M  V30 32 1 7 28
M  V30 33 1 7 29
M  V30 34 1 9 30
M  V30 35 1 11 31
M  V30 36 1 13 32
M  V30 37 1 14 33
M  V30 38 1 16 34
M  V30 39 1 16 35
M  V30 40 1 17 36 CFG=3
M  V30 41 1 18 37
M  V30 42 1 19 38
M  V30 43 1 19 39
M  V30 44 1 20 40
M  V30 45 1 20 41
M  V30 46 1 21 42
M  V30 47 1 21 43
M  V30 48 1 22 44 CFG=3
M  V30 49 1 23 45
M  V30 50 1 24 46
M  V30 51 1 24 47
M  V30 52 1 25 48
M  V30 53 1 25 49
M  V30 END BOND
M  V30 BEGIN COLLECTION
M  V30 MDLV30/STERAC1 ATOMS=(2 17 22)
M  V30 END COLLECTION
M  V30 END CTAB
M  END
>  <_CXSMILES_Data>  (754) 
|&1:16,21|

$$$$
OCNT-2313785
     RDKit          3D

 50 54  0  0  0  0  0  0  0  0999 V2000
   -3.3996    2.1413    0.7213 C   0  0  0  0  0  0  0  0  0  0  0  0
   -2.8443    2.0811   -0.6096 N   0  0  0  0  0  0  0  0  0  0  0  0
   -2.8542    3.1244   -1.4994 C   0  0  0  0  0  0  0  0  0  0  0  0
   -3.3417    4.2320   -1.3570 O   0  0  0  0  0  0  0  0  0  0  0  0
   -2.1763    2.6579   -2.6156 N   0  0  0  0  0  0  0  0  0  0  0  0
   -1.7509    1.3753   -2.4202 N   0  0  0  0  0  0  0  0  0  0  0  0
   -2.1690    1.0814   -1.2186 C   0  0  0  0  0  0  0  0  0  0  0  0
   -1.9447   -0.2685   -0.5409 C   0  0  0  0  0  0  0  0  0  0  0  0
   -3.2382   -1.1114   -0.6045 C   0  0  0  0  0  0  0  0  0  0  0  0
   -3.5156   -2.0235    0.5721 C   0  0  0  0  0  0  0  0  0  0  0  0
   -2.4469   -2.5896    1.4744 C   0  0  0  0  0  0  0  0  0  0  0  0
   -3.4012   -1.5510    2.0004 C   0  0  0  0  0  0  0  0  0  0  0  0
   -3.0282   -1.9379   -1.8849 C   0  0  0  0  0  0  0  0  0  0  0  0
   -1.5386   -2.2325   -1.8777 C   0  0  0  0  0  0  0  0  0  0  0  0
   -0.9392   -1.0736   -1.2470 N   0  0  0  0  0  0  0  0  0  0  0  0
    0.4324   -0.9979   -1.1002 C   0  0  0  0  0  0  0  0  0  0  0  0
    1.1573   -1.9260   -1.4497 O   0  0  0  0  0  0  0  0  0  0  0  0
    0.8709    0.1654   -0.5308 N   0  0  0  0  0  0  0  0  0  0  0  0
    2.1639    0.4869   -0.1171 C   0  0  0  0  0  0  0  0  0  0  0  0
    3.1822   -0.4430    0.0423 C   0  0  0  0  0  0  0  0  0  0  0  0
    4.4419   -0.0124    0.4842 C   0  0  0  0  0  0  0  0  0  0  0  0
    5.5137   -0.9043    0.6568 C   0  0  0  0  0  0  0  0  0  0  0  0
    6.7578   -0.4474    1.0974 C   0  0  0  0  0  0  0  0  0  0  0  0
    6.9481    0.9048    1.3715 C   0  0  0  0  0  0  0  0  0  0  0  0
    5.8942    1.8038    1.2057 C   0  0  0  0  0  0  0  0  0  0  0  0
    4.6379    1.3520    0.7625 C   0  0  0  0  0  0  0  0  0  0  0  0
    3.5459    2.1995    0.5803 C   0  0  0  0  0  0  0  0  0  0  0  0
    2.3234    1.7990    0.1578 N   0  0  0  0  0  0  0  0  0  0  0  0
   -2.6158    1.8999    1.4444 H   0  0  0  0  0  0  0  0  0  0  0  0
   -4.1957    1.3977    0.8072 H   0  0  0  0  0  0  0  0  0  0  0  0
   -3.8026    3.1349    0.9325 H   0  0  0  0  0  0  0  0  0  0  0  0
   -1.9855    3.1798   -3.4606 H   0  0  0  0  0  0  0  0  0  0  0  0
   -1.6010   -0.0764    0.4793 H   0  0  0  0  0  0  0  0  0  0  0  0
   -4.1286   -0.4837   -0.7282 H   0  0  0  0  0  0  0  0  0  0  0  0
   -4.3681   -2.6665    0.3606 H   0  0  0  0  0  0  0  0  0  0  0  0
   -1.4096   -2.3078    1.3370 H   0  0  0  0  0  0  0  0  0  0  0  0
   -2.5679   -3.6116    1.8199 H   0  0  0  0  0  0  0  0  0  0  0  0
   -3.0025   -0.5705    2.2246 H   0  0  0  0  0  0  0  0  0  0  0  0
   -4.1607   -1.8780    2.7038 H   0  0  0  0  0  0  0  0  0  0  0  0
   -3.2759   -1.3241   -2.7601 H   0  0  0  0  0  0  0  0  0  0  0  0
   -3.6292   -2.8509   -1.9329 H   0  0  0  0  0  0  0  0  0  0  0  0
   -1.1288   -2.3768   -2.8821 H   0  0  0  0  0  0  0  0  0  0  0  0
   -1.3066   -3.1170   -1.2740 H   0  0  0  0  0  0  0  0  0  0  0  0
    0.3150    0.9918   -0.6784 H   0  0  0  0  0  0  0  0  0  0  0  0
    3.0192   -1.4944   -0.1645 H   0  0  0  0  0  0  0  0  0  0  0  0
    5.3856   -1.9641    0.4447 H   0  0  0  0  0  0  0  0  0  0  0  0
    7.5783   -1.1493    1.2243 H   0  0  0  0  0  0  0  0  0  0  0  0
    7.9174    1.2590    1.7130 H   0  0  0  0  0  0  0  0  0  0  0  0
    6.0570    2.8570    1.4227 H   0  0  0  0  0  0  0  0  0  0  0  0
    3.6247    3.2655    0.7772 H   0  0  0  0  0  0  0  0  0  0  0  0
  1  2  1  0
  2  3  1  0
  3  4  2  0
  3  5  1  0
  5  6  1  0
  6  7  2  0
  7  8  1  0
  8  9  1  0
  9 10  1  0
 10 11  1  0
 11 12  1  0
  9 13  1  0
 13 14  1  0
 14 15  1  0
 15 16  1  0
 16 17  2  0
 16 18  1  0
 18 19  1  0
 19 20  1  0
 20 21  2  0
 21 22  1  0
 22 23  2  0
 23 24  1  0
 24 25  2  0
 25 26  1  0
 26 27  2  0
 27 28  1  0
  7  2  1  0
 15  8  1  0
 28 19  2  0
 12 10  1  0
 26 21  1  0
  1 29  1  0
  1 30  1  0
  1 31  1  0
  5 32  1  0
  8 33  1  0
  9 34  1  0
 10 35  1  0
 11 36  1  0
 11 37  1  0
 12 38  1  0
 12 39  1  0
 13 40  1  0
 13 41  1  0
 14 42  1  0
 14 43  1  0
 18 44  1  0
 20 45  1  0
 22 46  1  0
 23 47  1  0
 24 48  1  0
 25 49  1  0
 27 50  1  0
M  END
$$$$
OCNT-2313789
     RDKit          3D

 42 45  0  0  0  0  0  0  0  0999 V2000
   -1.1937    0.9527    0.6928 O   0  0  0  0  0  0  0  0  0  0  0  0
   -0.6232    1.0731   -0.3878 C   0  0  0  0  0  0  0  0  0  0  0  0
   -1.1321    0.4931   -1.6198 C   0  0  0  0  0  0  0  0  0  0  0  0
   -0.4367    0.7534   -2.7825 C   0  0  0  0  0  0  0  0  0  0  0  0
    0.6922    1.4948   -2.9060 N   0  0  0  0  0  0  0  0  0  0  0  0
    1.1387    1.9725   -1.7903 C   0  0  0  0  0  0  0  0  0  0  0  0
    0.5703    1.7843   -0.5429 N   0  0  0  0  0  0  0  0  0  0  0  0
    1.1632    2.4198    0.6238 C   0  0  0  0  0  0  0  0  0  0  0  0
    1.7922    1.4485    1.6323 C   0  0  0  0  0  0  0  0  0  0  0  0
    3.0080    0.6754    1.1105 C   0  0  0  0  0  0  0  0  0  0  0  0
    3.8105    0.0375    2.2461 C   0  0  0  0  0  0  0  0  0  0  0  0
    4.3929   -1.2406    1.6566 C   0  0  0  0  0  0  0  0  0  0  0  0
    3.9135   -1.3195    0.2731 N   0  0  0  0  0  0  0  0  0  0  0  0
    2.6800   -0.5286    0.2377 C   0  0  0  0  0  0  0  0  0  0  0  0
   -1.1620    0.0221   -4.1410 S   0  0  0  0  0  0  0  0  0  0  0  0
   -2.4102   -0.6520   -3.1871 C   0  0  0  0  0  0  0  0  0  0  0  0
   -2.2875   -0.3277   -1.8485 C   0  0  0  0  0  0  0  0  0  0  0  0
   -3.2529   -0.8281   -0.8805 C   0  0  0  0  0  0  0  0  0  0  0  0
   -4.6016   -0.4581   -0.9708 C   0  0  0  0  0  0  0  0  0  0  0  0
   -5.5282   -0.9457   -0.0452 C   0  0  0  0  0  0  0  0  0  0  0  0
   -5.1072   -1.8031    0.9699 C   0  0  0  0  0  0  0  0  0  0  0  0
   -6.2487   -2.4030    2.1090 Cl  0  0  0  0  0  0  0  0  0  0  0  0
   -3.7687   -2.1780    1.0681 C   0  0  0  0  0  0  0  0  0  0  0  0
   -2.8415   -1.6914    0.1426 C   0  0  0  0  0  0  0  0  0  0  0  0
    2.0565    2.5822   -1.7889 H   0  0  0  0  0  0  0  0  0  0  0  0
    1.9158    3.1506    0.3053 H   0  0  0  0  0  0  0  0  0  0  0  0
    0.3702    2.9822    1.1324 H   0  0  0  0  0  0  0  0  0  0  0  0
    2.1085    2.0479    2.4963 H   0  0  0  0  0  0  0  0  0  0  0  0
    1.0391    0.7461    2.0082 H   0  0  0  0  0  0  0  0  0  0  0  0
    3.6700    1.3589    0.5608 H   0  0  0  0  0  0  0  0  0  0  0  0
    4.5946    0.7161    2.5987 H   0  0  0  0  0  0  0  0  0  0  0  0
    3.1691   -0.2084    3.1010 H   0  0  0  0  0  0  0  0  0  0  0  0
    5.4873   -1.2382    1.6877 H   0  0  0  0  0  0  0  0  0  0  0  0
    4.0477   -2.1141    2.2206 H   0  0  0  0  0  0  0  0  0  0  0  0
    4.6041   -0.8777   -0.3352 H   0  0  0  0  0  0  0  0  0  0  0  0
    2.4381   -0.2566   -0.7917 H   0  0  0  0  0  0  0  0  0  0  0  0
    1.8477   -1.1162    0.6427 H   0  0  0  0  0  0  0  0  0  0  0  0
   -3.1696   -1.2619   -3.6586 H   0  0  0  0  0  0  0  0  0  0  0  0
   -4.9384    0.2176   -1.7538 H   0  0  0  0  0  0  0  0  0  0  0  0
   -6.5712   -0.6506   -0.1197 H   0  0  0  0  0  0  0  0  0  0  0  0
   -3.4385   -2.8428    1.8616 H   0  0  0  0  0  0  0  0  0  0  0  0
   -1.7985   -1.9865    0.2311 H   0  0  0  0  0  0  0  0  0  0  0  0
  1  2  2  0
  2  3  1  0
  3  4  2  0
  4  5  1  0
  5  6  2  0
  6  7  1  0
  7  8  1  0
  8  9  1  0
  9 10  1  0
 10 11  1  0
 11 12  1  0
 12 13  1  0
 13 14  1  0
  4 15  1  0
 15 16  1  0
 16 17  2  0
 17 18  1  0
 18 19  1  0
 19 20  2  0
 20 21  1  0
 21 22  1  0
 21 23  2  0
 23 24  1  0
  7  2  1  0
 14 10  1  0
 24 18  2  0
 17  3  1  0
  6 25  1  0
  8 26  1  0
  8 27  1  0
  9 28  1  0
  9 29  1  0
 10 30  1  0
 11 31  1  0
 11 32  1  0
 12 33  1  0
 12 34  1  0
 13 35  1  0
 14 36  1  0
 14 37  1  0
 16 38  1  0
 19 39  1  0
 20 40  1  0
 23 41  1  0
 24 42  1  0
M  END
$$$$
OCNT-2313799
     RDKit          3D

 45 48  0  0  0  0  0  0  0  0999 V2000
    2.0188   -0.9889    2.0314 O   0  0  0  0  0  0  0  0  0  0  0  0
    2.2335   -0.3514    1.0097 C   0  0  0  0  0  0  0  0  0  0  0  0
    1.4098    0.6410    0.5157 N   0  0  0  0  0  0  0  0  0  0  0  0
    0.1795    1.0161    1.1866 C   0  0  0  0  0  0  0  0  0  0  0  0
   -1.0680    0.4471    0.4665 C   0  0  0  0  0  0  0  0  0  0  0  0
   -2.2952    0.8293    1.3440 C   0  0  0  0  0  0  0  0  0  0  0  0
   -3.6507    0.4168    0.8213 C   0  0  0  0  0  0  0  0  0  0  0  0
   -4.2042   -0.8230    1.1716 C   0  0  0  0  0  0  0  0  0  0  0  0
   -5.4605   -1.2019    0.6952 C   0  0  0  0  0  0  0  0  0  0  0  0
   -6.1827   -0.3425   -0.1293 C   0  0  0  0  0  0  0  0  0  0  0  0
   -5.6517    0.8985   -0.4731 C   0  0  0  0  0  0  0  0  0  0  0  0
   -4.3953    1.2782    0.0029 C   0  0  0  0  0  0  0  0  0  0  0  0
   -0.9832   -1.0518    0.0153 C   0  0  0  0  0  0  0  0  0  0  0  0
   -1.5277   -0.6437   -1.3648 C   0  0  0  0  0  0  0  0  0  0  0  0
   -1.1609    0.8175   -1.0530 C   0  0  0  0  0  0  0  0  0  0  0  0
    3.4202   -0.6502    0.1841 C   0  0  0  0  0  0  0  0  0  0  0  0
    3.7950   -1.9800   -0.0515 C   0  0  0  0  0  0  0  0  0  0  0  0
    4.8975   -2.2802   -0.8529 C   0  0  0  0  0  0  0  0  0  0  0  0
    5.6629   -1.2588   -1.4329 C   0  0  0  0  0  0  0  0  0  0  0  0
    5.3163    0.0805   -1.1789 C   0  0  0  0  0  0  0  0  0  0  0  0
    4.2155    0.3582   -0.3751 C   0  0  0  0  0  0  0  0  0  0  0  0
    4.1811    1.7239   -0.2713 N   0  0  0  0  0  0  0  0  0  0  0  0
    5.1139    2.3534   -1.0062 N   0  0  0  0  0  0  0  0  0  0  0  0
    5.8159    1.3509   -1.5418 C   0  0  0  0  0  0  0  0  0  0  0  0
    1.5524    0.9522   -0.4368 H   0  0  0  0  0  0  0  0  0  0  0  0
    0.1457    2.1112    1.1884 H   0  0  0  0  0  0  0  0  0  0  0  0
    0.2132    0.6744    2.2269 H   0  0  0  0  0  0  0  0  0  0  0  0
   -2.3058    1.9175    1.4961 H   0  0  0  0  0  0  0  0  0  0  0  0
   -2.1705    0.3984    2.3471 H   0  0  0  0  0  0  0  0  0  0  0  0
   -3.6594   -1.5042    1.8217 H   0  0  0  0  0  0  0  0  0  0  0  0
   -5.8759   -2.1677    0.9708 H   0  0  0  0  0  0  0  0  0  0  0  0
   -7.1610   -0.6375   -0.4990 H   0  0  0  0  0  0  0  0  0  0  0  0
   -6.2174    1.5734   -1.1100 H   0  0  0  0  0  0  0  0  0  0  0  0
   -4.0026    2.2551   -0.2690 H   0  0  0  0  0  0  0  0  0  0  0  0
   -1.5938   -1.7687    0.5694 H   0  0  0  0  0  0  0  0  0  0  0  0
    0.0216   -1.4794   -0.0547 H   0  0  0  0  0  0  0  0  0  0  0  0
   -1.0016   -1.0812   -2.2184 H   0  0  0  0  0  0  0  0  0  0  0  0
   -2.5991   -0.8215   -1.4980 H   0  0  0  0  0  0  0  0  0  0  0  0
   -0.2220    1.1209   -1.5283 H   0  0  0  0  0  0  0  0  0  0  0  0
   -1.9107    1.5610   -1.3344 H   0  0  0  0  0  0  0  0  0  0  0  0
    3.2138   -2.7877    0.3908 H   0  0  0  0  0  0  0  0  0  0  0  0
    5.1671   -3.3195   -1.0293 H   0  0  0  0  0  0  0  0  0  0  0  0
    6.5192   -1.5029   -2.0556 H   0  0  0  0  0  0  0  0  0  0  0  0
    3.5427    2.2847    0.2837 H   0  0  0  0  0  0  0  0  0  0  0  0
    6.6643    1.5830   -2.1727 H   0  0  0  0  0  0  0  0  0  0  0  0
  1  2  2  0
  2  3  1  0
  3  4  1  0
  4  5  1  0
  5  6  1  0
  6  7  1  0
  7  8  2  0
  8  9  1  0
  9 10  2  0
 10 11  1  0
 11 12  2  0
  5 13  1  0
 13 14  1  0
 14 15  1  0
  2 16  1  0
 16 17  1  0
 17 18  2  0
 18 19  1  0
 19 20  2  0
 20 21  1  0
 21 22  1  0
 22 23  1  0
 23 24  2  0
 15  5  1  0
 21 16  2  0
 12  7  1  0
 24 20  1  0
  3 25  1  0
  4 26  1  0
  4 27  1  0
  6 28  1  0
  6 29  1  0
  8 30  1  0
  9 31  1  0
 10 32  1  0
 11 33  1  0
 12 34  1  0
 13 35  1  0
 13 36  1  0
 14 37  1  0
 14 38  1  0
 15 39  1  0
 15 40  1  0
 17 41  1  0
 18 42  1  0
 19 43  1  0
 22 44  1  0
 24 45  1  0
M  END
$$$$
OCNT-2313808
     RDKit          3D

 45 48  0  0  0  0  0  0  0  0999 V2000
    1.5737   -1.2870    2.9727 O   0  0  0  0  0  0  0  0  0  0  0  0
    1.8139   -0.6948    1.9273 C   0  0  0  0  0  0  0  0  0  0  0  0
    0.9165    0.1099    1.2652 N   0  0  0  0  0  0  0  0  0  0  0  0
   -0.4483    0.3122    1.7010 C   0  0  0  0  0  0  0  0  0  0  0  0
   -1.3267   -0.6513    0.9046 C   0  0  0  0  0  0  0  0  0  0  0  0
   -1.3067   -2.1298    1.3813 C   0  0  0  0  0  0  0  0  0  0  0  0
   -2.8259   -2.0930    1.1462 C   0  0  0  0  0  0  0  0  0  0  0  0
   -2.7578   -0.6241    1.3204 N   0  0  0  0  0  0  0  0  0  0  0  0
   -3.6859    0.1062    0.4383 C   0  0  0  0  0  0  0  0  0  0  0  0
   -3.5817    1.6273    0.6731 C   0  0  0  0  0  0  0  0  0  0  0  0
   -2.9519    2.3258   -0.5206 C   0  0  0  0  0  0  0  0  0  0  0  0
   -3.6989    2.1466   -1.7237 O   0  0  0  0  0  0  0  0  0  0  0  0
   -4.3999    0.9079   -1.8270 C   0  0  0  0  0  0  0  0  0  0  0  0
   -3.7119   -0.2197   -1.0703 C   0  0  0  0  0  0  0  0  0  0  0  0
    3.1044   -0.7822    1.2380 C   0  0  0  0  0  0  0  0  0  0  0  0
    4.1835   -1.5097    1.7038 C   0  0  0  0  0  0  0  0  0  0  0  0
    5.5028   -1.3671    0.6234 S   0  0  0  0  0  0  0  0  0  0  0  0
    4.5573   -0.3541   -0.3895 C   0  0  0  0  0  0  0  0  0  0  0  0
    5.0973    0.2569   -1.7183 C   0  0  0  0  0  0  0  0  0  0  0  0
    4.3640    1.0707   -2.5493 C   0  0  0  0  0  0  0  0  0  0  0  0
    5.1091    1.4402   -3.6246 O   0  0  0  0  0  0  0  0  0  0  0  0
    6.3279    0.8572   -3.4769 C   0  0  0  0  0  0  0  0  0  0  0  0
    6.3725    0.1166   -2.3173 C   0  0  0  0  0  0  0  0  0  0  0  0
    3.3297   -0.1195    0.0256 N   0  0  0  0  0  0  0  0  0  0  0  0
    1.2385    0.5082    0.3876 H   0  0  0  0  0  0  0  0  0  0  0  0
   -0.5310    0.1524    2.7812 H   0  0  0  0  0  0  0  0  0  0  0  0
   -0.6972    1.3530    1.4768 H   0  0  0  0  0  0  0  0  0  0  0  0
   -1.1486   -0.5645   -0.1735 H   0  0  0  0  0  0  0  0  0  0  0  0
   -1.0315   -2.2786    2.4321 H   0  0  0  0  0  0  0  0  0  0  0  0
   -0.7413   -2.8277    0.7587 H   0  0  0  0  0  0  0  0  0  0  0  0
   -3.1090   -2.4643    0.1558 H   0  0  0  0  0  0  0  0  0  0  0  0
   -3.4253   -2.6139    1.8985 H   0  0  0  0  0  0  0  0  0  0  0  0
   -4.6824   -0.1658    0.8174 H   0  0  0  0  0  0  0  0  0  0  0  0
   -3.0352    1.8653    1.5925 H   0  0  0  0  0  0  0  0  0  0  0  0
   -4.5966    2.0235    0.8144 H   0  0  0  0  0  0  0  0  0  0  0  0
   -1.9315    1.9666   -0.6943 H   0  0  0  0  0  0  0  0  0  0  0  0
   -2.8847    3.4027   -0.3353 H   0  0  0  0  0  0  0  0  0  0  0  0
   -4.4738    0.6604   -2.8908 H   0  0  0  0  0  0  0  0  0  0  0  0
   -5.4217    1.0585   -1.4596 H   0  0  0  0  0  0  0  0  0  0  0  0
   -4.2466   -1.1591   -1.2485 H   0  0  0  0  0  0  0  0  0  0  0  0
   -2.7040   -0.3342   -1.4786 H   0  0  0  0  0  0  0  0  0  0  0  0
    4.2472   -2.0999    2.6080 H   0  0  0  0  0  0  0  0  0  0  0  0
    3.3557    1.4591   -2.5196 H   0  0  0  0  0  0  0  0  0  0  0  0
    7.0404    1.0612   -4.2644 H   0  0  0  0  0  0  0  0  0  0  0  0
    7.2214   -0.4483   -1.9593 H   0  0  0  0  0  0  0  0  0  0  0  0
  1  2  2  0
  2  3  1  0
  3  4  1  0
  4  5  1  0
  5  6  1  0
  6  7  1  0
  7  8  1  0
  8  9  1  0
  9 10  1  0
 10 11  1  0
 11 12  1  0
 12 13  1  0
 13 14  1  0
  2 15  1  0
 15 16  2  0
 16 17  1  0
 17 18  1  0
 18 19  1  0
 19 20  2  0
 20 21  1  0
 21 22  1  0
 22 23  2  0
 18 24  2  0
  8  5  1  0
 14  9  1  0
 24 15  1  0
 23 19  1  0
  3 25  1  0
  4 26  1  0
  4 27  1  0
  5 28  1  0
  6 29  1  0
  6 30  1  0
  7 31  1  0
  7 32  1  0
  9 33  1  0
 10 34  1  0
 10 35  1  0
 11 36  1  0
 11 37  1  0
 13 38  1  0
 13 39  1  0
 14 40  1  0
 14 41  1  0
 16 42  1  0
 20 43  1  0
 22 44  1  0
 23 45  1  0
M  END
$$$$
OCNT-2313825
     RDKit          3D

 51 55  0  0  0  0  0  0  0  0999 V2000
    3.2358   -3.5589    2.9429 O   0  0  0  0  0  0  0  0  0  0  0  0
    3.0234   -2.7743    2.0260 C   0  0  0  0  0  0  0  0  0  0  0  0
    2.1528   -3.0666    1.0114 O   0  0  0  0  0  0  0  0  0  0  0  0
    1.9020   -2.1446   -0.0127 C   0  0  0  0  0  0  0  0  0  0  0  0
    2.4578   -0.9317   -0.0913 C   0  0  0  0  0  0  0  0  0  0  0  0
    2.0978   -0.0856   -1.2581 C   0  0  0  0  0  0  0  0  0  0  0  0
    2.9112    0.0415   -2.1708 O   0  0  0  0  0  0  0  0  0  0  0  0
    0.8447    0.5292   -1.2453 N   0  0  0  0  0  0  0  0  0  0  0  0
    0.5745    1.4650   -2.3312 C   0  0  0  0  0  0  0  0  0  0  0  0
   -0.9104    1.5900   -2.6312 C   0  0  0  0  0  0  0  0  0  0  0  0
   -1.7079    1.9397   -1.3788 C   0  0  0  0  0  0  0  0  0  0  0  0
   -1.4451    0.9908   -0.1757 C   0  0  0  0  0  0  0  0  0  0  0  0
   -1.9026    1.7071    1.1320 C   0  0  0  0  0  0  0  0  0  0  0  0
   -3.4140    1.8516    1.2178 C   0  0  0  0  0  0  0  0  0  0  0  0
   -4.0604    0.4788    1.2858 C   0  0  0  0  0  0  0  0  0  0  0  0
   -3.4792   -0.5180    0.3131 C   0  0  0  0  0  0  0  0  0  0  0  0
   -4.1913   -1.7187    0.1290 C   0  0  0  0  0  0  0  0  0  0  0  0
   -3.7100   -2.7170   -0.7112 C   0  0  0  0  0  0  0  0  0  0  0  0
   -2.5069   -2.5296   -1.3746 C   0  0  0  0  0  0  0  0  0  0  0  0
   -1.7870   -1.3462   -1.1950 C   0  0  0  0  0  0  0  0  0  0  0  0
   -2.2454   -0.3181   -0.3484 C   0  0  0  0  0  0  0  0  0  0  0  0
    0.0871    0.7481   -0.0038 C   0  0  0  0  0  0  0  0  0  0  0  0
    3.4354   -0.5561    0.9270 C   0  0  0  0  0  0  0  0  0  0  0  0
    4.1064    0.6754    0.9037 C   0  0  0  0  0  0  0  0  0  0  0  0
    5.0243    1.0036    1.9050 C   0  0  0  0  0  0  0  0  0  0  0  0
    5.2824    0.1077    2.9398 C   0  0  0  0  0  0  0  0  0  0  0  0
    4.6253   -1.1212    2.9727 C   0  0  0  0  0  0  0  0  0  0  0  0
    3.7046   -1.4542    1.9678 C   0  0  0  0  0  0  0  0  0  0  0  0
    1.1941   -2.5596   -0.7186 H   0  0  0  0  0  0  0  0  0  0  0  0
    1.0956    1.1510   -3.2424 H   0  0  0  0  0  0  0  0  0  0  0  0
    0.9918    2.4362   -2.0380 H   0  0  0  0  0  0  0  0  0  0  0  0
   -1.2847    0.6593   -3.0700 H   0  0  0  0  0  0  0  0  0  0  0  0
   -1.0635    2.3683   -3.3881 H   0  0  0  0  0  0  0  0  0  0  0  0
   -2.7733    1.9609   -1.6394 H   0  0  0  0  0  0  0  0  0  0  0  0
   -1.4384    2.9665   -1.0964 H   0  0  0  0  0  0  0  0  0  0  0  0
   -1.4434    2.7016    1.2012 H   0  0  0  0  0  0  0  0  0  0  0  0
   -1.5514    1.1457    2.0095 H   0  0  0  0  0  0  0  0  0  0  0  0
   -3.6870    2.4279    2.1094 H   0  0  0  0  0  0  0  0  0  0  0  0
   -3.7985    2.4107    0.3576 H   0  0  0  0  0  0  0  0  0  0  0  0
   -3.9320    0.0728    2.2976 H   0  0  0  0  0  0  0  0  0  0  0  0
   -5.1376    0.5880    1.1108 H   0  0  0  0  0  0  0  0  0  0  0  0
   -5.1322   -1.8802    0.6517 H   0  0  0  0  0  0  0  0  0  0  0  0
   -4.2719   -3.6371   -0.8449 H   0  0  0  0  0  0  0  0  0  0  0  0
   -2.1249   -3.3020   -2.0370 H   0  0  0  0  0  0  0  0  0  0  0  0
   -0.8583   -1.2464   -1.7481 H   0  0  0  0  0  0  0  0  0  0  0  0
    0.5539    1.6314    0.4542 H   0  0  0  0  0  0  0  0  0  0  0  0
    0.2449   -0.0756    0.6990 H   0  0  0  0  0  0  0  0  0  0  0  0
    3.9353    1.3913    0.1014 H   0  0  0  0  0  0  0  0  0  0  0  0
    5.5430    1.9593    1.8722 H   0  0  0  0  0  0  0  0  0  0  0  0
    5.9991    0.3627    3.7170 H   0  0  0  0  0  0  0  0  0  0  0  0
    4.8344   -1.8206    3.7805 H   0  0  0  0  0  0  0  0  0  0  0  0
  1  2  2  0
  2  3  1  0
  3  4  1  0
  4  5  2  0
  5  6  1  0
  6  7  2  0
  6  8  1  0
  8  9  1  0
  9 10  1  0
 10 11  1  0
 11 12  1  0
 12 13  1  0
 13 14  1  0
 14 15  1  0
 15 16  1  0
 16 17  2  0
 17 18  1  0
 18 19  2  0
 19 20  1  0
 20 21  2  0
 12 22  1  0
  5 23  1  0
 23 24  2  0
 24 25  1  0
 25 26  2  0
 26 27  1  0
 27 28  2  0
 28  2  1  0
 22  8  1  0
 28 23  1  0
 21 12  1  0
 21 16  1  0
  4 29  1  0
  9 30  1  0
  9 31  1  0
 10 32  1  0
 10 33  1  0
 11 34  1  0
 11 35  1  0
 13 36  1  0
 13 37  1  0
 14 38  1  0
 14 39  1  0
 15 40  1  0
 15 41  1  0
 17 42  1  0
 18 43  1  0
 19 44  1  0
 20 45  1  0
 22 46  1  0
 22 47  1  0
 24 48  1  0
 25 49  1  0
 26 50  1  0
 27 51  1  0
M  END
$$$$
OCNT-2313829
     RDKit          3D

 50 53  0  0  0  0  0  0  0  0999 V2000
   -7.5140    0.4532    2.5357 C   0  0  0  0  0  0  0  0  0  0  0  0
   -6.0916   -0.1096    2.5684 C   0  0  0  0  0  0  0  0  0  0  0  0
   -6.1209   -1.6341    2.6726 C   0  0  0  0  0  0  0  0  0  0  0  0
   -5.3154    0.3161    1.3486 C   0  0  0  0  0  0  0  0  0  0  0  0
   -5.7931    0.3176    0.1209 N   0  0  0  0  0  0  0  0  0  0  0  0
   -4.8291    0.7834   -0.7531 C   0  0  0  0  0  0  0  0  0  0  0  0
   -3.5981    1.0562   -0.1963 C   0  0  0  0  0  0  0  0  0  0  0  0
   -2.4237    1.5779   -0.8608 C   0  0  0  0  0  0  0  0  0  0  0  0
   -2.5066    2.5446   -1.6189 O   0  0  0  0  0  0  0  0  0  0  0  0
   -1.1912    0.9459   -0.6463 N   0  0  0  0  0  0  0  0  0  0  0  0
    0.0042    1.5781   -1.2015 C   0  0  0  0  0  0  0  0  0  0  0  0
    1.2748    1.0704   -0.5287 C   0  0  0  0  0  0  0  0  0  0  0  0
    1.4423   -0.4584   -0.6675 C   0  0  0  0  0  0  0  0  0  0  0  0
    2.3676   -0.8531   -1.8349 C   0  0  0  0  0  0  0  0  0  0  0  0
    3.7996   -0.5372   -1.5600 C   0  0  0  0  0  0  0  0  0  0  0  0
    4.4282    0.5812   -1.8562 N   0  0  0  0  0  0  0  0  0  0  0  0
    5.7175    0.4109   -1.4154 C   0  0  0  0  0  0  0  0  0  0  0  0
    6.8096    1.2883   -1.4716 C   0  0  0  0  0  0  0  0  0  0  0  0
    8.0374    0.8668   -0.9445 C   0  0  0  0  0  0  0  0  0  0  0  0
    8.1739   -0.4014   -0.3737 C   0  0  0  0  0  0  0  0  0  0  0  0
    7.0942   -1.2903   -0.3080 C   0  0  0  0  0  0  0  0  0  0  0  0
    5.8830   -0.8434   -0.8402 C   0  0  0  0  0  0  0  0  0  0  0  0
    4.6477   -1.4278   -0.9475 N   0  0  0  0  0  0  0  0  0  0  0  0
    0.0809   -1.1620   -0.8326 C   0  0  0  0  0  0  0  0  0  0  0  0
   -1.0436   -0.4136   -0.1229 C   0  0  0  0  0  0  0  0  0  0  0  0
   -3.6823    0.8422    1.5016 S   0  0  0  0  0  0  0  0  0  0  0  0
   -7.5029    1.5444    2.4418 H   0  0  0  0  0  0  0  0  0  0  0  0
   -8.0883    0.0539    1.6919 H   0  0  0  0  0  0  0  0  0  0  0  0
   -8.0512    0.1999    3.4563 H   0  0  0  0  0  0  0  0  0  0  0  0
   -5.6044    0.2852    3.4689 H   0  0  0  0  0  0  0  0  0  0  0  0
   -5.1065   -2.0431    2.7399 H   0  0  0  0  0  0  0  0  0  0  0  0
   -6.6024   -2.0876    1.7988 H   0  0  0  0  0  0  0  0  0  0  0  0
   -6.6707   -1.9523    3.5652 H   0  0  0  0  0  0  0  0  0  0  0  0
   -5.0741    0.8942   -1.8033 H   0  0  0  0  0  0  0  0  0  0  0  0
    0.0241    1.3682   -2.2774 H   0  0  0  0  0  0  0  0  0  0  0  0
   -0.0742    2.6641   -1.0801 H   0  0  0  0  0  0  0  0  0  0  0  0
    2.1413    1.6134   -0.9188 H   0  0  0  0  0  0  0  0  0  0  0  0
    1.2196    1.3137    0.5411 H   0  0  0  0  0  0  0  0  0  0  0  0
    1.8944   -0.8195    0.2673 H   0  0  0  0  0  0  0  0  0  0  0  0
    2.2797   -1.9299   -2.0305 H   0  0  0  0  0  0  0  0  0  0  0  0
    2.0546   -0.3425   -2.7542 H   0  0  0  0  0  0  0  0  0  0  0  0
    6.6951    2.2700   -1.9165 H   0  0  0  0  0  0  0  0  0  0  0  0
    8.8934    1.5371   -0.9815 H   0  0  0  0  0  0  0  0  0  0  0  0
    9.1397   -0.7045    0.0272 H   0  0  0  0  0  0  0  0  0  0  0  0
    7.2019   -2.2741    0.1348 H   0  0  0  0  0  0  0  0  0  0  0  0
    4.4045   -2.3542   -0.6306 H   0  0  0  0  0  0  0  0  0  0  0  0
   -0.1730   -1.2447   -1.8978 H   0  0  0  0  0  0  0  0  0  0  0  0
    0.1502   -2.1858   -0.4468 H   0  0  0  0  0  0  0  0  0  0  0  0
   -0.8267   -0.3356    0.9482 H   0  0  0  0  0  0  0  0  0  0  0  0
   -1.9754   -0.9725   -0.2474 H   0  0  0  0  0  0  0  0  0  0  0  0
  1  2  1  0
  2  3  1  0
  2  4  1  0
  4  5  2  0
  5  6  1  0
  6  7  2  0
  7  8  1  0
  8  9  2  0
  8 10  1  0
 10 11  1  0
 11 12  1  0
 12 13  1  0
 13 14  1  0
 14 15  1  0
 15 16  2  0
 16 17  1  0
 17 18  2  0
 18 19  1  0
 19 20  2  0
 20 21  1  0
 21 22  2  0
 22 23  1  0
 13 24  1  0
 24 25  1  0
  7 26  1  0
 26  4  1  0
 25 10  1  0
 23 15  1  0
 22 17  1  0
  1 27  1  0
  1 28  1  0
  1 29  1  0
  2 30  1  0
  3 31  1  0
  3 32  1  0
  3 33  1  0
  6 34  1  0
 11 35  1  0
 11 36  1  0
 12 37  1  0
 12 38  1  0
 13 39  1  0
 14 40  1  0
 14 41  1  0
 18 42  1  0
 19 43  1  0
 20 44  1  0
 21 45  1  0
 23 46  1  0
 24 47  1  0
 24 48  1  0
 25 49  1  0
 25 50  1  0
M  END
$$$$
OCNT-2313831
     RDKit          3D

 34 37  0  0  0  0  0  0  0  0999 V2000
    6.3910   -0.1645   -0.4758 O   0  0  0  0  0  0  0  0  0  0  0  0
    5.1869   -0.2745   -0.5784 C   0  0  0  0  0  0  0  0  0  0  0  0
    4.5000   -1.1256   -1.4132 N   0  0  0  0  0  0  0  0  0  0  0  0
    3.0710   -1.0076   -1.2832 C   0  0  0  0  0  0  0  0  0  0  0  0
    2.9103    0.0532   -0.2429 C   0  0  0  0  0  0  0  0  0  0  0  0
    4.1780    0.4813    0.1707 C   0  0  0  0  0  0  0  0  0  0  0  0
    4.3732    1.4553    1.1276 C   0  0  0  0  0  0  0  0  0  0  0  0
    3.2337    2.0222    1.6895 C   0  0  0  0  0  0  0  0  0  0  0  0
    1.9468    1.6054    1.2867 C   0  0  0  0  0  0  0  0  0  0  0  0
    1.7648    0.6097    0.3143 C   0  0  0  0  0  0  0  0  0  0  0  0
    0.5011    0.1612   -0.1297 N   0  0  0  0  0  0  0  0  0  0  0  0
   -0.7438    0.5267    0.3605 C   0  0  0  0  0  0  0  0  0  0  0  0
   -0.9370    1.2635    1.3202 O   0  0  0  0  0  0  0  0  0  0  0  0
   -1.8611   -0.0782   -0.3596 C   0  0  0  0  0  0  0  0  0  0  0  0
   -3.1657   -0.1994    0.0893 C   0  0  0  0  0  0  0  0  0  0  0  0
   -3.8613    0.1601    1.2841 C   0  0  0  0  0  0  0  0  0  0  0  0
   -5.1726   -0.1208    1.4048 C   0  0  0  0  0  0  0  0  0  0  0  0
   -5.9090   -0.7858    0.3450 C   0  0  0  0  0  0  0  0  0  0  0  0
   -5.2580   -1.1228   -0.7797 C   0  0  0  0  0  0  0  0  0  0  0  0
   -3.8985   -0.8362   -0.9169 N   0  0  0  0  0  0  0  0  0  0  0  0
   -3.1108   -1.1169   -1.9860 N   0  0  0  0  0  0  0  0  0  0  0  0
   -1.9114   -0.6439   -1.6528 C   0  0  0  0  0  0  0  0  0  0  0  0
    4.9916   -1.7585   -2.0307 H   0  0  0  0  0  0  0  0  0  0  0  0
    2.6664   -1.9698   -0.9583 H   0  0  0  0  0  0  0  0  0  0  0  0
    2.6533   -0.7078   -2.2479 H   0  0  0  0  0  0  0  0  0  0  0  0
    5.3711    1.7612    1.4227 H   0  0  0  0  0  0  0  0  0  0  0  0
    3.3309    2.7970    2.4474 H   0  0  0  0  0  0  0  0  0  0  0  0
    1.1026    2.0976    1.7623 H   0  0  0  0  0  0  0  0  0  0  0  0
    0.5100   -0.5523   -0.8422 H   0  0  0  0  0  0  0  0  0  0  0  0
   -3.3282    0.6627    2.0869 H   0  0  0  0  0  0  0  0  0  0  0  0
   -5.7144    0.1498    2.3065 H   0  0  0  0  0  0  0  0  0  0  0  0
   -6.9643   -0.9933    0.4827 H   0  0  0  0  0  0  0  0  0  0  0  0
   -5.7272   -1.6183   -1.6187 H   0  0  0  0  0  0  0  0  0  0  0  0
   -1.1194   -0.7306   -2.3852 H   0  0  0  0  0  0  0  0  0  0  0  0
  1  2  2  0
  2  3  1  0
  3  4  1  0
  4  5  1  0
  5  6  2  0
  6  7  1  0
  7  8  2  0
  8  9  1  0
  9 10  2  0
 10 11  1  0
 11 12  1  0
 12 13  2  0
 12 14  1  0
 14 15  2  0
 15 16  1  0
 16 17  2  0
 17 18  1  0
 18 19  2  0
 19 20  1  0
 20 21  1  0
 21 22  2  0
  6  2  1  0
 22 14  1  0
 10  5  1  0
 20 15  1  0
  3 23  1  0
  4 24  1  0
  4 25  1  0
  7 26  1  0
  8 27  1  0
  9 28  1  0
 11 29  1  0
 16 30  1  0
 17 31  1  0
 18 32  1  0
 19 33  1  0
 22 34  1  0
M  END
$$$$
OCNT-2313833
     RDKit          3D

 43 45  0  0  0  0  0  0  0  0999 V2000
   -5.9206    0.3092    2.4662 C   0  0  0  0  0  0  0  0  0  0  0  0
   -5.8334    0.3554    0.9482 C   0  0  0  0  0  0  0  0  0  0  0  0
   -4.5966   -0.2454    0.4554 N   0  0  0  0  0  0  0  0  0  0  0  0
   -4.5705   -1.5970    0.1626 C   0  0  0  0  0  0  0  0  0  0  0  0
   -3.4510   -2.1914   -0.2634 C   0  0  0  0  0  0  0  0  0  0  0  0
   -2.2369   -1.4304   -0.4250 C   0  0  0  0  0  0  0  0  0  0  0  0
   -2.1938   -0.1198   -0.1441 C   0  0  0  0  0  0  0  0  0  0  0  0
   -1.0967    0.7127   -0.2517 N   0  0  0  0  0  0  0  0  0  0  0  0
    0.1841    0.4043   -0.6681 C   0  0  0  0  0  0  0  0  0  0  0  0
    0.5614   -0.7011   -1.0350 O   0  0  0  0  0  0  0  0  0  0  0  0
    1.0915    1.6274   -0.6314 C   0  0  0  0  0  0  0  0  0  0  0  0
    2.5728    1.3836   -0.9741 C   0  0  0  0  0  0  0  0  0  0  0  0
    2.7449    0.9920   -2.4457 C   0  0  0  0  0  0  0  0  0  0  0  0
    4.1969    0.7890   -2.8029 C   0  0  0  0  0  0  0  0  0  0  0  0
    4.6474    1.0664   -3.9123 O   0  0  0  0  0  0  0  0  0  0  0  0
    4.9755    0.1843   -1.8562 N   0  0  0  0  0  0  0  0  0  0  0  0
    4.5578   -0.0902   -0.5503 C   0  0  0  0  0  0  0  0  0  0  0  0
    5.3774   -0.8712    0.2668 C   0  0  0  0  0  0  0  0  0  0  0  0
    4.9904   -1.1456    1.5765 C   0  0  0  0  0  0  0  0  0  0  0  0
    3.7963   -0.6255    2.0693 C   0  0  0  0  0  0  0  0  0  0  0  0
    2.9869    0.1736    1.2569 C   0  0  0  0  0  0  0  0  0  0  0  0
    3.3514    0.4446   -0.0697 C   0  0  0  0  0  0  0  0  0  0  0  0
   -3.4585    0.5539    0.3501 C   0  0  0  0  0  0  0  0  0  0  0  0
   -3.4168    1.7542    0.6301 O   0  0  0  0  0  0  0  0  0  0  0  0
   -6.8518    0.7713    2.8078 H   0  0  0  0  0  0  0  0  0  0  0  0
   -5.8970   -0.7232    2.8302 H   0  0  0  0  0  0  0  0  0  0  0  0
   -5.0838    0.8446    2.9263 H   0  0  0  0  0  0  0  0  0  0  0  0
   -6.6910   -0.1622    0.5025 H   0  0  0  0  0  0  0  0  0  0  0  0
   -5.8820    1.3988    0.6155 H   0  0  0  0  0  0  0  0  0  0  0  0
   -5.4924   -2.1565    0.2924 H   0  0  0  0  0  0  0  0  0  0  0  0
   -3.4286   -3.2518   -0.4941 H   0  0  0  0  0  0  0  0  0  0  0  0
   -1.3697   -1.9762   -0.7802 H   0  0  0  0  0  0  0  0  0  0  0  0
   -1.2998    1.6744    0.0186 H   0  0  0  0  0  0  0  0  0  0  0  0
    0.6790    2.3586   -1.3393 H   0  0  0  0  0  0  0  0  0  0  0  0
    1.0135    2.0787    0.3657 H   0  0  0  0  0  0  0  0  0  0  0  0
    3.0682    2.3591   -0.8472 H   0  0  0  0  0  0  0  0  0  0  0  0
    2.3410    1.7824   -3.0892 H   0  0  0  0  0  0  0  0  0  0  0  0
    2.2261    0.0598   -2.6926 H   0  0  0  0  0  0  0  0  0  0  0  0
    5.9053   -0.0773   -2.1562 H   0  0  0  0  0  0  0  0  0  0  0  0
    6.3117   -1.2796   -0.1076 H   0  0  0  0  0  0  0  0  0  0  0  0
    5.6193   -1.7624    2.2129 H   0  0  0  0  0  0  0  0  0  0  0  0
    3.4957   -0.8354    3.0930 H   0  0  0  0  0  0  0  0  0  0  0  0
    2.0763    0.5777    1.6888 H   0  0  0  0  0  0  0  0  0  0  0  0
  1  2  1  0
  2  3  1  0
  3  4  1  0
  4  5  2  0
  5  6  1  0
  6  7  2  0
  7  8  1  0
  8  9  1  0
  9 10  2  0
  9 11  1  0
 11 12  1  0
 12 13  1  0
 13 14  1  0
 14 15  2  0
 14 16  1  0
 16 17  1  0
 17 18  2  0
 18 19  1  0
 19 20  2  0
 20 21  1  0
 21 22  2  0
  7 23  1  0
 23 24  2  0
 23  3  1  0
 22 12  1  0
 22 17  1  0
  1 25  1  0
  1 26  1  0
  1 27  1  0
  2 28  1  0
  2 29  1  0
  4 30  1  0
  5 31  1  0
  6 32  1  0
  8 33  1  0
 11 34  1  0
 11 35  1  0
 12 36  1  0
 13 37  1  0
 13 38  1  0
 16 39  1  0
 18 40  1  0
 19 41  1  0
 20 42  1  0
 21 43  1  0
M  END
$$$$
OCNT-2313845
     RDKit          3D

 46 48  0  0  0  0  0  0  0  0999 V2000
   -6.7083    0.1099    2.1385 C   0  0  0  0  0  0  0  0  0  0  0  0
   -5.5786    0.1449    1.1436 C   0  0  0  0  0  0  0  0  0  0  0  0
   -4.2631    0.1715    1.6184 C   0  0  0  0  0  0  0  0  0  0  0  0
   -3.2186    0.2147    0.7080 C   0  0  0  0  0  0  0  0  0  0  0  0
   -1.5414    0.2110    1.3043 S   0  0  0  0  0  0  0  0  0  0  0  0
   -0.7682    1.2322    0.0103 C   0  0  0  0  0  0  0  0  0  0  0  0
    0.7249    1.3424    0.2753 C   0  0  0  0  0  0  0  0  0  0  0  0
    1.2237    2.4002    0.6517 O   0  0  0  0  0  0  0  0  0  0  0  0
    1.4012    0.1601    0.0082 N   0  0  0  0  0  0  0  0  0  0  0  0
    2.7804   -0.0947    0.1355 C   0  0  0  0  0  0  0  0  0  0  0  0
    3.7063    0.8298    0.6114 C   0  0  0  0  0  0  0  0  0  0  0  0
    5.0650    0.4875    0.7174 C   0  0  0  0  0  0  0  0  0  0  0  0
    5.5430   -0.7738    0.3385 C   0  0  0  0  0  0  0  0  0  0  0  0
    6.8929   -1.1576    0.4313 N   0  0  0  0  0  0  0  0  0  0  0  0
    7.7738   -0.3439    1.2682 C   0  0  0  0  0  0  0  0  0  0  0  0
    7.4756   -1.5282   -0.8643 C   0  0  0  0  0  0  0  0  0  0  0  0
    4.5921   -1.6945   -0.1245 C   0  0  0  0  0  0  0  0  0  0  0  0
    3.2336   -1.3663   -0.2238 C   0  0  0  0  0  0  0  0  0  0  0  0
   -3.4053    0.2187   -0.6272 N   0  0  0  0  0  0  0  0  0  0  0  0
   -4.6635    0.1776   -1.0959 C   0  0  0  0  0  0  0  0  0  0  0  0
   -4.8492    0.1682   -2.4725 C   0  0  0  0  0  0  0  0  0  0  0  0
   -6.1209    0.1200   -3.0486 C   0  0  0  0  0  0  0  0  0  0  0  0
   -7.2415    0.0861   -2.2327 C   0  0  0  0  0  0  0  0  0  0  0  0
   -7.0841    0.0939   -0.8450 C   0  0  0  0  0  0  0  0  0  0  0  0
   -5.7996    0.1386   -0.2544 C   0  0  0  0  0  0  0  0  0  0  0  0
   -6.3404    0.2027    3.1683 H   0  0  0  0  0  0  0  0  0  0  0  0
   -7.2545   -0.8374    2.0653 H   0  0  0  0  0  0  0  0  0  0  0  0
   -7.3963    0.9478    1.9690 H   0  0  0  0  0  0  0  0  0  0  0  0
   -4.0572    0.1656    2.6832 H   0  0  0  0  0  0  0  0  0  0  0  0
   -0.9118    0.7994   -0.9841 H   0  0  0  0  0  0  0  0  0  0  0  0
   -1.2047    2.2357    0.0182 H   0  0  0  0  0  0  0  0  0  0  0  0
    0.8293   -0.6249   -0.2806 H   0  0  0  0  0  0  0  0  0  0  0  0
    3.4090    1.8226    0.9278 H   0  0  0  0  0  0  0  0  0  0  0  0
    5.7364    1.2480    1.1045 H   0  0  0  0  0  0  0  0  0  0  0  0
    7.3459   -0.1925    2.2656 H   0  0  0  0  0  0  0  0  0  0  0  0
    8.7317   -0.8586    1.4114 H   0  0  0  0  0  0  0  0  0  0  0  0
    7.9853    0.6265    0.8052 H   0  0  0  0  0  0  0  0  0  0  0  0
    7.4757   -0.6725   -1.5530 H   0  0  0  0  0  0  0  0  0  0  0  0
    8.5130   -1.8556   -0.7322 H   0  0  0  0  0  0  0  0  0  0  0  0
    6.9454   -2.3638   -1.3363 H   0  0  0  0  0  0  0  0  0  0  0  0
    4.8988   -2.7065   -0.3759 H   0  0  0  0  0  0  0  0  0  0  0  0
    2.5441   -2.1257   -0.5787 H   0  0  0  0  0  0  0  0  0  0  0  0
   -3.9765    0.1996   -3.1202 H   0  0  0  0  0  0  0  0  0  0  0  0
   -6.2288    0.1081   -4.1312 H   0  0  0  0  0  0  0  0  0  0  0  0
   -8.2361    0.0496   -2.6704 H   0  0  0  0  0  0  0  0  0  0  0  0
   -7.9785    0.0625   -0.2276 H   0  0  0  0  0  0  0  0  0  0  0  0
  1  2  1  0
  2  3  2  0
  3  4  1  0
  4  5  1  0
  5  6  1  0
  6  7  1  0
  7  8  2  0
  7  9  1  0
  9 10  1  0
 10 11  1  0
 11 12  2  0
 12 13  1  0
 13 14  1  0
 14 15  1  0
 14 16  1  0
 13 17  2  0
 17 18  1  0
  4 19  2  0
 19 20  1  0
 20 21  2  0
 21 22  1  0
 22 23  2  0
 23 24  1  0
 24 25  2  0
 25  2  1  0
 18 10  2  0
 25 20  1  0
  1 26  1  0
  1 27  1  0
  1 28  1  0
  3 29  1  0
  6 30  1  0
  6 31  1  0
  9 32  1  0
 11 33  1  0
 12 34  1  0
 15 35  1  0
 15 36  1  0
 15 37  1  0
 16 38  1  0
 16 39  1  0
 16 40  1  0
 17 41  1  0
 18 42  1  0
 21 43  1  0
 22 44  1  0
 23 45  1  0
 24 46  1  0
M  END
$$$$
OCNT-2313851
     RDKit          3D

 45 48  0  0  0  0  0  0  0  0999 V2000
    5.0469   -1.8428    0.2680 C   0  0  0  0  0  0  0  0  0  0  0  0
    3.8194   -1.6826    0.9687 O   0  0  0  0  0  0  0  0  0  0  0  0
    2.7249   -1.0565    0.2354 C   0  0  0  0  0  0  0  0  0  0  0  0
    2.9623    0.4772   -0.0081 C   0  0  0  0  0  0  0  0  0  0  0  0
    2.7841    1.2195   -1.1498 C   0  0  0  0  0  0  0  0  0  0  0  0
    3.1407    2.5161   -0.9049 N   0  0  0  0  0  0  0  0  0  0  0  0
    3.5239    2.6063    0.3621 N   0  0  0  0  0  0  0  0  0  0  0  0
    3.3933    1.3869    0.9126 N   0  0  0  0  0  0  0  0  0  0  0  0
    3.7256    1.1815    2.2970 C   0  0  0  0  0  0  0  0  0  0  0  0
    1.3203   -1.3309    0.8453 C   0  0  0  0  0  0  0  0  0  0  0  0
    0.8428   -1.6948   -0.4656 N   0  0  0  0  0  0  0  0  0  0  0  0
   -0.1758   -0.9965   -1.1565 C   0  0  0  0  0  0  0  0  0  0  0  0
   -0.4601   -1.3361   -2.4656 C   0  0  0  0  0  0  0  0  0  0  0  0
   -1.4559   -0.6226   -3.0881 C   0  0  0  0  0  0  0  0  0  0  0  0
   -2.1418    0.3640   -2.4918 N   0  0  0  0  0  0  0  0  0  0  0  0
   -1.8169    0.6207   -1.2099 C   0  0  0  0  0  0  0  0  0  0  0  0
   -2.5778    1.7093   -0.4936 C   0  0  0  0  0  0  0  0  0  0  0  0
   -3.8048    1.2089    0.2343 C   0  0  0  0  0  0  0  0  0  0  0  0
   -5.0514    1.1814   -0.4070 C   0  0  0  0  0  0  0  0  0  0  0  0
   -6.1808    0.7078    0.2624 C   0  0  0  0  0  0  0  0  0  0  0  0
   -6.0742    0.2510    1.5749 C   0  0  0  0  0  0  0  0  0  0  0  0
   -4.8378    0.2623    2.2180 C   0  0  0  0  0  0  0  0  0  0  0  0
   -3.7071    0.7357    1.5507 C   0  0  0  0  0  0  0  0  0  0  0  0
   -0.8566   -0.0282   -0.5205 N   0  0  0  0  0  0  0  0  0  0  0  0
    2.1789   -1.8703   -0.9723 C   0  0  0  0  0  0  0  0  0  0  0  0
    5.4595   -0.8700   -0.0125 H   0  0  0  0  0  0  0  0  0  0  0  0
    5.7570   -2.3451    0.9301 H   0  0  0  0  0  0  0  0  0  0  0  0
    4.9025   -2.4598   -0.6229 H   0  0  0  0  0  0  0  0  0  0  0  0
    2.4291    0.9165   -2.1236 H   0  0  0  0  0  0  0  0  0  0  0  0
    3.0640    0.4218    2.7190 H   0  0  0  0  0  0  0  0  0  0  0  0
    4.7675    0.8579    2.3543 H   0  0  0  0  0  0  0  0  0  0  0  0
    3.5910    2.1194    2.8423 H   0  0  0  0  0  0  0  0  0  0  0  0
    1.2754   -2.1843    1.5320 H   0  0  0  0  0  0  0  0  0  0  0  0
    0.8151   -0.4803    1.3118 H   0  0  0  0  0  0  0  0  0  0  0  0
    0.0607   -2.1327   -2.9778 H   0  0  0  0  0  0  0  0  0  0  0  0
   -1.7399   -0.8327   -4.1148 H   0  0  0  0  0  0  0  0  0  0  0  0
   -1.9087    2.2100    0.2180 H   0  0  0  0  0  0  0  0  0  0  0  0
   -2.8678    2.4833   -1.2158 H   0  0  0  0  0  0  0  0  0  0  0  0
   -5.1460    1.5234   -1.4357 H   0  0  0  0  0  0  0  0  0  0  0  0
   -7.1428    0.6908   -0.2428 H   0  0  0  0  0  0  0  0  0  0  0  0
   -6.9536   -0.1201    2.0942 H   0  0  0  0  0  0  0  0  0  0  0  0
   -4.7522   -0.1024    3.2380 H   0  0  0  0  0  0  0  0  0  0  0  0
   -2.7450    0.7271    2.0590 H   0  0  0  0  0  0  0  0  0  0  0  0
    2.3568   -1.4585   -1.9692 H   0  0  0  0  0  0  0  0  0  0  0  0
    2.4555   -2.9312   -0.9793 H   0  0  0  0  0  0  0  0  0  0  0  0
  1  2  1  0
  2  3  1  0
  3  4  1  0
  4  5  2  0
  5  6  1  0
  6  7  2  0
  7  8  1  0
  8  9  1  0
  3 10  1  0
 10 11  1  0
 11 12  1  0
 12 13  1  0
 13 14  2  0
 14 15  1  0
 15 16  2  0
 16 17  1  0
 17 18  1  0
 18 19  2  0
 19 20  1  0
 20 21  2  0
 21 22  1  0
 22 23  2  0
 16 24  1  0
 11 25  1  0
 25  3  1  0
  8  4  1  0
 24 12  2  0
 23 18  1  0
  1 26  1  0
  1 27  1  0
  1 28  1  0
  5 29  1  0
  9 30  1  0
  9 31  1  0
  9 32  1  0
 10 33  1  0
 10 34  1  0
 13 35  1  0
 14 36  1  0
 17 37  1  0
 17 38  1  0
 19 39  1  0
 20 40  1  0
 21 41  1  0
 22 42  1  0
 23 43  1  0
 25 44  1  0
 25 45  1  0
M  END
$$$$
OCNT-2313863
     RDKit          3D

 44 46  0  0  0  0  0  0  0  0999 V2000
   -1.6527    2.1355   -1.6465 C   0  0  0  0  0  0  0  0  0  0  0  0
   -2.1362    0.9571   -0.9113 N   0  0  0  0  0  0  0  0  0  0  0  0
   -3.3987    0.5105   -1.3091 C   0  0  0  0  0  0  0  0  0  0  0  0
   -3.9994    1.0662   -2.2400 O   0  0  0  0  0  0  0  0  0  0  0  0
   -4.0544   -0.6901   -0.6452 C   0  0  0  0  0  0  0  0  0  0  0  0
   -3.4169   -1.9944   -1.1460 C   0  0  0  0  0  0  0  0  0  0  0  0
   -5.5540   -0.7224   -1.0259 C   0  0  0  0  0  0  0  0  0  0  0  0
   -3.9622   -0.4537    0.8548 C   0  0  0  0  0  0  0  0  0  0  0  0
   -2.8135   -1.0523    1.4127 O   0  0  0  0  0  0  0  0  0  0  0  0
   -1.6001   -0.5151    1.1042 C   0  0  0  0  0  0  0  0  0  0  0  0
   -0.6228   -1.0144    1.9873 C   0  0  0  0  0  0  0  0  0  0  0  0
    0.7082   -0.6231    1.9072 C   0  0  0  0  0  0  0  0  0  0  0  0
    1.0973    0.2760    0.9263 C   0  0  0  0  0  0  0  0  0  0  0  0
    2.4611    0.6356    0.8911 N   0  0  0  0  0  0  0  0  0  0  0  0
    3.0968    1.4951    0.0090 C   0  0  0  0  0  0  0  0  0  0  0  0
    2.5576    2.1308   -0.8939 O   0  0  0  0  0  0  0  0  0  0  0  0
    4.5859    1.6763    0.2882 C   0  0  0  0  0  0  0  0  0  0  0  0
    5.3213    0.3820    0.5005 C   0  0  0  0  0  0  0  0  0  0  0  0
    5.9839    0.0331    1.6637 C   0  0  0  0  0  0  0  0  0  0  0  0
    6.7012   -1.5169    1.5791 S   0  0  0  0  0  0  0  0  0  0  0  0
    6.1591   -1.7393   -0.0250 C   0  0  0  0  0  0  0  0  0  0  0  0
    5.4420   -0.6565   -0.4825 C   0  0  0  0  0  0  0  0  0  0  0  0
    0.1266    0.7580    0.0375 C   0  0  0  0  0  0  0  0  0  0  0  0
   -1.2483    0.3886    0.0879 C   0  0  0  0  0  0  0  0  0  0  0  0
   -1.1783    2.8448   -0.9600 H   0  0  0  0  0  0  0  0  0  0  0  0
   -2.4637    2.6872   -2.1318 H   0  0  0  0  0  0  0  0  0  0  0  0
   -0.9563    1.8105   -2.4261 H   0  0  0  0  0  0  0  0  0  0  0  0
   -3.8138   -2.8587   -0.6020 H   0  0  0  0  0  0  0  0  0  0  0  0
   -2.3275   -2.0072   -1.0536 H   0  0  0  0  0  0  0  0  0  0  0  0
   -3.6297   -2.1446   -2.2114 H   0  0  0  0  0  0  0  0  0  0  0  0
   -6.0673   -1.5590   -0.5378 H   0  0  0  0  0  0  0  0  0  0  0  0
   -5.6943   -0.8386   -2.1071 H   0  0  0  0  0  0  0  0  0  0  0  0
   -6.0610    0.2030   -0.7273 H   0  0  0  0  0  0  0  0  0  0  0  0
   -4.0170    0.6074    1.1357 H   0  0  0  0  0  0  0  0  0  0  0  0
   -4.8088   -0.9329    1.3618 H   0  0  0  0  0  0  0  0  0  0  0  0
   -0.9182   -1.7220    2.7610 H   0  0  0  0  0  0  0  0  0  0  0  0
    1.4197   -1.0351    2.6171 H   0  0  0  0  0  0  0  0  0  0  0  0
    3.0522    0.1789    1.5766 H   0  0  0  0  0  0  0  0  0  0  0  0
    4.6846    2.3308    1.1622 H   0  0  0  0  0  0  0  0  0  0  0  0
    5.0348    2.1984   -0.5655 H   0  0  0  0  0  0  0  0  0  0  0  0
    6.0854    0.6143    2.5710 H   0  0  0  0  0  0  0  0  0  0  0  0
    6.3933   -2.6511   -0.5578 H   0  0  0  0  0  0  0  0  0  0  0  0
    5.0171   -0.6121   -1.4797 H   0  0  0  0  0  0  0  0  0  0  0  0
    0.4668    1.4196   -0.7490 H   0  0  0  0  0  0  0  0  0  0  0  0
  1  2  1  0
  2  3  1  0
  3  4  2  0
  3  5  1  0
  5  6  1  0
  5  7  1  0
  5  8  1  0
  8  9  1  0
  9 10  1  0
 10 11  1  0
 11 12  2  0
 12 13  1  0
 13 14  1  0
 14 15  1  0
 15 16  2  0
 15 17  1  0
 17 18  1  0
 18 19  2  0
 19 20  1  0
 20 21  1  0
 21 22  2  0
 13 23  2  0
 23 24  1  0
 24  2  1  0
 24 10  2  0
 22 18  1  0
  1 25  1  0
  1 26  1  0
  1 27  1  0
  6 28  1  0
  6 29  1  0
  6 30  1  0
  7 31  1  0
  7 32  1  0
  7 33  1  0
  8 34  1  0
  8 35  1  0
 11 36  1  0
 12 37  1  0
 14 38  1  0
 17 39  1  0
 17 40  1  0
 19 41  1  0
 21 42  1  0
 22 43  1  0
 23 44  1  0
M  END
$$$$
OCNT-2313865
     RDKit          3D

 48 51  0  0  0  0  0  0  0  0999 V2000
    0.5313    1.9316    2.0063 O   0  0  0  0  0  0  0  0  0  0  0  0
    0.6502    1.3093    0.9533 C   0  0  0  0  0  0  0  0  0  0  0  0
   -0.3991    1.0215    0.1089 N   0  0  0  0  0  0  0  0  0  0  0  0
   -1.7186    1.3426    0.3699 C   0  0  0  0  0  0  0  0  0  0  0  0
   -2.7508    1.1080   -0.5080 C   0  0  0  0  0  0  0  0  0  0  0  0
   -3.8897    1.5400    0.1176 N   0  0  0  0  0  0  0  0  0  0  0  0
   -5.2424    1.5223   -0.4232 C   0  0  0  0  0  0  0  0  0  0  0  0
   -5.8023    0.1228   -0.4915 C   0  0  0  0  0  0  0  0  0  0  0  0
   -6.0950   -0.5806    0.6878 C   0  0  0  0  0  0  0  0  0  0  0  0
   -6.6129   -1.8747    0.6309 C   0  0  0  0  0  0  0  0  0  0  0  0
   -6.8491   -2.4777   -0.6030 C   0  0  0  0  0  0  0  0  0  0  0  0
   -6.5659   -1.7885   -1.7809 C   0  0  0  0  0  0  0  0  0  0  0  0
   -6.0445   -0.4942   -1.7276 C   0  0  0  0  0  0  0  0  0  0  0  0
   -3.6593    2.0688    1.3365 N   0  0  0  0  0  0  0  0  0  0  0  0
   -2.3374    1.9360    1.4917 C   0  0  0  0  0  0  0  0  0  0  0  0
    1.8954    0.8475    0.5195 N   0  0  0  0  0  0  0  0  0  0  0  0
    2.0992   -0.0781   -0.5950 C   0  0  0  0  0  0  0  0  0  0  0  0
    3.4432   -0.7908   -0.5277 C   0  0  0  0  0  0  0  0  0  0  0  0
    4.6014    0.2148   -0.4564 C   0  0  0  0  0  0  0  0  0  0  0  0
    5.8477   -0.4385   -0.0702 N   0  0  0  0  0  0  0  0  0  0  0  0
    6.9577   -0.5772   -0.8583 C   0  0  0  0  0  0  0  0  0  0  0  0
    7.8698   -1.2469   -0.0765 C   0  0  0  0  0  0  0  0  0  0  0  0
    7.3425   -1.5189    1.1588 N   0  0  0  0  0  0  0  0  0  0  0  0
    6.1270   -1.0195    1.1356 C   0  0  0  0  0  0  0  0  0  0  0  0
    4.2876    1.4407    0.4178 C   0  0  0  0  0  0  0  0  0  0  0  0
    3.0711    1.2176    1.3084 C   0  0  0  0  0  0  0  0  0  0  0  0
   -0.2103    0.6309   -0.7983 H   0  0  0  0  0  0  0  0  0  0  0  0
   -2.7858    0.6695   -1.4942 H   0  0  0  0  0  0  0  0  0  0  0  0
   -5.8771    2.1527    0.2095 H   0  0  0  0  0  0  0  0  0  0  0  0
   -5.1954    1.9899   -1.4125 H   0  0  0  0  0  0  0  0  0  0  0  0
   -5.9111   -0.1217    1.6596 H   0  0  0  0  0  0  0  0  0  0  0  0
   -6.8276   -2.4137    1.5495 H   0  0  0  0  0  0  0  0  0  0  0  0
   -7.2541   -3.4851   -0.6454 H   0  0  0  0  0  0  0  0  0  0  0  0
   -6.7527   -2.2589   -2.7422 H   0  0  0  0  0  0  0  0  0  0  0  0
   -5.8316    0.0262   -2.6590 H   0  0  0  0  0  0  0  0  0  0  0  0
   -1.8840    2.2780    2.4131 H   0  0  0  0  0  0  0  0  0  0  0  0
    1.2963   -0.8227   -0.5992 H   0  0  0  0  0  0  0  0  0  0  0  0
    2.0231    0.5051   -1.5197 H   0  0  0  0  0  0  0  0  0  0  0  0
    3.4476   -1.4515    0.3492 H   0  0  0  0  0  0  0  0  0  0  0  0
    3.5669   -1.4428   -1.4014 H   0  0  0  0  0  0  0  0  0  0  0  0
    4.7769    0.5904   -1.4743 H   0  0  0  0  0  0  0  0  0  0  0  0
    7.0144   -0.2052   -1.8727 H   0  0  0  0  0  0  0  0  0  0  0  0
    8.8772   -1.5455   -0.3381 H   0  0  0  0  0  0  0  0  0  0  0  0
    5.4214   -1.0554    1.9567 H   0  0  0  0  0  0  0  0  0  0  0  0
    5.1476    1.7406    1.0268 H   0  0  0  0  0  0  0  0  0  0  0  0
    4.0722    2.2886   -0.2459 H   0  0  0  0  0  0  0  0  0  0  0  0
    2.8764    2.1296    1.8845 H   0  0  0  0  0  0  0  0  0  0  0  0
    3.2528    0.4109    2.0293 H   0  0  0  0  0  0  0  0  0  0  0  0
  1  2  2  0
  2  3  1  0
  3  4  1  0
  4  5  2  0
  5  6  1  0
  6  7  1  0
  7  8  1  0
  8  9  2  0
  9 10  1  0
 10 11  2  0
 11 12  1  0
 12 13  2  0
  6 14  1  0
 14 15  2  0
  2 16  1  0
 16 17  1  0
 17 18  1  0
 18 19  1  0
 19 20  1  0
 20 21  1  0
 21 22  2  0
 22 23  1  0
 23 24  2  0
 19 25  1  0
 25 26  1  0
 15  4  1  0
 26 16  1  0
 13  8  1  0
 24 20  1  0
  3 27  1  0
  5 28  1  0
  7 29  1  0
  7 30  1  0
  9 31  1  0
 10 32  1  0
 11 33  1  0
 12 34  1  0
 13 35  1  0
 15 36  1  0
 17 37  1  0
 17 38  1  0
 18 39  1  0
 18 40  1  0
 19 41  1  0
 21 42  1  0
 22 43  1  0
 24 44  1  0
 25 45  1  0
 25 46  1  0
 26 47  1  0
 26 48  1  0
M  END
$$$$
OCNT-2313872
     RDKit          3D

 38 41  0  0  0  0  0  0  0  0999 V2000
    7.4202    0.9207   -0.5718 C   0  0  0  0  0  0  0  0  0  0  0  0
    6.0651    0.3471   -0.4459 C   0  0  0  0  0  0  0  0  0  0  0  0
    4.9619    1.0967   -0.5326 N   0  0  0  0  0  0  0  0  0  0  0  0
    3.9711    0.1851   -0.3715 N   0  0  0  0  0  0  0  0  0  0  0  0
    2.5923    0.3902   -0.3650 C   0  0  0  0  0  0  0  0  0  0  0  0
    1.7532   -0.6465   -0.1846 C   0  0  0  0  0  0  0  0  0  0  0  0
    0.3783   -0.5720   -0.1476 N   0  0  0  0  0  0  0  0  0  0  0  0
   -0.4251    0.5332   -0.3831 C   0  0  0  0  0  0  0  0  0  0  0  0
   -0.0203    1.6264   -0.7573 O   0  0  0  0  0  0  0  0  0  0  0  0
   -1.8304    0.2630   -0.1992 C   0  0  0  0  0  0  0  0  0  0  0  0
   -2.8787    0.5835   -1.0435 C   0  0  0  0  0  0  0  0  0  0  0  0
   -4.0241    0.0766   -0.4108 C   0  0  0  0  0  0  0  0  0  0  0  0
   -5.4550    0.1535   -1.0000 C   0  0  0  0  0  0  0  0  0  0  0  0
   -6.5778    0.6633   -0.1336 C   0  0  0  0  0  0  0  0  0  0  0  0
   -6.0720    1.5019   -1.2701 C   0  0  0  0  0  0  0  0  0  0  0  0
   -3.7476   -0.5098    0.7533 N   0  0  0  0  0  0  0  0  0  0  0  0
   -2.4248   -0.3075    0.9006 N   0  0  0  0  0  0  0  0  0  0  0  0
   -1.8072   -0.6576    2.1595 C   0  0  0  0  0  0  0  0  0  0  0  0
    2.3400   -1.9756    0.0047 C   0  0  0  0  0  0  0  0  0  0  0  0
    3.6721   -2.1761   -0.0012 C   0  0  0  0  0  0  0  0  0  0  0  0
    4.5459   -1.0743   -0.1929 C   0  0  0  0  0  0  0  0  0  0  0  0
    5.8551   -0.9881   -0.2377 N   0  0  0  0  0  0  0  0  0  0  0  0
    7.5338    1.7949    0.0772 H   0  0  0  0  0  0  0  0  0  0  0  0
    8.1819    0.1875   -0.2878 H   0  0  0  0  0  0  0  0  0  0  0  0
    7.6099    1.2276   -1.6049 H   0  0  0  0  0  0  0  0  0  0  0  0
    2.2912    1.4181   -0.5101 H   0  0  0  0  0  0  0  0  0  0  0  0
   -0.1148   -1.4472   -0.0208 H   0  0  0  0  0  0  0  0  0  0  0  0
   -2.8085    1.0937   -1.9942 H   0  0  0  0  0  0  0  0  0  0  0  0
   -5.6942   -0.6529   -1.6850 H   0  0  0  0  0  0  0  0  0  0  0  0
   -7.5462    0.1887   -0.2356 H   0  0  0  0  0  0  0  0  0  0  0  0
   -6.3423    0.9758    0.8778 H   0  0  0  0  0  0  0  0  0  0  0  0
   -6.7006    1.6035   -2.1466 H   0  0  0  0  0  0  0  0  0  0  0  0
   -5.5080    2.3941   -1.0225 H   0  0  0  0  0  0  0  0  0  0  0  0
   -0.9829    0.0299    2.3619 H   0  0  0  0  0  0  0  0  0  0  0  0
   -1.4457   -1.6857    2.0862 H   0  0  0  0  0  0  0  0  0  0  0  0
   -2.5498   -0.5734    2.9573 H   0  0  0  0  0  0  0  0  0  0  0  0
    1.6806   -2.8266    0.1484 H   0  0  0  0  0  0  0  0  0  0  0  0
    4.1031   -3.1616    0.1355 H   0  0  0  0  0  0  0  0  0  0  0  0
  1  2  1  0
  2  3  2  0
  3  4  1  0
  4  5  1  0
  5  6  2  0
  6  7  1  0
  7  8  1  0
  8  9  2  0
  8 10  1  0
 10 11  2  0
 11 12  1  0
 12 13  1  0
 13 14  1  0
 14 15  1  0
 12 16  2  0
 16 17  1  0
 17 18  1  0
  6 19  1  0
 19 20  2  0
 20 21  1  0
 21 22  2  0
 22  2  1  0
 21  4  1  0
 17 10  1  0
 15 13  1  0
  1 23  1  0
  1 24  1  0
  1 25  1  0
  5 26  1  0
  7 27  1  0
 11 28  1  0
 13 29  1  0
 14 30  1  0
 14 31  1  0
 15 32  1  0
 15 33  1  0
 18 34  1  0
 18 35  1  0
 18 36  1  0
 19 37  1  0
 20 38  1  0
M  END
$$$$
OCNT-2313876
     RDKit          3D

 41 43  0  0  0  0  0  0  0  0999 V2000
   -0.5350   -1.6208   -2.4808 O   0  0  0  0  0  0  0  0  0  0  0  0
   -0.0932   -1.3160   -1.3795 C   0  0  0  0  0  0  0  0  0  0  0  0
   -0.7197   -0.4601   -0.5007 N   0  0  0  0  0  0  0  0  0  0  0  0
   -1.8726    0.3204   -0.8783 C   0  0  0  0  0  0  0  0  0  0  0  0
   -1.4592    1.6167   -1.5497 C   0  0  0  0  0  0  0  0  0  0  0  0
   -1.8853    1.8940   -2.8539 C   0  0  0  0  0  0  0  0  0  0  0  0
   -1.4901    3.0813   -3.4507 C   0  0  0  0  0  0  0  0  0  0  0  0
   -0.7105    4.0034   -2.8478 N   0  0  0  0  0  0  0  0  0  0  0  0
   -0.3003    3.7186   -1.5945 C   0  0  0  0  0  0  0  0  0  0  0  0
   -0.6392    2.5584   -0.9147 C   0  0  0  0  0  0  0  0  0  0  0  0
   -2.7013    0.5978    0.3522 C   0  0  0  0  0  0  0  0  0  0  0  0
   -3.6459   -0.4550    0.8824 C   0  0  0  0  0  0  0  0  0  0  0  0
   -4.1951    0.7902    0.2445 C   0  0  0  0  0  0  0  0  0  0  0  0
    1.2115   -1.8582   -0.8801 C   0  0  0  0  0  0  0  0  0  0  0  0
    1.9408   -2.7378   -1.6710 C   0  0  0  0  0  0  0  0  0  0  0  0
    3.1505   -3.2122   -1.1767 C   0  0  0  0  0  0  0  0  0  0  0  0
    3.5815   -2.7927    0.0783 C   0  0  0  0  0  0  0  0  0  0  0  0
    2.7850   -1.9104    0.7946 C   0  0  0  0  0  0  0  0  0  0  0  0
    3.2578   -1.5350    2.0354 O   0  0  0  0  0  0  0  0  0  0  0  0
    2.4112   -0.5913    2.7025 C   0  0  0  0  0  0  0  0  0  0  0  0
    3.0320   -0.2185    4.0371 C   0  0  0  0  0  0  0  0  0  0  0  0
    4.0174    0.6980    3.8483 F   0  0  0  0  0  0  0  0  0  0  0  0
    2.0993    0.3791    4.8232 F   0  0  0  0  0  0  0  0  0  0  0  0
    1.6067   -1.4281    0.3528 N   0  0  0  0  0  0  0  0  0  0  0  0
   -0.1966   -0.2191    0.3327 H   0  0  0  0  0  0  0  0  0  0  0  0
   -2.4623   -0.2780   -1.5852 H   0  0  0  0  0  0  0  0  0  0  0  0
   -2.5060    1.1946   -3.4050 H   0  0  0  0  0  0  0  0  0  0  0  0
   -1.7999    3.3267   -4.4625 H   0  0  0  0  0  0  0  0  0  0  0  0
    0.3324    4.4719   -1.1336 H   0  0  0  0  0  0  0  0  0  0  0  0
   -0.2646    2.3977    0.0897 H   0  0  0  0  0  0  0  0  0  0  0  0
   -2.1772    1.1936    1.0916 H   0  0  0  0  0  0  0  0  0  0  0  0
   -3.7381   -0.5591    1.9574 H   0  0  0  0  0  0  0  0  0  0  0  0
   -3.7390   -1.3888    0.3386 H   0  0  0  0  0  0  0  0  0  0  0  0
   -4.6568    1.5316    0.8867 H   0  0  0  0  0  0  0  0  0  0  0  0
   -4.6642    0.6974   -0.7287 H   0  0  0  0  0  0  0  0  0  0  0  0
    1.5762   -3.0430   -2.6471 H   0  0  0  0  0  0  0  0  0  0  0  0
    3.7522   -3.9007   -1.7640 H   0  0  0  0  0  0  0  0  0  0  0  0
    4.5211   -3.1454    0.4898 H   0  0  0  0  0  0  0  0  0  0  0  0
    2.2972    0.3158    2.0956 H   0  0  0  0  0  0  0  0  0  0  0  0
    1.4265   -1.0394    2.8852 H   0  0  0  0  0  0  0  0  0  0  0  0
    3.4526   -1.0774    4.5677 H   0  0  0  0  0  0  0  0  0  0  0  0
  1  2  2  0
  2  3  1  0
  3  4  1  0
  4  5  1  0
  5  6  2  0
  6  7  1  0
  7  8  2  0
  8  9  1  0
  9 10  2  0
  4 11  1  0
 11 12  1  0
 12 13  1  0
  2 14  1  0
 14 15  2  0
 15 16  1  0
 16 17  2  0
 17 18  1  0
 18 19  1  0
 19 20  1  0
 20 21  1  0
 21 22  1  0
 21 23  1  0
 18 24  2  0
 10  5  1  0
 13 11  1  0
 24 14  1  0
  3 25  1  0
  4 26  1  0
  6 27  1  0
  7 28  1  0
  9 29  1  0
 10 30  1  0
 11 31  1  0
 12 32  1  0
 12 33  1  0
 13 34  1  0
 13 35  1  0
 15 36  1  0
 16 37  1  0
 17 38  1  0
 20 39  1  0
 20 40  1  0
 21 41  1  0
M  END
$$$$
OCNT-2313886
     RDKit          3D

 46 49  0  0  0  0  0  0  0  0999 V2000
    7.6105    1.0095   -0.2112 C   0  0  0  0  0  0  0  0  0  0  0  0
    6.4854    1.9118    0.2737 C   0  0  0  0  0  0  0  0  0  0  0  0
    5.1400    1.2433    0.1526 C   0  0  0  0  0  0  0  0  0  0  0  0
    4.3623    1.4147   -0.9981 C   0  0  0  0  0  0  0  0  0  0  0  0
    3.1227    0.7810   -1.1181 C   0  0  0  0  0  0  0  0  0  0  0  0
    2.6388   -0.0472   -0.0957 C   0  0  0  0  0  0  0  0  0  0  0  0
    1.2851   -0.7235   -0.1914 C   0  0  0  0  0  0  0  0  0  0  0  0
    0.1848    0.1471    0.4470 C   0  0  0  0  0  0  0  0  0  0  0  0
   -1.1543   -0.4267    0.2646 N   0  0  0  0  0  0  0  0  0  0  0  0
   -2.1204   -0.1474    1.2379 C   0  0  0  0  0  0  0  0  0  0  0  0
   -1.8064    0.2251    2.3711 O   0  0  0  0  0  0  0  0  0  0  0  0
   -3.5833   -0.3153    0.9425 C   0  0  0  0  0  0  0  0  0  0  0  0
   -4.4109   -0.7336    1.9866 C   0  0  0  0  0  0  0  0  0  0  0  0
   -5.7838   -0.8610    1.7647 C   0  0  0  0  0  0  0  0  0  0  0  0
   -6.2646   -0.5399    0.4870 C   0  0  0  0  0  0  0  0  0  0  0  0
   -7.5376   -0.5187   -0.1444 C   0  0  0  0  0  0  0  0  0  0  0  0
   -7.3538   -0.0897   -1.4426 C   0  0  0  0  0  0  0  0  0  0  0  0
   -6.0148    0.1510   -1.6191 N   0  0  0  0  0  0  0  0  0  0  0  0
   -5.3377   -0.1197   -0.4611 C   0  0  0  0  0  0  0  0  0  0  0  0
   -4.0076    0.0143   -0.3086 N   0  0  0  0  0  0  0  0  0  0  0  0
   -1.4376   -0.9003   -1.0937 C   0  0  0  0  0  0  0  0  0  0  0  0
   -0.2695   -1.7087   -1.6690 C   0  0  0  0  0  0  0  0  0  0  0  0
    0.9687   -0.9965   -1.5727 O   0  0  0  0  0  0  0  0  0  0  0  0
    3.4224   -0.2167    1.0558 C   0  0  0  0  0  0  0  0  0  0  0  0
    4.6611    0.4186    1.1768 C   0  0  0  0  0  0  0  0  0  0  0  0
    7.6596    0.0850    0.3748 H   0  0  0  0  0  0  0  0  0  0  0  0
    7.4730    0.7336   -1.2625 H   0  0  0  0  0  0  0  0  0  0  0  0
    8.5736    1.5216   -0.1175 H   0  0  0  0  0  0  0  0  0  0  0  0
    6.6613    2.1969    1.3182 H   0  0  0  0  0  0  0  0  0  0  0  0
    6.4882    2.8466   -0.3003 H   0  0  0  0  0  0  0  0  0  0  0  0
    4.7163    2.0427   -1.8126 H   0  0  0  0  0  0  0  0  0  0  0  0
    2.5363    0.9329   -2.0222 H   0  0  0  0  0  0  0  0  0  0  0  0
    1.3442   -1.6918    0.3244 H   0  0  0  0  0  0  0  0  0  0  0  0
    0.3950    0.3126    1.5094 H   0  0  0  0  0  0  0  0  0  0  0  0
    0.1548    1.1337   -0.0345 H   0  0  0  0  0  0  0  0  0  0  0  0
   -3.9933   -0.9522    2.9653 H   0  0  0  0  0  0  0  0  0  0  0  0
   -6.4512   -1.1848    2.5566 H   0  0  0  0  0  0  0  0  0  0  0  0
   -8.4870   -0.7827    0.3031 H   0  0  0  0  0  0  0  0  0  0  0  0
   -8.0564    0.0683   -2.2501 H   0  0  0  0  0  0  0  0  0  0  0  0
   -5.5723    0.4806   -2.4640 H   0  0  0  0  0  0  0  0  0  0  0  0
   -2.3305   -1.5304   -1.1045 H   0  0  0  0  0  0  0  0  0  0  0  0
   -1.6140   -0.0100   -1.7084 H   0  0  0  0  0  0  0  0  0  0  0  0
   -0.4521   -1.9209   -2.7270 H   0  0  0  0  0  0  0  0  0  0  0  0
   -0.1682   -2.6706   -1.1524 H   0  0  0  0  0  0  0  0  0  0  0  0
    3.0728   -0.8472    1.8711 H   0  0  0  0  0  0  0  0  0  0  0  0
    5.2508    0.2649    2.0777 H   0  0  0  0  0  0  0  0  0  0  0  0
  1  2  1  0
  2  3  1  0
  3  4  1  0
  4  5  2  0
  5  6  1  0
  6  7  1  0
  7  8  1  0
  8  9  1  0
  9 10  1  0
 10 11  2  0
 10 12  1  0
 12 13  1  0
 13 14  2  0
 14 15  1  0
 15 16  1  0
 16 17  2  0
 17 18  1  0
 18 19  1  0
 19 20  1  0
  9 21  1  0
 21 22  1  0
 22 23  1  0
  6 24  2  0
 24 25  1  0
 25  3  2  0
 23  7  1  0
 20 12  2  0
 19 15  2  0
  1 26  1  0
  1 27  1  0
  1 28  1  0
  2 29  1  0
  2 30  1  0
  4 31  1  0
  5 32  1  0
  7 33  1  0
  8 34  1  0
  8 35  1  0
 13 36  1  0
 14 37  1  0
 16 38  1  0
 17 39  1  0
 18 40  1  0
 21 41  1  0
 21 42  1  0
 22 43  1  0
 22 44  1  0
 24 45  1  0
 25 46  1  0
M  END
$$$$
OCNT-2313888
     RDKit          3D

 41 43  0  0  0  0  0  0  0  0999 V2000
    5.3437    1.7919   -1.0610 N   0  0  0  0  0  0  0  0  0  0  0  0
    5.7817    0.9849    0.3365 S   0  0  0  0  0  0  0  0  0  0  0  0
    5.1715    1.7144    1.4209 O   0  0  0  0  0  0  0  0  0  0  0  0
    7.2109    0.8039    0.2432 O   0  0  0  0  0  0  0  0  0  0  0  0
    4.9803   -0.6045    0.1537 C   0  0  0  0  0  0  0  0  0  0  0  0
    3.5037   -0.5229   -0.2055 C   0  0  0  0  0  0  0  0  0  0  0  0
    2.8680   -1.9084   -0.3498 C   0  0  0  0  0  0  0  0  0  0  0  0
    1.3796   -1.6166   -0.2285 C   0  0  0  0  0  0  0  0  0  0  0  0
    1.3075   -0.4743    0.6687 N   0  0  0  0  0  0  0  0  0  0  0  0
    0.1565    0.2197    1.0408 C   0  0  0  0  0  0  0  0  0  0  0  0
    0.2459    1.3291    1.5684 O   0  0  0  0  0  0  0  0  0  0  0  0
   -1.1294   -0.3961    0.7698 C   0  0  0  0  0  0  0  0  0  0  0  0
   -1.6274   -1.6744    0.9385 C   0  0  0  0  0  0  0  0  0  0  0  0
   -2.9770   -1.6510    0.5066 C   0  0  0  0  0  0  0  0  0  0  0  0
   -3.2468   -0.3556    0.1131 C   0  0  0  0  0  0  0  0  0  0  0  0
   -4.4237    0.3313   -0.4155 C   0  0  0  0  0  0  0  0  0  0  0  0
   -5.5917   -0.3836   -0.7225 C   0  0  0  0  0  0  0  0  0  0  0  0
   -6.7211    0.2680   -1.2284 C   0  0  0  0  0  0  0  0  0  0  0  0
   -6.6993    1.6451   -1.4341 C   0  0  0  0  0  0  0  0  0  0  0  0
   -5.5499    2.3711   -1.1344 C   0  0  0  0  0  0  0  0  0  0  0  0
   -4.4216    1.7185   -0.6292 C   0  0  0  0  0  0  0  0  0  0  0  0
   -2.1264    0.4067    0.2832 O   0  0  0  0  0  0  0  0  0  0  0  0
    2.6182    0.1341    0.8553 C   0  0  0  0  0  0  0  0  0  0  0  0
    4.7925    2.6223   -0.8299 H   0  0  0  0  0  0  0  0  0  0  0  0
    6.1753    2.0091   -1.6148 H   0  0  0  0  0  0  0  0  0  0  0  0
    5.5313   -1.1450   -0.6239 H   0  0  0  0  0  0  0  0  0  0  0  0
    5.1323   -1.1340    1.1008 H   0  0  0  0  0  0  0  0  0  0  0  0
    3.3724    0.0125   -1.1549 H   0  0  0  0  0  0  0  0  0  0  0  0
    3.1201   -2.3970   -1.2955 H   0  0  0  0  0  0  0  0  0  0  0  0
    3.1864   -2.5654    0.4694 H   0  0  0  0  0  0  0  0  0  0  0  0
    0.8399   -2.4761    0.1716 H   0  0  0  0  0  0  0  0  0  0  0  0
    0.9452   -1.3278   -1.1918 H   0  0  0  0  0  0  0  0  0  0  0  0
   -1.0929   -2.5183    1.3500 H   0  0  0  0  0  0  0  0  0  0  0  0
   -3.6726   -2.4779    0.5037 H   0  0  0  0  0  0  0  0  0  0  0  0
   -5.6395   -1.4590   -0.5738 H   0  0  0  0  0  0  0  0  0  0  0  0
   -7.6175   -0.3013   -1.4606 H   0  0  0  0  0  0  0  0  0  0  0  0
   -7.5769    2.1525   -1.8259 H   0  0  0  0  0  0  0  0  0  0  0  0
   -5.5273    3.4466   -1.2901 H   0  0  0  0  0  0  0  0  0  0  0  0
   -3.5365    2.3089   -0.3981 H   0  0  0  0  0  0  0  0  0  0  0  0
    2.9443   -0.1023    1.8742 H   0  0  0  0  0  0  0  0  0  0  0  0
    2.5704    1.2208    0.7358 H   0  0  0  0  0  0  0  0  0  0  0  0
  1  2  1  0
  2  3  2  0
  2  4  2  0
  2  5  1  0
  5  6  1  0
  6  7  1  0
  7  8  1  0
  8  9  1  0
  9 10  1  0
 10 11  2  0
 10 12  1  0
 12 13  2  0
 13 14  1  0
 14 15  2  0
 15 16  1  0
 16 17  2  0
 17 18  1  0
 18 19  2  0
 19 20  1  0
 20 21  2  0
 15 22  1  0
  9 23  1  0
 23  6  1  0
 22 12  1  0
 21 16  1  0
  1 24  1  0
  1 25  1  0
  5 26  1  0
  5 27  1  0
  6 28  1  0
  7 29  1  0
  7 30  1  0
  8 31  1  0
  8 32  1  0
 13 33  1  0
 14 34  1  0
 17 35  1  0
 18 36  1  0
 19 37  1  0
 20 38  1  0
 21 39  1  0
 23 40  1  0
 23 41  1  0
M  END
$$$$
OCNT-2313895
     RDKit          3D

 45 47  0  0  0  0  0  0  0  0999 V2000
    5.6307    2.3177    2.8935 C   0  0  0  0  0  0  0  0  0  0  0  0
    4.7795    1.4229    2.0433 C   0  0  0  0  0  0  0  0  0  0  0  0
    3.5485    1.8698    1.5584 C   0  0  0  0  0  0  0  0  0  0  0  0
    2.7383    1.0233    0.7935 C   0  0  0  0  0  0  0  0  0  0  0  0
    3.1262   -0.2947    0.4920 C   0  0  0  0  0  0  0  0  0  0  0  0
    2.2559   -1.1698   -0.3216 C   0  0  0  0  0  0  0  0  0  0  0  0
    2.7537   -2.1494   -1.1771 C   0  0  0  0  0  0  0  0  0  0  0  0
    1.8606   -2.9298   -1.9041 C   0  0  0  0  0  0  0  0  0  0  0  0
    0.4936   -2.7154   -1.7647 C   0  0  0  0  0  0  0  0  0  0  0  0
    0.0654   -1.7205   -0.9026 C   0  0  0  0  0  0  0  0  0  0  0  0
   -1.2701   -1.3987   -0.6761 N   0  0  0  0  0  0  0  0  0  0  0  0
   -2.3993   -1.9646   -1.2128 C   0  0  0  0  0  0  0  0  0  0  0  0
   -2.4275   -2.8960   -2.0139 O   0  0  0  0  0  0  0  0  0  0  0  0
   -3.7103   -1.3231   -0.7301 C   0  0  0  0  0  0  0  0  0  0  0  0
   -3.5462   -0.2204    0.2262 N   0  0  0  0  0  0  0  0  0  0  0  0
   -3.5957   -0.5639    1.6400 C   0  0  0  0  0  0  0  0  0  0  0  0
   -3.4412    1.1171   -0.1411 C   0  0  0  0  0  0  0  0  0  0  0  0
   -3.3495    2.0331    0.6677 O   0  0  0  0  0  0  0  0  0  0  0  0
   -3.4099    1.4252   -1.5995 C   0  0  0  0  0  0  0  0  0  0  0  0
   -4.7013    1.5921   -2.3695 C   0  0  0  0  0  0  0  0  0  0  0  0
   -3.8438    2.7886   -2.0948 C   0  0  0  0  0  0  0  0  0  0  0  0
    0.9203   -0.9544   -0.1935 N   0  0  0  0  0  0  0  0  0  0  0  0
    4.3584   -0.7341    1.0078 C   0  0  0  0  0  0  0  0  0  0  0  0
    5.1719    0.1092    1.7748 C   0  0  0  0  0  0  0  0  0  0  0  0
    6.6859    2.0323    2.8300 H   0  0  0  0  0  0  0  0  0  0  0  0
    5.5553    3.3576    2.5583 H   0  0  0  0  0  0  0  0  0  0  0  0
    5.3113    2.2569    3.9386 H   0  0  0  0  0  0  0  0  0  0  0  0
    3.2053    2.8801    1.7713 H   0  0  0  0  0  0  0  0  0  0  0  0
    1.7856    1.4039    0.4276 H   0  0  0  0  0  0  0  0  0  0  0  0
    3.8206   -2.3029   -1.2993 H   0  0  0  0  0  0  0  0  0  0  0  0
    2.2261   -3.6986   -2.5793 H   0  0  0  0  0  0  0  0  0  0  0  0
   -0.1957   -3.3269   -2.3340 H   0  0  0  0  0  0  0  0  0  0  0  0
   -1.3819   -0.6432   -0.0104 H   0  0  0  0  0  0  0  0  0  0  0  0
   -4.3164   -2.1039   -0.2568 H   0  0  0  0  0  0  0  0  0  0  0  0
   -4.2482   -0.9735   -1.6146 H   0  0  0  0  0  0  0  0  0  0  0  0
   -3.3410    0.2863    2.2778 H   0  0  0  0  0  0  0  0  0  0  0  0
   -2.8910   -1.3767    1.8379 H   0  0  0  0  0  0  0  0  0  0  0  0
   -4.6103   -0.8955    1.8803 H   0  0  0  0  0  0  0  0  0  0  0  0
   -2.5600    0.9990   -2.1239 H   0  0  0  0  0  0  0  0  0  0  0  0
   -4.7387    1.2165   -3.3854 H   0  0  0  0  0  0  0  0  0  0  0  0
   -5.6386    1.5126   -1.8299 H   0  0  0  0  0  0  0  0  0  0  0  0
   -3.2907    3.2256   -2.9181 H   0  0  0  0  0  0  0  0  0  0  0  0
   -4.1953    3.5132   -1.3676 H   0  0  0  0  0  0  0  0  0  0  0  0
    4.6966   -1.7540    0.8391 H   0  0  0  0  0  0  0  0  0  0  0  0
    6.1130   -0.2726    2.1648 H   0  0  0  0  0  0  0  0  0  0  0  0
  1  2  1  0
  2  3  1  0
  3  4  2  0
  4  5  1  0
  5  6  1  0
  6  7  1  0
  7  8  2  0
  8  9  1  0
  9 10  2  0
 10 11  1  0
 11 12  1  0
 12 13  2  0
 12 14  1  0
 14 15  1  0
 15 16  1  0
 15 17  1  0
 17 18  2  0
 17 19  1  0
 19 20  1  0
 20 21  1  0
 10 22  1  0
  5 23  2  0
 23 24  1  0
 24  2  2  0
 22  6  2  0
 21 19  1  0
  1 25  1  0
  1 26  1  0
  1 27  1  0
  3 28  1  0
  4 29  1  0
  7 30  1  0
  8 31  1  0
  9 32  1  0
 11 33  1  0
 14 34  1  0
 14 35  1  0
 16 36  1  0
 16 37  1  0
 16 38  1  0
 19 39  1  0
 20 40  1  0
 20 41  1  0
 21 42  1  0
 21 43  1  0
 23 44  1  0
 24 45  1  0
M  END
$$$$
OCNT-2313906
     RDKit          3D

 57 60  0  0  0  0  0  0  0  0999 V2000
   -0.7764   -2.1136   -0.6455 O   0  0  0  0  0  0  0  0  0  0  0  0
   -1.1257   -1.3788    0.2673 C   0  0  0  0  0  0  0  0  0  0  0  0
   -0.3118   -0.5768    1.0404 N   0  0  0  0  0  0  0  0  0  0  0  0
    1.0553   -0.3035    0.8454 C   0  0  0  0  0  0  0  0  0  0  0  0
    1.7594   -0.6430   -0.3086 C   0  0  0  0  0  0  0  0  0  0  0  0
    3.1175   -0.3143   -0.4423 C   0  0  0  0  0  0  0  0  0  0  0  0
    3.7899    0.3595    0.5756 C   0  0  0  0  0  0  0  0  0  0  0  0
    5.1506    0.7253    0.5232 N   0  0  0  0  0  0  0  0  0  0  0  0
    6.0371    0.5485   -0.5341 C   0  0  0  0  0  0  0  0  0  0  0  0
    5.7764    0.0430   -1.6206 O   0  0  0  0  0  0  0  0  0  0  0  0
    7.4592    1.0373   -0.1782 C   0  0  0  0  0  0  0  0  0  0  0  0
    8.1598    0.0070    0.7076 C   0  0  0  0  0  0  0  0  0  0  0  0
    9.5751    0.0028    0.1848 C   0  0  0  0  0  0  0  0  0  0  0  0
    9.3661    0.3034   -1.2806 C   0  0  0  0  0  0  0  0  0  0  0  0
    8.3015    1.2580   -1.3168 O   0  0  0  0  0  0  0  0  0  0  0  0
    3.0815    0.7017    1.7329 C   0  0  0  0  0  0  0  0  0  0  0  0
    1.7259    0.3785    1.8642 C   0  0  0  0  0  0  0  0  0  0  0  0
   -2.4351   -1.2844    0.6995 N   0  0  0  0  0  0  0  0  0  0  0  0
   -3.5144   -1.9332   -0.0537 C   0  0  0  0  0  0  0  0  0  0  0  0
   -4.3472   -2.8219    0.8629 C   0  0  0  0  0  0  0  0  0  0  0  0
   -5.2145   -1.9875    1.7913 C   0  0  0  0  0  0  0  0  0  0  0  0
   -6.1099   -1.0923    0.9524 C   0  0  0  0  0  0  0  0  0  0  0  0
   -5.3545   -0.2495    0.0183 N   0  0  0  0  0  0  0  0  0  0  0  0
   -6.0654    0.8972   -0.4667 C   0  0  0  0  0  0  0  0  0  0  0  0
   -6.5082    0.9432   -1.7972 C   0  0  0  0  0  0  0  0  0  0  0  0
   -7.2379    2.0376   -2.2693 C   0  0  0  0  0  0  0  0  0  0  0  0
   -7.5275    3.1046   -1.4244 C   0  0  0  0  0  0  0  0  0  0  0  0
   -7.0766    3.0869   -0.1059 C   0  0  0  0  0  0  0  0  0  0  0  0
   -6.3465    1.9926    0.3723 C   0  0  0  0  0  0  0  0  0  0  0  0
   -5.7315    2.0942    1.9894 Cl  0  0  0  0  0  0  0  0  0  0  0  0
   -4.3196   -0.8116   -0.7498 C   0  0  0  0  0  0  0  0  0  0  0  0
   -3.9119   -0.3227   -1.8056 O   0  0  0  0  0  0  0  0  0  0  0  0
   -0.7136   -0.2751    1.9142 H   0  0  0  0  0  0  0  0  0  0  0  0
    1.2787   -1.1561   -1.1378 H   0  0  0  0  0  0  0  0  0  0  0  0
    3.6123   -0.6024   -1.3655 H   0  0  0  0  0  0  0  0  0  0  0  0
    5.5056    1.2113    1.3367 H   0  0  0  0  0  0  0  0  0  0  0  0
    7.3763    2.0028    0.3373 H   0  0  0  0  0  0  0  0  0  0  0  0
    7.7144   -0.9892    0.5868 H   0  0  0  0  0  0  0  0  0  0  0  0
    8.1010    0.2637    1.7710 H   0  0  0  0  0  0  0  0  0  0  0  0
   10.1413    0.8140    0.6578 H   0  0  0  0  0  0  0  0  0  0  0  0
   10.1040   -0.9382    0.3595 H   0  0  0  0  0  0  0  0  0  0  0  0
   10.2557    0.7235   -1.7570 H   0  0  0  0  0  0  0  0  0  0  0  0
    9.0519   -0.5875   -1.8375 H   0  0  0  0  0  0  0  0  0  0  0  0
    3.5675    1.2295    2.5495 H   0  0  0  0  0  0  0  0  0  0  0  0
    1.2081    0.6634    2.7762 H   0  0  0  0  0  0  0  0  0  0  0  0
   -2.6712   -0.3804    1.0865 H   0  0  0  0  0  0  0  0  0  0  0  0
   -3.0941   -2.5664   -0.8438 H   0  0  0  0  0  0  0  0  0  0  0  0
   -4.9929   -3.4671    0.2528 H   0  0  0  0  0  0  0  0  0  0  0  0
   -3.6995   -3.4807    1.4535 H   0  0  0  0  0  0  0  0  0  0  0  0
   -4.5912   -1.3827    2.4609 H   0  0  0  0  0  0  0  0  0  0  0  0
   -5.8271   -2.6444    2.4203 H   0  0  0  0  0  0  0  0  0  0  0  0
   -6.7836   -1.7144    0.3474 H   0  0  0  0  0  0  0  0  0  0  0  0
   -6.7381   -0.4855    1.6139 H   0  0  0  0  0  0  0  0  0  0  0  0
   -6.3008    0.1238   -2.4814 H   0  0  0  0  0  0  0  0  0  0  0  0
   -7.5740    2.0548   -3.3034 H   0  0  0  0  0  0  0  0  0  0  0  0
   -8.0894    3.9579   -1.7970 H   0  0  0  0  0  0  0  0  0  0  0  0
   -7.2821    3.9370    0.5408 H   0  0  0  0  0  0  0  0  0  0  0  0
  1  2  2  0
  2  3  1  0
  3  4  1  0
  4  5  1  0
  5  6  2  0
  6  7  1  0
  7  8  1  0
  8  9  1  0
  9 10  2  0
  9 11  1  0
 11 12  1  0
 12 13  1  0
 13 14  1  0
 14 15  1  0
  7 16  2  0
 16 17  1  0
  2 18  1  0
 18 19  1  0
 19 20  1  0
 20 21  1  0
 21 22  1  0
 22 23  1  0
 23 24  1  0
 24 25  2  0
 25 26  1  0
 26 27  2  0
 27 28  1  0
 28 29  2  0
 29 30  1  0
 23 31  1  0
 31 32  2  0
 17  4  2  0
 31 19  1  0
 15 11  1  0
 29 24  1  0
  3 33  1  0
  5 34  1  0
  6 35  1  0
  8 36  1  0
 11 37  1  0
 12 38  1  0
 12 39  1  0
 13 40  1  0
 13 41  1  0
 14 42  1  0
 14 43  1  0
 16 44  1  0
 17 45  1  0
 18 46  1  0
 19 47  1  0
 20 48  1  0
 20 49  1  0
 21 50  1  0
 21 51  1  0
 22 52  1  0
 22 53  1  0
 25 54  1  0
 26 55  1  0
 27 56  1  0
 28 57  1  0
M  END
$$$$
OCNT-2313910
     RDKit          3D

 43 45  0  0  0  0  0  0  0  0999 V2000
    1.0943   -3.0578    1.5402 C   0  0  0  0  0  0  0  0  0  0  0  0
    1.4286   -1.6819    1.0841 C   0  0  0  0  0  0  0  0  0  0  0  0
    0.6412   -0.5487    1.2071 C   0  0  0  0  0  0  0  0  0  0  0  0
   -0.7251   -0.4137    1.8230 C   0  0  0  0  0  0  0  0  0  0  0  0
   -0.7159    0.4864    3.0583 C   0  0  0  0  0  0  0  0  0  0  0  0
   -1.6372    0.0784    0.8058 N   0  0  0  0  0  0  0  0  0  0  0  0
   -2.9950   -0.1389    0.8884 C   0  0  0  0  0  0  0  0  0  0  0  0
   -3.5025   -0.7537    1.8248 O   0  0  0  0  0  0  0  0  0  0  0  0
   -3.8276    0.5199   -0.2254 C   0  0  0  0  0  0  0  0  0  0  0  0
   -3.2198    0.4503   -1.6173 C   0  0  0  0  0  0  0  0  0  0  0  0
   -4.4128    0.7554   -2.4935 C   0  0  0  0  0  0  0  0  0  0  0  0
   -4.2924    0.1890   -3.7085 F   0  0  0  0  0  0  0  0  0  0  0  0
   -4.5060    2.0971   -2.6738 F   0  0  0  0  0  0  0  0  0  0  0  0
   -5.6253    0.2479   -1.7159 C   0  0  0  0  0  0  0  0  0  0  0  0
   -5.1020   -0.2058   -0.4182 N   0  0  0  0  0  0  0  0  0  0  0  0
    1.4667    0.7897    0.5123 S   0  0  0  0  0  0  0  0  0  0  0  0
    2.8065   -0.2159    0.1157 C   0  0  0  0  0  0  0  0  0  0  0  0
    4.0099    0.3019   -0.5704 C   0  0  0  0  0  0  0  0  0  0  0  0
    4.2419    1.6689   -0.8097 C   0  0  0  0  0  0  0  0  0  0  0  0
    5.4027    2.0976   -1.4640 C   0  0  0  0  0  0  0  0  0  0  0  0
    6.3419    1.1650   -1.8828 C   0  0  0  0  0  0  0  0  0  0  0  0
    7.4511    1.5792   -2.5081 F   0  0  0  0  0  0  0  0  0  0  0  0
    6.1453   -0.1896   -1.6594 C   0  0  0  0  0  0  0  0  0  0  0  0
    4.9858   -0.6166   -1.0057 C   0  0  0  0  0  0  0  0  0  0  0  0
    2.6495   -1.4784    0.4637 N   0  0  0  0  0  0  0  0  0  0  0  0
    0.1974   -3.4224    1.0298 H   0  0  0  0  0  0  0  0  0  0  0  0
    0.9138   -3.0702    2.6196 H   0  0  0  0  0  0  0  0  0  0  0  0
    1.9129   -3.7519    1.3253 H   0  0  0  0  0  0  0  0  0  0  0  0
   -1.0802   -1.4037    2.1345 H   0  0  0  0  0  0  0  0  0  0  0  0
   -0.4585    1.5218    2.8080 H   0  0  0  0  0  0  0  0  0  0  0  0
   -1.7026    0.5075    3.5336 H   0  0  0  0  0  0  0  0  0  0  0  0
    0.0070    0.1286    3.7997 H   0  0  0  0  0  0  0  0  0  0  0  0
   -1.2675    0.7311    0.1286 H   0  0  0  0  0  0  0  0  0  0  0  0
   -4.0254    1.5584    0.0697 H   0  0  0  0  0  0  0  0  0  0  0  0
   -2.8109   -0.5434   -1.8368 H   0  0  0  0  0  0  0  0  0  0  0  0
   -2.4238    1.1887   -1.7555 H   0  0  0  0  0  0  0  0  0  0  0  0
   -6.3515    1.0538   -1.5671 H   0  0  0  0  0  0  0  0  0  0  0  0
   -6.1151   -0.5857   -2.2269 H   0  0  0  0  0  0  0  0  0  0  0  0
   -5.7428   -0.0303    0.3557 H   0  0  0  0  0  0  0  0  0  0  0  0
    3.5329    2.4281   -0.4899 H   0  0  0  0  0  0  0  0  0  0  0  0
    5.5782    3.1533   -1.6461 H   0  0  0  0  0  0  0  0  0  0  0  0
    6.8898   -0.9061   -1.9910 H   0  0  0  0  0  0  0  0  0  0  0  0
    4.8425   -1.6833   -0.8344 H   0  0  0  0  0  0  0  0  0  0  0  0
  1  2  1  0
  2  3  2  0
  3  4  1  0
  4  5  1  0
  4  6  1  0
  6  7  1  0
  7  8  2  0
  7  9  1  0
  9 10  1  0
 10 11  1  0
 11 12  1  0
 11 13  1  0
 11 14  1  0
 14 15  1  0
  3 16  1  0
 16 17  1  0
 17 18  1  0
 18 19  1  0
 19 20  2  0
 20 21  1  0
 21 22  1  0
 21 23  2  0
 23 24  1  0
 17 25  2  0
 25  2  1  0
 15  9  1  0
 24 18  2  0
  1 26  1  0
  1 27  1  0
  1 28  1  0
  4 29  1  0
  5 30  1  0
  5 31  1  0
  5 32  1  0
  6 33  1  0
  9 34  1  0
 10 35  1  0
 10 36  1  0
 14 37  1  0
 14 38  1  0
 15 39  1  0
 19 40  1  0
 20 41  1  0
 23 42  1  0
 24 43  1  0
M  END
$$$$
OCNT-2313912
     RDKit          3D

 42 45  0  0  0  0  0  0  0  0999 V2000
   -1.9664   -2.8924    2.0881 C   0  0  0  0  0  0  0  0  0  0  0  0
   -1.2549   -1.5898    2.4086 C   0  0  0  0  0  0  0  0  0  0  0  0
   -0.4845   -1.0920    1.2927 N   0  0  0  0  0  0  0  0  0  0  0  0
    0.8233   -1.4227    1.2219 N   0  0  0  0  0  0  0  0  0  0  0  0
    1.2191   -0.7362    0.1420 C   0  0  0  0  0  0  0  0  0  0  0  0
    2.6245   -0.7456   -0.3686 C   0  0  0  0  0  0  0  0  0  0  0  0
    3.4768    0.0901    0.4245 O   0  0  0  0  0  0  0  0  0  0  0  0
    4.7944    0.1558    0.0652 C   0  0  0  0  0  0  0  0  0  0  0  0
    5.5816    0.9635    0.8907 C   0  0  0  0  0  0  0  0  0  0  0  0
    6.9458    1.1225    0.6414 C   0  0  0  0  0  0  0  0  0  0  0  0
    7.5329    0.4720   -0.4406 C   0  0  0  0  0  0  0  0  0  0  0  0
    6.7547   -0.3344   -1.2695 C   0  0  0  0  0  0  0  0  0  0  0  0
    5.3877   -0.4932   -1.0187 C   0  0  0  0  0  0  0  0  0  0  0  0
    0.2163   -0.0493   -0.4879 N   0  0  0  0  0  0  0  0  0  0  0  0
   -0.8558   -0.2853    0.2486 C   0  0  0  0  0  0  0  0  0  0  0  0
   -2.2835    0.2974   -0.0970 C   0  0  0  0  0  0  0  0  0  0  0  0
   -2.4539    1.0947   -1.1745 N   0  0  0  0  0  0  0  0  0  0  0  0
   -3.7446    1.3736   -1.1322 N   0  0  0  0  0  0  0  0  0  0  0  0
   -4.5373    2.1863   -2.0312 C   0  0  0  0  0  0  0  0  0  0  0  0
   -5.9646    1.7761   -1.6182 C   0  0  0  0  0  0  0  0  0  0  0  0
   -5.8545    1.1917   -0.1814 C   0  0  0  0  0  0  0  0  0  0  0  0
   -4.4336    0.8121   -0.1156 C   0  0  0  0  0  0  0  0  0  0  0  0
   -3.5189    0.0899    0.5992 C   0  0  0  0  0  0  0  0  0  0  0  0
   -2.5466   -3.2305    2.9521 H   0  0  0  0  0  0  0  0  0  0  0  0
   -1.2473   -3.6782    1.8325 H   0  0  0  0  0  0  0  0  0  0  0  0
   -2.6485   -2.7818    1.2395 H   0  0  0  0  0  0  0  0  0  0  0  0
   -0.5641   -1.7438    3.2464 H   0  0  0  0  0  0  0  0  0  0  0  0
   -1.9511   -0.8100    2.7253 H   0  0  0  0  0  0  0  0  0  0  0  0
    2.6178   -0.3854   -1.4048 H   0  0  0  0  0  0  0  0  0  0  0  0
    2.9933   -1.7789   -0.3486 H   0  0  0  0  0  0  0  0  0  0  0  0
    5.1253    1.4732    1.7360 H   0  0  0  0  0  0  0  0  0  0  0  0
    7.5456    1.7536    1.2914 H   0  0  0  0  0  0  0  0  0  0  0  0
    8.5945    0.5937   -0.6386 H   0  0  0  0  0  0  0  0  0  0  0  0
    7.2120   -0.8413   -2.1155 H   0  0  0  0  0  0  0  0  0  0  0  0
    4.8202   -1.1277   -1.6907 H   0  0  0  0  0  0  0  0  0  0  0  0
   -4.3007    1.9316   -3.0664 H   0  0  0  0  0  0  0  0  0  0  0  0
   -4.3223    3.2354   -1.8116 H   0  0  0  0  0  0  0  0  0  0  0  0
   -6.6741    2.6070   -1.6782 H   0  0  0  0  0  0  0  0  0  0  0  0
   -6.3232    0.9907   -2.2967 H   0  0  0  0  0  0  0  0  0  0  0  0
   -6.0835    1.9604    0.5638 H   0  0  0  0  0  0  0  0  0  0  0  0
   -6.5301    0.3431   -0.0450 H   0  0  0  0  0  0  0  0  0  0  0  0
   -3.7220   -0.4962    1.4799 H   0  0  0  0  0  0  0  0  0  0  0  0
  1  2  1  0
  2  3  1  0
  3  4  1  0
  4  5  2  0
  5  6  1  0
  6  7  1  0
  7  8  1  0
  8  9  2  0
  9 10  1  0
 10 11  2  0
 11 12  1  0
 12 13  2  0
  5 14  1  0
 14 15  2  0
 15 16  1  0
 16 17  2  0
 17 18  1  0
 18 19  1  0
 19 20  1  0
 20 21  1  0
 21 22  1  0
 22 23  2  0
 15  3  1  0
 23 16  1  0
 13  8  1  0
 22 18  1  0
  1 24  1  0
  1 25  1  0
  1 26  1  0
  2 27  1  0
  2 28  1  0
  6 29  1  0
  6 30  1  0
  9 31  1  0
 10 32  1  0
 11 33  1  0
 12 34  1  0
 13 35  1  0
 19 36  1  0
 19 37  1  0
 20 38  1  0
 20 39  1  0
 21 40  1  0
 21 41  1  0
 23 42  1  0
M  END
$$$$
OCNT-2313913
     RDKit          3D

 44 47  0  0  0  0  0  0  0  0999 V2000
    5.2854   -0.7621   -1.9922 O   0  0  0  0  0  0  0  0  0  0  0  0
    4.9881   -0.9527   -0.8243 C   0  0  0  0  0  0  0  0  0  0  0  0
    5.9424   -0.8684    0.3420 C   0  0  0  0  0  0  0  0  0  0  0  0
    5.1453   -1.4830    1.4881 C   0  0  0  0  0  0  0  0  0  0  0  0
    3.7059   -1.1829    1.1212 C   0  0  0  0  0  0  0  0  0  0  0  0
    3.7256   -1.2308   -0.3191 N   0  0  0  0  0  0  0  0  0  0  0  0
    2.5135   -1.1262   -1.1110 C   0  0  0  0  0  0  0  0  0  0  0  0
    1.8547    0.2345   -0.9977 C   0  0  0  0  0  0  0  0  0  0  0  0
    2.3955    1.2710   -1.7909 C   0  0  0  0  0  0  0  0  0  0  0  0
    1.9096    2.5707   -1.7082 C   0  0  0  0  0  0  0  0  0  0  0  0
    0.8883    2.8584   -0.8160 C   0  0  0  0  0  0  0  0  0  0  0  0
    0.3480    1.8438   -0.0189 C   0  0  0  0  0  0  0  0  0  0  0  0
    0.7855    0.5098   -0.1102 C   0  0  0  0  0  0  0  0  0  0  0  0
    0.2816   -0.4958    0.7232 N   0  0  0  0  0  0  0  0  0  0  0  0
   -0.8761   -0.2958    1.5943 C   0  0  0  0  0  0  0  0  0  0  0  0
   -2.2180   -0.2333    0.9338 C   0  0  0  0  0  0  0  0  0  0  0  0
   -2.5759   -0.3660   -0.3929 C   0  0  0  0  0  0  0  0  0  0  0  0
   -3.9253   -0.2576   -0.6669 N   0  0  0  0  0  0  0  0  0  0  0  0
   -4.5900   -0.0299    0.4464 C   0  0  0  0  0  0  0  0  0  0  0  0
   -6.1549    0.1601    0.4302 C   0  0  0  0  0  0  0  0  0  0  0  0
   -6.9223    0.4074    1.5480 C   0  0  0  0  0  0  0  0  0  0  0  0
   -8.5849    0.5744    1.1643 S   0  0  0  0  0  0  0  0  0  0  0  0
   -8.2838    0.3088   -0.4995 C   0  0  0  0  0  0  0  0  0  0  0  0
   -6.9460    0.0998   -0.7556 C   0  0  0  0  0  0  0  0  0  0  0  0
   -3.6321    0.0466    1.8688 S   0  0  0  0  0  0  0  0  0  0  0  0
    6.8591   -1.4278    0.1402 H   0  0  0  0  0  0  0  0  0  0  0  0
    6.1730    0.1843    0.5335 H   0  0  0  0  0  0  0  0  0  0  0  0
    5.4272   -1.0830    2.4658 H   0  0  0  0  0  0  0  0  0  0  0  0
    5.3076   -2.5682    1.5060 H   0  0  0  0  0  0  0  0  0  0  0  0
    3.4194   -0.1767    1.4446 H   0  0  0  0  0  0  0  0  0  0  0  0
    3.0086   -1.9228    1.5245 H   0  0  0  0  0  0  0  0  0  0  0  0
    1.8465   -1.9405   -0.8142 H   0  0  0  0  0  0  0  0  0  0  0  0
    2.7606   -1.3160   -2.1634 H   0  0  0  0  0  0  0  0  0  0  0  0
    3.2216    1.0600   -2.4705 H   0  0  0  0  0  0  0  0  0  0  0  0
    2.3399    3.3552   -2.3251 H   0  0  0  0  0  0  0  0  0  0  0  0
    0.5109    3.8742   -0.7303 H   0  0  0  0  0  0  0  0  0  0  0  0
   -0.4405    2.1335    0.6696 H   0  0  0  0  0  0  0  0  0  0  0  0
    0.2565   -1.4059    0.2745 H   0  0  0  0  0  0  0  0  0  0  0  0
   -0.8907   -1.1508    2.2840 H   0  0  0  0  0  0  0  0  0  0  0  0
   -0.7198    0.5827    2.2334 H   0  0  0  0  0  0  0  0  0  0  0  0
   -1.8878   -0.5388   -1.2135 H   0  0  0  0  0  0  0  0  0  0  0  0
   -6.6061    0.5040    2.5769 H   0  0  0  0  0  0  0  0  0  0  0  0
   -9.0998    0.3200   -1.2089 H   0  0  0  0  0  0  0  0  0  0  0  0
   -6.5463   -0.0842   -1.7469 H   0  0  0  0  0  0  0  0  0  0  0  0
  1  2  2  0
  2  3  1  0
  3  4  1  0
  4  5  1  0
  5  6  1  0
  6  7  1  0
  7  8  1  0
  8  9  2  0
  9 10  1  0
 10 11  2  0
 11 12  1  0
 12 13  2  0
 13 14  1  0
 14 15  1  0
 15 16  1  0
 16 17  2  0
 17 18  1  0
 18 19  2  0
 19 20  1  0
 20 21  2  0
 21 22  1  0
 22 23  1  0
 23 24  2  0
 19 25  1  0
  6  2  1  0
 13  8  1  0
 25 16  1  0
 24 20  1  0
  3 26  1  0
  3 27  1  0
  4 28  1  0
  4 29  1  0
  5 30  1  0
  5 31  1  0
  7 32  1  0
  7 33  1  0
  9 34  1  0
 10 35  1  0
 11 36  1  0
 12 37  1  0
 14 38  1  0
 15 39  1  0
 15 40  1  0
 17 41  1  0
 21 42  1  0
 23 43  1  0
 24 44  1  0
M  END
$$$$
OCNT-2313923
     RDKit          3D

 43 44  0  0  0  0  0  0  0  0999 V2000
    3.5415    1.8745    2.6103 C   0  0  0  0  0  0  0  0  0  0  0  0
    2.3497    1.3902    2.0044 O   0  0  0  0  0  0  0  0  0  0  0  0
    2.4719    0.7752    0.7881 C   0  0  0  0  0  0  0  0  0  0  0  0
    3.6716    0.5165    0.1136 C   0  0  0  0  0  0  0  0  0  0  0  0
    3.6600   -0.1156   -1.1361 C   0  0  0  0  0  0  0  0  0  0  0  0
    4.7588   -0.4161   -1.8945 O   0  0  0  0  0  0  0  0  0  0  0  0
    6.0225    0.0196   -1.4103 C   0  0  0  0  0  0  0  0  0  0  0  0
    2.4450   -0.5005   -1.7037 C   0  0  0  0  0  0  0  0  0  0  0  0
    1.2529   -0.2652   -1.0192 C   0  0  0  0  0  0  0  0  0  0  0  0
   -0.0240   -0.6569   -1.6475 C   0  0  0  0  0  0  0  0  0  0  0  0
   -0.3059   -0.1289   -2.7206 O   0  0  0  0  0  0  0  0  0  0  0  0
   -0.8379   -1.5818   -0.9979 N   0  0  0  0  0  0  0  0  0  0  0  0
   -0.4765   -2.2830    0.2275 C   0  0  0  0  0  0  0  0  0  0  0  0
   -2.2075   -1.7479   -1.4775 C   0  0  0  0  0  0  0  0  0  0  0  0
   -3.2025   -0.9972   -0.6227 C   0  0  0  0  0  0  0  0  0  0  0  0
   -4.0233   -1.6755    0.2875 C   0  0  0  0  0  0  0  0  0  0  0  0
   -4.9197   -0.9696    1.0900 C   0  0  0  0  0  0  0  0  0  0  0  0
   -5.0061    0.4192    0.9901 C   0  0  0  0  0  0  0  0  0  0  0  0
   -4.2045    1.1150    0.0788 C   0  0  0  0  0  0  0  0  0  0  0  0
   -4.2691    2.6109   -0.0073 C   0  0  0  0  0  0  0  0  0  0  0  0
   -3.2971    0.4005   -0.7140 C   0  0  0  0  0  0  0  0  0  0  0  0
    1.2606    0.3878    0.2148 C   0  0  0  0  0  0  0  0  0  0  0  0
    3.2643    2.3639    3.5489 H   0  0  0  0  0  0  0  0  0  0  0  0
    4.0320    2.6213    1.9773 H   0  0  0  0  0  0  0  0  0  0  0  0
    4.2219    1.0515    2.8522 H   0  0  0  0  0  0  0  0  0  0  0  0
    4.6133    0.8094    0.5591 H   0  0  0  0  0  0  0  0  0  0  0  0
    6.2740   -0.4757   -0.4668 H   0  0  0  0  0  0  0  0  0  0  0  0
    6.7794   -0.2651   -2.1476 H   0  0  0  0  0  0  0  0  0  0  0  0
    6.0523    1.1093   -1.3060 H   0  0  0  0  0  0  0  0  0  0  0  0
    2.4264   -0.9799   -2.6796 H   0  0  0  0  0  0  0  0  0  0  0  0
   -0.8695   -1.7302    1.0853 H   0  0  0  0  0  0  0  0  0  0  0  0
   -0.9077   -3.2885    0.2110 H   0  0  0  0  0  0  0  0  0  0  0  0
    0.6070   -2.3828    0.3252 H   0  0  0  0  0  0  0  0  0  0  0  0
   -2.4367   -2.8204   -1.4932 H   0  0  0  0  0  0  0  0  0  0  0  0
   -2.3034   -1.4039   -2.5141 H   0  0  0  0  0  0  0  0  0  0  0  0
   -3.9662   -2.7572    0.3808 H   0  0  0  0  0  0  0  0  0  0  0  0
   -5.5506   -1.5015    1.7972 H   0  0  0  0  0  0  0  0  0  0  0  0
   -5.7046    0.9563    1.6276 H   0  0  0  0  0  0  0  0  0  0  0  0
   -3.5429    3.0567    0.6794 H   0  0  0  0  0  0  0  0  0  0  0  0
   -5.2693    2.9749    0.2506 H   0  0  0  0  0  0  0  0  0  0  0  0
   -4.0519    2.9530   -1.0246 H   0  0  0  0  0  0  0  0  0  0  0  0
   -2.6535    0.9336   -1.4139 H   0  0  0  0  0  0  0  0  0  0  0  0
    0.3253    0.6043    0.7254 H   0  0  0  0  0  0  0  0  0  0  0  0
  1  2  1  0
  2  3  1  0
  3  4  1  0
  4  5  2  0
  5  6  1  0
  6  7  1  0
  5  8  1  0
  8  9  2  0
  9 10  1  0
 10 11  2  0
 10 12  1  0
 12 13  1  0
 12 14  1  0
 14 15  1  0
 15 16  2  0
 16 17  1  0
 17 18  2  0
 18 19  1  0
 19 20  1  0
 19 21  2  0
  9 22  1  0
 22  3  2  0
 21 15  1  0
  1 23  1  0
  1 24  1  0
  1 25  1  0
  4 26  1  0
  7 27  1  0
  7 28  1  0
  7 29  1  0
  8 30  1  0
 13 31  1  0
 13 32  1  0
 13 33  1  0
 14 34  1  0
 14 35  1  0
 16 36  1  0
 17 37  1  0
 18 38  1  0
 20 39  1  0
 20 40  1  0
 20 41  1  0
 21 42  1  0
 22 43  1  0
M  END
$$$$
OCNT-2313939
     RDKit          3D

  0  0  0  0  0  0  0  0  0  0999 V3000
M  V30 BEGIN CTAB
M  V30 COUNTS 40 42 0 0 0
M  V30 BEGIN ATOM
M  V30 1 C -6.661840 -0.460950 -0.580444 0
M  V30 2 O -5.977736 0.774965 -0.723572 0
M  V30 3 C -4.689440 0.857961 -0.243045 0
M  V30 4 C -3.977724 -0.117973 0.353788 0
M  V30 5 N -2.673627 0.002378 0.832316 0
M  V30 6 C -2.077829 -1.079919 1.626858 0
M  V30 7 C -2.023824 1.232901 0.651185 0
M  V30 8 C -0.585322 1.442057 1.027325 0
M  V30 9 O -0.224132 2.377349 1.730910 0
M  V30 10 N 0.255209 0.505839 0.461833 0
M  V30 11 C 1.676710 0.588651 0.576477 0 CFG=1
M  V30 12 C 2.380267 0.220261 1.848314 0
M  V30 13 C 2.510330 -0.677263 0.643807 0 CFG=2
M  V30 14 C 3.799046 -0.752595 -0.139075 0
M  V30 15 C 5.040664 -0.934875 0.495412 0
M  V30 16 C 6.224481 -1.016976 -0.243473 0
M  V30 17 C 6.177590 -0.925219 -1.629229 0
M  V30 18 F 7.313204 -1.006414 -2.334033 0
M  V30 19 C 4.972515 -0.756775 -2.291305 0
M  V30 20 C 3.802317 -0.676491 -1.543657 0
M  V30 21 F 2.637955 -0.526118 -2.194406 0
M  V30 22 C -2.603439 2.303879 0.090994 0
M  V30 23 C -3.997632 2.185735 -0.390016 0
M  V30 24 O -4.542969 3.157261 -0.906512 0
M  V30 25 H -6.149737 -1.258343 -1.128755 0
M  V30 26 H -6.777705 -0.725073 0.475761 0
M  V30 27 H -7.661372 -0.345502 -1.010049 0
M  V30 28 H -4.397933 -1.104762 0.515274 0
M  V30 29 H -2.848081 -1.729501 2.058633 0
M  V30 30 H -1.492576 -0.687396 2.465604 0
M  V30 31 H -1.431949 -1.699924 0.996921 0
M  V30 32 H -0.134136 -0.111329 -0.242392 0
M  V30 33 H 2.086199 1.437527 0.031881 0
M  V30 34 H 1.779123 -0.123925 2.682027 0
M  V30 35 H 3.214076 0.846134 2.145740 0
M  V30 36 H 1.961532 -1.615310 0.700920 0
M  V30 37 H 5.086919 -1.013187 1.580053 0
M  V30 38 H 7.179971 -1.153053 0.254214 0
M  V30 39 H 4.941153 -0.690973 -3.372142 0
M  V30 40 H -2.110257 3.256951 -0.051764 0
M  V30 END ATOM
M  V30 BEGIN BOND
M  V30 1 1 1 2
M  V30 2 1 2 3
M  V30 3 2 3 4
M  V30 4 1 4 5
M  V30 5 1 5 6
M  V30 6 1 5 7
M  V30 7 1 7 8
M  V30 8 2 8 9
M  V30 9 1 8 10
M  V30 10 1 10 11
M  V30 11 1 11 12
M  V30 12 1 12 13
M  V30 13 1 13 14
M  V30 14 1 14 15
M  V30 15 2 15 16
M  V30 16 1 16 17
M  V30 17 1 17 18
M  V30 18 2 17 19
M  V30 19 1 19 20
M  V30 20 1 20 21
M  V30 21 2 7 22
M  V30 22 1 22 23
M  V30 23 2 23 24
M  V30 24 1 23 3
M  V30 25 1 13 11
M  V30 26 2 20 14
M  V30 27 1 1 25
M  V30 28 1 1 26
M  V30 29 1 1 27
M  V30 30 1 4 28
M  V30 31 1 6 29
M  V30 32 1 6 30
M  V30 33 1 6 31
M  V30 34 1 10 32
M  V30 35 1 11 33 CFG=3
M  V30 36 1 12 34
M  V30 37 1 12 35
M  V30 38 1 13 36 CFG=1
M  V30 39 1 15 37
M  V30 40 1 16 38
M  V30 41 1 19 39
M  V30 42 1 22 40
M  V30 END BOND
M  V30 BEGIN COLLECTION
M  V30 MDLV30/STERAC1 ATOMS=(2 11 13)
M  V30 END COLLECTION
M  V30 END CTAB
M  END
>  <_CXSMILES_Data>  (777) 
|&1:10,12|

$$$$
OCNT-2313948
     RDKit          3D

 36 38  0  0  0  0  0  0  0  0999 V2000
    3.3002   -2.6463    1.0636 C   0  0  0  0  0  0  0  0  0  0  0  0
    3.7490   -1.3656    0.6173 O   0  0  0  0  0  0  0  0  0  0  0  0
    2.9088   -0.3521    0.9225 C   0  0  0  0  0  0  0  0  0  0  0  0
    1.8577   -0.4143    1.5398 O   0  0  0  0  0  0  0  0  0  0  0  0
    3.4433    0.9057    0.3826 C   0  0  0  0  0  0  0  0  0  0  0  0
    4.7218    1.2999    0.8166 C   0  0  0  0  0  0  0  0  0  0  0  0
    5.2881    2.4867    0.3531 C   0  0  0  0  0  0  0  0  0  0  0  0
    4.5863    3.2825   -0.5472 C   0  0  0  0  0  0  0  0  0  0  0  0
    3.3170    2.8928   -0.9817 C   0  0  0  0  0  0  0  0  0  0  0  0
    2.7214    1.7064   -0.5141 C   0  0  0  0  0  0  0  0  0  0  0  0
    1.3854    1.3767   -1.0943 C   0  0  0  0  0  0  0  0  0  0  0  0
    1.2101    1.6516   -2.2765 O   0  0  0  0  0  0  0  0  0  0  0  0
    0.4534    0.8400   -0.2421 N   0  0  0  0  0  0  0  0  0  0  0  0
   -0.8072    0.5062   -0.6582 C   0  0  0  0  0  0  0  0  0  0  0  0
   -1.3847    0.6425   -1.8241 N   0  0  0  0  0  0  0  0  0  0  0  0
   -2.6811    0.1562   -1.8118 N   0  0  0  0  0  0  0  0  0  0  0  0
   -3.0403   -0.3064   -0.6271 C   0  0  0  0  0  0  0  0  0  0  0  0
   -4.3464   -0.8913   -0.2929 C   0  0  0  0  0  0  0  0  0  0  0  0
   -4.9633   -0.7189    0.9461 C   0  0  0  0  0  0  0  0  0  0  0  0
   -6.2068   -1.3083    1.1690 C   0  0  0  0  0  0  0  0  0  0  0  0
   -6.8023   -2.0479    0.1553 C   0  0  0  0  0  0  0  0  0  0  0  0
   -6.1282   -2.1680   -1.0468 C   0  0  0  0  0  0  0  0  0  0  0  0
   -4.9224   -1.6112   -1.2893 N   0  0  0  0  0  0  0  0  0  0  0  0
   -1.7816   -0.1957    0.5523 S   0  0  0  0  0  0  0  0  0  0  0  0
    4.0344   -3.3923    0.7475 H   0  0  0  0  0  0  0  0  0  0  0  0
    2.3354   -2.8940    0.6097 H   0  0  0  0  0  0  0  0  0  0  0  0
    3.2312   -2.6667    2.1557 H   0  0  0  0  0  0  0  0  0  0  0  0
    5.2812    0.6808    1.5157 H   0  0  0  0  0  0  0  0  0  0  0  0
    6.2787    2.7868    0.6875 H   0  0  0  0  0  0  0  0  0  0  0  0
    5.0275    4.2035   -0.9223 H   0  0  0  0  0  0  0  0  0  0  0  0
    2.7894    3.5193   -1.7015 H   0  0  0  0  0  0  0  0  0  0  0  0
    0.6803    0.5991    0.7184 H   0  0  0  0  0  0  0  0  0  0  0  0
   -4.5059   -0.1261    1.7310 H   0  0  0  0  0  0  0  0  0  0  0  0
   -6.7089   -1.1849    2.1248 H   0  0  0  0  0  0  0  0  0  0  0  0
   -7.7706   -2.5155    0.2954 H   0  0  0  0  0  0  0  0  0  0  0  0
   -6.5511   -2.7311   -1.8743 H   0  0  0  0  0  0  0  0  0  0  0  0
  1  2  1  0
  2  3  1  0
  3  4  2  0
  3  5  1  0
  5  6  2  0
  6  7  1  0
  7  8  2  0
  8  9  1  0
  9 10  2  0
 10 11  1  0
 11 12  2  0
 11 13  1  0
 13 14  1  0
 14 15  2  0
 15 16  1  0
 16 17  2  0
 17 18  1  0
 18 19  2  0
 19 20  1  0
 20 21  2  0
 21 22  1  0
 22 23  2  0
 17 24  1  0
 10  5  1  0
 24 14  1  0
 23 18  1  0
  1 25  1  0
  1 26  1  0
  1 27  1  0
  6 28  1  0
  7 29  1  0
  8 30  1  0
  9 31  1  0
 13 32  1  0
 19 33  1  0
 20 34  1  0
 21 35  1  0
 22 36  1  0
M  END
$$$$
OCNT-2313963
     RDKit          3D

 43 44  0  0  0  0  0  0  0  0999 V2000
    1.2523   -2.3358   -1.7478 C   0  0  0  0  0  0  0  0  0  0  0  0
    2.2594   -1.2540   -1.5409 C   0  0  0  0  0  0  0  0  0  0  0  0
    2.2601   -0.2269   -0.6149 C   0  0  0  0  0  0  0  0  0  0  0  0
    1.2160   -0.0532    0.2876 N   0  0  0  0  0  0  0  0  0  0  0  0
    1.1285    0.9523    1.2369 C   0  0  0  0  0  0  0  0  0  0  0  0
    1.9768    1.8132    1.4691 O   0  0  0  0  0  0  0  0  0  0  0  0
   -0.1787    0.9137    2.0116 C   0  0  0  0  0  0  0  0  0  0  0  0
   -1.3331    1.4305    1.1830 C   0  0  0  0  0  0  0  0  0  0  0  0
   -1.6031    2.8086    1.1783 C   0  0  0  0  0  0  0  0  0  0  0  0
   -2.6171    3.3271    0.3743 C   0  0  0  0  0  0  0  0  0  0  0  0
   -3.3592    2.4794   -0.4426 C   0  0  0  0  0  0  0  0  0  0  0  0
   -3.0986    1.1059   -0.4500 C   0  0  0  0  0  0  0  0  0  0  0  0
   -2.1022    0.5732    0.3738 C   0  0  0  0  0  0  0  0  0  0  0  0
   -1.7704   -0.7597    0.4059 O   0  0  0  0  0  0  0  0  0  0  0  0
   -2.8453   -1.7056    0.2654 C   0  0  0  0  0  0  0  0  0  0  0  0
   -2.2050   -3.0929    0.1735 C   0  0  0  0  0  0  0  0  0  0  0  0
   -3.7897   -1.6635    1.4727 C   0  0  0  0  0  0  0  0  0  0  0  0
    3.4356    0.5765   -0.7409 C   0  0  0  0  0  0  0  0  0  0  0  0
    4.2747    0.1741   -1.7640 C   0  0  0  0  0  0  0  0  0  0  0  0
    5.5343    0.7346   -2.2236 C   0  0  0  0  0  0  0  0  0  0  0  0
    5.9957    1.8269   -1.5454 N   0  0  0  0  0  0  0  0  0  0  0  0
    6.2054    0.3144   -3.1634 O   0  0  0  0  0  0  0  0  0  0  0  0
    3.6370   -1.2010   -2.5557 S   0  0  0  0  0  0  0  0  0  0  0  0
    1.6733   -3.2008   -2.2826 H   0  0  0  0  0  0  0  0  0  0  0  0
    0.8848   -2.7039   -0.7806 H   0  0  0  0  0  0  0  0  0  0  0  0
    0.3978   -1.9530   -2.3223 H   0  0  0  0  0  0  0  0  0  0  0  0
    0.4023   -0.6527    0.1742 H   0  0  0  0  0  0  0  0  0  0  0  0
   -0.3640   -0.1067    2.3702 H   0  0  0  0  0  0  0  0  0  0  0  0
   -0.0636    1.5228    2.9180 H   0  0  0  0  0  0  0  0  0  0  0  0
   -1.0087    3.4865    1.7904 H   0  0  0  0  0  0  0  0  0  0  0  0
   -2.8146    4.3952    0.3754 H   0  0  0  0  0  0  0  0  0  0  0  0
   -4.1345    2.8859   -1.0887 H   0  0  0  0  0  0  0  0  0  0  0  0
   -3.6769    0.4850   -1.1262 H   0  0  0  0  0  0  0  0  0  0  0  0
   -3.3954   -1.5430   -0.6689 H   0  0  0  0  0  0  0  0  0  0  0  0
   -1.5715   -3.2908    1.0398 H   0  0  0  0  0  0  0  0  0  0  0  0
   -2.9635   -3.8786    0.1080 H   0  0  0  0  0  0  0  0  0  0  0  0
   -1.5657   -3.1669   -0.7183 H   0  0  0  0  0  0  0  0  0  0  0  0
   -4.2925   -0.6915    1.5501 H   0  0  0  0  0  0  0  0  0  0  0  0
   -4.5612   -2.4395    1.3918 H   0  0  0  0  0  0  0  0  0  0  0  0
   -3.2397   -1.8100    2.4127 H   0  0  0  0  0  0  0  0  0  0  0  0
    3.6455    1.4321   -0.1158 H   0  0  0  0  0  0  0  0  0  0  0  0
    6.8600    2.2385   -1.8702 H   0  0  0  0  0  0  0  0  0  0  0  0
    5.5150    2.2535   -0.7724 H   0  0  0  0  0  0  0  0  0  0  0  0
  1  2  1  0
  2  3  2  0
  3  4  1  0
  4  5  1  0
  5  6  2  0
  5  7  1  0
  7  8  1  0
  8  9  2  0
  9 10  1  0
 10 11  2  0
 11 12  1  0
 12 13  2  0
 13 14  1  0
 14 15  1  0
 15 16  1  0
 15 17  1  0
  3 18  1  0
 18 19  2  0
 19 20  1  0
 20 21  1  0
 20 22  2  0
 19 23  1  0
 23  2  1  0
 13  8  1  0
  1 24  1  0
  1 25  1  0
  1 26  1  0
  4 27  1  0
  7 28  1  0
  7 29  1  0
  9 30  1  0
 10 31  1  0
 11 32  1  0
 12 33  1  0
 15 34  1  0
 16 35  1  0
 16 36  1  0
 16 37  1  0
 17 38  1  0
 17 39  1  0
 17 40  1  0
 18 41  1  0
 21 42  1  0
 21 43  1  0
M  END
$$$$
OCNT-2313985
     RDKit          3D

  0  0  0  0  0  0  0  0  0  0999 V3000
M  V30 BEGIN CTAB
M  V30 COUNTS 50 53 0 0 0
M  V30 BEGIN ATOM
M  V30 1 O -1.735033 -1.042663 1.464501 0
M  V30 2 C -1.414085 -0.324768 0.527978 0
M  V30 3 N -0.134926 -0.066632 0.084852 0
M  V30 4 C 1.078243 -0.500267 0.658168 0
M  V30 5 C 1.165067 -1.132997 1.891148 0
M  V30 6 C 2.410423 -1.514558 2.367123 0
M  V30 7 F 2.500762 -2.131046 3.554100 0
M  V30 8 C 3.574290 -1.273627 1.639328 0
M  V30 9 C 3.535227 -0.629464 0.397548 0
M  V30 10 N 4.684656 -0.384174 -0.333182 0
M  V30 11 C 6.019564 -0.372883 0.292610 0
M  V30 12 C 6.946791 0.603967 -0.452679 0
M  V30 13 O 7.122478 0.301732 -1.844330 0
M  V30 14 C 5.999045 -0.374681 -2.424871 0
M  V30 15 C 4.653337 -0.032359 -1.763548 0
M  V30 16 C 2.259671 -0.252111 -0.067029 0
M  V30 17 N -2.335827 0.338422 -0.262577 0
M  V30 18 C -3.769176 0.289376 0.049767 0 CFG=2
M  V30 19 C -4.333378 -1.142880 0.046832 0
M  V30 20 C -5.736647 -1.009792 -0.530965 0
M  V30 21 C -5.562590 0.029401 -1.628433 0
M  V30 22 C -4.574551 1.039361 -1.046667 0 CFG=1
M  V30 23 C -5.245543 2.203284 -0.318313 0
M  V30 24 N -4.380353 2.433572 0.837064 0
M  V30 25 C -4.096386 1.078024 1.336081 0
M  V30 26 H -0.083335 0.354805 -0.830117 0
M  V30 27 H 0.297064 -1.343975 2.504487 0
M  V30 28 H 4.506715 -1.626463 2.066511 0
M  V30 29 H 5.969900 -0.049191 1.339699 0
M  V30 30 H 6.435770 -1.386249 0.254272 0
M  V30 31 H 7.938659 0.608553 0.010620 0
M  V30 32 H 6.552562 1.626055 -0.385630 0
M  V30 33 H 6.192288 -1.452827 -2.360050 0
M  V30 34 H 5.972281 -0.112530 -3.488344 0
M  V30 35 H 4.453255 1.041573 -1.862193 0
M  V30 36 H 3.869865 -0.590232 -2.289975 0
M  V30 37 H 2.176073 0.267992 -1.017070 0
M  V30 38 H -2.023446 1.263692 -0.526739 0
M  V30 39 H -4.347315 -1.598982 1.042349 0
M  V30 40 H -3.737987 -1.793912 -0.607424 0
M  V30 41 H -6.434914 -0.649916 0.233974 0
M  V30 42 H -6.115264 -1.960294 -0.918986 0
M  V30 43 H -6.512086 0.479545 -1.932536 0
M  V30 44 H -5.121082 -0.448049 -2.512918 0
M  V30 45 H -3.927763 1.432992 -1.841070 0
M  V30 46 H -6.261728 1.954535 0.010007 0
M  V30 47 H -5.302104 3.094445 -0.951986 0
M  V30 48 H -4.869190 2.975257 1.550685 0
M  V30 49 H -3.275417 1.101317 2.058042 0
M  V30 50 H -4.983862 0.679621 1.843627 0
M  V30 END ATOM
M  V30 BEGIN BOND
M  V30 1 2 1 2
M  V30 2 1 2 3
M  V30 3 1 3 4
M  V30 4 1 4 5
M  V30 5 2 5 6
M  V30 6 1 6 7
M  V30 7 1 6 8
M  V30 8 2 8 9
M  V30 9 1 9 10
M  V30 10 1 10 11
M  V30 11 1 11 12
M  V30 12 1 12 13
M  V30 13 1 13 14
M  V30 14 1 14 15
M  V30 15 1 9 16
M  V30 16 1 2 17
M  V30 17 1 18 17 CFG=3
M  V30 18 1 18 19
M  V30 19 1 19 20
M  V30 20 1 20 21
M  V30 21 1 21 22
M  V30 22 1 22 23
M  V30 23 1 23 24
M  V30 24 1 24 25
M  V30 25 2 16 4
M  V30 26 1 22 18
M  V30 27 1 15 10
M  V30 28 1 25 18
M  V30 29 1 3 26
M  V30 30 1 5 27
M  V30 31 1 8 28
M  V30 32 1 11 29
M  V30 33 1 11 30
M  V30 34 1 12 31
M  V30 35 1 12 32
M  V30 36 1 14 33
M  V30 37 1 14 34
M  V30 38 1 15 35
M  V30 39 1 15 36
M  V30 40 1 16 37
M  V30 41 1 17 38
M  V30 42 1 19 39
M  V30 43 1 19 40
M  V30 44 1 20 41
M  V30 45 1 20 42
M  V30 46 1 21 43
M  V30 47 1 21 44
M  V30 48 1 22 45 CFG=3
M  V30 49 1 23 46
M  V30 50 1 23 47
M  V30 51 1 24 48
M  V30 52 1 25 49
M  V30 53 1 25 50
M  V30 END BOND
M  V30 BEGIN COLLECTION
M  V30 MDLV30/STERAC1 ATOMS=(2 18 22)
M  V30 END COLLECTION
M  V30 END CTAB
M  END
>  <_CXSMILES_Data>  (780) 
|&1:17,21|

$$$$
OCNT-2313989
     RDKit          3D

 42 44  0  0  0  0  0  0  0  0999 V2000
    6.1822   -1.2842    1.7909 C   0  0  0  0  0  0  0  0  0  0  0  0
    6.4193   -0.8410    0.3562 C   0  0  0  0  0  0  0  0  0  0  0  0
    5.6279    0.3263   -0.0015 N   0  0  0  0  0  0  0  0  0  0  0  0
    6.2242    1.5369    0.0860 N   0  0  0  0  0  0  0  0  0  0  0  0
    5.2844    2.3841   -0.3294 C   0  0  0  0  0  0  0  0  0  0  0  0
    4.0872    1.7287   -0.6582 C   0  0  0  0  0  0  0  0  0  0  0  0
    2.6926    2.5279   -1.2112 Cl  0  0  0  0  0  0  0  0  0  0  0  0
    4.3139    0.3791   -0.4330 C   0  0  0  0  0  0  0  0  0  0  0  0
    3.4547   -0.7761   -0.5788 C   0  0  0  0  0  0  0  0  0  0  0  0
    3.8319   -1.9287   -0.3842 O   0  0  0  0  0  0  0  0  0  0  0  0
    2.1567   -0.5164   -0.9481 N   0  0  0  0  0  0  0  0  0  0  0  0
    1.2408   -1.5872   -1.2650 C   0  0  0  0  0  0  0  0  0  0  0  0
   -0.1379   -1.0441   -1.2501 C   0  0  0  0  0  0  0  0  0  0  0  0
   -1.0800   -1.0472   -0.2438 C   0  0  0  0  0  0  0  0  0  0  0  0
   -2.1639   -0.3765   -0.7655 N   0  0  0  0  0  0  0  0  0  0  0  0
   -3.4103   -0.0817   -0.1537 C   0  0  0  0  0  0  0  0  0  0  0  0
   -4.3865    0.6249   -0.8746 C   0  0  0  0  0  0  0  0  0  0  0  0
   -5.6238    0.9259   -0.2895 C   0  0  0  0  0  0  0  0  0  0  0  0
   -5.8973    0.5255    1.0186 C   0  0  0  0  0  0  0  0  0  0  0  0
   -7.0585    0.7520    1.7054 O   0  0  0  0  0  0  0  0  0  0  0  0
   -8.0936    1.4368    1.0098 C   0  0  0  0  0  0  0  0  0  0  0  0
   -4.9232   -0.1761    1.7355 C   0  0  0  0  0  0  0  0  0  0  0  0
   -3.6844   -0.4826    1.1597 C   0  0  0  0  0  0  0  0  0  0  0  0
   -1.8797    0.0081   -2.0356 N   0  0  0  0  0  0  0  0  0  0  0  0
   -0.6496   -0.3881   -2.3346 N   0  0  0  0  0  0  0  0  0  0  0  0
    6.4283   -0.4801    2.4937 H   0  0  0  0  0  0  0  0  0  0  0  0
    5.1356   -1.5599    1.9573 H   0  0  0  0  0  0  0  0  0  0  0  0
    6.8075   -2.1503    2.0305 H   0  0  0  0  0  0  0  0  0  0  0  0
    6.2076   -1.6397   -0.3597 H   0  0  0  0  0  0  0  0  0  0  0  0
    7.4758   -0.5757    0.2221 H   0  0  0  0  0  0  0  0  0  0  0  0
    5.5091    3.4425   -0.3683 H   0  0  0  0  0  0  0  0  0  0  0  0
    1.9158    0.4134   -1.2717 H   0  0  0  0  0  0  0  0  0  0  0  0
    1.3551   -2.4008   -0.5388 H   0  0  0  0  0  0  0  0  0  0  0  0
    1.5004   -1.9747   -2.2572 H   0  0  0  0  0  0  0  0  0  0  0  0
   -1.0550   -1.4468    0.7573 H   0  0  0  0  0  0  0  0  0  0  0  0
   -4.2048    0.9517   -1.8984 H   0  0  0  0  0  0  0  0  0  0  0  0
   -6.3479    1.4737   -0.8857 H   0  0  0  0  0  0  0  0  0  0  0  0
   -7.7815    2.4501    0.7319 H   0  0  0  0  0  0  0  0  0  0  0  0
   -8.9487    1.5264    1.6875 H   0  0  0  0  0  0  0  0  0  0  0  0
   -8.4206    0.8692    0.1316 H   0  0  0  0  0  0  0  0  0  0  0  0
   -5.1356   -0.4923    2.7565 H   0  0  0  0  0  0  0  0  0  0  0  0
   -2.9683   -1.0331    1.7646 H   0  0  0  0  0  0  0  0  0  0  0  0
  1  2  1  0
  2  3  1  0
  3  4  1  0
  4  5  2  0
  5  6  1  0
  6  7  1  0
  6  8  2  0
  8  9  1  0
  9 10  2  0
  9 11  1  0
 11 12  1  0
 12 13  1  0
 13 14  2  0
 14 15  1  0
 15 16  1  0
 16 17  1  0
 17 18  2  0
 18 19  1  0
 19 20  1  0
 20 21  1  0
 19 22  2  0
 22 23  1  0
 15 24  1  0
 24 25  2  0
  8  3  1  0
 25 13  1  0
 23 16  2  0
  1 26  1  0
  1 27  1  0
  1 28  1  0
  2 29  1  0
  2 30  1  0
  5 31  1  0
 11 32  1  0
 12 33  1  0
 12 34  1  0
 14 35  1  0
 17 36  1  0
 18 37  1  0
 21 38  1  0
 21 39  1  0
 21 40  1  0
 22 41  1  0
 23 42  1  0
M  END
$$$$
OCNT-2313994
     RDKit          3D

 45 47  0  0  0  0  0  0  0  0999 V2000
   -6.0533   -2.0760    0.9211 C   0  0  0  0  0  0  0  0  0  0  0  0
   -5.7086   -1.7219   -0.5158 C   0  0  0  0  0  0  0  0  0  0  0  0
   -4.3007   -1.8155   -0.7405 O   0  0  0  0  0  0  0  0  0  0  0  0
   -3.5828   -0.6713   -0.4476 C   0  0  0  0  0  0  0  0  0  0  0  0
   -2.2330   -0.7269   -0.6987 C   0  0  0  0  0  0  0  0  0  0  0  0
   -1.4941    0.4028   -0.4066 C   0  0  0  0  0  0  0  0  0  0  0  0
   -0.1016    0.4060   -0.6610 N   0  0  0  0  0  0  0  0  0  0  0  0
    0.4797    1.7571   -0.6025 C   0  0  0  0  0  0  0  0  0  0  0  0
    1.9308    1.7089   -1.0815 C   0  0  0  0  0  0  0  0  0  0  0  0
    2.7600    0.7108   -0.2574 C   0  0  0  0  0  0  0  0  0  0  0  0
    4.1985    0.6457   -0.7985 C   0  0  0  0  0  0  0  0  0  0  0  0
    5.1168   -0.1574    0.0574 C   0  0  0  0  0  0  0  0  0  0  0  0
    5.8115   -1.3067   -0.2544 C   0  0  0  0  0  0  0  0  0  0  0  0
    6.5050   -1.6269    0.8794 N   0  0  0  0  0  0  0  0  0  0  0  0
    6.2141   -0.6815    1.8200 C   0  0  0  0  0  0  0  0  0  0  0  0
    5.3797    0.2184    1.3545 N   0  0  0  0  0  0  0  0  0  0  0  0
    2.0731   -0.6653   -0.2775 C   0  0  0  0  0  0  0  0  0  0  0  0
    0.6154   -0.5709    0.1759 C   0  0  0  0  0  0  0  0  0  0  0  0
   -2.0929    1.5053    0.0804 N   0  0  0  0  0  0  0  0  0  0  0  0
   -3.4188    1.4596    0.3050 C   0  0  0  0  0  0  0  0  0  0  0  0
   -4.0716    2.6999    0.8284 C   0  0  0  0  0  0  0  0  0  0  0  0
   -4.2044    0.4025    0.0571 N   0  0  0  0  0  0  0  0  0  0  0  0
   -7.1374   -2.0879    1.0662 H   0  0  0  0  0  0  0  0  0  0  0  0
   -5.6171   -1.3605    1.6246 H   0  0  0  0  0  0  0  0  0  0  0  0
   -5.6523   -3.0615    1.1800 H   0  0  0  0  0  0  0  0  0  0  0  0
   -6.1752   -2.4627   -1.1753 H   0  0  0  0  0  0  0  0  0  0  0  0
   -6.1225   -0.7511   -0.8140 H   0  0  0  0  0  0  0  0  0  0  0  0
   -1.7846   -1.6107   -1.1289 H   0  0  0  0  0  0  0  0  0  0  0  0
    0.4432    2.1584    0.4192 H   0  0  0  0  0  0  0  0  0  0  0  0
   -0.0692    2.4426   -1.2609 H   0  0  0  0  0  0  0  0  0  0  0  0
    1.9540    1.4231   -2.1413 H   0  0  0  0  0  0  0  0  0  0  0  0
    2.3690    2.7114   -1.0092 H   0  0  0  0  0  0  0  0  0  0  0  0
    2.7860    1.0664    0.7822 H   0  0  0  0  0  0  0  0  0  0  0  0
    4.1965    0.2425   -1.8192 H   0  0  0  0  0  0  0  0  0  0  0  0
    4.6085    1.6615   -0.8670 H   0  0  0  0  0  0  0  0  0  0  0  0
    5.8704   -1.9010   -1.1550 H   0  0  0  0  0  0  0  0  0  0  0  0
    7.1241   -2.4157    1.0044 H   0  0  0  0  0  0  0  0  0  0  0  0
    6.6369   -0.7000    2.8156 H   0  0  0  0  0  0  0  0  0  0  0  0
    2.6012   -1.3678    0.3771 H   0  0  0  0  0  0  0  0  0  0  0  0
    2.1098   -1.0812   -1.2929 H   0  0  0  0  0  0  0  0  0  0  0  0
    0.5701   -0.2750    1.2326 H   0  0  0  0  0  0  0  0  0  0  0  0
    0.1782   -1.5729    0.0951 H   0  0  0  0  0  0  0  0  0  0  0  0
   -4.9519    2.4487    1.4280 H   0  0  0  0  0  0  0  0  0  0  0  0
   -4.3829    3.3330   -0.0075 H   0  0  0  0  0  0  0  0  0  0  0  0
   -3.3775    3.2637    1.4591 H   0  0  0  0  0  0  0  0  0  0  0  0
  1  2  1  0
  2  3  1  0
  3  4  1  0
  4  5  2  0
  5  6  1  0
  6  7  1  0
  7  8  1  0
  8  9  1  0
  9 10  1  0
 10 11  1  0
 11 12  1  0
 12 13  2  0
 13 14  1  0
 14 15  1  0
 15 16  2  0
 10 17  1  0
 17 18  1  0
  6 19  2  0
 19 20  1  0
 20 21  1  0
 20 22  2  0
 22  4  1  0
 18  7  1  0
 16 12  1  0
  1 23  1  0
  1 24  1  0
  1 25  1  0
  2 26  1  0
  2 27  1  0
  5 28  1  0
  8 29  1  0
  8 30  1  0
  9 31  1  0
  9 32  1  0
 10 33  1  0
 11 34  1  0
 11 35  1  0
 13 36  1  0
 14 37  1  0
 15 38  1  0
 17 39  1  0
 17 40  1  0
 18 41  1  0
 18 42  1  0
 21 43  1  0
 21 44  1  0
 21 45  1  0
M  END
$$$$
OCNT-2313999
     RDKit          3D

 46 48  0  0  0  0  0  0  0  0999 V2000
    1.6268   -2.1674    0.2149 O   0  0  0  0  0  0  0  0  0  0  0  0
    1.6696   -0.9993   -0.1584 C   0  0  0  0  0  0  0  0  0  0  0  0
    0.4337   -0.1229   -0.3880 C   0  0  0  0  0  0  0  0  0  0  0  0
   -0.7568   -0.7948   -0.0091 O   0  0  0  0  0  0  0  0  0  0  0  0
   -1.9340   -0.1177   -0.1655 C   0  0  0  0  0  0  0  0  0  0  0  0
   -2.0816    1.1697   -0.6762 C   0  0  0  0  0  0  0  0  0  0  0  0
   -3.3544    1.7390   -0.7843 C   0  0  0  0  0  0  0  0  0  0  0  0
   -4.4970    1.0290   -0.3896 C   0  0  0  0  0  0  0  0  0  0  0  0
   -5.8486    1.6920   -0.4924 C   0  0  0  0  0  0  0  0  0  0  0  0
   -7.0119    0.7064   -0.3982 C   0  0  0  0  0  0  0  0  0  0  0  0
   -6.8077   -0.2484    0.7711 C   0  0  0  0  0  0  0  0  0  0  0  0
   -5.5451   -1.0831    0.5648 C   0  0  0  0  0  0  0  0  0  0  0  0
   -4.3514   -0.2614    0.1451 C   0  0  0  0  0  0  0  0  0  0  0  0
   -3.0691   -0.8250    0.2383 C   0  0  0  0  0  0  0  0  0  0  0  0
    2.8608   -0.3400   -0.4284 N   0  0  0  0  0  0  0  0  0  0  0  0
    4.1525   -0.9697   -0.1715 C   0  0  0  0  0  0  0  0  0  0  0  0
    4.5300   -0.8724    1.3190 C   0  0  0  0  0  0  0  0  0  0  0  0
    5.4048    0.3434    1.6047 C   0  0  0  0  0  0  0  0  0  0  0  0
    6.7201    0.2931    0.8242 C   0  0  0  0  0  0  0  0  0  0  0  0
    6.6151   -0.4648   -0.5004 C   0  0  0  0  0  0  0  0  0  0  0  0
    5.2182   -0.3595   -1.0979 C   0  0  0  0  0  0  0  0  0  0  0  0
    0.5591    0.7856    0.2137 H   0  0  0  0  0  0  0  0  0  0  0  0
    0.4070    0.1221   -1.4568 H   0  0  0  0  0  0  0  0  0  0  0  0
   -1.2331    1.7608   -1.0015 H   0  0  0  0  0  0  0  0  0  0  0  0
   -3.4514    2.7470   -1.1824 H   0  0  0  0  0  0  0  0  0  0  0  0
   -5.9290    2.4258    0.3195 H   0  0  0  0  0  0  0  0  0  0  0  0
   -5.9254    2.2374   -1.4406 H   0  0  0  0  0  0  0  0  0  0  0  0
   -7.9516    1.2570   -0.2777 H   0  0  0  0  0  0  0  0  0  0  0  0
   -7.0922    0.1330   -1.3305 H   0  0  0  0  0  0  0  0  0  0  0  0
   -6.7284    0.3249    1.7035 H   0  0  0  0  0  0  0  0  0  0  0  0
   -7.6741   -0.9113    0.8743 H   0  0  0  0  0  0  0  0  0  0  0  0
   -5.7307   -1.8341   -0.2134 H   0  0  0  0  0  0  0  0  0  0  0  0
   -5.3213   -1.6185    1.4953 H   0  0  0  0  0  0  0  0  0  0  0  0
   -2.9467   -1.8328    0.6317 H   0  0  0  0  0  0  0  0  0  0  0  0
    2.8376    0.6679   -0.5129 H   0  0  0  0  0  0  0  0  0  0  0  0
    4.0473   -2.0350   -0.4144 H   0  0  0  0  0  0  0  0  0  0  0  0
    3.6372   -0.8460    1.9546 H   0  0  0  0  0  0  0  0  0  0  0  0
    5.0877   -1.7740    1.6044 H   0  0  0  0  0  0  0  0  0  0  0  0
    4.8556    1.2546    1.3362 H   0  0  0  0  0  0  0  0  0  0  0  0
    5.6183    0.4135    2.6773 H   0  0  0  0  0  0  0  0  0  0  0  0
    7.4983   -0.1778    1.4371 H   0  0  0  0  0  0  0  0  0  0  0  0
    7.0577    1.3201    0.6394 H   0  0  0  0  0  0  0  0  0  0  0  0
    7.3607   -0.0791   -1.2048 H   0  0  0  0  0  0  0  0  0  0  0  0
    6.8584   -1.5222   -0.3367 H   0  0  0  0  0  0  0  0  0  0  0  0
    4.9998    0.6982   -1.2972 H   0  0  0  0  0  0  0  0  0  0  0  0
    5.1854   -0.8636   -2.0714 H   0  0  0  0  0  0  0  0  0  0  0  0
  1  2  2  0
  2  3  1  0
  3  4  1  0
  4  5  1  0
  5  6  1  0
  6  7  2  0
  7  8  1  0
  8  9  1  0
  9 10  1  0
 10 11  1  0
 11 12  1  0
 12 13  1  0
 13 14  1  0
  2 15  1  0
 15 16  1  0
 16 17  1  0
 17 18  1  0
 18 19  1  0
 19 20  1  0
 20 21  1  0
 14  5  2  0
 21 16  1  0
 13  8  2  0
  3 22  1  0
  3 23  1  0
  6 24  1  0
  7 25  1  0
  9 26  1  0
  9 27  1  0
 10 28  1  0
 10 29  1  0
 11 30  1  0
 11 31  1  0
 12 32  1  0
 12 33  1  0
 14 34  1  0
 15 35  1  0
 16 36  1  0
 17 37  1  0
 17 38  1  0
 18 39  1  0
 18 40  1  0
 19 41  1  0
 19 42  1  0
 20 43  1  0
 20 44  1  0
 21 45  1  0
 21 46  1  0
M  END
$$$$
OCNT-2314003
     RDKit          3D

 33 35  0  0  0  0  0  0  0  0999 V2000
   -0.7148   -0.2107   -2.2026 C   0  0  0  0  0  0  0  0  0  0  0  0
   -0.6556   -0.8956   -0.9196 N   0  0  0  0  0  0  0  0  0  0  0  0
   -1.8622   -1.5951   -0.4911 C   0  0  0  0  0  0  0  0  0  0  0  0
   -2.9354   -0.6472   -0.0150 C   0  0  0  0  0  0  0  0  0  0  0  0
   -4.0137   -0.3069   -0.8369 C   0  0  0  0  0  0  0  0  0  0  0  0
   -4.9636    0.5800   -0.3536 C   0  0  0  0  0  0  0  0  0  0  0  0
   -4.9122    1.1440    0.8713 N   0  0  0  0  0  0  0  0  0  0  0  0
   -3.8604    0.8075    1.6481 C   0  0  0  0  0  0  0  0  0  0  0  0
   -2.8617   -0.0694    1.2562 C   0  0  0  0  0  0  0  0  0  0  0  0
    0.3887   -0.7570    0.0088 C   0  0  0  0  0  0  0  0  0  0  0  0
    0.3788   -1.4078    1.0576 O   0  0  0  0  0  0  0  0  0  0  0  0
    1.5161    0.1707   -0.2555 C   0  0  0  0  0  0  0  0  0  0  0  0
    1.4669    1.2053   -1.1244 N   0  0  0  0  0  0  0  0  0  0  0  0
    2.6721    1.7942   -1.0114 N   0  0  0  0  0  0  0  0  0  0  0  0
    3.4987    1.1990   -0.1105 C   0  0  0  0  0  0  0  0  0  0  0  0
    4.7519    1.5859    0.1943 N   0  0  0  0  0  0  0  0  0  0  0  0
    5.3203    0.7987    1.1432 C   0  0  0  0  0  0  0  0  0  0  0  0
    4.7150   -0.2930    1.7569 C   0  0  0  0  0  0  0  0  0  0  0  0
    5.6419   -1.2900    3.0642 Br  0  0  0  0  0  0  0  0  0  0  0  0
    3.4147   -0.6478    1.3982 C   0  0  0  0  0  0  0  0  0  0  0  0
    2.7821    0.1373    0.4171 C   0  0  0  0  0  0  0  0  0  0  0  0
   -1.4284   -0.7150   -2.8616 H   0  0  0  0  0  0  0  0  0  0  0  0
   -1.0380    0.8223   -2.0467 H   0  0  0  0  0  0  0  0  0  0  0  0
    0.2584   -0.2406   -2.6981 H   0  0  0  0  0  0  0  0  0  0  0  0
   -2.2251   -2.2025   -1.3294 H   0  0  0  0  0  0  0  0  0  0  0  0
   -1.6389   -2.3077    0.3117 H   0  0  0  0  0  0  0  0  0  0  0  0
   -4.1182   -0.7190   -1.8346 H   0  0  0  0  0  0  0  0  0  0  0  0
   -5.8175    0.8698   -0.9593 H   0  0  0  0  0  0  0  0  0  0  0  0
   -3.8386    1.2766    2.6275 H   0  0  0  0  0  0  0  0  0  0  0  0
   -2.0415   -0.2959    1.9309 H   0  0  0  0  0  0  0  0  0  0  0  0
    2.8804    2.6105   -1.5730 H   0  0  0  0  0  0  0  0  0  0  0  0
    6.3341    1.0902    1.4100 H   0  0  0  0  0  0  0  0  0  0  0  0
    2.9056   -1.4909    1.8550 H   0  0  0  0  0  0  0  0  0  0  0  0
  1  2  1  0
  2  3  1  0
  3  4  1  0
  4  5  2  0
  5  6  1  0
  6  7  2  0
  7  8  1  0
  8  9  2  0
  2 10  1  0
 10 11  2  0
 10 12  1  0
 12 13  2  0
 13 14  1  0
 14 15  1  0
 15 16  1  0
 16 17  2  0
 17 18  1  0
 18 19  1  0
 18 20  2  0
 20 21  1  0
  9  4  1  0
 21 12  1  0
 21 15  2  0
  1 22  1  0
  1 23  1  0
  1 24  1  0
  3 25  1  0
  3 26  1  0
  5 27  1  0
  6 28  1  0
  8 29  1  0
  9 30  1  0
 14 31  1  0
 17 32  1  0
 20 33  1  0
M  END
$$$$
OCNT-2314004
     RDKit          3D

 55 61  0  0  0  0  0  0  0  0999 V2000
   -1.6853   -2.1882    3.5219 C   0  0  0  0  0  0  0  0  0  0  0  0
   -1.5850   -1.7745    2.1433 N   0  0  0  0  0  0  0  0  0  0  0  0
   -0.6644   -2.1795    1.2305 C   0  0  0  0  0  0  0  0  0  0  0  0
   -0.9220   -1.4707    0.0647 C   0  0  0  0  0  0  0  0  0  0  0  0
   -0.1515   -1.5357   -1.2217 C   0  0  0  0  0  0  0  0  0  0  0  0
   -0.5882   -2.6017   -2.1042 N   0  0  0  0  0  0  0  0  0  0  0  0
    0.2016   -3.6934   -2.2444 C   0  0  0  0  0  0  0  0  0  0  0  0
   -0.4357   -4.7090   -2.8733 N   0  0  0  0  0  0  0  0  0  0  0  0
    1.4357   -3.8138   -1.8797 N   0  0  0  0  0  0  0  0  0  0  0  0
    2.0089   -2.7346   -1.2867 C   0  0  0  0  0  0  0  0  0  0  0  0
    3.2679   -2.5632   -0.9342 N   0  0  0  0  0  0  0  0  0  0  0  0
    3.3559   -1.2920   -0.4218 C   0  0  0  0  0  0  0  0  0  0  0  0
    4.4768   -0.6004    0.0593 C   0  0  0  0  0  0  0  0  0  0  0  0
    4.3067    0.7022    0.5428 C   0  0  0  0  0  0  0  0  0  0  0  0
    3.0482    1.3147    0.5230 C   0  0  0  0  0  0  0  0  0  0  0  0
    1.9228    0.6466    0.0250 C   0  0  0  0  0  0  0  0  0  0  0  0
    2.1152   -0.6629   -0.4279 C   0  0  0  0  0  0  0  0  0  0  0  0
    1.2824   -1.6134   -0.9547 N   0  0  0  0  0  0  0  0  0  0  0  0
    2.8507    2.6230    0.8831 O   0  0  0  0  0  0  0  0  0  0  0  0
    3.1533    2.8568    2.2587 C   0  0  0  0  0  0  0  0  0  0  0  0
    4.6432    3.0619    2.4838 C   0  0  0  0  0  0  0  0  0  0  0  0
    5.4053    1.7586    2.2986 C   0  0  0  0  0  0  0  0  0  0  0  0
    5.4476    1.3564    0.9290 O   0  0  0  0  0  0  0  0  0  0  0  0
   -2.0816   -0.7048    0.3801 C   0  0  0  0  0  0  0  0  0  0  0  0
   -2.9347    0.2597   -0.5309 C   0  0  0  0  0  0  0  0  0  0  0  0
   -2.7888    0.5395   -1.8784 C   0  0  0  0  0  0  0  0  0  0  0  0
   -3.8012    1.4764   -2.2274 C   0  0  0  0  0  0  0  0  0  0  0  0
   -4.1871    2.1516   -3.3984 C   0  0  0  0  0  0  0  0  0  0  0  0
   -5.2809    3.0283   -3.3376 C   0  0  0  0  0  0  0  0  0  0  0  0
   -5.9789    3.2296   -2.1433 C   0  0  0  0  0  0  0  0  0  0  0  0
   -5.6099    2.5636   -0.9700 C   0  0  0  0  0  0  0  0  0  0  0  0
   -4.5194    1.7026   -1.0636 C   0  0  0  0  0  0  0  0  0  0  0  0
   -4.0066    0.9662   -0.0458 O   0  0  0  0  0  0  0  0  0  0  0  0
   -2.4557   -0.8855    1.6543 N   0  0  0  0  0  0  0  0  0  0  0  0
   -2.7250   -2.4511    3.7330 H   0  0  0  0  0  0  0  0  0  0  0  0
   -1.0422   -3.0572    3.6880 H   0  0  0  0  0  0  0  0  0  0  0  0
   -1.3636   -1.3562    4.1521 H   0  0  0  0  0  0  0  0  0  0  0  0
    0.1059   -2.9004    1.4767 H   0  0  0  0  0  0  0  0  0  0  0  0
   -0.2562   -0.5916   -1.7628 H   0  0  0  0  0  0  0  0  0  0  0  0
   -1.5840   -2.7169   -2.2150 H   0  0  0  0  0  0  0  0  0  0  0  0
   -1.3393   -4.9499   -2.4896 H   0  0  0  0  0  0  0  0  0  0  0  0
    0.1637   -5.5307   -2.9006 H   0  0  0  0  0  0  0  0  0  0  0  0
    5.4537   -1.0699    0.0433 H   0  0  0  0  0  0  0  0  0  0  0  0
    0.9564    1.1379   -0.0054 H   0  0  0  0  0  0  0  0  0  0  0  0
    2.6275    3.7775    2.5368 H   0  0  0  0  0  0  0  0  0  0  0  0
    2.7450    2.0607    2.8959 H   0  0  0  0  0  0  0  0  0  0  0  0
    5.0192    3.8076    1.7726 H   0  0  0  0  0  0  0  0  0  0  0  0
    4.8070    3.4363    3.5005 H   0  0  0  0  0  0  0  0  0  0  0  0
    6.4451    1.9141    2.6071 H   0  0  0  0  0  0  0  0  0  0  0  0
    5.0094    0.9559    2.9362 H   0  0  0  0  0  0  0  0  0  0  0  0
   -2.0625    0.1361   -2.5643 H   0  0  0  0  0  0  0  0  0  0  0  0
   -3.6536    2.0042   -4.3326 H   0  0  0  0  0  0  0  0  0  0  0  0
   -5.5902    3.5597   -4.2351 H   0  0  0  0  0  0  0  0  0  0  0  0
   -6.8240    3.9150   -2.1233 H   0  0  0  0  0  0  0  0  0  0  0  0
   -6.1378    2.7043   -0.0348 H   0  0  0  0  0  0  0  0  0  0  0  0
  1  2  1  0
  2  3  1  0
  3  4  2  0
  4  5  1  0
  5  6  1  0
  6  7  1  0
  7  8  1  0
  7  9  2  0
  9 10  1  0
 10 11  2  0
 11 12  1  0
 12 13  2  0
 13 14  1  0
 14 15  2  0
 15 16  1  0
 16 17  2  0
 17 18  1  0
 15 19  1  0
 19 20  1  0
 20 21  1  0
 21 22  1  0
 22 23  1  0
  4 24  1  0
 24 25  1  0
 25 26  2  0
 26 27  1  0
 27 28  2  0
 28 29  1  0
 29 30  2  0
 30 31  1  0
 31 32  2  0
 32 33  1  0
 24 34  2  0
 34  2  1  0
 18  5  1  0
 33 25  1  0
 18 10  1  0
 32 27  1  0
 17 12  1  0
 23 14  1  0
  1 35  1  0
  1 36  1  0
  1 37  1  0
  3 38  1  0
  5 39  1  0
  6 40  1  0
  8 41  1  0
  8 42  1  0
 13 43  1  0
 16 44  1  0
 20 45  1  0
 20 46  1  0
 21 47  1  0
 21 48  1  0
 22 49  1  0
 22 50  1  0
 26 51  1  0
 28 52  1  0
 29 53  1  0
 30 54  1  0
 31 55  1  0
M  END
$$$$
OCNT-2314006
     RDKit          3D

 44 47  0  0  0  0  0  0  0  0999 V2000
   -6.7992   -2.1260   -1.3893 C   0  0  0  0  0  0  0  0  0  0  0  0
   -6.4785   -0.7751   -0.8237 C   0  0  0  0  0  0  0  0  0  0  0  0
   -5.1683   -0.4494   -0.4907 C   0  0  0  0  0  0  0  0  0  0  0  0
   -4.8889    0.8166    0.0362 C   0  0  0  0  0  0  0  0  0  0  0  0
   -3.5174    1.1605    0.3857 C   0  0  0  0  0  0  0  0  0  0  0  0
   -2.4202    0.4441    0.2866 N   0  0  0  0  0  0  0  0  0  0  0  0
   -1.4520    1.3013    0.7689 C   0  0  0  0  0  0  0  0  0  0  0  0
   -0.0460    0.9209    0.8473 C   0  0  0  0  0  0  0  0  0  0  0  0
    0.9190    1.7980    1.3463 C   0  0  0  0  0  0  0  0  0  0  0  0
    2.2671    1.4143    1.4124 C   0  0  0  0  0  0  0  0  0  0  0  0
    2.7127    0.1548    0.9771 C   0  0  0  0  0  0  0  0  0  0  0  0
    4.0602   -0.1927    1.0708 N   0  0  0  0  0  0  0  0  0  0  0  0
    5.0625    0.7836    0.6082 C   0  0  0  0  0  0  0  0  0  0  0  0
    5.3989    0.5296   -0.8628 C   0  0  0  0  0  0  0  0  0  0  0  0
    5.8605   -0.9106   -1.0825 C   0  0  0  0  0  0  0  0  0  0  0  0
    4.8441   -1.9069   -0.5257 C   0  0  0  0  0  0  0  0  0  0  0  0
    4.4969   -1.5892    0.9300 C   0  0  0  0  0  0  0  0  0  0  0  0
    1.7232   -0.7184    0.5028 C   0  0  0  0  0  0  0  0  0  0  0  0
    0.3715   -0.3450    0.4298 C   0  0  0  0  0  0  0  0  0  0  0  0
   -1.9292    2.4988    1.1490 N   0  0  0  0  0  0  0  0  0  0  0  0
   -3.2953    2.4065    0.8965 O   0  0  0  0  0  0  0  0  0  0  0  0
   -5.9467    1.7118    0.2087 C   0  0  0  0  0  0  0  0  0  0  0  0
   -7.2202    1.3059   -0.1490 C   0  0  0  0  0  0  0  0  0  0  0  0
   -7.5047    0.0895   -0.6580 N   0  0  0  0  0  0  0  0  0  0  0  0
   -6.2572   -2.2814   -2.3273 H   0  0  0  0  0  0  0  0  0  0  0  0
   -7.8705   -2.2180   -1.5953 H   0  0  0  0  0  0  0  0  0  0  0  0
   -6.5203   -2.9096   -0.6780 H   0  0  0  0  0  0  0  0  0  0  0  0
   -4.3718   -1.1741   -0.6396 H   0  0  0  0  0  0  0  0  0  0  0  0
    0.6401    2.7876    1.7024 H   0  0  0  0  0  0  0  0  0  0  0  0
    2.9670    2.1194    1.8535 H   0  0  0  0  0  0  0  0  0  0  0  0
    5.9692    0.6662    1.2154 H   0  0  0  0  0  0  0  0  0  0  0  0
    4.7516    1.8250    0.7337 H   0  0  0  0  0  0  0  0  0  0  0  0
    6.1843    1.2212   -1.1874 H   0  0  0  0  0  0  0  0  0  0  0  0
    4.5167    0.7271   -1.4843 H   0  0  0  0  0  0  0  0  0  0  0  0
    6.0147   -1.0940   -2.1516 H   0  0  0  0  0  0  0  0  0  0  0  0
    6.8278   -1.0624   -0.5878 H   0  0  0  0  0  0  0  0  0  0  0  0
    3.9416   -1.8786   -1.1468 H   0  0  0  0  0  0  0  0  0  0  0  0
    5.2478   -2.9232   -0.5954 H   0  0  0  0  0  0  0  0  0  0  0  0
    3.7601   -2.2972    1.3259 H   0  0  0  0  0  0  0  0  0  0  0  0
    5.3937   -1.7306    1.5474 H   0  0  0  0  0  0  0  0  0  0  0  0
    1.9754   -1.7153    0.1560 H   0  0  0  0  0  0  0  0  0  0  0  0
   -0.3492   -1.0619    0.0414 H   0  0  0  0  0  0  0  0  0  0  0  0
   -5.7976    2.7080    0.6123 H   0  0  0  0  0  0  0  0  0  0  0  0
   -8.0732    1.9687   -0.0323 H   0  0  0  0  0  0  0  0  0  0  0  0
  1  2  1  0
  2  3  2  0
  3  4  1  0
  4  5  1  0
  5  6  2  0
  6  7  1  0
  7  8  1  0
  8  9  1  0
  9 10  2  0
 10 11  1  0
 11 12  1  0
 12 13  1  0
 13 14  1  0
 14 15  1  0
 15 16  1  0
 16 17  1  0
 11 18  2  0
 18 19  1  0
  7 20  2  0
 20 21  1  0
  4 22  2  0
 22 23  1  0
 23 24  2  0
 24  2  1  0
 21  5  1  0
 19  8  2  0
 17 12  1  0
  1 25  1  0
  1 26  1  0
  1 27  1  0
  3 28  1  0
  9 29  1  0
 10 30  1  0
 13 31  1  0
 13 32  1  0
 14 33  1  0
 14 34  1  0
 15 35  1  0
 15 36  1  0
 16 37  1  0
 16 38  1  0
 17 39  1  0
 17 40  1  0
 18 41  1  0
 19 42  1  0
 22 43  1  0
 23 44  1  0
M  END
$$$$
OCNT-2314023
     RDKit          3D

 45 48  0  0  0  0  0  0  0  0999 V2000
    8.1478    0.4079    0.6413 C   0  0  0  0  0  0  0  0  0  0  0  0
    7.1958   -0.6343    0.4701 O   0  0  0  0  0  0  0  0  0  0  0  0
    5.8788   -0.2683    0.4379 C   0  0  0  0  0  0  0  0  0  0  0  0
    5.3813    1.0257    0.5761 C   0  0  0  0  0  0  0  0  0  0  0  0
    4.0016    1.2600    0.5236 C   0  0  0  0  0  0  0  0  0  0  0  0
    3.0953    0.2072    0.3323 C   0  0  0  0  0  0  0  0  0  0  0  0
    1.6151    0.4937    0.2806 C   0  0  0  0  0  0  0  0  0  0  0  0
    0.7862   -0.2306    1.3466 C   0  0  0  0  0  0  0  0  0  0  0  0
   -0.6313   -0.1168    0.8021 C   0  0  0  0  0  0  0  0  0  0  0  0
   -0.4739   -0.1467   -0.6460 N   0  0  0  0  0  0  0  0  0  0  0  0
   -1.4787    0.0136   -1.5911 C   0  0  0  0  0  0  0  0  0  0  0  0
   -1.2147    0.3115   -2.7544 O   0  0  0  0  0  0  0  0  0  0  0  0
   -2.8496   -0.1625   -1.1482 C   0  0  0  0  0  0  0  0  0  0  0  0
   -3.9388    0.6388   -1.4757 C   0  0  0  0  0  0  0  0  0  0  0  0
   -5.0518    0.0483   -0.8308 C   0  0  0  0  0  0  0  0  0  0  0  0
   -4.6436   -1.0729   -0.1865 C   0  0  0  0  0  0  0  0  0  0  0  0
   -5.7525   -1.6747    0.4560 C   0  0  0  0  0  0  0  0  0  0  0  0
   -6.8222   -0.8501    0.1568 C   0  0  0  0  0  0  0  0  0  0  0  0
   -6.3989    0.1930   -0.6292 N   0  0  0  0  0  0  0  0  0  0  0  0
   -7.1868    1.2662   -1.1736 C   0  0  0  0  0  0  0  0  0  0  0  0
   -3.3039   -1.2313   -0.3998 N   0  0  0  0  0  0  0  0  0  0  0  0
    0.9171    0.0801   -1.0219 C   0  0  0  0  0  0  0  0  0  0  0  0
    3.6064   -1.0896    0.1943 C   0  0  0  0  0  0  0  0  0  0  0  0
    4.9837   -1.3214    0.2475 C   0  0  0  0  0  0  0  0  0  0  0  0
    8.1034    1.1236   -0.1863 H   0  0  0  0  0  0  0  0  0  0  0  0
    9.1439   -0.0452    0.6361 H   0  0  0  0  0  0  0  0  0  0  0  0
    8.0151    0.9090    1.6058 H   0  0  0  0  0  0  0  0  0  0  0  0
    6.0364    1.8772    0.7259 H   0  0  0  0  0  0  0  0  0  0  0  0
    3.6428    2.2817    0.6337 H   0  0  0  0  0  0  0  0  0  0  0  0
    1.4503    1.5727    0.4169 H   0  0  0  0  0  0  0  0  0  0  0  0
    1.0652   -1.2882    1.4252 H   0  0  0  0  0  0  0  0  0  0  0  0
    0.8880    0.2155    2.3408 H   0  0  0  0  0  0  0  0  0  0  0  0
   -1.0924    0.8379    1.0783 H   0  0  0  0  0  0  0  0  0  0  0  0
   -1.2584   -0.9361    1.1576 H   0  0  0  0  0  0  0  0  0  0  0  0
   -3.9124    1.5278   -2.0914 H   0  0  0  0  0  0  0  0  0  0  0  0
   -5.7784   -2.5780    1.0491 H   0  0  0  0  0  0  0  0  0  0  0  0
   -7.8633   -0.9331    0.4423 H   0  0  0  0  0  0  0  0  0  0  0  0
   -8.2278    1.1469   -0.8629 H   0  0  0  0  0  0  0  0  0  0  0  0
   -7.1198    1.2303   -2.2639 H   0  0  0  0  0  0  0  0  0  0  0  0
   -6.7944    2.2138   -0.7957 H   0  0  0  0  0  0  0  0  0  0  0  0
   -2.7690   -2.0238   -0.0698 H   0  0  0  0  0  0  0  0  0  0  0  0
    1.2956   -0.8608   -1.4360 H   0  0  0  0  0  0  0  0  0  0  0  0
    1.0070    0.8547   -1.7909 H   0  0  0  0  0  0  0  0  0  0  0  0
    2.9433   -1.9381    0.0422 H   0  0  0  0  0  0  0  0  0  0  0  0
    5.3628   -2.3347    0.1375 H   0  0  0  0  0  0  0  0  0  0  0  0
  1  2  1  0
  2  3  1  0
  3  4  1  0
  4  5  2  0
  5  6  1  0
  6  7  1  0
  7  8  1  0
  8  9  1  0
  9 10  1  0
 10 11  1  0
 11 12  2  0
 11 13  1  0
 13 14  2  0
 14 15  1  0
 15 16  2  0
 16 17  1  0
 17 18  2  0
 18 19  1  0
 19 20  1  0
 16 21  1  0
 10 22  1  0
  6 23  2  0
 23 24  1  0
 24  3  2  0
 22  7  1  0
 21 13  1  0
 19 15  1  0
  1 25  1  0
  1 26  1  0
  1 27  1  0
  4 28  1  0
  5 29  1  0
  7 30  1  0
  8 31  1  0
  8 32  1  0
  9 33  1  0
  9 34  1  0
 14 35  1  0
 17 36  1  0
 18 37  1  0
 20 38  1  0
 20 39  1  0
 20 40  1  0
 21 41  1  0
 22 42  1  0
 22 43  1  0
 23 44  1  0
 24 45  1  0
M  END
$$$$
OCNT-2314024
     RDKit          3D

 42 44  0  0  0  0  0  0  0  0999 V2000
   -5.6532    2.5389    0.6229 C   0  0  0  0  0  0  0  0  0  0  0  0
   -4.6161    2.2979   -0.8412 S   0  0  0  0  0  0  0  0  0  0  0  0
   -3.4127    1.2446   -0.1900 C   0  0  0  0  0  0  0  0  0  0  0  0
   -3.5119   -0.0946   -0.0759 C   0  0  0  0  0  0  0  0  0  0  0  0
   -4.6638   -0.8322   -0.4812 C   0  0  0  0  0  0  0  0  0  0  0  0
   -5.5889   -1.4577   -0.7964 N   0  0  0  0  0  0  0  0  0  0  0  0
   -2.3882   -0.8321    0.4862 C   0  0  0  0  0  0  0  0  0  0  0  0
   -1.2590   -0.2058    0.8651 C   0  0  0  0  0  0  0  0  0  0  0  0
   -0.1770   -1.0262    1.4467 C   0  0  0  0  0  0  0  0  0  0  0  0
   -0.3208   -1.4558    2.5911 O   0  0  0  0  0  0  0  0  0  0  0  0
    0.9106   -1.3404    0.6434 N   0  0  0  0  0  0  0  0  0  0  0  0
    1.0505   -0.9714   -0.7634 C   0  0  0  0  0  0  0  0  0  0  0  0
    1.9769    0.1946   -0.9956 C   0  0  0  0  0  0  0  0  0  0  0  0
    1.6143    1.1309   -1.9867 C   0  0  0  0  0  0  0  0  0  0  0  0
    2.4045    2.2502   -2.2523 C   0  0  0  0  0  0  0  0  0  0  0  0
    3.5750    2.4550   -1.5336 C   0  0  0  0  0  0  0  0  0  0  0  0
    3.9582    1.5311   -0.5638 C   0  0  0  0  0  0  0  0  0  0  0  0
    3.1836    0.3925   -0.3061 C   0  0  0  0  0  0  0  0  0  0  0  0
    3.7118   -0.4125    0.6677 O   0  0  0  0  0  0  0  0  0  0  0  0
    3.3809   -1.7977    0.5940 C   0  0  0  0  0  0  0  0  0  0  0  0
    2.0241   -2.0852    1.2563 C   0  0  0  0  0  0  0  0  0  0  0  0
    1.7364   -3.5884    1.2315 C   0  0  0  0  0  0  0  0  0  0  0  0
   -1.1666    1.2716    0.7508 C   0  0  0  0  0  0  0  0  0  0  0  0
   -0.1871    1.9115    1.1076 O   0  0  0  0  0  0  0  0  0  0  0  0
   -2.2684    1.8884    0.2060 N   0  0  0  0  0  0  0  0  0  0  0  0
   -6.0842    1.5902    0.9539 H   0  0  0  0  0  0  0  0  0  0  0  0
   -6.4694    3.2231    0.3761 H   0  0  0  0  0  0  0  0  0  0  0  0
   -5.0690    2.9744    1.4383 H   0  0  0  0  0  0  0  0  0  0  0  0
   -2.4855   -1.9101    0.6003 H   0  0  0  0  0  0  0  0  0  0  0  0
    0.0625   -0.7451   -1.1759 H   0  0  0  0  0  0  0  0  0  0  0  0
    1.4044   -1.8448   -1.3240 H   0  0  0  0  0  0  0  0  0  0  0  0
    0.6952    1.0034   -2.5553 H   0  0  0  0  0  0  0  0  0  0  0  0
    2.0994    2.9667   -3.0103 H   0  0  0  0  0  0  0  0  0  0  0  0
    4.1892    3.3310   -1.7224 H   0  0  0  0  0  0  0  0  0  0  0  0
    4.8751    1.6936   -0.0020 H   0  0  0  0  0  0  0  0  0  0  0  0
    3.4500   -2.1648   -0.4383 H   0  0  0  0  0  0  0  0  0  0  0  0
    4.1631   -2.3297    1.1489 H   0  0  0  0  0  0  0  0  0  0  0  0
    2.0902   -1.7646    2.3041 H   0  0  0  0  0  0  0  0  0  0  0  0
    0.7989   -3.8217    1.7469 H   0  0  0  0  0  0  0  0  0  0  0  0
    1.6462   -3.9569    0.2037 H   0  0  0  0  0  0  0  0  0  0  0  0
    2.5382   -4.1472    1.7251 H   0  0  0  0  0  0  0  0  0  0  0  0
   -2.2173    2.8952    0.1059 H   0  0  0  0  0  0  0  0  0  0  0  0
  1  2  1  0
  2  3  1  0
  3  4  2  0
  4  5  1  0
  5  6  3  0
  4  7  1  0
  7  8  2  0
  8  9  1  0
  9 10  2  0
  9 11  1  0
 11 12  1  0
 12 13  1  0
 13 14  2  0
 14 15  1  0
 15 16  2  0
 16 17  1  0
 17 18  2  0
 18 19  1  0
 19 20  1  0
 20 21  1  0
 21 22  1  0
  8 23  1  0
 23 24  2  0
 23 25  1  0
 25  3  1  0
 21 11  1  0
 18 13  1  0
  1 26  1  0
  1 27  1  0
  1 28  1  0
  7 29  1  0
 12 30  1  0
 12 31  1  0
 14 32  1  0
 15 33  1  0
 16 34  1  0
 17 35  1  0
 20 36  1  0
 20 37  1  0
 21 38  1  0
 22 39  1  0
 22 40  1  0
 22 41  1  0
 25 42  1  0
M  END
$$$$
OCNT-2314028
     RDKit          3D

 52 56  0  0  0  0  0  0  0  0999 V2000
    0.3806   -0.0162   -3.8969 O   0  0  0  0  0  0  0  0  0  0  0  0
    0.3898   -0.1729   -2.6787 C   0  0  0  0  0  0  0  0  0  0  0  0
    1.7012   -0.3078   -2.0353 C   0  0  0  0  0  0  0  0  0  0  0  0
    2.1453   -1.5226   -1.5272 C   0  0  0  0  0  0  0  0  0  0  0  0
    3.4094   -1.5766   -0.9417 C   0  0  0  0  0  0  0  0  0  0  0  0
    4.2025   -0.4273   -0.8929 C   0  0  0  0  0  0  0  0  0  0  0  0
    5.4525   -0.5216   -0.2601 N   0  0  0  0  0  0  0  0  0  0  0  0
    6.2380    0.7047   -0.2968 C   0  0  0  0  0  0  0  0  0  0  0  0
    7.5580    0.4341    0.3683 C   0  0  0  0  0  0  0  0  0  0  0  0
    8.2593    1.5159    1.1515 C   0  0  0  0  0  0  0  0  0  0  0  0
    7.6551    0.3413    1.8707 C   0  0  0  0  0  0  0  0  0  0  0  0
    3.7716    0.7502   -1.3939 N   0  0  0  0  0  0  0  0  0  0  0  0
    2.5441    0.7861   -1.9704 C   0  0  0  0  0  0  0  0  0  0  0  0
   -0.7603   -0.2277   -1.8934 N   0  0  0  0  0  0  0  0  0  0  0  0
   -2.0263   -0.3467   -2.6085 C   0  0  0  0  0  0  0  0  0  0  0  0
   -3.2102   -0.0218   -1.7510 C   0  0  0  0  0  0  0  0  0  0  0  0
   -3.1540    0.2991   -0.4471 C   0  0  0  0  0  0  0  0  0  0  0  0
   -4.2970    0.6155    0.3514 C   0  0  0  0  0  0  0  0  0  0  0  0
   -4.3991    1.7310    1.1548 C   0  0  0  0  0  0  0  0  0  0  0  0
   -5.6312    1.7116    1.7523 N   0  0  0  0  0  0  0  0  0  0  0  0
   -6.3332    0.5942    1.3610 C   0  0  0  0  0  0  0  0  0  0  0  0
   -7.6164    0.1651    1.7212 C   0  0  0  0  0  0  0  0  0  0  0  0
   -8.0700   -1.0282    1.1619 C   0  0  0  0  0  0  0  0  0  0  0  0
   -9.2926   -1.4723    1.4847 F   0  0  0  0  0  0  0  0  0  0  0  0
   -7.2913   -1.7709    0.2853 C   0  0  0  0  0  0  0  0  0  0  0  0
   -6.0106   -1.3281   -0.0647 C   0  0  0  0  0  0  0  0  0  0  0  0
   -5.5178   -0.1189    0.4764 C   0  0  0  0  0  0  0  0  0  0  0  0
   -1.8342    0.3266    0.2756 C   0  0  0  0  0  0  0  0  0  0  0  0
   -0.7769   -0.5036   -0.4539 C   0  0  0  0  0  0  0  0  0  0  0  0
    1.5254   -2.4117   -1.5836 H   0  0  0  0  0  0  0  0  0  0  0  0
    3.7722   -2.5083   -0.5188 H   0  0  0  0  0  0  0  0  0  0  0  0
    5.9646   -1.3052   -0.6518 H   0  0  0  0  0  0  0  0  0  0  0  0
    5.7111    1.5136    0.2245 H   0  0  0  0  0  0  0  0  0  0  0  0
    6.4286    1.0205   -1.3298 H   0  0  0  0  0  0  0  0  0  0  0  0
    8.1782   -0.2324   -0.2202 H   0  0  0  0  0  0  0  0  0  0  0  0
    7.7744    2.4793    1.2625 H   0  0  0  0  0  0  0  0  0  0  0  0
    9.3404    1.5689    1.0863 H   0  0  0  0  0  0  0  0  0  0  0  0
    8.3239   -0.4013    2.2900 H   0  0  0  0  0  0  0  0  0  0  0  0
    6.7554    0.5071    2.4537 H   0  0  0  0  0  0  0  0  0  0  0  0
    2.2528    1.7488   -2.3809 H   0  0  0  0  0  0  0  0  0  0  0  0
   -2.0170    0.3129   -3.4829 H   0  0  0  0  0  0  0  0  0  0  0  0
   -2.1073   -1.3790   -2.9675 H   0  0  0  0  0  0  0  0  0  0  0  0
   -4.1701   -0.0309   -2.2621 H   0  0  0  0  0  0  0  0  0  0  0  0
   -3.7113    2.5445    1.3440 H   0  0  0  0  0  0  0  0  0  0  0  0
   -5.9801    2.4145    2.3897 H   0  0  0  0  0  0  0  0  0  0  0  0
   -8.2423    0.7248    2.4062 H   0  0  0  0  0  0  0  0  0  0  0  0
   -7.6824   -2.6970   -0.1237 H   0  0  0  0  0  0  0  0  0  0  0  0
   -5.4013   -1.9150   -0.7455 H   0  0  0  0  0  0  0  0  0  0  0  0
   -1.9303   -0.0604    1.2973 H   0  0  0  0  0  0  0  0  0  0  0  0
   -1.4913    1.3669    0.3474 H   0  0  0  0  0  0  0  0  0  0  0  0
   -0.9753   -1.5761   -0.3334 H   0  0  0  0  0  0  0  0  0  0  0  0
    0.1956   -0.2970    0.0004 H   0  0  0  0  0  0  0  0  0  0  0  0
  1  2  2  0
  2  3  1  0
  3  4  2  0
  4  5  1  0
  5  6  2  0
  6  7  1  0
  7  8  1  0
  8  9  1  0
  9 10  1  0
 10 11  1  0
  6 12  1  0
 12 13  2  0
  2 14  1  0
 14 15  1  0
 15 16  1  0
 16 17  2  0
 17 18  1  0
 18 19  2  0
 19 20  1  0
 20 21  1  0
 21 22  2  0
 22 23  1  0
 23 24  1  0
 23 25  2  0
 25 26  1  0
 26 27  2  0
 17 28  1  0
 28 29  1  0
 13  3  1  0
 29 14  1  0
 11  9  1  0
 27 18  1  0
 27 21  1  0
  4 30  1  0
  5 31  1  0
  7 32  1  0
  8 33  1  0
  8 34  1  0
  9 35  1  0
 10 36  1  0
 10 37  1  0
 11 38  1  0
 11 39  1  0
 13 40  1  0
 15 41  1  0
 15 42  1  0
 16 43  1  0
 19 44  1  0
 20 45  1  0
 22 46  1  0
 25 47  1  0
 26 48  1  0
 28 49  1  0
 28 50  1  0
 29 51  1  0
 29 52  1  0
M  END
$$$$
OCNT-2314032
     RDKit          3D

 41 44  0  0  0  0  0  0  0  0999 V2000
   -5.8706   -0.2236    2.1406 O   0  0  0  0  0  0  0  0  0  0  0  0
   -5.2310    0.1013    1.1569 C   0  0  0  0  0  0  0  0  0  0  0  0
   -5.4685    1.2394    0.3989 N   0  0  0  0  0  0  0  0  0  0  0  0
   -4.3203    1.5525   -0.4145 C   0  0  0  0  0  0  0  0  0  0  0  0
   -3.5142    0.2544   -0.4316 C   0  0  0  0  0  0  0  0  0  0  0  0
   -2.0037    0.4421   -0.2009 C   0  0  0  0  0  0  0  0  0  0  0  0
   -1.2513   -0.8125    0.0335 N   0  0  0  0  0  0  0  0  0  0  0  0
   -0.4404   -1.2400   -1.1162 C   0  0  0  0  0  0  0  0  0  0  0  0
    0.7465   -0.3638   -1.3386 C   0  0  0  0  0  0  0  0  0  0  0  0
    1.0430    0.6240   -2.2559 C   0  0  0  0  0  0  0  0  0  0  0  0
    2.3515    1.0738   -1.9520 C   0  0  0  0  0  0  0  0  0  0  0  0
    2.7862    0.3158   -0.8848 C   0  0  0  0  0  0  0  0  0  0  0  0
    4.0050    0.2884   -0.0907 C   0  0  0  0  0  0  0  0  0  0  0  0
    4.3998    1.4777    0.5485 C   0  0  0  0  0  0  0  0  0  0  0  0
    5.5497    1.5219    1.3358 C   0  0  0  0  0  0  0  0  0  0  0  0
    6.3241    0.3761    1.4915 C   0  0  0  0  0  0  0  0  0  0  0  0
    5.9542   -0.8143    0.8567 C   0  0  0  0  0  0  0  0  0  0  0  0
    6.9869   -2.1836    1.0960 Cl  0  0  0  0  0  0  0  0  0  0  0  0
    4.7972   -0.8679    0.0604 C   0  0  0  0  0  0  0  0  0  0  0  0
    4.3810   -2.3398   -0.7691 Cl  0  0  0  0  0  0  0  0  0  0  0  0
    1.8077   -0.5503   -0.5007 O   0  0  0  0  0  0  0  0  0  0  0  0
   -2.1081   -1.9285    0.5061 C   0  0  0  0  0  0  0  0  0  0  0  0
   -3.3009   -1.4757    1.3655 C   0  0  0  0  0  0  0  0  0  0  0  0
   -4.1185   -0.5302    0.6300 N   0  0  0  0  0  0  0  0  0  0  0  0
   -6.1083    1.9239    0.7801 H   0  0  0  0  0  0  0  0  0  0  0  0
   -4.6471    1.8649   -1.4098 H   0  0  0  0  0  0  0  0  0  0  0  0
   -3.7836    2.3767    0.0663 H   0  0  0  0  0  0  0  0  0  0  0  0
   -3.6865   -0.2907   -1.3683 H   0  0  0  0  0  0  0  0  0  0  0  0
   -1.8621    1.0508    0.7023 H   0  0  0  0  0  0  0  0  0  0  0  0
   -1.5833    1.0337   -1.0217 H   0  0  0  0  0  0  0  0  0  0  0  0
   -0.0575   -2.2549   -0.9429 H   0  0  0  0  0  0  0  0  0  0  0  0
   -1.0521   -1.2878   -2.0260 H   0  0  0  0  0  0  0  0  0  0  0  0
    0.3936    0.9765   -3.0445 H   0  0  0  0  0  0  0  0  0  0  0  0
    2.9158    1.8450   -2.4568 H   0  0  0  0  0  0  0  0  0  0  0  0
    3.7955    2.3782    0.4479 H   0  0  0  0  0  0  0  0  0  0  0  0
    5.8367    2.4466    1.8311 H   0  0  0  0  0  0  0  0  0  0  0  0
    7.2191    0.4147    2.1085 H   0  0  0  0  0  0  0  0  0  0  0  0
   -1.4934   -2.6285    1.0834 H   0  0  0  0  0  0  0  0  0  0  0  0
   -2.5089   -2.4789   -0.3565 H   0  0  0  0  0  0  0  0  0  0  0  0
   -3.9291   -2.3231    1.6591 H   0  0  0  0  0  0  0  0  0  0  0  0
   -2.9540   -0.9844    2.2824 H   0  0  0  0  0  0  0  0  0  0  0  0
  1  2  2  0
  2  3  1  0
  3  4  1  0
  4  5  1  0
  5  6  1  0
  6  7  1  0
  7  8  1  0
  8  9  1  0
  9 10  2  0
 10 11  1  0
 11 12  2  0
 12 13  1  0
 13 14  2  0
 14 15  1  0
 15 16  2  0
 16 17  1  0
 17 18  1  0
 17 19  2  0
 19 20  1  0
 12 21  1  0
  7 22  1  0
 22 23  1  0
 23 24  1  0
 24  2  1  0
 24  5  1  0
 21  9  1  0
 19 13  1  0
  3 25  1  0
  4 26  1  0
  4 27  1  0
  5 28  1  0
  6 29  1  0
  6 30  1  0
  8 31  1  0
  8 32  1  0
 10 33  1  0
 11 34  1  0
 14 35  1  0
 15 36  1  0
 16 37  1  0
 22 38  1  0
 22 39  1  0
 23 40  1  0
 23 41  1  0
M  END
$$$$
OCNT-2314045
     RDKit          3D

 42 44  0  0  0  0  0  0  0  0999 V2000
    4.0992    1.1101    2.1124 C   0  0  0  0  0  0  0  0  0  0  0  0
    4.3435    0.6633    0.6718 C   0  0  0  0  0  0  0  0  0  0  0  0
    5.8140    0.3241    0.4328 C   0  0  0  0  0  0  0  0  0  0  0  0
    3.4690   -0.4452    0.3017 N   0  0  0  0  0  0  0  0  0  0  0  0
    3.4499   -1.7011    0.8384 C   0  0  0  0  0  0  0  0  0  0  0  0
    2.4608   -2.3866    0.1761 C   0  0  0  0  0  0  0  0  0  0  0  0
    1.9323   -1.4617   -0.7530 C   0  0  0  0  0  0  0  0  0  0  0  0
    0.8200   -1.6785   -1.7303 C   0  0  0  0  0  0  0  0  0  0  0  0
   -0.1728   -0.6508   -1.5148 N   0  0  0  0  0  0  0  0  0  0  0  0
   -1.3204   -0.8978   -0.7990 C   0  0  0  0  0  0  0  0  0  0  0  0
   -1.7018   -2.0317   -0.5323 O   0  0  0  0  0  0  0  0  0  0  0  0
   -2.0229    0.2963   -0.3670 C   0  0  0  0  0  0  0  0  0  0  0  0
   -1.4191    1.4768    0.0437 C   0  0  0  0  0  0  0  0  0  0  0  0
   -2.4219    2.3115    0.4229 N   0  0  0  0  0  0  0  0  0  0  0  0
   -2.2913    3.6491    0.9475 C   0  0  0  0  0  0  0  0  0  0  0  0
   -3.6395    1.7809    0.2800 N   0  0  0  0  0  0  0  0  0  0  0  0
   -3.4165    0.5486   -0.2079 C   0  0  0  0  0  0  0  0  0  0  0  0
   -4.6563   -0.3637   -0.5487 C   0  0  0  0  0  0  0  0  0  0  0  0
   -4.6770   -1.6172   -1.1308 C   0  0  0  0  0  0  0  0  0  0  0  0
   -6.0357   -2.0108   -1.2345 C   0  0  0  0  0  0  0  0  0  0  0  0
   -6.7701   -0.9737   -0.7185 C   0  0  0  0  0  0  0  0  0  0  0  0
   -5.9523    0.0254   -0.3086 O   0  0  0  0  0  0  0  0  0  0  0  0
    2.5476   -0.2692   -0.6675 N   0  0  0  0  0  0  0  0  0  0  0  0
    4.3649    0.3257    2.8296 H   0  0  0  0  0  0  0  0  0  0  0  0
    3.0443    1.3607    2.2699 H   0  0  0  0  0  0  0  0  0  0  0  0
    4.6957    1.9976    2.3484 H   0  0  0  0  0  0  0  0  0  0  0  0
    4.0790    1.4985    0.0099 H   0  0  0  0  0  0  0  0  0  0  0  0
    5.9788    0.0106   -0.6040 H   0  0  0  0  0  0  0  0  0  0  0  0
    6.1530   -0.4891    1.0838 H   0  0  0  0  0  0  0  0  0  0  0  0
    6.4479    1.1958    0.6265 H   0  0  0  0  0  0  0  0  0  0  0  0
    4.1220   -1.9968    1.6316 H   0  0  0  0  0  0  0  0  0  0  0  0
    2.1540   -3.4100    0.3416 H   0  0  0  0  0  0  0  0  0  0  0  0
    0.3850   -2.6769   -1.6243 H   0  0  0  0  0  0  0  0  0  0  0  0
    1.1959   -1.5655   -2.7523 H   0  0  0  0  0  0  0  0  0  0  0  0
    0.1832    0.2941   -1.5562 H   0  0  0  0  0  0  0  0  0  0  0  0
   -0.3792    1.7617    0.1283 H   0  0  0  0  0  0  0  0  0  0  0  0
   -2.7250    3.6702    1.9504 H   0  0  0  0  0  0  0  0  0  0  0  0
   -2.8239    4.3338    0.2828 H   0  0  0  0  0  0  0  0  0  0  0  0
   -1.2337    3.9205    0.9926 H   0  0  0  0  0  0  0  0  0  0  0  0
   -3.8280   -2.1975   -1.4556 H   0  0  0  0  0  0  0  0  0  0  0  0
   -6.4252   -2.9344   -1.6378 H   0  0  0  0  0  0  0  0  0  0  0  0
   -7.8273   -0.7971   -0.5796 H   0  0  0  0  0  0  0  0  0  0  0  0
  1  2  1  0
  2  3  1  0
  2  4  1  0
  4  5  1  0
  5  6  2  0
  6  7  1  0
  7  8  1  0
  8  9  1  0
  9 10  1  0
 10 11  2  0
 10 12  1  0
 12 13  2  0
 13 14  1  0
 14 15  1  0
 14 16  1  0
 16 17  2  0
 17 18  1  0
 18 19  2  0
 19 20  1  0
 20 21  2  0
 21 22  1  0
  7 23  2  0
 23  4  1  0
 17 12  1  0
 22 18  1  0
  1 24  1  0
  1 25  1  0
  1 26  1  0
  2 27  1  0
  3 28  1  0
  3 29  1  0
  3 30  1  0
  5 31  1  0
  6 32  1  0
  8 33  1  0
  8 34  1  0
  9 35  1  0
 13 36  1  0
 15 37  1  0
 15 38  1  0
 15 39  1  0
 19 40  1  0
 20 41  1  0
 21 42  1  0
M  END
$$$$
OCNT-2314050
     RDKit          3D

 43 46  0  0  0  0  0  0  0  0999 V2000
    5.8419   -1.2028    0.2355 C   0  0  0  0  0  0  0  0  0  0  0  0
    4.9349   -1.1821   -0.8596 O   0  0  0  0  0  0  0  0  0  0  0  0
    3.6743   -0.7156   -0.6104 C   0  0  0  0  0  0  0  0  0  0  0  0
    2.8352   -0.6776   -1.7266 C   0  0  0  0  0  0  0  0  0  0  0  0
    1.5180   -0.2252   -1.6137 C   0  0  0  0  0  0  0  0  0  0  0  0
    1.0161    0.1758   -0.3724 C   0  0  0  0  0  0  0  0  0  0  0  0
   -0.3513    0.6608   -0.2540 C   0  0  0  0  0  0  0  0  0  0  0  0
   -0.7213    1.9101   -0.4577 N   0  0  0  0  0  0  0  0  0  0  0  0
   -2.0814    1.9152   -0.2326 C   0  0  0  0  0  0  0  0  0  0  0  0
   -2.8829    3.1343   -0.3556 C   0  0  0  0  0  0  0  0  0  0  0  0
   -2.2808    4.3366   -0.7141 C   0  0  0  0  0  0  0  0  0  0  0  0
   -2.9679    5.5035   -0.8451 N   0  0  0  0  0  0  0  0  0  0  0  0
   -4.2939    5.4165   -0.6010 C   0  0  0  0  0  0  0  0  0  0  0  0
   -4.9055    4.2267   -0.2437 C   0  0  0  0  0  0  0  0  0  0  0  0
   -4.2226    3.0669   -0.1129 N   0  0  0  0  0  0  0  0  0  0  0  0
   -2.5637    0.7092    0.1035 N   0  0  0  0  0  0  0  0  0  0  0  0
   -1.4656   -0.0732    0.0786 N   0  0  0  0  0  0  0  0  0  0  0  0
   -1.6256   -1.4766    0.4022 C   0  0  0  0  0  0  0  0  0  0  0  0
   -1.0178   -1.8869    1.7504 C   0  0  0  0  0  0  0  0  0  0  0  0
   -0.5552   -3.3212    1.5402 C   0  0  0  0  0  0  0  0  0  0  0  0
   -0.0662   -3.3278    0.1017 C   0  0  0  0  0  0  0  0  0  0  0  0
   -1.0908   -2.4751   -0.6381 C   0  0  0  0  0  0  0  0  0  0  0  0
    1.8662    0.1665    0.7387 C   0  0  0  0  0  0  0  0  0  0  0  0
    3.1864   -0.2855    0.6235 C   0  0  0  0  0  0  0  0  0  0  0  0
    6.0151   -0.1938    0.6242 H   0  0  0  0  0  0  0  0  0  0  0  0
    6.7988   -1.5874   -0.1303 H   0  0  0  0  0  0  0  0  0  0  0  0
    5.4919   -1.8765    1.0246 H   0  0  0  0  0  0  0  0  0  0  0  0
    3.2142   -0.9944   -2.6956 H   0  0  0  0  0  0  0  0  0  0  0  0
    0.8908   -0.1840   -2.5015 H   0  0  0  0  0  0  0  0  0  0  0  0
   -1.2150    4.4024   -0.9099 H   0  0  0  0  0  0  0  0  0  0  0  0
   -4.8583    6.3365   -0.7009 H   0  0  0  0  0  0  0  0  0  0  0  0
   -5.9709    4.1729   -0.0511 H   0  0  0  0  0  0  0  0  0  0  0  0
   -2.7109   -1.6449    0.4651 H   0  0  0  0  0  0  0  0  0  0  0  0
   -1.7488   -1.8149    2.5628 H   0  0  0  0  0  0  0  0  0  0  0  0
   -0.1682   -1.2585    2.0304 H   0  0  0  0  0  0  0  0  0  0  0  0
   -1.3989   -4.0116    1.6570 H   0  0  0  0  0  0  0  0  0  0  0  0
    0.2264   -3.6130    2.2474 H   0  0  0  0  0  0  0  0  0  0  0  0
    0.9276   -2.8723    0.0399 H   0  0  0  0  0  0  0  0  0  0  0  0
    0.0016   -4.3395   -0.3086 H   0  0  0  0  0  0  0  0  0  0  0  0
   -0.6766   -2.0166   -1.5389 H   0  0  0  0  0  0  0  0  0  0  0  0
   -1.9157   -3.1198   -0.9684 H   0  0  0  0  0  0  0  0  0  0  0  0
    1.5098    0.5224    1.7034 H   0  0  0  0  0  0  0  0  0  0  0  0
    3.8065   -0.2795    1.5138 H   0  0  0  0  0  0  0  0  0  0  0  0
  1  2  1  0
  2  3  1  0
  3  4  1  0
  4  5  2  0
  5  6  1  0
  6  7  1  0
  7  8  2  0
  8  9  1  0
  9 10  1  0
 10 11  2  0
 11 12  1  0
 12 13  2  0
 13 14  1  0
 14 15  2  0
  9 16  2  0
 16 17  1  0
 17 18  1  0
 18 19  1  0
 19 20  1  0
 20 21  1  0
 21 22  1  0
  6 23  2  0
 23 24  1  0
 24  3  2  0
 17  7  1  0
 22 18  1  0
 15 10  1  0
  1 25  1  0
  1 26  1  0
  1 27  1  0
  4 28  1  0
  5 29  1  0
 11 30  1  0
 13 31  1  0
 14 32  1  0
 18 33  1  0
 19 34  1  0
 19 35  1  0
 20 36  1  0
 20 37  1  0
 21 38  1  0
 21 39  1  0
 22 40  1  0
 22 41  1  0
 23 42  1  0
 24 43  1  0
M  END
$$$$
OCNT-2314061
     RDKit          3D

 40 42  0  0  0  0  0  0  0  0999 V2000
    6.0390    0.1749   -1.9025 C   0  0  0  0  0  0  0  0  0  0  0  0
    4.9039    0.5335   -0.9886 C   0  0  0  0  0  0  0  0  0  0  0  0
    4.8622    0.0281    0.3181 C   0  0  0  0  0  0  0  0  0  0  0  0
    3.8272    0.3868    1.1831 C   0  0  0  0  0  0  0  0  0  0  0  0
    2.8269    1.2537    0.7388 C   0  0  0  0  0  0  0  0  0  0  0  0
    1.5269    1.7388    1.8443 S   0  0  0  0  0  0  0  0  0  0  0  0
    1.0404    3.0308    1.4035 O   0  0  0  0  0  0  0  0  0  0  0  0
    1.9666    1.5428    3.2075 O   0  0  0  0  0  0  0  0  0  0  0  0
    0.3240    0.6655    1.4952 N   0  0  0  0  0  0  0  0  0  0  0  0
    0.3475   -0.7167    1.7198 C   0  0  0  0  0  0  0  0  0  0  0  0
    1.2961   -1.3322    2.1776 O   0  0  0  0  0  0  0  0  0  0  0  0
   -0.9284   -1.3853    1.3148 C   0  0  0  0  0  0  0  0  0  0  0  0
   -1.0774   -2.7535    1.4808 C   0  0  0  0  0  0  0  0  0  0  0  0
   -2.2795   -3.3251    1.0871 C   0  0  0  0  0  0  0  0  0  0  0  0
   -3.2771   -2.5160    0.5424 C   0  0  0  0  0  0  0  0  0  0  0  0
   -3.0546   -1.1446    0.3997 C   0  0  0  0  0  0  0  0  0  0  0  0
   -4.0574   -0.2244   -0.1690 C   0  0  0  0  0  0  0  0  0  0  0  0
   -4.1747    1.0904    0.3051 C   0  0  0  0  0  0  0  0  0  0  0  0
   -5.1260    1.9326   -0.2490 C   0  0  0  0  0  0  0  0  0  0  0  0
   -5.9640    1.5655   -1.2386 N   0  0  0  0  0  0  0  0  0  0  0  0
   -5.8403    0.3048   -1.6971 C   0  0  0  0  0  0  0  0  0  0  0  0
   -4.9206   -0.6095   -1.2044 C   0  0  0  0  0  0  0  0  0  0  0  0
   -1.8881   -0.5700    0.7869 N   0  0  0  0  0  0  0  0  0  0  0  0
    2.8707    1.7877   -0.5518 C   0  0  0  0  0  0  0  0  0  0  0  0
    3.9096    1.4264   -1.4115 C   0  0  0  0  0  0  0  0  0  0  0  0
    6.8600    0.8873   -1.7764 H   0  0  0  0  0  0  0  0  0  0  0  0
    5.7165    0.1873   -2.9490 H   0  0  0  0  0  0  0  0  0  0  0  0
    6.4086   -0.8336   -1.6889 H   0  0  0  0  0  0  0  0  0  0  0  0
    5.6381   -0.6479    0.6718 H   0  0  0  0  0  0  0  0  0  0  0  0
    3.8030   -0.0166    2.1939 H   0  0  0  0  0  0  0  0  0  0  0  0
   -0.5071    1.0637    1.0590 H   0  0  0  0  0  0  0  0  0  0  0  0
   -0.2830   -3.3577    1.9082 H   0  0  0  0  0  0  0  0  0  0  0  0
   -2.4444   -4.3932    1.2063 H   0  0  0  0  0  0  0  0  0  0  0  0
   -4.2234   -2.9635    0.2524 H   0  0  0  0  0  0  0  0  0  0  0  0
   -3.5380    1.4585    1.1041 H   0  0  0  0  0  0  0  0  0  0  0  0
   -5.2402    2.9546    0.1017 H   0  0  0  0  0  0  0  0  0  0  0  0
   -6.5194    0.0373   -2.5020 H   0  0  0  0  0  0  0  0  0  0  0  0
   -4.8775   -1.5994   -1.6462 H   0  0  0  0  0  0  0  0  0  0  0  0
    2.1107    2.4876   -0.8915 H   0  0  0  0  0  0  0  0  0  0  0  0
    3.9433    1.8503   -2.4132 H   0  0  0  0  0  0  0  0  0  0  0  0
  1  2  1  0
  2  3  1  0
  3  4  2  0
  4  5  1  0
  5  6  1  0
  6  7  2  0
  6  8  2  0
  6  9  1  0
  9 10  1  0
 10 11  2  0
 10 12  1  0
 12 13  1  0
 13 14  2  0
 14 15  1  0
 15 16  2  0
 16 17  1  0
 17 18  2  0
 18 19  1  0
 19 20  2  0
 20 21  1  0
 21 22  2  0
 16 23  1  0
  5 24  2  0
 24 25  1  0
 25  2  2  0
 23 12  2  0
 22 17  1  0
  1 26  1  0
  1 27  1  0
  1 28  1  0
  3 29  1  0
  4 30  1  0
  9 31  1  0
 13 32  1  0
 14 33  1  0
 15 34  1  0
 18 35  1  0
 19 36  1  0
 21 37  1  0
 22 38  1  0
 24 39  1  0
 25 40  1  0
M  END
$$$$
OCNT-2314062
     RDKit          3D

 41 44  0  0  0  0  0  0  0  0999 V2000
   -6.9922    2.7653   -1.7321 C   0  0  0  0  0  0  0  0  0  0  0  0
   -6.4933    1.7720   -1.2764 C   0  0  0  0  0  0  0  0  0  0  0  0
   -5.8831    0.5604   -0.7158 C   0  0  0  0  0  0  0  0  0  0  0  0
   -5.5532    0.7993    0.6778 N   0  0  0  0  0  0  0  0  0  0  0  0
   -5.1215   -0.4849    1.6488 S   0  0  0  0  0  0  0  0  0  0  0  0
   -4.7256    0.0680    2.9240 O   0  0  0  0  0  0  0  0  0  0  0  0
   -6.1445   -1.4996    1.5359 O   0  0  0  0  0  0  0  0  0  0  0  0
   -3.6517   -1.0942    0.8566 C   0  0  0  0  0  0  0  0  0  0  0  0
   -3.7003   -2.2727    0.1089 C   0  0  0  0  0  0  0  0  0  0  0  0
   -2.5388   -2.7417   -0.4990 C   0  0  0  0  0  0  0  0  0  0  0  0
   -1.3393   -2.0383   -0.3506 C   0  0  0  0  0  0  0  0  0  0  0  0
   -1.2763   -0.8592    0.4119 C   0  0  0  0  0  0  0  0  0  0  0  0
   -0.0030   -0.1602    0.5448 C   0  0  0  0  0  0  0  0  0  0  0  0
    1.1741   -0.4556    0.0415 N   0  0  0  0  0  0  0  0  0  0  0  0
    1.9712    0.5714    0.5049 C   0  0  0  0  0  0  0  0  0  0  0  0
    3.3946    0.6561    0.1895 C   0  0  0  0  0  0  0  0  0  0  0  0
    4.1790    1.7109    0.6785 C   0  0  0  0  0  0  0  0  0  0  0  0
    5.5457    1.8095    0.3867 C   0  0  0  0  0  0  0  0  0  0  0  0
    6.1077    0.8123   -0.4158 C   0  0  0  0  0  0  0  0  0  0  0  0
    7.4017    0.6512   -0.8585 N   0  0  0  0  0  0  0  0  0  0  0  0
    7.5013   -0.4781   -1.6273 C   0  0  0  0  0  0  0  0  0  0  0  0
    6.2553   -1.0594   -1.6847 C   0  0  0  0  0  0  0  0  0  0  0  0
    5.3654   -0.2532   -0.9227 C   0  0  0  0  0  0  0  0  0  0  0  0
    3.9921   -0.3313   -0.6155 C   0  0  0  0  0  0  0  0  0  0  0  0
    1.3127    1.4692    1.2578 N   0  0  0  0  0  0  0  0  0  0  0  0
    0.0077    0.9853    1.2864 O   0  0  0  0  0  0  0  0  0  0  0  0
   -2.4497   -0.3934    1.0219 C   0  0  0  0  0  0  0  0  0  0  0  0
   -7.4409    3.6456   -2.1321 H   0  0  0  0  0  0  0  0  0  0  0  0
   -6.5759   -0.2809   -0.8136 H   0  0  0  0  0  0  0  0  0  0  0  0
   -4.9728    0.3299   -1.2782 H   0  0  0  0  0  0  0  0  0  0  0  0
   -5.1716    1.7031    0.9457 H   0  0  0  0  0  0  0  0  0  0  0  0
   -4.6286   -2.8302    0.0004 H   0  0  0  0  0  0  0  0  0  0  0  0
   -2.5606   -3.6589   -1.0839 H   0  0  0  0  0  0  0  0  0  0  0  0
   -0.4399   -2.4232   -0.8319 H   0  0  0  0  0  0  0  0  0  0  0  0
    3.7303    2.4820    1.3036 H   0  0  0  0  0  0  0  0  0  0  0  0
    6.1384    2.6320    0.7738 H   0  0  0  0  0  0  0  0  0  0  0  0
    8.1636    1.2793   -0.6431 H   0  0  0  0  0  0  0  0  0  0  0  0
    8.4465   -0.7697   -2.0650 H   0  0  0  0  0  0  0  0  0  0  0  0
    6.0072   -1.9683   -2.2171 H   0  0  0  0  0  0  0  0  0  0  0  0
    3.4046   -1.1585   -1.0052 H   0  0  0  0  0  0  0  0  0  0  0  0
   -2.4363    0.5085    1.6322 H   0  0  0  0  0  0  0  0  0  0  0  0
  1  2  3  0
  2  3  1  0
  3  4  1  0
  4  5  1  0
  5  6  2  0
  5  7  2  0
  5  8  1  0
  8  9  2  0
  9 10  1  0
 10 11  2  0
 11 12  1  0
 12 13  1  0
 13 14  2  0
 14 15  1  0
 15 16  1  0
 16 17  2  0
 17 18  1  0
 18 19  2  0
 19 20  1  0
 20 21  1  0
 21 22  2  0
 22 23  1  0
 23 24  2  0
 15 25  2  0
 25 26  1  0
 12 27  2  0
 27  8  1  0
 26 13  1  0
 24 16  1  0
 23 19  1  0
  1 28  1  0
  3 29  1  0
  3 30  1  0
  4 31  1  0
  9 32  1  0
 10 33  1  0
 11 34  1  0
 17 35  1  0
 18 36  1  0
 20 37  1  0
 21 38  1  0
 22 39  1  0
 24 40  1  0
 27 41  1  0
M  END
$$$$
OCNT-2314068
     RDKit          3D

 43 46  0  0  0  0  0  0  0  0999 V2000
    3.4887   -3.2539   -0.3562 C   0  0  0  0  0  0  0  0  0  0  0  0
    3.7534   -1.9492   -1.0934 C   0  0  0  0  0  0  0  0  0  0  0  0
    2.6970   -0.9701   -0.8760 N   0  0  0  0  0  0  0  0  0  0  0  0
    1.6441   -0.9340   -1.7819 C   0  0  0  0  0  0  0  0  0  0  0  0
    1.5245   -1.6439   -2.7785 O   0  0  0  0  0  0  0  0  0  0  0  0
    0.5289    0.0981   -1.5287 C   0  0  0  0  0  0  0  0  0  0  0  0
   -0.5114    0.1127   -2.4450 N   0  0  0  0  0  0  0  0  0  0  0  0
   -1.2651    1.3229   -2.7360 C   0  0  0  0  0  0  0  0  0  0  0  0
   -2.0528    1.9773   -1.6518 C   0  0  0  0  0  0  0  0  0  0  0  0
   -2.2199    3.2825   -1.5159 N   0  0  0  0  0  0  0  0  0  0  0  0
   -3.0168    3.5091   -0.4205 N   0  0  0  0  0  0  0  0  0  0  0  0
   -3.3339    2.3408    0.0899 C   0  0  0  0  0  0  0  0  0  0  0  0
   -4.1308    1.9692    1.2054 C   0  0  0  0  0  0  0  0  0  0  0  0
   -4.3209    0.6650    1.4837 C   0  0  0  0  0  0  0  0  0  0  0  0
   -3.7253   -0.3894    0.6646 C   0  0  0  0  0  0  0  0  0  0  0  0
   -3.9912   -1.8109    1.0487 C   0  0  0  0  0  0  0  0  0  0  0  0
   -2.9641   -0.0289   -0.3875 C   0  0  0  0  0  0  0  0  0  0  0  0
   -2.7627    1.3246   -0.6652 N   0  0  0  0  0  0  0  0  0  0  0  0
    0.5638    0.8998   -0.5102 N   0  0  0  0  0  0  0  0  0  0  0  0
    1.6311    0.8148    0.3921 C   0  0  0  0  0  0  0  0  0  0  0  0
    1.6068    1.6906    1.4837 C   0  0  0  0  0  0  0  0  0  0  0  0
    2.6186    1.6687    2.4404 C   0  0  0  0  0  0  0  0  0  0  0  0
    3.6655    0.7633    2.3112 C   0  0  0  0  0  0  0  0  0  0  0  0
    3.7033   -0.1159    1.2244 C   0  0  0  0  0  0  0  0  0  0  0  0
    2.6921   -0.0990    0.2512 C   0  0  0  0  0  0  0  0  0  0  0  0
    3.4360   -3.0998    0.7259 H   0  0  0  0  0  0  0  0  0  0  0  0
    2.5402   -3.6986   -0.6752 H   0  0  0  0  0  0  0  0  0  0  0  0
    4.2881   -3.9730   -0.5594 H   0  0  0  0  0  0  0  0  0  0  0  0
    4.7268   -1.5281   -0.8230 H   0  0  0  0  0  0  0  0  0  0  0  0
    3.8199   -2.1685   -2.1662 H   0  0  0  0  0  0  0  0  0  0  0  0
   -0.2842   -0.4344   -3.2760 H   0  0  0  0  0  0  0  0  0  0  0  0
   -1.9692    1.0824   -3.5423 H   0  0  0  0  0  0  0  0  0  0  0  0
   -0.5725    2.0622   -3.1580 H   0  0  0  0  0  0  0  0  0  0  0  0
   -4.5721    2.7518    1.8115 H   0  0  0  0  0  0  0  0  0  0  0  0
   -4.9285    0.3737    2.3362 H   0  0  0  0  0  0  0  0  0  0  0  0
   -3.4943   -2.5135    0.3711 H   0  0  0  0  0  0  0  0  0  0  0  0
   -5.0652   -2.0231    1.0187 H   0  0  0  0  0  0  0  0  0  0  0  0
   -3.6254   -2.0109    2.0614 H   0  0  0  0  0  0  0  0  0  0  0  0
   -2.4863   -0.7497   -1.0369 H   0  0  0  0  0  0  0  0  0  0  0  0
    0.7836    2.3957    1.5800 H   0  0  0  0  0  0  0  0  0  0  0  0
    2.5854    2.3559    3.2817 H   0  0  0  0  0  0  0  0  0  0  0  0
    4.4567    0.7397    3.0568 H   0  0  0  0  0  0  0  0  0  0  0  0
    4.5384   -0.8060    1.1727 H   0  0  0  0  0  0  0  0  0  0  0  0
  1  2  1  0
  2  3  1  0
  3  4  1  0
  4  5  2  0
  4  6  1  0
  6  7  1  0
  7  8  1  0
  8  9  1  0
  9 10  2  0
 10 11  1  0
 11 12  2  0
 12 13  1  0
 13 14  2  0
 14 15  1  0
 15 16  1  0
 15 17  2  0
 17 18  1  0
  6 19  2  0
 19 20  1  0
 20 21  2  0
 21 22  1  0
 22 23  2  0
 23 24  1  0
 24 25  2  0
 25  3  1  0
 18  9  1  0
 25 20  1  0
 18 12  1  0
  1 26  1  0
  1 27  1  0
  1 28  1  0
  2 29  1  0
  2 30  1  0
  7 31  1  0
  8 32  1  0
  8 33  1  0
 13 34  1  0
 14 35  1  0
 16 36  1  0
 16 37  1  0
 16 38  1  0
 17 39  1  0
 21 40  1  0
 22 41  1  0
 23 42  1  0
 24 43  1  0
M  END
$$$$
OCNT-2314070
     RDKit          3D

 41 44  0  0  0  0  0  0  0  0999 V2000
   -7.2374    1.7369   -0.3889 C   0  0  0  0  0  0  0  0  0  0  0  0
   -5.8592    1.3700   -0.1720 N   0  0  0  0  0  0  0  0  0  0  0  0
   -4.7572    2.1132   -0.4669 C   0  0  0  0  0  0  0  0  0  0  0  0
   -3.6769    1.3559   -0.0755 C   0  0  0  0  0  0  0  0  0  0  0  0
   -4.2302    0.1707    0.4453 C   0  0  0  0  0  0  0  0  0  0  0  0
   -3.5172   -1.0710    1.0323 C   0  0  0  0  0  0  0  0  0  0  0  0
   -2.1862   -1.3809    1.2329 C   0  0  0  0  0  0  0  0  0  0  0  0
   -1.0087   -0.5669    0.9873 C   0  0  0  0  0  0  0  0  0  0  0  0
   -0.9883    0.6265    1.2577 O   0  0  0  0  0  0  0  0  0  0  0  0
    0.0323   -1.2898    0.4301 N   0  0  0  0  0  0  0  0  0  0  0  0
    1.3237   -0.8280    0.1035 C   0  0  0  0  0  0  0  0  0  0  0  0
    1.7893    0.4574    0.3783 C   0  0  0  0  0  0  0  0  0  0  0  0
    3.0912    0.8360    0.0217 C   0  0  0  0  0  0  0  0  0  0  0  0
    3.9546   -0.0649   -0.6122 C   0  0  0  0  0  0  0  0  0  0  0  0
    5.3137    0.3280   -0.9929 C   0  0  0  0  0  0  0  0  0  0  0  0
    6.4253   -0.3740   -0.7303 C   0  0  0  0  0  0  0  0  0  0  0  0
    7.5224    0.4552   -1.2643 C   0  0  0  0  0  0  0  0  0  0  0  0
    8.6853    0.1082   -1.3510 O   0  0  0  0  0  0  0  0  0  0  0  0
    6.9655    1.6598   -1.6667 N   0  0  0  0  0  0  0  0  0  0  0  0
    5.5731    1.5189   -1.6556 N   0  0  0  0  0  0  0  0  0  0  0  0
    3.4852   -1.3556   -0.8829 C   0  0  0  0  0  0  0  0  0  0  0  0
    2.1845   -1.7329   -0.5278 C   0  0  0  0  0  0  0  0  0  0  0  0
   -2.2309   -2.6933    1.7741 C   0  0  0  0  0  0  0  0  0  0  0  0
   -3.4689   -3.1774    1.8840 N   0  0  0  0  0  0  0  0  0  0  0  0
   -4.2317   -2.1577    1.4515 N   0  0  0  0  0  0  0  0  0  0  0  0
   -5.5687    0.1744    0.3731 N   0  0  0  0  0  0  0  0  0  0  0  0
   -7.2831    2.7332   -0.8353 H   0  0  0  0  0  0  0  0  0  0  0  0
   -7.6867    1.0043   -1.0639 H   0  0  0  0  0  0  0  0  0  0  0  0
   -7.7499    1.7363    0.5763 H   0  0  0  0  0  0  0  0  0  0  0  0
   -4.8237    3.0947   -0.9145 H   0  0  0  0  0  0  0  0  0  0  0  0
   -2.6393    1.6408   -0.1612 H   0  0  0  0  0  0  0  0  0  0  0  0
   -0.1711   -2.2467    0.1715 H   0  0  0  0  0  0  0  0  0  0  0  0
    1.1705    1.1964    0.8780 H   0  0  0  0  0  0  0  0  0  0  0  0
    3.4192    1.8429    0.2678 H   0  0  0  0  0  0  0  0  0  0  0  0
    6.5589   -1.3189   -0.2405 H   0  0  0  0  0  0  0  0  0  0  0  0
    7.4179    2.1730   -2.4155 H   0  0  0  0  0  0  0  0  0  0  0  0
    5.0683    2.3132   -1.2609 H   0  0  0  0  0  0  0  0  0  0  0  0
    4.1225   -2.0797   -1.3867 H   0  0  0  0  0  0  0  0  0  0  0  0
    1.8594   -2.7439   -0.7607 H   0  0  0  0  0  0  0  0  0  0  0  0
   -1.4050   -3.3129    2.1012 H   0  0  0  0  0  0  0  0  0  0  0  0
   -5.2427   -2.2515    1.4411 H   0  0  0  0  0  0  0  0  0  0  0  0
  1  2  1  0
  2  3  1  0
  3  4  2  0
  4  5  1  0
  5  6  1  0
  6  7  2  0
  7  8  1  0
  8  9  2  0
  8 10  1  0
 10 11  1  0
 11 12  1  0
 12 13  2  0
 13 14  1  0
 14 15  1  0
 15 16  2  0
 16 17  1  0
 17 18  2  0
 17 19  1  0
 19 20  1  0
 14 21  2  0
 21 22  1  0
  7 23  1  0
 23 24  2  0
 24 25  1  0
  5 26  2  0
 26  2  1  0
 25  6  1  0
 22 11  2  0
 20 15  1  0
  1 27  1  0
  1 28  1  0
  1 29  1  0
  3 30  1  0
  4 31  1  0
 10 32  1  0
 12 33  1  0
 13 34  1  0
 16 35  1  0
 19 36  1  0
 20 37  1  0
 21 38  1  0
 22 39  1  0
 23 40  1  0
 25 41  1  0
M  END
$$$$
OCNT-2314083
     RDKit          3D

 45 48  0  0  0  0  0  0  0  0999 V2000
    5.9936   -0.7000   -1.2396 C   0  0  0  0  0  0  0  0  0  0  0  0
    5.0700   -0.0409   -0.2845 C   0  0  0  0  0  0  0  0  0  0  0  0
    5.5516    0.7303    0.7013 N   0  0  0  0  0  0  0  0  0  0  0  0
    4.4429    1.1441    1.3565 N   0  0  0  0  0  0  0  0  0  0  0  0
    4.5799    2.0005    2.5070 C   0  0  0  0  0  0  0  0  0  0  0  0
    3.2763    0.6720    0.8198 C   0  0  0  0  0  0  0  0  0  0  0  0
    2.0232    0.9108    1.2578 N   0  0  0  0  0  0  0  0  0  0  0  0
    1.0554    0.2923    0.5286 C   0  0  0  0  0  0  0  0  0  0  0  0
   -0.3436    0.4949    1.0419 C   0  0  0  0  0  0  0  0  0  0  0  0
    1.3178   -0.4908   -0.6045 C   0  0  0  0  0  0  0  0  0  0  0  0
    0.2536   -1.1270   -1.4042 C   0  0  0  0  0  0  0  0  0  0  0  0
    0.2414   -2.3425   -1.5475 O   0  0  0  0  0  0  0  0  0  0  0  0
   -0.6463   -0.2678   -1.9867 N   0  0  0  0  0  0  0  0  0  0  0  0
   -1.7627   -0.7313   -2.7966 C   0  0  0  0  0  0  0  0  0  0  0  0
   -3.1076   -0.6618   -2.0647 C   0  0  0  0  0  0  0  0  0  0  0  0
   -3.2321   -1.6279   -0.8755 C   0  0  0  0  0  0  0  0  0  0  0  0
   -3.9466   -0.7499    0.0783 C   0  0  0  0  0  0  0  0  0  0  0  0
   -4.5081   -1.0607    1.3042 C   0  0  0  0  0  0  0  0  0  0  0  0
   -5.0808   -0.0259    2.0487 C   0  0  0  0  0  0  0  0  0  0  0  0
   -5.0740    1.2928    1.5646 C   0  0  0  0  0  0  0  0  0  0  0  0
   -4.4957    1.5907    0.3291 C   0  0  0  0  0  0  0  0  0  0  0  0
   -3.9452    0.5522   -0.3933 C   0  0  0  0  0  0  0  0  0  0  0  0
   -3.3313    0.7037   -1.6074 O   0  0  0  0  0  0  0  0  0  0  0  0
    2.6394   -0.7234   -1.0087 C   0  0  0  0  0  0  0  0  0  0  0  0
    3.6524   -0.1093   -0.2625 C   0  0  0  0  0  0  0  0  0  0  0  0
    7.0410   -0.4933   -0.9963 H   0  0  0  0  0  0  0  0  0  0  0  0
    5.8504   -1.7851   -1.2211 H   0  0  0  0  0  0  0  0  0  0  0  0
    5.8058   -0.3439   -2.2575 H   0  0  0  0  0  0  0  0  0  0  0  0
    5.0955    2.9131    2.1971 H   0  0  0  0  0  0  0  0  0  0  0  0
    3.5957    2.2508    2.9089 H   0  0  0  0  0  0  0  0  0  0  0  0
    5.1644    1.4697    3.2628 H   0  0  0  0  0  0  0  0  0  0  0  0
   -0.8950    1.1790    0.3918 H   0  0  0  0  0  0  0  0  0  0  0  0
   -0.3251    0.9336    2.0456 H   0  0  0  0  0  0  0  0  0  0  0  0
   -0.8723   -0.4598    1.1154 H   0  0  0  0  0  0  0  0  0  0  0  0
   -0.5717    0.7311   -1.8329 H   0  0  0  0  0  0  0  0  0  0  0  0
   -1.7896   -0.0630   -3.6644 H   0  0  0  0  0  0  0  0  0  0  0  0
   -1.5739   -1.7490   -3.1536 H   0  0  0  0  0  0  0  0  0  0  0  0
   -3.9044   -0.8811   -2.7894 H   0  0  0  0  0  0  0  0  0  0  0  0
   -3.8068   -2.5183   -1.1462 H   0  0  0  0  0  0  0  0  0  0  0  0
   -2.2689   -1.9313   -0.4591 H   0  0  0  0  0  0  0  0  0  0  0  0
   -4.4996   -2.0770    1.6850 H   0  0  0  0  0  0  0  0  0  0  0  0
   -5.5310   -0.2413    3.0151 H   0  0  0  0  0  0  0  0  0  0  0  0
   -5.5204    2.0870    2.1580 H   0  0  0  0  0  0  0  0  0  0  0  0
   -4.4808    2.6048   -0.0534 H   0  0  0  0  0  0  0  0  0  0  0  0
    2.8628   -1.3510   -1.8656 H   0  0  0  0  0  0  0  0  0  0  0  0
  1  2  1  0
  2  3  2  0
  3  4  1  0
  4  5  1  0
  4  6  1  0
  6  7  1  0
  7  8  2  0
  8  9  1  0
  8 10  1  0
 10 11  1  0
 11 12  2  0
 11 13  1  0
 13 14  1  0
 14 15  1  0
 15 16  1  0
 16 17  1  0
 17 18  2  0
 18 19  1  0
 19 20  2  0
 20 21  1  0
 21 22  2  0
 22 23  1  0
 10 24  2  0
 24 25  1  0
 25  2  1  0
 25  6  2  0
 23 15  1  0
 22 17  1  0
  1 26  1  0
  1 27  1  0
  1 28  1  0
  5 29  1  0
  5 30  1  0
  5 31  1  0
  9 32  1  0
  9 33  1  0
  9 34  1  0
 13 35  1  0
 14 36  1  0
 14 37  1  0
 15 38  1  0
 16 39  1  0
 16 40  1  0
 18 41  1  0
 19 42  1  0
 20 43  1  0
 21 44  1  0
 24 45  1  0
M  END
$$$$
OCNT-2314086
     RDKit          3D

 35 37  0  0  0  0  0  0  0  0999 V2000
   -3.0320   -2.0837    1.6364 C   0  0  0  0  0  0  0  0  0  0  0  0
   -2.3356   -1.1135    0.8057 N   0  0  0  0  0  0  0  0  0  0  0  0
   -0.9933   -1.3443    0.5082 C   0  0  0  0  0  0  0  0  0  0  0  0
   -0.3853   -2.3467    0.8840 O   0  0  0  0  0  0  0  0  0  0  0  0
   -0.2855   -0.3225   -0.3224 C   0  0  0  0  0  0  0  0  0  0  0  0
    1.1664   -0.5733   -0.6172 C   0  0  0  0  0  0  0  0  0  0  0  0
    1.9707    0.3391    0.1958 N   0  0  0  0  0  0  0  0  0  0  0  0
    3.3435    0.1955   -0.0002 C   0  0  0  0  0  0  0  0  0  0  0  0
    4.0136   -0.9863    0.3054 C   0  0  0  0  0  0  0  0  0  0  0  0
    5.3917   -1.0627    0.1036 C   0  0  0  0  0  0  0  0  0  0  0  0
    6.0604    0.0471   -0.3904 C   0  0  0  0  0  0  0  0  0  0  0  0
    7.7544    0.0065   -0.6550 Cl  0  0  0  0  0  0  0  0  0  0  0  0
    5.3218    1.1875   -0.6586 C   0  0  0  0  0  0  0  0  0  0  0  0
    3.9810    1.2835   -0.4732 N   0  0  0  0  0  0  0  0  0  0  0  0
   -0.9504    0.7367   -0.8097 C   0  0  0  0  0  0  0  0  0  0  0  0
   -2.3597    0.9452   -0.5031 C   0  0  0  0  0  0  0  0  0  0  0  0
   -3.0258    2.0682   -1.0135 C   0  0  0  0  0  0  0  0  0  0  0  0
   -4.3714    2.2809   -0.7208 C   0  0  0  0  0  0  0  0  0  0  0  0
   -5.0549    1.3739    0.0821 C   0  0  0  0  0  0  0  0  0  0  0  0
   -4.3947    0.2525    0.5932 C   0  0  0  0  0  0  0  0  0  0  0  0
   -3.0401    0.0241    0.3071 C   0  0  0  0  0  0  0  0  0  0  0  0
   -3.4112   -1.5878    2.5356 H   0  0  0  0  0  0  0  0  0  0  0  0
   -3.8566   -2.5243    1.0669 H   0  0  0  0  0  0  0  0  0  0  0  0
   -2.3758   -2.8972    1.9582 H   0  0  0  0  0  0  0  0  0  0  0  0
    1.3549   -0.3851   -1.6833 H   0  0  0  0  0  0  0  0  0  0  0  0
    1.4359   -1.6196   -0.4389 H   0  0  0  0  0  0  0  0  0  0  0  0
    1.7881    1.3084   -0.0601 H   0  0  0  0  0  0  0  0  0  0  0  0
    3.4765   -1.8334    0.7207 H   0  0  0  0  0  0  0  0  0  0  0  0
    5.9260   -1.9771    0.3424 H   0  0  0  0  0  0  0  0  0  0  0  0
    5.7948    2.0873   -1.0407 H   0  0  0  0  0  0  0  0  0  0  0  0
   -0.4474    1.4718   -1.4295 H   0  0  0  0  0  0  0  0  0  0  0  0
   -2.5026    2.7868   -1.6399 H   0  0  0  0  0  0  0  0  0  0  0  0
   -4.8844    3.1536   -1.1172 H   0  0  0  0  0  0  0  0  0  0  0  0
   -6.1048    1.5371    0.3137 H   0  0  0  0  0  0  0  0  0  0  0  0
   -4.9682   -0.4280    1.2146 H   0  0  0  0  0  0  0  0  0  0  0  0
  1  2  1  0
  2  3  1  0
  3  4  2  0
  3  5  1  0
  5  6  1  0
  6  7  1  0
  7  8  1  0
  8  9  2  0
  9 10  1  0
 10 11  2  0
 11 12  1  0
 11 13  1  0
 13 14  2  0
  5 15  2  0
 15 16  1  0
 16 17  2  0
 17 18  1  0
 18 19  2  0
 19 20  1  0
 20 21  2  0
 21  2  1  0
 14  8  1  0
 21 16  1  0
  1 22  1  0
  1 23  1  0
  1 24  1  0
  6 25  1  0
  6 26  1  0
  7 27  1  0
  9 28  1  0
 10 29  1  0
 13 30  1  0
 15 31  1  0
 17 32  1  0
 18 33  1  0
 19 34  1  0
 20 35  1  0
M  END
$$$$
OCNT-2314087
     RDKit          3D

 54 59  0  0  0  0  0  0  0  0999 V2000
    9.7440    1.7109    1.6730 C   0  0  0  0  0  0  0  0  0  0  0  0
    9.0050    0.9014    0.6865 C   0  0  0  0  0  0  0  0  0  0  0  0
    9.4764    0.3237   -0.3944 N   0  0  0  0  0  0  0  0  0  0  0  0
    8.4350   -0.3299   -1.0106 N   0  0  0  0  0  0  0  0  0  0  0  0
    7.3346   -0.1397   -0.3046 C   0  0  0  0  0  0  0  0  0  0  0  0
    5.9981   -0.6560   -0.6098 C   0  0  0  0  0  0  0  0  0  0  0  0
    5.8160   -1.4498   -1.7519 C   0  0  0  0  0  0  0  0  0  0  0  0
    4.5596   -1.9594   -2.0821 C   0  0  0  0  0  0  0  0  0  0  0  0
    3.4612   -1.6817   -1.2710 C   0  0  0  0  0  0  0  0  0  0  0  0
    3.6087   -0.8933   -0.1224 C   0  0  0  0  0  0  0  0  0  0  0  0
    2.4545   -0.6077    0.7237 C   0  0  0  0  0  0  0  0  0  0  0  0
    2.5143    0.1098    1.8582 N   0  0  0  0  0  0  0  0  0  0  0  0
    1.2012    0.1150    2.3201 O   0  0  0  0  0  0  0  0  0  0  0  0
    0.4706   -0.5976    1.4186 C   0  0  0  0  0  0  0  0  0  0  0  0
   -0.9768   -0.7182    1.6796 C   0  0  0  0  0  0  0  0  0  0  0  0
   -1.5315   -2.0995    1.3805 C   0  0  0  0  0  0  0  0  0  0  0  0
   -2.9779   -1.8185    1.0530 C   0  0  0  0  0  0  0  0  0  0  0  0
   -3.8336   -2.6877    1.0771 O   0  0  0  0  0  0  0  0  0  0  0  0
   -3.0873   -0.4652    0.6990 N   0  0  0  0  0  0  0  0  0  0  0  0
   -4.2497    0.1907    0.2033 C   0  0  0  0  0  0  0  0  0  0  0  0
   -4.1720    1.5228   -0.2698 C   0  0  0  0  0  0  0  0  0  0  0  0
   -5.2925    2.2004   -0.7682 C   0  0  0  0  0  0  0  0  0  0  0  0
   -6.5043    1.5415   -0.7832 C   0  0  0  0  0  0  0  0  0  0  0  0
   -7.8207    2.0284   -1.2986 C   0  0  0  0  0  0  0  0  0  0  0  0
   -8.7830    1.0190   -0.6553 C   0  0  0  0  0  0  0  0  0  0  0  0
   -7.9989   -0.2902   -0.4895 C   0  0  0  0  0  0  0  0  0  0  0  0
   -6.6040    0.2285   -0.3246 C   0  0  0  0  0  0  0  0  0  0  0  0
   -5.4955   -0.4530    0.1608 C   0  0  0  0  0  0  0  0  0  0  0  0
   -1.7991    0.1855    0.7794 C   0  0  0  0  0  0  0  0  0  0  0  0
    1.1859   -1.0544    0.4189 N   0  0  0  0  0  0  0  0  0  0  0  0
    4.8819   -0.3862    0.1981 C   0  0  0  0  0  0  0  0  0  0  0  0
    7.6658    0.6373    0.7783 N   0  0  0  0  0  0  0  0  0  0  0  0
    9.5675    1.3404    2.6881 H   0  0  0  0  0  0  0  0  0  0  0  0
    9.4299    2.7578    1.6238 H   0  0  0  0  0  0  0  0  0  0  0  0
   10.8204    1.6691    1.4783 H   0  0  0  0  0  0  0  0  0  0  0  0
    6.6642   -1.6763   -2.3975 H   0  0  0  0  0  0  0  0  0  0  0  0
    4.4405   -2.5734   -2.9717 H   0  0  0  0  0  0  0  0  0  0  0  0
    2.4881   -2.0874   -1.5428 H   0  0  0  0  0  0  0  0  0  0  0  0
   -1.1925   -0.4745    2.7291 H   0  0  0  0  0  0  0  0  0  0  0  0
   -1.4546   -2.7574    2.2505 H   0  0  0  0  0  0  0  0  0  0  0  0
   -1.0662   -2.5813    0.5145 H   0  0  0  0  0  0  0  0  0  0  0  0
   -3.2311    2.0650   -0.2814 H   0  0  0  0  0  0  0  0  0  0  0  0
   -5.2026    3.2175   -1.1375 H   0  0  0  0  0  0  0  0  0  0  0  0
   -7.8466    1.9585   -2.3905 H   0  0  0  0  0  0  0  0  0  0  0  0
   -8.0433    3.0507   -0.9817 H   0  0  0  0  0  0  0  0  0  0  0  0
   -9.7003    0.8857   -1.2370 H   0  0  0  0  0  0  0  0  0  0  0  0
   -9.0796    1.3877    0.3363 H   0  0  0  0  0  0  0  0  0  0  0  0
   -8.3438   -0.8553    0.3809 H   0  0  0  0  0  0  0  0  0  0  0  0
   -8.0665   -0.9084   -1.3906 H   0  0  0  0  0  0  0  0  0  0  0  0
   -5.6333   -1.4746    0.4977 H   0  0  0  0  0  0  0  0  0  0  0  0
   -1.3864    0.2687   -0.2336 H   0  0  0  0  0  0  0  0  0  0  0  0
   -1.8823    1.1824    1.2262 H   0  0  0  0  0  0  0  0  0  0  0  0
    4.9863    0.2255    1.0902 H   0  0  0  0  0  0  0  0  0  0  0  0
    7.0459    0.9525    1.5067 H   0  0  0  0  0  0  0  0  0  0  0  0
  1  2  1  0
  2  3  2  0
  3  4  1  0
  4  5  2  0
  5  6  1  0
  6  7  2  0
  7  8  1  0
  8  9  2  0
  9 10  1  0
 10 11  1  0
 11 12  2  0
 12 13  1  0
 13 14  1  0
 14 15  1  0
 15 16  1  0
 16 17  1  0
 17 18  2  0
 17 19  1  0
 19 20  1  0
 20 21  1  0
 21 22  2  0
 22 23  1  0
 23 24  1  0
 24 25  1  0
 25 26  1  0
 26 27  1  0
 27 28  1  0
 19 29  1  0
 14 30  2  0
 10 31  2  0
  5 32  1  0
 32  2  1  0
 31  6  1  0
 30 11  1  0
 29 15  1  0
 28 20  2  0
 27 23  2  0
  1 33  1  0
  1 34  1  0
  1 35  1  0
  7 36  1  0
  8 37  1  0
  9 38  1  0
 15 39  1  0
 16 40  1  0
 16 41  1  0
 21 42  1  0
 22 43  1  0
 24 44  1  0
 24 45  1  0
 25 46  1  0
 25 47  1  0
 26 48  1  0
 26 49  1  0
 28 50  1  0
 29 51  1  0
 29 52  1  0
 31 53  1  0
 32 54  1  0
M  END
$$$$
OCNT-2314103
     RDKit          3D

 41 43  0  0  0  0  0  0  0  0999 V2000
   -1.0858   -5.4590    2.6323 C   0  0  0  0  0  0  0  0  0  0  0  0
   -0.2414   -4.3333    2.4276 O   0  0  0  0  0  0  0  0  0  0  0  0
   -0.7243   -3.3333    1.6293 C   0  0  0  0  0  0  0  0  0  0  0  0
   -1.9796   -3.2976    1.0307 C   0  0  0  0  0  0  0  0  0  0  0  0
   -2.3514   -2.1962    0.2521 C   0  0  0  0  0  0  0  0  0  0  0  0
   -1.4644   -1.1334    0.0279 C   0  0  0  0  0  0  0  0  0  0  0  0
   -1.9493   -0.0896   -0.7797 N   0  0  0  0  0  0  0  0  0  0  0  0
   -1.2329    0.7567   -1.6021 C   0  0  0  0  0  0  0  0  0  0  0  0
   -0.0442    0.6806   -1.8877 O   0  0  0  0  0  0  0  0  0  0  0  0
   -2.1089    1.7624   -2.2356 C   0  0  0  0  0  0  0  0  0  0  0  0
   -3.4509    1.7514   -2.0700 N   0  0  0  0  0  0  0  0  0  0  0  0
   -3.8751    2.8072   -2.7874 N   0  0  0  0  0  0  0  0  0  0  0  0
   -2.8730    3.4790   -3.4194 C   0  0  0  0  0  0  0  0  0  0  0  0
   -1.7119    2.8276   -3.0848 C   0  0  0  0  0  0  0  0  0  0  0  0
   -0.2052   -1.1612    0.6461 C   0  0  0  0  0  0  0  0  0  0  0  0
    0.5842   -0.0387    0.6444 O   0  0  0  0  0  0  0  0  0  0  0  0
    1.9227   -0.2847    0.2025 C   0  0  0  0  0  0  0  0  0  0  0  0
    2.6953    1.0115    0.2751 C   0  0  0  0  0  0  0  0  0  0  0  0
    3.1567    1.4927    1.5092 C   0  0  0  0  0  0  0  0  0  0  0  0
    3.8689    2.6911    1.5812 C   0  0  0  0  0  0  0  0  0  0  0  0
    4.1205    3.4237    0.4226 C   0  0  0  0  0  0  0  0  0  0  0  0
    3.6550    2.9622   -0.8075 C   0  0  0  0  0  0  0  0  0  0  0  0
    2.9430    1.7638   -0.8807 C   0  0  0  0  0  0  0  0  0  0  0  0
    0.1474   -2.2561    1.4497 C   0  0  0  0  0  0  0  0  0  0  0  0
   -1.3062   -5.9651    1.6865 H   0  0  0  0  0  0  0  0  0  0  0  0
   -2.0060   -5.1721    3.1517 H   0  0  0  0  0  0  0  0  0  0  0  0
   -0.5498   -6.1671    3.2717 H   0  0  0  0  0  0  0  0  0  0  0  0
   -2.6980   -4.1008    1.1544 H   0  0  0  0  0  0  0  0  0  0  0  0
   -3.3398   -2.1920   -0.2019 H   0  0  0  0  0  0  0  0  0  0  0  0
   -2.9532   -0.0110   -0.9186 H   0  0  0  0  0  0  0  0  0  0  0  0
   -4.8695    3.0110   -2.8036 H   0  0  0  0  0  0  0  0  0  0  0  0
   -3.0692    4.3449   -4.0355 H   0  0  0  0  0  0  0  0  0  0  0  0
   -0.7048    3.0725   -3.3939 H   0  0  0  0  0  0  0  0  0  0  0  0
    1.9215   -0.6769   -0.8222 H   0  0  0  0  0  0  0  0  0  0  0  0
    2.4362   -1.0157    0.8379 H   0  0  0  0  0  0  0  0  0  0  0  0
    2.9539    0.9355    2.4209 H   0  0  0  0  0  0  0  0  0  0  0  0
    4.2213    3.0552    2.5423 H   0  0  0  0  0  0  0  0  0  0  0  0
    4.6714    4.3584    0.4791 H   0  0  0  0  0  0  0  0  0  0  0  0
    3.8391    3.5375   -1.7105 H   0  0  0  0  0  0  0  0  0  0  0  0
    2.5685    1.4216   -1.8437 H   0  0  0  0  0  0  0  0  0  0  0  0
    1.0888   -2.2627    1.9914 H   0  0  0  0  0  0  0  0  0  0  0  0
  1  2  1  0
  2  3  1  0
  3  4  1  0
  4  5  2  0
  5  6  1  0
  6  7  1  0
  7  8  1  0
  8  9  2  0
  8 10  1  0
 10 11  2  0
 11 12  1  0
 12 13  1  0
 13 14  2  0
  6 15  2  0
 15 16  1  0
 16 17  1  0
 17 18  1  0
 18 19  2  0
 19 20  1  0
 20 21  2  0
 21 22  1  0
 22 23  2  0
 15 24  1  0
 24  3  2  0
 14 10  1  0
 23 18  1  0
  1 25  1  0
  1 26  1  0
  1 27  1  0
  4 28  1  0
  5 29  1  0
  7 30  1  0
 12 31  1  0
 13 32  1  0
 14 33  1  0
 17 34  1  0
 17 35  1  0
 19 36  1  0
 20 37  1  0
 21 38  1  0
 22 39  1  0
 23 40  1  0
 24 41  1  0
M  END
$$$$
