OCNT-2310344
     RDKit          3D

 33 35  0  0  0  0  0  0  0  0999 V2000
    5.6989    1.6142   -1.9204 C   0  0  0  0  0  0  0  0  0  0  0  0
    5.0415    0.7231   -0.9270 C   0  0  0  0  0  0  0  0  0  0  0  0
    3.7616    0.4198   -0.9333 N   0  0  0  0  0  0  0  0  0  0  0  0
    3.4738   -0.4297    0.1203 C   0  0  0  0  0  0  0  0  0  0  0  0
    2.0946   -0.8899    0.2914 C   0  0  0  0  0  0  0  0  0  0  0  0
    1.5828   -1.7146    1.2681 C   0  0  0  0  0  0  0  0  0  0  0  0
    0.2436   -1.8776    1.0203 N   0  0  0  0  0  0  0  0  0  0  0  0
   -0.1332   -1.1510   -0.0896 C   0  0  0  0  0  0  0  0  0  0  0  0
   -1.4649   -1.0829   -0.6538 C   0  0  0  0  0  0  0  0  0  0  0  0
   -1.6867   -0.7499   -1.8134 O   0  0  0  0  0  0  0  0  0  0  0  0
   -2.4770   -1.4000    0.2284 N   0  0  0  0  0  0  0  0  0  0  0  0
   -3.8631   -1.2346   -0.1488 C   0  0  0  0  0  0  0  0  0  0  0  0
   -4.3131    0.1230    0.2890 C   0  0  0  0  0  0  0  0  0  0  0  0
   -4.1619    1.3284   -0.3735 C   0  0  0  0  0  0  0  0  0  0  0  0
   -4.7140    2.4231    0.3559 C   0  0  0  0  0  0  0  0  0  0  0  0
   -5.2601    2.0020    1.5411 C   0  0  0  0  0  0  0  0  0  0  0  0
   -6.0948    3.1778    2.7951 Br  0  0  0  0  0  0  0  0  0  0  0  0
   -5.1200    0.3326    1.7895 S   0  0  0  0  0  0  0  0  0  0  0  0
    1.0213   -0.5489   -0.5683 C   0  0  0  0  0  0  0  0  0  0  0  0
    4.5496   -0.7584    0.9188 C   0  0  0  0  0  0  0  0  0  0  0  0
    5.9655    0.0134    0.3373 S   0  0  0  0  0  0  0  0  0  0  0  0
    6.4827    1.0785   -2.4652 H   0  0  0  0  0  0  0  0  0  0  0  0
    6.1436    2.4849   -1.4282 H   0  0  0  0  0  0  0  0  0  0  0  0
    4.9687    1.9768   -2.6510 H   0  0  0  0  0  0  0  0  0  0  0  0
    2.0499   -2.2099    2.1083 H   0  0  0  0  0  0  0  0  0  0  0  0
   -0.3729   -2.4761    1.5528 H   0  0  0  0  0  0  0  0  0  0  0  0
   -2.2772   -1.3463    1.2148 H   0  0  0  0  0  0  0  0  0  0  0  0
   -4.4326   -2.0278    0.3467 H   0  0  0  0  0  0  0  0  0  0  0  0
   -3.9888   -1.3551   -1.2301 H   0  0  0  0  0  0  0  0  0  0  0  0
   -3.6686    1.4170   -1.3362 H   0  0  0  0  0  0  0  0  0  0  0  0
   -4.7017    3.4527    0.0203 H   0  0  0  0  0  0  0  0  0  0  0  0
    1.0756    0.0810   -1.4491 H   0  0  0  0  0  0  0  0  0  0  0  0
    4.5765   -1.3956    1.7897 H   0  0  0  0  0  0  0  0  0  0  0  0
  1  2  1  0
  2  3  2  0
  3  4  1  0
  4  5  1  0
  5  6  2  0
  6  7  1  0
  7  8  1  0
  8  9  1  0
  9 10  2  0
  9 11  1  0
 11 12  1  0
 12 13  1  0
 13 14  2  0
 14 15  1  0
 15 16  2  0
 16 17  1  0
 16 18  1  0
  8 19  2  0
  4 20  2  0
 20 21  1  0
 21  2  1  0
 19  5  1  0
 18 13  1  0
  1 22  1  0
  1 23  1  0
  1 24  1  0
  6 25  1  0
  7 26  1  0
 11 27  1  0
 12 28  1  0
 12 29  1  0
 14 30  1  0
 15 31  1  0
 19 32  1  0
 20 33  1  0
M  END
$$$$
OCNT-2310345
     RDKit          3D

 58 60  0  0  0  0  0  0  0  0999 V2000
   -4.8876   -2.2108    2.7426 C   0  0  0  0  0  0  0  0  0  0  0  0
   -5.1949   -1.3669    1.5646 C   0  0  0  0  0  0  0  0  0  0  0  0
   -6.3363   -1.4029    0.7900 C   0  0  0  0  0  0  0  0  0  0  0  0
   -6.1947   -0.4430   -0.1868 N   0  0  0  0  0  0  0  0  0  0  0  0
   -7.1276   -0.0695   -1.1965 C   0  0  0  0  0  0  0  0  0  0  0  0
   -6.7812    0.9378   -2.1134 C   0  0  0  0  0  0  0  0  0  0  0  0
   -7.6854    1.3344   -3.1033 C   0  0  0  0  0  0  0  0  0  0  0  0
   -8.9360    0.7299   -3.1800 C   0  0  0  0  0  0  0  0  0  0  0  0
  -10.0548    1.2212   -4.3912 Cl  0  0  0  0  0  0  0  0  0  0  0  0
   -9.2897   -0.2737   -2.2784 C   0  0  0  0  0  0  0  0  0  0  0  0
   -8.3884   -0.6766   -1.2856 C   0  0  0  0  0  0  0  0  0  0  0  0
   -4.9988    0.1736   -0.0908 N   0  0  0  0  0  0  0  0  0  0  0  0
   -4.3974   -0.3495    0.9736 C   0  0  0  0  0  0  0  0  0  0  0  0
   -3.1594    0.0317    1.4523 N   0  0  0  0  0  0  0  0  0  0  0  0
   -2.3746    1.0407    0.9389 C   0  0  0  0  0  0  0  0  0  0  0  0
   -2.6211    1.7654   -0.0160 O   0  0  0  0  0  0  0  0  0  0  0  0
   -1.2152    1.1754    1.6836 N   0  0  0  0  0  0  0  0  0  0  0  0
   -0.2063    2.1504    1.3274 C   0  0  0  0  0  0  0  0  0  0  0  0
    1.0601    1.4634    0.8832 C   0  0  0  0  0  0  0  0  0  0  0  0
    2.1117    1.2492    1.7840 C   0  0  0  0  0  0  0  0  0  0  0  0
    3.2779    0.6019    1.3706 C   0  0  0  0  0  0  0  0  0  0  0  0
    3.4143    0.1526    0.0497 C   0  0  0  0  0  0  0  0  0  0  0  0
    4.6806   -0.5301   -0.3995 C   0  0  0  0  0  0  0  0  0  0  0  0
    5.9152    0.7156   -0.8083 S   0  0  0  0  0  0  0  0  0  0  0  0
    5.5150    1.4134   -2.0114 O   0  0  0  0  0  0  0  0  0  0  0  0
    6.3287    1.4222    0.3847 O   0  0  0  0  0  0  0  0  0  0  0  0
    7.2085   -0.2523   -1.2947 N   0  0  0  0  0  0  0  0  0  0  0  0
    8.1371   -0.7862   -0.2854 C   0  0  0  0  0  0  0  0  0  0  0  0
    8.6251   -2.1481   -0.7699 C   0  0  0  0  0  0  0  0  0  0  0  0
    9.3098    0.1694   -0.1043 C   0  0  0  0  0  0  0  0  0  0  0  0
    2.3583    0.3600   -0.8486 C   0  0  0  0  0  0  0  0  0  0  0  0
    1.1899    1.0033   -0.4335 C   0  0  0  0  0  0  0  0  0  0  0  0
   -4.7914   -1.5927    3.6420 H   0  0  0  0  0  0  0  0  0  0  0  0
   -5.6761   -2.9498    2.9196 H   0  0  0  0  0  0  0  0  0  0  0  0
   -3.9467   -2.7509    2.5909 H   0  0  0  0  0  0  0  0  0  0  0  0
   -7.2159   -2.0250    0.8646 H   0  0  0  0  0  0  0  0  0  0  0  0
   -5.8087    1.4285   -2.0650 H   0  0  0  0  0  0  0  0  0  0  0  0
   -7.4055    2.1171   -3.8030 H   0  0  0  0  0  0  0  0  0  0  0  0
  -10.2666   -0.7436   -2.3405 H   0  0  0  0  0  0  0  0  0  0  0  0
   -8.7036   -1.4580   -0.6022 H   0  0  0  0  0  0  0  0  0  0  0  0
   -2.8545   -0.4077    2.3011 H   0  0  0  0  0  0  0  0  0  0  0  0
   -0.8824    0.3589    2.1709 H   0  0  0  0  0  0  0  0  0  0  0  0
   -0.0133    2.7484    2.2254 H   0  0  0  0  0  0  0  0  0  0  0  0
   -0.5586    2.8405    0.5527 H   0  0  0  0  0  0  0  0  0  0  0  0
    2.0371    1.5994    2.8115 H   0  0  0  0  0  0  0  0  0  0  0  0
    4.0887    0.4694    2.0857 H   0  0  0  0  0  0  0  0  0  0  0  0
    4.5099   -1.1426   -1.2907 H   0  0  0  0  0  0  0  0  0  0  0  0
    5.0809   -1.1635    0.3982 H   0  0  0  0  0  0  0  0  0  0  0  0
    7.6050    0.0625   -2.1824 H   0  0  0  0  0  0  0  0  0  0  0  0
    7.6196   -0.9314    0.6695 H   0  0  0  0  0  0  0  0  0  0  0  0
    7.7795   -2.8241   -0.9414 H   0  0  0  0  0  0  0  0  0  0  0  0
    9.1785   -2.0668   -1.7130 H   0  0  0  0  0  0  0  0  0  0  0  0
    9.2832   -2.6129   -0.0271 H   0  0  0  0  0  0  0  0  0  0  0  0
    9.8372    0.3379   -1.0514 H   0  0  0  0  0  0  0  0  0  0  0  0
    8.9769    1.1464    0.2602 H   0  0  0  0  0  0  0  0  0  0  0  0
   10.0284   -0.2304    0.6194 H   0  0  0  0  0  0  0  0  0  0  0  0
    2.4372    0.0331   -1.8842 H   0  0  0  0  0  0  0  0  0  0  0  0
    0.3786    1.1558   -1.1456 H   0  0  0  0  0  0  0  0  0  0  0  0
  1  2  1  0
  2  3  2  0
  3  4  1  0
  4  5  1  0
  5  6  1  0
  6  7  2  0
  7  8  1  0
  8  9  1  0
  8 10  2  0
 10 11  1  0
  4 12  1  0
 12 13  2  0
 13 14  1  0
 14 15  1  0
 15 16  2  0
 15 17  1  0
 17 18  1  0
 18 19  1  0
 19 20  1  0
 20 21  2  0
 21 22  1  0
 22 23  1  0
 23 24  1  0
 24 25  2  0
 24 26  2  0
 24 27  1  0
 27 28  1  0
 28 29  1  0
 28 30  1  0
 22 31  2  0
 31 32  1  0
 13  2  1  0
 32 19  2  0
 11  5  2  0
  1 33  1  0
  1 34  1  0
  1 35  1  0
  3 36  1  0
  6 37  1  0
  7 38  1  0
 10 39  1  0
 11 40  1  0
 14 41  1  0
 17 42  1  0
 18 43  1  0
 18 44  1  0
 20 45  1  0
 21 46  1  0
 23 47  1  0
 23 48  1  0
 27 49  1  0
 28 50  1  0
 29 51  1  0
 29 52  1  0
 29 53  1  0
 30 54  1  0
 30 55  1  0
 30 56  1  0
 31 57  1  0
 32 58  1  0
M  END
$$$$
OCNT-2310353
     RDKit          3D

 47 50  0  0  0  0  0  0  0  0999 V2000
    6.5761    0.7650   -1.1963 C   0  0  0  0  0  0  0  0  0  0  0  0
    6.4654   -0.6803   -0.9536 N   0  0  0  0  0  0  0  0  0  0  0  0
    7.7122   -1.3353   -1.3613 C   0  0  0  0  0  0  0  0  0  0  0  0
    6.2140   -0.9460    0.4807 C   0  0  0  0  0  0  0  0  0  0  0  0
    4.8169   -0.5976    0.8895 C   0  0  0  0  0  0  0  0  0  0  0  0
    4.4237   -0.0609    2.0277 N   0  0  0  0  0  0  0  0  0  0  0  0
    3.0590    0.0576    1.9259 C   0  0  0  0  0  0  0  0  0  0  0  0
    2.1303    0.5665    2.8412 C   0  0  0  0  0  0  0  0  0  0  0  0
    0.7695    0.5815    2.4909 C   0  0  0  0  0  0  0  0  0  0  0  0
    0.3311    0.1025    1.2519 C   0  0  0  0  0  0  0  0  0  0  0  0
   -1.0242    0.0903    0.8548 N   0  0  0  0  0  0  0  0  0  0  0  0
   -2.1072    0.6126    1.5388 C   0  0  0  0  0  0  0  0  0  0  0  0
   -2.0841    1.2474    2.5857 O   0  0  0  0  0  0  0  0  0  0  0  0
   -3.4250    0.3968    0.8770 C   0  0  0  0  0  0  0  0  0  0  0  0
   -3.7245   -0.7877    0.1978 C   0  0  0  0  0  0  0  0  0  0  0  0
   -4.9757   -0.9467   -0.4088 C   0  0  0  0  0  0  0  0  0  0  0  0
   -5.9540    0.0612   -0.3547 C   0  0  0  0  0  0  0  0  0  0  0  0
   -7.3076   -0.1185   -0.9961 C   0  0  0  0  0  0  0  0  0  0  0  0
   -7.7751    0.8748   -2.0499 C   0  0  0  0  0  0  0  0  0  0  0  0
   -7.4429   -0.5153   -2.4266 C   0  0  0  0  0  0  0  0  0  0  0  0
   -6.3448   -0.7743   -3.2138 F   0  0  0  0  0  0  0  0  0  0  0  0
   -8.4387   -1.3816   -2.8146 F   0  0  0  0  0  0  0  0  0  0  0  0
   -5.6396    1.2305    0.3587 C   0  0  0  0  0  0  0  0  0  0  0  0
   -4.3935    1.3993    0.9704 C   0  0  0  0  0  0  0  0  0  0  0  0
    1.2586   -0.4151    0.3291 C   0  0  0  0  0  0  0  0  0  0  0  0
    2.6065   -0.4194    0.7026 C   0  0  0  0  0  0  0  0  0  0  0  0
    3.7442   -0.8338    0.0635 N   0  0  0  0  0  0  0  0  0  0  0  0
    5.6442    1.2836   -0.9479 H   0  0  0  0  0  0  0  0  0  0  0  0
    6.7598    0.9578   -2.2595 H   0  0  0  0  0  0  0  0  0  0  0  0
    7.3894    1.2218   -0.6202 H   0  0  0  0  0  0  0  0  0  0  0  0
    7.6363   -2.4206   -1.2310 H   0  0  0  0  0  0  0  0  0  0  0  0
    8.5762   -0.9777   -0.7894 H   0  0  0  0  0  0  0  0  0  0  0  0
    7.9066   -1.1629   -2.4258 H   0  0  0  0  0  0  0  0  0  0  0  0
    6.3370   -2.0184    0.6825 H   0  0  0  0  0  0  0  0  0  0  0  0
    6.9349   -0.4165    1.1165 H   0  0  0  0  0  0  0  0  0  0  0  0
    2.4614    0.9421    3.8029 H   0  0  0  0  0  0  0  0  0  0  0  0
    0.0737    0.9774    3.2246 H   0  0  0  0  0  0  0  0  0  0  0  0
   -1.2043   -0.2833   -0.0674 H   0  0  0  0  0  0  0  0  0  0  0  0
   -3.0132   -1.6081    0.1555 H   0  0  0  0  0  0  0  0  0  0  0  0
   -5.1929   -1.8785   -0.9296 H   0  0  0  0  0  0  0  0  0  0  0  0
   -8.0789   -0.5118   -0.3377 H   0  0  0  0  0  0  0  0  0  0  0  0
   -8.8203    1.1540   -2.0548 H   0  0  0  0  0  0  0  0  0  0  0  0
   -7.0958    1.6477   -2.3850 H   0  0  0  0  0  0  0  0  0  0  0  0
   -6.3785    2.0253    0.4459 H   0  0  0  0  0  0  0  0  0  0  0  0
   -4.1809    2.3150    1.5192 H   0  0  0  0  0  0  0  0  0  0  0  0
    0.9537   -0.7959   -0.6389 H   0  0  0  0  0  0  0  0  0  0  0  0
    3.8211   -1.2112   -0.8704 H   0  0  0  0  0  0  0  0  0  0  0  0
  1  2  1  0
  2  3  1  0
  2  4  1  0
  4  5  1  0
  5  6  2  0
  6  7  1  0
  7  8  2  0
  8  9  1  0
  9 10  2  0
 10 11  1  0
 11 12  1  0
 12 13  2  0
 12 14  1  0
 14 15  1  0
 15 16  2  0
 16 17  1  0
 17 18  1  0
 18 19  1  0
 19 20  1  0
 20 21  1  0
 20 22  1  0
 17 23  2  0
 23 24  1  0
 10 25  1  0
 25 26  2  0
 26 27  1  0
 27  5  1  0
 26  7  1  0
 24 14  2  0
 20 18  1  0
  1 28  1  0
  1 29  1  0
  1 30  1  0
  3 31  1  0
  3 32  1  0
  3 33  1  0
  4 34  1  0
  4 35  1  0
  8 36  1  0
  9 37  1  0
 11 38  1  0
 15 39  1  0
 16 40  1  0
 18 41  1  0
 19 42  1  0
 19 43  1  0
 23 44  1  0
 24 45  1  0
 25 46  1  0
 27 47  1  0
M  END
$$$$
OCNT-2310359
     RDKit          3D

 40 43  0  0  0  0  0  0  0  0999 V2000
    7.6296    1.1931   -0.2616 C   0  0  0  0  0  0  0  0  0  0  0  0
    6.4784    0.2791   -0.0329 C   0  0  0  0  0  0  0  0  0  0  0  0
    5.2261    0.6704    0.0628 N   0  0  0  0  0  0  0  0  0  0  0  0
    4.4062   -0.4252    0.2785 C   0  0  0  0  0  0  0  0  0  0  0  0
    2.9670   -0.1938    0.4158 C   0  0  0  0  0  0  0  0  0  0  0  0
    2.3216    1.0231    0.4112 C   0  0  0  0  0  0  0  0  0  0  0  0
    0.9853    0.7938    0.5906 N   0  0  0  0  0  0  0  0  0  0  0  0
    0.7395   -0.5614    0.6551 C   0  0  0  0  0  0  0  0  0  0  0  0
   -0.5643   -1.1599    0.8546 C   0  0  0  0  0  0  0  0  0  0  0  0
   -0.7122   -2.1679    1.5424 O   0  0  0  0  0  0  0  0  0  0  0  0
   -1.6550   -0.5061    0.2717 N   0  0  0  0  0  0  0  0  0  0  0  0
   -1.5794    0.0019   -1.1221 C   0  0  0  0  0  0  0  0  0  0  0  0
   -2.5190    1.2048   -1.3670 C   0  0  0  0  0  0  0  0  0  0  0  0
   -3.8161    0.9184   -0.7147 C   0  0  0  0  0  0  0  0  0  0  0  0
   -4.0295   -0.0588    0.2308 C   0  0  0  0  0  0  0  0  0  0  0  0
   -2.9766   -0.9944    0.7084 C   0  0  0  0  0  0  0  0  0  0  0  0
   -5.3989    0.0641    0.5603 C   0  0  0  0  0  0  0  0  0  0  0  0
   -6.1811   -0.7398    1.5306 C   0  0  0  0  0  0  0  0  0  0  0  0
   -5.9840    1.0539   -0.1319 N   0  0  0  0  0  0  0  0  0  0  0  0
   -4.9992    1.5587   -0.8967 N   0  0  0  0  0  0  0  0  0  0  0  0
    1.9742   -1.1900    0.5914 C   0  0  0  0  0  0  0  0  0  0  0  0
    5.0564   -1.6403    0.3399 C   0  0  0  0  0  0  0  0  0  0  0  0
    6.7417   -1.4123    0.1243 S   0  0  0  0  0  0  0  0  0  0  0  0
    8.1477    0.9414   -1.1924 H   0  0  0  0  0  0  0  0  0  0  0  0
    7.2856    2.2296   -0.3375 H   0  0  0  0  0  0  0  0  0  0  0  0
    8.3434    1.1351    0.5662 H   0  0  0  0  0  0  0  0  0  0  0  0
    2.7118    2.0281    0.3169 H   0  0  0  0  0  0  0  0  0  0  0  0
    0.2731    1.5074    0.6759 H   0  0  0  0  0  0  0  0  0  0  0  0
   -0.5594    0.2669   -1.4094 H   0  0  0  0  0  0  0  0  0  0  0  0
   -1.8665   -0.8373   -1.7705 H   0  0  0  0  0  0  0  0  0  0  0  0
   -2.0835    2.1049   -0.9178 H   0  0  0  0  0  0  0  0  0  0  0  0
   -2.6358    1.3801   -2.4412 H   0  0  0  0  0  0  0  0  0  0  0  0
   -2.9892   -1.0698    1.8015 H   0  0  0  0  0  0  0  0  0  0  0  0
   -3.1319   -1.9936    0.2850 H   0  0  0  0  0  0  0  0  0  0  0  0
   -5.8867   -0.4883    2.5544 H   0  0  0  0  0  0  0  0  0  0  0  0
   -7.2561   -0.5579    1.4299 H   0  0  0  0  0  0  0  0  0  0  0  0
   -6.0050   -1.8088    1.3735 H   0  0  0  0  0  0  0  0  0  0  0  0
   -5.2179    2.3366   -1.5107 H   0  0  0  0  0  0  0  0  0  0  0  0
    2.1173   -2.2613    0.6586 H   0  0  0  0  0  0  0  0  0  0  0  0
    4.6423   -2.6246    0.4988 H   0  0  0  0  0  0  0  0  0  0  0  0
  1  2  1  0
  2  3  2  0
  3  4  1  0
  4  5  1  0
  5  6  2  0
  6  7  1  0
  7  8  1  0
  8  9  1  0
  9 10  2  0
  9 11  1  0
 11 12  1  0
 12 13  1  0
 13 14  1  0
 14 15  2  0
 15 16  1  0
 15 17  1  0
 17 18  1  0
 17 19  2  0
 19 20  1  0
  8 21  2  0
  4 22  2  0
 22 23  1  0
 23  2  1  0
 21  5  1  0
 16 11  1  0
 20 14  1  0
  1 24  1  0
  1 25  1  0
  1 26  1  0
  6 27  1  0
  7 28  1  0
 12 29  1  0
 12 30  1  0
 13 31  1  0
 13 32  1  0
 16 33  1  0
 16 34  1  0
 18 35  1  0
 18 36  1  0
 18 37  1  0
 20 38  1  0
 21 39  1  0
 22 40  1  0
M  END
$$$$
OCNT-2310365
     RDKit          3D

 41 44  0  0  0  0  0  0  0  0999 V2000
   -7.0578   -2.8431   -1.8347 N   0  0  0  0  0  0  0  0  0  0  0  0
   -6.7271   -1.7964   -1.4561 C   0  0  0  0  0  0  0  0  0  0  0  0
   -6.3186   -0.5073   -0.9924 C   0  0  0  0  0  0  0  0  0  0  0  0
   -7.3323    0.4612   -0.9161 C   0  0  0  0  0  0  0  0  0  0  0  0
   -8.5974    0.1356   -1.2251 F   0  0  0  0  0  0  0  0  0  0  0  0
   -7.0759    1.7746   -0.5361 C   0  0  0  0  0  0  0  0  0  0  0  0
   -5.7779    2.1506   -0.2275 C   0  0  0  0  0  0  0  0  0  0  0  0
   -4.7520    1.2053   -0.2933 C   0  0  0  0  0  0  0  0  0  0  0  0
   -5.0014   -0.1392   -0.6640 C   0  0  0  0  0  0  0  0  0  0  0  0
   -3.8752   -1.0257   -0.6769 N   0  0  0  0  0  0  0  0  0  0  0  0
   -3.8087   -2.3930   -0.8131 C   0  0  0  0  0  0  0  0  0  0  0  0
   -2.4784   -2.7414   -0.7679 C   0  0  0  0  0  0  0  0  0  0  0  0
   -1.7867   -1.5334   -0.5693 C   0  0  0  0  0  0  0  0  0  0  0  0
   -0.4159   -1.4430   -0.4621 N   0  0  0  0  0  0  0  0  0  0  0  0
    0.2799   -0.3042   -0.1330 C   0  0  0  0  0  0  0  0  0  0  0  0
   -0.1699    0.7844    0.1989 O   0  0  0  0  0  0  0  0  0  0  0  0
    1.6418   -0.5316   -0.1934 N   0  0  0  0  0  0  0  0  0  0  0  0
    2.5411    0.5817    0.0495 C   0  0  0  0  0  0  0  0  0  0  0  0
    3.9445    0.1145   -0.0345 C   0  0  0  0  0  0  0  0  0  0  0  0
    4.4695   -0.8192   -0.8025 N   0  0  0  0  0  0  0  0  0  0  0  0
    5.8125   -0.8606   -0.4931 N   0  0  0  0  0  0  0  0  0  0  0  0
    6.0148    0.0503    0.4371 C   0  0  0  0  0  0  0  0  0  0  0  0
    7.4071    0.3292    1.0698 C   0  0  0  0  0  0  0  0  0  0  0  0
    7.6836    1.6646    1.7111 C   0  0  0  0  0  0  0  0  0  0  0  0
    7.5244    0.4410    2.5681 C   0  0  0  0  0  0  0  0  0  0  0  0
    4.8652    0.7153    0.7792 O   0  0  0  0  0  0  0  0  0  0  0  0
   -2.6318   -0.5107   -0.5159 N   0  0  0  0  0  0  0  0  0  0  0  0
   -7.8893    2.4927   -0.4925 H   0  0  0  0  0  0  0  0  0  0  0  0
   -5.5547    3.1740    0.0655 H   0  0  0  0  0  0  0  0  0  0  0  0
   -3.7432    1.5374   -0.0370 H   0  0  0  0  0  0  0  0  0  0  0  0
   -4.6692   -3.0325   -0.9075 H   0  0  0  0  0  0  0  0  0  0  0  0
   -2.0763   -3.7411   -0.8477 H   0  0  0  0  0  0  0  0  0  0  0  0
    0.0983   -2.3075   -0.4933 H   0  0  0  0  0  0  0  0  0  0  0  0
    1.9464   -1.1820   -0.9053 H   0  0  0  0  0  0  0  0  0  0  0  0
    2.3204    1.0039    1.0357 H   0  0  0  0  0  0  0  0  0  0  0  0
    2.3545    1.3503   -0.7081 H   0  0  0  0  0  0  0  0  0  0  0  0
    8.2278   -0.1458    0.5428 H   0  0  0  0  0  0  0  0  0  0  0  0
    6.8941    2.4073    1.7357 H   0  0  0  0  0  0  0  0  0  0  0  0
    8.6779    2.0820    1.5993 H   0  0  0  0  0  0  0  0  0  0  0  0
    8.4102    0.0279    3.0368 H   0  0  0  0  0  0  0  0  0  0  0  0
    6.6259    0.3556    3.1691 H   0  0  0  0  0  0  0  0  0  0  0  0
  1  2  3  0
  2  3  1  0
  3  4  2  0
  4  5  1  0
  4  6  1  0
  6  7  2  0
  7  8  1  0
  8  9  2  0
  9 10  1  0
 10 11  1  0
 11 12  2  0
 12 13  1  0
 13 14  1  0
 14 15  1  0
 15 16  2  0
 15 17  1  0
 17 18  1  0
 18 19  1  0
 19 20  2  0
 20 21  1  0
 21 22  2  0
 22 23  1  0
 23 24  1  0
 24 25  1  0
 22 26  1  0
 13 27  2  0
  9  3  1  0
 27 10  1  0
 26 19  1  0
 25 23  1  0
  6 28  1  0
  7 29  1  0
  8 30  1  0
 11 31  1  0
 12 32  1  0
 14 33  1  0
 17 34  1  0
 18 35  1  0
 18 36  1  0
 23 37  1  0
 24 38  1  0
 24 39  1  0
 25 40  1  0
 25 41  1  0
M  END
$$$$
OCNT-2310368
     RDKit          3D

 38 40  0  0  0  0  0  0  0  0999 V2000
    7.3382    1.6466    3.3709 N   0  0  0  0  0  0  0  0  0  0  0  0
    6.5075    1.4857    2.5768 C   0  0  0  0  0  0  0  0  0  0  0  0
    5.4799    1.3003    1.5943 C   0  0  0  0  0  0  0  0  0  0  0  0
    5.2009    2.3156    0.6726 C   0  0  0  0  0  0  0  0  0  0  0  0
    4.2063    2.1356   -0.2904 C   0  0  0  0  0  0  0  0  0  0  0  0
    3.4804    0.9432   -0.3322 C   0  0  0  0  0  0  0  0  0  0  0  0
    3.7435   -0.0718    0.5977 C   0  0  0  0  0  0  0  0  0  0  0  0
    3.0007   -1.3632    0.5908 C   0  0  0  0  0  0  0  0  0  0  0  0
    3.5147   -2.3670    1.0692 O   0  0  0  0  0  0  0  0  0  0  0  0
    1.7273   -1.3381    0.0571 N   0  0  0  0  0  0  0  0  0  0  0  0
    0.8564   -2.5020    0.1550 C   0  0  0  0  0  0  0  0  0  0  0  0
   -0.1164   -2.6167   -1.0155 C   0  0  0  0  0  0  0  0  0  0  0  0
   -1.1161   -1.5259   -1.0025 C   0  0  0  0  0  0  0  0  0  0  0  0
   -2.3157   -1.4899   -0.4731 N   0  0  0  0  0  0  0  0  0  0  0  0
   -2.7333   -0.2061   -0.7607 C   0  0  0  0  0  0  0  0  0  0  0  0
   -4.0439    0.2954   -0.3586 C   0  0  0  0  0  0  0  0  0  0  0  0
   -4.9293   -0.5315    0.3510 C   0  0  0  0  0  0  0  0  0  0  0  0
   -6.1875   -0.0617    0.7420 C   0  0  0  0  0  0  0  0  0  0  0  0
   -6.5693    1.2397    0.4253 C   0  0  0  0  0  0  0  0  0  0  0  0
   -8.1160    1.8186    0.9055 Cl  0  0  0  0  0  0  0  0  0  0  0  0
   -5.7048    2.0749   -0.2785 C   0  0  0  0  0  0  0  0  0  0  0  0
   -4.4465    1.6043   -0.6692 C   0  0  0  0  0  0  0  0  0  0  0  0
   -1.8199    0.5220   -1.4265 N   0  0  0  0  0  0  0  0  0  0  0  0
   -0.7531   -0.3546   -1.5964 O   0  0  0  0  0  0  0  0  0  0  0  0
    4.7535    0.1062    1.5534 C   0  0  0  0  0  0  0  0  0  0  0  0
    5.7618    3.2489    0.6938 H   0  0  0  0  0  0  0  0  0  0  0  0
    4.0034    2.9220   -1.0146 H   0  0  0  0  0  0  0  0  0  0  0  0
    2.7344    0.8142   -1.1122 H   0  0  0  0  0  0  0  0  0  0  0  0
    1.2805   -0.4324   -0.0271 H   0  0  0  0  0  0  0  0  0  0  0  0
    0.3232   -2.4242    1.1097 H   0  0  0  0  0  0  0  0  0  0  0  0
    1.4729   -3.4070    0.1948 H   0  0  0  0  0  0  0  0  0  0  0  0
    0.4306   -2.6089   -1.9655 H   0  0  0  0  0  0  0  0  0  0  0  0
   -0.6419   -3.5765   -0.9528 H   0  0  0  0  0  0  0  0  0  0  0  0
   -4.6451   -1.5515    0.6053 H   0  0  0  0  0  0  0  0  0  0  0  0
   -6.8601   -0.7158    1.2907 H   0  0  0  0  0  0  0  0  0  0  0  0
   -6.0010    3.0907   -0.5274 H   0  0  0  0  0  0  0  0  0  0  0  0
   -3.7852    2.2713   -1.2196 H   0  0  0  0  0  0  0  0  0  0  0  0
    4.9688   -0.6904    2.2655 H   0  0  0  0  0  0  0  0  0  0  0  0
  1  2  3  0
  2  3  1  0
  3  4  1  0
  4  5  2  0
  5  6  1  0
  6  7  2  0
  7  8  1  0
  8  9  2  0
  8 10  1  0
 10 11  1  0
 11 12  1  0
 12 13  1  0
 13 14  2  0
 14 15  1  0
 15 16  1  0
 16 17  1  0
 17 18  2  0
 18 19  1  0
 19 20  1  0
 19 21  2  0
 21 22  1  0
 15 23  2  0
 23 24  1  0
  7 25  1  0
 25  3  2  0
 24 13  1  0
 22 16  2  0
  4 26  1  0
  5 27  1  0
  6 28  1  0
 10 29  1  0
 11 30  1  0
 11 31  1  0
 12 32  1  0
 12 33  1  0
 17 34  1  0
 18 35  1  0
 21 36  1  0
 22 37  1  0
 25 38  1  0
M  END
$$$$
OCNT-2310376
     RDKit          3D

 59 61  0  0  0  0  0  0  0  0999 V2000
   -6.1108   -1.2917   -2.6712 C   0  0  0  0  0  0  0  0  0  0  0  0
   -5.2738   -1.1913   -1.5048 N   0  0  0  0  0  0  0  0  0  0  0  0
   -5.6955   -0.5514   -0.3523 C   0  0  0  0  0  0  0  0  0  0  0  0
   -6.8391   -0.1303   -0.2171 O   0  0  0  0  0  0  0  0  0  0  0  0
   -4.6276   -0.5627    0.7700 C   0  0  1  0  0  0  0  0  0  0  0  0
   -3.3036   -0.3495    0.1597 N   0  0  0  0  0  0  0  0  0  0  0  0
   -2.1626   -0.9047    0.6977 C   0  0  0  0  0  0  0  0  0  0  0  0
   -2.1838   -1.7132    1.6182 O   0  0  0  0  0  0  0  0  0  0  0  0
   -0.8820   -0.4515    0.0144 C   0  0  0  0  0  0  0  0  0  0  0  0
   -0.7978   -1.0396   -1.3998 C   0  0  0  0  0  0  0  0  0  0  0  0
    0.5286   -0.6928   -2.0717 C   0  0  0  0  0  0  0  0  0  0  0  0
    1.7291   -1.0391   -1.1961 C   0  0  0  0  0  0  0  0  0  0  0  0
    1.6024   -0.4730    0.1697 N   0  0  0  0  0  0  0  0  0  0  0  0
    2.0880    1.1408    0.4220 S   0  0  0  0  0  0  0  0  0  0  0  0
    1.4205    1.9599   -0.5681 O   0  0  0  0  0  0  0  0  0  0  0  0
    1.9701    1.4380    1.8328 O   0  0  0  0  0  0  0  0  0  0  0  0
    3.8197    1.0928    0.0420 C   0  0  0  0  0  0  0  0  0  0  0  0
    4.3257    1.8325   -1.0264 C   0  0  0  0  0  0  0  0  0  0  0  0
    5.6905    1.7735   -1.3119 C   0  0  0  0  0  0  0  0  0  0  0  0
    6.5545    0.9827   -0.5346 C   0  0  0  0  0  0  0  0  0  0  0  0
    7.9287    0.9142   -0.8129 C   0  0  0  0  0  0  0  0  0  0  0  0
    8.7767    0.1274   -0.0316 C   0  0  0  0  0  0  0  0  0  0  0  0
    8.2630   -0.5999    1.0382 C   0  0  0  0  0  0  0  0  0  0  0  0
    6.8994   -0.5434    1.3300 C   0  0  0  0  0  0  0  0  0  0  0  0
    6.0327    0.2416    0.5536 C   0  0  0  0  0  0  0  0  0  0  0  0
    4.6608    0.3064    0.8356 C   0  0  0  0  0  0  0  0  0  0  0  0
    0.3329   -0.8805    0.8369 C   0  0  0  0  0  0  0  0  0  0  0  0
   -4.8659    0.4263    1.9340 C   0  0  0  0  0  0  0  0  0  0  0  0
   -6.0607    0.0221    2.8017 C   0  0  0  0  0  0  0  0  0  0  0  0
   -5.0006    1.8819    1.4783 C   0  0  0  0  0  0  0  0  0  0  0  0
   -6.0746   -0.3406   -3.2087 H   0  0  0  0  0  0  0  0  0  0  0  0
   -7.1427   -1.5077   -2.3824 H   0  0  0  0  0  0  0  0  0  0  0  0
   -5.7260   -2.0915   -3.3081 H   0  0  0  0  0  0  0  0  0  0  0  0
   -4.3044   -1.4823   -1.5510 H   0  0  0  0  0  0  0  0  0  0  0  0
   -4.6351   -1.5830    1.1767 H   0  0  0  0  0  0  0  0  0  0  0  0
   -3.2075    0.4577   -0.4460 H   0  0  0  0  0  0  0  0  0  0  0  0
   -0.9088    0.6437   -0.0468 H   0  0  0  0  0  0  0  0  0  0  0  0
   -0.9080   -2.1311   -1.3551 H   0  0  0  0  0  0  0  0  0  0  0  0
   -1.6241   -0.6732   -2.0205 H   0  0  0  0  0  0  0  0  0  0  0  0
    0.5362    0.3739   -2.3195 H   0  0  0  0  0  0  0  0  0  0  0  0
    0.6061   -1.2299   -3.0242 H   0  0  0  0  0  0  0  0  0  0  0  0
    1.8169   -2.1288   -1.1011 H   0  0  0  0  0  0  0  0  0  0  0  0
    2.6542   -0.7057   -1.6754 H   0  0  0  0  0  0  0  0  0  0  0  0
    3.6738    2.4540   -1.6360 H   0  0  0  0  0  0  0  0  0  0  0  0
    6.0795    2.3537   -2.1465 H   0  0  0  0  0  0  0  0  0  0  0  0
    8.3516    1.4769   -1.6424 H   0  0  0  0  0  0  0  0  0  0  0  0
    9.8391    0.0851   -0.2576 H   0  0  0  0  0  0  0  0  0  0  0  0
    8.9237   -1.2105    1.6485 H   0  0  0  0  0  0  0  0  0  0  0  0
    6.5184   -1.1171    2.1724 H   0  0  0  0  0  0  0  0  0  0  0  0
    4.2420   -0.2525    1.6708 H   0  0  0  0  0  0  0  0  0  0  0  0
    0.3569   -1.9712    0.9634 H   0  0  0  0  0  0  0  0  0  0  0  0
    0.2860   -0.4711    1.8523 H   0  0  0  0  0  0  0  0  0  0  0  0
   -3.9836    0.3832    2.5878 H   0  0  0  0  0  0  0  0  0  0  0  0
   -5.9652   -1.0157    3.1377 H   0  0  0  0  0  0  0  0  0  0  0  0
   -6.1150    0.6546    3.6947 H   0  0  0  0  0  0  0  0  0  0  0  0
   -7.0114    0.1232    2.2711 H   0  0  0  0  0  0  0  0  0  0  0  0
   -5.0754    2.5473    2.3455 H   0  0  0  0  0  0  0  0  0  0  0  0
   -4.1284    2.1988    0.8980 H   0  0  0  0  0  0  0  0  0  0  0  0
   -5.8932    2.0400    0.8660 H   0  0  0  0  0  0  0  0  0  0  0  0
  1  2  1  0
  2  3  1  0
  3  4  2  0
  3  5  1  0
  5  6  1  0
  6  7  1  0
  7  8  2  0
  7  9  1  0
  9 10  1  0
 10 11  1  0
 11 12  1  0
 12 13  1  0
 13 14  1  0
 14 15  2  0
 14 16  2  0
 14 17  1  0
 17 18  1  0
 18 19  2  0
 19 20  1  0
 20 21  2  0
 21 22  1  0
 22 23  2  0
 23 24  1  0
 24 25  2  0
 25 26  1  0
 13 27  1  0
  5 28  1  0
 28 29  1  0
 28 30  1  0
 27  9  1  0
 26 17  2  0
 25 20  1  0
  1 31  1  0
  1 32  1  0
  1 33  1  0
  2 34  1  0
  5 35  1  1
  6 36  1  0
  9 37  1  0
 10 38  1  0
 10 39  1  0
 11 40  1  0
 11 41  1  0
 12 42  1  0
 12 43  1  0
 18 44  1  0
 19 45  1  0
 21 46  1  0
 22 47  1  0
 23 48  1  0
 24 49  1  0
 26 50  1  0
 27 51  1  0
 27 52  1  0
 28 53  1  0
 29 54  1  0
 29 55  1  0
 29 56  1  0
 30 57  1  0
 30 58  1  0
 30 59  1  0
M  END
$$$$
OCNT-2310380
     RDKit          3D

 44 48  0  0  0  0  0  0  0  0999 V2000
    4.0241    0.8024    3.6702 C   0  0  0  0  0  0  0  0  0  0  0  0
    2.7132    0.8729    3.2282 C   0  0  0  0  0  0  0  0  0  0  0  0
    2.3696    0.3914    1.9604 C   0  0  0  0  0  0  0  0  0  0  0  0
    3.3467   -0.1847    1.1028 C   0  0  0  0  0  0  0  0  0  0  0  0
    4.6652   -0.2162    1.5718 C   0  0  0  0  0  0  0  0  0  0  0  0
    5.0154    0.2635    2.8506 C   0  0  0  0  0  0  0  0  0  0  0  0
    5.7360   -0.8814    0.4065 S   0  0  0  0  0  0  0  0  0  0  0  0
    4.4853   -1.1284   -0.7112 C   0  0  0  0  0  0  0  0  0  0  0  0
    4.7657   -1.6453   -1.9186 N   0  0  0  0  0  0  0  0  0  0  0  0
    3.6789   -1.7795   -2.6757 C   0  0  0  0  0  0  0  0  0  0  0  0
    2.4148   -1.4917   -2.3399 N   0  0  0  0  0  0  0  0  0  0  0  0
    2.1519   -0.9990   -1.1077 C   0  0  0  0  0  0  0  0  0  0  0  0
    0.8241   -0.7502   -0.7356 N   0  0  0  0  0  0  0  0  0  0  0  0
   -0.1985   -1.3093   -1.6237 C   0  0  0  0  0  0  0  0  0  0  0  0
   -1.6080   -0.8780   -1.1757 C   0  0  0  0  0  0  0  0  0  0  0  0
   -1.8470    0.6240   -1.4435 C   0  0  0  0  0  0  0  0  0  0  0  0
   -3.1864    1.0770   -1.0116 N   0  0  0  0  0  0  0  0  0  0  0  0
   -3.1564    2.0230    0.1125 C   0  0  0  0  0  0  0  0  0  0  0  0
   -4.2426    2.1216    1.1468 C   0  0  0  0  0  0  0  0  0  0  0  0
   -2.8985    1.5639    1.5217 C   0  0  0  0  0  0  0  0  0  0  0  0
   -4.1518   -0.0299   -0.9555 C   0  0  0  0  0  0  0  0  0  0  0  0
   -3.8467   -1.0834   -2.0289 C   0  0  0  0  0  0  0  0  0  0  0  0
   -2.5713   -1.7153   -1.8494 O   0  0  0  0  0  0  0  0  0  0  0  0
    3.2387   -0.7618   -0.2312 C   0  0  0  0  0  0  0  0  0  0  0  0
    4.2868    1.1795    4.6559 H   0  0  0  0  0  0  0  0  0  0  0  0
    1.9481    1.3109    3.8650 H   0  0  0  0  0  0  0  0  0  0  0  0
    1.3377    0.4892    1.6346 H   0  0  0  0  0  0  0  0  0  0  0  0
    6.0464    0.2230    3.1926 H   0  0  0  0  0  0  0  0  0  0  0  0
    3.8316   -2.1731   -3.6757 H   0  0  0  0  0  0  0  0  0  0  0  0
    0.6923   -1.0169    0.2353 H   0  0  0  0  0  0  0  0  0  0  0  0
   -0.1386   -2.4055   -1.6139 H   0  0  0  0  0  0  0  0  0  0  0  0
   -0.0473   -0.9884   -2.6626 H   0  0  0  0  0  0  0  0  0  0  0  0
   -1.7100   -1.0785   -0.1008 H   0  0  0  0  0  0  0  0  0  0  0  0
   -1.0608    1.2294   -0.9765 H   0  0  0  0  0  0  0  0  0  0  0  0
   -1.7815    0.8093   -2.5233 H   0  0  0  0  0  0  0  0  0  0  0  0
   -2.7028    2.9762   -0.1630 H   0  0  0  0  0  0  0  0  0  0  0  0
   -4.5003    3.1115    1.5078 H   0  0  0  0  0  0  0  0  0  0  0  0
   -5.0850    1.4432    1.1180 H   0  0  0  0  0  0  0  0  0  0  0  0
   -2.8304    0.5039    1.7303 H   0  0  0  0  0  0  0  0  0  0  0  0
   -2.2497    2.1758    2.1380 H   0  0  0  0  0  0  0  0  0  0  0  0
   -5.1639    0.3603   -1.1076 H   0  0  0  0  0  0  0  0  0  0  0  0
   -4.1193   -0.5250    0.0222 H   0  0  0  0  0  0  0  0  0  0  0  0
   -4.6063   -1.8716   -2.0084 H   0  0  0  0  0  0  0  0  0  0  0  0
   -3.8692   -0.6388   -3.0310 H   0  0  0  0  0  0  0  0  0  0  0  0
  1  2  2  0
  2  3  1  0
  3  4  2  0
  4  5  1  0
  5  6  2  0
  5  7  1  0
  7  8  1  0
  8  9  2  0
  9 10  1  0
 10 11  2  0
 11 12  1  0
 12 13  1  0
 13 14  1  0
 14 15  1  0
 15 16  1  0
 16 17  1  0
 17 18  1  0
 18 19  1  0
 19 20  1  0
 17 21  1  0
 21 22  1  0
 22 23  1  0
 12 24  2  0
  6  1  1  0
 24  8  1  0
 24  4  1  0
 23 15  1  0
 20 18  1  0
  1 25  1  0
  2 26  1  0
  3 27  1  0
  6 28  1  0
 10 29  1  0
 13 30  1  0
 14 31  1  0
 14 32  1  0
 15 33  1  0
 16 34  1  0
 16 35  1  0
 18 36  1  0
 19 37  1  0
 19 38  1  0
 20 39  1  0
 20 40  1  0
 21 41  1  0
 21 42  1  0
 22 43  1  0
 22 44  1  0
M  END
$$$$
OCNT-2310393
     RDKit          3D

 56 59  0  0  0  0  0  0  0  0999 V2000
   -1.6894    2.8037    2.4298 C   0  0  0  0  0  0  0  0  0  0  0  0
   -2.1877    1.7362    1.4405 C   0  0  1  0  0  0  0  0  0  0  0  0
   -3.2185    2.4073    0.4936 C   0  0  0  0  0  0  0  0  0  0  0  0
   -4.0265    1.4817   -0.3203 N   0  0  0  0  0  0  0  0  0  0  0  0
   -5.3587    1.9669   -0.6881 C   0  0  0  0  0  0  0  0  0  0  0  0
   -3.5332    0.3509   -0.9660 C   0  0  0  0  0  0  0  0  0  0  0  0
   -4.4274   -0.6286   -1.4548 C   0  0  0  0  0  0  0  0  0  0  0  0
   -4.0010   -1.8030   -2.0847 C   0  0  0  0  0  0  0  0  0  0  0  0
   -2.6483   -2.0475   -2.2423 C   0  0  0  0  0  0  0  0  0  0  0  0
   -1.7339   -1.1125   -1.7743 C   0  0  0  0  0  0  0  0  0  0  0  0
   -2.1597    0.0836   -1.1493 C   0  0  0  0  0  0  0  0  0  0  0  0
   -1.0884    1.0390   -0.6910 C   0  0  0  0  0  0  0  0  0  0  0  0
   -1.0292    1.1100    0.7656 N   0  0  0  0  0  0  0  0  0  0  0  0
   -0.2689    0.2107    1.5274 C   0  0  0  0  0  0  0  0  0  0  0  0
   -0.5504   -0.0477    2.6962 O   0  0  0  0  0  0  0  0  0  0  0  0
    0.8157   -0.3160    0.8732 N   0  0  0  0  0  0  0  0  0  0  0  0
    1.6739   -1.3510    1.2969 C   0  0  0  0  0  0  0  0  0  0  0  0
    1.3782   -2.2252    2.3452 C   0  0  0  0  0  0  0  0  0  0  0  0
    2.2804   -3.2349    2.6811 C   0  0  0  0  0  0  0  0  0  0  0  0
    3.4642   -3.3657    1.9656 C   0  0  0  0  0  0  0  0  0  0  0  0
    4.3282   -4.3351    2.2949 F   0  0  0  0  0  0  0  0  0  0  0  0
    3.7711   -2.5098    0.9124 C   0  0  0  0  0  0  0  0  0  0  0  0
    2.8771   -1.4925    0.5575 C   0  0  0  0  0  0  0  0  0  0  0  0
    3.1288   -0.5691   -0.4957 N   0  0  0  0  0  0  0  0  0  0  0  0
    4.2040    0.3879   -0.1281 C   0  0  0  0  0  0  0  0  0  0  0  0
    4.3694    1.4164   -1.2600 C   0  0  0  0  0  0  0  0  0  0  0  0
    4.6598    0.7758   -2.5151 O   0  0  0  0  0  0  0  0  0  0  0  0
    3.6071   -0.1384   -2.8696 C   0  0  0  0  0  0  0  0  0  0  0  0
    3.4241   -1.2227   -1.7939 C   0  0  0  0  0  0  0  0  0  0  0  0
   -1.1577    3.6041    1.9034 H   0  0  0  0  0  0  0  0  0  0  0  0
   -2.5256    3.2511    2.9772 H   0  0  0  0  0  0  0  0  0  0  0  0
   -1.0007    2.3883    3.1716 H   0  0  0  0  0  0  0  0  0  0  0  0
   -2.7063    0.9526    2.0087 H   0  0  0  0  0  0  0  0  0  0  0  0
   -2.7476    3.1561   -0.1545 H   0  0  0  0  0  0  0  0  0  0  0  0
   -3.9123    2.9711    1.1325 H   0  0  0  0  0  0  0  0  0  0  0  0
   -5.5073    3.0089   -0.3814 H   0  0  0  0  0  0  0  0  0  0  0  0
   -6.1351    1.3725   -0.1945 H   0  0  0  0  0  0  0  0  0  0  0  0
   -5.5099    1.9400   -1.7735 H   0  0  0  0  0  0  0  0  0  0  0  0
   -5.4995   -0.5101   -1.3223 H   0  0  0  0  0  0  0  0  0  0  0  0
   -4.7326   -2.5276   -2.4309 H   0  0  0  0  0  0  0  0  0  0  0  0
   -2.3060   -2.9637   -2.7143 H   0  0  0  0  0  0  0  0  0  0  0  0
   -0.6718   -1.3227   -1.8865 H   0  0  0  0  0  0  0  0  0  0  0  0
   -0.1244    0.7417   -1.1119 H   0  0  0  0  0  0  0  0  0  0  0  0
   -1.2511    2.0381   -1.1085 H   0  0  0  0  0  0  0  0  0  0  0  0
    1.2301    0.2265    0.1272 H   0  0  0  0  0  0  0  0  0  0  0  0
    0.4514   -2.1443    2.9054 H   0  0  0  0  0  0  0  0  0  0  0  0
    2.0628   -3.9184    3.4954 H   0  0  0  0  0  0  0  0  0  0  0  0
    4.7115   -2.6480    0.3920 H   0  0  0  0  0  0  0  0  0  0  0  0
    5.1539   -0.1430    0.0147 H   0  0  0  0  0  0  0  0  0  0  0  0
    3.9502    0.9118    0.8014 H   0  0  0  0  0  0  0  0  0  0  0  0
    3.4635    2.0240   -1.3743 H   0  0  0  0  0  0  0  0  0  0  0  0
    5.2003    2.0913   -1.0318 H   0  0  0  0  0  0  0  0  0  0  0  0
    2.6806    0.4281   -3.0201 H   0  0  0  0  0  0  0  0  0  0  0  0
    3.8778   -0.6013   -3.8236 H   0  0  0  0  0  0  0  0  0  0  0  0
    2.5986   -1.8840   -2.0816 H   0  0  0  0  0  0  0  0  0  0  0  0
    4.3459   -1.8135   -1.7320 H   0  0  0  0  0  0  0  0  0  0  0  0
  1  2  1  0
  2  3  1  0
  3  4  1  0
  4  5  1  0
  4  6  1  0
  6  7  2  0
  7  8  1  0
  8  9  2  0
  9 10  1  0
 10 11  2  0
 11 12  1  0
 12 13  1  0
 13 14  1  0
 14 15  2  0
 14 16  1  0
 16 17  1  0
 17 18  1  0
 18 19  2  0
 19 20  1  0
 20 21  1  0
 20 22  2  0
 22 23  1  0
 23 24  1  0
 24 25  1  0
 25 26  1  0
 26 27  1  0
 27 28  1  0
 28 29  1  0
 13  2  1  0
 23 17  2  0
 29 24  1  0
 11  6  1  0
  1 30  1  0
  1 31  1  0
  1 32  1  0
  2 33  1  1
  3 34  1  0
  3 35  1  0
  5 36  1  0
  5 37  1  0
  5 38  1  0
  7 39  1  0
  8 40  1  0
  9 41  1  0
 10 42  1  0
 12 43  1  0
 12 44  1  0
 16 45  1  0
 18 46  1  0
 19 47  1  0
 22 48  1  0
 25 49  1  0
 25 50  1  0
 26 51  1  0
 26 52  1  0
 28 53  1  0
 28 54  1  0
 29 55  1  0
 29 56  1  0
M  END
$$$$
OCNT-2310396
     RDKit          3D

 54 57  0  0  0  0  0  0  0  0999 V2000
   -8.2954    1.4405   -1.2413 C   0  0  0  0  0  0  0  0  0  0  0  0
   -6.8742    1.4303   -0.7620 C   0  0  0  0  0  0  0  0  0  0  0  0
   -6.0576    2.5507   -0.9328 C   0  0  0  0  0  0  0  0  0  0  0  0
   -4.7473    2.5422   -0.4589 C   0  0  0  0  0  0  0  0  0  0  0  0
   -4.2430    1.4190    0.1997 C   0  0  0  0  0  0  0  0  0  0  0  0
   -5.0450    0.2881    0.4020 C   0  0  0  0  0  0  0  0  0  0  0  0
   -4.5575   -0.9705    1.1036 C   0  0  0  0  0  0  0  0  0  0  0  0
   -4.1164   -2.0343    0.0853 C   0  0  0  0  0  0  0  0  0  0  0  0
   -2.6473   -1.7127   -0.1609 C   0  0  0  0  0  0  0  0  0  0  0  0
   -2.1863   -1.1349    1.0905 N   0  0  0  0  0  0  0  0  0  0  0  0
   -0.8836   -0.8344    1.4445 C   0  0  0  0  0  0  0  0  0  0  0  0
   -0.6195   -0.3346    2.5376 O   0  0  0  0  0  0  0  0  0  0  0  0
    0.1879   -1.1655    0.3968 C   0  0  0  0  0  0  0  0  0  0  0  0
    1.4751   -0.7214    0.8017 O   0  0  0  0  0  0  0  0  0  0  0  0
    2.5181   -0.9524   -0.0539 C   0  0  0  0  0  0  0  0  0  0  0  0
    2.4371   -1.6140   -1.2791 C   0  0  0  0  0  0  0  0  0  0  0  0
    3.5837   -1.7843   -2.0554 C   0  0  0  0  0  0  0  0  0  0  0  0
    4.8118   -1.2942   -1.6092 C   0  0  0  0  0  0  0  0  0  0  0  0
    4.9092   -0.6279   -0.3823 C   0  0  0  0  0  0  0  0  0  0  0  0
    6.1853   -0.1633   -0.0060 N   0  0  0  0  0  0  0  0  0  0  0  0
    6.5279    0.5199    1.1388 C   0  0  0  0  0  0  0  0  0  0  0  0
    5.8099    0.8484    2.0691 O   0  0  0  0  0  0  0  0  0  0  0  0
    7.9821    0.8442    1.2005 C   0  0  0  0  0  0  0  0  0  0  0  0
    8.6624    1.6226    0.0970 C   0  0  0  0  0  0  0  0  0  0  0  0
    8.4166    2.2745    1.4249 C   0  0  0  0  0  0  0  0  0  0  0  0
    3.7554   -0.4630    0.3876 C   0  0  0  0  0  0  0  0  0  0  0  0
   -3.3016   -0.8370    1.9791 C   0  0  0  0  0  0  0  0  0  0  0  0
   -6.3646    0.3125   -0.0866 C   0  0  0  0  0  0  0  0  0  0  0  0
   -8.9661    1.7078   -0.4192 H   0  0  0  0  0  0  0  0  0  0  0  0
   -8.4326    2.1612   -2.0542 H   0  0  0  0  0  0  0  0  0  0  0  0
   -8.5793    0.4566   -1.6287 H   0  0  0  0  0  0  0  0  0  0  0  0
   -6.4355    3.4378   -1.4359 H   0  0  0  0  0  0  0  0  0  0  0  0
   -4.1147    3.4154   -0.5988 H   0  0  0  0  0  0  0  0  0  0  0  0
   -3.2137    1.4529    0.5493 H   0  0  0  0  0  0  0  0  0  0  0  0
   -5.3825   -1.3404    1.7256 H   0  0  0  0  0  0  0  0  0  0  0  0
   -4.1941   -3.0270    0.5476 H   0  0  0  0  0  0  0  0  0  0  0  0
   -4.6978   -2.0510   -0.8417 H   0  0  0  0  0  0  0  0  0  0  0  0
   -2.0633   -2.6003   -0.4199 H   0  0  0  0  0  0  0  0  0  0  0  0
   -2.5240   -0.9632   -0.9498 H   0  0  0  0  0  0  0  0  0  0  0  0
    0.1950   -2.2549    0.2747 H   0  0  0  0  0  0  0  0  0  0  0  0
   -0.0947   -0.6661   -0.5373 H   0  0  0  0  0  0  0  0  0  0  0  0
    1.5019   -2.0101   -1.6585 H   0  0  0  0  0  0  0  0  0  0  0  0
    3.5208   -2.3005   -3.0100 H   0  0  0  0  0  0  0  0  0  0  0  0
    5.6884   -1.4413   -2.2346 H   0  0  0  0  0  0  0  0  0  0  0  0
    6.9402   -0.3495   -0.6519 H   0  0  0  0  0  0  0  0  0  0  0  0
    8.5652    0.0905    1.7208 H   0  0  0  0  0  0  0  0  0  0  0  0
    8.0731    1.9756   -0.7419 H   0  0  0  0  0  0  0  0  0  0  0  0
    9.6833    1.3597   -0.1548 H   0  0  0  0  0  0  0  0  0  0  0  0
    9.2627    2.4468    2.0798 H   0  0  0  0  0  0  0  0  0  0  0  0
    7.6459    3.0354    1.4908 H   0  0  0  0  0  0  0  0  0  0  0  0
    3.7828    0.0465    1.3469 H   0  0  0  0  0  0  0  0  0  0  0  0
   -3.2951   -1.6109    2.7566 H   0  0  0  0  0  0  0  0  0  0  0  0
   -3.1820    0.1345    2.4681 H   0  0  0  0  0  0  0  0  0  0  0  0
   -7.0075   -0.5541    0.0617 H   0  0  0  0  0  0  0  0  0  0  0  0
  1  2  1  0
  2  3  1  0
  3  4  2  0
  4  5  1  0
  5  6  2  0
  6  7  1  0
  7  8  1  0
  8  9  1  0
  9 10  1  0
 10 11  1  0
 11 12  2  0
 11 13  1  0
 13 14  1  0
 14 15  1  0
 15 16  1  0
 16 17  2  0
 17 18  1  0
 18 19  2  0
 19 20  1  0
 20 21  1  0
 21 22  2  0
 21 23  1  0
 23 24  1  0
 24 25  1  0
 19 26  1  0
 10 27  1  0
  6 28  1  0
 28  2  2  0
 27  7  1  0
 26 15  2  0
 25 23  1  0
  1 29  1  0
  1 30  1  0
  1 31  1  0
  3 32  1  0
  4 33  1  0
  5 34  1  0
  7 35  1  0
  8 36  1  0
  8 37  1  0
  9 38  1  0
  9 39  1  0
 13 40  1  0
 13 41  1  0
 16 42  1  0
 17 43  1  0
 18 44  1  0
 20 45  1  0
 23 46  1  0
 24 47  1  0
 24 48  1  0
 25 49  1  0
 25 50  1  0
 26 51  1  0
 27 52  1  0
 27 53  1  0
 28 54  1  0
M  END
$$$$
OCNT-2310409
     RDKit          3D

 43 46  0  0  0  0  0  0  0  0999 V2000
   -1.6667    0.5236   -3.1548 O   0  0  0  0  0  0  0  0  0  0  0  0
   -1.5136    0.2971   -1.9605 C   0  0  0  0  0  0  0  0  0  0  0  0
   -0.3320    0.2291   -1.2652 N   0  0  0  0  0  0  0  0  0  0  0  0
    0.9370    0.3954   -1.7376 C   0  0  0  0  0  0  0  0  0  0  0  0
    1.9788    0.2990   -0.9447 N   0  0  0  0  0  0  0  0  0  0  0  0
    3.1476    0.5074   -1.6614 C   0  0  0  0  0  0  0  0  0  0  0  0
    4.4674    0.4419   -0.9462 C   0  0  0  0  0  0  0  0  0  0  0  0
    4.7229   -0.9445   -0.3432 C   0  0  0  0  0  0  0  0  0  0  0  0
    6.0342   -0.9509    0.4293 C   0  0  0  0  0  0  0  0  0  0  0  0
    6.0387    0.0614    1.4343 O   0  0  0  0  0  0  0  0  0  0  0  0
    5.9005    1.3722    0.8888 C   0  0  0  0  0  0  0  0  0  0  0  0
    4.5814    1.5148    0.1433 C   0  0  0  0  0  0  0  0  0  0  0  0
    2.9535    0.7616   -3.0063 C   0  0  0  0  0  0  0  0  0  0  0  0
    1.2805    0.7369   -3.3694 S   0  0  0  0  0  0  0  0  0  0  0  0
   -2.6676    0.0543   -1.0736 C   0  0  0  0  0  0  0  0  0  0  0  0
   -2.5107   -0.1986    0.2445 N   0  0  0  0  0  0  0  0  0  0  0  0
   -3.7680   -0.3530    0.6945 N   0  0  0  0  0  0  0  0  0  0  0  0
   -4.0191   -0.7074    2.0795 C   0  0  0  0  0  0  0  0  0  0  0  0
   -5.4894   -0.5295    2.4598 C   0  0  0  0  0  0  0  0  0  0  0  0
   -6.4085   -1.0785    1.3653 C   0  0  0  0  0  0  0  0  0  0  0  0
   -6.1753   -0.3519    0.0365 C   0  0  0  0  0  0  0  0  0  0  0  0
   -4.7250   -0.2251   -0.2728 C   0  0  0  0  0  0  0  0  0  0  0  0
   -4.0411    0.0452   -1.4354 C   0  0  0  0  0  0  0  0  0  0  0  0
   -0.4096    0.0290   -0.2736 H   0  0  0  0  0  0  0  0  0  0  0  0
    5.2596    0.6336   -1.6845 H   0  0  0  0  0  0  0  0  0  0  0  0
    3.9056   -1.2041    0.3425 H   0  0  0  0  0  0  0  0  0  0  0  0
    4.7433   -1.7109   -1.1268 H   0  0  0  0  0  0  0  0  0  0  0  0
    6.1674   -1.9161    0.9280 H   0  0  0  0  0  0  0  0  0  0  0  0
    6.8911   -0.8039   -0.2387 H   0  0  0  0  0  0  0  0  0  0  0  0
    6.7536    1.5852    0.2339 H   0  0  0  0  0  0  0  0  0  0  0  0
    5.9373    2.0843    1.7193 H   0  0  0  0  0  0  0  0  0  0  0  0
    4.5000    2.5183   -0.2903 H   0  0  0  0  0  0  0  0  0  0  0  0
    3.7557    1.4028    0.8581 H   0  0  0  0  0  0  0  0  0  0  0  0
    3.6907    0.9550   -3.7718 H   0  0  0  0  0  0  0  0  0  0  0  0
   -3.3786   -0.0834    2.7113 H   0  0  0  0  0  0  0  0  0  0  0  0
   -3.7159   -1.7546    2.1906 H   0  0  0  0  0  0  0  0  0  0  0  0
   -5.7044    0.5363    2.6085 H   0  0  0  0  0  0  0  0  0  0  0  0
   -5.6886   -1.0336    3.4118 H   0  0  0  0  0  0  0  0  0  0  0  0
   -7.4570   -0.9709    1.6647 H   0  0  0  0  0  0  0  0  0  0  0  0
   -6.2183   -2.1520    1.2386 H   0  0  0  0  0  0  0  0  0  0  0  0
   -6.6114    0.6531    0.0898 H   0  0  0  0  0  0  0  0  0  0  0  0
   -6.6904   -0.8870   -0.7691 H   0  0  0  0  0  0  0  0  0  0  0  0
   -4.4556    0.2185   -2.4194 H   0  0  0  0  0  0  0  0  0  0  0  0
  1  2  2  0
  2  3  1  0
  3  4  1  0
  4  5  2  0
  5  6  1  0
  6  7  1  0
  7  8  1  0
  8  9  1  0
  9 10  1  0
 10 11  1  0
 11 12  1  0
  6 13  2  0
 13 14  1  0
  2 15  1  0
 15 16  2  0
 16 17  1  0
 17 18  1  0
 18 19  1  0
 19 20  1  0
 20 21  1  0
 21 22  1  0
 22 23  2  0
 14  4  1  0
 23 15  1  0
 12  7  1  0
 22 17  1  0
  3 24  1  0
  7 25  1  0
  8 26  1  0
  8 27  1  0
  9 28  1  0
  9 29  1  0
 11 30  1  0
 11 31  1  0
 12 32  1  0
 12 33  1  0
 13 34  1  0
 18 35  1  0
 18 36  1  0
 19 37  1  0
 19 38  1  0
 20 39  1  0
 20 40  1  0
 21 41  1  0
 21 42  1  0
 23 43  1  0
M  END
$$$$
OCNT-2310411
     RDKit          3D

 42 45  0  0  0  0  0  0  0  0999 V2000
    8.0385   -0.9979    0.6607 C   0  0  0  0  0  0  0  0  0  0  0  0
    6.8397   -0.8381   -0.1181 N   0  0  0  0  0  0  0  0  0  0  0  0
    6.9018   -0.9622   -1.4570 N   0  0  0  0  0  0  0  0  0  0  0  0
    5.6767   -0.7841   -1.9329 N   0  0  0  0  0  0  0  0  0  0  0  0
    4.8423   -0.5412   -0.8765 C   0  0  0  0  0  0  0  0  0  0  0  0
    3.4627   -0.2926   -0.8511 C   0  0  0  0  0  0  0  0  0  0  0  0
    2.8528   -0.0651    0.3930 C   0  0  0  0  0  0  0  0  0  0  0  0
    1.3905    0.2044    0.5004 C   0  0  0  0  0  0  0  0  0  0  0  0
    0.7973   -0.2016    1.4939 O   0  0  0  0  0  0  0  0  0  0  0  0
    0.8506    0.9351   -0.5420 N   0  0  0  0  0  0  0  0  0  0  0  0
   -0.4861    1.2714   -0.6637 C   0  0  0  0  0  0  0  0  0  0  0  0
   -1.5381    0.9284    0.1492 C   0  0  0  0  0  0  0  0  0  0  0  0
   -2.6581    1.4751   -0.4133 N   0  0  0  0  0  0  0  0  0  0  0  0
   -4.0071    1.4269    0.1256 C   0  0  0  0  0  0  0  0  0  0  0  0
   -4.5852    0.0143    0.1729 C   0  0  0  0  0  0  0  0  0  0  0  0
   -5.8326   -0.0709    1.0414 C   0  0  0  0  0  0  0  0  0  0  0  0
   -6.5200   -1.2856    0.4709 C   0  0  0  0  0  0  0  0  0  0  0  0
   -6.2454   -1.1337   -1.0094 C   0  0  0  0  0  0  0  0  0  0  0  0
   -5.0024   -0.4282   -1.1335 O   0  0  0  0  0  0  0  0  0  0  0  0
   -2.3917    2.2162   -1.5086 N   0  0  0  0  0  0  0  0  0  0  0  0
   -1.0759    2.0615   -1.6755 C   0  0  0  0  0  0  0  0  0  0  0  0
    3.6042   -0.1168    1.5781 C   0  0  0  0  0  0  0  0  0  0  0  0
    4.9823   -0.3668    1.5636 C   0  0  0  0  0  0  0  0  0  0  0  0
    5.5668   -0.5702    0.3103 C   0  0  0  0  0  0  0  0  0  0  0  0
    8.7982   -0.3140    0.2736 H   0  0  0  0  0  0  0  0  0  0  0  0
    8.3743   -2.0337    0.5665 H   0  0  0  0  0  0  0  0  0  0  0  0
    7.8376   -0.7664    1.7085 H   0  0  0  0  0  0  0  0  0  0  0  0
    2.9060   -0.3119   -1.7803 H   0  0  0  0  0  0  0  0  0  0  0  0
    1.4625    1.3105   -1.2542 H   0  0  0  0  0  0  0  0  0  0  0  0
   -1.5887    0.3433    1.0565 H   0  0  0  0  0  0  0  0  0  0  0  0
   -3.9426    1.8569    1.1319 H   0  0  0  0  0  0  0  0  0  0  0  0
   -4.6319    2.0816   -0.4932 H   0  0  0  0  0  0  0  0  0  0  0  0
   -3.8419   -0.7086    0.5313 H   0  0  0  0  0  0  0  0  0  0  0  0
   -5.6024   -0.1633    2.1064 H   0  0  0  0  0  0  0  0  0  0  0  0
   -6.4690    0.8115    0.9011 H   0  0  0  0  0  0  0  0  0  0  0  0
   -6.0410   -2.1965    0.8493 H   0  0  0  0  0  0  0  0  0  0  0  0
   -7.5866   -1.3388    0.7039 H   0  0  0  0  0  0  0  0  0  0  0  0
   -7.0193   -0.5314   -1.4966 H   0  0  0  0  0  0  0  0  0  0  0  0
   -6.1765   -2.0960   -1.5243 H   0  0  0  0  0  0  0  0  0  0  0  0
   -0.6026    2.5405   -2.5218 H   0  0  0  0  0  0  0  0  0  0  0  0
    3.1071    0.0411    2.5358 H   0  0  0  0  0  0  0  0  0  0  0  0
    5.5531   -0.4031    2.4854 H   0  0  0  0  0  0  0  0  0  0  0  0
  1  2  1  0
  2  3  1  0
  3  4  2  0
  4  5  1  0
  5  6  2  0
  6  7  1  0
  7  8  1  0
  8  9  2  0
  8 10  1  0
 10 11  1  0
 11 12  2  0
 12 13  1  0
 13 14  1  0
 14 15  1  0
 15 16  1  0
 16 17  1  0
 17 18  1  0
 18 19  1  0
 13 20  1  0
 20 21  2  0
  7 22  2  0
 22 23  1  0
 23 24  2  0
 24  2  1  0
 24  5  1  0
 21 11  1  0
 19 15  1  0
  1 25  1  0
  1 26  1  0
  1 27  1  0
  6 28  1  0
 10 29  1  0
 12 30  1  0
 14 31  1  0
 14 32  1  0
 15 33  1  0
 16 34  1  0
 16 35  1  0
 17 36  1  0
 17 37  1  0
 18 38  1  0
 18 39  1  0
 21 40  1  0
 22 41  1  0
 23 42  1  0
M  END
$$$$
OCNT-2310423
     RDKit          3D

 44 47  0  0  0  0  0  0  0  0999 V2000
   -6.5688    0.6930   -3.1153 C   0  0  0  0  0  0  0  0  0  0  0  0
   -5.8580    0.3554   -1.8502 C   0  0  0  0  0  0  0  0  0  0  0  0
   -5.6904   -0.8817   -1.2643 C   0  0  0  0  0  0  0  0  0  0  0  0
   -4.9509   -0.8061   -0.0497 C   0  0  0  0  0  0  0  0  0  0  0  0
   -4.5758    0.4869    0.2577 C   0  0  0  0  0  0  0  0  0  0  0  0
   -3.7912    0.9639    1.4401 C   0  0  0  0  0  0  0  0  0  0  0  0
   -2.3800    0.8191    1.1493 N   0  0  0  0  0  0  0  0  0  0  0  0
   -1.7078   -0.3185    1.5072 C   0  0  0  0  0  0  0  0  0  0  0  0
   -2.2500   -1.2252    2.1347 O   0  0  0  0  0  0  0  0  0  0  0  0
   -0.3739   -0.3595    1.1474 N   0  0  0  0  0  0  0  0  0  0  0  0
    0.3953    0.7418    0.5512 C   0  0  0  0  0  0  0  0  0  0  0  0
    1.6649    0.2765   -0.1923 C   0  0  0  0  0  0  0  0  0  0  0  0
    2.5048   -0.6301    0.6118 N   0  0  0  0  0  0  0  0  0  0  0  0
    3.8591   -0.3028    0.7117 C   0  0  0  0  0  0  0  0  0  0  0  0
    4.4261   -0.2127    1.9416 N   0  0  0  0  0  0  0  0  0  0  0  0
    5.7239    0.1016    2.0532 C   0  0  0  0  0  0  0  0  0  0  0  0
    6.5879    0.3419    1.0681 N   0  0  0  0  0  0  0  0  0  0  0  0
    6.0545    0.2173   -0.1698 C   0  0  0  0  0  0  0  0  0  0  0  0
    4.7161   -0.1033   -0.3923 C   0  0  0  0  0  0  0  0  0  0  0  0
    4.4093   -0.2242   -2.0904 S   0  0  0  0  0  0  0  0  0  0  0  0
    6.0134    0.1878   -2.4978 C   0  0  0  0  0  0  0  0  0  0  0  0
    6.7869    0.3942   -1.3810 C   0  0  0  0  0  0  0  0  0  0  0  0
    1.8929   -1.1604    1.8421 C   0  0  0  0  0  0  0  0  0  0  0  0
    0.4172   -1.5134    1.5972 C   0  0  0  0  0  0  0  0  0  0  0  0
   -5.1182    1.5943   -0.9307 S   0  0  0  0  0  0  0  0  0  0  0  0
   -6.9577   -0.2093   -3.5986 H   0  0  0  0  0  0  0  0  0  0  0  0
   -5.8933    1.1863   -3.8224 H   0  0  0  0  0  0  0  0  0  0  0  0
   -7.4153    1.3589   -2.9180 H   0  0  0  0  0  0  0  0  0  0  0  0
   -6.0771   -1.8020   -1.6850 H   0  0  0  0  0  0  0  0  0  0  0  0
   -4.6962   -1.6586    0.5714 H   0  0  0  0  0  0  0  0  0  0  0  0
   -4.0628    0.4024    2.3404 H   0  0  0  0  0  0  0  0  0  0  0  0
   -3.9729    2.0253    1.6393 H   0  0  0  0  0  0  0  0  0  0  0  0
   -2.0950    1.2488    0.2871 H   0  0  0  0  0  0  0  0  0  0  0  0
    0.6698    1.4126    1.3748 H   0  0  0  0  0  0  0  0  0  0  0  0
   -0.2224    1.3156   -0.1439 H   0  0  0  0  0  0  0  0  0  0  0  0
    2.2082    1.1750   -0.5093 H   0  0  0  0  0  0  0  0  0  0  0  0
    1.3607   -0.2651   -1.0962 H   0  0  0  0  0  0  0  0  0  0  0  0
    6.1143    0.1689    3.0638 H   0  0  0  0  0  0  0  0  0  0  0  0
    6.3165    0.2497   -3.5342 H   0  0  0  0  0  0  0  0  0  0  0  0
    7.8372    0.6520   -1.4172 H   0  0  0  0  0  0  0  0  0  0  0  0
    2.4216   -2.0662    2.1630 H   0  0  0  0  0  0  0  0  0  0  0  0
    1.9514   -0.4212    2.6520 H   0  0  0  0  0  0  0  0  0  0  0  0
    0.3363   -2.2730    0.8104 H   0  0  0  0  0  0  0  0  0  0  0  0
   -0.0105   -1.9358    2.5126 H   0  0  0  0  0  0  0  0  0  0  0  0
  1  2  1  0
  2  3  2  0
  3  4  1  0
  4  5  2  0
  5  6  1  0
  6  7  1  0
  7  8  1  0
  8  9  2  0
  8 10  1  0
 10 11  1  0
 11 12  1  0
 12 13  1  0
 13 14  1  0
 14 15  1  0
 15 16  2  0
 16 17  1  0
 17 18  2  0
 18 19  1  0
 19 20  1  0
 20 21  1  0
 21 22  2  0
 13 23  1  0
 23 24  1  0
  5 25  1  0
 25  2  1  0
 24 10  1  0
 19 14  2  0
 22 18  1  0
  1 26  1  0
  1 27  1  0
  1 28  1  0
  3 29  1  0
  4 30  1  0
  6 31  1  0
  6 32  1  0
  7 33  1  0
 11 34  1  0
 11 35  1  0
 12 36  1  0
 12 37  1  0
 16 38  1  0
 21 39  1  0
 22 40  1  0
 23 41  1  0
 23 42  1  0
 24 43  1  0
 24 44  1  0
M  END
$$$$
OCNT-2310433
     RDKit          3D

 43 46  0  0  0  0  0  0  0  0999 V2000
    0.1805   -1.0404    1.6440 C   0  0  0  0  0  0  0  0  0  0  0  0
   -1.0395   -0.4407    0.9465 C   0  0  0  0  0  0  0  0  0  0  0  0
   -1.7336   -1.4374    0.0036 C   0  0  0  0  0  0  0  0  0  0  0  0
   -2.5405   -0.8049   -1.0038 O   0  0  0  0  0  0  0  0  0  0  0  0
   -3.5634   -0.0718   -0.4641 C   0  0  0  0  0  0  0  0  0  0  0  0
   -4.8542   -0.5632   -0.6730 C   0  0  0  0  0  0  0  0  0  0  0  0
   -5.9556    0.1354   -0.1843 C   0  0  0  0  0  0  0  0  0  0  0  0
   -5.7673    1.3352    0.4961 C   0  0  0  0  0  0  0  0  0  0  0  0
   -4.4776    1.8391    0.6817 C   0  0  0  0  0  0  0  0  0  0  0  0
   -3.3510    1.1438    0.2052 C   0  0  0  0  0  0  0  0  0  0  0  0
   -1.9885    1.7860    0.3945 C   0  0  0  0  0  0  0  0  0  0  0  0
   -0.8428    0.8784    0.3084 N   0  0  0  0  0  0  0  0  0  0  0  0
    0.2350    1.3271   -0.4465 C   0  0  0  0  0  0  0  0  0  0  0  0
    0.4082    2.5040   -0.7578 O   0  0  0  0  0  0  0  0  0  0  0  0
    1.2478    0.3811   -0.9306 C   0  0  0  0  0  0  0  0  0  0  0  0
    0.9261   -0.5192   -1.9397 C   0  0  0  0  0  0  0  0  0  0  0  0
    1.9307   -1.3501   -2.3864 C   0  0  0  0  0  0  0  0  0  0  0  0
    3.1933   -1.3206   -1.9051 N   0  0  0  0  0  0  0  0  0  0  0  0
    3.4967   -0.3962   -0.9537 C   0  0  0  0  0  0  0  0  0  0  0  0
    4.8385   -0.3612   -0.4855 N   0  0  0  0  0  0  0  0  0  0  0  0
    5.4076    0.4655    0.4585 C   0  0  0  0  0  0  0  0  0  0  0  0
    6.7254    0.0798    0.5484 C   0  0  0  0  0  0  0  0  0  0  0  0
    6.9904   -0.9545   -0.3037 N   0  0  0  0  0  0  0  0  0  0  0  0
    5.8489   -1.1945   -0.9122 C   0  0  0  0  0  0  0  0  0  0  0  0
    2.5519    0.4821   -0.4447 C   0  0  0  0  0  0  0  0  0  0  0  0
   -0.1325   -1.8412    2.3235 H   0  0  0  0  0  0  0  0  0  0  0  0
    0.7069   -0.2844    2.2358 H   0  0  0  0  0  0  0  0  0  0  0  0
    0.8886   -1.4879    0.9432 H   0  0  0  0  0  0  0  0  0  0  0  0
   -1.7348   -0.2473    1.7766 H   0  0  0  0  0  0  0  0  0  0  0  0
   -2.3392   -2.1557    0.5719 H   0  0  0  0  0  0  0  0  0  0  0  0
   -0.9891   -2.0330   -0.5345 H   0  0  0  0  0  0  0  0  0  0  0  0
   -4.9995   -1.4914   -1.2190 H   0  0  0  0  0  0  0  0  0  0  0  0
   -6.9592   -0.2500   -0.3436 H   0  0  0  0  0  0  0  0  0  0  0  0
   -6.6255    1.8885    0.8699 H   0  0  0  0  0  0  0  0  0  0  0  0
   -4.3555    2.7916    1.1947 H   0  0  0  0  0  0  0  0  0  0  0  0
   -1.8989    2.5989   -0.3350 H   0  0  0  0  0  0  0  0  0  0  0  0
   -1.9387    2.2305    1.3966 H   0  0  0  0  0  0  0  0  0  0  0  0
   -0.0671   -0.5570   -2.3735 H   0  0  0  0  0  0  0  0  0  0  0  0
    1.7492   -2.0802   -3.1709 H   0  0  0  0  0  0  0  0  0  0  0  0
    4.8646    1.2403    0.9771 H   0  0  0  0  0  0  0  0  0  0  0  0
    7.4968    0.4963    1.1839 H   0  0  0  0  0  0  0  0  0  0  0  0
    5.6866   -1.9545   -1.6659 H   0  0  0  0  0  0  0  0  0  0  0  0
    2.7802    1.2338    0.3012 H   0  0  0  0  0  0  0  0  0  0  0  0
  1  2  1  0
  2  3  1  0
  3  4  1  0
  4  5  1  0
  5  6  2  0
  6  7  1  0
  7  8  2  0
  8  9  1  0
  9 10  2  0
 10 11  1  0
 11 12  1  0
 12 13  1  0
 13 14  2  0
 13 15  1  0
 15 16  2  0
 16 17  1  0
 17 18  2  0
 18 19  1  0
 19 20  1  0
 20 21  1  0
 21 22  2  0
 22 23  1  0
 23 24  2  0
 19 25  2  0
 12  2  1  0
 25 15  1  0
 10  5  1  0
 24 20  1  0
  1 26  1  0
  1 27  1  0
  1 28  1  0
  2 29  1  0
  3 30  1  0
  3 31  1  0
  6 32  1  0
  7 33  1  0
  8 34  1  0
  9 35  1  0
 11 36  1  0
 11 37  1  0
 16 38  1  0
 17 39  1  0
 21 40  1  0
 22 41  1  0
 24 42  1  0
 25 43  1  0
M  END
$$$$
OCNT-2310436
     RDKit          3D

 36 37  0  0  0  0  0  0  0  0999 V2000
    6.6149    0.6139    0.6876 C   0  0  0  0  0  0  0  0  0  0  0  0
    5.6555   -0.1271   -0.2263 C   0  0  0  0  0  0  0  0  0  0  0  0
    4.3475    0.4044   -0.0156 O   0  0  0  0  0  0  0  0  0  0  0  0
    3.3375   -0.1415   -0.7532 C   0  0  0  0  0  0  0  0  0  0  0  0
    3.4389   -1.1588   -1.6929 C   0  0  0  0  0  0  0  0  0  0  0  0
    2.3891   -1.6596   -2.3890 N   0  0  0  0  0  0  0  0  0  0  0  0
    1.1772   -1.1170   -2.1350 C   0  0  0  0  0  0  0  0  0  0  0  0
    0.9617   -0.0860   -1.2275 C   0  0  0  0  0  0  0  0  0  0  0  0
   -0.4187    0.4611   -0.9973 C   0  0  0  0  0  0  0  0  0  0  0  0
   -1.1744   -0.4703   -0.1727 N   0  0  0  0  0  0  0  0  0  0  0  0
   -2.4531   -0.1261    0.2733 C   0  0  0  0  0  0  0  0  0  0  0  0
   -3.0165   -0.8714    1.3188 C   0  0  0  0  0  0  0  0  0  0  0  0
   -4.3175   -0.6280    1.7732 C   0  0  0  0  0  0  0  0  0  0  0  0
   -5.1091    0.3526    1.1656 C   0  0  0  0  0  0  0  0  0  0  0  0
   -6.5044    0.6363    1.6622 C   0  0  0  0  0  0  0  0  0  0  0  0
   -7.3439    1.0708    0.6806 F   0  0  0  0  0  0  0  0  0  0  0  0
   -6.5249    1.6001    2.6239 F   0  0  0  0  0  0  0  0  0  0  0  0
   -7.1106   -0.4531    2.2122 F   0  0  0  0  0  0  0  0  0  0  0  0
   -4.5665    1.0806    0.0997 C   0  0  0  0  0  0  0  0  0  0  0  0
   -3.2631    0.8295   -0.3490 C   0  0  0  0  0  0  0  0  0  0  0  0
    2.0715    0.3947   -0.5237 C   0  0  0  0  0  0  0  0  0  0  0  0
    7.6361    0.2426    0.5643 H   0  0  0  0  0  0  0  0  0  0  0  0
    6.6004    1.6875    0.4726 H   0  0  0  0  0  0  0  0  0  0  0  0
    6.3191    0.4946    1.7352 H   0  0  0  0  0  0  0  0  0  0  0  0
    5.9636    0.0234   -1.2674 H   0  0  0  0  0  0  0  0  0  0  0  0
    5.6764   -1.1947    0.0217 H   0  0  0  0  0  0  0  0  0  0  0  0
    4.3832   -1.6328   -1.9369 H   0  0  0  0  0  0  0  0  0  0  0  0
    0.3536   -1.5521   -2.6966 H   0  0  0  0  0  0  0  0  0  0  0  0
   -0.9030    0.6078   -1.9706 H   0  0  0  0  0  0  0  0  0  0  0  0
   -0.3516    1.4418   -0.5097 H   0  0  0  0  0  0  0  0  0  0  0  0
   -0.6113   -0.8789    0.5706 H   0  0  0  0  0  0  0  0  0  0  0  0
   -2.4386   -1.6609    1.7950 H   0  0  0  0  0  0  0  0  0  0  0  0
   -4.7111   -1.2197    2.5983 H   0  0  0  0  0  0  0  0  0  0  0  0
   -5.1611    1.8438   -0.4007 H   0  0  0  0  0  0  0  0  0  0  0  0
   -2.9033    1.4015   -1.1990 H   0  0  0  0  0  0  0  0  0  0  0  0
    1.9567    1.1906    0.2084 H   0  0  0  0  0  0  0  0  0  0  0  0
  1  2  1  0
  2  3  1  0
  3  4  1  0
  4  5  1  0
  5  6  2  0
  6  7  1  0
  7  8  2  0
  8  9  1  0
  9 10  1  0
 10 11  1  0
 11 12  1  0
 12 13  2  0
 13 14  1  0
 14 15  1  0
 15 16  1  0
 15 17  1  0
 15 18  1  0
 14 19  2  0
 19 20  1  0
  8 21  1  0
 21  4  2  0
 20 11  2  0
  1 22  1  0
  1 23  1  0
  1 24  1  0
  2 25  1  0
  2 26  1  0
  5 27  1  0
  7 28  1  0
  9 29  1  0
  9 30  1  0
 10 31  1  0
 12 32  1  0
 13 33  1  0
 19 34  1  0
 20 35  1  0
 21 36  1  0
M  END
$$$$
OCNT-2310447
     RDKit          3D

 35 37  0  0  0  0  0  0  0  0999 V2000
    4.6689    1.6155   -1.2400 C   0  0  0  0  0  0  0  0  0  0  0  0
    4.3612    0.9052    0.0265 C   0  0  0  0  0  0  0  0  0  0  0  0
    3.3911   -0.0686    0.2231 C   0  0  0  0  0  0  0  0  0  0  0  0
    2.4281   -0.6660   -0.6829 C   0  0  0  0  0  0  0  0  0  0  0  0
    2.3193   -0.3631   -1.8685 O   0  0  0  0  0  0  0  0  0  0  0  0
    1.6206   -1.6131   -0.0905 N   0  0  0  0  0  0  0  0  0  0  0  0
    0.5200   -2.2317   -0.7828 C   0  0  0  0  0  0  0  0  0  0  0  0
   -0.7636   -1.4977   -0.5284 C   0  0  0  0  0  0  0  0  0  0  0  0
   -1.6086   -1.8371    0.5299 C   0  0  0  0  0  0  0  0  0  0  0  0
   -2.7849   -1.1164    0.7428 C   0  0  0  0  0  0  0  0  0  0  0  0
   -3.0854   -0.0606   -0.1133 C   0  0  0  0  0  0  0  0  0  0  0  0
   -4.2738    0.6988    0.0670 N   0  0  0  0  0  0  0  0  0  0  0  0
   -5.2607    0.5563    1.0185 C   0  0  0  0  0  0  0  0  0  0  0  0
   -6.1849    1.5397    0.7502 C   0  0  0  0  0  0  0  0  0  0  0  0
   -5.8062    2.2839   -0.3306 N   0  0  0  0  0  0  0  0  0  0  0  0
   -4.6626    1.7614   -0.7190 C   0  0  0  0  0  0  0  0  0  0  0  0
   -2.2742    0.2929   -1.1428 N   0  0  0  0  0  0  0  0  0  0  0  0
   -1.1391   -0.4214   -1.3226 C   0  0  0  0  0  0  0  0  0  0  0  0
    3.4112   -0.4813    1.5325 O   0  0  0  0  0  0  0  0  0  0  0  0
    4.3848    0.2215    2.1619 C   0  0  0  0  0  0  0  0  0  0  0  0
    4.9979    1.0841    1.2868 C   0  0  0  0  0  0  0  0  0  0  0  0
    3.7926    2.1679   -1.5939 H   0  0  0  0  0  0  0  0  0  0  0  0
    5.4857    2.3314   -1.1022 H   0  0  0  0  0  0  0  0  0  0  0  0
    4.9709    0.9050   -2.0160 H   0  0  0  0  0  0  0  0  0  0  0  0
    1.7122   -1.7247    0.9124 H   0  0  0  0  0  0  0  0  0  0  0  0
    0.4446   -3.2632   -0.4211 H   0  0  0  0  0  0  0  0  0  0  0  0
    0.7243   -2.2834   -1.8584 H   0  0  0  0  0  0  0  0  0  0  0  0
   -1.3591   -2.6618    1.1935 H   0  0  0  0  0  0  0  0  0  0  0  0
   -3.4262   -1.4002    1.5686 H   0  0  0  0  0  0  0  0  0  0  0  0
   -5.2411   -0.2001    1.7871 H   0  0  0  0  0  0  0  0  0  0  0  0
   -7.1046    1.7489    1.2817 H   0  0  0  0  0  0  0  0  0  0  0  0
   -4.0674    2.1023   -1.5568 H   0  0  0  0  0  0  0  0  0  0  0  0
   -0.5159   -0.0882   -2.1509 H   0  0  0  0  0  0  0  0  0  0  0  0
    4.5192    0.0012    3.2119 H   0  0  0  0  0  0  0  0  0  0  0  0
    5.8057    1.7626    1.5251 H   0  0  0  0  0  0  0  0  0  0  0  0
  1  2  1  0
  2  3  2  0
  3  4  1  0
  4  5  2  0
  4  6  1  0
  6  7  1  0
  7  8  1  0
  8  9  2  0
  9 10  1  0
 10 11  2  0
 11 12  1  0
 12 13  1  0
 13 14  2  0
 14 15  1  0
 15 16  2  0
 11 17  1  0
 17 18  2  0
  3 19  1  0
 19 20  1  0
 20 21  2  0
 21  2  1  0
 18  8  1  0
 16 12  1  0
  1 22  1  0
  1 23  1  0
  1 24  1  0
  6 25  1  0
  7 26  1  0
  7 27  1  0
  9 28  1  0
 10 29  1  0
 13 30  1  0
 14 31  1  0
 16 32  1  0
 18 33  1  0
 20 34  1  0
 21 35  1  0
M  END
$$$$
OCNT-2310448
     RDKit          3D

 45 48  0  0  0  0  0  0  0  0999 V2000
    0.2117    3.2046    1.6313 C   0  0  0  0  0  0  0  0  0  0  0  0
    0.8076    1.8287    1.9164 C   0  0  0  0  0  0  0  0  0  0  0  0
   -0.2866    0.8313    2.2820 C   0  0  0  0  0  0  0  0  0  0  0  0
   -0.4533    0.5239    3.4617 O   0  0  0  0  0  0  0  0  0  0  0  0
   -1.0796    0.4049    1.2258 N   0  0  0  0  0  0  0  0  0  0  0  0
   -2.1986   -0.4540    1.2757 C   0  0  0  0  0  0  0  0  0  0  0  0
   -2.7665   -0.9309    2.4569 C   0  0  0  0  0  0  0  0  0  0  0  0
   -3.8674   -1.7898    2.4155 C   0  0  0  0  0  0  0  0  0  0  0  0
   -4.4172   -2.1689    1.1921 C   0  0  0  0  0  0  0  0  0  0  0  0
   -3.8812   -1.6833   -0.0051 C   0  0  0  0  0  0  0  0  0  0  0  0
   -4.4759   -2.0957   -1.2720 C   0  0  0  0  0  0  0  0  0  0  0  0
   -4.8485   -3.3215   -1.5957 N   0  0  0  0  0  0  0  0  0  0  0  0
   -5.3525   -3.2591   -2.8703 N   0  0  0  0  0  0  0  0  0  0  0  0
   -5.3238   -2.0185   -3.3301 N   0  0  0  0  0  0  0  0  0  0  0  0
   -4.8014   -1.2872   -2.3326 N   0  0  0  0  0  0  0  0  0  0  0  0
   -4.7201    0.1410   -2.4593 C   0  0  0  0  0  0  0  0  0  0  0  0
   -2.7624   -0.8366    0.0481 C   0  0  0  0  0  0  0  0  0  0  0  0
    1.6191    1.3460    0.8152 N   0  0  0  0  0  0  0  0  0  0  0  0
    1.1078    1.1746   -0.4202 N   0  0  0  0  0  0  0  0  0  0  0  0
    2.1347    0.7766   -1.1548 N   0  0  0  0  0  0  0  0  0  0  0  0
    3.2377    0.7498   -0.3277 C   0  0  0  0  0  0  0  0  0  0  0  0
    4.5648    0.3633   -0.7883 C   0  0  0  0  0  0  0  0  0  0  0  0
    4.7750   -0.0015   -2.1266 C   0  0  0  0  0  0  0  0  0  0  0  0
    6.0467   -0.3733   -2.5715 C   0  0  0  0  0  0  0  0  0  0  0  0
    7.1210   -0.3845   -1.6841 C   0  0  0  0  0  0  0  0  0  0  0  0
    6.9268   -0.0248   -0.3521 C   0  0  0  0  0  0  0  0  0  0  0  0
    5.6558    0.3471    0.0938 C   0  0  0  0  0  0  0  0  0  0  0  0
    2.9397    1.1241    0.9304 N   0  0  0  0  0  0  0  0  0  0  0  0
   -0.3559    3.5656    2.4958 H   0  0  0  0  0  0  0  0  0  0  0  0
   -0.4728    3.1862    0.7758 H   0  0  0  0  0  0  0  0  0  0  0  0
    0.9995    3.9332    1.4112 H   0  0  0  0  0  0  0  0  0  0  0  0
    1.4794    1.9076    2.7810 H   0  0  0  0  0  0  0  0  0  0  0  0
   -0.7611    0.6520    0.2897 H   0  0  0  0  0  0  0  0  0  0  0  0
   -2.3742   -0.6634    3.4331 H   0  0  0  0  0  0  0  0  0  0  0  0
   -4.2920   -2.1686    3.3425 H   0  0  0  0  0  0  0  0  0  0  0  0
   -5.2683   -2.8484    1.1773 H   0  0  0  0  0  0  0  0  0  0  0  0
   -4.9149    0.6055   -1.4899 H   0  0  0  0  0  0  0  0  0  0  0  0
   -3.7205    0.3985   -2.8166 H   0  0  0  0  0  0  0  0  0  0  0  0
   -5.4717    0.4840   -3.1757 H   0  0  0  0  0  0  0  0  0  0  0  0
   -2.3054   -0.4970   -0.8785 H   0  0  0  0  0  0  0  0  0  0  0  0
    3.9505   -0.0010   -2.8370 H   0  0  0  0  0  0  0  0  0  0  0  0
    6.1972   -0.6550   -3.6107 H   0  0  0  0  0  0  0  0  0  0  0  0
    8.1098   -0.6747   -2.0304 H   0  0  0  0  0  0  0  0  0  0  0  0
    7.7635   -0.0343    0.3420 H   0  0  0  0  0  0  0  0  0  0  0  0
    5.5234    0.6234    1.1384 H   0  0  0  0  0  0  0  0  0  0  0  0
  1  2  1  0
  2  3  1  0
  3  4  2  0
  3  5  1  0
  5  6  1  0
  6  7  2  0
  7  8  1  0
  8  9  2  0
  9 10  1  0
 10 11  1  0
 11 12  2  0
 12 13  1  0
 13 14  2  0
 14 15  1  0
 15 16  1  0
 10 17  2  0
  2 18  1  0
 18 19  1  0
 19 20  2  0
 20 21  1  0
 21 22  1  0
 22 23  2  0
 23 24  1  0
 24 25  2  0
 25 26  1  0
 26 27  2  0
 21 28  2  0
 17  6  1  0
 28 18  1  0
 15 11  1  0
 27 22  1  0
  1 29  1  0
  1 30  1  0
  1 31  1  0
  2 32  1  0
  5 33  1  0
  7 34  1  0
  8 35  1  0
  9 36  1  0
 16 37  1  0
 16 38  1  0
 16 39  1  0
 17 40  1  0
 23 41  1  0
 24 42  1  0
 25 43  1  0
 26 44  1  0
 27 45  1  0
M  END
$$$$
OCNT-2310449
     RDKit          3D

 41 43  0  0  0  0  0  0  0  0999 V2000
   -5.8227    1.1008   -3.9360 C   0  0  0  0  0  0  0  0  0  0  0  0
   -4.6371    0.8868   -3.1512 N   0  0  0  0  0  0  0  0  0  0  0  0
   -3.4692    1.5726   -3.1998 C   0  0  0  0  0  0  0  0  0  0  0  0
   -2.6338    1.0680   -2.3232 N   0  0  0  0  0  0  0  0  0  0  0  0
   -3.3515    0.0415   -1.7403 C   0  0  0  0  0  0  0  0  0  0  0  0
   -2.7892   -0.8028   -0.6906 C   0  0  0  0  0  0  0  0  0  0  0  0
   -3.5398   -1.8341   -0.1133 C   0  0  0  0  0  0  0  0  0  0  0  0
   -2.9874   -2.6320    0.8890 C   0  0  0  0  0  0  0  0  0  0  0  0
   -1.6791   -2.4083    1.3253 C   0  0  0  0  0  0  0  0  0  0  0  0
   -0.9138   -1.3865    0.7636 C   0  0  0  0  0  0  0  0  0  0  0  0
    0.4073   -1.0970    1.1463 N   0  0  0  0  0  0  0  0  0  0  0  0
    1.1839   -1.7262    2.1002 C   0  0  0  0  0  0  0  0  0  0  0  0
    0.8683   -2.6745    2.8083 O   0  0  0  0  0  0  0  0  0  0  0  0
    2.5534   -1.1228    2.2239 C   0  0  0  0  0  0  0  0  0  0  0  0
    3.4634   -1.6478    3.1344 C   0  0  0  0  0  0  0  0  0  0  0  0
    4.7196   -1.0582    3.2189 C   0  0  0  0  0  0  0  0  0  0  0  0
    5.0173    0.0249    2.3974 C   0  0  0  0  0  0  0  0  0  0  0  0
    4.0457    0.4784    1.5166 C   0  0  0  0  0  0  0  0  0  0  0  0
    4.3930    1.5608    0.7347 O   0  0  0  0  0  0  0  0  0  0  0  0
    3.3812    1.9302   -0.2108 C   0  0  0  0  0  0  0  0  0  0  0  0
    3.8753    3.1092   -1.0302 C   0  0  0  0  0  0  0  0  0  0  0  0
    2.8331    3.6861   -1.6810 F   0  0  0  0  0  0  0  0  0  0  0  0
    4.7361    2.6786   -1.9891 F   0  0  0  0  0  0  0  0  0  0  0  0
    2.8161   -0.0625    1.4055 N   0  0  0  0  0  0  0  0  0  0  0  0
   -1.4758   -0.5893   -0.2425 C   0  0  0  0  0  0  0  0  0  0  0  0
   -4.5949   -0.0917   -2.2337 N   0  0  0  0  0  0  0  0  0  0  0  0
   -6.6500    1.3283   -3.2593 H   0  0  0  0  0  0  0  0  0  0  0  0
   -6.0314    0.1907   -4.5039 H   0  0  0  0  0  0  0  0  0  0  0  0
   -5.6608    1.9374   -4.6203 H   0  0  0  0  0  0  0  0  0  0  0  0
   -3.2808    2.4022   -3.8663 H   0  0  0  0  0  0  0  0  0  0  0  0
   -4.5600   -2.0216   -0.4419 H   0  0  0  0  0  0  0  0  0  0  0  0
   -3.5756   -3.4310    1.3331 H   0  0  0  0  0  0  0  0  0  0  0  0
   -1.2854   -3.0503    2.1070 H   0  0  0  0  0  0  0  0  0  0  0  0
    0.8747   -0.3282    0.6720 H   0  0  0  0  0  0  0  0  0  0  0  0
    3.1997   -2.4942    3.7612 H   0  0  0  0  0  0  0  0  0  0  0  0
    5.4596   -1.4388    3.9178 H   0  0  0  0  0  0  0  0  0  0  0  0
    5.9889    0.5056    2.4411 H   0  0  0  0  0  0  0  0  0  0  0  0
    3.1639    1.0917   -0.8835 H   0  0  0  0  0  0  0  0  0  0  0  0
    2.4670    2.2272    0.3174 H   0  0  0  0  0  0  0  0  0  0  0  0
    4.3822    3.8651   -0.4239 H   0  0  0  0  0  0  0  0  0  0  0  0
   -0.8916    0.2116   -0.6912 H   0  0  0  0  0  0  0  0  0  0  0  0
  1  2  1  0
  2  3  1  0
  3  4  2  0
  4  5  1  0
  5  6  1  0
  6  7  1  0
  7  8  2  0
  8  9  1  0
  9 10  2  0
 10 11  1  0
 11 12  1  0
 12 13  2  0
 12 14  1  0
 14 15  2  0
 15 16  1  0
 16 17  2  0
 17 18  1  0
 18 19  1  0
 19 20  1  0
 20 21  1  0
 21 22  1  0
 21 23  1  0
 18 24  2  0
 10 25  1  0
  5 26  2  0
 26  2  1  0
 25  6  2  0
 24 14  1  0
  1 27  1  0
  1 28  1  0
  1 29  1  0
  3 30  1  0
  7 31  1  0
  8 32  1  0
  9 33  1  0
 11 34  1  0
 15 35  1  0
 16 36  1  0
 17 37  1  0
 20 38  1  0
 20 39  1  0
 21 40  1  0
 25 41  1  0
M  END
$$$$
OCNT-2310451
     RDKit          3D

 37 39  0  0  0  0  0  0  0  0999 V2000
   -2.7594    1.4332   -0.9744 C   0  0  0  0  0  0  0  0  0  0  0  0
   -2.0215    0.5853    0.0039 C   0  0  0  0  0  0  0  0  0  0  0  0
   -0.6997    0.7616    0.4017 C   0  0  0  0  0  0  0  0  0  0  0  0
    0.2368    1.7876   -0.0052 C   0  0  0  0  0  0  0  0  0  0  0  0
   -0.0846    2.9725   -0.0515 O   0  0  0  0  0  0  0  0  0  0  0  0
    1.5217    1.3871   -0.3311 N   0  0  0  0  0  0  0  0  0  0  0  0
    2.5624    2.3865   -0.5160 C   0  0  0  0  0  0  0  0  0  0  0  0
    3.8547    1.6044   -0.3732 C   0  0  0  0  0  0  0  0  0  0  0  0
    4.8685    2.1981   -1.0399 F   0  0  0  0  0  0  0  0  0  0  0  0
    3.5088    0.2699   -1.0094 C   0  0  0  0  0  0  0  0  0  0  0  0
    2.0394    0.0389   -0.6078 C   0  0  0  0  0  0  0  0  0  0  0  0
    1.3005   -0.7238   -1.7196 C   0  0  0  0  0  0  0  0  0  0  0  0
    1.8764   -2.0151   -1.8971 O   0  0  0  0  0  0  0  0  0  0  0  0
   -0.4418   -0.1872    1.3618 N   0  0  0  0  0  0  0  0  0  0  0  0
   -1.5143   -1.0283    1.5276 C   0  0  0  0  0  0  0  0  0  0  0  0
   -1.6740   -2.1460    2.3542 C   0  0  0  0  0  0  0  0  0  0  0  0
   -0.3928   -2.6964    3.3577 Cl  0  0  0  0  0  0  0  0  0  0  0  0
   -2.9013   -2.8104    2.3397 C   0  0  0  0  0  0  0  0  0  0  0  0
   -3.9380   -2.3625    1.5242 C   0  0  0  0  0  0  0  0  0  0  0  0
   -3.7662   -1.2408    0.7025 C   0  0  0  0  0  0  0  0  0  0  0  0
   -2.5304   -0.5596    0.6975 C   0  0  0  0  0  0  0  0  0  0  0  0
   -3.0728    2.3692   -0.5014 H   0  0  0  0  0  0  0  0  0  0  0  0
   -3.6521    0.9257   -1.3523 H   0  0  0  0  0  0  0  0  0  0  0  0
   -2.1275    1.6732   -1.8358 H   0  0  0  0  0  0  0  0  0  0  0  0
    2.4785    3.1923    0.2198 H   0  0  0  0  0  0  0  0  0  0  0  0
    2.4594    2.8185   -1.5178 H   0  0  0  0  0  0  0  0  0  0  0  0
    4.1368    1.4804    0.6780 H   0  0  0  0  0  0  0  0  0  0  0  0
    4.1648   -0.5359   -0.6652 H   0  0  0  0  0  0  0  0  0  0  0  0
    3.6295    0.3434   -2.0974 H   0  0  0  0  0  0  0  0  0  0  0  0
    2.0211   -0.5357    0.3247 H   0  0  0  0  0  0  0  0  0  0  0  0
    1.3722   -0.1861   -2.6714 H   0  0  0  0  0  0  0  0  0  0  0  0
    0.2370   -0.8553   -1.5090 H   0  0  0  0  0  0  0  0  0  0  0  0
    1.4267   -2.6233   -1.2841 H   0  0  0  0  0  0  0  0  0  0  0  0
    0.4137   -0.2530    1.8960 H   0  0  0  0  0  0  0  0  0  0  0  0
   -3.0558   -3.6822    2.9709 H   0  0  0  0  0  0  0  0  0  0  0  0
   -4.8918   -2.8853    1.5251 H   0  0  0  0  0  0  0  0  0  0  0  0
   -4.5851   -0.9009    0.0741 H   0  0  0  0  0  0  0  0  0  0  0  0
  1  2  1  0
  2  3  2  0
  3  4  1  0
  4  5  2  0
  4  6  1  0
  6  7  1  0
  7  8  1  0
  8  9  1  0
  8 10  1  0
 10 11  1  0
 11 12  1  0
 12 13  1  0
  3 14  1  0
 14 15  1  0
 15 16  2  0
 16 17  1  0
 16 18  1  0
 18 19  2  0
 19 20  1  0
 20 21  2  0
 21  2  1  0
 11  6  1  0
 21 15  1  0
  1 22  1  0
  1 23  1  0
  1 24  1  0
  7 25  1  0
  7 26  1  0
  8 27  1  0
 10 28  1  0
 10 29  1  0
 11 30  1  0
 12 31  1  0
 12 32  1  0
 13 33  1  0
 14 34  1  0
 18 35  1  0
 19 36  1  0
 20 37  1  0
M  END
$$$$
OCNT-2310458
     RDKit          3D

 41 43  0  0  0  0  0  0  0  0999 V2000
   -3.8143   -3.0917    1.0774 C   0  0  0  0  0  0  0  0  0  0  0  0
   -4.5611   -2.0231    0.5164 O   0  0  0  0  0  0  0  0  0  0  0  0
   -4.4010   -0.7886    1.2155 C   0  0  0  0  0  0  0  0  0  0  0  0
   -3.1229   -0.0763    0.8335 C   0  0  0  0  0  0  0  0  0  0  0  0
   -2.0121   -0.1420    1.6972 C   0  0  0  0  0  0  0  0  0  0  0  0
   -0.8087    0.4995    1.3886 C   0  0  0  0  0  0  0  0  0  0  0  0
    0.2855    0.2806    2.2841 N   0  0  0  0  0  0  0  0  0  0  0  0
    1.6317    1.2925    2.3347 S   0  0  0  0  0  0  0  0  0  0  0  0
    1.2202    2.6555    2.0848 O   0  0  0  0  0  0  0  0  0  0  0  0
    2.3571    0.9171    3.5293 O   0  0  0  0  0  0  0  0  0  0  0  0
    2.7001    0.8248    0.9954 C   0  0  0  0  0  0  0  0  0  0  0  0
    2.7055   -0.2654    0.1507 C   0  0  0  0  0  0  0  0  0  0  0  0
    3.7764   -0.2327   -0.8021 C   0  0  0  0  0  0  0  0  0  0  0  0
    4.1202   -1.1424   -1.8310 C   0  0  0  0  0  0  0  0  0  0  0  0
    5.2278   -0.8912   -2.6445 C   0  0  0  0  0  0  0  0  0  0  0  0
    5.6321   -2.0059   -3.8923 Cl  0  0  0  0  0  0  0  0  0  0  0  0
    6.0038    0.2440   -2.4590 C   0  0  0  0  0  0  0  0  0  0  0  0
    5.6868    1.1574   -1.4501 C   0  0  0  0  0  0  0  0  0  0  0  0
    4.5697    0.9051   -0.6297 C   0  0  0  0  0  0  0  0  0  0  0  0
    3.9953    1.8812    0.6670 S   0  0  0  0  0  0  0  0  0  0  0  0
   -0.7010    1.1604    0.1674 C   0  0  0  0  0  0  0  0  0  0  0  0
   -1.7980    1.2393   -0.7004 C   0  0  0  0  0  0  0  0  0  0  0  0
   -3.0112    0.6276   -0.3767 C   0  0  0  0  0  0  0  0  0  0  0  0
   -4.1348    0.6678   -1.1566 O   0  0  0  0  0  0  0  0  0  0  0  0
   -4.0200    1.2489   -2.4487 C   0  0  0  0  0  0  0  0  0  0  0  0
   -2.7401   -2.9122    0.9803 H   0  0  0  0  0  0  0  0  0  0  0  0
   -4.0802   -3.2410    2.1283 H   0  0  0  0  0  0  0  0  0  0  0  0
   -4.0581   -4.0044    0.5267 H   0  0  0  0  0  0  0  0  0  0  0  0
   -4.4594   -0.9528    2.2991 H   0  0  0  0  0  0  0  0  0  0  0  0
   -5.2591   -0.1530    0.9680 H   0  0  0  0  0  0  0  0  0  0  0  0
   -2.0992   -0.7100    2.6208 H   0  0  0  0  0  0  0  0  0  0  0  0
    0.0298    0.0156    3.2354 H   0  0  0  0  0  0  0  0  0  0  0  0
    1.9667   -1.0560    0.2102 H   0  0  0  0  0  0  0  0  0  0  0  0
    3.5210   -2.0359   -1.9861 H   0  0  0  0  0  0  0  0  0  0  0  0
    6.8648    0.4315   -3.0963 H   0  0  0  0  0  0  0  0  0  0  0  0
    6.2942    2.0465   -1.3020 H   0  0  0  0  0  0  0  0  0  0  0  0
    0.2159    1.6498   -0.1443 H   0  0  0  0  0  0  0  0  0  0  0  0
   -1.6675    1.7924   -1.6253 H   0  0  0  0  0  0  0  0  0  0  0  0
   -4.9843    1.1350   -2.9531 H   0  0  0  0  0  0  0  0  0  0  0  0
   -3.8057    2.3203   -2.3794 H   0  0  0  0  0  0  0  0  0  0  0  0
   -3.2660    0.7317   -3.0513 H   0  0  0  0  0  0  0  0  0  0  0  0
  1  2  1  0
  2  3  1  0
  3  4  1  0
  4  5  1  0
  5  6  2  0
  6  7  1  0
  7  8  1  0
  8  9  2  0
  8 10  2  0
  8 11  1  0
 11 12  2  0
 12 13  1  0
 13 14  2  0
 14 15  1  0
 15 16  1  0
 15 17  2  0
 17 18  1  0
 18 19  2  0
 19 20  1  0
  6 21  1  0
 21 22  2  0
 22 23  1  0
 23 24  1  0
 24 25  1  0
 23  4  2  0
 20 11  1  0
 19 13  1  0
  1 26  1  0
  1 27  1  0
  1 28  1  0
  3 29  1  0
  3 30  1  0
  5 31  1  0
  7 32  1  0
 12 33  1  0
 14 34  1  0
 17 35  1  0
 18 36  1  0
 21 37  1  0
 22 38  1  0
 25 39  1  0
 25 40  1  0
 25 41  1  0
M  END
$$$$
OCNT-2310463
     RDKit          3D

 33 35  0  0  0  0  0  0  0  0999 V2000
    4.5781    2.9208    0.9013 C   0  0  0  0  0  0  0  0  0  0  0  0
    4.4195    1.5279    0.4565 C   0  0  0  0  0  0  0  0  0  0  0  0
    5.2801    0.5108    0.1223 C   0  0  0  0  0  0  0  0  0  0  0  0
    4.5690   -0.6078   -0.2293 N   0  0  0  0  0  0  0  0  0  0  0  0
    3.3067   -0.2414   -0.0996 C   0  0  0  0  0  0  0  0  0  0  0  0
    2.0915   -1.0164   -0.3362 C   0  0  0  0  0  0  0  0  0  0  0  0
    2.1929   -2.3467   -0.7634 C   0  0  0  0  0  0  0  0  0  0  0  0
    1.0470   -3.1071   -0.9959 C   0  0  0  0  0  0  0  0  0  0  0  0
   -0.2178   -2.5473   -0.8043 C   0  0  0  0  0  0  0  0  0  0  0  0
   -0.3462   -1.2252   -0.3794 C   0  0  0  0  0  0  0  0  0  0  0  0
   -1.5821   -0.5899   -0.1638 N   0  0  0  0  0  0  0  0  0  0  0  0
   -2.8531   -1.1113   -0.3185 C   0  0  0  0  0  0  0  0  0  0  0  0
   -3.1554   -2.2422   -0.6780 O   0  0  0  0  0  0  0  0  0  0  0  0
   -3.9266   -0.1282    0.0070 C   0  0  0  0  0  0  0  0  0  0  0  0
   -5.2619   -0.4882   -0.0953 C   0  0  0  0  0  0  0  0  0  0  0  0
   -6.2672    0.3786    0.1923 N   0  0  0  0  0  0  0  0  0  0  0  0
   -5.8748    1.6130    0.5842 C   0  0  0  0  0  0  0  0  0  0  0  0
   -4.5390    1.9731    0.6865 C   0  0  0  0  0  0  0  0  0  0  0  0
   -3.5276    1.1187    0.4027 N   0  0  0  0  0  0  0  0  0  0  0  0
    0.8115   -0.4682   -0.1481 C   0  0  0  0  0  0  0  0  0  0  0  0
    3.1444    1.0565    0.3178 O   0  0  0  0  0  0  0  0  0  0  0  0
    4.1181    3.0646    1.8837 H   0  0  0  0  0  0  0  0  0  0  0  0
    4.1019    3.6062    0.1936 H   0  0  0  0  0  0  0  0  0  0  0  0
    5.6358    3.1909    0.9777 H   0  0  0  0  0  0  0  0  0  0  0  0
    6.3611    0.5223    0.1154 H   0  0  0  0  0  0  0  0  0  0  0  0
    3.1723   -2.7975   -0.9174 H   0  0  0  0  0  0  0  0  0  0  0  0
    1.1370   -4.1386   -1.3274 H   0  0  0  0  0  0  0  0  0  0  0  0
   -1.0848   -3.1718   -0.9960 H   0  0  0  0  0  0  0  0  0  0  0  0
   -1.5657    0.3798    0.1468 H   0  0  0  0  0  0  0  0  0  0  0  0
   -5.5660   -1.4809   -0.4105 H   0  0  0  0  0  0  0  0  0  0  0  0
   -6.6705    2.3127    0.8162 H   0  0  0  0  0  0  0  0  0  0  0  0
   -4.2483    2.9691    1.0029 H   0  0  0  0  0  0  0  0  0  0  0  0
    0.7198    0.5638    0.1835 H   0  0  0  0  0  0  0  0  0  0  0  0
  1  2  1  0
  2  3  2  0
  3  4  1  0
  4  5  2  0
  5  6  1  0
  6  7  1  0
  7  8  2  0
  8  9  1  0
  9 10  2  0
 10 11  1  0
 11 12  1  0
 12 13  2  0
 12 14  1  0
 14 15  2  0
 15 16  1  0
 16 17  2  0
 17 18  1  0
 18 19  2  0
 10 20  1  0
  5 21  1  0
 21  2  1  0
 20  6  2  0
 19 14  1  0
  1 22  1  0
  1 23  1  0
  1 24  1  0
  3 25  1  0
  7 26  1  0
  8 27  1  0
  9 28  1  0
 11 29  1  0
 15 30  1  0
 17 31  1  0
 18 32  1  0
 20 33  1  0
M  END
$$$$
OCNT-2310481
     RDKit          3D

 47 49  0  0  0  0  0  0  0  0999 V2000
   -5.0618   -1.4180   -1.3860 C   0  0  0  0  0  0  0  0  0  0  0  0
   -4.6015   -0.0511   -1.0335 C   0  0  0  0  0  0  0  0  0  0  0  0
   -5.0695    0.9918   -1.7309 N   0  0  0  0  0  0  0  0  0  0  0  0
   -4.4731    2.0563   -1.1748 N   0  0  0  0  0  0  0  0  0  0  0  0
   -4.7529    3.3753   -1.6869 C   0  0  0  0  0  0  0  0  0  0  0  0
   -3.6382    1.7332   -0.1509 C   0  0  0  0  0  0  0  0  0  0  0  0
   -3.6892    0.3576   -0.0137 C   0  0  0  0  0  0  0  0  0  0  0  0
   -2.9252   -0.4592    0.9852 C   0  0  0  0  0  0  0  0  0  0  0  0
   -3.7883   -1.4634    1.7468 C   0  0  0  0  0  0  0  0  0  0  0  0
   -1.8319   -1.0970    0.2764 N   0  0  0  0  0  0  0  0  0  0  0  0
   -0.7435   -1.5891    0.9423 C   0  0  0  0  0  0  0  0  0  0  0  0
   -0.5766   -1.5007    2.1505 O   0  0  0  0  0  0  0  0  0  0  0  0
    0.1344   -2.1925    0.0803 N   0  0  0  0  0  0  0  0  0  0  0  0
    1.4037   -2.6990    0.5520 C   0  0  0  0  0  0  0  0  0  0  0  0
    2.4897   -1.6625    0.4154 C   0  0  0  0  0  0  0  0  0  0  0  0
    2.6703   -0.6862    1.4011 C   0  0  0  0  0  0  0  0  0  0  0  0
    3.6602    0.2963    1.2689 C   0  0  0  0  0  0  0  0  0  0  0  0
    4.4930    0.3274    0.1382 C   0  0  0  0  0  0  0  0  0  0  0  0
    5.4969    1.3325    0.0126 N   0  0  0  0  0  0  0  0  0  0  0  0
    6.4033    1.5152   -1.0110 C   0  0  0  0  0  0  0  0  0  0  0  0
    7.1575    2.6143   -0.6761 C   0  0  0  0  0  0  0  0  0  0  0  0
    6.7575    3.1273    0.5202 N   0  0  0  0  0  0  0  0  0  0  0  0
    5.7717    2.3486    0.9089 C   0  0  0  0  0  0  0  0  0  0  0  0
    4.2996   -0.6486   -0.8467 C   0  0  0  0  0  0  0  0  0  0  0  0
    5.0387   -0.6952   -1.9628 F   0  0  0  0  0  0  0  0  0  0  0  0
    3.3117   -1.6279   -0.7143 C   0  0  0  0  0  0  0  0  0  0  0  0
   -5.5124   -1.4428   -2.3840 H   0  0  0  0  0  0  0  0  0  0  0  0
   -5.8131   -1.7619   -0.6683 H   0  0  0  0  0  0  0  0  0  0  0  0
   -4.2268   -2.1249   -1.3851 H   0  0  0  0  0  0  0  0  0  0  0  0
   -5.8234    3.5672   -1.5787 H   0  0  0  0  0  0  0  0  0  0  0  0
   -4.1822    4.1148   -1.1198 H   0  0  0  0  0  0  0  0  0  0  0  0
   -4.4608    3.4058   -2.7395 H   0  0  0  0  0  0  0  0  0  0  0  0
   -3.0808    2.4849    0.3909 H   0  0  0  0  0  0  0  0  0  0  0  0
   -2.4821    0.2195    1.7266 H   0  0  0  0  0  0  0  0  0  0  0  0
   -4.6632   -0.9752    2.1896 H   0  0  0  0  0  0  0  0  0  0  0  0
   -3.2198   -1.9302    2.5584 H   0  0  0  0  0  0  0  0  0  0  0  0
   -4.1405   -2.2749    1.1024 H   0  0  0  0  0  0  0  0  0  0  0  0
   -2.0405   -1.5166   -0.6155 H   0  0  0  0  0  0  0  0  0  0  0  0
    0.1156   -1.8407   -0.8648 H   0  0  0  0  0  0  0  0  0  0  0  0
    1.6448   -3.5795   -0.0538 H   0  0  0  0  0  0  0  0  0  0  0  0
    1.3236   -3.0346    1.5924 H   0  0  0  0  0  0  0  0  0  0  0  0
    2.0292   -0.6807    2.2837 H   0  0  0  0  0  0  0  0  0  0  0  0
    3.7395    1.0189    2.0757 H   0  0  0  0  0  0  0  0  0  0  0  0
    6.4583    0.8796   -1.8802 H   0  0  0  0  0  0  0  0  0  0  0  0
    7.9682    3.0581   -1.2397 H   0  0  0  0  0  0  0  0  0  0  0  0
    5.2308    2.4887    1.8334 H   0  0  0  0  0  0  0  0  0  0  0  0
    3.1989   -2.3608   -1.5092 H   0  0  0  0  0  0  0  0  0  0  0  0
  1  2  1  0
  2  3  2  0
  3  4  1  0
  4  5  1  0
  4  6  1  0
  6  7  2  0
  7  8  1  0
  8  9  1  0
  8 10  1  0
 10 11  1  0
 11 12  2  0
 11 13  1  0
 13 14  1  0
 14 15  1  0
 15 16  1  0
 16 17  2  0
 17 18  1  0
 18 19  1  0
 19 20  1  0
 20 21  2  0
 21 22  1  0
 22 23  2  0
 18 24  2  0
 24 25  1  0
 24 26  1  0
  7  2  1  0
 26 15  2  0
 23 19  1  0
  1 27  1  0
  1 28  1  0
  1 29  1  0
  5 30  1  0
  5 31  1  0
  5 32  1  0
  6 33  1  0
  8 34  1  0
  9 35  1  0
  9 36  1  0
  9 37  1  0
 10 38  1  0
 13 39  1  0
 14 40  1  0
 14 41  1  0
 16 42  1  0
 17 43  1  0
 20 44  1  0
 21 45  1  0
 23 46  1  0
 26 47  1  0
M  END
$$$$
OCNT-2310488
     RDKit          3D

 41 44  0  0  0  0  0  0  0  0999 V2000
   -2.2256   -3.1415    0.1869 C   0  0  0  0  0  0  0  0  0  0  0  0
   -1.2949   -2.0873   -0.4108 C   0  0  0  0  0  0  0  0  0  0  0  0
   -0.2177   -1.7540    0.5000 N   0  0  0  0  0  0  0  0  0  0  0  0
    0.8839   -2.5596    0.6628 C   0  0  0  0  0  0  0  0  0  0  0  0
    1.0387   -3.6215    0.0636 O   0  0  0  0  0  0  0  0  0  0  0  0
    1.8983   -2.0338    1.6622 C   0  0  0  0  0  0  0  0  0  0  0  0
    2.6247   -0.8041    1.1670 C   0  0  0  0  0  0  0  0  0  0  0  0
    2.4487    0.4334    1.8081 C   0  0  0  0  0  0  0  0  0  0  0  0
    3.0993    1.5899    1.3594 C   0  0  0  0  0  0  0  0  0  0  0  0
    3.9313    1.4599    0.2420 C   0  0  0  0  0  0  0  0  0  0  0  0
    4.6902    2.3728   -0.4437 N   0  0  0  0  0  0  0  0  0  0  0  0
    5.3685    1.8561   -1.4847 N   0  0  0  0  0  0  0  0  0  0  0  0
    5.0284    0.5642   -1.4643 C   0  0  0  0  0  0  0  0  0  0  0  0
    4.1349    0.2517   -0.4146 C   0  0  0  0  0  0  0  0  0  0  0  0
    3.4788   -0.9016    0.0500 C   0  0  0  0  0  0  0  0  0  0  0  0
   -2.0438   -0.8295   -0.7153 C   0  0  0  0  0  0  0  0  0  0  0  0
   -2.4645   -0.2416   -1.8927 C   0  0  0  0  0  0  0  0  0  0  0  0
   -3.1526    0.9492   -1.5327 C   0  0  0  0  0  0  0  0  0  0  0  0
   -3.8174    1.9762   -2.2267 C   0  0  0  0  0  0  0  0  0  0  0  0
   -4.3924    3.0102   -1.4807 C   0  0  0  0  0  0  0  0  0  0  0  0
   -5.0324    3.9961   -2.1245 F   0  0  0  0  0  0  0  0  0  0  0  0
   -4.3207    3.0478   -0.0885 C   0  0  0  0  0  0  0  0  0  0  0  0
   -3.6603    2.0376    0.6190 C   0  0  0  0  0  0  0  0  0  0  0  0
   -3.0964    1.0138   -0.1438 C   0  0  0  0  0  0  0  0  0  0  0  0
   -2.4191   -0.0581    0.3525 O   0  0  0  0  0  0  0  0  0  0  0  0
   -1.6892   -4.0732    0.3934 H   0  0  0  0  0  0  0  0  0  0  0  0
   -2.6637   -2.7983    1.1318 H   0  0  0  0  0  0  0  0  0  0  0  0
   -3.0492   -3.3739   -0.4973 H   0  0  0  0  0  0  0  0  0  0  0  0
   -0.8515   -2.4841   -1.3332 H   0  0  0  0  0  0  0  0  0  0  0  0
   -0.2767   -0.8703    0.9924 H   0  0  0  0  0  0  0  0  0  0  0  0
    2.6279   -2.8245    1.8753 H   0  0  0  0  0  0  0  0  0  0  0  0
    1.3785   -1.8305    2.6069 H   0  0  0  0  0  0  0  0  0  0  0  0
    1.7940    0.5129    2.6759 H   0  0  0  0  0  0  0  0  0  0  0  0
    2.9556    2.5421    1.8599 H   0  0  0  0  0  0  0  0  0  0  0  0
    4.7889    3.3637   -0.2508 H   0  0  0  0  0  0  0  0  0  0  0  0
    5.4414   -0.1000   -2.2150 H   0  0  0  0  0  0  0  0  0  0  0  0
    3.6264   -1.8538   -0.4554 H   0  0  0  0  0  0  0  0  0  0  0  0
   -2.3008   -0.6292   -2.8893 H   0  0  0  0  0  0  0  0  0  0  0  0
   -3.8925    1.9784   -3.3089 H   0  0  0  0  0  0  0  0  0  0  0  0
   -4.7862    3.8732    0.4447 H   0  0  0  0  0  0  0  0  0  0  0  0
   -3.5913    2.0414    1.7006 H   0  0  0  0  0  0  0  0  0  0  0  0
  1  2  1  0
  2  3  1  0
  3  4  1  0
  4  5  2  0
  4  6  1  0
  6  7  1  0
  7  8  2  0
  8  9  1  0
  9 10  2  0
 10 11  1  0
 11 12  1  0
 12 13  2  0
 13 14  1  0
 14 15  2  0
  2 16  1  0
 16 17  2  0
 17 18  1  0
 18 19  2  0
 19 20  1  0
 20 21  1  0
 20 22  2  0
 22 23  1  0
 23 24  2  0
 24 25  1  0
 15  7  1  0
 25 16  1  0
 14 10  1  0
 24 18  1  0
  1 26  1  0
  1 27  1  0
  1 28  1  0
  2 29  1  0
  3 30  1  0
  6 31  1  0
  6 32  1  0
  8 33  1  0
  9 34  1  0
 11 35  1  0
 13 36  1  0
 15 37  1  0
 17 38  1  0
 19 39  1  0
 22 40  1  0
 23 41  1  0
M  END
$$$$
OCNT-2310507
     RDKit          3D

 46 47  0  0  0  0  0  0  0  0999 V2000
    6.5269   -1.1500   -1.6637 C   0  0  0  0  0  0  0  0  0  0  0  0
    5.3143   -0.8663   -0.8623 C   0  0  0  0  0  0  0  0  0  0  0  0
    4.0831   -1.4868   -0.8255 C   0  0  0  0  0  0  0  0  0  0  0  0
    3.3224   -0.7818    0.1396 C   0  0  0  0  0  0  0  0  0  0  0  0
    2.0217   -1.1002    0.4614 N   0  0  0  0  0  0  0  0  0  0  0  0
    1.2854   -0.5379    1.4774 C   0  0  0  0  0  0  0  0  0  0  0  0
    1.6561    0.2618    2.3261 O   0  0  0  0  0  0  0  0  0  0  0  0
   -0.0139   -1.0319    1.4516 N   0  0  0  0  0  0  0  0  0  0  0  0
   -0.9989   -0.4778    2.3684 C   0  0  0  0  0  0  0  0  0  0  0  0
   -1.5948    0.8341    1.8212 C   0  0  0  0  0  0  0  0  0  0  0  0
   -2.1752    0.6798    0.4668 N   0  0  0  0  0  0  0  0  0  0  0  0
   -2.4487    1.9969   -0.1527 C   0  0  0  0  0  0  0  0  0  0  0  0
   -3.9396    2.2931   -0.3716 C   0  0  0  0  0  0  0  0  0  0  0  0
   -4.5849    1.3022   -1.1763 O   0  0  0  0  0  0  0  0  0  0  0  0
   -4.2183   -0.0517   -0.8438 C   0  0  0  0  0  0  0  0  0  0  0  0
   -5.5311   -0.8283   -0.6850 C   0  0  0  0  0  0  0  0  0  0  0  0
   -3.4410   -0.6255   -2.0363 C   0  0  0  0  0  0  0  0  0  0  0  0
   -3.3965   -0.1532    0.4752 C   0  0  0  0  0  0  0  0  0  0  0  0
    4.0296    0.2219    0.6540 N   0  0  0  0  0  0  0  0  0  0  0  0
    5.2246    0.1509    0.0510 N   0  0  0  0  0  0  0  0  0  0  0  0
    6.2498    1.1042    0.4051 C   0  0  0  0  0  0  0  0  0  0  0  0
    6.3782   -2.0296   -2.2984 H   0  0  0  0  0  0  0  0  0  0  0  0
    7.3852   -1.3469   -1.0136 H   0  0  0  0  0  0  0  0  0  0  0  0
    6.7680   -0.3031   -2.3140 H   0  0  0  0  0  0  0  0  0  0  0  0
    3.7774   -2.3392   -1.4144 H   0  0  0  0  0  0  0  0  0  0  0  0
    1.6265   -1.9015    0.0020 H   0  0  0  0  0  0  0  0  0  0  0  0
   -0.3781   -1.1431    0.5151 H   0  0  0  0  0  0  0  0  0  0  0  0
   -1.7755   -1.2366    2.5052 H   0  0  0  0  0  0  0  0  0  0  0  0
   -0.5348   -0.2986    3.3444 H   0  0  0  0  0  0  0  0  0  0  0  0
   -2.3393    1.2271    2.5245 H   0  0  0  0  0  0  0  0  0  0  0  0
   -0.7789    1.5669    1.7748 H   0  0  0  0  0  0  0  0  0  0  0  0
   -1.9996    2.8214    0.4139 H   0  0  0  0  0  0  0  0  0  0  0  0
   -1.9524    1.9919   -1.1306 H   0  0  0  0  0  0  0  0  0  0  0  0
   -4.0547    3.2536   -0.8841 H   0  0  0  0  0  0  0  0  0  0  0  0
   -4.4714    2.3726    0.5839 H   0  0  0  0  0  0  0  0  0  0  0  0
   -6.1396   -0.7603   -1.5942 H   0  0  0  0  0  0  0  0  0  0  0  0
   -6.1373   -0.4032    0.1232 H   0  0  0  0  0  0  0  0  0  0  0  0
   -5.3519   -1.8857   -0.4650 H   0  0  0  0  0  0  0  0  0  0  0  0
   -3.1610   -1.6705   -1.8674 H   0  0  0  0  0  0  0  0  0  0  0  0
   -2.5302   -0.0537   -2.2401 H   0  0  0  0  0  0  0  0  0  0  0  0
   -4.0417   -0.5728   -2.9519 H   0  0  0  0  0  0  0  0  0  0  0  0
   -3.1225   -1.2016    0.6425 H   0  0  0  0  0  0  0  0  0  0  0  0
   -4.0395    0.1502    1.3131 H   0  0  0  0  0  0  0  0  0  0  0  0
    5.8439    1.8360    1.1086 H   0  0  0  0  0  0  0  0  0  0  0  0
    7.0773    0.5616    0.8685 H   0  0  0  0  0  0  0  0  0  0  0  0
    6.5808    1.6116   -0.5043 H   0  0  0  0  0  0  0  0  0  0  0  0
  1  2  1  0
  2  3  2  0
  3  4  1  0
  4  5  1  0
  5  6  1  0
  6  7  2  0
  6  8  1  0
  8  9  1  0
  9 10  1  0
 10 11  1  0
 11 12  1  0
 12 13  1  0
 13 14  1  0
 14 15  1  0
 15 16  1  0
 15 17  1  0
 15 18  1  0
  4 19  2  0
 19 20  1  0
 20 21  1  0
 20  2  1  0
 18 11  1  0
  1 22  1  0
  1 23  1  0
  1 24  1  0
  3 25  1  0
  5 26  1  0
  8 27  1  0
  9 28  1  0
  9 29  1  0
 10 30  1  0
 10 31  1  0
 12 32  1  0
 12 33  1  0
 13 34  1  0
 13 35  1  0
 16 36  1  0
 16 37  1  0
 16 38  1  0
 17 39  1  0
 17 40  1  0
 17 41  1  0
 18 42  1  0
 18 43  1  0
 21 44  1  0
 21 45  1  0
 21 46  1  0
M  END
$$$$
OCNT-2310514
     RDKit          3D

 51 53  0  0  0  0  0  0  0  0999 V2000
    0.1875    1.4109    0.4518 O   0  0  0  0  0  0  0  0  0  0  0  0
   -0.0881    0.2607    0.1386 C   0  0  0  0  0  0  0  0  0  0  0  0
   -1.1199   -0.4653    0.6713 N   0  0  0  0  0  0  0  0  0  0  0  0
   -2.0571    0.1343    1.5917 C   0  0  0  0  0  0  0  0  0  0  0  0
   -3.2959    0.6137    0.8754 C   0  0  0  0  0  0  0  0  0  0  0  0
   -3.2910    1.8476    0.2150 C   0  0  0  0  0  0  0  0  0  0  0  0
   -4.4238    2.2864   -0.4655 C   0  0  0  0  0  0  0  0  0  0  0  0
   -5.5754    1.4964   -0.5004 C   0  0  0  0  0  0  0  0  0  0  0  0
   -5.6016    0.2522    0.1463 C   0  0  0  0  0  0  0  0  0  0  0  0
   -6.7736   -0.5599    0.1088 N   0  0  0  0  0  0  0  0  0  0  0  0
   -6.9596   -1.7951    0.6959 C   0  0  0  0  0  0  0  0  0  0  0  0
   -8.2416   -2.1820    0.3847 C   0  0  0  0  0  0  0  0  0  0  0  0
   -8.8617   -1.2349   -0.3744 N   0  0  0  0  0  0  0  0  0  0  0  0
   -7.9684   -0.2809   -0.5235 C   0  0  0  0  0  0  0  0  0  0  0  0
   -4.4537   -0.1828    0.8300 C   0  0  0  0  0  0  0  0  0  0  0  0
    0.5963   -0.4741   -0.7973 N   0  0  0  0  0  0  0  0  0  0  0  0
    1.8102    0.0487   -1.3951 C   0  0  0  0  0  0  0  0  0  0  0  0
    3.0457   -0.2178   -0.5126 C   0  0  0  0  0  0  0  0  0  0  0  0
    3.4461   -1.7022   -0.5610 C   0  0  0  0  0  0  0  0  0  0  0  0
    2.3493   -2.5399   -0.1944 O   0  0  0  0  0  0  0  0  0  0  0  0
    4.2036    0.6942   -0.9663 C   0  0  0  0  0  0  0  0  0  0  0  0
    5.3895    0.6908   -0.0255 C   0  0  0  0  0  0  0  0  0  0  0  0
    5.2721    1.3844    1.1934 C   0  0  0  0  0  0  0  0  0  0  0  0
    6.3269    1.4178    2.1069 C   0  0  0  0  0  0  0  0  0  0  0  0
    7.5179    0.7585    1.8195 C   0  0  0  0  0  0  0  0  0  0  0  0
    7.6526    0.0642    0.6181 C   0  0  0  0  0  0  0  0  0  0  0  0
    6.5971    0.0280   -0.2998 C   0  0  0  0  0  0  0  0  0  0  0  0
    6.8435   -0.8717   -1.7544 Cl  0  0  0  0  0  0  0  0  0  0  0  0
   -1.4689   -1.2004    0.0756 H   0  0  0  0  0  0  0  0  0  0  0  0
   -2.3197   -0.6333    2.3282 H   0  0  0  0  0  0  0  0  0  0  0  0
   -1.5909    0.9607    2.1403 H   0  0  0  0  0  0  0  0  0  0  0  0
   -2.3958    2.4689    0.2247 H   0  0  0  0  0  0  0  0  0  0  0  0
   -4.4072    3.2475   -0.9744 H   0  0  0  0  0  0  0  0  0  0  0  0
   -6.4276    1.8897   -1.0457 H   0  0  0  0  0  0  0  0  0  0  0  0
   -6.2020   -2.2985    1.2748 H   0  0  0  0  0  0  0  0  0  0  0  0
   -8.7469   -3.0955    0.6710 H   0  0  0  0  0  0  0  0  0  0  0  0
   -8.1464    0.6266   -1.0819 H   0  0  0  0  0  0  0  0  0  0  0  0
   -4.4277   -1.1412    1.3399 H   0  0  0  0  0  0  0  0  0  0  0  0
    0.6549   -1.4636   -0.5754 H   0  0  0  0  0  0  0  0  0  0  0  0
    1.9221   -0.4303   -2.3740 H   0  0  0  0  0  0  0  0  0  0  0  0
    1.6741    1.1233   -1.5618 H   0  0  0  0  0  0  0  0  0  0  0  0
    2.7783    0.0235    0.5251 H   0  0  0  0  0  0  0  0  0  0  0  0
    4.2633   -1.9062    0.1377 H   0  0  0  0  0  0  0  0  0  0  0  0
    3.7659   -1.9899   -1.5680 H   0  0  0  0  0  0  0  0  0  0  0  0
    2.7079   -3.4431   -0.1203 H   0  0  0  0  0  0  0  0  0  0  0  0
    3.8470    1.7320   -1.0292 H   0  0  0  0  0  0  0  0  0  0  0  0
    4.5013    0.4434   -1.9903 H   0  0  0  0  0  0  0  0  0  0  0  0
    4.3482    1.9081    1.4376 H   0  0  0  0  0  0  0  0  0  0  0  0
    6.2162    1.9608    3.0427 H   0  0  0  0  0  0  0  0  0  0  0  0
    8.3407    0.7847    2.5293 H   0  0  0  0  0  0  0  0  0  0  0  0
    8.5861   -0.4496    0.4019 H   0  0  0  0  0  0  0  0  0  0  0  0
  1  2  2  0
  2  3  1  0
  3  4  1  0
  4  5  1  0
  5  6  2  0
  6  7  1  0
  7  8  2  0
  8  9  1  0
  9 10  1  0
 10 11  1  0
 11 12  2  0
 12 13  1  0
 13 14  2  0
  9 15  2  0
  2 16  1  0
 16 17  1  0
 17 18  1  0
 18 19  1  0
 19 20  1  0
 18 21  1  0
 21 22  1  0
 22 23  2  0
 23 24  1  0
 24 25  2  0
 25 26  1  0
 26 27  2  0
 27 28  1  0
 15  5  1  0
 27 22  1  0
 14 10  1  0
  3 29  1  0
  4 30  1  0
  4 31  1  0
  6 32  1  0
  7 33  1  0
  8 34  1  0
 11 35  1  0
 12 36  1  0
 14 37  1  0
 15 38  1  0
 16 39  1  0
 17 40  1  0
 17 41  1  0
 18 42  1  0
 19 43  1  0
 19 44  1  0
 20 45  1  0
 21 46  1  0
 21 47  1  0
 23 48  1  0
 24 49  1  0
 25 50  1  0
 26 51  1  0
M  END
$$$$
OCNT-2310518
     RDKit          3D

 52 54  0  0  0  0  0  0  0  0999 V2000
   -3.4710    1.2014   -1.3571 C   0  0  0  0  0  0  0  0  0  0  0  0
   -4.0778    0.4839   -0.1295 C   0  0  0  0  0  0  0  0  0  0  0  0
   -4.1222    1.5235    1.0170 C   0  0  0  0  0  0  0  0  0  0  0  0
   -3.1949   -0.7234    0.3172 C   0  0  0  0  0  0  0  0  0  0  0  0
   -1.8448   -0.3754    0.7316 N   0  0  0  0  0  0  0  0  0  0  0  0
   -0.7787   -0.4211   -0.1417 C   0  0  0  0  0  0  0  0  0  0  0  0
   -0.8736   -0.7585   -1.3157 O   0  0  0  0  0  0  0  0  0  0  0  0
    0.5376    0.0066    0.4040 C   0  0  0  0  0  0  0  0  0  0  0  0
    0.8868   -0.2061    1.7454 C   0  0  0  0  0  0  0  0  0  0  0  0
    2.1373    0.2043    2.2151 C   0  0  0  0  0  0  0  0  0  0  0  0
    3.0398    0.8133    1.3367 C   0  0  0  0  0  0  0  0  0  0  0  0
    4.6212    1.3505    1.9429 S   0  0  0  0  0  0  0  0  0  0  0  0
    5.1892    2.2901    1.0014 O   0  0  0  0  0  0  0  0  0  0  0  0
    4.4438    1.7104    3.3349 O   0  0  0  0  0  0  0  0  0  0  0  0
    5.5233   -0.0791    1.9429 N   0  0  0  0  0  0  0  0  0  0  0  0
    6.0585   -0.5265    0.7043 C   0  0  0  0  0  0  0  0  0  0  0  0
    7.2868   -0.0417    0.2564 C   0  0  0  0  0  0  0  0  0  0  0  0
    7.7879   -0.4595   -0.9772 C   0  0  0  0  0  0  0  0  0  0  0  0
    7.0592   -1.3556   -1.7598 C   0  0  0  0  0  0  0  0  0  0  0  0
    5.8277   -1.8335   -1.3117 C   0  0  0  0  0  0  0  0  0  0  0  0
    5.3246   -1.4164   -0.0788 C   0  0  0  0  0  0  0  0  0  0  0  0
    2.6999    1.0311   -0.0015 C   0  0  0  0  0  0  0  0  0  0  0  0
    1.4514    0.6153   -0.4682 C   0  0  0  0  0  0  0  0  0  0  0  0
   -5.4743   -0.0607   -0.4981 C   0  0  0  0  0  0  0  0  0  0  0  0
   -6.6294    0.2341    0.2385 C   0  0  0  0  0  0  0  0  0  0  0  0
   -7.8478   -0.3070   -0.1548 C   0  0  0  0  0  0  0  0  0  0  0  0
   -8.0053   -1.1197   -1.2178 N   0  0  0  0  0  0  0  0  0  0  0  0
   -6.8925   -1.4022   -1.9218 C   0  0  0  0  0  0  0  0  0  0  0  0
   -5.6333   -0.9096   -1.6071 C   0  0  0  0  0  0  0  0  0  0  0  0
   -4.1524    1.9716   -1.7384 H   0  0  0  0  0  0  0  0  0  0  0  0
   -3.2636    0.5105   -2.1810 H   0  0  0  0  0  0  0  0  0  0  0  0
   -2.5271    1.6989   -1.1077 H   0  0  0  0  0  0  0  0  0  0  0  0
   -4.7831    2.3632    0.7713 H   0  0  0  0  0  0  0  0  0  0  0  0
   -4.4738    1.0763    1.9540 H   0  0  0  0  0  0  0  0  0  0  0  0
   -3.1313    1.9484    1.2148 H   0  0  0  0  0  0  0  0  0  0  0  0
   -3.6563   -1.2222    1.1789 H   0  0  0  0  0  0  0  0  0  0  0  0
   -3.1247   -1.4724   -0.4805 H   0  0  0  0  0  0  0  0  0  0  0  0
   -1.7252    0.0443    1.6433 H   0  0  0  0  0  0  0  0  0  0  0  0
    0.2096   -0.7122    2.4280 H   0  0  0  0  0  0  0  0  0  0  0  0
    2.4057    0.0397    3.2569 H   0  0  0  0  0  0  0  0  0  0  0  0
    6.1406   -0.1134    2.7536 H   0  0  0  0  0  0  0  0  0  0  0  0
    7.8509    0.6736    0.8485 H   0  0  0  0  0  0  0  0  0  0  0  0
    8.7423   -0.0788   -1.3326 H   0  0  0  0  0  0  0  0  0  0  0  0
    7.4493   -1.6777   -2.7224 H   0  0  0  0  0  0  0  0  0  0  0  0
    5.2588   -2.5293   -1.9235 H   0  0  0  0  0  0  0  0  0  0  0  0
    4.3671   -1.7976    0.2647 H   0  0  0  0  0  0  0  0  0  0  0  0
    3.3994    1.5095   -0.6846 H   0  0  0  0  0  0  0  0  0  0  0  0
    1.1877    0.7705   -1.5134 H   0  0  0  0  0  0  0  0  0  0  0  0
   -6.6172    0.8744    1.1128 H   0  0  0  0  0  0  0  0  0  0  0  0
   -8.7573   -0.0906    0.3988 H   0  0  0  0  0  0  0  0  0  0  0  0
   -7.0371   -2.0582   -2.7755 H   0  0  0  0  0  0  0  0  0  0  0  0
   -4.7916   -1.1970   -2.2305 H   0  0  0  0  0  0  0  0  0  0  0  0
  1  2  1  0
  2  3  1  0
  2  4  1  0
  4  5  1  0
  5  6  1  0
  6  7  2  0
  6  8  1  0
  8  9  1  0
  9 10  2  0
 10 11  1  0
 11 12  1  0
 12 13  2  0
 12 14  2  0
 12 15  1  0
 15 16  1  0
 16 17  2  0
 17 18  1  0
 18 19  2  0
 19 20  1  0
 20 21  2  0
 11 22  2  0
 22 23  1  0
  2 24  1  0
 24 25  2  0
 25 26  1  0
 26 27  2  0
 27 28  1  0
 28 29  2  0
 23  8  2  0
 29 24  1  0
 21 16  1  0
  1 30  1  0
  1 31  1  0
  1 32  1  0
  3 33  1  0
  3 34  1  0
  3 35  1  0
  4 36  1  0
  4 37  1  0
  5 38  1  0
  9 39  1  0
 10 40  1  0
 15 41  1  0
 17 42  1  0
 18 43  1  0
 19 44  1  0
 20 45  1  0
 21 46  1  0
 22 47  1  0
 23 48  1  0
 25 49  1  0
 26 50  1  0
 28 51  1  0
 29 52  1  0
M  END
$$$$
OCNT-2310526
     RDKit          3D

 45 48  0  0  0  0  0  0  0  0999 V2000
    3.4542    0.1684    2.9410 O   0  0  0  0  0  0  0  0  0  0  0  0
    4.2432    0.1218    2.0149 C   0  0  0  0  0  0  0  0  0  0  0  0
    5.4712   -0.5188    2.0502 N   0  0  0  0  0  0  0  0  0  0  0  0
    6.2550   -0.1935    0.8903 C   0  0  0  0  0  0  0  0  0  0  0  0
    5.2399    0.3893   -0.0868 C   0  0  0  0  0  0  0  0  0  0  0  0
    4.1032    0.6914    0.7564 N   0  0  0  0  0  0  0  0  0  0  0  0
    2.9178    1.3867    0.2981 C   0  0  0  0  0  0  0  0  0  0  0  0
    1.7111    0.4676    0.0428 C   0  0  0  0  0  0  0  0  0  0  0  0
    0.4424    1.3197   -0.1929 C   0  0  0  0  0  0  0  0  0  0  0  0
   -0.5249    0.7054   -1.2026 C   0  0  0  0  0  0  0  0  0  0  0  0
   -0.5511   -0.7453   -1.0817 N   0  0  0  0  0  0  0  0  0  0  0  0
   -1.7067   -1.5199   -1.2005 C   0  0  0  0  0  0  0  0  0  0  0  0
   -1.6621   -2.6589   -1.6652 O   0  0  0  0  0  0  0  0  0  0  0  0
   -2.9661   -0.9695   -0.7453 C   0  0  0  0  0  0  0  0  0  0  0  0
   -3.2796   -0.0707    0.2660 C   0  0  0  0  0  0  0  0  0  0  0  0
   -4.6905    0.0898    0.3019 C   0  0  0  0  0  0  0  0  0  0  0  0
   -5.5996    0.8439    1.0599 C   0  0  0  0  0  0  0  0  0  0  0  0
   -6.9571    0.6970    0.7701 C   0  0  0  0  0  0  0  0  0  0  0  0
   -7.3413   -0.1786   -0.2383 C   0  0  0  0  0  0  0  0  0  0  0  0
   -6.5067   -0.9298   -0.9927 N   0  0  0  0  0  0  0  0  0  0  0  0
   -5.2124   -0.7507   -0.6724 C   0  0  0  0  0  0  0  0  0  0  0  0
   -4.1696   -1.4022   -1.2645 N   0  0  0  0  0  0  0  0  0  0  0  0
    0.7205   -1.4171   -1.3238 C   0  0  0  0  0  0  0  0  0  0  0  0
    1.9353   -0.5074   -1.1200 C   0  0  0  0  0  0  0  0  0  0  0  0
    5.8305   -0.8381    2.9398 H   0  0  0  0  0  0  0  0  0  0  0  0
    6.7597   -1.0842    0.5085 H   0  0  0  0  0  0  0  0  0  0  0  0
    6.9999    0.5525    1.1853 H   0  0  0  0  0  0  0  0  0  0  0  0
    5.6086    1.2943   -0.5776 H   0  0  0  0  0  0  0  0  0  0  0  0
    4.9430   -0.3451   -0.8403 H   0  0  0  0  0  0  0  0  0  0  0  0
    3.1754    1.9635   -0.5975 H   0  0  0  0  0  0  0  0  0  0  0  0
    2.6529    2.1018    1.0869 H   0  0  0  0  0  0  0  0  0  0  0  0
    1.5387   -0.1362    0.9447 H   0  0  0  0  0  0  0  0  0  0  0  0
   -0.0682    1.4420    0.7710 H   0  0  0  0  0  0  0  0  0  0  0  0
    0.6984    2.3311   -0.5315 H   0  0  0  0  0  0  0  0  0  0  0  0
   -0.1923    0.9308   -2.2245 H   0  0  0  0  0  0  0  0  0  0  0  0
   -1.5119    1.1619   -1.1162 H   0  0  0  0  0  0  0  0  0  0  0  0
   -2.5664    0.4126    0.9210 H   0  0  0  0  0  0  0  0  0  0  0  0
   -5.2630    1.5145    1.8430 H   0  0  0  0  0  0  0  0  0  0  0  0
   -7.7037    1.2552    1.3246 H   0  0  0  0  0  0  0  0  0  0  0  0
   -8.3954   -0.3053   -0.4753 H   0  0  0  0  0  0  0  0  0  0  0  0
   -4.2698   -2.1043   -1.9835 H   0  0  0  0  0  0  0  0  0  0  0  0
    0.7744   -2.2757   -0.6432 H   0  0  0  0  0  0  0  0  0  0  0  0
    0.7230   -1.8128   -2.3466 H   0  0  0  0  0  0  0  0  0  0  0  0
    2.1258    0.0605   -2.0398 H   0  0  0  0  0  0  0  0  0  0  0  0
    2.8142   -1.1374   -0.9513 H   0  0  0  0  0  0  0  0  0  0  0  0
  1  2  2  0
  2  3  1  0
  3  4  1  0
  4  5  1  0
  5  6  1  0
  6  7  1  0
  7  8  1  0
  8  9  1  0
  9 10  1  0
 10 11  1  0
 11 12  1  0
 12 13  2  0
 12 14  1  0
 14 15  2  0
 15 16  1  0
 16 17  1  0
 17 18  2  0
 18 19  1  0
 19 20  2  0
 20 21  1  0
 21 22  1  0
 11 23  1  0
 23 24  1  0
  6  2  1  0
 24  8  1  0
 22 14  1  0
 21 16  2  0
  3 25  1  0
  4 26  1  0
  4 27  1  0
  5 28  1  0
  5 29  1  0
  7 30  1  0
  7 31  1  0
  8 32  1  0
  9 33  1  0
  9 34  1  0
 10 35  1  0
 10 36  1  0
 15 37  1  0
 17 38  1  0
 18 39  1  0
 19 40  1  0
 22 41  1  0
 23 42  1  0
 23 43  1  0
 24 44  1  0
 24 45  1  0
M  END
$$$$
OCNT-2310534
     RDKit          3D

 39 42  0  0  0  0  0  0  0  0999 V2000
   -5.5025    3.9390    0.7038 O   0  0  0  0  0  0  0  0  0  0  0  0
   -4.9407    2.8800    0.4886 C   0  0  0  0  0  0  0  0  0  0  0  0
   -5.0490    1.7051    1.2462 N   0  0  0  0  0  0  0  0  0  0  0  0
   -4.2482    0.7261    0.6686 C   0  0  0  0  0  0  0  0  0  0  0  0
   -4.0285   -0.5720    1.0585 C   0  0  0  0  0  0  0  0  0  0  0  0
   -3.1530   -1.3243    0.2665 C   0  0  0  0  0  0  0  0  0  0  0  0
   -2.5306   -0.7736   -0.8877 C   0  0  0  0  0  0  0  0  0  0  0  0
   -1.5725   -1.6172   -1.6926 C   0  0  0  0  0  0  0  0  0  0  0  0
   -0.2401   -1.5281   -1.1567 N   0  0  0  0  0  0  0  0  0  0  0  0
    0.2677   -2.4397   -0.2576 C   0  0  0  0  0  0  0  0  0  0  0  0
   -0.2961   -3.4771    0.0703 O   0  0  0  0  0  0  0  0  0  0  0  0
    1.5948   -2.0490    0.3185 C   0  0  0  0  0  0  0  0  0  0  0  0
    2.2321   -2.8805    1.2269 C   0  0  0  0  0  0  0  0  0  0  0  0
    3.4547   -2.4654    1.7392 C   0  0  0  0  0  0  0  0  0  0  0  0
    3.9893   -1.2443    1.3282 C   0  0  0  0  0  0  0  0  0  0  0  0
    3.2841   -0.4653    0.4115 C   0  0  0  0  0  0  0  0  0  0  0  0
    3.8000    0.8279   -0.0677 C   0  0  0  0  0  0  0  0  0  0  0  0
    5.1051    1.2946   -0.1006 C   0  0  0  0  0  0  0  0  0  0  0  0
    5.2136    2.6150   -0.6284 C   0  0  0  0  0  0  0  0  0  0  0  0
    3.9885    3.1266   -0.9855 C   0  0  0  0  0  0  0  0  0  0  0  0
    2.7220    2.0211   -0.6885 S   0  0  0  0  0  0  0  0  0  0  0  0
    2.0940   -0.8537   -0.1017 N   0  0  0  0  0  0  0  0  0  0  0  0
   -2.7723    0.5639   -1.2493 C   0  0  0  0  0  0  0  0  0  0  0  0
   -3.6357    1.2795   -0.4536 C   0  0  0  0  0  0  0  0  0  0  0  0
   -4.0593    2.5993   -0.5653 N   0  0  0  0  0  0  0  0  0  0  0  0
   -5.6181    1.6195    2.0716 H   0  0  0  0  0  0  0  0  0  0  0  0
   -4.4983   -0.9984    1.9359 H   0  0  0  0  0  0  0  0  0  0  0  0
   -2.9367   -2.3555    0.5482 H   0  0  0  0  0  0  0  0  0  0  0  0
   -1.9082   -2.6601   -1.7130 H   0  0  0  0  0  0  0  0  0  0  0  0
   -1.5357   -1.2666   -2.7298 H   0  0  0  0  0  0  0  0  0  0  0  0
    0.2850   -0.6619   -1.2502 H   0  0  0  0  0  0  0  0  0  0  0  0
    1.7862   -3.8228    1.5286 H   0  0  0  0  0  0  0  0  0  0  0  0
    3.9869   -3.0845    2.4566 H   0  0  0  0  0  0  0  0  0  0  0  0
    4.9385   -0.9128    1.7361 H   0  0  0  0  0  0  0  0  0  0  0  0
    5.9581    0.7148    0.2302 H   0  0  0  0  0  0  0  0  0  0  0  0
    6.1433    3.1593   -0.7415 H   0  0  0  0  0  0  0  0  0  0  0  0
    3.7734    4.0980   -1.4093 H   0  0  0  0  0  0  0  0  0  0  0  0
   -2.2976    1.0138   -2.1132 H   0  0  0  0  0  0  0  0  0  0  0  0
   -3.7942    3.2694   -1.2675 H   0  0  0  0  0  0  0  0  0  0  0  0
  1  2  2  0
  2  3  1  0
  3  4  1  0
  4  5  1  0
  5  6  2  0
  6  7  1  0
  7  8  1  0
  8  9  1  0
  9 10  1  0
 10 11  2  0
 10 12  1  0
 12 13  1  0
 13 14  2  0
 14 15  1  0
 15 16  2  0
 16 17  1  0
 17 18  2  0
 18 19  1  0
 19 20  2  0
 20 21  1  0
 16 22  1  0
  7 23  2  0
 23 24  1  0
 24 25  1  0
 25  2  1  0
 24  4  2  0
 22 12  2  0
 21 17  1  0
  3 26  1  0
  5 27  1  0
  6 28  1  0
  8 29  1  0
  8 30  1  0
  9 31  1  0
 13 32  1  0
 14 33  1  0
 15 34  1  0
 18 35  1  0
 19 36  1  0
 20 37  1  0
 23 38  1  0
 25 39  1  0
M  END
$$$$
OCNT-2310546
     RDKit          3D

 44 46  0  0  0  0  0  0  0  0999 V2000
    6.0038    1.8483   -1.8557 C   0  0  0  0  0  0  0  0  0  0  0  0
    5.1374    0.9793   -1.1250 O   0  0  0  0  0  0  0  0  0  0  0  0
    3.9832    0.6719   -1.7780 C   0  0  0  0  0  0  0  0  0  0  0  0
    3.6892    1.0982   -2.8878 O   0  0  0  0  0  0  0  0  0  0  0  0
    3.1493   -0.2198   -0.9898 C   0  0  0  0  0  0  0  0  0  0  0  0
    1.9280   -0.7434   -1.4085 C   0  0  0  0  0  0  0  0  0  0  0  0
    1.4113   -1.5626   -0.3802 C   0  0  0  0  0  0  0  0  0  0  0  0
   -0.0885   -2.4168   -0.4023 S   0  0  0  0  0  0  0  0  0  0  0  0
    0.2213   -3.7211    0.1371 O   0  0  0  0  0  0  0  0  0  0  0  0
   -0.6144   -2.2411   -1.7365 O   0  0  0  0  0  0  0  0  0  0  0  0
   -1.1203   -1.6679    0.6841 N   0  0  0  0  0  0  0  0  0  0  0  0
   -1.6009   -0.3108    0.3591 C   0  0  0  0  0  0  0  0  0  0  0  0
   -1.0587    0.6119    1.4654 C   0  0  0  0  0  0  0  0  0  0  0  0
   -1.7453    1.9688    1.4406 C   0  0  0  0  0  0  0  0  0  0  0  0
   -3.2317    1.8012    1.7345 C   0  0  0  0  0  0  0  0  0  0  0  0
   -3.8763    0.7481    0.8680 C   0  0  0  0  0  0  0  0  0  0  0  0
   -5.2734    0.7593    0.7248 C   0  0  0  0  0  0  0  0  0  0  0  0
   -5.9154   -0.1868   -0.0715 C   0  0  0  0  0  0  0  0  0  0  0  0
   -5.1690   -1.1531   -0.7358 C   0  0  0  0  0  0  0  0  0  0  0  0
   -3.7819   -1.1839   -0.5901 C   0  0  0  0  0  0  0  0  0  0  0  0
   -3.1173   -0.2557    0.2332 C   0  0  0  0  0  0  0  0  0  0  0  0
    2.3138   -1.5250    0.6594 C   0  0  0  0  0  0  0  0  0  0  0  0
    3.3659   -0.7253    0.2830 N   0  0  0  0  0  0  0  0  0  0  0  0
    4.5098   -0.4790    1.1374 C   0  0  0  0  0  0  0  0  0  0  0  0
    5.5157    2.8103   -2.0409 H   0  0  0  0  0  0  0  0  0  0  0  0
    6.8956    2.0251   -1.2480 H   0  0  0  0  0  0  0  0  0  0  0  0
    6.3135    1.3810   -2.7958 H   0  0  0  0  0  0  0  0  0  0  0  0
    1.4657   -0.5471   -2.3703 H   0  0  0  0  0  0  0  0  0  0  0  0
   -1.8384   -2.3052    1.0260 H   0  0  0  0  0  0  0  0  0  0  0  0
   -1.1907    0.0415   -0.5956 H   0  0  0  0  0  0  0  0  0  0  0  0
    0.0234    0.7410    1.3416 H   0  0  0  0  0  0  0  0  0  0  0  0
   -1.2025    0.1543    2.4541 H   0  0  0  0  0  0  0  0  0  0  0  0
   -1.2953    2.6328    2.1872 H   0  0  0  0  0  0  0  0  0  0  0  0
   -1.6019    2.4399    0.4601 H   0  0  0  0  0  0  0  0  0  0  0  0
   -3.7294    2.7666    1.5833 H   0  0  0  0  0  0  0  0  0  0  0  0
   -3.3717    1.5160    2.7846 H   0  0  0  0  0  0  0  0  0  0  0  0
   -5.8696    1.5167    1.2298 H   0  0  0  0  0  0  0  0  0  0  0  0
   -6.9962   -0.1626   -0.1819 H   0  0  0  0  0  0  0  0  0  0  0  0
   -5.6636   -1.8815   -1.3733 H   0  0  0  0  0  0  0  0  0  0  0  0
   -3.2204   -1.9384   -1.1386 H   0  0  0  0  0  0  0  0  0  0  0  0
    2.2875   -2.0150    1.6253 H   0  0  0  0  0  0  0  0  0  0  0  0
    4.5722    0.5935    1.3368 H   0  0  0  0  0  0  0  0  0  0  0  0
    5.4063   -0.8514    0.6361 H   0  0  0  0  0  0  0  0  0  0  0  0
    4.3800   -1.0122    2.0833 H   0  0  0  0  0  0  0  0  0  0  0  0
  1  2  1  0
  2  3  1  0
  3  4  2  0
  3  5  1  0
  5  6  2  0
  6  7  1  0
  7  8  1  0
  8  9  2  0
  8 10  2  0
  8 11  1  0
 11 12  1  0
 12 13  1  0
 13 14  1  0
 14 15  1  0
 15 16  1  0
 16 17  2  0
 17 18  1  0
 18 19  2  0
 19 20  1  0
 20 21  2  0
  7 22  2  0
 22 23  1  0
 23 24  1  0
 23  5  1  0
 21 12  1  0
 21 16  1  0
  1 25  1  0
  1 26  1  0
  1 27  1  0
  6 28  1  0
 11 29  1  0
 12 30  1  0
 13 31  1  0
 13 32  1  0
 14 33  1  0
 14 34  1  0
 15 35  1  0
 15 36  1  0
 17 37  1  0
 18 38  1  0
 19 39  1  0
 20 40  1  0
 22 41  1  0
 24 42  1  0
 24 43  1  0
 24 44  1  0
M  END
$$$$
OCNT-2310551
     RDKit          3D

 49 51  0  0  0  0  0  0  0  0999 V2000
   -5.5155   -2.9581    0.3847 C   0  0  0  0  0  0  0  0  0  0  0  0
   -4.6546   -2.0134   -0.2384 O   0  0  0  0  0  0  0  0  0  0  0  0
   -5.1559   -0.7315   -0.1933 C   0  0  0  0  0  0  0  0  0  0  0  0
   -6.5066   -0.6004   -0.2517 N   0  0  0  0  0  0  0  0  0  0  0  0
   -7.0012    0.6402   -0.4410 C   0  0  0  0  0  0  0  0  0  0  0  0
   -6.2165    1.7733   -0.5999 C   0  0  0  0  0  0  0  0  0  0  0  0
   -6.8335    3.1098   -0.8637 C   0  0  0  0  0  0  0  0  0  0  0  0
   -4.8290    1.6073   -0.5579 C   0  0  0  0  0  0  0  0  0  0  0  0
   -4.2693    0.3462   -0.3151 C   0  0  0  0  0  0  0  0  0  0  0  0
   -2.8546    0.2862   -0.2506 N   0  0  0  0  0  0  0  0  0  0  0  0
   -2.1066   -0.6603    0.4277 C   0  0  0  0  0  0  0  0  0  0  0  0
   -2.5204   -1.5378    1.1745 O   0  0  0  0  0  0  0  0  0  0  0  0
   -0.6414   -0.5519    0.2544 C   0  0  0  0  0  0  0  0  0  0  0  0
    0.1235   -1.7021    0.1087 C   0  0  0  0  0  0  0  0  0  0  0  0
    1.5056   -1.5852   -0.0555 C   0  0  0  0  0  0  0  0  0  0  0  0
    2.1147   -0.3268   -0.0545 C   0  0  0  0  0  0  0  0  0  0  0  0
    3.4878   -0.1943   -0.2402 N   0  0  0  0  0  0  0  0  0  0  0  0
    3.9817    1.1721   -0.4278 C   0  0  0  0  0  0  0  0  0  0  0  0
    5.4449    1.1221   -0.8630 C   0  0  0  0  0  0  0  0  0  0  0  0
    6.3352    0.4730    0.2086 C   0  0  0  0  0  0  0  0  0  0  0  0
    7.5240   -0.2355   -0.4417 C   0  0  0  0  0  0  0  0  0  0  0  0
    5.5393   -0.4765    1.1174 C   0  0  0  0  0  0  0  0  0  0  0  0
    4.3851   -1.1683    0.3906 C   0  0  0  0  0  0  0  0  0  0  0  0
    1.3632    0.7907    0.0895 N   0  0  0  0  0  0  0  0  0  0  0  0
    0.0238    0.6601    0.2582 C   0  0  0  0  0  0  0  0  0  0  0  0
   -5.8138   -2.6338    1.3883 H   0  0  0  0  0  0  0  0  0  0  0  0
   -4.9615   -3.8960    0.4893 H   0  0  0  0  0  0  0  0  0  0  0  0
   -6.3938   -3.1591   -0.2380 H   0  0  0  0  0  0  0  0  0  0  0  0
   -8.0863    0.6938   -0.4778 H   0  0  0  0  0  0  0  0  0  0  0  0
   -6.9477    3.2643   -1.9411 H   0  0  0  0  0  0  0  0  0  0  0  0
   -6.2124    3.9138   -0.4552 H   0  0  0  0  0  0  0  0  0  0  0  0
   -7.8176    3.1875   -0.3895 H   0  0  0  0  0  0  0  0  0  0  0  0
   -4.1891    2.4766   -0.6859 H   0  0  0  0  0  0  0  0  0  0  0  0
   -2.3686    1.0677   -0.6672 H   0  0  0  0  0  0  0  0  0  0  0  0
   -0.3472   -2.6821    0.1113 H   0  0  0  0  0  0  0  0  0  0  0  0
    2.0925   -2.4848   -0.2076 H   0  0  0  0  0  0  0  0  0  0  0  0
    3.4126    1.6809   -1.2162 H   0  0  0  0  0  0  0  0  0  0  0  0
    3.8806    1.7567    0.4957 H   0  0  0  0  0  0  0  0  0  0  0  0
    5.8072    2.1350   -1.0750 H   0  0  0  0  0  0  0  0  0  0  0  0
    5.5138    0.5629   -1.8057 H   0  0  0  0  0  0  0  0  0  0  0  0
    6.7435    1.2684    0.8463 H   0  0  0  0  0  0  0  0  0  0  0  0
    7.1969   -1.0712   -1.0693 H   0  0  0  0  0  0  0  0  0  0  0  0
    8.2041   -0.6313    0.3200 H   0  0  0  0  0  0  0  0  0  0  0  0
    8.0931    0.4589   -1.0689 H   0  0  0  0  0  0  0  0  0  0  0  0
    6.1978   -1.2251    1.5733 H   0  0  0  0  0  0  0  0  0  0  0  0
    5.1220    0.1076    1.9490 H   0  0  0  0  0  0  0  0  0  0  0  0
    4.7779   -1.8373   -0.3840 H   0  0  0  0  0  0  0  0  0  0  0  0
    3.8654   -1.7929    1.1273 H   0  0  0  0  0  0  0  0  0  0  0  0
   -0.4929    1.6006    0.4192 H   0  0  0  0  0  0  0  0  0  0  0  0
  1  2  1  0
  2  3  1  0
  3  4  1  0
  4  5  2  0
  5  6  1  0
  6  7  1  0
  6  8  2  0
  8  9  1  0
  9 10  1  0
 10 11  1  0
 11 12  2  0
 11 13  1  0
 13 14  2  0
 14 15  1  0
 15 16  2  0
 16 17  1  0
 17 18  1  0
 18 19  1  0
 19 20  1  0
 20 21  1  0
 20 22  1  0
 22 23  1  0
 16 24  1  0
 24 25  2  0
  9  3  2  0
 25 13  1  0
 23 17  1  0
  1 26  1  0
  1 27  1  0
  1 28  1  0
  5 29  1  0
  7 30  1  0
  7 31  1  0
  7 32  1  0
  8 33  1  0
 10 34  1  0
 14 35  1  0
 15 36  1  0
 18 37  1  0
 18 38  1  0
 19 39  1  0
 19 40  1  0
 20 41  1  0
 21 42  1  0
 21 43  1  0
 21 44  1  0
 22 45  1  0
 22 46  1  0
 23 47  1  0
 23 48  1  0
 25 49  1  0
M  END
$$$$
OCNT-2310566
     RDKit          3D

 37 38  0  0  0  0  0  0  0  0999 V2000
    3.7744    0.5644   -2.9196 C   0  0  0  0  0  0  0  0  0  0  0  0
    3.9676   -0.1287   -1.5946 C   0  0  0  0  0  0  0  0  0  0  0  0
    5.0471   -0.6007   -1.2590 O   0  0  0  0  0  0  0  0  0  0  0  0
    2.8386   -0.1766   -0.8121 N   0  0  0  0  0  0  0  0  0  0  0  0
    2.8082   -0.9460    0.4353 C   0  0  0  0  0  0  0  0  0  0  0  0
    3.6586   -0.3001    1.5304 C   0  0  0  0  0  0  0  0  0  0  0  0
    1.3688   -1.0924    0.8300 C   0  0  0  0  0  0  0  0  0  0  0  0
    0.3609   -1.5164    0.0948 N   0  0  0  0  0  0  0  0  0  0  0  0
   -0.7123   -1.3193    0.9294 C   0  0  0  0  0  0  0  0  0  0  0  0
   -2.1312   -1.5528    0.5031 C   0  0  0  0  0  0  0  0  0  0  0  0
   -2.3206   -2.9768   -0.0205 C   0  0  0  0  0  0  0  0  0  0  0  0
   -2.5444   -0.6619   -0.5654 O   0  0  0  0  0  0  0  0  0  0  0  0
   -2.8215    0.6053   -0.1171 C   0  0  0  0  0  0  0  0  0  0  0  0
   -3.9838    0.8350    0.6262 C   0  0  0  0  0  0  0  0  0  0  0  0
   -4.2882    2.1250    1.0620 C   0  0  0  0  0  0  0  0  0  0  0  0
   -3.4431    3.1845    0.7304 C   0  0  0  0  0  0  0  0  0  0  0  0
   -3.8611    4.9292    1.3159 Br  0  0  0  0  0  0  0  0  0  0  0  0
   -2.3004    2.9696   -0.0400 C   0  0  0  0  0  0  0  0  0  0  0  0
   -1.9928    1.6783   -0.4711 C   0  0  0  0  0  0  0  0  0  0  0  0
   -0.5817    1.4519   -1.4408 Cl  0  0  0  0  0  0  0  0  0  0  0  0
   -0.3969   -0.8361    2.1424 N   0  0  0  0  0  0  0  0  0  0  0  0
    0.9874   -0.6747    2.0753 O   0  0  0  0  0  0  0  0  0  0  0  0
    3.9631   -0.1491   -3.7261 H   0  0  0  0  0  0  0  0  0  0  0  0
    2.7589    0.9562   -3.0289 H   0  0  0  0  0  0  0  0  0  0  0  0
    4.4764    1.3999   -2.9938 H   0  0  0  0  0  0  0  0  0  0  0  0
    1.9502   -0.0862   -1.2980 H   0  0  0  0  0  0  0  0  0  0  0  0
    3.2071   -1.9464    0.2152 H   0  0  0  0  0  0  0  0  0  0  0  0
    3.6198   -0.8864    2.4553 H   0  0  0  0  0  0  0  0  0  0  0  0
    3.3126    0.7149    1.7611 H   0  0  0  0  0  0  0  0  0  0  0  0
    4.7097   -0.2266    1.2344 H   0  0  0  0  0  0  0  0  0  0  0  0
   -2.7980   -1.4396    1.3690 H   0  0  0  0  0  0  0  0  0  0  0  0
   -2.0277   -3.7213    0.7270 H   0  0  0  0  0  0  0  0  0  0  0  0
   -1.7299   -3.1475   -0.9291 H   0  0  0  0  0  0  0  0  0  0  0  0
   -3.3689   -3.1470   -0.2918 H   0  0  0  0  0  0  0  0  0  0  0  0
   -4.6663    0.0217    0.8550 H   0  0  0  0  0  0  0  0  0  0  0  0
   -5.1892    2.2983    1.6490 H   0  0  0  0  0  0  0  0  0  0  0  0
   -1.6513    3.7985   -0.3038 H   0  0  0  0  0  0  0  0  0  0  0  0
  1  2  1  0
  2  3  2  0
  2  4  1  0
  4  5  1  0
  5  6  1  0
  5  7  1  0
  7  8  2  0
  8  9  1  0
  9 10  1  0
 10 11  1  0
 10 12  1  0
 12 13  1  0
 13 14  1  0
 14 15  2  0
 15 16  1  0
 16 17  1  0
 16 18  2  0
 18 19  1  0
 19 20  1  0
  9 21  2  0
 21 22  1  0
 22  7  1  0
 19 13  2  0
  1 23  1  0
  1 24  1  0
  1 25  1  0
  4 26  1  0
  5 27  1  0
  6 28  1  0
  6 29  1  0
  6 30  1  0
 10 31  1  0
 11 32  1  0
 11 33  1  0
 11 34  1  0
 14 35  1  0
 15 36  1  0
 18 37  1  0
M  END
$$$$
OCNT-2310581
     RDKit          3D

 39 41  0  0  0  0  0  0  0  0999 V2000
    4.6042   -2.0004   -1.8691 C   0  0  0  0  0  0  0  0  0  0  0  0
    4.2422   -1.3075   -0.6173 C   0  0  0  0  0  0  0  0  0  0  0  0
    4.6881   -1.4018    0.6811 C   0  0  0  0  0  0  0  0  0  0  0  0
    3.9398   -0.4597    1.4415 C   0  0  0  0  0  0  0  0  0  0  0  0
    4.0567   -0.1904    2.8963 C   0  0  0  0  0  0  0  0  0  0  0  0
    3.0765    0.1559    0.5457 C   0  0  0  0  0  0  0  0  0  0  0  0
    2.0744    1.1897    0.7284 C   0  0  0  0  0  0  0  0  0  0  0  0
    1.8159    1.7109    1.8103 O   0  0  0  0  0  0  0  0  0  0  0  0
    1.4192    1.5363   -0.4333 N   0  0  0  0  0  0  0  0  0  0  0  0
    0.2977    2.4383   -0.4529 C   0  0  0  0  0  0  0  0  0  0  0  0
   -1.0022    1.6772   -0.4370 C   0  0  0  0  0  0  0  0  0  0  0  0
   -1.6691    1.3636   -1.6254 C   0  0  0  0  0  0  0  0  0  0  0  0
   -2.8653    0.6335   -1.6047 C   0  0  0  0  0  0  0  0  0  0  0  0
   -3.4185    0.1931   -0.3899 C   0  0  0  0  0  0  0  0  0  0  0  0
   -4.6364   -0.5496   -0.3817 N   0  0  0  0  0  0  0  0  0  0  0  0
   -5.3217   -1.0613    0.7003 C   0  0  0  0  0  0  0  0  0  0  0  0
   -6.4331   -1.6947    0.1977 C   0  0  0  0  0  0  0  0  0  0  0  0
   -6.4702   -1.5987   -1.1603 N   0  0  0  0  0  0  0  0  0  0  0  0
   -5.3936   -0.9145   -1.4794 C   0  0  0  0  0  0  0  0  0  0  0  0
   -2.7378    0.5034    0.7933 C   0  0  0  0  0  0  0  0  0  0  0  0
   -3.1852    0.1215    1.9966 F   0  0  0  0  0  0  0  0  0  0  0  0
   -1.5466    1.2315    0.7720 C   0  0  0  0  0  0  0  0  0  0  0  0
    3.2650   -0.3661   -0.7097 O   0  0  0  0  0  0  0  0  0  0  0  0
    5.3949   -2.7370   -1.6962 H   0  0  0  0  0  0  0  0  0  0  0  0
    4.9632   -1.2831   -2.6135 H   0  0  0  0  0  0  0  0  0  0  0  0
    3.7359   -2.5227   -2.2822 H   0  0  0  0  0  0  0  0  0  0  0  0
    5.4595   -2.0693    1.0411 H   0  0  0  0  0  0  0  0  0  0  0  0
    4.3302    0.8546    3.0735 H   0  0  0  0  0  0  0  0  0  0  0  0
    4.8250   -0.8220    3.3538 H   0  0  0  0  0  0  0  0  0  0  0  0
    3.1077   -0.3940    3.4026 H   0  0  0  0  0  0  0  0  0  0  0  0
    1.6296    0.9806   -1.2538 H   0  0  0  0  0  0  0  0  0  0  0  0
    0.3765    3.0391   -1.3656 H   0  0  0  0  0  0  0  0  0  0  0  0
    0.3422    3.1313    0.3949 H   0  0  0  0  0  0  0  0  0  0  0  0
   -1.2628    1.6851   -2.5832 H   0  0  0  0  0  0  0  0  0  0  0  0
   -3.3300    0.4294   -2.5648 H   0  0  0  0  0  0  0  0  0  0  0  0
   -4.9934   -0.9504    1.7214 H   0  0  0  0  0  0  0  0  0  0  0  0
   -7.2058   -2.2139    0.7501 H   0  0  0  0  0  0  0  0  0  0  0  0
   -5.1281   -0.6631   -2.4957 H   0  0  0  0  0  0  0  0  0  0  0  0
   -1.0445    1.4416    1.7148 H   0  0  0  0  0  0  0  0  0  0  0  0
  1  2  1  0
  2  3  2  0
  3  4  1  0
  4  5  1  0
  4  6  2  0
  6  7  1  0
  7  8  2  0
  7  9  1  0
  9 10  1  0
 10 11  1  0
 11 12  1  0
 12 13  2  0
 13 14  1  0
 14 15  1  0
 15 16  1  0
 16 17  2  0
 17 18  1  0
 18 19  2  0
 14 20  2  0
 20 21  1  0
 20 22  1  0
  6 23  1  0
 23  2  1  0
 22 11  2  0
 19 15  1  0
  1 24  1  0
  1 25  1  0
  1 26  1  0
  3 27  1  0
  5 28  1  0
  5 29  1  0
  5 30  1  0
  9 31  1  0
 10 32  1  0
 10 33  1  0
 12 34  1  0
 13 35  1  0
 16 36  1  0
 17 37  1  0
 19 38  1  0
 22 39  1  0
M  END
$$$$
OCNT-2310589
     RDKit          3D

 49 52  0  0  0  0  0  0  0  0999 V2000
    2.3158   -3.5503   -1.9909 C   0  0  0  0  0  0  0  0  0  0  0  0
    2.1941   -3.6509   -0.4732 C   0  0  0  0  0  0  0  0  0  0  0  0
    2.4547   -2.3299    0.2268 C   0  0  0  0  0  0  0  0  0  0  0  0
    3.6685   -2.1818    0.9273 C   0  0  0  0  0  0  0  0  0  0  0  0
    3.9829   -0.9907    1.5860 C   0  0  0  0  0  0  0  0  0  0  0  0
    3.0841    0.0755    1.5448 C   0  0  0  0  0  0  0  0  0  0  0  0
    3.4887    1.5965    2.3807 S   0  0  0  0  0  0  0  0  0  0  0  0
    4.9336    2.1855    1.5215 C   0  0  0  0  0  0  0  0  0  0  0  0
    3.8615    1.2476    3.7402 O   0  0  0  0  0  0  0  0  0  0  0  0
    2.4167    2.5380    2.1173 O   0  0  0  0  0  0  0  0  0  0  0  0
    1.8669   -0.0469    0.8736 C   0  0  0  0  0  0  0  0  0  0  0  0
    1.5498   -1.2443    0.2023 C   0  0  0  0  0  0  0  0  0  0  0  0
    0.2287   -1.3277   -0.4920 C   0  0  0  0  0  0  0  0  0  0  0  0
   -0.4488   -2.3504   -0.4499 O   0  0  0  0  0  0  0  0  0  0  0  0
   -0.1429   -0.1852   -1.1768 N   0  0  0  0  0  0  0  0  0  0  0  0
   -1.3681   -0.1454   -1.9406 C   0  0  0  0  0  0  0  0  0  0  0  0
   -1.6869    1.2786   -2.2727 C   0  0  0  0  0  0  0  0  0  0  0  0
   -3.1037    1.7747   -2.4889 C   0  0  0  0  0  0  0  0  0  0  0  0
   -4.3600    1.0379   -2.0347 C   0  0  0  0  0  0  0  0  0  0  0  0
   -4.2851    1.0863   -0.5234 C   0  0  0  0  0  0  0  0  0  0  0  0
   -5.2018    0.5581    0.3761 C   0  0  0  0  0  0  0  0  0  0  0  0
   -4.9247    0.6637    1.7408 C   0  0  0  0  0  0  0  0  0  0  0  0
   -3.7480    1.2896    2.1841 C   0  0  0  0  0  0  0  0  0  0  0  0
   -2.8368    1.8305    1.2677 C   0  0  0  0  0  0  0  0  0  0  0  0
   -3.1079    1.7309   -0.0917 C   0  0  0  0  0  0  0  0  0  0  0  0
   -2.3052    2.2220   -1.2602 C   0  0  0  0  0  0  0  0  0  0  0  0
    1.5996   -2.8407   -2.4162 H   0  0  0  0  0  0  0  0  0  0  0  0
    3.3221   -3.2268   -2.2862 H   0  0  0  0  0  0  0  0  0  0  0  0
    2.1298   -4.5318   -2.4463 H   0  0  0  0  0  0  0  0  0  0  0  0
    2.9136   -4.4057   -0.1240 H   0  0  0  0  0  0  0  0  0  0  0  0
    1.2147   -4.0477   -0.1813 H   0  0  0  0  0  0  0  0  0  0  0  0
    4.3774   -3.0094    0.9718 H   0  0  0  0  0  0  0  0  0  0  0  0
    4.9149   -0.9161    2.1419 H   0  0  0  0  0  0  0  0  0  0  0  0
    5.7471    1.4703    1.6525 H   0  0  0  0  0  0  0  0  0  0  0  0
    5.2192    3.1503    1.9575 H   0  0  0  0  0  0  0  0  0  0  0  0
    4.6939    2.3133    0.4607 H   0  0  0  0  0  0  0  0  0  0  0  0
    1.1481    0.7723    0.8990 H   0  0  0  0  0  0  0  0  0  0  0  0
    0.5465    0.5343   -1.3531 H   0  0  0  0  0  0  0  0  0  0  0  0
   -1.2055   -0.7187   -2.8584 H   0  0  0  0  0  0  0  0  0  0  0  0
   -2.1586   -0.6522   -1.3752 H   0  0  0  0  0  0  0  0  0  0  0  0
   -0.9227    1.7072   -2.9132 H   0  0  0  0  0  0  0  0  0  0  0  0
   -3.2824    2.4839   -3.2909 H   0  0  0  0  0  0  0  0  0  0  0  0
   -4.3636    0.0029   -2.4007 H   0  0  0  0  0  0  0  0  0  0  0  0
   -5.2529    1.5656   -2.3857 H   0  0  0  0  0  0  0  0  0  0  0  0
   -6.1062    0.0627    0.0313 H   0  0  0  0  0  0  0  0  0  0  0  0
   -5.6299    0.2574    2.4636 H   0  0  0  0  0  0  0  0  0  0  0  0
   -3.5426    1.3514    3.2481 H   0  0  0  0  0  0  0  0  0  0  0  0
   -1.9266    2.3103    1.6180 H   0  0  0  0  0  0  0  0  0  0  0  0
   -1.9621    3.2550   -1.2491 H   0  0  0  0  0  0  0  0  0  0  0  0
  1  2  1  0
  2  3  1  0
  3  4  1  0
  4  5  2  0
  5  6  1  0
  6  7  1  0
  7  8  1  0
  7  9  2  0
  7 10  2  0
  6 11  2  0
 11 12  1  0
 12 13  1  0
 13 14  2  0
 13 15  1  0
 15 16  1  0
 16 17  1  0
 17 18  1  0
 18 19  1  0
 19 20  1  0
 20 21  2  0
 21 22  1  0
 22 23  2  0
 23 24  1  0
 24 25  2  0
 25 26  1  0
 12  3  2  0
 26 17  1  0
 26 18  1  0
 25 20  1  0
  1 27  1  0
  1 28  1  0
  1 29  1  0
  2 30  1  0
  2 31  1  0
  4 32  1  0
  5 33  1  0
  8 34  1  0
  8 35  1  0
  8 36  1  0
 11 37  1  0
 15 38  1  0
 16 39  1  0
 16 40  1  0
 17 41  1  0
 18 42  1  0
 19 43  1  0
 19 44  1  0
 21 45  1  0
 22 46  1  0
 23 47  1  0
 24 48  1  0
 26 49  1  0
M  END
$$$$
OCNT-2310598
     RDKit          3D

 43 46  0  0  0  0  0  0  0  0999 V2000
   -7.2445   -0.2042   -0.4505 C   0  0  0  0  0  0  0  0  0  0  0  0
   -6.4639   -1.2059   -1.0244 C   0  0  0  0  0  0  0  0  0  0  0  0
   -5.0752   -1.0732   -1.0654 C   0  0  0  0  0  0  0  0  0  0  0  0
   -4.4554    0.0665   -0.5355 C   0  0  0  0  0  0  0  0  0  0  0  0
   -2.9504    0.2020   -0.5615 C   0  0  0  0  0  0  0  0  0  0  0  0
   -2.3081   -0.4043    0.6998 C   0  0  0  0  0  0  0  0  0  0  0  0
   -0.8428   -0.3431    0.8127 N   0  0  0  0  0  0  0  0  0  0  0  0
   -0.1449   -1.0900   -0.2496 C   0  0  0  0  0  0  0  0  0  0  0  0
    1.3858   -1.1083   -0.0415 C   0  0  0  0  0  0  0  0  0  0  0  0
    1.9282    0.2612    0.0947 N   0  0  0  0  0  0  0  0  0  0  0  0
    3.2939    0.3671   -0.0028 C   0  0  0  0  0  0  0  0  0  0  0  0
    4.0636   -0.6281   -0.4031 N   0  0  0  0  0  0  0  0  0  0  0  0
    5.3893   -0.2442   -0.4302 C   0  0  0  0  0  0  0  0  0  0  0  0
    6.5029   -1.0213   -0.7908 C   0  0  0  0  0  0  0  0  0  0  0  0
    7.7616   -0.4223   -0.7443 C   0  0  0  0  0  0  0  0  0  0  0  0
    7.8575    0.9043   -0.3472 C   0  0  0  0  0  0  0  0  0  0  0  0
    6.8221    1.6967    0.0091 N   0  0  0  0  0  0  0  0  0  0  0  0
    5.6274    1.0698   -0.0537 C   0  0  0  0  0  0  0  0  0  0  0  0
    4.1648    1.8350    0.3356 S   0  0  0  0  0  0  0  0  0  0  0  0
    1.2108    1.0729    1.0976 C   0  0  0  0  0  0  0  0  0  0  0  0
   -0.3184    1.0327    0.8647 C   0  0  0  0  0  0  0  0  0  0  0  0
   -5.2489    1.0655    0.0443 C   0  0  0  0  0  0  0  0  0  0  0  0
   -6.6375    0.9306    0.0842 C   0  0  0  0  0  0  0  0  0  0  0  0
   -8.3258   -0.3084   -0.4188 H   0  0  0  0  0  0  0  0  0  0  0  0
   -6.9370   -2.0920   -1.4394 H   0  0  0  0  0  0  0  0  0  0  0  0
   -4.4796   -1.8654   -1.5136 H   0  0  0  0  0  0  0  0  0  0  0  0
   -2.6957    1.2640   -0.6573 H   0  0  0  0  0  0  0  0  0  0  0  0
   -2.5702   -0.2861   -1.4664 H   0  0  0  0  0  0  0  0  0  0  0  0
   -2.7361    0.0793    1.5885 H   0  0  0  0  0  0  0  0  0  0  0  0
   -2.6099   -1.4571    0.7855 H   0  0  0  0  0  0  0  0  0  0  0  0
   -0.3544   -0.6521   -1.2335 H   0  0  0  0  0  0  0  0  0  0  0  0
   -0.4997   -2.1273   -0.2676 H   0  0  0  0  0  0  0  0  0  0  0  0
    1.6299   -1.6922    0.8558 H   0  0  0  0  0  0  0  0  0  0  0  0
    1.8284   -1.6183   -0.9064 H   0  0  0  0  0  0  0  0  0  0  0  0
    6.3756   -2.0541   -1.0944 H   0  0  0  0  0  0  0  0  0  0  0  0
    8.6510   -0.9823   -1.0137 H   0  0  0  0  0  0  0  0  0  0  0  0
    8.8302    1.3906   -0.3042 H   0  0  0  0  0  0  0  0  0  0  0  0
    1.4411    0.7007    2.1044 H   0  0  0  0  0  0  0  0  0  0  0  0
    1.5103    2.1256    1.0509 H   0  0  0  0  0  0  0  0  0  0  0  0
   -0.8019    1.5826    1.6809 H   0  0  0  0  0  0  0  0  0  0  0  0
   -0.5382    1.5667   -0.0682 H   0  0  0  0  0  0  0  0  0  0  0  0
   -4.7900    1.9555    0.4690 H   0  0  0  0  0  0  0  0  0  0  0  0
   -7.2460    1.7109    0.5337 H   0  0  0  0  0  0  0  0  0  0  0  0
  1  2  2  0
  2  3  1  0
  3  4  2  0
  4  5  1  0
  5  6  1  0
  6  7  1  0
  7  8  1  0
  8  9  1  0
  9 10  1  0
 10 11  1  0
 11 12  2  0
 12 13  1  0
 13 14  1  0
 14 15  2  0
 15 16  1  0
 16 17  2  0
 17 18  1  0
 18 19  1  0
 10 20  1  0
 20 21  1  0
  4 22  1  0
 22 23  2  0
 23  1  1  0
 21  7  1  0
 19 11  1  0
 18 13  2  0
  1 24  1  0
  2 25  1  0
  3 26  1  0
  5 27  1  0
  5 28  1  0
  6 29  1  0
  6 30  1  0
  8 31  1  0
  8 32  1  0
  9 33  1  0
  9 34  1  0
 14 35  1  0
 15 36  1  0
 16 37  1  0
 20 38  1  0
 20 39  1  0
 21 40  1  0
 21 41  1  0
 22 42  1  0
 23 43  1  0
M  END
$$$$
OCNT-2310605
     RDKit          3D

 39 41  0  0  0  0  0  0  0  0999 V2000
    2.8113   -1.1600   -2.0622 C   0  0  0  0  0  0  0  0  0  0  0  0
    2.6306   -0.7316   -0.7154 O   0  0  0  0  0  0  0  0  0  0  0  0
    3.3181    0.3849   -0.3073 C   0  0  0  0  0  0  0  0  0  0  0  0
    4.3943    0.9253   -1.0300 C   0  0  0  0  0  0  0  0  0  0  0  0
    5.0571    2.0662   -0.5729 C   0  0  0  0  0  0  0  0  0  0  0  0
    4.6510    2.6695    0.6072 C   0  0  0  0  0  0  0  0  0  0  0  0
    5.2890    3.7636    1.0410 F   0  0  0  0  0  0  0  0  0  0  0  0
    3.5975    2.1512    1.3452 C   0  0  0  0  0  0  0  0  0  0  0  0
    2.9238    0.9994    0.9034 C   0  0  0  0  0  0  0  0  0  0  0  0
    1.8024    0.5230    1.7765 C   0  0  0  0  0  0  0  0  0  0  0  0
    1.3684    1.2444    2.6702 O   0  0  0  0  0  0  0  0  0  0  0  0
    1.2998   -0.7341    1.5395 N   0  0  0  0  0  0  0  0  0  0  0  0
    0.1391   -1.2426    2.2288 C   0  0  0  0  0  0  0  0  0  0  0  0
   -1.1045   -1.0372    1.4145 C   0  0  0  0  0  0  0  0  0  0  0  0
   -1.6259   -2.0421    0.5979 C   0  0  0  0  0  0  0  0  0  0  0  0
   -2.7754   -1.8025   -0.1573 C   0  0  0  0  0  0  0  0  0  0  0  0
   -3.3759   -0.5484   -0.0804 C   0  0  0  0  0  0  0  0  0  0  0  0
   -4.5478   -0.2583   -0.8335 N   0  0  0  0  0  0  0  0  0  0  0  0
   -5.2224    0.9451   -0.8400 C   0  0  0  0  0  0  0  0  0  0  0  0
   -6.2807    0.7833   -1.6999 C   0  0  0  0  0  0  0  0  0  0  0  0
   -6.2873   -0.4784   -2.2276 N   0  0  0  0  0  0  0  0  0  0  0  0
   -5.2446   -1.0775   -1.6924 C   0  0  0  0  0  0  0  0  0  0  0  0
   -2.8801    0.4461    0.7000 N   0  0  0  0  0  0  0  0  0  0  0  0
   -1.7642    0.1851    1.4198 C   0  0  0  0  0  0  0  0  0  0  0  0
    2.6196   -0.3467   -2.7701 H   0  0  0  0  0  0  0  0  0  0  0  0
    3.8095   -1.5859   -2.2044 H   0  0  0  0  0  0  0  0  0  0  0  0
    2.0816   -1.9514   -2.2590 H   0  0  0  0  0  0  0  0  0  0  0  0
    4.7485    0.4782   -1.9537 H   0  0  0  0  0  0  0  0  0  0  0  0
    5.8884    2.4869   -1.1308 H   0  0  0  0  0  0  0  0  0  0  0  0
    3.3091    2.6499    2.2673 H   0  0  0  0  0  0  0  0  0  0  0  0
    1.6226   -1.2212    0.7104 H   0  0  0  0  0  0  0  0  0  0  0  0
    0.3084   -2.3110    2.4028 H   0  0  0  0  0  0  0  0  0  0  0  0
    0.0331   -0.7694    3.2115 H   0  0  0  0  0  0  0  0  0  0  0  0
   -1.1438   -3.0155    0.5453 H   0  0  0  0  0  0  0  0  0  0  0  0
   -3.1603   -2.6021   -0.7786 H   0  0  0  0  0  0  0  0  0  0  0  0
   -4.8914    1.7847   -0.2445 H   0  0  0  0  0  0  0  0  0  0  0  0
   -7.0372    1.5107   -1.9651 H   0  0  0  0  0  0  0  0  0  0  0  0
   -4.9623   -2.0992   -1.9008 H   0  0  0  0  0  0  0  0  0  0  0  0
   -1.3995    1.0179    2.0189 H   0  0  0  0  0  0  0  0  0  0  0  0
  1  2  1  0
  2  3  1  0
  3  4  1  0
  4  5  2  0
  5  6  1  0
  6  7  1  0
  6  8  2  0
  8  9  1  0
  9 10  1  0
 10 11  2  0
 10 12  1  0
 12 13  1  0
 13 14  1  0
 14 15  2  0
 15 16  1  0
 16 17  2  0
 17 18  1  0
 18 19  1  0
 19 20  2  0
 20 21  1  0
 21 22  2  0
 17 23  1  0
 23 24  2  0
  9  3  2  0
 24 14  1  0
 22 18  1  0
  1 25  1  0
  1 26  1  0
  1 27  1  0
  4 28  1  0
  5 29  1  0
  8 30  1  0
 12 31  1  0
 13 32  1  0
 13 33  1  0
 15 34  1  0
 16 35  1  0
 19 36  1  0
 20 37  1  0
 22 38  1  0
 24 39  1  0
M  END
$$$$
OCNT-2310606
     RDKit          3D

 42 44  0  0  0  0  0  0  0  0999 V2000
    8.1898    0.6221    0.1015 C   0  0  0  0  0  0  0  0  0  0  0  0
    6.6932    0.6815    0.2263 C   0  0  0  0  0  0  0  0  0  0  0  0
    6.0962    1.7968    0.8336 C   0  0  0  0  0  0  0  0  0  0  0  0
    4.7076    1.8787    0.9625 C   0  0  0  0  0  0  0  0  0  0  0  0
    3.8914    0.8509    0.4790 C   0  0  0  0  0  0  0  0  0  0  0  0
    2.4166    0.9848    0.6360 C   0  0  0  0  0  0  0  0  0  0  0  0
    1.9570    1.7016    1.5174 O   0  0  0  0  0  0  0  0  0  0  0  0
    1.6367    0.3047   -0.2802 N   0  0  0  0  0  0  0  0  0  0  0  0
    0.1947    0.5061   -0.2965 C   0  0  0  0  0  0  0  0  0  0  0  0
   -0.5235   -0.5382   -1.1480 C   0  0  0  0  0  0  0  0  0  0  0  0
   -1.9883   -0.2770   -1.2401 C   0  0  0  0  0  0  0  0  0  0  0  0
   -2.8179   -0.7493   -0.3059 N   0  0  0  0  0  0  0  0  0  0  0  0
   -4.0553   -0.3220   -0.6735 N   0  0  0  0  0  0  0  0  0  0  0  0
   -5.1999   -0.6225    0.1178 C   0  0  0  0  0  0  0  0  0  0  0  0
   -5.0464   -1.3719    1.2954 C   0  0  0  0  0  0  0  0  0  0  0  0
   -6.1546   -1.6700    2.0914 C   0  0  0  0  0  0  0  0  0  0  0  0
   -7.4210   -1.2251    1.7194 C   0  0  0  0  0  0  0  0  0  0  0  0
   -7.5825   -0.4834    0.5503 C   0  0  0  0  0  0  0  0  0  0  0  0
   -6.4776   -0.1798   -0.2519 C   0  0  0  0  0  0  0  0  0  0  0  0
   -3.9967    0.3983   -1.8483 C   0  0  0  0  0  0  0  0  0  0  0  0
   -2.6788    0.4431   -2.2338 C   0  0  0  0  0  0  0  0  0  0  0  0
    4.4755   -0.2742   -0.1115 C   0  0  0  0  0  0  0  0  0  0  0  0
    5.8661   -0.3525   -0.2397 C   0  0  0  0  0  0  0  0  0  0  0  0
    6.5254   -1.7652   -0.9874 Cl  0  0  0  0  0  0  0  0  0  0  0  0
    8.6631    1.5143    0.5247 H   0  0  0  0  0  0  0  0  0  0  0  0
    8.5842   -0.2442    0.6423 H   0  0  0  0  0  0  0  0  0  0  0  0
    8.4828    0.5632   -0.9523 H   0  0  0  0  0  0  0  0  0  0  0  0
    6.7075    2.6118    1.2159 H   0  0  0  0  0  0  0  0  0  0  0  0
    4.2622    2.7498    1.4428 H   0  0  0  0  0  0  0  0  0  0  0  0
    2.0772    0.0124   -1.1425 H   0  0  0  0  0  0  0  0  0  0  0  0
    0.0158    1.5155   -0.6856 H   0  0  0  0  0  0  0  0  0  0  0  0
   -0.1758    0.4863    0.7358 H   0  0  0  0  0  0  0  0  0  0  0  0
   -0.3463   -1.5388   -0.7345 H   0  0  0  0  0  0  0  0  0  0  0  0
   -0.0938   -0.5488   -2.1581 H   0  0  0  0  0  0  0  0  0  0  0  0
   -4.0664   -1.7285    1.6078 H   0  0  0  0  0  0  0  0  0  0  0  0
   -6.0258   -2.2486    3.0026 H   0  0  0  0  0  0  0  0  0  0  0  0
   -8.2822   -1.4566    2.3416 H   0  0  0  0  0  0  0  0  0  0  0  0
   -8.5724   -0.1371    0.2632 H   0  0  0  0  0  0  0  0  0  0  0  0
   -6.6505    0.4029   -1.1507 H   0  0  0  0  0  0  0  0  0  0  0  0
   -4.8757    0.8198   -2.3092 H   0  0  0  0  0  0  0  0  0  0  0  0
   -2.2746    0.9329   -3.1086 H   0  0  0  0  0  0  0  0  0  0  0  0
    3.8634   -1.1053   -0.4488 H   0  0  0  0  0  0  0  0  0  0  0  0
  1  2  1  0
  2  3  1  0
  3  4  2  0
  4  5  1  0
  5  6  1  0
  6  7  2  0
  6  8  1  0
  8  9  1  0
  9 10  1  0
 10 11  1  0
 11 12  2  0
 12 13  1  0
 13 14  1  0
 14 15  2  0
 15 16  1  0
 16 17  2  0
 17 18  1  0
 18 19  2  0
 13 20  1  0
 20 21  2  0
  5 22  2  0
 22 23  1  0
 23 24  1  0
 23  2  2  0
 21 11  1  0
 19 14  1  0
  1 25  1  0
  1 26  1  0
  1 27  1  0
  3 28  1  0
  4 29  1  0
  8 30  1  0
  9 31  1  0
  9 32  1  0
 10 33  1  0
 10 34  1  0
 15 35  1  0
 16 36  1  0
 17 37  1  0
 18 38  1  0
 19 39  1  0
 20 40  1  0
 21 41  1  0
 22 42  1  0
M  END
$$$$
OCNT-2310610
     RDKit          3D

 41 43  0  0  0  0  0  0  0  0999 V2000
   -6.5330    2.1772    0.8354 C   0  0  0  0  0  0  0  0  0  0  0  0
   -5.9684    0.9172    0.3773 N   0  0  0  0  0  0  0  0  0  0  0  0
   -4.6197    0.6733    0.6003 C   0  0  0  0  0  0  0  0  0  0  0  0
   -4.0387   -0.4701    0.2007 C   0  0  0  0  0  0  0  0  0  0  0  0
   -2.5903   -0.7238    0.4612 C   0  0  0  0  0  0  0  0  0  0  0  0
   -2.1840   -1.8283    0.8073 O   0  0  0  0  0  0  0  0  0  0  0  0
   -1.7577    0.3433    0.2142 N   0  0  0  0  0  0  0  0  0  0  0  0
   -0.3205    0.2214    0.3747 C   0  0  0  0  0  0  0  0  0  0  0  0
    0.3314   -0.5671   -0.7619 C   0  0  0  0  0  0  0  0  0  0  0  0
    1.7679   -0.8057   -0.4828 C   0  0  0  0  0  0  0  0  0  0  0  0
    2.7827   -0.0055   -0.7209 N   0  0  0  0  0  0  0  0  0  0  0  0
    3.8763   -0.7100   -0.2599 C   0  0  0  0  0  0  0  0  0  0  0  0
    5.2345   -0.1789   -0.3352 C   0  0  0  0  0  0  0  0  0  0  0  0
    5.4712    1.0819   -0.9045 C   0  0  0  0  0  0  0  0  0  0  0  0
    6.7688    1.5984   -0.9805 C   0  0  0  0  0  0  0  0  0  0  0  0
    7.8388    0.8556   -0.4866 C   0  0  0  0  0  0  0  0  0  0  0  0
    9.4351    1.4903   -0.5793 Cl  0  0  0  0  0  0  0  0  0  0  0  0
    7.6237   -0.3978    0.0817 C   0  0  0  0  0  0  0  0  0  0  0  0
    6.3254   -0.9128    0.1567 C   0  0  0  0  0  0  0  0  0  0  0  0
    3.5629   -1.9083    0.2593 N   0  0  0  0  0  0  0  0  0  0  0  0
    2.2321   -1.9461    0.1044 N   0  0  0  0  0  0  0  0  0  0  0  0
   -4.8484   -1.4903   -0.4301 C   0  0  0  0  0  0  0  0  0  0  0  0
   -6.1527   -1.2883   -0.6577 C   0  0  0  0  0  0  0  0  0  0  0  0
   -6.7997   -0.0095   -0.2539 C   0  0  0  0  0  0  0  0  0  0  0  0
   -7.9933    0.1553   -0.4861 O   0  0  0  0  0  0  0  0  0  0  0  0
   -6.4236    2.2409    1.9227 H   0  0  0  0  0  0  0  0  0  0  0  0
   -5.9918    3.0035    0.3636 H   0  0  0  0  0  0  0  0  0  0  0  0
   -7.5935    2.2644    0.5843 H   0  0  0  0  0  0  0  0  0  0  0  0
   -4.0710    1.4525    1.1217 H   0  0  0  0  0  0  0  0  0  0  0  0
   -2.1232    1.1740   -0.2341 H   0  0  0  0  0  0  0  0  0  0  0  0
   -0.1286   -0.2638    1.3397 H   0  0  0  0  0  0  0  0  0  0  0  0
    0.0889    1.2365    0.4272 H   0  0  0  0  0  0  0  0  0  0  0  0
    0.2272   -0.0110   -1.7014 H   0  0  0  0  0  0  0  0  0  0  0  0
   -0.1789   -1.5251   -0.9163 H   0  0  0  0  0  0  0  0  0  0  0  0
    4.6419    1.6696   -1.2941 H   0  0  0  0  0  0  0  0  0  0  0  0
    6.9336    2.5761   -1.4249 H   0  0  0  0  0  0  0  0  0  0  0  0
    8.4561   -0.9800    0.4676 H   0  0  0  0  0  0  0  0  0  0  0  0
    6.1685   -1.8935    0.6026 H   0  0  0  0  0  0  0  0  0  0  0  0
    1.7139   -2.7598    0.4196 H   0  0  0  0  0  0  0  0  0  0  0  0
   -4.3739   -2.4273   -0.7061 H   0  0  0  0  0  0  0  0  0  0  0  0
   -6.7897   -2.0285   -1.1241 H   0  0  0  0  0  0  0  0  0  0  0  0
  1  2  1  0
  2  3  1  0
  3  4  2  0
  4  5  1  0
  5  6  2  0
  5  7  1  0
  7  8  1  0
  8  9  1  0
  9 10  1  0
 10 11  2  0
 11 12  1  0
 12 13  1  0
 13 14  1  0
 14 15  2  0
 15 16  1  0
 16 17  1  0
 16 18  2  0
 18 19  1  0
 12 20  2  0
 20 21  1  0
  4 22  1  0
 22 23  2  0
 23 24  1  0
 24 25  2  0
 24  2  1  0
 21 10  1  0
 19 13  2  0
  1 26  1  0
  1 27  1  0
  1 28  1  0
  3 29  1  0
  7 30  1  0
  8 31  1  0
  8 32  1  0
  9 33  1  0
  9 34  1  0
 14 35  1  0
 15 36  1  0
 18 37  1  0
 19 38  1  0
 21 39  1  0
 22 40  1  0
 23 41  1  0
M  END
$$$$
OCNT-2310650
     RDKit          3D

 41 44  0  0  0  0  0  0  0  0999 V2000
    6.3010    0.2623   -1.8444 C   0  0  0  0  0  0  0  0  0  0  0  0
    5.3848   -0.2947   -0.9652 C   0  0  0  0  0  0  0  0  0  0  0  0
    4.1268    0.3004   -0.8422 C   0  0  0  0  0  0  0  0  0  0  0  0
    3.1149   -0.2377    0.0644 C   0  0  0  0  0  0  0  0  0  0  0  0
    1.7350   -0.2479   -0.0050 C   0  0  0  0  0  0  0  0  0  0  0  0
    1.2912   -0.9033    1.1694 C   0  0  0  0  0  0  0  0  0  0  0  0
   -0.1174   -1.2002    1.6067 C   0  0  0  0  0  0  0  0  0  0  0  0
   -0.8688    0.0936    1.9582 C   0  0  0  0  0  0  0  0  0  0  0  0
   -2.3783   -0.1206    1.9787 C   0  0  0  0  0  0  0  0  0  0  0  0
   -2.8551   -0.6288    0.6897 N   0  0  0  0  0  0  0  0  0  0  0  0
   -3.9422   -0.0028    0.0816 C   0  0  0  0  0  0  0  0  0  0  0  0
   -5.0409    0.4706    0.8138 C   0  0  0  0  0  0  0  0  0  0  0  0
   -6.1285    1.0821    0.2720 N   0  0  0  0  0  0  0  0  0  0  0  0
   -6.0998    1.1958   -1.0688 C   0  0  0  0  0  0  0  0  0  0  0  0
   -5.0420    0.7229   -1.8204 C   0  0  0  0  0  0  0  0  0  0  0  0
   -3.9614    0.1217   -1.2674 N   0  0  0  0  0  0  0  0  0  0  0  0
   -1.8806   -1.2362   -0.2195 C   0  0  0  0  0  0  0  0  0  0  0  0
   -0.8773   -2.0603    0.5818 C   0  0  0  0  0  0  0  0  0  0  0  0
    2.3226   -1.2687    1.9382 N   0  0  0  0  0  0  0  0  0  0  0  0
    3.4014   -0.8517    1.2573 N   0  0  0  0  0  0  0  0  0  0  0  0
    3.8490    1.4275   -1.6189 C   0  0  0  0  0  0  0  0  0  0  0  0
    4.8324    1.9125   -2.4663 C   0  0  0  0  0  0  0  0  0  0  0  0
    6.0540    1.3554   -2.5942 N   0  0  0  0  0  0  0  0  0  0  0  0
    7.2876   -0.1738   -1.9749 H   0  0  0  0  0  0  0  0  0  0  0  0
    5.6572   -1.1875   -0.4140 H   0  0  0  0  0  0  0  0  0  0  0  0
    1.1250    0.1532   -0.8024 H   0  0  0  0  0  0  0  0  0  0  0  0
   -0.0541   -1.8015    2.5259 H   0  0  0  0  0  0  0  0  0  0  0  0
   -0.5307    0.4633    2.9344 H   0  0  0  0  0  0  0  0  0  0  0  0
   -0.6359    0.8874    1.2355 H   0  0  0  0  0  0  0  0  0  0  0  0
   -2.8427    0.8360    2.2467 H   0  0  0  0  0  0  0  0  0  0  0  0
   -2.6444   -0.8408    2.7615 H   0  0  0  0  0  0  0  0  0  0  0  0
   -5.0900    0.3494    1.8902 H   0  0  0  0  0  0  0  0  0  0  0  0
   -6.9556    1.6757   -1.5283 H   0  0  0  0  0  0  0  0  0  0  0  0
   -5.0305    0.8131   -2.9002 H   0  0  0  0  0  0  0  0  0  0  0  0
   -1.3605   -0.4674   -0.8044 H   0  0  0  0  0  0  0  0  0  0  0  0
   -2.3851   -1.9110   -0.9227 H   0  0  0  0  0  0  0  0  0  0  0  0
   -0.1934   -2.5847   -0.0963 H   0  0  0  0  0  0  0  0  0  0  0  0
   -1.4286   -2.8410    1.1242 H   0  0  0  0  0  0  0  0  0  0  0  0
    4.3131   -1.0051    1.6723 H   0  0  0  0  0  0  0  0  0  0  0  0
    2.8918    1.9347   -1.5650 H   0  0  0  0  0  0  0  0  0  0  0  0
    4.6565    2.7900   -3.0821 H   0  0  0  0  0  0  0  0  0  0  0  0
  1  2  1  0
  2  3  2  0
  3  4  1  0
  4  5  2  0
  5  6  1  0
  6  7  1  0
  7  8  1  0
  8  9  1  0
  9 10  1  0
 10 11  1  0
 11 12  2  0
 12 13  1  0
 13 14  2  0
 14 15  1  0
 15 16  2  0
 10 17  1  0
 17 18  1  0
  6 19  2  0
 19 20  1  0
  3 21  1  0
 21 22  2  0
 22 23  1  0
 23  1  2  0
 20  4  1  0
 18  7  1  0
 16 11  1  0
  1 24  1  0
  2 25  1  0
  5 26  1  0
  7 27  1  0
  8 28  1  0
  8 29  1  0
  9 30  1  0
  9 31  1  0
 12 32  1  0
 14 33  1  0
 15 34  1  0
 17 35  1  0
 17 36  1  0
 18 37  1  0
 18 38  1  0
 20 39  1  0
 21 40  1  0
 22 41  1  0
M  END
$$$$
OCNT-2310664
     RDKit          3D

 42 45  0  0  0  0  0  0  0  0999 V2000
    2.9748   -1.1425    1.9498 C   0  0  0  0  0  0  0  0  0  0  0  0
    2.9818   -0.5065    0.6072 C   0  0  0  0  0  0  0  0  0  0  0  0
    1.9860   -0.3758   -0.3411 C   0  0  0  0  0  0  0  0  0  0  0  0
    0.7206   -0.8281   -0.1775 N   0  0  0  0  0  0  0  0  0  0  0  0
   -0.2633   -0.7752   -1.1384 C   0  0  0  0  0  0  0  0  0  0  0  0
   -1.4620   -0.4794   -0.6941 N   0  0  0  0  0  0  0  0  0  0  0  0
   -2.4358   -0.4335   -1.6599 N   0  0  0  0  0  0  0  0  0  0  0  0
   -2.2826   -0.6870   -3.0060 C   0  0  0  0  0  0  0  0  0  0  0  0
   -3.4333   -0.5518   -3.6223 N   0  0  0  0  0  0  0  0  0  0  0  0
   -4.3716   -0.2117   -2.6756 N   0  0  0  0  0  0  0  0  0  0  0  0
   -3.7762   -0.1301   -1.4957 C   0  0  0  0  0  0  0  0  0  0  0  0
   -4.4172    0.2124   -0.2286 C   0  0  0  0  0  0  0  0  0  0  0  0
   -3.8217    1.1036    0.6782 C   0  0  0  0  0  0  0  0  0  0  0  0
   -4.4589    1.4344    1.8791 C   0  0  0  0  0  0  0  0  0  0  0  0
   -5.7006    0.8820    2.1884 C   0  0  0  0  0  0  0  0  0  0  0  0
   -6.3049   -0.0009    1.2965 C   0  0  0  0  0  0  0  0  0  0  0  0
   -5.6655   -0.3269    0.1007 C   0  0  0  0  0  0  0  0  0  0  0  0
   -6.2734   -1.1972   -0.7198 F   0  0  0  0  0  0  0  0  0  0  0  0
   -1.0017   -1.0474   -3.4596 C   0  0  0  0  0  0  0  0  0  0  0  0
    0.0038   -1.1096   -2.5796 C   0  0  0  0  0  0  0  0  0  0  0  0
    2.5793    0.3499   -1.3928 C   0  0  0  0  0  0  0  0  0  0  0  0
    3.8621    0.6294   -1.1579 N   0  0  0  0  0  0  0  0  0  0  0  0
    4.0854    0.1136    0.0687 N   0  0  0  0  0  0  0  0  0  0  0  0
    5.4186    0.2482    0.6356 C   0  0  0  0  0  0  0  0  0  0  0  0
    5.5465    1.4834    1.5176 C   0  0  0  0  0  0  0  0  0  0  0  0
    5.1398    1.2049    2.8577 O   0  0  0  0  0  0  0  0  0  0  0  0
    2.1041   -1.7945    2.0734 H   0  0  0  0  0  0  0  0  0  0  0  0
    2.9334   -0.3805    2.7336 H   0  0  0  0  0  0  0  0  0  0  0  0
    3.8634   -1.7611    2.1057 H   0  0  0  0  0  0  0  0  0  0  0  0
    0.3366   -0.8209    0.7630 H   0  0  0  0  0  0  0  0  0  0  0  0
   -2.8588    1.5586    0.4548 H   0  0  0  0  0  0  0  0  0  0  0  0
   -3.9853    2.1283    2.5698 H   0  0  0  0  0  0  0  0  0  0  0  0
   -6.1970    1.1404    3.1203 H   0  0  0  0  0  0  0  0  0  0  0  0
   -7.2714   -0.4415    1.5205 H   0  0  0  0  0  0  0  0  0  0  0  0
   -0.8633   -1.2932   -4.5060 H   0  0  0  0  0  0  0  0  0  0  0  0
    0.9950   -1.4340   -2.8686 H   0  0  0  0  0  0  0  0  0  0  0  0
    2.1425    0.7062   -2.3154 H   0  0  0  0  0  0  0  0  0  0  0  0
    5.6490   -0.6717    1.1811 H   0  0  0  0  0  0  0  0  0  0  0  0
    6.1109    0.3212   -0.2115 H   0  0  0  0  0  0  0  0  0  0  0  0
    6.5902    1.8129    1.5569 H   0  0  0  0  0  0  0  0  0  0  0  0
    4.9437    2.3181    1.1455 H   0  0  0  0  0  0  0  0  0  0  0  0
    5.8770    0.7535    3.3047 H   0  0  0  0  0  0  0  0  0  0  0  0
  1  2  1  0
  2  3  2  0
  3  4  1  0
  4  5  1  0
  5  6  2  0
  6  7  1  0
  7  8  1  0
  8  9  2  0
  9 10  1  0
 10 11  2  0
 11 12  1  0
 12 13  2  0
 13 14  1  0
 14 15  2  0
 15 16  1  0
 16 17  2  0
 17 18  1  0
  8 19  1  0
 19 20  2  0
  3 21  1  0
 21 22  2  0
 22 23  1  0
 23 24  1  0
 24 25  1  0
 25 26  1  0
 23  2  1  0
 20  5  1  0
 11  7  1  0
 17 12  1  0
  1 27  1  0
  1 28  1  0
  1 29  1  0
  4 30  1  0
 13 31  1  0
 14 32  1  0
 15 33  1  0
 16 34  1  0
 19 35  1  0
 20 36  1  0
 21 37  1  0
 24 38  1  0
 24 39  1  0
 25 40  1  0
 25 41  1  0
 26 42  1  0
M  END
$$$$
OCNT-2310670
     RDKit          3D

 36 38  0  0  0  0  0  0  0  0999 V2000
   -1.3689   -2.7196   -0.5011 C   0  0  0  0  0  0  0  0  0  0  0  0
   -2.3264   -1.5591   -0.4145 C   0  0  0  0  0  0  0  0  0  0  0  0
   -3.6931   -1.8318   -0.2650 C   0  0  0  0  0  0  0  0  0  0  0  0
   -4.6144   -0.7946   -0.1665 C   0  0  0  0  0  0  0  0  0  0  0  0
   -4.1833    0.5300   -0.2263 C   0  0  0  0  0  0  0  0  0  0  0  0
   -5.3921    1.7601   -0.0717 Cl  0  0  0  0  0  0  0  0  0  0  0  0
   -2.8214    0.8451   -0.3910 C   0  0  0  0  0  0  0  0  0  0  0  0
   -2.3773    2.2849   -0.4936 C   0  0  0  0  0  0  0  0  0  0  0  0
   -2.4236    2.9167    0.7832 O   0  0  0  0  0  0  0  0  0  0  0  0
   -1.8832   -0.2148   -0.4835 C   0  0  0  0  0  0  0  0  0  0  0  0
   -0.4965    0.0727   -0.5563 N   0  0  0  0  0  0  0  0  0  0  0  0
    0.0783    0.3476    0.7700 C   0  0  0  0  0  0  0  0  0  0  0  0
    1.5885    0.3757    0.6091 C   0  0  0  0  0  0  0  0  0  0  0  0
    2.2847    1.4968    0.8603 C   0  0  0  0  0  0  0  0  0  0  0  0
    3.7503    1.5002    0.6734 C   0  0  0  0  0  0  0  0  0  0  0  0
    4.3981    2.5148    0.9131 O   0  0  0  0  0  0  0  0  0  0  0  0
    4.2668    0.3078    0.2326 N   0  0  0  0  0  0  0  0  0  0  0  0
    5.6012    0.0717   -0.0180 C   0  0  0  0  0  0  0  0  0  0  0  0
    5.8623   -1.1727   -0.4348 C   0  0  0  0  0  0  0  0  0  0  0  0
    4.4101   -2.1323   -0.5338 S   0  0  0  0  0  0  0  0  0  0  0  0
    3.4430   -0.7713    0.0126 C   0  0  0  0  0  0  0  0  0  0  0  0
    2.1651   -0.8063    0.1763 N   0  0  0  0  0  0  0  0  0  0  0  0
   -1.8882   -3.6790   -0.4023 H   0  0  0  0  0  0  0  0  0  0  0  0
   -0.6280   -2.6672    0.3027 H   0  0  0  0  0  0  0  0  0  0  0  0
   -0.8610   -2.7203   -1.4709 H   0  0  0  0  0  0  0  0  0  0  0  0
   -4.0489   -2.8590   -0.2162 H   0  0  0  0  0  0  0  0  0  0  0  0
   -5.6692   -1.0269   -0.0420 H   0  0  0  0  0  0  0  0  0  0  0  0
   -3.0127    2.8420   -1.1912 H   0  0  0  0  0  0  0  0  0  0  0  0
   -1.3595    2.3853   -0.8813 H   0  0  0  0  0  0  0  0  0  0  0  0
   -3.3404    2.8293    1.0984 H   0  0  0  0  0  0  0  0  0  0  0  0
    0.0201   -0.7118   -0.9560 H   0  0  0  0  0  0  0  0  0  0  0  0
   -0.2903    1.2993    1.1664 H   0  0  0  0  0  0  0  0  0  0  0  0
   -0.1832   -0.4397    1.4888 H   0  0  0  0  0  0  0  0  0  0  0  0
    1.8286    2.4231    1.1857 H   0  0  0  0  0  0  0  0  0  0  0  0
    6.3243    0.8645    0.1285 H   0  0  0  0  0  0  0  0  0  0  0  0
    6.8401   -1.5612   -0.6852 H   0  0  0  0  0  0  0  0  0  0  0  0
  1  2  1  0
  2  3  1  0
  3  4  2  0
  4  5  1  0
  5  6  1  0
  5  7  2  0
  7  8  1  0
  8  9  1  0
  7 10  1  0
 10 11  1  0
 11 12  1  0
 12 13  1  0
 13 14  2  0
 14 15  1  0
 15 16  2  0
 15 17  1  0
 17 18  1  0
 18 19  2  0
 19 20  1  0
 20 21  1  0
 21 22  2  0
 10  2  2  0
 22 13  1  0
 21 17  1  0
  1 23  1  0
  1 24  1  0
  1 25  1  0
  3 26  1  0
  4 27  1  0
  8 28  1  0
  8 29  1  0
  9 30  1  0
 11 31  1  0
 12 32  1  0
 12 33  1  0
 14 34  1  0
 18 35  1  0
 19 36  1  0
M  END
$$$$
OCNT-2310674
     RDKit          3D

 42 44  0  0  0  0  0  0  0  0999 V2000
   -4.5589    3.1076    0.6727 C   0  0  0  0  0  0  0  0  0  0  0  0
   -4.3017    1.6507    0.5881 C   0  0  0  0  0  0  0  0  0  0  0  0
   -5.2376    0.8288    0.1100 N   0  0  0  0  0  0  0  0  0  0  0  0
   -4.6730   -0.3936    0.1762 N   0  0  0  0  0  0  0  0  0  0  0  0
   -5.4382   -1.5358   -0.2726 C   0  0  0  0  0  0  0  0  0  0  0  0
   -3.3925   -0.3898    0.6830 C   0  0  0  0  0  0  0  0  0  0  0  0
   -2.5772   -1.5730    0.8454 C   0  0  0  0  0  0  0  0  0  0  0  0
   -2.9402   -2.6974    0.5116 O   0  0  0  0  0  0  0  0  0  0  0  0
   -1.3307   -1.3566    1.3914 N   0  0  0  0  0  0  0  0  0  0  0  0
   -0.3427   -2.4165    1.4861 C   0  0  0  0  0  0  0  0  0  0  0  0
    0.3762   -2.6816    0.1580 C   0  0  0  0  0  0  0  0  0  0  0  0
    1.1724   -1.5087   -0.3082 C   0  0  0  0  0  0  0  0  0  0  0  0
    2.4814   -1.1882   -0.0139 C   0  0  0  0  0  0  0  0  0  0  0  0
    2.7786   -0.0063   -0.6637 N   0  0  0  0  0  0  0  0  0  0  0  0
    4.0062    0.7143   -0.6615 C   0  0  0  0  0  0  0  0  0  0  0  0
    4.1024    1.9130   -1.3859 C   0  0  0  0  0  0  0  0  0  0  0  0
    5.2966    2.6369   -1.3965 C   0  0  0  0  0  0  0  0  0  0  0  0
    6.4011    2.1714   -0.6868 C   0  0  0  0  0  0  0  0  0  0  0  0
    6.3144    0.9816    0.0343 C   0  0  0  0  0  0  0  0  0  0  0  0
    5.1220    0.2512    0.0498 C   0  0  0  0  0  0  0  0  0  0  0  0
    1.6994    0.4511   -1.3517 N   0  0  0  0  0  0  0  0  0  0  0  0
    0.7524   -0.4635   -1.1525 C   0  0  0  0  0  0  0  0  0  0  0  0
   -3.1376    0.9444    0.9604 C   0  0  0  0  0  0  0  0  0  0  0  0
   -4.7800    3.5173   -0.3181 H   0  0  0  0  0  0  0  0  0  0  0  0
   -3.6893    3.6392    1.0723 H   0  0  0  0  0  0  0  0  0  0  0  0
   -5.4107    3.3097    1.3301 H   0  0  0  0  0  0  0  0  0  0  0  0
   -6.4277   -1.2045   -0.5998 H   0  0  0  0  0  0  0  0  0  0  0  0
   -4.9130   -1.9975   -1.1121 H   0  0  0  0  0  0  0  0  0  0  0  0
   -5.5461   -2.2324    0.5621 H   0  0  0  0  0  0  0  0  0  0  0  0
   -1.0132   -0.4091    1.5348 H   0  0  0  0  0  0  0  0  0  0  0  0
   -0.8433   -3.3324    1.8194 H   0  0  0  0  0  0  0  0  0  0  0  0
    0.3706   -2.1194    2.2627 H   0  0  0  0  0  0  0  0  0  0  0  0
   -0.3499   -2.9575   -0.6164 H   0  0  0  0  0  0  0  0  0  0  0  0
    1.0447   -3.5424    0.2826 H   0  0  0  0  0  0  0  0  0  0  0  0
    3.2082   -1.7028    0.5949 H   0  0  0  0  0  0  0  0  0  0  0  0
    3.2531    2.2961   -1.9494 H   0  0  0  0  0  0  0  0  0  0  0  0
    5.3621    3.5637   -1.9609 H   0  0  0  0  0  0  0  0  0  0  0  0
    7.3302    2.7357   -0.6969 H   0  0  0  0  0  0  0  0  0  0  0  0
    7.1791    0.6205    0.5859 H   0  0  0  0  0  0  0  0  0  0  0  0
    5.1022   -0.6700    0.6229 H   0  0  0  0  0  0  0  0  0  0  0  0
   -0.2139   -0.3261   -1.6231 H   0  0  0  0  0  0  0  0  0  0  0  0
   -2.2356    1.3719    1.3734 H   0  0  0  0  0  0  0  0  0  0  0  0
  1  2  1  0
  2  3  2  0
  3  4  1  0
  4  5  1  0
  4  6  1  0
  6  7  1  0
  7  8  2  0
  7  9  1  0
  9 10  1  0
 10 11  1  0
 11 12  1  0
 12 13  2  0
 13 14  1  0
 14 15  1  0
 15 16  2  0
 16 17  1  0
 17 18  2  0
 18 19  1  0
 19 20  2  0
 14 21  1  0
 21 22  2  0
  6 23  2  0
 23  2  1  0
 22 12  1  0
 20 15  1  0
  1 24  1  0
  1 25  1  0
  1 26  1  0
  5 27  1  0
  5 28  1  0
  5 29  1  0
  9 30  1  0
 10 31  1  0
 10 32  1  0
 11 33  1  0
 11 34  1  0
 13 35  1  0
 16 36  1  0
 17 37  1  0
 18 38  1  0
 19 39  1  0
 20 40  1  0
 22 41  1  0
 23 42  1  0
M  END
$$$$
OCNT-2310682
     RDKit          3D

 40 42  0  0  0  0  0  0  0  0999 V2000
   -3.2836    2.0737    1.0028 C   0  0  0  0  0  0  0  0  0  0  0  0
   -2.2929    1.6014    0.0993 O   0  0  0  0  0  0  0  0  0  0  0  0
   -2.6278    0.4663   -0.7590 C   0  0  0  0  0  0  0  0  0  0  0  0
   -1.9314   -0.8166   -0.2392 C   0  0  0  0  0  0  0  0  0  0  0  0
   -2.5300   -1.3060    1.0762 C   0  0  0  0  0  0  0  0  0  0  0  0
   -0.5292   -0.4559   -0.0595 N   0  0  0  0  0  0  0  0  0  0  0  0
    0.4716   -1.3987   -0.0084 C   0  0  0  0  0  0  0  0  0  0  0  0
    0.2513   -2.5941   -0.1740 O   0  0  0  0  0  0  0  0  0  0  0  0
    1.7889   -0.8685    0.2716 C   0  0  0  0  0  0  0  0  0  0  0  0
    2.9126   -1.5686    0.6796 C   0  0  0  0  0  0  0  0  0  0  0  0
    3.9897   -0.6553    0.8292 C   0  0  0  0  0  0  0  0  0  0  0  0
    5.3360   -0.7841    1.2206 C   0  0  0  0  0  0  0  0  0  0  0  0
    6.1404    0.3595    1.2510 C   0  0  0  0  0  0  0  0  0  0  0  0
    7.9522    0.2032    1.7767 Br  0  0  0  0  0  0  0  0  0  0  0  0
    5.6343    1.6097    0.9008 C   0  0  0  0  0  0  0  0  0  0  0  0
    4.3001    1.7555    0.5074 C   0  0  0  0  0  0  0  0  0  0  0  0
    3.5044    0.6041    0.4846 C   0  0  0  0  0  0  0  0  0  0  0  0
    2.1818    0.4453    0.1393 N   0  0  0  0  0  0  0  0  0  0  0  0
   -4.1142    0.3231   -1.2370 C   0  0  0  0  0  0  0  0  0  0  0  0
   -3.5918    0.0134   -2.6483 C   0  0  0  0  0  0  0  0  0  0  0  0
   -2.2990    0.7511   -2.2683 C   0  0  0  0  0  0  0  0  0  0  0  0
   -3.8430    1.2492    1.4520 H   0  0  0  0  0  0  0  0  0  0  0  0
   -3.9670    2.7464    0.4780 H   0  0  0  0  0  0  0  0  0  0  0  0
   -2.7848    2.6345    1.7975 H   0  0  0  0  0  0  0  0  0  0  0  0
   -1.9936   -1.6260   -0.9762 H   0  0  0  0  0  0  0  0  0  0  0  0
   -2.0460   -2.2332    1.4015 H   0  0  0  0  0  0  0  0  0  0  0  0
   -3.6010   -1.5059    0.9798 H   0  0  0  0  0  0  0  0  0  0  0  0
   -2.3916   -0.5757    1.8802 H   0  0  0  0  0  0  0  0  0  0  0  0
   -0.3728    0.4672    0.3223 H   0  0  0  0  0  0  0  0  0  0  0  0
    2.9421   -2.6371    0.8568 H   0  0  0  0  0  0  0  0  0  0  0  0
    5.7342   -1.7569    1.4913 H   0  0  0  0  0  0  0  0  0  0  0  0
    6.2753    2.4878    0.9286 H   0  0  0  0  0  0  0  0  0  0  0  0
    3.9048    2.7279    0.2316 H   0  0  0  0  0  0  0  0  0  0  0  0
    1.5908    1.1916   -0.1974 H   0  0  0  0  0  0  0  0  0  0  0  0
   -4.7047   -0.4761   -0.7820 H   0  0  0  0  0  0  0  0  0  0  0  0
   -4.7008    1.2480   -1.1976 H   0  0  0  0  0  0  0  0  0  0  0  0
   -3.4522   -1.0555   -2.8447 H   0  0  0  0  0  0  0  0  0  0  0  0
   -4.1621    0.4507   -3.4717 H   0  0  0  0  0  0  0  0  0  0  0  0
   -2.3095    1.8170   -2.5272 H   0  0  0  0  0  0  0  0  0  0  0  0
   -1.3814    0.3101   -2.6683 H   0  0  0  0  0  0  0  0  0  0  0  0
  1  2  1  0
  2  3  1  0
  3  4  1  0
  4  5  1  0
  4  6  1  0
  6  7  1  0
  7  8  2  0
  7  9  1  0
  9 10  2  0
 10 11  1  0
 11 12  2  0
 12 13  1  0
 13 14  1  0
 13 15  2  0
 15 16  1  0
 16 17  2  0
 17 18  1  0
  3 19  1  0
 19 20  1  0
 20 21  1  0
 21  3  1  0
 18  9  1  0
 17 11  1  0
  1 22  1  0
  1 23  1  0
  1 24  1  0
  4 25  1  0
  5 26  1  0
  5 27  1  0
  5 28  1  0
  6 29  1  0
 10 30  1  0
 12 31  1  0
 15 32  1  0
 16 33  1  0
 18 34  1  0
 19 35  1  0
 19 36  1  0
 20 37  1  0
 20 38  1  0
 21 39  1  0
 21 40  1  0
M  END
$$$$
OCNT-2310684
     RDKit          3D

 44 46  0  0  0  0  0  0  0  0999 V2000
   -1.8670   -1.5808    0.4137 N   0  0  0  0  0  0  0  0  0  0  0  0
   -2.3577   -1.5156    1.6890 C   0  0  0  0  0  0  0  0  0  0  0  0
   -3.1732   -2.3367    2.0988 O   0  0  0  0  0  0  0  0  0  0  0  0
   -1.7637   -0.4157    2.5736 C   0  0  0  0  0  0  0  0  0  0  0  0
   -1.5263    0.8362    1.9307 O   0  0  0  0  0  0  0  0  0  0  0  0
   -2.6438    1.4968    1.4815 C   0  0  0  0  0  0  0  0  0  0  0  0
   -3.7723    1.6650    2.2941 C   0  0  0  0  0  0  0  0  0  0  0  0
   -4.8907    2.3530    1.8180 C   0  0  0  0  0  0  0  0  0  0  0  0
   -4.8882    2.8881    0.5334 C   0  0  0  0  0  0  0  0  0  0  0  0
   -3.7599    2.7470   -0.2746 C   0  0  0  0  0  0  0  0  0  0  0  0
   -2.6233    2.0663    0.1932 C   0  0  0  0  0  0  0  0  0  0  0  0
   -1.4662    1.9596   -0.7504 C   0  0  0  0  0  0  0  0  0  0  0  0
   -1.6236    2.1590   -1.9508 O   0  0  0  0  0  0  0  0  0  0  0  0
   -0.2424    1.6258   -0.2091 N   0  0  0  0  0  0  0  0  0  0  0  0
    0.9796    1.4878   -1.0259 C   0  0  2  0  0  0  0  0  0  0  0  0
    1.0943    0.1361   -1.7693 C   0  0  0  0  0  0  0  0  0  0  0  0
    1.8772   -0.4127   -0.5443 C   0  0  1  0  0  0  0  0  0  0  0  0
    3.0529   -1.4504   -0.7818 C   0  0  0  0  0  0  0  0  0  0  0  0
    3.0945   -2.6777   -0.0872 C   0  0  0  0  0  0  0  0  0  0  0  0
    4.1184   -3.6094   -0.2816 C   0  0  0  0  0  0  0  0  0  0  0  0
    5.1414   -3.3386   -1.1843 C   0  0  0  0  0  0  0  0  0  0  0  0
    5.1369   -2.1394   -1.8887 C   0  0  0  0  0  0  0  0  0  0  0  0
    4.1078   -1.2142   -1.6876 C   0  0  0  0  0  0  0  0  0  0  0  0
    2.2266    1.0646   -0.2135 C   0  0  0  0  0  0  0  0  0  0  0  0
   -1.4115   -0.7810   -0.0112 H   0  0  0  0  0  0  0  0  0  0  0  0
   -2.3155   -2.2404   -0.2118 H   0  0  0  0  0  0  0  0  0  0  0  0
   -2.3695   -0.2981    3.4783 H   0  0  0  0  0  0  0  0  0  0  0  0
   -0.7871   -0.7842    2.9100 H   0  0  0  0  0  0  0  0  0  0  0  0
   -3.8018    1.2881    3.3120 H   0  0  0  0  0  0  0  0  0  0  0  0
   -5.7645    2.4754    2.4548 H   0  0  0  0  0  0  0  0  0  0  0  0
   -5.7599    3.4223    0.1615 H   0  0  0  0  0  0  0  0  0  0  0  0
   -3.7672    3.1763   -1.2756 H   0  0  0  0  0  0  0  0  0  0  0  0
   -0.1985    1.5402    0.8041 H   0  0  0  0  0  0  0  0  0  0  0  0
    1.1390    2.3719   -1.6527 H   0  0  0  0  0  0  0  0  0  0  0  0
    1.6752    0.2037   -2.6967 H   0  0  0  0  0  0  0  0  0  0  0  0
    0.1549   -0.3792   -1.9917 H   0  0  0  0  0  0  0  0  0  0  0  0
    1.1736   -0.8075    0.2069 H   0  0  0  0  0  0  0  0  0  0  0  0
    2.3036   -2.9155    0.6234 H   0  0  0  0  0  0  0  0  0  0  0  0
    4.1120   -4.5455    0.2720 H   0  0  0  0  0  0  0  0  0  0  0  0
    5.9377   -4.0606   -1.3400 H   0  0  0  0  0  0  0  0  0  0  0  0
    5.9318   -1.9201   -2.5979 H   0  0  0  0  0  0  0  0  0  0  0  0
    4.1284   -0.2849   -2.2559 H   0  0  0  0  0  0  0  0  0  0  0  0
    2.2219    1.3194    0.8507 H   0  0  0  0  0  0  0  0  0  0  0  0
    3.1663    1.4256   -0.6477 H   0  0  0  0  0  0  0  0  0  0  0  0
  1  2  1  0
  2  3  2  0
  2  4  1  0
  4  5  1  0
  5  6  1  0
  6  7  2  0
  7  8  1  0
  8  9  2  0
  9 10  1  0
 10 11  2  0
 11 12  1  0
 12 13  2  0
 12 14  1  0
 14 15  1  0
 15 16  1  0
 16 17  1  0
 17 18  1  0
 18 19  2  0
 19 20  1  0
 20 21  2  0
 21 22  1  0
 22 23  2  0
 17 24  1  0
 11  6  1  0
 24 15  1  0
 23 18  1  0
  1 25  1  0
  1 26  1  0
  4 27  1  0
  4 28  1  0
  7 29  1  0
  8 30  1  0
  9 31  1  0
 10 32  1  0
 14 33  1  0
 15 34  1  6
 16 35  1  0
 16 36  1  0
 17 37  1  1
 19 38  1  0
 20 39  1  0
 21 40  1  0
 22 41  1  0
 23 42  1  0
 24 43  1  0
 24 44  1  0
M  END
$$$$
OCNT-2310685
     RDKit          3D

 54 56  0  0  0  0  0  0  0  0999 V2000
   -6.9166   -1.6996    0.5541 C   0  0  0  0  0  0  0  0  0  0  0  0
   -5.6761   -1.0363    1.1538 C   0  0  0  0  0  0  0  0  0  0  0  0
   -5.7088   -1.1678    2.6791 C   0  0  0  0  0  0  0  0  0  0  0  0
   -5.5580    0.4504    0.7634 C   0  0  0  0  0  0  0  0  0  0  0  0
   -5.4106    0.7214   -0.7367 C   0  0  0  0  0  0  0  0  0  0  0  0
   -4.2083    0.1567   -1.3172 N   0  0  0  0  0  0  0  0  0  0  0  0
   -4.1300   -0.8827   -2.1955 C   0  0  0  0  0  0  0  0  0  0  0  0
   -2.7905   -1.0354   -2.4659 C   0  0  0  0  0  0  0  0  0  0  0  0
   -2.1343   -0.0295   -1.7125 C   0  0  0  0  0  0  0  0  0  0  0  0
   -0.7683    0.1458   -1.7074 N   0  0  0  0  0  0  0  0  0  0  0  0
   -0.0949    1.1827   -1.1061 C   0  0  0  0  0  0  0  0  0  0  0  0
   -0.5618    2.1706   -0.5558 O   0  0  0  0  0  0  0  0  0  0  0  0
    1.2744    0.9916   -1.2219 N   0  0  0  0  0  0  0  0  0  0  0  0
    2.1770    1.9242   -0.5657 C   0  0  0  0  0  0  0  0  0  0  0  0
    3.6340    1.6155   -0.9288 C   0  0  0  0  0  0  0  0  0  0  0  0
    4.6235    2.5244   -0.2167 C   0  0  0  0  0  0  0  0  0  0  0  0
    4.9387    1.7523    1.0421 C   0  0  0  0  0  0  0  0  0  0  0  0
    4.9092    0.3152    0.5539 C   0  0  0  0  0  0  0  0  0  0  0  0
    6.2458   -0.1957    0.0144 C   0  0  0  0  0  0  0  0  0  0  0  0
    6.0809   -1.7145   -0.0133 C   0  0  0  0  0  0  0  0  0  0  0  0
    5.0078   -2.0459    1.0240 C   0  0  0  0  0  0  0  0  0  0  0  0
    4.5697   -0.7121    1.6260 C   0  0  0  0  0  0  0  0  0  0  0  0
    3.9333    0.2647   -0.5037 O   0  0  0  0  0  0  0  0  0  0  0  0
   -3.0142    0.6841   -1.0113 N   0  0  0  0  0  0  0  0  0  0  0  0
   -6.8658   -1.7303   -0.5381 H   0  0  0  0  0  0  0  0  0  0  0  0
   -7.8292   -1.1650    0.8385 H   0  0  0  0  0  0  0  0  0  0  0  0
   -7.0096   -2.7341    0.9023 H   0  0  0  0  0  0  0  0  0  0  0  0
   -4.7903   -1.5750    0.7965 H   0  0  0  0  0  0  0  0  0  0  0  0
   -6.5786   -0.6555    3.1043 H   0  0  0  0  0  0  0  0  0  0  0  0
   -4.8076   -0.7353    3.1264 H   0  0  0  0  0  0  0  0  0  0  0  0
   -5.7558   -2.2204    2.9782 H   0  0  0  0  0  0  0  0  0  0  0  0
   -6.4438    0.9896    1.1233 H   0  0  0  0  0  0  0  0  0  0  0  0
   -4.6980    0.8870    1.2882 H   0  0  0  0  0  0  0  0  0  0  0  0
   -5.3648    1.8027   -0.9146 H   0  0  0  0  0  0  0  0  0  0  0  0
   -6.2707    0.3433   -1.2987 H   0  0  0  0  0  0  0  0  0  0  0  0
   -5.0056   -1.4127   -2.5418 H   0  0  0  0  0  0  0  0  0  0  0  0
   -2.3479   -1.7694   -3.1228 H   0  0  0  0  0  0  0  0  0  0  0  0
   -0.2333   -0.4564   -2.3083 H   0  0  0  0  0  0  0  0  0  0  0  0
    1.5719    0.0277   -1.1465 H   0  0  0  0  0  0  0  0  0  0  0  0
    1.9080    2.9444   -0.8607 H   0  0  0  0  0  0  0  0  0  0  0  0
    2.0080    1.8195    0.5124 H   0  0  0  0  0  0  0  0  0  0  0  0
    3.7634    1.6659   -2.0157 H   0  0  0  0  0  0  0  0  0  0  0  0
    5.5336    2.6226   -0.8209 H   0  0  0  0  0  0  0  0  0  0  0  0
    4.2409    3.5311   -0.0260 H   0  0  0  0  0  0  0  0  0  0  0  0
    4.1479    1.9242    1.7825 H   0  0  0  0  0  0  0  0  0  0  0  0
    5.8903    2.0449    1.4955 H   0  0  0  0  0  0  0  0  0  0  0  0
    6.4815    0.1849   -0.9846 H   0  0  0  0  0  0  0  0  0  0  0  0
    7.0670    0.0685    0.6914 H   0  0  0  0  0  0  0  0  0  0  0  0
    7.0271   -2.2207    0.2036 H   0  0  0  0  0  0  0  0  0  0  0  0
    5.7528   -2.0455   -1.0055 H   0  0  0  0  0  0  0  0  0  0  0  0
    4.1609   -2.5426    0.5364 H   0  0  0  0  0  0  0  0  0  0  0  0
    5.3842   -2.7247    1.7961 H   0  0  0  0  0  0  0  0  0  0  0  0
    3.5034   -0.7297    1.8736 H   0  0  0  0  0  0  0  0  0  0  0  0
    5.1385   -0.5191    2.5435 H   0  0  0  0  0  0  0  0  0  0  0  0
  1  2  1  0
  2  3  1  0
  2  4  1  0
  4  5  1  0
  5  6  1  0
  6  7  1  0
  7  8  2  0
  8  9  1  0
  9 10  1  0
 10 11  1  0
 11 12  2  0
 11 13  1  0
 13 14  1  0
 14 15  1  0
 15 16  1  0
 16 17  1  0
 17 18  1  0
 18 19  1  0
 19 20  1  0
 20 21  1  0
 21 22  1  0
 18 23  1  0
  9 24  2  0
 24  6  1  0
 23 15  1  0
 22 18  1  0
  1 25  1  0
  1 26  1  0
  1 27  1  0
  2 28  1  0
  3 29  1  0
  3 30  1  0
  3 31  1  0
  4 32  1  0
  4 33  1  0
  5 34  1  0
  5 35  1  0
  7 36  1  0
  8 37  1  0
 10 38  1  0
 13 39  1  0
 14 40  1  0
 14 41  1  0
 15 42  1  0
 16 43  1  0
 16 44  1  0
 17 45  1  0
 17 46  1  0
 19 47  1  0
 19 48  1  0
 20 49  1  0
 20 50  1  0
 21 51  1  0
 21 52  1  0
 22 53  1  0
 22 54  1  0
M  END
$$$$
OCNT-2310686
     RDKit          3D

 48 51  0  0  0  0  0  0  0  0999 V2000
   -2.1782   -2.9407   -1.2728 C   0  0  0  0  0  0  0  0  0  0  0  0
   -2.6488   -1.7290   -0.4454 C   0  0  0  0  0  0  0  0  0  0  0  0
   -4.1155   -1.9934   -0.0796 C   0  0  0  0  0  0  0  0  0  0  0  0
   -4.7630   -0.7461    0.4692 C   0  0  0  0  0  0  0  0  0  0  0  0
   -4.6681    0.3266   -0.5759 C   0  0  0  0  0  0  0  0  0  0  0  0
   -5.7253    1.2466   -0.6947 C   0  0  0  0  0  0  0  0  0  0  0  0
   -5.6513    2.2944   -1.6045 C   0  0  0  0  0  0  0  0  0  0  0  0
   -4.5150    2.4373   -2.3882 C   0  0  0  0  0  0  0  0  0  0  0  0
   -3.4541    1.5322   -2.2644 C   0  0  0  0  0  0  0  0  0  0  0  0
   -3.5074    0.4548   -1.3675 C   0  0  0  0  0  0  0  0  0  0  0  0
   -2.4078   -0.4623   -1.1785 N   0  0  0  0  0  0  0  0  0  0  0  0
   -1.0953   -0.1095   -1.5716 C   0  0  0  0  0  0  0  0  0  0  0  0
   -0.8139    0.4859   -2.6123 O   0  0  0  0  0  0  0  0  0  0  0  0
    0.0020   -0.4647   -0.5473 C   0  0  0  0  0  0  0  0  0  0  0  0
    1.2133    0.2224   -0.8449 O   0  0  0  0  0  0  0  0  0  0  0  0
    2.2470    0.0904    0.0394 C   0  0  0  0  0  0  0  0  0  0  0  0
    2.2670   -0.7379    1.1630 C   0  0  0  0  0  0  0  0  0  0  0  0
    3.3976   -0.7808    1.9862 C   0  0  0  0  0  0  0  0  0  0  0  0
    4.5090    0.0173    1.7003 C   0  0  0  0  0  0  0  0  0  0  0  0
    5.7704   -0.0792    2.5108 C   0  0  0  0  0  0  0  0  0  0  0  0
    6.5354    1.2339    2.4962 C   0  0  0  0  0  0  0  0  0  0  0  0
    6.6732    1.7954    1.0996 C   0  0  0  0  0  0  0  0  0  0  0  0
    7.6519    2.4509    0.7498 O   0  0  0  0  0  0  0  0  0  0  0  0
    5.5978    1.6305    0.2681 N   0  0  0  0  0  0  0  0  0  0  0  0
    4.4830    0.8442    0.5745 C   0  0  0  0  0  0  0  0  0  0  0  0
    3.3657    0.8730   -0.2582 C   0  0  0  0  0  0  0  0  0  0  0  0
   -2.3305   -3.8715   -0.7158 H   0  0  0  0  0  0  0  0  0  0  0  0
   -1.1208   -2.8897   -1.5407 H   0  0  0  0  0  0  0  0  0  0  0  0
   -2.7379   -3.0112   -2.2127 H   0  0  0  0  0  0  0  0  0  0  0  0
   -2.0673   -1.6870    0.4829 H   0  0  0  0  0  0  0  0  0  0  0  0
   -4.6735   -2.3297   -0.9655 H   0  0  0  0  0  0  0  0  0  0  0  0
   -4.1766   -2.8040    0.6567 H   0  0  0  0  0  0  0  0  0  0  0  0
   -4.2665   -0.4099    1.3865 H   0  0  0  0  0  0  0  0  0  0  0  0
   -5.8096   -0.9624    0.7132 H   0  0  0  0  0  0  0  0  0  0  0  0
   -6.6098    1.1521   -0.0691 H   0  0  0  0  0  0  0  0  0  0  0  0
   -6.4712    3.0017   -1.6956 H   0  0  0  0  0  0  0  0  0  0  0  0
   -4.4413    3.2571   -3.0990 H   0  0  0  0  0  0  0  0  0  0  0  0
   -2.6003    1.7017   -2.9121 H   0  0  0  0  0  0  0  0  0  0  0  0
    0.1886   -1.5401   -0.5805 H   0  0  0  0  0  0  0  0  0  0  0  0
   -0.3569   -0.1548    0.4415 H   0  0  0  0  0  0  0  0  0  0  0  0
    1.4273   -1.3734    1.4223 H   0  0  0  0  0  0  0  0  0  0  0  0
    3.4076   -1.4484    2.8448 H   0  0  0  0  0  0  0  0  0  0  0  0
    5.5409   -0.3500    3.5477 H   0  0  0  0  0  0  0  0  0  0  0  0
    6.3895   -0.8788    2.0859 H   0  0  0  0  0  0  0  0  0  0  0  0
    6.0188    1.9882    3.1027 H   0  0  0  0  0  0  0  0  0  0  0  0
    7.5339    1.0835    2.9208 H   0  0  0  0  0  0  0  0  0  0  0  0
    5.6415    2.1238   -0.6148 H   0  0  0  0  0  0  0  0  0  0  0  0
    3.3444    1.5106   -1.1382 H   0  0  0  0  0  0  0  0  0  0  0  0
  1  2  1  0
  2  3  1  0
  3  4  1  0
  4  5  1  0
  5  6  2  0
  6  7  1  0
  7  8  2  0
  8  9  1  0
  9 10  2  0
 10 11  1  0
 11 12  1  0
 12 13  2  0
 12 14  1  0
 14 15  1  0
 15 16  1  0
 16 17  1  0
 17 18  2  0
 18 19  1  0
 19 20  1  0
 20 21  1  0
 21 22  1  0
 22 23  2  0
 22 24  1  0
 24 25  1  0
 25 26  1  0
 11  2  1  0
 26 16  2  0
 10  5  1  0
 25 19  2  0
  1 27  1  0
  1 28  1  0
  1 29  1  0
  2 30  1  0
  3 31  1  0
  3 32  1  0
  4 33  1  0
  4 34  1  0
  6 35  1  0
  7 36  1  0
  8 37  1  0
  9 38  1  0
 14 39  1  0
 14 40  1  0
 17 41  1  0
 18 42  1  0
 20 43  1  0
 20 44  1  0
 21 45  1  0
 21 46  1  0
 24 47  1  0
 26 48  1  0
M  END
$$$$
OCNT-2310699
     RDKit          3D

 38 41  0  0  0  0  0  0  0  0999 V2000
   -1.7664   -2.4261    3.0173 C   0  0  0  0  0  0  0  0  0  0  0  0
   -1.5185   -1.5507    1.8296 C   0  0  0  0  0  0  0  0  0  0  0  0
   -0.2428   -1.3462    1.4642 N   0  0  0  0  0  0  0  0  0  0  0  0
    0.0009   -0.5333    0.4220 C   0  0  0  0  0  0  0  0  0  0  0  0
    1.3082   -0.3369    0.0532 N   0  0  0  0  0  0  0  0  0  0  0  0
    2.3837   -0.9135    0.8702 C   0  0  0  0  0  0  0  0  0  0  0  0
    3.6127   -0.2780    0.2927 C   0  0  0  0  0  0  0  0  0  0  0  0
    4.9388   -0.5134    0.6180 C   0  0  0  0  0  0  0  0  0  0  0  0
    5.9240    0.2162   -0.0512 C   0  0  0  0  0  0  0  0  0  0  0  0
    5.5743    1.1650   -1.0253 C   0  0  0  0  0  0  0  0  0  0  0  0
    4.2344    1.3979   -1.3443 C   0  0  0  0  0  0  0  0  0  0  0  0
    3.2643    0.6668   -0.6774 C   0  0  0  0  0  0  0  0  0  0  0  0
    1.7762    0.7344   -0.8277 C   0  0  0  0  0  0  0  0  0  0  0  0
   -1.0489    0.0560   -0.2578 C   0  0  0  0  0  0  0  0  0  0  0  0
   -2.3403   -0.1994    0.1746 C   0  0  0  0  0  0  0  0  0  0  0  0
   -3.5321    0.3747   -0.4744 C   0  0  0  0  0  0  0  0  0  0  0  0
   -3.5933    0.6721   -1.8446 C   0  0  0  0  0  0  0  0  0  0  0  0
   -4.7488    1.2204   -2.4032 C   0  0  0  0  0  0  0  0  0  0  0  0
   -5.8298    1.4608   -1.5748 C   0  0  0  0  0  0  0  0  0  0  0  0
   -5.8294    1.1896   -0.2556 N   0  0  0  0  0  0  0  0  0  0  0  0
   -4.6917    0.6502    0.2549 C   0  0  0  0  0  0  0  0  0  0  0  0
   -2.5825   -0.9932    1.2350 N   0  0  0  0  0  0  0  0  0  0  0  0
   -1.7614   -1.8208    3.9283 H   0  0  0  0  0  0  0  0  0  0  0  0
   -2.7356   -2.9269    2.9314 H   0  0  0  0  0  0  0  0  0  0  0  0
   -0.9907   -3.1936    3.0989 H   0  0  0  0  0  0  0  0  0  0  0  0
    2.2870   -0.6326    1.9250 H   0  0  0  0  0  0  0  0  0  0  0  0
    2.4211   -2.0019    0.7565 H   0  0  0  0  0  0  0  0  0  0  0  0
    5.2098   -1.2445    1.3730 H   0  0  0  0  0  0  0  0  0  0  0  0
    6.9725    0.0497    0.1845 H   0  0  0  0  0  0  0  0  0  0  0  0
    6.3561    1.7240   -1.5343 H   0  0  0  0  0  0  0  0  0  0  0  0
    3.9675    2.1336   -2.0959 H   0  0  0  0  0  0  0  0  0  0  0  0
    1.4122    1.7128   -0.4956 H   0  0  0  0  0  0  0  0  0  0  0  0
    1.4854    0.5422   -1.8655 H   0  0  0  0  0  0  0  0  0  0  0  0
   -0.8686    0.7080   -1.1002 H   0  0  0  0  0  0  0  0  0  0  0  0
   -2.7522    0.4619   -2.5001 H   0  0  0  0  0  0  0  0  0  0  0  0
   -4.8044    1.4473   -3.4621 H   0  0  0  0  0  0  0  0  0  0  0  0
   -6.7515    1.8854   -1.9616 H   0  0  0  0  0  0  0  0  0  0  0  0
   -4.7403    0.4421    1.3223 H   0  0  0  0  0  0  0  0  0  0  0  0
  1  2  1  0
  2  3  1  0
  3  4  2  0
  4  5  1  0
  5  6  1  0
  6  7  1  0
  7  8  2  0
  8  9  1  0
  9 10  2  0
 10 11  1  0
 11 12  2  0
 12 13  1  0
  4 14  1  0
 14 15  2  0
 15 16  1  0
 16 17  1  0
 17 18  2  0
 18 19  1  0
 19 20  2  0
 20 21  1  0
 15 22  1  0
 22  2  2  0
 13  5  1  0
 21 16  2  0
 12  7  1  0
  1 23  1  0
  1 24  1  0
  1 25  1  0
  6 26  1  0
  6 27  1  0
  8 28  1  0
  9 29  1  0
 10 30  1  0
 11 31  1  0
 13 32  1  0
 13 33  1  0
 14 34  1  0
 17 35  1  0
 18 36  1  0
 19 37  1  0
 21 38  1  0
M  END
$$$$
OCNT-2310706
     RDKit          3D

 44 46  0  0  0  0  0  0  0  0999 V2000
   -5.4833    0.3769   -1.1231 C   0  0  0  0  0  0  0  0  0  0  0  0
   -5.1035    1.5969   -0.4941 O   0  0  0  0  0  0  0  0  0  0  0  0
   -3.7361    1.8031   -0.4929 C   0  0  0  0  0  0  0  0  0  0  0  0
   -3.3064    2.9789    0.0633 C   0  0  0  0  0  0  0  0  0  0  0  0
   -1.9472    3.1674    0.0571 C   0  0  0  0  0  0  0  0  0  0  0  0
   -1.3509    4.4150    0.6333 C   0  0  0  0  0  0  0  0  0  0  0  0
   -1.0978    2.2559   -0.4601 N   0  0  0  0  0  0  0  0  0  0  0  0
   -1.6007    1.1255   -0.9839 C   0  0  0  0  0  0  0  0  0  0  0  0
   -0.7350    0.1901   -1.5331 N   0  0  0  0  0  0  0  0  0  0  0  0
   -1.2857   -1.1529   -1.7038 C   0  0  0  0  0  0  0  0  0  0  0  0
   -0.1739   -2.1543   -2.0056 C   0  0  0  0  0  0  0  0  0  0  0  0
    0.8702   -2.1855   -0.8846 C   0  0  0  0  0  0  0  0  0  0  0  0
    1.1693   -0.7946   -0.2805 C   0  0  0  0  0  0  0  0  0  0  0  0
    2.6124   -0.6681   -0.0184 N   0  0  0  0  0  0  0  0  0  0  0  0
    3.1843   -1.0972    1.1822 C   0  0  0  0  0  0  0  0  0  0  0  0
    4.5119   -0.7266    1.4501 C   0  0  0  0  0  0  0  0  0  0  0  0
    5.1788   -1.1661    2.5979 C   0  0  0  0  0  0  0  0  0  0  0  0
    4.5340   -2.0112    3.4934 C   0  0  0  0  0  0  0  0  0  0  0  0
    3.2313   -2.4220    3.2304 C   0  0  0  0  0  0  0  0  0  0  0  0
    2.5706   -1.9784    2.0781 C   0  0  0  0  0  0  0  0  0  0  0  0
    0.6964    0.3167   -1.2510 C   0  0  0  0  0  0  0  0  0  0  0  0
   -2.9177    0.8739   -1.0125 N   0  0  0  0  0  0  0  0  0  0  0  0
   -5.0783   -0.4886   -0.5872 H   0  0  0  0  0  0  0  0  0  0  0  0
   -5.1841    0.3631   -2.1770 H   0  0  0  0  0  0  0  0  0  0  0  0
   -6.5749    0.3093   -1.0867 H   0  0  0  0  0  0  0  0  0  0  0  0
   -3.9976    3.7012    0.4730 H   0  0  0  0  0  0  0  0  0  0  0  0
   -1.6092    4.5037    1.6932 H   0  0  0  0  0  0  0  0  0  0  0  0
   -1.7219    5.2944    0.0977 H   0  0  0  0  0  0  0  0  0  0  0  0
   -0.2594    4.4005    0.5492 H   0  0  0  0  0  0  0  0  0  0  0  0
   -2.0068   -1.1592   -2.5301 H   0  0  0  0  0  0  0  0  0  0  0  0
   -1.8071   -1.4813   -0.7945 H   0  0  0  0  0  0  0  0  0  0  0  0
   -0.5956   -3.1564   -2.1435 H   0  0  0  0  0  0  0  0  0  0  0  0
    0.3159   -1.8875   -2.9508 H   0  0  0  0  0  0  0  0  0  0  0  0
    0.5061   -2.8441   -0.0865 H   0  0  0  0  0  0  0  0  0  0  0  0
    1.7817   -2.6584   -1.2715 H   0  0  0  0  0  0  0  0  0  0  0  0
    0.5997   -0.6659    0.6497 H   0  0  0  0  0  0  0  0  0  0  0  0
    2.9980    0.2303   -0.3020 H   0  0  0  0  0  0  0  0  0  0  0  0
    5.0470   -0.0855    0.7537 H   0  0  0  0  0  0  0  0  0  0  0  0
    6.2030   -0.8539    2.7824 H   0  0  0  0  0  0  0  0  0  0  0  0
    5.0478   -2.3587    4.3852 H   0  0  0  0  0  0  0  0  0  0  0  0
    2.7254   -3.0962    3.9163 H   0  0  0  0  0  0  0  0  0  0  0  0
    1.5624   -2.3396    1.9089 H   0  0  0  0  0  0  0  0  0  0  0  0
    0.9828    1.2972   -0.8525 H   0  0  0  0  0  0  0  0  0  0  0  0
    1.2442    0.2321   -2.1996 H   0  0  0  0  0  0  0  0  0  0  0  0
  1  2  1  0
  2  3  1  0
  3  4  2  0
  4  5  1  0
  5  6  1  0
  5  7  2  0
  7  8  1  0
  8  9  1  0
  9 10  1  0
 10 11  1  0
 11 12  1  0
 12 13  1  0
 13 14  1  0
 14 15  1  0
 15 16  2  0
 16 17  1  0
 17 18  2  0
 18 19  1  0
 19 20  2  0
 13 21  1  0
  8 22  2  0
 22  3  1  0
 21  9  1  0
 20 15  1  0
  1 23  1  0
  1 24  1  0
  1 25  1  0
  4 26  1  0
  6 27  1  0
  6 28  1  0
  6 29  1  0
 10 30  1  0
 10 31  1  0
 11 32  1  0
 11 33  1  0
 12 34  1  0
 12 35  1  0
 13 36  1  0
 14 37  1  0
 16 38  1  0
 17 39  1  0
 18 40  1  0
 19 41  1  0
 20 42  1  0
 21 43  1  0
 21 44  1  0
M  END
$$$$
OCNT-2310716
     RDKit          3D

 38 41  0  0  0  0  0  0  0  0999 V2000
    4.2430    1.9576    0.4544 C   0  0  0  0  0  0  0  0  0  0  0  0
    4.1899    0.5527   -0.0910 C   0  0  0  0  0  0  0  0  0  0  0  0
    3.0236   -0.0234   -0.1847 N   0  0  0  0  0  0  0  0  0  0  0  0
    3.0083   -1.3019   -0.6819 C   0  0  0  0  0  0  0  0  0  0  0  0
    1.9696   -2.1835   -0.9190 C   0  0  0  0  0  0  0  0  0  0  0  0
    0.5458   -1.9905   -0.6977 C   0  0  0  0  0  0  0  0  0  0  0  0
   -0.2502   -2.8833   -0.9722 O   0  0  0  0  0  0  0  0  0  0  0  0
    0.2239   -0.7625   -0.1757 N   0  0  0  0  0  0  0  0  0  0  0  0
   -1.0376   -0.3190    0.1262 C   0  0  0  0  0  0  0  0  0  0  0  0
   -1.1875    0.9081    0.6361 N   0  0  0  0  0  0  0  0  0  0  0  0
   -2.5130    1.0308    0.8038 N   0  0  0  0  0  0  0  0  0  0  0  0
   -3.0754    2.2223    1.4102 C   0  0  0  0  0  0  0  0  0  0  0  0
   -4.5926    2.2962    1.2293 C   0  0  0  0  0  0  0  0  0  0  0  0
   -5.2438    0.9357    1.4945 C   0  0  0  0  0  0  0  0  0  0  0  0
   -4.7062   -0.1256    0.5282 C   0  0  0  0  0  0  0  0  0  0  0  0
   -3.2228   -0.0758    0.4333 C   0  0  0  0  0  0  0  0  0  0  0  0
   -2.2825   -0.9751   -0.0169 C   0  0  0  0  0  0  0  0  0  0  0  0
    2.6039   -3.3328   -1.4342 C   0  0  0  0  0  0  0  0  0  0  0  0
    3.9298   -3.2107   -1.5226 N   0  0  0  0  0  0  0  0  0  0  0  0
    4.1799   -1.9628   -1.0625 N   0  0  0  0  0  0  0  0  0  0  0  0
    5.4125   -1.3315   -0.9476 C   0  0  0  0  0  0  0  0  0  0  0  0
    5.4931   -0.0813   -0.4731 C   0  0  0  0  0  0  0  0  0  0  0  0
    3.9999    1.9372    1.5207 H   0  0  0  0  0  0  0  0  0  0  0  0
    5.2332    2.4013    0.3219 H   0  0  0  0  0  0  0  0  0  0  0  0
    3.5080    2.5777   -0.0672 H   0  0  0  0  0  0  0  0  0  0  0  0
    0.9632   -0.0941    0.0177 H   0  0  0  0  0  0  0  0  0  0  0  0
   -2.5899    3.0949    0.9621 H   0  0  0  0  0  0  0  0  0  0  0  0
   -2.8162    2.1807    2.4745 H   0  0  0  0  0  0  0  0  0  0  0  0
   -4.8236    2.6095    0.2033 H   0  0  0  0  0  0  0  0  0  0  0  0
   -5.0095    3.0553    1.8999 H   0  0  0  0  0  0  0  0  0  0  0  0
   -5.0405    0.6303    2.5293 H   0  0  0  0  0  0  0  0  0  0  0  0
   -6.3319    1.0122    1.3888 H   0  0  0  0  0  0  0  0  0  0  0  0
   -5.0350   -1.1198    0.8517 H   0  0  0  0  0  0  0  0  0  0  0  0
   -5.1270    0.0464   -0.4706 H   0  0  0  0  0  0  0  0  0  0  0  0
   -2.4727   -1.9672   -0.4011 H   0  0  0  0  0  0  0  0  0  0  0  0
    2.1380   -4.2591   -1.7491 H   0  0  0  0  0  0  0  0  0  0  0  0
    6.2711   -1.9095   -1.2612 H   0  0  0  0  0  0  0  0  0  0  0  0
    6.4213    0.4603   -0.3591 H   0  0  0  0  0  0  0  0  0  0  0  0
  1  2  1  0
  2  3  2  0
  3  4  1  0
  4  5  2  0
  5  6  1  0
  6  7  2  0
  6  8  1  0
  8  9  1  0
  9 10  2  0
 10 11  1  0
 11 12  1  0
 12 13  1  0
 13 14  1  0
 14 15  1  0
 15 16  1  0
 16 17  2  0
  5 18  1  0
 18 19  2  0
 19 20  1  0
 20 21  1  0
 21 22  2  0
 22  2  1  0
 20  4  1  0
 17  9  1  0
 16 11  1  0
  1 23  1  0
  1 24  1  0
  1 25  1  0
  8 26  1  0
 12 27  1  0
 12 28  1  0
 13 29  1  0
 13 30  1  0
 14 31  1  0
 14 32  1  0
 15 33  1  0
 15 34  1  0
 17 35  1  0
 18 36  1  0
 21 37  1  0
 22 38  1  0
M  END
$$$$
OCNT-2310728
     RDKit          3D

 37 38  0  0  0  0  0  0  0  0999 V2000
    4.8678   -0.5606   -0.9731 C   0  0  0  0  0  0  0  0  0  0  0  0
    3.7431   -1.1972   -0.2852 N   0  0  0  0  0  0  0  0  0  0  0  0
    4.0915   -1.7583    1.0221 C   0  0  0  0  0  0  0  0  0  0  0  0
    2.5967   -0.3780   -0.2403 C   0  0  0  0  0  0  0  0  0  0  0  0
    2.0047    0.0515   -1.4330 C   0  0  0  0  0  0  0  0  0  0  0  0
    0.8544    0.8402   -1.4027 C   0  0  0  0  0  0  0  0  0  0  0  0
    0.3064    1.1679   -0.1707 C   0  0  0  0  0  0  0  0  0  0  0  0
   -1.1370    2.1642   -0.0384 S   0  0  0  0  0  0  0  0  0  0  0  0
   -1.1440    2.7537    1.2792 O   0  0  0  0  0  0  0  0  0  0  0  0
   -1.2016    2.9909   -1.2246 O   0  0  0  0  0  0  0  0  0  0  0  0
   -2.3919    1.0523   -0.1237 N   0  0  0  0  0  0  0  0  0  0  0  0
   -2.8032    0.5080   -1.4353 C   0  0  0  0  0  0  0  0  0  0  0  0
   -3.2826   -0.9082   -1.1415 C   0  0  0  0  0  0  0  0  0  0  0  0
   -3.7031   -0.8481    0.3158 C   0  0  0  0  0  0  0  0  0  0  0  0
   -2.6000    0.0126    0.9431 C   0  0  0  0  0  0  0  0  0  0  0  0
   -3.0103    0.5185    2.3328 C   0  0  0  0  0  0  0  0  0  0  0  0
   -1.9578    1.0130    3.0167 F   0  0  0  0  0  0  0  0  0  0  0  0
   -3.9779    1.4561    2.2777 F   0  0  0  0  0  0  0  0  0  0  0  0
   -3.4933   -0.5130    3.0731 F   0  0  0  0  0  0  0  0  0  0  0  0
    0.9471    0.7399    0.9729 C   0  0  0  0  0  0  0  0  0  0  0  0
    2.0549   -0.0411    0.9538 N   0  0  0  0  0  0  0  0  0  0  0  0
    4.6504   -0.3735   -2.0297 H   0  0  0  0  0  0  0  0  0  0  0  0
    5.7435   -1.2195   -0.9512 H   0  0  0  0  0  0  0  0  0  0  0  0
    5.1469    0.3850   -0.4933 H   0  0  0  0  0  0  0  0  0  0  0  0
    4.9194   -2.4680    0.9115 H   0  0  0  0  0  0  0  0  0  0  0  0
    3.2538   -2.3213    1.4503 H   0  0  0  0  0  0  0  0  0  0  0  0
    4.4096   -0.9825    1.7288 H   0  0  0  0  0  0  0  0  0  0  0  0
    2.4223   -0.2438   -2.3901 H   0  0  0  0  0  0  0  0  0  0  0  0
    0.4053    1.1838   -2.3302 H   0  0  0  0  0  0  0  0  0  0  0  0
   -1.9944    0.4945   -2.1693 H   0  0  0  0  0  0  0  0  0  0  0  0
   -3.6234    1.1208   -1.8238 H   0  0  0  0  0  0  0  0  0  0  0  0
   -2.4538   -1.6163   -1.2627 H   0  0  0  0  0  0  0  0  0  0  0  0
   -4.0937   -1.2200   -1.8054 H   0  0  0  0  0  0  0  0  0  0  0  0
   -4.6829   -0.3629    0.4062 H   0  0  0  0  0  0  0  0  0  0  0  0
   -3.7657   -1.8416    0.7697 H   0  0  0  0  0  0  0  0  0  0  0  0
   -1.6928   -0.5967    1.0322 H   0  0  0  0  0  0  0  0  0  0  0  0
    0.5914    0.9977    1.9678 H   0  0  0  0  0  0  0  0  0  0  0  0
  1  2  1  0
  2  3  1  0
  2  4  1  0
  4  5  2  0
  5  6  1  0
  6  7  2  0
  7  8  1  0
  8  9  2  0
  8 10  2  0
  8 11  1  0
 11 12  1  0
 12 13  1  0
 13 14  1  0
 14 15  1  0
 15 16  1  0
 16 17  1  0
 16 18  1  0
 16 19  1  0
  7 20  1  0
 20 21  2  0
 21  4  1  0
 15 11  1  0
  1 22  1  0
  1 23  1  0
  1 24  1  0
  3 25  1  0
  3 26  1  0
  3 27  1  0
  5 28  1  0
  6 29  1  0
 12 30  1  0
 12 31  1  0
 13 32  1  0
 13 33  1  0
 14 34  1  0
 14 35  1  0
 15 36  1  0
 20 37  1  0
M  END
$$$$
OCNT-2310736
     RDKit          3D

 44 47  0  0  0  0  0  0  0  0999 V2000
    8.0305    3.0217    0.9441 O   0  0  0  0  0  0  0  0  0  0  0  0
    7.0588    2.2701    0.9726 C   0  0  0  0  0  0  0  0  0  0  0  0
    6.7832    1.3065    2.1266 C   0  0  0  0  0  0  0  0  0  0  0  0
    5.8071    0.2831    2.0069 O   0  0  0  0  0  0  0  0  0  0  0  0
    4.9053    0.4541    0.9945 C   0  0  0  0  0  0  0  0  0  0  0  0
    3.8234   -0.4291    0.9784 C   0  0  0  0  0  0  0  0  0  0  0  0
    2.8565   -0.3568   -0.0327 C   0  0  0  0  0  0  0  0  0  0  0  0
    1.7896   -1.2757    0.0286 N   0  0  0  0  0  0  0  0  0  0  0  0
    0.7953   -1.4751   -0.9046 C   0  0  0  0  0  0  0  0  0  0  0  0
    0.7018   -0.9380   -1.9999 O   0  0  0  0  0  0  0  0  0  0  0  0
   -0.1166   -2.4079   -0.4526 N   0  0  0  0  0  0  0  0  0  0  0  0
   -1.2861   -2.7373   -1.2384 C   0  0  0  0  0  0  0  0  0  0  0  0
   -2.4683   -1.8945   -0.8331 C   0  0  0  0  0  0  0  0  0  0  0  0
   -2.6434   -0.6114   -1.3630 C   0  0  0  0  0  0  0  0  0  0  0  0
   -3.7260    0.1872   -0.9723 C   0  0  0  0  0  0  0  0  0  0  0  0
   -4.6598   -0.2806   -0.0337 C   0  0  0  0  0  0  0  0  0  0  0  0
   -5.7582    0.5401    0.3577 N   0  0  0  0  0  0  0  0  0  0  0  0
   -6.0399    1.8180   -0.0883 C   0  0  0  0  0  0  0  0  0  0  0  0
   -7.1859    2.2138    0.5583 C   0  0  0  0  0  0  0  0  0  0  0  0
   -7.6318    1.2329    1.3902 N   0  0  0  0  0  0  0  0  0  0  0  0
   -6.7683    0.2493    1.2523 C   0  0  0  0  0  0  0  0  0  0  0  0
   -4.4721   -1.5618    0.4972 C   0  0  0  0  0  0  0  0  0  0  0  0
   -5.3063   -2.0875    1.4033 F   0  0  0  0  0  0  0  0  0  0  0  0
   -3.3921   -2.3583    0.1078 C   0  0  0  0  0  0  0  0  0  0  0  0
    2.9900    0.6159   -1.0265 C   0  0  0  0  0  0  0  0  0  0  0  0
    4.0779    1.4965   -1.0194 C   0  0  0  0  0  0  0  0  0  0  0  0
    5.0319    1.4136   -0.0083 C   0  0  0  0  0  0  0  0  0  0  0  0
    6.1204    2.2824   -0.0190 N   0  0  0  0  0  0  0  0  0  0  0  0
    6.5130    1.9177    2.9958 H   0  0  0  0  0  0  0  0  0  0  0  0
    7.7323    0.8092    2.3567 H   0  0  0  0  0  0  0  0  0  0  0  0
    3.7515   -1.1747    1.7656 H   0  0  0  0  0  0  0  0  0  0  0  0
    1.8209   -1.9505    0.7779 H   0  0  0  0  0  0  0  0  0  0  0  0
   -0.2256   -2.4723    0.5474 H   0  0  0  0  0  0  0  0  0  0  0  0
   -1.5022   -3.7973   -1.0642 H   0  0  0  0  0  0  0  0  0  0  0  0
   -1.0817   -2.6219   -2.3089 H   0  0  0  0  0  0  0  0  0  0  0  0
   -1.9274   -0.2198   -2.0868 H   0  0  0  0  0  0  0  0  0  0  0  0
   -3.7986    1.1710   -1.4263 H   0  0  0  0  0  0  0  0  0  0  0  0
   -5.4330    2.3453   -0.8070 H   0  0  0  0  0  0  0  0  0  0  0  0
   -7.7096    3.1565    0.4642 H   0  0  0  0  0  0  0  0  0  0  0  0
   -6.8457   -0.6870    1.7847 H   0  0  0  0  0  0  0  0  0  0  0  0
   -3.2897   -3.3453    0.5515 H   0  0  0  0  0  0  0  0  0  0  0  0
    2.2619    0.7163   -1.8260 H   0  0  0  0  0  0  0  0  0  0  0  0
    4.1609    2.2376   -1.8098 H   0  0  0  0  0  0  0  0  0  0  0  0
    6.2561    2.9439   -0.7717 H   0  0  0  0  0  0  0  0  0  0  0  0
  1  2  2  0
  2  3  1  0
  3  4  1  0
  4  5  1  0
  5  6  1  0
  6  7  2  0
  7  8  1  0
  8  9  1  0
  9 10  2  0
  9 11  1  0
 11 12  1  0
 12 13  1  0
 13 14  1  0
 14 15  2  0
 15 16  1  0
 16 17  1  0
 17 18  1  0
 18 19  2  0
 19 20  1  0
 20 21  2  0
 16 22  2  0
 22 23  1  0
 22 24  1  0
  7 25  1  0
 25 26  2  0
 26 27  1  0
 27 28  1  0
 28  2  1  0
 27  5  2  0
 24 13  2  0
 21 17  1  0
  3 29  1  0
  3 30  1  0
  6 31  1  0
  8 32  1  0
 11 33  1  0
 12 34  1  0
 12 35  1  0
 14 36  1  0
 15 37  1  0
 18 38  1  0
 19 39  1  0
 21 40  1  0
 24 41  1  0
 25 42  1  0
 26 43  1  0
 28 44  1  0
M  END
$$$$
OCNT-2310751
     RDKit          3D

 43 46  0  0  0  0  0  0  0  0999 V2000
    3.7705   -2.4468    1.4032 N   0  0  0  0  0  0  0  0  0  0  0  0
    3.9420   -1.1668    0.8493 C   0  0  0  0  0  0  0  0  0  0  0  0
    5.2024   -0.8409    0.5091 N   0  0  0  0  0  0  0  0  0  0  0  0
    5.4351    0.3612   -0.0516 C   0  0  0  0  0  0  0  0  0  0  0  0
    6.8491    0.7178   -0.4344 C   0  0  0  0  0  0  0  0  0  0  0  0
    7.4508    2.0325    0.0165 C   0  0  0  0  0  0  0  0  0  0  0  0
    7.9413    0.7464    0.6152 C   0  0  0  0  0  0  0  0  0  0  0  0
    4.4555    1.2531   -0.3022 N   0  0  0  0  0  0  0  0  0  0  0  0
    3.2031    0.8992    0.0437 C   0  0  0  0  0  0  0  0  0  0  0  0
    2.8765   -0.3178    0.5965 C   0  0  0  0  0  0  0  0  0  0  0  0
    1.4836   -0.6594    0.9552 C   0  0  0  0  0  0  0  0  0  0  0  0
    1.2991   -1.3369    1.9608 O   0  0  0  0  0  0  0  0  0  0  0  0
    0.5142   -0.1934    0.0821 N   0  0  0  0  0  0  0  0  0  0  0  0
   -0.8857   -0.3213    0.2124 C   0  0  0  0  0  0  0  0  0  0  0  0
   -1.6731    0.1771   -0.8297 C   0  0  0  0  0  0  0  0  0  0  0  0
   -3.0719    0.1018   -0.7753 C   0  0  0  0  0  0  0  0  0  0  0  0
   -3.7235   -0.4747    0.3156 C   0  0  0  0  0  0  0  0  0  0  0  0
   -5.1117   -0.5701    0.4345 N   0  0  0  0  0  0  0  0  0  0  0  0
   -6.1843   -0.1422   -0.3412 C   0  0  0  0  0  0  0  0  0  0  0  0
   -7.3955   -0.4773    0.1384 N   0  0  0  0  0  0  0  0  0  0  0  0
   -8.4723   -0.0837   -0.5674 C   0  0  0  0  0  0  0  0  0  0  0  0
   -8.3926    0.6342   -1.7326 C   0  0  0  0  0  0  0  0  0  0  0  0
   -7.1197    0.9334   -2.1441 C   0  0  0  0  0  0  0  0  0  0  0  0
   -6.0139    0.5596   -1.4730 N   0  0  0  0  0  0  0  0  0  0  0  0
   -2.9220   -0.9672    1.3564 C   0  0  0  0  0  0  0  0  0  0  0  0
   -1.5223   -0.8926    1.3098 C   0  0  0  0  0  0  0  0  0  0  0  0
    3.2540   -3.0363    0.7575 H   0  0  0  0  0  0  0  0  0  0  0  0
    3.1626   -2.3568    2.2241 H   0  0  0  0  0  0  0  0  0  0  0  0
    7.1426    0.3706   -1.4216 H   0  0  0  0  0  0  0  0  0  0  0  0
    8.0972    2.5518   -0.6796 H   0  0  0  0  0  0  0  0  0  0  0  0
    6.8521    2.6880    0.6369 H   0  0  0  0  0  0  0  0  0  0  0  0
    8.9224    0.3859    0.3273 H   0  0  0  0  0  0  0  0  0  0  0  0
    7.6735    0.5161    1.6407 H   0  0  0  0  0  0  0  0  0  0  0  0
    2.4598    1.6701   -0.1346 H   0  0  0  0  0  0  0  0  0  0  0  0
    0.8195    0.2375   -0.7820 H   0  0  0  0  0  0  0  0  0  0  0  0
   -1.2221    0.6354   -1.7060 H   0  0  0  0  0  0  0  0  0  0  0  0
   -3.6357    0.5037   -1.6122 H   0  0  0  0  0  0  0  0  0  0  0  0
   -5.4724   -1.0564    1.2443 H   0  0  0  0  0  0  0  0  0  0  0  0
   -9.4314   -0.3747   -0.1495 H   0  0  0  0  0  0  0  0  0  0  0  0
   -9.2681    0.9434   -2.2844 H   0  0  0  0  0  0  0  0  0  0  0  0
   -6.9400    1.5021   -3.0523 H   0  0  0  0  0  0  0  0  0  0  0  0
   -3.3816   -1.4180    2.2334 H   0  0  0  0  0  0  0  0  0  0  0  0
   -0.9673   -1.2876    2.1546 H   0  0  0  0  0  0  0  0  0  0  0  0
  1  2  1  0
  2  3  2  0
  3  4  1  0
  4  5  1  0
  5  6  1  0
  6  7  1  0
  4  8  2  0
  8  9  1  0
  9 10  2  0
 10 11  1  0
 11 12  2  0
 11 13  1  0
 13 14  1  0
 14 15  1  0
 15 16  2  0
 16 17  1  0
 17 18  1  0
 18 19  1  0
 19 20  2  0
 20 21  1  0
 21 22  2  0
 22 23  1  0
 23 24  2  0
 17 25  2  0
 25 26  1  0
 10  2  1  0
 26 14  2  0
  7  5  1  0
 24 19  1  0
  1 27  1  0
  1 28  1  0
  5 29  1  0
  6 30  1  0
  6 31  1  0
  7 32  1  0
  7 33  1  0
  9 34  1  0
 13 35  1  0
 15 36  1  0
 16 37  1  0
 18 38  1  0
 21 39  1  0
 22 40  1  0
 23 41  1  0
 25 42  1  0
 26 43  1  0
M  END
$$$$
OCNT-2310758
     RDKit          3D

 37 39  0  0  0  0  0  0  0  0999 V2000
    5.6518    1.2703    0.4968 C   0  0  0  0  0  0  0  0  0  0  0  0
    4.6435    0.3125    0.0851 N   0  0  0  0  0  0  0  0  0  0  0  0
    5.0309   -0.8956   -0.4396 C   0  0  0  0  0  0  0  0  0  0  0  0
    4.1250   -1.8182   -0.7711 C   0  0  0  0  0  0  0  0  0  0  0  0
    2.7723   -1.6699   -0.6571 N   0  0  0  0  0  0  0  0  0  0  0  0
    2.2990   -0.5468   -0.1651 C   0  0  0  0  0  0  0  0  0  0  0  0
    0.9054   -0.3816   -0.0902 N   0  0  0  0  0  0  0  0  0  0  0  0
    0.2861    0.8668    0.4023 C   0  0  0  0  0  0  0  0  0  0  0  0
   -1.1941    0.9950   -0.0214 C   0  0  0  0  0  0  0  0  0  0  0  0
   -1.9571   -0.2090    0.3747 N   0  0  0  0  0  0  0  0  0  0  0  0
   -3.3366   -0.1024    0.0934 C   0  0  0  0  0  0  0  0  0  0  0  0
   -3.7336    0.7380   -0.8955 N   0  0  0  0  0  0  0  0  0  0  0  0
   -5.0589    0.8292   -1.1671 C   0  0  0  0  0  0  0  0  0  0  0  0
   -6.0353    0.1183   -0.4924 C   0  0  0  0  0  0  0  0  0  0  0  0
   -7.6927    0.2915   -0.8994 Cl  0  0  0  0  0  0  0  0  0  0  0  0
   -5.6424   -0.7349    0.5263 C   0  0  0  0  0  0  0  0  0  0  0  0
   -4.2838   -0.8478    0.8280 C   0  0  0  0  0  0  0  0  0  0  0  0
   -3.8383   -1.8825    2.1421 Cl  0  0  0  0  0  0  0  0  0  0  0  0
   -1.3801   -1.4120   -0.2678 C   0  0  0  0  0  0  0  0  0  0  0  0
    0.0873   -1.5912    0.1663 C   0  0  0  0  0  0  0  0  0  0  0  0
    3.2959    0.5756    0.3281 C   0  0  0  0  0  0  0  0  0  0  0  0
    2.8915    1.5797    0.9018 O   0  0  0  0  0  0  0  0  0  0  0  0
    6.4114    1.3652   -0.2856 H   0  0  0  0  0  0  0  0  0  0  0  0
    6.1178    0.9143    1.4209 H   0  0  0  0  0  0  0  0  0  0  0  0
    5.2143    2.2558    0.6796 H   0  0  0  0  0  0  0  0  0  0  0  0
    6.0938   -1.0748   -0.5652 H   0  0  0  0  0  0  0  0  0  0  0  0
    4.4543   -2.7701   -1.1801 H   0  0  0  0  0  0  0  0  0  0  0  0
    0.7944    1.7381   -0.0215 H   0  0  0  0  0  0  0  0  0  0  0  0
    0.3638    0.9017    1.4953 H   0  0  0  0  0  0  0  0  0  0  0  0
   -1.2320    1.1402   -1.1100 H   0  0  0  0  0  0  0  0  0  0  0  0
   -1.6157    1.8872    0.4585 H   0  0  0  0  0  0  0  0  0  0  0  0
   -5.3136    1.5149   -1.9705 H   0  0  0  0  0  0  0  0  0  0  0  0
   -6.3802   -1.3001    1.0875 H   0  0  0  0  0  0  0  0  0  0  0  0
   -1.9309   -2.3189    0.0058 H   0  0  0  0  0  0  0  0  0  0  0  0
   -1.4273   -1.3155   -1.3614 H   0  0  0  0  0  0  0  0  0  0  0  0
    0.4839   -2.4601   -0.3704 H   0  0  0  0  0  0  0  0  0  0  0  0
    0.1298   -1.8182    1.2390 H   0  0  0  0  0  0  0  0  0  0  0  0
  1  2  1  0
  2  3  1  0
  3  4  2  0
  4  5  1  0
  5  6  2  0
  6  7  1  0
  7  8  1  0
  8  9  1  0
  9 10  1  0
 10 11  1  0
 11 12  1  0
 12 13  2  0
 13 14  1  0
 14 15  1  0
 14 16  2  0
 16 17  1  0
 17 18  1  0
 10 19  1  0
 19 20  1  0
  6 21  1  0
 21 22  2  0
 21  2  1  0
 20  7  1  0
 17 11  2  0
  1 23  1  0
  1 24  1  0
  1 25  1  0
  3 26  1  0
  4 27  1  0
  8 28  1  0
  8 29  1  0
  9 30  1  0
  9 31  1  0
 13 32  1  0
 16 33  1  0
 19 34  1  0
 19 35  1  0
 20 36  1  0
 20 37  1  0
M  END
$$$$
OCNT-2310764
     RDKit          3D

 46 48  0  0  0  0  0  0  0  0999 V2000
   -6.5392    1.6065    1.8859 C   0  0  0  0  0  0  0  0  0  0  0  0
   -6.6462    0.2473    1.2118 C   0  0  0  0  0  0  0  0  0  0  0  0
   -5.3282   -0.2461    0.7203 C   0  0  0  0  0  0  0  0  0  0  0  0
   -4.5341   -0.9765    1.5124 N   0  0  0  0  0  0  0  0  0  0  0  0
   -3.4786   -1.2617    0.7337 N   0  0  0  0  0  0  0  0  0  0  0  0
   -3.5184   -0.6790   -0.5017 C   0  0  0  0  0  0  0  0  0  0  0  0
   -2.5195   -0.8164   -1.5323 C   0  0  0  0  0  0  0  0  0  0  0  0
   -2.8381   -0.9186   -2.7158 O   0  0  0  0  0  0  0  0  0  0  0  0
   -1.1746   -0.8531   -1.1430 N   0  0  0  0  0  0  0  0  0  0  0  0
   -0.1924   -1.1722   -2.1775 C   0  0  0  0  0  0  0  0  0  0  0  0
    1.1386   -1.5879   -1.5660 C   0  0  0  0  0  0  0  0  0  0  0  0
    1.7470   -0.4679   -0.7044 C   0  0  0  0  0  0  0  0  0  0  0  0
    2.6192   -1.0776    0.4073 C   0  0  0  0  0  0  0  0  0  0  0  0
    3.2684   -0.0697    1.1813 O   0  0  0  0  0  0  0  0  0  0  0  0
    4.4793    0.4075    0.7654 C   0  0  0  0  0  0  0  0  0  0  0  0
    5.1470    0.0663   -0.4109 C   0  0  0  0  0  0  0  0  0  0  0  0
    6.3861    0.6433   -0.7094 C   0  0  0  0  0  0  0  0  0  0  0  0
    6.9622    1.5638    0.1641 C   0  0  0  0  0  0  0  0  0  0  0  0
    6.2996    1.9109    1.3380 C   0  0  0  0  0  0  0  0  0  0  0  0
    5.0632    1.3344    1.6341 C   0  0  0  0  0  0  0  0  0  0  0  0
    0.6679    0.4823   -0.1465 C   0  0  0  0  0  0  0  0  0  0  0  0
   -0.6672   -0.2221    0.0814 C   0  0  0  0  0  0  0  0  0  0  0  0
   -4.7466   -0.0493   -0.5525 C   0  0  0  0  0  0  0  0  0  0  0  0
   -7.5238    1.9383    2.2303 H   0  0  0  0  0  0  0  0  0  0  0  0
   -5.8707    1.5668    2.7527 H   0  0  0  0  0  0  0  0  0  0  0  0
   -6.1479    2.3611    1.1950 H   0  0  0  0  0  0  0  0  0  0  0  0
   -7.3467    0.3157    0.3708 H   0  0  0  0  0  0  0  0  0  0  0  0
   -7.0742   -0.4753    1.9173 H   0  0  0  0  0  0  0  0  0  0  0  0
   -2.7591   -1.8704    1.1068 H   0  0  0  0  0  0  0  0  0  0  0  0
   -0.5824   -1.9810   -2.8061 H   0  0  0  0  0  0  0  0  0  0  0  0
   -0.0715   -0.2885   -2.8158 H   0  0  0  0  0  0  0  0  0  0  0  0
    0.9779   -2.4885   -0.9586 H   0  0  0  0  0  0  0  0  0  0  0  0
    1.8455   -1.8661   -2.3564 H   0  0  0  0  0  0  0  0  0  0  0  0
    2.3914    0.1484   -1.3442 H   0  0  0  0  0  0  0  0  0  0  0  0
    1.9754   -1.6271    1.1052 H   0  0  0  0  0  0  0  0  0  0  0  0
    3.3302   -1.8185    0.0230 H   0  0  0  0  0  0  0  0  0  0  0  0
    4.7347   -0.6385   -1.1237 H   0  0  0  0  0  0  0  0  0  0  0  0
    6.9016    0.3738   -1.6279 H   0  0  0  0  0  0  0  0  0  0  0  0
    7.9249    2.0103   -0.0708 H   0  0  0  0  0  0  0  0  0  0  0  0
    6.7419    2.6288    2.0234 H   0  0  0  0  0  0  0  0  0  0  0  0
    4.5494    1.6092    2.5522 H   0  0  0  0  0  0  0  0  0  0  0  0
    0.5103    1.2906   -0.8735 H   0  0  0  0  0  0  0  0  0  0  0  0
    0.9968    0.9667    0.7791 H   0  0  0  0  0  0  0  0  0  0  0  0
   -1.3919    0.5057    0.4596 H   0  0  0  0  0  0  0  0  0  0  0  0
   -0.5511   -1.0131    0.8306 H   0  0  0  0  0  0  0  0  0  0  0  0
   -5.1564    0.4878   -1.3973 H   0  0  0  0  0  0  0  0  0  0  0  0
  1  2  1  0
  2  3  1  0
  3  4  2  0
  4  5  1  0
  5  6  1  0
  6  7  1  0
  7  8  2  0
  7  9  1  0
  9 10  1  0
 10 11  1  0
 11 12  1  0
 12 13  1  0
 13 14  1  0
 14 15  1  0
 15 16  2  0
 16 17  1  0
 17 18  2  0
 18 19  1  0
 19 20  2  0
 12 21  1  0
 21 22  1  0
  6 23  2  0
 23  3  1  0
 22  9  1  0
 20 15  1  0
  1 24  1  0
  1 25  1  0
  1 26  1  0
  2 27  1  0
  2 28  1  0
  5 29  1  0
 10 30  1  0
 10 31  1  0
 11 32  1  0
 11 33  1  0
 12 34  1  0
 13 35  1  0
 13 36  1  0
 16 37  1  0
 17 38  1  0
 18 39  1  0
 19 40  1  0
 20 41  1  0
 21 42  1  0
 21 43  1  0
 22 44  1  0
 22 45  1  0
 23 46  1  0
M  END
$$$$
OCNT-2310779
     RDKit          3D

 39 41  0  0  0  0  0  0  0  0999 V2000
   -3.1720    3.1927   -0.2005 C   0  0  0  0  0  0  0  0  0  0  0  0
   -3.1643    2.1079   -1.2681 C   0  0  0  0  0  0  0  0  0  0  0  0
   -2.3149    0.9725   -0.8637 N   0  0  0  0  0  0  0  0  0  0  0  0
   -0.9780    0.9270   -1.2385 C   0  0  0  0  0  0  0  0  0  0  0  0
   -0.0874   -0.0270   -0.9314 C   0  0  0  0  0  0  0  0  0  0  0  0
    1.3099    0.1086   -1.4355 C   0  0  0  0  0  0  0  0  0  0  0  0
    1.6807    1.1065   -2.0454 O   0  0  0  0  0  0  0  0  0  0  0  0
    2.1263   -0.9583   -1.1663 N   0  0  0  0  0  0  0  0  0  0  0  0
    3.5525   -0.9377   -1.4209 C   0  0  0  0  0  0  0  0  0  0  0  0
    4.3618   -0.5197   -0.2119 C   0  0  0  0  0  0  0  0  0  0  0  0
    4.1517   -1.1111    1.0229 C   0  0  0  0  0  0  0  0  0  0  0  0
    4.9516   -0.6759    2.0557 C   0  0  0  0  0  0  0  0  0  0  0  0
    5.9022    0.2637    1.9153 N   0  0  0  0  0  0  0  0  0  0  0  0
    6.0346    0.7688    0.6806 C   0  0  0  0  0  0  0  0  0  0  0  0
    5.3181    0.4182   -0.3985 N   0  0  0  0  0  0  0  0  0  0  0  0
   -0.5750   -1.1457   -0.0913 C   0  0  0  0  0  0  0  0  0  0  0  0
    0.1692   -2.0667    0.2429 O   0  0  0  0  0  0  0  0  0  0  0  0
   -1.9926   -1.1214    0.3496 C   0  0  0  0  0  0  0  0  0  0  0  0
   -2.4559   -2.1709    1.1584 C   0  0  0  0  0  0  0  0  0  0  0  0
   -3.7736   -2.1682    1.5929 C   0  0  0  0  0  0  0  0  0  0  0  0
   -4.3546   -3.4462    2.5850 Cl  0  0  0  0  0  0  0  0  0  0  0  0
   -4.6254   -1.1317    1.2296 C   0  0  0  0  0  0  0  0  0  0  0  0
   -4.1577   -0.0869    0.4210 C   0  0  0  0  0  0  0  0  0  0  0  0
   -2.8319   -0.0536   -0.0429 C   0  0  0  0  0  0  0  0  0  0  0  0
   -3.7842    4.0393   -0.5267 H   0  0  0  0  0  0  0  0  0  0  0  0
   -2.1587    3.5608   -0.0078 H   0  0  0  0  0  0  0  0  0  0  0  0
   -3.5784    2.8258    0.7469 H   0  0  0  0  0  0  0  0  0  0  0  0
   -2.7795    2.5423   -2.2003 H   0  0  0  0  0  0  0  0  0  0  0  0
   -4.1833    1.7885   -1.5126 H   0  0  0  0  0  0  0  0  0  0  0  0
   -0.6723    1.7784   -1.8462 H   0  0  0  0  0  0  0  0  0  0  0  0
    1.7443   -1.7240   -0.6130 H   0  0  0  0  0  0  0  0  0  0  0  0
    3.7647   -0.2695   -2.2627 H   0  0  0  0  0  0  0  0  0  0  0  0
    3.8468   -1.9521   -1.7110 H   0  0  0  0  0  0  0  0  0  0  0  0
    3.3995   -1.8723    1.1824 H   0  0  0  0  0  0  0  0  0  0  0  0
    4.8466   -1.0848    3.0564 H   0  0  0  0  0  0  0  0  0  0  0  0
    6.7935    1.5303    0.5391 H   0  0  0  0  0  0  0  0  0  0  0  0
   -1.7887   -2.9803    1.4450 H   0  0  0  0  0  0  0  0  0  0  0  0
   -5.6581   -1.1247    1.5708 H   0  0  0  0  0  0  0  0  0  0  0  0
   -4.8673    0.6971    0.1751 H   0  0  0  0  0  0  0  0  0  0  0  0
  1  2  1  0
  2  3  1  0
  3  4  1  0
  4  5  2  0
  5  6  1  0
  6  7  2  0
  6  8  1  0
  8  9  1  0
  9 10  1  0
 10 11  1  0
 11 12  2  0
 12 13  1  0
 13 14  2  0
 14 15  1  0
  5 16  1  0
 16 17  2  0
 16 18  1  0
 18 19  1  0
 19 20  2  0
 20 21  1  0
 20 22  1  0
 22 23  2  0
 23 24  1  0
 24  3  1  0
 15 10  2  0
 24 18  2  0
  1 25  1  0
  1 26  1  0
  1 27  1  0
  2 28  1  0
  2 29  1  0
  4 30  1  0
  8 31  1  0
  9 32  1  0
  9 33  1  0
 11 34  1  0
 12 35  1  0
 14 36  1  0
 19 37  1  0
 22 38  1  0
 23 39  1  0
M  END
$$$$
OCNT-2310785
     RDKit          3D

 34 37  0  0  0  0  0  0  0  0999 V2000
   -0.1255    0.5699   -1.6842 O   0  0  0  0  0  0  0  0  0  0  0  0
   -0.2263    0.5753   -0.4656 C   0  0  0  0  0  0  0  0  0  0  0  0
   -1.3973    0.4048    0.2651 N   0  0  0  0  0  0  0  0  0  0  0  0
   -2.7023    0.1735   -0.2264 C   0  0  0  0  0  0  0  0  0  0  0  0
   -2.9901    0.0738   -1.6076 C   0  0  0  0  0  0  0  0  0  0  0  0
   -4.3482   -0.1535   -1.9024 C   0  0  0  0  0  0  0  0  0  0  0  0
   -4.9677   -0.2979   -3.0901 N   0  0  0  0  0  0  0  0  0  0  0  0
   -6.2660   -0.4811   -2.7822 N   0  0  0  0  0  0  0  0  0  0  0  0
   -6.5359   -0.4710   -1.4430 C   0  0  0  0  0  0  0  0  0  0  0  0
   -5.3222   -0.2665   -0.8474 C   0  0  0  0  0  0  0  0  0  0  0  0
   -5.0950   -0.1795    0.5189 C   0  0  0  0  0  0  0  0  0  0  0  0
   -3.7248    0.0448    0.7826 C   0  0  0  0  0  0  0  0  0  0  0  0
    0.9570    0.7754    0.3902 C   0  0  0  0  0  0  0  0  0  0  0  0
    0.9994    1.5810    1.5236 C   0  0  0  0  0  0  0  0  0  0  0  0
    2.5556    1.5335    2.2382 S   0  0  0  0  0  0  0  0  0  0  0  0
    3.1021    0.4897    0.9748 C   0  0  0  0  0  0  0  0  0  0  0  0
    4.4990    0.0258    0.9248 C   0  0  0  0  0  0  0  0  0  0  0  0
    5.0593   -0.3776   -0.2852 C   0  0  0  0  0  0  0  0  0  0  0  0
    6.3719   -0.8421   -0.2962 C   0  0  0  0  0  0  0  0  0  0  0  0
    7.0814   -0.9060    0.8968 C   0  0  0  0  0  0  0  0  0  0  0  0
    6.4482   -0.4972    2.0601 C   0  0  0  0  0  0  0  0  0  0  0  0
    5.1804   -0.0317    2.1008 N   0  0  0  0  0  0  0  0  0  0  0  0
    2.1780    0.1825    0.0794 N   0  0  0  0  0  0  0  0  0  0  0  0
   -1.2999    0.4060    1.2728 H   0  0  0  0  0  0  0  0  0  0  0  0
   -2.2663    0.1535   -2.4042 H   0  0  0  0  0  0  0  0  0  0  0  0
   -6.9179   -0.6050   -3.5495 H   0  0  0  0  0  0  0  0  0  0  0  0
   -7.5379   -0.6063   -1.0603 H   0  0  0  0  0  0  0  0  0  0  0  0
   -5.8435   -0.2664    1.2922 H   0  0  0  0  0  0  0  0  0  0  0  0
   -3.4410    0.1254    1.8339 H   0  0  0  0  0  0  0  0  0  0  0  0
    0.2170    2.1958    1.9500 H   0  0  0  0  0  0  0  0  0  0  0  0
    4.4778   -0.3330   -1.2052 H   0  0  0  0  0  0  0  0  0  0  0  0
    6.8239   -1.1688   -1.2301 H   0  0  0  0  0  0  0  0  0  0  0  0
    8.1003   -1.2766    0.9209 H   0  0  0  0  0  0  0  0  0  0  0  0
    6.9569   -0.5505    3.0197 H   0  0  0  0  0  0  0  0  0  0  0  0
  1  2  2  0
  2  3  1  0
  3  4  1  0
  4  5  2  0
  5  6  1  0
  6  7  2  0
  7  8  1  0
  8  9  1  0
  9 10  2  0
 10 11  1  0
 11 12  2  0
  2 13  1  0
 13 14  2  0
 14 15  1  0
 15 16  1  0
 16 17  1  0
 17 18  2  0
 18 19  1  0
 19 20  2  0
 20 21  1  0
 21 22  2  0
 16 23  2  0
 12  4  1  0
 23 13  1  0
 10  6  1  0
 22 17  1  0
  3 24  1  0
  5 25  1  0
  8 26  1  0
  9 27  1  0
 11 28  1  0
 12 29  1  0
 14 30  1  0
 18 31  1  0
 19 32  1  0
 20 33  1  0
 21 34  1  0
M  END
$$$$
OCNT-2310791
     RDKit          3D

 41 43  0  0  0  0  0  0  0  0999 V2000
   -3.7708   -1.2299    3.0770 N   0  0  0  0  0  0  0  0  0  0  0  0
   -3.7497   -0.5671    2.1233 C   0  0  0  0  0  0  0  0  0  0  0  0
   -3.7814    0.2464    0.9391 C   0  0  0  0  0  0  0  0  0  0  0  0
   -2.6750    0.3555    0.0594 C   0  0  0  0  0  0  0  0  0  0  0  0
   -1.4860   -0.3588    0.2249 N   0  0  0  0  0  0  0  0  0  0  0  0
   -1.5358   -1.8088    0.4879 C   0  0  0  0  0  0  0  0  0  0  0  0
   -0.4670   -2.5449   -0.3188 C   0  0  0  0  0  0  0  0  0  0  0  0
    0.9459   -2.0524    0.0000 C   0  0  0  0  0  0  0  0  0  0  0  0
    0.9863   -0.5557    0.3635 C   0  0  0  0  0  0  0  0  0  0  0  0
    2.3043    0.0427    0.0807 N   0  0  0  0  0  0  0  0  0  0  0  0
    2.7205    0.3145   -1.2942 C   0  0  0  0  0  0  0  0  0  0  0  0
    3.7679    1.4430   -1.3752 C   0  0  0  0  0  0  0  0  0  0  0  0
    4.6415    1.5799   -0.2011 N   0  0  0  0  0  0  0  0  0  0  0  0
    4.7243    0.3095    0.5480 C   0  0  0  0  0  0  0  0  0  0  0  0
    3.3349   -0.1603    1.0112 C   0  0  0  0  0  0  0  0  0  0  0  0
    3.1665   -0.7001    2.1021 O   0  0  0  0  0  0  0  0  0  0  0  0
   -0.2098    0.1939   -0.2655 C   0  0  0  0  0  0  0  0  0  0  0  0
   -2.8151    1.2558   -1.0181 C   0  0  0  0  0  0  0  0  0  0  0  0
   -3.9891    1.9857   -1.2282 C   0  0  0  0  0  0  0  0  0  0  0  0
   -4.0996    3.0556   -2.5718 Cl  0  0  0  0  0  0  0  0  0  0  0  0
   -5.0667    1.8516   -0.3659 C   0  0  0  0  0  0  0  0  0  0  0  0
   -4.9614    0.9852    0.7181 C   0  0  0  0  0  0  0  0  0  0  0  0
   -1.3715   -1.9898    1.5563 H   0  0  0  0  0  0  0  0  0  0  0  0
   -2.5110   -2.2294    0.2144 H   0  0  0  0  0  0  0  0  0  0  0  0
   -0.5301   -3.6232   -0.1340 H   0  0  0  0  0  0  0  0  0  0  0  0
   -0.6623   -2.3993   -1.3894 H   0  0  0  0  0  0  0  0  0  0  0  0
    1.3560   -2.6299    0.8383 H   0  0  0  0  0  0  0  0  0  0  0  0
    1.5909   -2.2741   -0.8584 H   0  0  0  0  0  0  0  0  0  0  0  0
    0.8456   -0.4915    1.4522 H   0  0  0  0  0  0  0  0  0  0  0  0
    1.8595    0.5874   -1.9087 H   0  0  0  0  0  0  0  0  0  0  0  0
    3.1471   -0.6134   -1.6938 H   0  0  0  0  0  0  0  0  0  0  0  0
    4.3820    1.2971   -2.2713 H   0  0  0  0  0  0  0  0  0  0  0  0
    3.2497    2.3996   -1.5154 H   0  0  0  0  0  0  0  0  0  0  0  0
    4.2233    2.2668    0.4304 H   0  0  0  0  0  0  0  0  0  0  0  0
    5.1908   -0.4765   -0.0554 H   0  0  0  0  0  0  0  0  0  0  0  0
    5.3455    0.4709    1.4351 H   0  0  0  0  0  0  0  0  0  0  0  0
   -0.1745    0.1121   -1.3580 H   0  0  0  0  0  0  0  0  0  0  0  0
   -0.1346    1.2569   -0.0032 H   0  0  0  0  0  0  0  0  0  0  0  0
   -2.0089    1.3830   -1.7349 H   0  0  0  0  0  0  0  0  0  0  0  0
   -5.9805    2.4180   -0.5244 H   0  0  0  0  0  0  0  0  0  0  0  0
   -5.8018    0.8937    1.4056 H   0  0  0  0  0  0  0  0  0  0  0  0
  1  2  3  0
  2  3  1  0
  3  4  2  0
  4  5  1  0
  5  6  1  0
  6  7  1  0
  7  8  1  0
  8  9  1  0
  9 10  1  0
 10 11  1  0
 11 12  1  0
 12 13  1  0
 13 14  1  0
 14 15  1  0
 15 16  2  0
  9 17  1  0
  4 18  1  0
 18 19  2  0
 19 20  1  0
 19 21  1  0
 21 22  2  0
 22  3  1  0
 17  5  1  0
 15 10  1  0
  6 23  1  0
  6 24  1  0
  7 25  1  0
  7 26  1  0
  8 27  1  0
  8 28  1  0
  9 29  1  0
 11 30  1  0
 11 31  1  0
 12 32  1  0
 12 33  1  0
 13 34  1  0
 14 35  1  0
 14 36  1  0
 17 37  1  0
 17 38  1  0
 18 39  1  0
 21 40  1  0
 22 41  1  0
M  END
$$$$
OCNT-2310795
     RDKit          3D

 39 41  0  0  0  0  0  0  0  0999 V2000
    1.3556    2.7263    0.2985 C   0  0  0  0  0  0  0  0  0  0  0  0
    2.0213    1.8307    1.3347 C   0  0  0  0  0  0  0  0  0  0  0  0
    1.2782    0.6043    1.3938 O   0  0  0  0  0  0  0  0  0  0  0  0
    2.0289   -0.4852    1.7568 C   0  0  0  0  0  0  0  0  0  0  0  0
    2.8436   -0.4383    2.8974 C   0  0  0  0  0  0  0  0  0  0  0  0
    3.5916   -1.5537    3.2729 C   0  0  0  0  0  0  0  0  0  0  0  0
    3.5292   -2.7204    2.5163 C   0  0  0  0  0  0  0  0  0  0  0  0
    2.6985   -2.7816    1.3952 C   0  0  0  0  0  0  0  0  0  0  0  0
    1.9245   -1.6735    1.0108 C   0  0  0  0  0  0  0  0  0  0  0  0
    1.0389   -1.8405   -0.1923 C   0  0  0  0  0  0  0  0  0  0  0  0
    1.2541   -2.7803   -0.9558 O   0  0  0  0  0  0  0  0  0  0  0  0
    0.0070   -0.9336   -0.3128 N   0  0  0  0  0  0  0  0  0  0  0  0
   -0.9543   -0.8130   -1.3385 C   0  0  0  0  0  0  0  0  0  0  0  0
   -0.9645   -1.5976   -2.4920 C   0  0  0  0  0  0  0  0  0  0  0  0
   -1.9279   -1.3837   -3.4831 C   0  0  0  0  0  0  0  0  0  0  0  0
   -2.8880   -0.3846   -3.3340 C   0  0  0  0  0  0  0  0  0  0  0  0
   -2.8988    0.3884   -2.1767 C   0  0  0  0  0  0  0  0  0  0  0  0
   -1.9413    0.1763   -1.1786 C   0  0  0  0  0  0  0  0  0  0  0  0
   -1.8813    0.9476   -0.0401 O   0  0  0  0  0  0  0  0  0  0  0  0
   -3.1055    1.5885    0.2776 C   0  0  0  0  0  0  0  0  0  0  0  0
   -3.9728    2.1016   -0.8668 C   0  0  0  0  0  0  0  0  0  0  0  0
   -4.7773    3.0204   -0.7452 O   0  0  0  0  0  0  0  0  0  0  0  0
   -3.8503    1.3992   -2.0339 N   0  0  0  0  0  0  0  0  0  0  0  0
    0.2968    2.8766    0.5440 H   0  0  0  0  0  0  0  0  0  0  0  0
    1.3940    2.2517   -0.6907 H   0  0  0  0  0  0  0  0  0  0  0  0
    1.8491    3.7026    0.2380 H   0  0  0  0  0  0  0  0  0  0  0  0
    1.9952    2.3141    2.3186 H   0  0  0  0  0  0  0  0  0  0  0  0
    3.0631    1.6559    1.0315 H   0  0  0  0  0  0  0  0  0  0  0  0
    2.8944    0.4564    3.5114 H   0  0  0  0  0  0  0  0  0  0  0  0
    4.2208   -1.5096    4.1616 H   0  0  0  0  0  0  0  0  0  0  0  0
    4.1163   -3.5885    2.8028 H   0  0  0  0  0  0  0  0  0  0  0  0
    2.6499   -3.7072    0.8222 H   0  0  0  0  0  0  0  0  0  0  0  0
   -0.0791   -0.2327    0.4227 H   0  0  0  0  0  0  0  0  0  0  0  0
   -0.2240   -2.3730   -2.6583 H   0  0  0  0  0  0  0  0  0  0  0  0
   -1.9159   -1.9966   -4.3804 H   0  0  0  0  0  0  0  0  0  0  0  0
   -3.6158   -0.2255   -4.1232 H   0  0  0  0  0  0  0  0  0  0  0  0
   -2.8654    2.4416    0.9198 H   0  0  0  0  0  0  0  0  0  0  0  0
   -3.7148    0.8926    0.8659 H   0  0  0  0  0  0  0  0  0  0  0  0
   -4.4741    1.6448   -2.7902 H   0  0  0  0  0  0  0  0  0  0  0  0
  1  2  1  0
  2  3  1  0
  3  4  1  0
  4  5  2  0
  5  6  1  0
  6  7  2  0
  7  8  1  0
  8  9  2  0
  9 10  1  0
 10 11  2  0
 10 12  1  0
 12 13  1  0
 13 14  1  0
 14 15  2  0
 15 16  1  0
 16 17  2  0
 17 18  1  0
 18 19  1  0
 19 20  1  0
 20 21  1  0
 21 22  2  0
 21 23  1  0
  9  4  1  0
 18 13  2  0
 23 17  1  0
  1 24  1  0
  1 25  1  0
  1 26  1  0
  2 27  1  0
  2 28  1  0
  5 29  1  0
  6 30  1  0
  7 31  1  0
  8 32  1  0
 12 33  1  0
 14 34  1  0
 15 35  1  0
 16 36  1  0
 20 37  1  0
 20 38  1  0
 23 39  1  0
M  END
$$$$
OCNT-2310796
     RDKit          3D

 39 41  0  0  0  0  0  0  0  0999 V2000
   -1.7523    2.4163    0.1826 O   0  0  0  0  0  0  0  0  0  0  0  0
   -1.4016    1.2469    0.0486 C   0  0  0  0  0  0  0  0  0  0  0  0
   -2.2747    0.1738    0.0840 N   0  0  0  0  0  0  0  0  0  0  0  0
   -3.6783    0.1913    0.2499 C   0  0  0  0  0  0  0  0  0  0  0  0
   -4.4366    1.3564    0.3627 C   0  0  0  0  0  0  0  0  0  0  0  0
   -5.7867    1.3839    0.5085 N   0  0  0  0  0  0  0  0  0  0  0  0
   -6.4184    0.1979    0.5533 C   0  0  0  0  0  0  0  0  0  0  0  0
   -5.7657   -1.0186    0.4566 C   0  0  0  0  0  0  0  0  0  0  0  0
   -4.3715   -1.0356    0.2946 C   0  0  0  0  0  0  0  0  0  0  0  0
   -3.6726   -2.3702    0.2492 C   0  0  0  0  0  0  0  0  0  0  0  0
   -2.7080   -2.3999   -0.7967 O   0  0  0  0  0  0  0  0  0  0  0  0
    0.0030    0.8961   -0.1613 C   0  0  0  0  0  0  0  0  0  0  0  0
    1.0652    1.7766   -0.2512 C   0  0  0  0  0  0  0  0  0  0  0  0
    2.3258    1.1287   -0.4573 C   0  0  0  0  0  0  0  0  0  0  0  0
    2.1712   -0.2438   -0.5164 C   0  0  0  0  0  0  0  0  0  0  0  0
    3.2402   -1.2752   -0.7189 C   0  0  0  0  0  0  0  0  0  0  0  0
    4.3486   -1.1729    0.3303 C   0  0  0  0  0  0  0  0  0  0  0  0
    5.2920    0.0184    0.1368 C   0  0  0  0  0  0  0  0  0  0  0  0
    4.6785    1.3905    0.4316 C   0  0  0  0  0  0  0  0  0  0  0  0
    3.6361    1.8447   -0.5909 C   0  0  0  0  0  0  0  0  0  0  0  0
    0.5414   -0.7183   -0.3265 S   0  0  0  0  0  0  0  0  0  0  0  0
   -1.8534   -0.7423   -0.0651 H   0  0  0  0  0  0  0  0  0  0  0  0
   -3.9945    2.3465    0.3355 H   0  0  0  0  0  0  0  0  0  0  0  0
   -7.4963    0.2504    0.6780 H   0  0  0  0  0  0  0  0  0  0  0  0
   -6.3413   -1.9372    0.5147 H   0  0  0  0  0  0  0  0  0  0  0  0
   -3.1639   -2.5560    1.2007 H   0  0  0  0  0  0  0  0  0  0  0  0
   -4.3768   -3.1901    0.0735 H   0  0  0  0  0  0  0  0  0  0  0  0
   -3.1801   -2.1671   -1.6173 H   0  0  0  0  0  0  0  0  0  0  0  0
    0.9352    2.8509   -0.1705 H   0  0  0  0  0  0  0  0  0  0  0  0
    2.8107   -2.2835   -0.6660 H   0  0  0  0  0  0  0  0  0  0  0  0
    3.6605   -1.1702   -1.7267 H   0  0  0  0  0  0  0  0  0  0  0  0
    4.9546   -2.0856    0.2658 H   0  0  0  0  0  0  0  0  0  0  0  0
    3.9228   -1.1513    1.3413 H   0  0  0  0  0  0  0  0  0  0  0  0
    5.7054    0.0053   -0.8791 H   0  0  0  0  0  0  0  0  0  0  0  0
    6.1428   -0.1178    0.8165 H   0  0  0  0  0  0  0  0  0  0  0  0
    5.4946    2.1241    0.4265 H   0  0  0  0  0  0  0  0  0  0  0  0
    4.2550    1.4000    1.4437 H   0  0  0  0  0  0  0  0  0  0  0  0
    3.4689    2.9209   -0.4561 H   0  0  0  0  0  0  0  0  0  0  0  0
    4.0203    1.7160   -1.6103 H   0  0  0  0  0  0  0  0  0  0  0  0
  1  2  2  0
  2  3  1  0
  3  4  1  0
  4  5  2  0
  5  6  1  0
  6  7  2  0
  7  8  1  0
  8  9  2  0
  9 10  1  0
 10 11  1  0
  2 12  1  0
 12 13  2  0
 13 14  1  0
 14 15  2  0
 15 16  1  0
 16 17  1  0
 17 18  1  0
 18 19  1  0
 19 20  1  0
 15 21  1  0
  9  4  1  0
 21 12  1  0
 20 14  1  0
  3 22  1  0
  5 23  1  0
  7 24  1  0
  8 25  1  0
 10 26  1  0
 10 27  1  0
 11 28  1  0
 13 29  1  0
 16 30  1  0
 16 31  1  0
 17 32  1  0
 17 33  1  0
 18 34  1  0
 18 35  1  0
 19 36  1  0
 19 37  1  0
 20 38  1  0
 20 39  1  0
M  END
$$$$
OCNT-2310798
     RDKit          3D

 55 58  0  0  0  0  0  0  0  0999 V2000
   -3.1580    2.1386   -0.4789 C   0  0  0  0  0  0  0  0  0  0  0  0
   -2.6337    0.8564   -0.8192 O   0  0  0  0  0  0  0  0  0  0  0  0
   -3.2478    0.2803   -1.9080 C   0  0  0  0  0  0  0  0  0  0  0  0
   -3.4881    1.0014   -3.0843 C   0  0  0  0  0  0  0  0  0  0  0  0
   -4.0636    0.3713   -4.1858 C   0  0  0  0  0  0  0  0  0  0  0  0
   -4.3869   -0.9792   -4.1190 C   0  0  0  0  0  0  0  0  0  0  0  0
   -4.1271   -1.7022   -2.9525 C   0  0  0  0  0  0  0  0  0  0  0  0
   -3.5525   -1.0964   -1.8180 C   0  0  0  0  0  0  0  0  0  0  0  0
   -3.2624   -1.9272   -0.5614 C   0  0  0  0  0  0  0  0  0  0  0  0
   -1.8499   -2.4882   -0.4726 C   0  0  0  0  0  0  0  0  0  0  0  0
   -0.9215   -1.4480   -0.0800 N   0  0  0  0  0  0  0  0  0  0  0  0
   -0.1136   -1.5662    1.0168 C   0  0  0  0  0  0  0  0  0  0  0  0
   -0.0891   -2.5794    1.7110 O   0  0  0  0  0  0  0  0  0  0  0  0
    0.6990   -0.4687    1.2597 N   0  0  0  0  0  0  0  0  0  0  0  0
    0.8006    0.6933    0.3771 C   0  0  0  0  0  0  0  0  0  0  0  0
    2.0119    1.5716    0.6874 C   0  0  0  0  0  0  0  0  0  0  0  0
    3.2536    0.6951    0.9073 C   0  0  0  0  0  0  0  0  0  0  0  0
    4.4848    1.5205    1.1590 C   0  0  0  0  0  0  0  0  0  0  0  0
    4.6847    2.6368    1.9484 C   0  0  0  0  0  0  0  0  0  0  0  0
    6.0387    2.9690    1.7843 C   0  0  0  0  0  0  0  0  0  0  0  0
    6.6670    2.1318    0.9600 N   0  0  0  0  0  0  0  0  0  0  0  0
    5.7141    1.2497    0.6036 N   0  0  0  0  0  0  0  0  0  0  0  0
    6.0625    0.1637   -0.2828 C   0  0  0  0  0  0  0  0  0  0  0  0
    3.0312   -0.3328    2.0368 C   0  0  0  0  0  0  0  0  0  0  0  0
    1.5621   -0.4700    2.4337 C   0  0  0  0  0  0  0  0  0  0  0  0
   -4.3933   -2.7691    0.0189 C   0  0  0  0  0  0  0  0  0  0  0  0
   -3.9516   -1.5356    0.7394 C   0  0  0  0  0  0  0  0  0  0  0  0
   -4.2498    2.1753   -0.5731 H   0  0  0  0  0  0  0  0  0  0  0  0
   -2.6880    2.9153   -1.0887 H   0  0  0  0  0  0  0  0  0  0  0  0
   -2.9050    2.3338    0.5675 H   0  0  0  0  0  0  0  0  0  0  0  0
   -3.2069    2.0454   -3.1689 H   0  0  0  0  0  0  0  0  0  0  0  0
   -4.2477    0.9312   -5.0987 H   0  0  0  0  0  0  0  0  0  0  0  0
   -4.8288   -1.4759   -4.9793 H   0  0  0  0  0  0  0  0  0  0  0  0
   -4.3729   -2.7619   -2.9261 H   0  0  0  0  0  0  0  0  0  0  0  0
   -1.8016   -3.3319    0.2238 H   0  0  0  0  0  0  0  0  0  0  0  0
   -1.5275   -2.8562   -1.4538 H   0  0  0  0  0  0  0  0  0  0  0  0
   -1.2076   -0.5111   -0.3291 H   0  0  0  0  0  0  0  0  0  0  0  0
    0.8596    0.3384   -0.6583 H   0  0  0  0  0  0  0  0  0  0  0  0
   -0.1192    1.2795    0.4796 H   0  0  0  0  0  0  0  0  0  0  0  0
    2.1709    2.2813   -0.1334 H   0  0  0  0  0  0  0  0  0  0  0  0
    1.8065    2.1735    1.5822 H   0  0  0  0  0  0  0  0  0  0  0  0
    3.3987    0.1306   -0.0248 H   0  0  0  0  0  0  0  0  0  0  0  0
    3.9528    3.1440    2.5593 H   0  0  0  0  0  0  0  0  0  0  0  0
    6.5938    3.7846    2.2286 H   0  0  0  0  0  0  0  0  0  0  0  0
    5.7190   -0.7737    0.1609 H   0  0  0  0  0  0  0  0  0  0  0  0
    5.5780    0.3391   -1.2467 H   0  0  0  0  0  0  0  0  0  0  0  0
    7.1476    0.1311   -0.4107 H   0  0  0  0  0  0  0  0  0  0  0  0
    3.6150   -0.0915    2.9344 H   0  0  0  0  0  0  0  0  0  0  0  0
    3.4018   -1.3075    1.6910 H   0  0  0  0  0  0  0  0  0  0  0  0
    1.4262   -1.3731    3.0376 H   0  0  0  0  0  0  0  0  0  0  0  0
    1.2560    0.3752    3.0622 H   0  0  0  0  0  0  0  0  0  0  0  0
   -5.3675   -2.7475   -0.4559 H   0  0  0  0  0  0  0  0  0  0  0  0
   -4.1531   -3.7265    0.4676 H   0  0  0  0  0  0  0  0  0  0  0  0
   -4.6207   -0.6831    0.7382 H   0  0  0  0  0  0  0  0  0  0  0  0
   -3.4005   -1.6550    1.6660 H   0  0  0  0  0  0  0  0  0  0  0  0
  1  2  1  0
  2  3  1  0
  3  4  2  0
  4  5  1  0
  5  6  2  0
  6  7  1  0
  7  8  2  0
  8  9  1  0
  9 10  1  0
 10 11  1  0
 11 12  1  0
 12 13  2  0
 12 14  1  0
 14 15  1  0
 15 16  1  0
 16 17  1  0
 17 18  1  0
 18 19  2  0
 19 20  1  0
 20 21  2  0
 21 22  1  0
 22 23  1  0
 17 24  1  0
 24 25  1  0
  9 26  1  0
 26 27  1  0
  8  3  1  0
 27  9  1  0
 25 14  1  0
 22 18  1  0
  1 28  1  0
  1 29  1  0
  1 30  1  0
  4 31  1  0
  5 32  1  0
  6 33  1  0
  7 34  1  0
 10 35  1  0
 10 36  1  0
 11 37  1  0
 15 38  1  0
 15 39  1  0
 16 40  1  0
 16 41  1  0
 17 42  1  0
 19 43  1  0
 20 44  1  0
 23 45  1  0
 23 46  1  0
 23 47  1  0
 24 48  1  0
 24 49  1  0
 25 50  1  0
 25 51  1  0
 26 52  1  0
 26 53  1  0
 27 54  1  0
 27 55  1  0
M  END
$$$$
OCNT-2310801
     RDKit          3D

 51 54  0  0  0  0  0  0  0  0999 V2000
    5.5461    0.5692   -2.3979 C   0  0  0  0  0  0  0  0  0  0  0  0
    5.0083    1.7919   -1.6765 C   0  0  0  0  0  0  0  0  0  0  0  0
    5.2520    1.7352   -0.2477 N   0  0  0  0  0  0  0  0  0  0  0  0
    6.3842    2.2798    0.2450 N   0  0  0  0  0  0  0  0  0  0  0  0
    6.2859    2.0683    1.5592 C   0  0  0  0  0  0  0  0  0  0  0  0
    5.1014    1.3892    1.9157 C   0  0  0  0  0  0  0  0  0  0  0  0
    4.5197    0.9317    3.1086 C   0  0  0  0  0  0  0  0  0  0  0  0
    3.2826    0.2705    3.0545 C   0  0  0  0  0  0  0  0  0  0  0  0
    2.6257    0.0620    1.8409 C   0  0  0  0  0  0  0  0  0  0  0  0
    1.3881   -0.5945    1.7326 N   0  0  0  0  0  0  0  0  0  0  0  0
    0.5768   -1.0876    2.7384 C   0  0  0  0  0  0  0  0  0  0  0  0
    0.8016   -1.0643    3.9447 O   0  0  0  0  0  0  0  0  0  0  0  0
   -0.6881   -1.7670    2.1858 C   0  0  0  0  0  0  0  0  0  0  0  0
   -1.0580   -1.2343    0.8470 N   0  0  0  0  0  0  0  0  0  0  0  0
   -2.0040   -2.1671    0.1910 C   0  0  0  0  0  0  0  0  0  0  0  0
   -2.7371   -1.5681   -1.0328 C   0  0  0  0  0  0  0  0  0  0  0  0
   -3.4465   -0.3254   -0.6894 N   0  0  0  0  0  0  0  0  0  0  0  0
   -4.7596   -0.1811   -1.1356 C   0  0  0  0  0  0  0  0  0  0  0  0
   -5.1103   -0.5264   -2.4429 C   0  0  0  0  0  0  0  0  0  0  0  0
   -6.4230   -0.3619   -2.8849 C   0  0  0  0  0  0  0  0  0  0  0  0
   -7.3685    0.1556   -2.0153 C   0  0  0  0  0  0  0  0  0  0  0  0
   -6.9517    0.4919   -0.7425 C   0  0  0  0  0  0  0  0  0  0  0  0
   -5.6838    0.3391   -0.2973 N   0  0  0  0  0  0  0  0  0  0  0  0
   -3.1669    0.2306    0.6420 C   0  0  0  0  0  0  0  0  0  0  0  0
   -1.6550    0.1280    0.9512 C   0  0  0  0  0  0  0  0  0  0  0  0
    3.2020    0.5161    0.6428 C   0  0  0  0  0  0  0  0  0  0  0  0
    4.4385    1.1784    0.7108 C   0  0  0  0  0  0  0  0  0  0  0  0
    6.6274    0.4710   -2.2548 H   0  0  0  0  0  0  0  0  0  0  0  0
    5.0763   -0.3478   -2.0273 H   0  0  0  0  0  0  0  0  0  0  0  0
    5.3484    0.6443   -3.4713 H   0  0  0  0  0  0  0  0  0  0  0  0
    3.9290    1.8912   -1.8326 H   0  0  0  0  0  0  0  0  0  0  0  0
    5.4810    2.7032   -2.0597 H   0  0  0  0  0  0  0  0  0  0  0  0
    7.0797    2.4157    2.2071 H   0  0  0  0  0  0  0  0  0  0  0  0
    5.0138    1.0824    4.0640 H   0  0  0  0  0  0  0  0  0  0  0  0
    2.8591   -0.0738    3.9934 H   0  0  0  0  0  0  0  0  0  0  0  0
    0.9761   -0.6874    0.8065 H   0  0  0  0  0  0  0  0  0  0  0  0
   -0.4437   -2.8340    2.1118 H   0  0  0  0  0  0  0  0  0  0  0  0
   -1.5086   -1.6446    2.9026 H   0  0  0  0  0  0  0  0  0  0  0  0
   -2.7624   -2.5067    0.9105 H   0  0  0  0  0  0  0  0  0  0  0  0
   -1.4518   -3.0565   -0.1356 H   0  0  0  0  0  0  0  0  0  0  0  0
   -3.4175   -2.3390   -1.4155 H   0  0  0  0  0  0  0  0  0  0  0  0
   -2.0103   -1.3469   -1.8236 H   0  0  0  0  0  0  0  0  0  0  0  0
   -4.3624   -0.9011   -3.1333 H   0  0  0  0  0  0  0  0  0  0  0  0
   -6.6952   -0.6270   -3.9021 H   0  0  0  0  0  0  0  0  0  0  0  0
   -8.3974    0.3021   -2.3217 H   0  0  0  0  0  0  0  0  0  0  0  0
   -7.6451    0.9094   -0.0181 H   0  0  0  0  0  0  0  0  0  0  0  0
   -3.7353   -0.3016    1.4160 H   0  0  0  0  0  0  0  0  0  0  0  0
   -3.4478    1.2908    0.6786 H   0  0  0  0  0  0  0  0  0  0  0  0
   -1.1203    0.7519    0.2232 H   0  0  0  0  0  0  0  0  0  0  0  0
   -1.4626    0.5821    1.9310 H   0  0  0  0  0  0  0  0  0  0  0  0
    2.7091    0.3623   -0.3112 H   0  0  0  0  0  0  0  0  0  0  0  0
  1  2  1  0
  2  3  1  0
  3  4  1  0
  4  5  2  0
  5  6  1  0
  6  7  2  0
  7  8  1  0
  8  9  2  0
  9 10  1  0
 10 11  1  0
 11 12  2  0
 11 13  1  0
 13 14  1  0
 14 15  1  0
 15 16  1  0
 16 17  1  0
 17 18  1  0
 18 19  2  0
 19 20  1  0
 20 21  2  0
 21 22  1  0
 22 23  2  0
 17 24  1  0
 24 25  1  0
  9 26  1  0
 26 27  2  0
 27  3  1  0
 27  6  1  0
 25 14  1  0
 23 18  1  0
  1 28  1  0
  1 29  1  0
  1 30  1  0
  2 31  1  0
  2 32  1  0
  5 33  1  0
  7 34  1  0
  8 35  1  0
 10 36  1  0
 13 37  1  0
 13 38  1  0
 15 39  1  0
 15 40  1  0
 16 41  1  0
 16 42  1  0
 19 43  1  0
 20 44  1  0
 21 45  1  0
 22 46  1  0
 24 47  1  0
 24 48  1  0
 25 49  1  0
 25 50  1  0
 26 51  1  0
M  END
$$$$
OCNT-2310816
     RDKit          3D

 39 41  0  0  0  0  0  0  0  0999 V2000
   -4.7622    2.1575    1.1647 C   0  0  0  0  0  0  0  0  0  0  0  0
   -4.0640    0.8381    1.0340 C   0  0  0  0  0  0  0  0  0  0  0  0
   -2.7005    0.7498    1.2283 C   0  0  0  0  0  0  0  0  0  0  0  0
   -2.1306   -0.4983    1.0930 C   0  0  0  0  0  0  0  0  0  0  0  0
   -0.7645   -0.7170    1.2702 N   0  0  0  0  0  0  0  0  0  0  0  0
    0.1230    0.0553    0.3946 C   0  0  0  0  0  0  0  0  0  0  0  0
    0.0238   -0.3727   -1.0702 C   0  0  0  0  0  0  0  0  0  0  0  0
    1.3449    0.1082   -1.6643 C   0  0  0  0  0  0  0  0  0  0  0  0
    2.2867   -0.0449   -0.5705 N   0  0  0  0  0  0  0  0  0  0  0  0
    3.6326    0.2113   -0.6331 C   0  0  0  0  0  0  0  0  0  0  0  0
    4.3339    0.1185    0.5258 N   0  0  0  0  0  0  0  0  0  0  0  0
    5.6676    0.3486    0.5051 C   0  0  0  0  0  0  0  0  0  0  0  0
    6.3770    0.6794   -0.6337 C   0  0  0  0  0  0  0  0  0  0  0  0
    5.6727    0.7790   -1.8231 C   0  0  0  0  0  0  0  0  0  0  0  0
    4.3001    0.5433   -1.8213 C   0  0  0  0  0  0  0  0  0  0  0  0
    3.6458    0.6532   -2.9889 F   0  0  0  0  0  0  0  0  0  0  0  0
    1.6130   -0.2032    0.7162 C   0  0  0  0  0  0  0  0  0  0  0  0
   -2.8551   -1.5884    0.8105 N   0  0  0  0  0  0  0  0  0  0  0  0
   -4.1793   -1.4162    0.6471 C   0  0  0  0  0  0  0  0  0  0  0  0
   -4.9954   -2.6209    0.2985 C   0  0  0  0  0  0  0  0  0  0  0  0
   -4.8174   -0.2354    0.7304 N   0  0  0  0  0  0  0  0  0  0  0  0
   -5.8350    2.0518    0.9734 H   0  0  0  0  0  0  0  0  0  0  0  0
   -4.3567    2.8734    0.4430 H   0  0  0  0  0  0  0  0  0  0  0  0
   -4.6342    2.5549    2.1764 H   0  0  0  0  0  0  0  0  0  0  0  0
   -2.1120    1.6166    1.4950 H   0  0  0  0  0  0  0  0  0  0  0  0
   -0.6462   -1.7220    1.1325 H   0  0  0  0  0  0  0  0  0  0  0  0
   -0.0623    1.1338    0.4842 H   0  0  0  0  0  0  0  0  0  0  0  0
   -0.0493   -1.4647   -1.1549 H   0  0  0  0  0  0  0  0  0  0  0  0
   -0.8397    0.0610   -1.5840 H   0  0  0  0  0  0  0  0  0  0  0  0
    1.2694    1.1606   -1.9615 H   0  0  0  0  0  0  0  0  0  0  0  0
    1.6089   -0.4993   -2.5359 H   0  0  0  0  0  0  0  0  0  0  0  0
    6.1640    0.2543    1.4671 H   0  0  0  0  0  0  0  0  0  0  0  0
    7.4460    0.8533   -0.5941 H   0  0  0  0  0  0  0  0  0  0  0  0
    6.1725    1.0353   -2.7508 H   0  0  0  0  0  0  0  0  0  0  0  0
    1.9538    0.5167    1.4698 H   0  0  0  0  0  0  0  0  0  0  0  0
    1.7748   -1.2174    1.1002 H   0  0  0  0  0  0  0  0  0  0  0  0
   -6.0183   -2.5149    0.6724 H   0  0  0  0  0  0  0  0  0  0  0  0
   -4.5608   -3.5219    0.7421 H   0  0  0  0  0  0  0  0  0  0  0  0
   -5.0274   -2.7424   -0.7880 H   0  0  0  0  0  0  0  0  0  0  0  0
  1  2  1  0
  2  3  1  0
  3  4  2  0
  4  5  1  0
  5  6  1  0
  6  7  1  0
  7  8  1  0
  8  9  1  0
  9 10  1  0
 10 11  1  0
 11 12  2  0
 12 13  1  0
 13 14  2  0
 14 15  1  0
 15 16  1  0
  9 17  1  0
  4 18  1  0
 18 19  2  0
 19 20  1  0
 19 21  1  0
 21  2  2  0
 17  6  1  0
 15 10  2  0
  1 22  1  0
  1 23  1  0
  1 24  1  0
  3 25  1  0
  5 26  1  0
  6 27  1  0
  7 28  1  0
  7 29  1  0
  8 30  1  0
  8 31  1  0
 12 32  1  0
 13 33  1  0
 14 34  1  0
 17 35  1  0
 17 36  1  0
 20 37  1  0
 20 38  1  0
 20 39  1  0
M  END
$$$$
OCNT-2310825
     RDKit          3D

 37 39  0  0  0  0  0  0  0  0999 V2000
   -3.8939   -1.6228    0.6294 C   0  0  0  0  0  0  0  0  0  0  0  0
   -2.8878   -0.6311    0.4331 O   0  0  0  0  0  0  0  0  0  0  0  0
   -3.3831    0.5802   -0.0162 C   0  0  0  0  0  0  0  0  0  0  0  0
   -4.7233    0.6779   -0.2163 N   0  0  0  0  0  0  0  0  0  0  0  0
   -5.2003    1.8574   -0.6677 C   0  0  0  0  0  0  0  0  0  0  0  0
   -4.4029    2.9540   -0.9342 C   0  0  0  0  0  0  0  0  0  0  0  0
   -3.0323    2.8340   -0.7228 C   0  0  0  0  0  0  0  0  0  0  0  0
   -2.4921    1.6286   -0.2506 C   0  0  0  0  0  0  0  0  0  0  0  0
   -1.0160    1.5689   -0.0459 C   0  0  0  0  0  0  0  0  0  0  0  0
   -0.3121    2.5055   -0.4131 O   0  0  0  0  0  0  0  0  0  0  0  0
   -0.4892    0.4485    0.5569 N   0  0  0  0  0  0  0  0  0  0  0  0
    0.9509    0.2458    0.6912 C   0  0  0  0  0  0  0  0  0  0  0  0
    1.2782   -0.7928    1.7655 C   0  0  0  0  0  0  0  0  0  0  0  0
    2.6827   -0.9268    1.9974 O   0  0  0  0  0  0  0  0  0  0  0  0
    3.4370   -1.0506    0.8616 C   0  0  0  0  0  0  0  0  0  0  0  0
    4.7434   -1.5048    1.0437 C   0  0  0  0  0  0  0  0  0  0  0  0
    5.5912   -1.6600   -0.0526 C   0  0  0  0  0  0  0  0  0  0  0  0
    5.1334   -1.3552   -1.3328 C   0  0  0  0  0  0  0  0  0  0  0  0
    3.8312   -0.8878   -1.5156 C   0  0  0  0  0  0  0  0  0  0  0  0
    2.9761   -0.7196   -0.4172 C   0  0  0  0  0  0  0  0  0  0  0  0
    1.5781   -0.2110   -0.6291 C   0  0  0  0  0  0  0  0  0  0  0  0
   -4.6105   -1.3147    1.3986 H   0  0  0  0  0  0  0  0  0  0  0  0
   -4.4001   -1.8663   -0.3111 H   0  0  0  0  0  0  0  0  0  0  0  0
   -3.3975   -2.5314    0.9837 H   0  0  0  0  0  0  0  0  0  0  0  0
   -6.2761    1.8980   -0.8152 H   0  0  0  0  0  0  0  0  0  0  0  0
   -4.8331    3.8810   -1.2975 H   0  0  0  0  0  0  0  0  0  0  0  0
   -2.3840    3.6848   -0.9253 H   0  0  0  0  0  0  0  0  0  0  0  0
   -1.1086   -0.3427    0.7082 H   0  0  0  0  0  0  0  0  0  0  0  0
    1.4064    1.2034    0.9783 H   0  0  0  0  0  0  0  0  0  0  0  0
    0.8232   -0.4954    2.7175 H   0  0  0  0  0  0  0  0  0  0  0  0
    0.8612   -1.7776    1.5155 H   0  0  0  0  0  0  0  0  0  0  0  0
    5.0991   -1.7420    2.0426 H   0  0  0  0  0  0  0  0  0  0  0  0
    6.6069   -2.0176    0.0930 H   0  0  0  0  0  0  0  0  0  0  0  0
    5.7923   -1.4760   -2.1888 H   0  0  0  0  0  0  0  0  0  0  0  0
    3.4882   -0.6456   -2.5192 H   0  0  0  0  0  0  0  0  0  0  0  0
    0.9804   -1.0181   -1.0727 H   0  0  0  0  0  0  0  0  0  0  0  0
    1.5831    0.6218   -1.3429 H   0  0  0  0  0  0  0  0  0  0  0  0
  1  2  1  0
  2  3  1  0
  3  4  1  0
  4  5  2  0
  5  6  1  0
  6  7  2  0
  7  8  1  0
  8  9  1  0
  9 10  2  0
  9 11  1  0
 11 12  1  0
 12 13  1  0
 13 14  1  0
 14 15  1  0
 15 16  2  0
 16 17  1  0
 17 18  2  0
 18 19  1  0
 19 20  2  0
 20 21  1  0
  8  3  2  0
 21 12  1  0
 20 15  1  0
  1 22  1  0
  1 23  1  0
  1 24  1  0
  5 25  1  0
  6 26  1  0
  7 27  1  0
 11 28  1  0
 12 29  1  0
 13 30  1  0
 13 31  1  0
 16 32  1  0
 17 33  1  0
 18 34  1  0
 19 35  1  0
 21 36  1  0
 21 37  1  0
M  END
$$$$
OCNT-2310827
     RDKit          3D

 44 47  0  0  0  0  0  0  0  0999 V2000
   -1.1415    1.0732   -2.6285 O   0  0  0  0  0  0  0  0  0  0  0  0
   -0.8263    0.5767   -1.5524 C   0  0  0  0  0  0  0  0  0  0  0  0
   -1.7330    0.0260   -0.6709 N   0  0  0  0  0  0  0  0  0  0  0  0
   -3.1401   -0.1207   -0.9966 C   0  0  0  0  0  0  0  0  0  0  0  0
   -3.3452   -1.3423   -1.8919 C   0  0  0  0  0  0  0  0  0  0  0  0
   -4.8298   -1.6318   -1.9860 C   0  0  0  0  0  0  0  0  0  0  0  0
   -5.3746   -1.9949   -0.7150 O   0  0  0  0  0  0  0  0  0  0  0  0
   -5.0517   -1.1414    0.3060 C   0  0  0  0  0  0  0  0  0  0  0  0
   -5.8368   -1.2516    1.4573 C   0  0  0  0  0  0  0  0  0  0  0  0
   -5.5987   -0.4178    2.5482 C   0  0  0  0  0  0  0  0  0  0  0  0
   -4.5763    0.5191    2.4778 C   0  0  0  0  0  0  0  0  0  0  0  0
   -4.3531    1.3311    3.5193 F   0  0  0  0  0  0  0  0  0  0  0  0
   -3.7792    0.6275    1.3424 C   0  0  0  0  0  0  0  0  0  0  0  0
   -3.9933   -0.2234    0.2450 C   0  0  0  0  0  0  0  0  0  0  0  0
    0.5968    0.5239   -1.1150 C   0  0  0  0  0  0  0  0  0  0  0  0
    1.6064    1.0557   -1.8902 C   0  0  0  0  0  0  0  0  0  0  0  0
    2.9154    0.9653   -1.4158 C   0  0  0  0  0  0  0  0  0  0  0  0
    3.1837    0.3591   -0.1909 C   0  0  0  0  0  0  0  0  0  0  0  0
    4.4673    0.2399    0.2934 N   0  0  0  0  0  0  0  0  0  0  0  0
    5.5448    1.1592   -0.0561 C   0  0  0  0  0  0  0  0  0  0  0  0
    6.4578    1.1557    1.1714 C   0  0  0  0  0  0  0  0  0  0  0  0
    6.1761   -0.1874    1.8260 C   0  0  0  0  0  0  0  0  0  0  0  0
    4.6751   -0.3520    1.6110 C   0  0  0  0  0  0  0  0  0  0  0  0
    2.1495   -0.1584    0.5160 N   0  0  0  0  0  0  0  0  0  0  0  0
    0.8478   -0.0760    0.0671 N   0  0  0  0  0  0  0  0  0  0  0  0
   -1.3587   -0.4616    0.1391 H   0  0  0  0  0  0  0  0  0  0  0  0
   -3.4598    0.7753   -1.5454 H   0  0  0  0  0  0  0  0  0  0  0  0
   -2.8305   -2.2130   -1.4635 H   0  0  0  0  0  0  0  0  0  0  0  0
   -2.9207   -1.1691   -2.8871 H   0  0  0  0  0  0  0  0  0  0  0  0
   -5.3889   -0.7787   -2.3903 H   0  0  0  0  0  0  0  0  0  0  0  0
   -4.9968   -2.4778   -2.6612 H   0  0  0  0  0  0  0  0  0  0  0  0
   -6.6406   -1.9822    1.4965 H   0  0  0  0  0  0  0  0  0  0  0  0
   -6.2056   -0.4885    3.4446 H   0  0  0  0  0  0  0  0  0  0  0  0
   -2.9923    1.3767    1.3254 H   0  0  0  0  0  0  0  0  0  0  0  0
    1.3900    1.5251   -2.8438 H   0  0  0  0  0  0  0  0  0  0  0  0
    3.7203    1.3603   -2.0262 H   0  0  0  0  0  0  0  0  0  0  0  0
    6.0784    0.7837   -0.9360 H   0  0  0  0  0  0  0  0  0  0  0  0
    5.1962    2.1784   -0.2573 H   0  0  0  0  0  0  0  0  0  0  0  0
    7.5110    1.2895    0.9091 H   0  0  0  0  0  0  0  0  0  0  0  0
    6.1709    1.9675    1.8510 H   0  0  0  0  0  0  0  0  0  0  0  0
    6.7238   -0.9811    1.3036 H   0  0  0  0  0  0  0  0  0  0  0  0
    6.4544   -0.2127    2.8830 H   0  0  0  0  0  0  0  0  0  0  0  0
    4.3856   -1.4076    1.6431 H   0  0  0  0  0  0  0  0  0  0  0  0
    4.1226    0.2011    2.3807 H   0  0  0  0  0  0  0  0  0  0  0  0
  1  2  2  0
  2  3  1  0
  3  4  1  0
  4  5  1  0
  5  6  1  0
  6  7  1  0
  7  8  1  0
  8  9  1  0
  9 10  2  0
 10 11  1  0
 11 12  1  0
 11 13  2  0
 13 14  1  0
  2 15  1  0
 15 16  2  0
 16 17  1  0
 17 18  2  0
 18 19  1  0
 19 20  1  0
 20 21  1  0
 21 22  1  0
 22 23  1  0
 18 24  1  0
 24 25  2  0
 14  4  1  0
 25 15  1  0
 14  8  2  0
 23 19  1  0
  3 26  1  0
  4 27  1  0
  5 28  1  0
  5 29  1  0
  6 30  1  0
  6 31  1  0
  9 32  1  0
 10 33  1  0
 13 34  1  0
 16 35  1  0
 17 36  1  0
 20 37  1  0
 20 38  1  0
 21 39  1  0
 21 40  1  0
 22 41  1  0
 22 42  1  0
 23 43  1  0
 23 44  1  0
M  END
$$$$
OCNT-2310828
     RDKit          3D

 38 40  0  0  0  0  0  0  0  0999 V2000
   -5.8879   -0.1861    1.6623 C   0  0  0  0  0  0  0  0  0  0  0  0
   -5.5279    0.0170    0.2244 C   0  0  0  0  0  0  0  0  0  0  0  0
   -6.4132   -0.1710   -0.8210 C   0  0  0  0  0  0  0  0  0  0  0  0
   -5.7184    0.1446   -2.3441 S   0  0  0  0  0  0  0  0  0  0  0  0
   -4.2204    0.5490   -1.6322 C   0  0  0  0  0  0  0  0  0  0  0  0
   -4.2177    0.4256   -0.2511 C   0  0  0  0  0  0  0  0  0  0  0  0
   -3.0531    0.7172    0.6075 C   0  0  0  0  0  0  0  0  0  0  0  0
   -3.2070    1.0908    1.7647 O   0  0  0  0  0  0  0  0  0  0  0  0
   -1.8329    0.4853   -0.0039 N   0  0  0  0  0  0  0  0  0  0  0  0
   -0.5458    0.7192    0.5233 C   0  0  0  0  0  0  0  0  0  0  0  0
   -0.3017    1.3495    1.7433 C   0  0  0  0  0  0  0  0  0  0  0  0
    1.0087    1.5660    2.1782 C   0  0  0  0  0  0  0  0  0  0  0  0
    2.0880    1.1450    1.4011 C   0  0  0  0  0  0  0  0  0  0  0  0
    1.8665    0.4913    0.1850 C   0  0  0  0  0  0  0  0  0  0  0  0
    2.9654    0.0357   -0.6648 C   0  0  0  0  0  0  0  0  0  0  0  0
    3.0206    0.1837   -1.9760 N   0  0  0  0  0  0  0  0  0  0  0  0
    4.1959   -0.3553   -2.4318 N   0  0  0  0  0  0  0  0  0  0  0  0
    4.8410   -0.8557   -1.4015 C   0  0  0  0  0  0  0  0  0  0  0  0
    6.1572   -1.5317   -1.4391 C   0  0  0  0  0  0  0  0  0  0  0  0
    4.0864   -0.6611   -0.2705 N   0  0  0  0  0  0  0  0  0  0  0  0
    4.3855   -1.1597    1.0474 C   0  0  0  0  0  0  0  0  0  0  0  0
    0.5452    0.3018   -0.2510 C   0  0  0  0  0  0  0  0  0  0  0  0
   -6.8803   -0.6382    1.7629 H   0  0  0  0  0  0  0  0  0  0  0  0
   -5.1688   -0.8519    2.1500 H   0  0  0  0  0  0  0  0  0  0  0  0
   -5.8998    0.7723    2.1909 H   0  0  0  0  0  0  0  0  0  0  0  0
   -7.4488   -0.4783   -0.7595 H   0  0  0  0  0  0  0  0  0  0  0  0
   -3.4176    0.8783   -2.2777 H   0  0  0  0  0  0  0  0  0  0  0  0
   -1.8589    0.0404   -0.9111 H   0  0  0  0  0  0  0  0  0  0  0  0
   -1.1093    1.7061    2.3754 H   0  0  0  0  0  0  0  0  0  0  0  0
    1.1828    2.0791    3.1213 H   0  0  0  0  0  0  0  0  0  0  0  0
    3.0958    1.3589    1.7462 H   0  0  0  0  0  0  0  0  0  0  0  0
    6.0466   -2.6022   -1.2412 H   0  0  0  0  0  0  0  0  0  0  0  0
    6.6190   -1.4163   -2.4247 H   0  0  0  0  0  0  0  0  0  0  0  0
    6.8384   -1.1042   -0.6970 H   0  0  0  0  0  0  0  0  0  0  0  0
    3.4587   -1.4434    1.5518 H   0  0  0  0  0  0  0  0  0  0  0  0
    5.0209   -2.0454    0.9722 H   0  0  0  0  0  0  0  0  0  0  0  0
    4.9046   -0.3747    1.6022 H   0  0  0  0  0  0  0  0  0  0  0  0
    0.3821   -0.1818   -1.2132 H   0  0  0  0  0  0  0  0  0  0  0  0
  1  2  1  0
  2  3  2  0
  3  4  1  0
  4  5  1  0
  5  6  2  0
  6  7  1  0
  7  8  2  0
  7  9  1  0
  9 10  1  0
 10 11  2  0
 11 12  1  0
 12 13  2  0
 13 14  1  0
 14 15  1  0
 15 16  2  0
 16 17  1  0
 17 18  2  0
 18 19  1  0
 18 20  1  0
 20 21  1  0
 14 22  2  0
  6  2  1  0
 22 10  1  0
 20 15  1  0
  1 23  1  0
  1 24  1  0
  1 25  1  0
  3 26  1  0
  5 27  1  0
  9 28  1  0
 11 29  1  0
 12 30  1  0
 13 31  1  0
 19 32  1  0
 19 33  1  0
 19 34  1  0
 21 35  1  0
 21 36  1  0
 21 37  1  0
 22 38  1  0
M  END
$$$$
OCNT-2310831
     RDKit          3D

 50 52  0  0  0  0  0  0  0  0999 V2000
    8.6232   -1.1251    0.8230 C   0  0  0  0  0  0  0  0  0  0  0  0
    7.1526   -0.8591    0.8362 C   0  0  0  0  0  0  0  0  0  0  0  0
    6.2487   -1.7771    1.3644 C   0  0  0  0  0  0  0  0  0  0  0  0
    4.8820   -1.4999    1.3236 C   0  0  0  0  0  0  0  0  0  0  0  0
    4.4452   -0.3113    0.7446 C   0  0  0  0  0  0  0  0  0  0  0  0
    3.0629   -0.0779    0.7247 N   0  0  0  0  0  0  0  0  0  0  0  0
    2.4429    1.0485    0.2122 C   0  0  0  0  0  0  0  0  0  0  0  0
    2.9900    2.0332   -0.2707 O   0  0  0  0  0  0  0  0  0  0  0  0
    0.9181    0.9660    0.3292 C   0  0  0  0  0  0  0  0  0  0  0  0
    0.3559   -0.1533   -0.5567 C   0  0  0  0  0  0  0  0  0  0  0  0
   -1.1692   -0.2014   -0.4757 C   0  0  0  0  0  0  0  0  0  0  0  0
   -1.7256    1.1083   -0.8399 N   0  0  0  0  0  0  0  0  0  0  0  0
   -3.1373    1.0836   -0.9403 C   0  0  0  0  0  0  0  0  0  0  0  0
   -3.7852    2.1187   -1.5899 C   0  0  0  0  0  0  0  0  0  0  0  0
   -5.1552    2.0457   -1.6717 C   0  0  0  0  0  0  0  0  0  0  0  0
   -5.8747    1.0353   -1.1601 N   0  0  0  0  0  0  0  0  0  0  0  0
   -5.1727    0.0597   -0.5585 C   0  0  0  0  0  0  0  0  0  0  0  0
   -5.9517   -1.1018    0.0163 C   0  0  0  0  0  0  0  0  0  0  0  0
   -5.5585   -2.4118   -0.6654 C   0  0  0  0  0  0  0  0  0  0  0  0
   -5.7596   -1.1896    1.5299 C   0  0  0  0  0  0  0  0  0  0  0  0
   -3.8303    0.0473   -0.4332 N   0  0  0  0  0  0  0  0  0  0  0  0
   -1.2601    2.2121    0.0150 C   0  0  0  0  0  0  0  0  0  0  0  0
    0.2621    2.3014   -0.0480 C   0  0  0  0  0  0  0  0  0  0  0  0
    5.3039    0.5748    0.2178 N   0  0  0  0  0  0  0  0  0  0  0  0
    6.6242    0.2904    0.2663 C   0  0  0  0  0  0  0  0  0  0  0  0
    9.1903   -0.1901    0.8809 H   0  0  0  0  0  0  0  0  0  0  0  0
    8.9017   -1.6508   -0.0955 H   0  0  0  0  0  0  0  0  0  0  0  0
    8.9172   -1.7368    1.6825 H   0  0  0  0  0  0  0  0  0  0  0  0
    6.5976   -2.7061    1.8077 H   0  0  0  0  0  0  0  0  0  0  0  0
    4.1828   -2.2159    1.7406 H   0  0  0  0  0  0  0  0  0  0  0  0
    2.4838   -0.7899    1.1405 H   0  0  0  0  0  0  0  0  0  0  0  0
    0.6823    0.7516    1.3808 H   0  0  0  0  0  0  0  0  0  0  0  0
    0.7590   -1.1284   -0.2604 H   0  0  0  0  0  0  0  0  0  0  0  0
    0.6668    0.0090   -1.5974 H   0  0  0  0  0  0  0  0  0  0  0  0
   -1.4695   -0.4895    0.5410 H   0  0  0  0  0  0  0  0  0  0  0  0
   -1.5209   -0.9762   -1.1692 H   0  0  0  0  0  0  0  0  0  0  0  0
   -3.2427    2.9394   -2.0384 H   0  0  0  0  0  0  0  0  0  0  0  0
   -5.7282    2.8203   -2.1719 H   0  0  0  0  0  0  0  0  0  0  0  0
   -7.0185   -0.9300   -0.1771 H   0  0  0  0  0  0  0  0  0  0  0  0
   -4.5057   -2.6608   -0.4900 H   0  0  0  0  0  0  0  0  0  0  0  0
   -5.7089   -2.3496   -1.7490 H   0  0  0  0  0  0  0  0  0  0  0  0
   -6.1664   -3.2412   -0.2888 H   0  0  0  0  0  0  0  0  0  0  0  0
   -4.7151   -1.3881    1.7958 H   0  0  0  0  0  0  0  0  0  0  0  0
   -6.0541   -0.2532    2.0169 H   0  0  0  0  0  0  0  0  0  0  0  0
   -6.3715   -1.9944    1.9512 H   0  0  0  0  0  0  0  0  0  0  0  0
   -1.5826    2.0534    1.0527 H   0  0  0  0  0  0  0  0  0  0  0  0
   -1.6653    3.1765   -0.3131 H   0  0  0  0  0  0  0  0  0  0  0  0
    0.6106    3.0953    0.6236 H   0  0  0  0  0  0  0  0  0  0  0  0
    0.5634    2.5928   -1.0632 H   0  0  0  0  0  0  0  0  0  0  0  0
    7.2623    1.0457   -0.1853 H   0  0  0  0  0  0  0  0  0  0  0  0
  1  2  1  0
  2  3  2  0
  3  4  1  0
  4  5  2  0
  5  6  1  0
  6  7  1  0
  7  8  2  0
  7  9  1  0
  9 10  1  0
 10 11  1  0
 11 12  1  0
 12 13  1  0
 13 14  1  0
 14 15  2  0
 15 16  1  0
 16 17  2  0
 17 18  1  0
 18 19  1  0
 18 20  1  0
 17 21  1  0
 12 22  1  0
 22 23  1  0
  5 24  1  0
 24 25  2  0
 25  2  1  0
 23  9  1  0
 21 13  2  0
  1 26  1  0
  1 27  1  0
  1 28  1  0
  3 29  1  0
  4 30  1  0
  6 31  1  0
  9 32  1  0
 10 33  1  0
 10 34  1  0
 11 35  1  0
 11 36  1  0
 14 37  1  0
 15 38  1  0
 18 39  1  0
 19 40  1  0
 19 41  1  0
 19 42  1  0
 20 43  1  0
 20 44  1  0
 20 45  1  0
 22 46  1  0
 22 47  1  0
 23 48  1  0
 23 49  1  0
 25 50  1  0
M  END
$$$$
OCNT-2310835
     RDKit          3D

 40 41  0  0  0  0  0  0  0  0999 V2000
   -3.6632    2.6940    0.6884 C   0  0  0  0  0  0  0  0  0  0  0  0
   -2.4053    1.8737    0.4111 C   0  0  0  0  0  0  0  0  0  0  0  0
   -1.3001    2.2420    1.4038 C   0  0  0  0  0  0  0  0  0  0  0  0
   -2.7229    0.3713    0.4582 C   0  0  0  0  0  0  0  0  0  0  0  0
   -1.5520   -0.3531    0.0782 O   0  0  0  0  0  0  0  0  0  0  0  0
   -1.6243   -1.7274    0.0931 C   0  0  0  0  0  0  0  0  0  0  0  0
   -2.7727   -2.4668    0.3890 C   0  0  0  0  0  0  0  0  0  0  0  0
   -2.7290   -3.8621    0.3715 C   0  0  0  0  0  0  0  0  0  0  0  0
   -1.5426   -4.5210    0.0586 C   0  0  0  0  0  0  0  0  0  0  0  0
   -0.3904   -3.7908   -0.2400 C   0  0  0  0  0  0  0  0  0  0  0  0
   -0.4213   -2.3955   -0.2259 C   0  0  0  0  0  0  0  0  0  0  0  0
    0.6945   -1.5816   -0.5136 N   0  0  0  0  0  0  0  0  0  0  0  0
    1.9817   -1.9465   -0.8513 C   0  0  0  0  0  0  0  0  0  0  0  0
    2.3675   -3.1071   -0.9591 O   0  0  0  0  0  0  0  0  0  0  0  0
    2.8925   -0.8224   -1.0814 C   0  0  0  0  0  0  0  0  0  0  0  0
    4.2273   -0.9052   -1.4332 C   0  0  0  0  0  0  0  0  0  0  0  0
    4.8358    0.3735   -1.5810 C   0  0  0  0  0  0  0  0  0  0  0  0
    3.9559    1.4112   -1.3394 C   0  0  0  0  0  0  0  0  0  0  0  0
    4.2560    2.8322   -1.4038 C   0  0  0  0  0  0  0  0  0  0  0  0
    3.2354    3.6972   -1.1216 N   0  0  0  0  0  0  0  0  0  0  0  0
    5.3592    3.2886   -1.6927 O   0  0  0  0  0  0  0  0  0  0  0  0
    2.4016    0.8147   -0.9373 S   0  0  0  0  0  0  0  0  0  0  0  0
   -4.0628    2.4848    1.6866 H   0  0  0  0  0  0  0  0  0  0  0  0
   -4.4448    2.4667   -0.0442 H   0  0  0  0  0  0  0  0  0  0  0  0
   -3.4500    3.7664    0.6267 H   0  0  0  0  0  0  0  0  0  0  0  0
   -2.0387    2.1205   -0.5936 H   0  0  0  0  0  0  0  0  0  0  0  0
   -1.0810    3.3142    1.3590 H   0  0  0  0  0  0  0  0  0  0  0  0
   -1.5929    1.9993    2.4309 H   0  0  0  0  0  0  0  0  0  0  0  0
   -0.3718    1.7062    1.1808 H   0  0  0  0  0  0  0  0  0  0  0  0
   -3.0295    0.0899    1.4735 H   0  0  0  0  0  0  0  0  0  0  0  0
   -3.5335    0.1530   -0.2477 H   0  0  0  0  0  0  0  0  0  0  0  0
   -3.7164   -1.9921    0.6342 H   0  0  0  0  0  0  0  0  0  0  0  0
   -3.6227   -4.4371    0.6015 H   0  0  0  0  0  0  0  0  0  0  0  0
   -1.5097   -5.6079    0.0450 H   0  0  0  0  0  0  0  0  0  0  0  0
    0.5139   -4.3409   -0.4793 H   0  0  0  0  0  0  0  0  0  0  0  0
    0.4992   -0.5872   -0.4579 H   0  0  0  0  0  0  0  0  0  0  0  0
    4.7402   -1.8503   -1.5770 H   0  0  0  0  0  0  0  0  0  0  0  0
    5.8741    0.5327   -1.8522 H   0  0  0  0  0  0  0  0  0  0  0  0
    2.3112    3.3757   -0.8751 H   0  0  0  0  0  0  0  0  0  0  0  0
    3.4318    4.6872   -1.1606 H   0  0  0  0  0  0  0  0  0  0  0  0
  1  2  1  0
  2  3  1  0
  2  4  1  0
  4  5  1  0
  5  6  1  0
  6  7  2  0
  7  8  1  0
  8  9  2  0
  9 10  1  0
 10 11  2  0
 11 12  1  0
 12 13  1  0
 13 14  2  0
 13 15  1  0
 15 16  2  0
 16 17  1  0
 17 18  2  0
 18 19  1  0
 19 20  1  0
 19 21  2  0
 18 22  1  0
 11  6  1  0
 22 15  1  0
  1 23  1  0
  1 24  1  0
  1 25  1  0
  2 26  1  0
  3 27  1  0
  3 28  1  0
  3 29  1  0
  4 30  1  0
  4 31  1  0
  7 32  1  0
  8 33  1  0
  9 34  1  0
 10 35  1  0
 12 36  1  0
 16 37  1  0
 17 38  1  0
 20 39  1  0
 20 40  1  0
M  END
$$$$
OCNT-2310840
     RDKit          3D

 37 40  0  0  0  0  0  0  0  0999 V2000
   -5.2162    1.9359   -2.5903 O   0  0  0  0  0  0  0  0  0  0  0  0
   -5.3366    0.7270   -1.8034 S   0  0  0  0  0  0  0  0  0  0  0  0
   -6.4087   -0.2256   -2.0056 O   0  0  0  0  0  0  0  0  0  0  0  0
   -5.2862    1.1651   -0.0737 C   0  0  0  0  0  0  0  0  0  0  0  0
   -4.2141    0.2673    0.5273 C   0  0  0  0  0  0  0  0  0  0  0  0
   -3.1018    0.1893   -0.5283 C   0  0  0  0  0  0  0  0  0  0  0  0
   -2.0085   -0.7677   -0.1733 C   0  0  0  0  0  0  0  0  0  0  0  0
   -2.1189   -2.1096    0.1319 C   0  0  0  0  0  0  0  0  0  0  0  0
   -0.5761   -2.7672    0.4639 S   0  0  0  0  0  0  0  0  0  0  0  0
    0.1502   -1.2283    0.1818 C   0  0  0  0  0  0  0  0  0  0  0  0
    1.6081   -1.0077    0.2925 C   0  0  0  0  0  0  0  0  0  0  0  0
    2.5180   -2.0054    0.6865 C   0  0  0  0  0  0  0  0  0  0  0  0
    3.8908   -1.7408    0.7678 C   0  0  0  0  0  0  0  0  0  0  0  0
    4.3758   -0.4758    0.4546 C   0  0  0  0  0  0  0  0  0  0  0  0
    5.7322   -0.2960    0.5348 O   0  0  0  0  0  0  0  0  0  0  0  0
    6.1377    0.9086   -0.1261 C   0  0  0  0  0  0  0  0  0  0  0  0
    5.2230    2.0621    0.2518 C   0  0  0  0  0  0  0  0  0  0  0  0
    3.8866    1.8165   -0.2009 O   0  0  0  0  0  0  0  0  0  0  0  0
    3.4877    0.5365    0.0891 C   0  0  0  0  0  0  0  0  0  0  0  0
    2.1213    0.2684   -0.0047 C   0  0  0  0  0  0  0  0  0  0  0  0
   -0.7133   -0.2822   -0.1432 N   0  0  0  0  0  0  0  0  0  0  0  0
   -3.7866   -0.1528   -1.8504 C   0  0  0  0  0  0  0  0  0  0  0  0
   -6.2679    1.0086    0.3779 H   0  0  0  0  0  0  0  0  0  0  0  0
   -5.0033    2.2193   -0.0017 H   0  0  0  0  0  0  0  0  0  0  0  0
   -3.8508    0.6651    1.4808 H   0  0  0  0  0  0  0  0  0  0  0  0
   -4.6341   -0.7271    0.7247 H   0  0  0  0  0  0  0  0  0  0  0  0
   -2.6629    1.1935   -0.6219 H   0  0  0  0  0  0  0  0  0  0  0  0
   -3.0063   -2.7251    0.1754 H   0  0  0  0  0  0  0  0  0  0  0  0
    2.1846   -3.0095    0.9360 H   0  0  0  0  0  0  0  0  0  0  0  0
    4.5796   -2.5270    1.0657 H   0  0  0  0  0  0  0  0  0  0  0  0
    6.1335    0.7306   -1.2086 H   0  0  0  0  0  0  0  0  0  0  0  0
    7.1659    1.1248    0.1802 H   0  0  0  0  0  0  0  0  0  0  0  0
    5.2003    2.2176    1.3375 H   0  0  0  0  0  0  0  0  0  0  0  0
    5.5676    2.9883   -0.2186 H   0  0  0  0  0  0  0  0  0  0  0  0
    1.4492    1.0707   -0.3049 H   0  0  0  0  0  0  0  0  0  0  0  0
   -3.2063    0.1723   -2.7177 H   0  0  0  0  0  0  0  0  0  0  0  0
   -4.0135   -1.2197   -1.9422 H   0  0  0  0  0  0  0  0  0  0  0  0
  1  2  2  0
  2  3  2  0
  2  4  1  0
  4  5  1  0
  5  6  1  0
  6  7  1  0
  7  8  2  0
  8  9  1  0
  9 10  1  0
 10 11  1  0
 11 12  1  0
 12 13  2  0
 13 14  1  0
 14 15  1  0
 15 16  1  0
 16 17  1  0
 17 18  1  0
 18 19  1  0
 19 20  1  0
 10 21  2  0
  6 22  1  0
 22  2  1  0
 21  7  1  0
 20 11  2  0
 19 14  2  0
  4 23  1  0
  4 24  1  0
  5 25  1  0
  5 26  1  0
  6 27  1  0
  8 28  1  0
 12 29  1  0
 13 30  1  0
 16 31  1  0
 16 32  1  0
 17 33  1  0
 17 34  1  0
 20 35  1  0
 22 36  1  0
 22 37  1  0
M  END
$$$$
OCNT-2310853
     RDKit          3D

 43 45  0  0  0  0  0  0  0  0999 V2000
    2.5466    0.7636   -2.8479 C   0  0  0  0  0  0  0  0  0  0  0  0
    1.9641    0.7171   -1.4630 C   0  0  0  0  0  0  0  0  0  0  0  0
    0.6367    0.2879   -1.2810 C   0  0  0  0  0  0  0  0  0  0  0  0
    0.0523    0.2715   -0.0061 C   0  0  0  0  0  0  0  0  0  0  0  0
   -1.2767   -0.1182    0.2485 N   0  0  0  0  0  0  0  0  0  0  0  0
   -2.1874   -0.6811   -0.6380 C   0  0  0  0  0  0  0  0  0  0  0  0
   -1.9568   -1.0012   -1.8022 O   0  0  0  0  0  0  0  0  0  0  0  0
   -3.5139   -1.0291    0.0111 C   0  0  0  0  0  0  0  0  0  0  0  0
   -4.6192   -1.3278   -1.0136 C   0  0  0  0  0  0  0  0  0  0  0  0
   -5.8896   -1.0199   -0.2430 C   0  0  0  0  0  0  0  0  0  0  0  0
   -5.4959    0.0997    0.5777 N   0  0  0  0  0  0  0  0  0  0  0  0
   -6.4482    0.8432    1.3676 C   0  0  0  0  0  0  0  0  0  0  0  0
   -4.1355    0.0769    0.8457 C   0  0  0  0  0  0  0  0  0  0  0  0
   -3.5365    0.7812    1.6463 O   0  0  0  0  0  0  0  0  0  0  0  0
    0.8105    0.6794    1.1039 C   0  0  0  0  0  0  0  0  0  0  0  0
    2.1441    1.0562    0.9471 C   0  0  0  0  0  0  0  0  0  0  0  0
    2.7229    1.0491   -0.3299 C   0  0  0  0  0  0  0  0  0  0  0  0
    4.0331    1.4475   -0.4701 O   0  0  0  0  0  0  0  0  0  0  0  0
    4.9769    0.5527   -0.0035 C   0  0  0  0  0  0  0  0  0  0  0  0
    5.0472   -0.7612   -0.4634 C   0  0  0  0  0  0  0  0  0  0  0  0
    6.0692   -1.5628    0.0163 C   0  0  0  0  0  0  0  0  0  0  0  0
    7.0033   -1.1410    0.9016 N   0  0  0  0  0  0  0  0  0  0  0  0
    6.9079    0.1434    1.3196 C   0  0  0  0  0  0  0  0  0  0  0  0
    5.9221    1.0250    0.9010 C   0  0  0  0  0  0  0  0  0  0  0  0
    1.7593    0.9175   -3.6043 H   0  0  0  0  0  0  0  0  0  0  0  0
    3.0665   -0.1779   -3.0735 H   0  0  0  0  0  0  0  0  0  0  0  0
    3.2487    1.5997   -2.9484 H   0  0  0  0  0  0  0  0  0  0  0  0
    0.0646   -0.0013   -2.1618 H   0  0  0  0  0  0  0  0  0  0  0  0
   -1.6320    0.1168    1.1762 H   0  0  0  0  0  0  0  0  0  0  0  0
   -3.3618   -1.8984    0.6673 H   0  0  0  0  0  0  0  0  0  0  0  0
   -4.5878   -2.3564   -1.4054 H   0  0  0  0  0  0  0  0  0  0  0  0
   -4.5462   -0.6359   -1.8777 H   0  0  0  0  0  0  0  0  0  0  0  0
   -6.1809   -1.8478    0.4148 H   0  0  0  0  0  0  0  0  0  0  0  0
   -6.7243   -0.7478   -0.9056 H   0  0  0  0  0  0  0  0  0  0  0  0
   -7.2668    1.1774    0.7221 H   0  0  0  0  0  0  0  0  0  0  0  0
   -6.8342    0.1938    2.1598 H   0  0  0  0  0  0  0  0  0  0  0  0
   -5.9654    1.7151    1.8215 H   0  0  0  0  0  0  0  0  0  0  0  0
    0.3798    0.6841    2.1043 H   0  0  0  0  0  0  0  0  0  0  0  0
    2.7260    1.3565    1.8183 H   0  0  0  0  0  0  0  0  0  0  0  0
    4.3402   -1.1529   -1.1865 H   0  0  0  0  0  0  0  0  0  0  0  0
    6.1724   -2.5949   -0.3119 H   0  0  0  0  0  0  0  0  0  0  0  0
    7.6702    0.4523    2.0318 H   0  0  0  0  0  0  0  0  0  0  0  0
    5.8942    2.0478    1.2616 H   0  0  0  0  0  0  0  0  0  0  0  0
  1  2  1  0
  2  3  1  0
  3  4  2  0
  4  5  1  0
  5  6  1  0
  6  7  2  0
  6  8  1  0
  8  9  1  0
  9 10  1  0
 10 11  1  0
 11 12  1  0
 11 13  1  0
 13 14  2  0
  4 15  1  0
 15 16  2  0
 16 17  1  0
 17 18  1  0
 18 19  1  0
 19 20  2  0
 20 21  1  0
 21 22  2  0
 22 23  1  0
 23 24  2  0
 17  2  2  0
 24 19  1  0
 13  8  1  0
  1 25  1  0
  1 26  1  0
  1 27  1  0
  3 28  1  0
  5 29  1  0
  8 30  1  0
  9 31  1  0
  9 32  1  0
 10 33  1  0
 10 34  1  0
 12 35  1  0
 12 36  1  0
 12 37  1  0
 15 38  1  0
 16 39  1  0
 20 40  1  0
 21 41  1  0
 23 42  1  0
 24 43  1  0
M  END
$$$$
OCNT-2310878
     RDKit          3D

 39 40  0  0  0  0  0  0  0  0999 V2000
   -6.0499   -0.3918   -1.2098 C   0  0  0  0  0  0  0  0  0  0  0  0
   -5.4840    0.3149    0.0088 C   0  0  0  0  0  0  0  0  0  0  0  0
   -4.0650    0.1997   -0.0369 O   0  0  0  0  0  0  0  0  0  0  0  0
   -3.3293    0.7632    0.9632 C   0  0  0  0  0  0  0  0  0  0  0  0
   -3.8780    1.4561    2.0463 C   0  0  0  0  0  0  0  0  0  0  0  0
   -3.0495    2.0024    3.0273 C   0  0  0  0  0  0  0  0  0  0  0  0
   -1.6821    1.8438    2.9046 C   0  0  0  0  0  0  0  0  0  0  0  0
   -1.1005    1.1865    1.8833 N   0  0  0  0  0  0  0  0  0  0  0  0
   -1.9334    0.6549    0.9260 C   0  0  0  0  0  0  0  0  0  0  0  0
   -1.1898   -0.0654   -0.1827 C   0  0  0  0  0  0  0  0  0  0  0  0
   -1.7623   -0.6026   -1.1213 O   0  0  0  0  0  0  0  0  0  0  0  0
    0.1842   -0.0311    0.0101 N   0  0  0  0  0  0  0  0  0  0  0  0
    1.2008   -0.5795   -0.7905 C   0  0  0  0  0  0  0  0  0  0  0  0
    0.9618   -1.2824   -1.9711 C   0  0  0  0  0  0  0  0  0  0  0  0
    2.0273   -1.7976   -2.7119 C   0  0  0  0  0  0  0  0  0  0  0  0
    3.3370   -1.6098   -2.2716 C   0  0  0  0  0  0  0  0  0  0  0  0
    4.6223   -2.2694   -3.2272 Cl  0  0  0  0  0  0  0  0  0  0  0  0
    3.6045   -0.9043   -1.0850 C   0  0  0  0  0  0  0  0  0  0  0  0
    4.9556   -0.7465   -0.6880 N   0  0  0  0  0  0  0  0  0  0  0  0
    5.4478   -0.0895    0.4217 C   0  0  0  0  0  0  0  0  0  0  0  0
    6.9538   -0.1360    0.4949 C   0  0  0  0  0  0  0  0  0  0  0  0
    4.7969    0.5059    1.2728 O   0  0  0  0  0  0  0  0  0  0  0  0
    2.5239   -0.3957   -0.3553 C   0  0  0  0  0  0  0  0  0  0  0  0
   -7.1418   -0.3326   -1.2230 H   0  0  0  0  0  0  0  0  0  0  0  0
   -5.6601    0.0553   -2.1303 H   0  0  0  0  0  0  0  0  0  0  0  0
   -5.7525   -1.4458   -1.2168 H   0  0  0  0  0  0  0  0  0  0  0  0
   -5.8757   -0.1634    0.9138 H   0  0  0  0  0  0  0  0  0  0  0  0
   -5.7812    1.3695   -0.0192 H   0  0  0  0  0  0  0  0  0  0  0  0
   -4.9492    1.5895    2.1575 H   0  0  0  0  0  0  0  0  0  0  0  0
   -3.4681    2.5417    3.8709 H   0  0  0  0  0  0  0  0  0  0  0  0
   -1.0012    2.2535    3.6461 H   0  0  0  0  0  0  0  0  0  0  0  0
    0.4631    0.4667    0.8552 H   0  0  0  0  0  0  0  0  0  0  0  0
   -0.0454   -1.4464   -2.3423 H   0  0  0  0  0  0  0  0  0  0  0  0
    1.8226   -2.3429   -3.6295 H   0  0  0  0  0  0  0  0  0  0  0  0
    5.6306   -1.1702   -1.3174 H   0  0  0  0  0  0  0  0  0  0  0  0
    7.3389   -1.0808    0.1006 H   0  0  0  0  0  0  0  0  0  0  0  0
    7.2682   -0.0527    1.5392 H   0  0  0  0  0  0  0  0  0  0  0  0
    7.3689    0.6970   -0.0784 H   0  0  0  0  0  0  0  0  0  0  0  0
    2.6911    0.1526    0.5661 H   0  0  0  0  0  0  0  0  0  0  0  0
  1  2  1  0
  2  3  1  0
  3  4  1  0
  4  5  1  0
  5  6  2  0
  6  7  1  0
  7  8  2  0
  8  9  1  0
  9 10  1  0
 10 11  2  0
 10 12  1  0
 12 13  1  0
 13 14  1  0
 14 15  2  0
 15 16  1  0
 16 17  1  0
 16 18  2  0
 18 19  1  0
 19 20  1  0
 20 21  1  0
 20 22  2  0
 18 23  1  0
  9  4  2  0
 23 13  2  0
  1 24  1  0
  1 25  1  0
  1 26  1  0
  2 27  1  0
  2 28  1  0
  5 29  1  0
  6 30  1  0
  7 31  1  0
 12 32  1  0
 14 33  1  0
 15 34  1  0
 19 35  1  0
 21 36  1  0
 21 37  1  0
 21 38  1  0
 23 39  1  0
M  END
$$$$
OCNT-2310880
     RDKit          3D

 42 44  0  0  0  0  0  0  0  0999 V2000
    6.6786    2.1858    0.6554 C   0  0  0  0  0  0  0  0  0  0  0  0
    5.7014    1.1522    0.4220 N   0  0  0  0  0  0  0  0  0  0  0  0
    4.4056    1.3056    0.8750 C   0  0  0  0  0  0  0  0  0  0  0  0
    4.0309    2.2534    1.5534 O   0  0  0  0  0  0  0  0  0  0  0  0
    3.4447    0.2482    0.4605 C   0  0  0  0  0  0  0  0  0  0  0  0
    3.8486   -1.0855    0.3321 C   0  0  0  0  0  0  0  0  0  0  0  0
    2.9264   -2.0640   -0.0476 C   0  0  0  0  0  0  0  0  0  0  0  0
    1.5967   -1.7136   -0.2976 C   0  0  0  0  0  0  0  0  0  0  0  0
    0.6115   -2.5949   -0.6802 O   0  0  0  0  0  0  0  0  0  0  0  0
    0.9658   -3.9697   -0.7670 C   0  0  0  0  0  0  0  0  0  0  0  0
    1.1853   -0.3682   -0.1619 C   0  0  0  0  0  0  0  0  0  0  0  0
   -0.1711   -0.0911   -0.4332 N   0  0  0  0  0  0  0  0  0  0  0  0
   -0.8418    1.1140   -0.3731 C   0  0  0  0  0  0  0  0  0  0  0  0
   -0.3513    2.2046   -0.0964 O   0  0  0  0  0  0  0  0  0  0  0  0
   -2.3136    0.9824   -0.7850 C   0  0  0  0  0  0  0  0  0  0  0  0
   -3.1972    1.9903   -0.0378 C   0  0  0  0  0  0  0  0  0  0  0  0
   -4.4134    1.1624    0.1299 C   0  0  0  0  0  0  0  0  0  0  0  0
   -5.6763    1.5280    0.5632 C   0  0  0  0  0  0  0  0  0  0  0  0
   -6.6405    0.5246    0.6866 C   0  0  0  0  0  0  0  0  0  0  0  0
   -8.2268    0.9330    1.2171 Cl  0  0  0  0  0  0  0  0  0  0  0  0
   -6.3347   -0.8141    0.3917 C   0  0  0  0  0  0  0  0  0  0  0  0
   -5.0512   -1.1656   -0.0352 C   0  0  0  0  0  0  0  0  0  0  0  0
   -4.1158   -0.1590   -0.1624 C   0  0  0  0  0  0  0  0  0  0  0  0
   -2.8216   -0.3573   -0.5615 O   0  0  0  0  0  0  0  0  0  0  0  0
    2.1107    0.6038    0.2252 C   0  0  0  0  0  0  0  0  0  0  0  0
    6.6123    2.5445    1.6861 H   0  0  0  0  0  0  0  0  0  0  0  0
    6.4846    3.0137   -0.0317 H   0  0  0  0  0  0  0  0  0  0  0  0
    7.6724    1.7731    0.4673 H   0  0  0  0  0  0  0  0  0  0  0  0
    5.8709    0.5077   -0.3381 H   0  0  0  0  0  0  0  0  0  0  0  0
    4.8711   -1.3804    0.5541 H   0  0  0  0  0  0  0  0  0  0  0  0
    3.2764   -3.0875   -0.1312 H   0  0  0  0  0  0  0  0  0  0  0  0
    0.0691   -4.5276   -1.0534 H   0  0  0  0  0  0  0  0  0  0  0  0
    1.7211   -4.1333   -1.5424 H   0  0  0  0  0  0  0  0  0  0  0  0
    1.3011   -4.3536    0.2021 H   0  0  0  0  0  0  0  0  0  0  0  0
   -0.7332   -0.9108   -0.6598 H   0  0  0  0  0  0  0  0  0  0  0  0
   -2.3585    1.1652   -1.8679 H   0  0  0  0  0  0  0  0  0  0  0  0
   -2.7903    2.2688    0.9400 H   0  0  0  0  0  0  0  0  0  0  0  0
   -3.3718    2.8901   -0.6347 H   0  0  0  0  0  0  0  0  0  0  0  0
   -5.9073    2.5599    0.8068 H   0  0  0  0  0  0  0  0  0  0  0  0
   -7.0947   -1.5839    0.4984 H   0  0  0  0  0  0  0  0  0  0  0  0
   -4.7981   -2.1954   -0.2613 H   0  0  0  0  0  0  0  0  0  0  0  0
    1.8238    1.6441    0.3509 H   0  0  0  0  0  0  0  0  0  0  0  0
  1  2  1  0
  2  3  1  0
  3  4  2  0
  3  5  1  0
  5  6  1  0
  6  7  2  0
  7  8  1  0
  8  9  1  0
  9 10  1  0
  8 11  2  0
 11 12  1  0
 12 13  1  0
 13 14  2  0
 13 15  1  0
 15 16  1  0
 16 17  1  0
 17 18  1  0
 18 19  2  0
 19 20  1  0
 19 21  1  0
 21 22  2  0
 22 23  1  0
 23 24  1  0
 11 25  1  0
 25  5  2  0
 24 15  1  0
 23 17  2  0
  1 26  1  0
  1 27  1  0
  1 28  1  0
  2 29  1  0
  6 30  1  0
  7 31  1  0
 10 32  1  0
 10 33  1  0
 10 34  1  0
 12 35  1  0
 15 36  1  0
 16 37  1  0
 16 38  1  0
 18 39  1  0
 21 40  1  0
 22 41  1  0
 25 42  1  0
M  END
$$$$
OCNT-2310884
     RDKit          3D

 42 44  0  0  0  0  0  0  0  0999 V2000
    8.3230    0.8482    0.1568 C   0  0  0  0  0  0  0  0  0  0  0  0
    6.8667    0.5134    0.0235 C   0  0  0  0  0  0  0  0  0  0  0  0
    6.0489    1.2408   -0.8468 C   0  0  0  0  0  0  0  0  0  0  0  0
    4.6851    0.9486   -0.9475 C   0  0  0  0  0  0  0  0  0  0  0  0
    4.1076   -0.0685   -0.1739 C   0  0  0  0  0  0  0  0  0  0  0  0
    2.6835   -0.3503   -0.3001 C   0  0  0  0  0  0  0  0  0  0  0  0
    1.7711    0.2165   -1.0636 N   0  0  0  0  0  0  0  0  0  0  0  0
    0.5824   -0.4297   -0.7952 N   0  0  0  0  0  0  0  0  0  0  0  0
    0.8451   -1.3441    0.1152 C   0  0  0  0  0  0  0  0  0  0  0  0
   -0.3124   -2.4367    0.8100 S   0  0  0  0  0  0  0  0  0  0  0  0
   -1.8551   -1.8973    0.0035 C   0  0  0  0  0  0  0  0  0  0  0  0
   -2.4214   -0.6201    0.6469 C   0  0  0  0  0  0  0  0  0  0  0  0
   -3.6752   -0.1545    0.0078 N   0  0  0  0  0  0  0  0  0  0  0  0
   -4.8166   -1.0214    0.3480 C   0  0  0  0  0  0  0  0  0  0  0  0
   -6.0811   -0.5608   -0.3659 C   0  0  0  0  0  0  0  0  0  0  0  0
   -6.3633    0.8878   -0.0411 C   0  0  0  0  0  0  0  0  0  0  0  0
   -7.4301    1.3172   -0.7616 F   0  0  0  0  0  0  0  0  0  0  0  0
   -6.7230    0.9925    1.2665 F   0  0  0  0  0  0  0  0  0  0  0  0
   -5.1760    1.7835   -0.3063 C   0  0  0  0  0  0  0  0  0  0  0  0
   -3.9455    1.2398    0.4059 C   0  0  0  0  0  0  0  0  0  0  0  0
    2.1656   -1.3512    0.4787 O   0  0  0  0  0  0  0  0  0  0  0  0
    4.9306   -0.7842    0.7074 C   0  0  0  0  0  0  0  0  0  0  0  0
    6.2951   -0.4927    0.8091 C   0  0  0  0  0  0  0  0  0  0  0  0
    8.4627    1.6081    0.9317 H   0  0  0  0  0  0  0  0  0  0  0  0
    8.7246    1.2280   -0.7885 H   0  0  0  0  0  0  0  0  0  0  0  0
    8.9051   -0.0404    0.4229 H   0  0  0  0  0  0  0  0  0  0  0  0
    6.4666    2.0405   -1.4551 H   0  0  0  0  0  0  0  0  0  0  0  0
    4.0722    1.5268   -1.6379 H   0  0  0  0  0  0  0  0  0  0  0  0
   -1.6938   -1.7615   -1.0716 H   0  0  0  0  0  0  0  0  0  0  0  0
   -2.5589   -2.7267    0.1190 H   0  0  0  0  0  0  0  0  0  0  0  0
   -2.5803   -0.7697    1.7233 H   0  0  0  0  0  0  0  0  0  0  0  0
   -1.6679    0.1708    0.5463 H   0  0  0  0  0  0  0  0  0  0  0  0
   -4.9836   -1.0384    1.4330 H   0  0  0  0  0  0  0  0  0  0  0  0
   -4.6239   -2.0526    0.0345 H   0  0  0  0  0  0  0  0  0  0  0  0
   -6.9274   -1.1828   -0.0533 H   0  0  0  0  0  0  0  0  0  0  0  0
   -5.9769   -0.6879   -1.4505 H   0  0  0  0  0  0  0  0  0  0  0  0
   -4.9944    1.8553   -1.3857 H   0  0  0  0  0  0  0  0  0  0  0  0
   -5.3890    2.7982    0.0483 H   0  0  0  0  0  0  0  0  0  0  0  0
   -4.0747    1.3159    1.4937 H   0  0  0  0  0  0  0  0  0  0  0  0
   -3.0942    1.8764    0.1350 H   0  0  0  0  0  0  0  0  0  0  0  0
    4.5203   -1.5774    1.3292 H   0  0  0  0  0  0  0  0  0  0  0  0
    6.9086   -1.0594    1.5066 H   0  0  0  0  0  0  0  0  0  0  0  0
  1  2  1  0
  2  3  1  0
  3  4  2  0
  4  5  1  0
  5  6  1  0
  6  7  2  0
  7  8  1  0
  8  9  2  0
  9 10  1  0
 10 11  1  0
 11 12  1  0
 12 13  1  0
 13 14  1  0
 14 15  1  0
 15 16  1  0
 16 17  1  0
 16 18  1  0
 16 19  1  0
 19 20  1  0
  9 21  1  0
  5 22  2  0
 22 23  1  0
 23  2  2  0
 21  6  1  0
 20 13  1  0
  1 24  1  0
  1 25  1  0
  1 26  1  0
  3 27  1  0
  4 28  1  0
 11 29  1  0
 11 30  1  0
 12 31  1  0
 12 32  1  0
 14 33  1  0
 14 34  1  0
 15 35  1  0
 15 36  1  0
 19 37  1  0
 19 38  1  0
 20 39  1  0
 20 40  1  0
 22 41  1  0
 23 42  1  0
M  END
$$$$
OCNT-2310888
     RDKit          3D

 35 37  0  0  0  0  0  0  0  0999 V2000
   -6.4692   -0.7812   -0.6006 C   0  0  0  0  0  0  0  0  0  0  0  0
   -5.0226   -0.5380   -0.2739 C   0  0  0  0  0  0  0  0  0  0  0  0
   -4.0340   -0.9172   -1.1924 C   0  0  0  0  0  0  0  0  0  0  0  0
   -2.6806   -0.7027   -0.9135 C   0  0  0  0  0  0  0  0  0  0  0  0
   -2.2829   -0.1044    0.2894 C   0  0  0  0  0  0  0  0  0  0  0  0
   -0.8680    0.1134    0.5678 C   0  0  0  0  0  0  0  0  0  0  0  0
   -0.3956    0.6612    1.6991 N   0  0  0  0  0  0  0  0  0  0  0  0
    0.9820    0.6673    1.5206 O   0  0  0  0  0  0  0  0  0  0  0  0
    1.2246    0.1125    0.2952 C   0  0  0  0  0  0  0  0  0  0  0  0
    2.6588    0.0343   -0.1374 C   0  0  0  0  0  0  0  0  0  0  0  0
    2.7360   -0.8895   -1.2971 C   0  0  0  0  0  0  0  0  0  0  0  0
    2.8210   -1.6237   -2.1934 N   0  0  0  0  0  0  0  0  0  0  0  0
    3.1480    1.4431   -0.5475 C   0  0  0  0  0  0  0  0  0  0  0  0
    4.6206    1.6595   -0.2169 C   0  0  0  0  0  0  0  0  0  0  0  0
    5.3324    0.4426   -0.3757 O   0  0  0  0  0  0  0  0  0  0  0  0
    5.0190   -0.5251    0.6228 C   0  0  0  0  0  0  0  0  0  0  0  0
    3.5383   -0.5233    0.9991 C   0  0  0  0  0  0  0  0  0  0  0  0
    0.1205   -0.2293   -0.3303 N   0  0  0  0  0  0  0  0  0  0  0  0
   -3.2689    0.2753    1.2095 C   0  0  0  0  0  0  0  0  0  0  0  0
   -4.6230    0.0608    0.9302 C   0  0  0  0  0  0  0  0  0  0  0  0
   -5.7784    0.5576    2.1158 Cl  0  0  0  0  0  0  0  0  0  0  0  0
   -6.9213   -1.4479    0.1407 H   0  0  0  0  0  0  0  0  0  0  0  0
   -6.5845   -1.2556   -1.5812 H   0  0  0  0  0  0  0  0  0  0  0  0
   -7.0189    0.1651   -0.6282 H   0  0  0  0  0  0  0  0  0  0  0  0
   -4.3075   -1.3853   -2.1365 H   0  0  0  0  0  0  0  0  0  0  0  0
   -1.9369   -1.0102   -1.6480 H   0  0  0  0  0  0  0  0  0  0  0  0
    2.9980    1.5937   -1.6256 H   0  0  0  0  0  0  0  0  0  0  0  0
    2.5741    2.2407   -0.0577 H   0  0  0  0  0  0  0  0  0  0  0  0
    4.7515    2.0342    0.8056 H   0  0  0  0  0  0  0  0  0  0  0  0
    5.0506    2.4056   -0.8930 H   0  0  0  0  0  0  0  0  0  0  0  0
    5.3086   -1.5036    0.2250 H   0  0  0  0  0  0  0  0  0  0  0  0
    5.6403   -0.3414    1.5065 H   0  0  0  0  0  0  0  0  0  0  0  0
    3.2325   -1.5325    1.3054 H   0  0  0  0  0  0  0  0  0  0  0  0
    3.4225    0.1023    1.8954 H   0  0  0  0  0  0  0  0  0  0  0  0
   -2.9876    0.7416    2.1518 H   0  0  0  0  0  0  0  0  0  0  0  0
  1  2  1  0
  2  3  1  0
  3  4  2  0
  4  5  1  0
  5  6  1  0
  6  7  2  0
  7  8  1  0
  8  9  1  0
  9 10  1  0
 10 11  1  0
 11 12  3  0
 10 13  1  0
 13 14  1  0
 14 15  1  0
 15 16  1  0
 16 17  1  0
  9 18  2  0
  5 19  2  0
 19 20  1  0
 20 21  1  0
 20  2  2  0
 18  6  1  0
 17 10  1  0
  1 22  1  0
  1 23  1  0
  1 24  1  0
  3 25  1  0
  4 26  1  0
 13 27  1  0
 13 28  1  0
 14 29  1  0
 14 30  1  0
 16 31  1  0
 16 32  1  0
 17 33  1  0
 17 34  1  0
 19 35  1  0
M  END
$$$$
OCNT-2310890
     RDKit          3D

 37 39  0  0  0  0  0  0  0  0999 V2000
    1.4245   -2.0430   -0.7445 O   0  0  0  0  0  0  0  0  0  0  0  0
    1.6364   -1.5280    0.3445 C   0  0  0  0  0  0  0  0  0  0  0  0
    0.7370   -1.5978    1.3889 N   0  0  0  0  0  0  0  0  0  0  0  0
   -0.5511   -2.2372    1.2139 C   0  0  0  0  0  0  0  0  0  0  0  0
   -1.6126   -1.2439    0.8377 C   0  0  0  0  0  0  0  0  0  0  0  0
   -1.7297   -0.7579   -0.4661 C   0  0  0  0  0  0  0  0  0  0  0  0
   -2.7141    0.1803   -0.7798 C   0  0  0  0  0  0  0  0  0  0  0  0
   -3.5642    0.6170    0.2318 C   0  0  0  0  0  0  0  0  0  0  0  0
   -4.5817    1.5741   -0.0396 N   0  0  0  0  0  0  0  0  0  0  0  0
   -5.4774    2.0775    0.8812 C   0  0  0  0  0  0  0  0  0  0  0  0
   -6.2697    2.9647    0.1950 C   0  0  0  0  0  0  0  0  0  0  0  0
   -5.8971    3.0299   -1.1190 N   0  0  0  0  0  0  0  0  0  0  0  0
   -4.8897    2.1901   -1.2311 C   0  0  0  0  0  0  0  0  0  0  0  0
   -3.4661    0.1612    1.5091 N   0  0  0  0  0  0  0  0  0  0  0  0
   -2.5045   -0.7499    1.7794 C   0  0  0  0  0  0  0  0  0  0  0  0
    2.7664   -0.8332    0.7184 N   0  0  0  0  0  0  0  0  0  0  0  0
    3.8680   -0.4886   -0.0922 C   0  0  0  0  0  0  0  0  0  0  0  0
    4.9728    0.0963    0.5415 C   0  0  0  0  0  0  0  0  0  0  0  0
    6.0965    0.4711   -0.2003 C   0  0  0  0  0  0  0  0  0  0  0  0
    7.4434    1.1846    0.5988 Cl  0  0  0  0  0  0  0  0  0  0  0  0
    6.1354    0.2749   -1.5743 C   0  0  0  0  0  0  0  0  0  0  0  0
    5.0363   -0.2990   -2.1967 C   0  0  0  0  0  0  0  0  0  0  0  0
    5.0610   -0.4867   -3.5229 F   0  0  0  0  0  0  0  0  0  0  0  0
    3.9071   -0.6799   -1.4740 C   0  0  0  0  0  0  0  0  0  0  0  0
    0.7696   -0.8408    2.0543 H   0  0  0  0  0  0  0  0  0  0  0  0
   -0.4910   -3.0319    0.4615 H   0  0  0  0  0  0  0  0  0  0  0  0
   -0.7991   -2.7159    2.1678 H   0  0  0  0  0  0  0  0  0  0  0  0
   -1.0524   -1.1075   -1.2446 H   0  0  0  0  0  0  0  0  0  0  0  0
   -2.7784    0.5356   -1.8014 H   0  0  0  0  0  0  0  0  0  0  0  0
   -5.4667    1.7630    1.9153 H   0  0  0  0  0  0  0  0  0  0  0  0
   -7.0885    3.5590    0.5799 H   0  0  0  0  0  0  0  0  0  0  0  0
   -4.3595    2.0017   -2.1536 H   0  0  0  0  0  0  0  0  0  0  0  0
   -2.4751   -1.0777    2.8156 H   0  0  0  0  0  0  0  0  0  0  0  0
    2.8632   -0.6694    1.7095 H   0  0  0  0  0  0  0  0  0  0  0  0
    4.9706    0.2630    1.6156 H   0  0  0  0  0  0  0  0  0  0  0  0
    6.9992    0.5607   -2.1648 H   0  0  0  0  0  0  0  0  0  0  0  0
    3.0813   -1.1162   -2.0253 H   0  0  0  0  0  0  0  0  0  0  0  0
  1  2  2  0
  2  3  1  0
  3  4  1  0
  4  5  1  0
  5  6  2  0
  6  7  1  0
  7  8  2  0
  8  9  1  0
  9 10  1  0
 10 11  2  0
 11 12  1  0
 12 13  2  0
  8 14  1  0
 14 15  2  0
  2 16  1  0
 16 17  1  0
 17 18  1  0
 18 19  2  0
 19 20  1  0
 19 21  1  0
 21 22  2  0
 22 23  1  0
 22 24  1  0
 15  5  1  0
 24 17  2  0
 13  9  1  0
  3 25  1  0
  4 26  1  0
  4 27  1  0
  6 28  1  0
  7 29  1  0
 10 30  1  0
 11 31  1  0
 13 32  1  0
 15 33  1  0
 16 34  1  0
 18 35  1  0
 21 36  1  0
 24 37  1  0
M  END
$$$$
OCNT-2310900
     RDKit          3D

 42 44  0  0  0  0  0  0  0  0999 V2000
    2.1858    1.1232    2.0769 C   0  0  0  0  0  0  0  0  0  0  0  0
    3.1018    0.5089    1.0538 C   0  0  0  0  0  0  0  0  0  0  0  0
    4.3163   -0.0462    1.4915 C   0  0  0  0  0  0  0  0  0  0  0  0
    5.2225   -0.6044    0.5856 C   0  0  0  0  0  0  0  0  0  0  0  0
    4.9368   -0.6105   -0.7807 C   0  0  0  0  0  0  0  0  0  0  0  0
    5.8695   -1.1816   -1.7079 C   0  0  0  0  0  0  0  0  0  0  0  0
    6.6219   -1.6518   -2.4557 N   0  0  0  0  0  0  0  0  0  0  0  0
    3.7383   -0.0582   -1.2384 C   0  0  0  0  0  0  0  0  0  0  0  0
    2.8216    0.4934   -0.3271 C   0  0  0  0  0  0  0  0  0  0  0  0
    1.3148    1.1911   -0.9886 S   0  0  0  0  0  0  0  0  0  0  0  0
    1.1485    2.5076   -0.4140 O   0  0  0  0  0  0  0  0  0  0  0  0
    1.3146    0.9997   -2.4243 O   0  0  0  0  0  0  0  0  0  0  0  0
    0.1090    0.1662   -0.3588 N   0  0  0  0  0  0  0  0  0  0  0  0
    0.1250   -1.2493   -0.8514 C   0  0  0  0  0  0  0  0  0  0  0  0
   -1.0443   -1.5130   -1.8021 C   0  0  0  0  0  0  0  0  0  0  0  0
   -2.3178   -1.3456   -1.1665 O   0  0  0  0  0  0  0  0  0  0  0  0
   -2.3377   -0.3054   -0.1699 C   0  0  0  0  0  0  0  0  0  0  0  0
   -3.7321    0.3292   -0.1988 C   0  0  0  0  0  0  0  0  0  0  0  0
   -4.1344    1.2073    1.0193 C   0  0  0  0  0  0  0  0  0  0  0  0
   -4.8150   -0.0342    1.6243 C   0  0  0  0  0  0  0  0  0  0  0  0
   -4.9128   -0.6014    0.1965 C   0  0  0  0  0  0  0  0  0  0  0  0
   -1.2630    0.7708   -0.4224 C   0  0  0  0  0  0  0  0  0  0  0  0
    2.5233    0.8998    3.0952 H   0  0  0  0  0  0  0  0  0  0  0  0
    1.1717    0.7253    1.9934 H   0  0  0  0  0  0  0  0  0  0  0  0
    2.1712    2.2117    1.9715 H   0  0  0  0  0  0  0  0  0  0  0  0
    4.5714   -0.0433    2.5509 H   0  0  0  0  0  0  0  0  0  0  0  0
    6.1552   -1.0269    0.9570 H   0  0  0  0  0  0  0  0  0  0  0  0
    3.5226   -0.0551   -2.3066 H   0  0  0  0  0  0  0  0  0  0  0  0
    0.0487   -1.8958    0.0310 H   0  0  0  0  0  0  0  0  0  0  0  0
    1.0682   -1.4927   -1.3483 H   0  0  0  0  0  0  0  0  0  0  0  0
   -1.0006   -2.5409   -2.1758 H   0  0  0  0  0  0  0  0  0  0  0  0
   -1.0050   -0.8471   -2.6716 H   0  0  0  0  0  0  0  0  0  0  0  0
   -2.1541   -0.7880    0.7982 H   0  0  0  0  0  0  0  0  0  0  0  0
   -3.9035    0.8316   -1.1606 H   0  0  0  0  0  0  0  0  0  0  0  0
   -3.3238    1.6313    1.6170 H   0  0  0  0  0  0  0  0  0  0  0  0
   -4.8373    2.0092    0.7636 H   0  0  0  0  0  0  0  0  0  0  0  0
   -5.7671    0.1455    2.1298 H   0  0  0  0  0  0  0  0  0  0  0  0
   -4.1652   -0.6158    2.2879 H   0  0  0  0  0  0  0  0  0  0  0  0
   -4.7448   -1.6779    0.1065 H   0  0  0  0  0  0  0  0  0  0  0  0
   -5.8529   -0.3502   -0.3091 H   0  0  0  0  0  0  0  0  0  0  0  0
   -1.4188    1.2266   -1.4082 H   0  0  0  0  0  0  0  0  0  0  0  0
   -1.3286    1.5570    0.3368 H   0  0  0  0  0  0  0  0  0  0  0  0
  1  2  1  0
  2  3  1  0
  3  4  2  0
  4  5  1  0
  5  6  1  0
  6  7  3  0
  5  8  2  0
  8  9  1  0
  9 10  1  0
 10 11  2  0
 10 12  2  0
 10 13  1  0
 13 14  1  0
 14 15  1  0
 15 16  1  0
 16 17  1  0
 17 18  1  0
 18 19  1  0
 19 20  1  0
 20 21  1  0
 17 22  1  0
  9  2  2  0
 22 13  1  0
 21 18  1  0
  1 23  1  0
  1 24  1  0
  1 25  1  0
  3 26  1  0
  4 27  1  0
  8 28  1  0
 14 29  1  0
 14 30  1  0
 15 31  1  0
 15 32  1  0
 17 33  1  0
 18 34  1  0
 19 35  1  0
 19 36  1  0
 20 37  1  0
 20 38  1  0
 21 39  1  0
 21 40  1  0
 22 41  1  0
 22 42  1  0
M  END
$$$$
OCNT-2310905
     RDKit          3D

 43 46  0  0  0  0  0  0  0  0999 V2000
   -2.2979    1.1684   -2.7579 C   0  0  0  0  0  0  0  0  0  0  0  0
   -2.9780    0.6486   -1.4976 C   0  0  0  0  0  0  0  0  0  0  0  0
   -2.0807   -0.2744   -0.8801 O   0  0  0  0  0  0  0  0  0  0  0  0
   -2.6570   -1.0540    0.0953 C   0  0  0  0  0  0  0  0  0  0  0  0
   -1.8411   -1.6456    1.0750 C   0  0  0  0  0  0  0  0  0  0  0  0
   -0.3596   -1.4558    1.1714 C   0  0  0  0  0  0  0  0  0  0  0  0
    0.2329   -1.7569    2.2026 O   0  0  0  0  0  0  0  0  0  0  0  0
    0.2867   -0.9461    0.0683 N   0  0  0  0  0  0  0  0  0  0  0  0
    1.7035   -0.5958    0.0928 C   0  0  0  0  0  0  0  0  0  0  0  0
    2.2834   -0.4916   -1.3189 C   0  0  0  0  0  0  0  0  0  0  0  0
    3.6938   -0.2577   -1.3236 O   0  0  0  0  0  0  0  0  0  0  0  0
    4.1075    0.7398   -0.4821 C   0  0  0  0  0  0  0  0  0  0  0  0
    5.4013    1.2174   -0.6923 C   0  0  0  0  0  0  0  0  0  0  0  0
    5.9149    2.2306    0.1165 C   0  0  0  0  0  0  0  0  0  0  0  0
    5.1352    2.7633    1.1411 C   0  0  0  0  0  0  0  0  0  0  0  0
    3.8456    2.2775    1.3617 C   0  0  0  0  0  0  0  0  0  0  0  0
    3.3259    1.2521    0.5589 C   0  0  0  0  0  0  0  0  0  0  0  0
    1.9375    0.7362    0.8112 C   0  0  0  0  0  0  0  0  0  0  0  0
   -2.4344   -2.4672    2.0505 C   0  0  0  0  0  0  0  0  0  0  0  0
   -3.8065   -2.7232    2.0370 C   0  0  0  0  0  0  0  0  0  0  0  0
   -4.6084   -2.1574    1.0499 C   0  0  0  0  0  0  0  0  0  0  0  0
   -4.0366   -1.3216    0.0904 C   0  0  0  0  0  0  0  0  0  0  0  0
   -4.8559   -0.7835   -0.9051 N   0  0  0  0  0  0  0  0  0  0  0  0
   -4.3808    0.1181   -1.8196 C   0  0  0  0  0  0  0  0  0  0  0  0
   -5.0787    0.5111   -2.7494 O   0  0  0  0  0  0  0  0  0  0  0  0
   -2.8869    1.9543   -3.2410 H   0  0  0  0  0  0  0  0  0  0  0  0
   -1.3057    1.5690   -2.5234 H   0  0  0  0  0  0  0  0  0  0  0  0
   -2.1515    0.3576   -3.4806 H   0  0  0  0  0  0  0  0  0  0  0  0
   -3.1105    1.4941   -0.8088 H   0  0  0  0  0  0  0  0  0  0  0  0
   -0.2912   -0.5946   -0.6889 H   0  0  0  0  0  0  0  0  0  0  0  0
    2.2424   -1.3830    0.6375 H   0  0  0  0  0  0  0  0  0  0  0  0
    1.7880    0.2968   -1.9014 H   0  0  0  0  0  0  0  0  0  0  0  0
    2.1123   -1.4304   -1.8586 H   0  0  0  0  0  0  0  0  0  0  0  0
    6.0083    0.8008   -1.4915 H   0  0  0  0  0  0  0  0  0  0  0  0
    6.9218    2.6024   -0.0527 H   0  0  0  0  0  0  0  0  0  0  0  0
    5.5336    3.5533    1.7726 H   0  0  0  0  0  0  0  0  0  0  0  0
    3.2501    2.6958    2.1703 H   0  0  0  0  0  0  0  0  0  0  0  0
    1.7713    0.6088    1.8878 H   0  0  0  0  0  0  0  0  0  0  0  0
    1.2202    1.4881    0.4567 H   0  0  0  0  0  0  0  0  0  0  0  0
   -1.8193   -2.9244    2.8255 H   0  0  0  0  0  0  0  0  0  0  0  0
   -4.2441   -3.3694    2.7948 H   0  0  0  0  0  0  0  0  0  0  0  0
   -5.6741   -2.3711    1.0439 H   0  0  0  0  0  0  0  0  0  0  0  0
   -5.8174   -1.0802   -1.0109 H   0  0  0  0  0  0  0  0  0  0  0  0
  1  2  1  0
  2  3  1  0
  3  4  1  0
  4  5  2  0
  5  6  1  0
  6  7  2  0
  6  8  1  0
  8  9  1  0
  9 10  1  0
 10 11  1  0
 11 12  1  0
 12 13  2  0
 13 14  1  0
 14 15  2  0
 15 16  1  0
 16 17  2  0
 17 18  1  0
  5 19  1  0
 19 20  2  0
 20 21  1  0
 21 22  2  0
 22 23  1  0
 23 24  1  0
 24 25  2  0
 24  2  1  0
 22  4  1  0
 18  9  1  0
 17 12  1  0
  1 26  1  0
  1 27  1  0
  1 28  1  0
  2 29  1  0
  8 30  1  0
  9 31  1  0
 10 32  1  0
 10 33  1  0
 13 34  1  0
 14 35  1  0
 15 36  1  0
 16 37  1  0
 18 38  1  0
 18 39  1  0
 19 40  1  0
 20 41  1  0
 21 42  1  0
 23 43  1  0
M  END
$$$$
OCNT-2310913
     RDKit          3D

 45 48  0  0  0  0  0  0  0  0999 V2000
    0.9265    1.0890    2.7061 O   0  0  0  0  0  0  0  0  0  0  0  0
    0.7883    0.3179    1.7647 C   0  0  0  0  0  0  0  0  0  0  0  0
   -0.3935   -0.2205    1.2998 N   0  0  0  0  0  0  0  0  0  0  0  0
   -1.6320    0.1065    1.7992 C   0  0  0  0  0  0  0  0  0  0  0  0
   -2.8126   -0.4648    1.3893 C   0  0  0  0  0  0  0  0  0  0  0  0
   -3.7598    0.1828    2.1304 N   0  0  0  0  0  0  0  0  0  0  0  0
   -5.1953   -0.0310    2.1438 C   0  0  0  0  0  0  0  0  0  0  0  0
   -5.8139    0.2002    0.7871 C   0  0  0  0  0  0  0  0  0  0  0  0
   -5.8452    1.4874    0.2286 C   0  0  0  0  0  0  0  0  0  0  0  0
   -6.4153    1.7000   -1.0270 C   0  0  0  0  0  0  0  0  0  0  0  0
   -6.9609    0.6319   -1.7362 C   0  0  0  0  0  0  0  0  0  0  0  0
   -6.9377   -0.6506   -1.1910 C   0  0  0  0  0  0  0  0  0  0  0  0
   -6.3685   -0.8671    0.0646 C   0  0  0  0  0  0  0  0  0  0  0  0
   -3.2003    1.0794    2.9616 N   0  0  0  0  0  0  0  0  0  0  0  0
   -1.8885    1.0423    2.7585 N   0  0  0  0  0  0  0  0  0  0  0  0
    2.0106   -0.1515    1.0509 C   0  0  0  0  0  0  0  0  0  0  0  0
    2.0088   -0.4265   -0.3217 C   0  0  0  0  0  0  0  0  0  0  0  0
    3.1770   -0.8721   -0.9477 C   0  0  0  0  0  0  0  0  0  0  0  0
    4.3645   -1.0359   -0.2165 C   0  0  0  0  0  0  0  0  0  0  0  0
    5.6273   -1.5163   -0.8899 C   0  0  0  0  0  0  0  0  0  0  0  0
    6.1695   -0.5205   -1.7958 N   0  0  0  0  0  0  0  0  0  0  0  0
    6.9006    0.5829   -1.4501 C   0  0  0  0  0  0  0  0  0  0  0  0
    7.2230    1.1810   -2.6457 C   0  0  0  0  0  0  0  0  0  0  0  0
    6.7190    0.4647   -3.7004 N   0  0  0  0  0  0  0  0  0  0  0  0
    6.0939   -0.5561   -3.1590 C   0  0  0  0  0  0  0  0  0  0  0  0
    4.3625   -0.7370    1.1539 C   0  0  0  0  0  0  0  0  0  0  0  0
    3.1956   -0.2940    1.7815 C   0  0  0  0  0  0  0  0  0  0  0  0
   -0.3748   -0.9398    0.5938 H   0  0  0  0  0  0  0  0  0  0  0  0
   -3.0590   -1.2256    0.6646 H   0  0  0  0  0  0  0  0  0  0  0  0
   -5.3568   -1.0580    2.4916 H   0  0  0  0  0  0  0  0  0  0  0  0
   -5.6457    0.6445    2.8805 H   0  0  0  0  0  0  0  0  0  0  0  0
   -5.4214    2.3339    0.7680 H   0  0  0  0  0  0  0  0  0  0  0  0
   -6.4341    2.7009   -1.4518 H   0  0  0  0  0  0  0  0  0  0  0  0
   -7.4066    0.7998   -2.7133 H   0  0  0  0  0  0  0  0  0  0  0  0
   -7.3666   -1.4822   -1.7446 H   0  0  0  0  0  0  0  0  0  0  0  0
   -6.3640   -1.8759    0.4724 H   0  0  0  0  0  0  0  0  0  0  0  0
    1.1205   -0.2663   -0.9268 H   0  0  0  0  0  0  0  0  0  0  0  0
    3.1569   -1.0714   -2.0179 H   0  0  0  0  0  0  0  0  0  0  0  0
    6.4106   -1.7499   -0.1594 H   0  0  0  0  0  0  0  0  0  0  0  0
    5.4282   -2.4320   -1.4568 H   0  0  0  0  0  0  0  0  0  0  0  0
    7.1174    0.8481   -0.4245 H   0  0  0  0  0  0  0  0  0  0  0  0
    7.7933    2.0872   -2.8020 H   0  0  0  0  0  0  0  0  0  0  0  0
    5.5782   -1.3367   -3.7043 H   0  0  0  0  0  0  0  0  0  0  0  0
    5.2697   -0.8384    1.7470 H   0  0  0  0  0  0  0  0  0  0  0  0
    3.2109   -0.0578    2.8446 H   0  0  0  0  0  0  0  0  0  0  0  0
  1  2  2  0
  2  3  1  0
  3  4  1  0
  4  5  2  0
  5  6  1  0
  6  7  1  0
  7  8  1  0
  8  9  2  0
  9 10  1  0
 10 11  2  0
 11 12  1  0
 12 13  2  0
  6 14  1  0
 14 15  2  0
  2 16  1  0
 16 17  1  0
 17 18  2  0
 18 19  1  0
 19 20  1  0
 20 21  1  0
 21 22  1  0
 22 23  2  0
 23 24  1  0
 24 25  2  0
 19 26  2  0
 26 27  1  0
 15  4  1  0
 27 16  2  0
 13  8  1  0
 25 21  1  0
  3 28  1  0
  5 29  1  0
  7 30  1  0
  7 31  1  0
  9 32  1  0
 10 33  1  0
 11 34  1  0
 12 35  1  0
 13 36  1  0
 17 37  1  0
 18 38  1  0
 20 39  1  0
 20 40  1  0
 22 41  1  0
 23 42  1  0
 25 43  1  0
 26 44  1  0
 27 45  1  0
M  END
$$$$
OCNT-2310919
     RDKit          3D

 35 37  0  0  0  0  0  0  0  0999 V2000
    0.6929   -2.2552   -0.3793 C   0  0  0  0  0  0  0  0  0  0  0  0
   -0.2725   -1.1329   -0.2850 C   0  0  0  0  0  0  0  0  0  0  0  0
   -1.5699   -1.1994    0.1773 C   0  0  0  0  0  0  0  0  0  0  0  0
   -2.1296    0.0585    0.0622 N   0  0  0  0  0  0  0  0  0  0  0  0
   -3.4708    0.4396    0.3804 C   0  0  0  0  0  0  0  0  0  0  0  0
   -4.4269   -0.5784    0.5919 C   0  0  0  0  0  0  0  0  0  0  0  0
   -5.7604   -0.2738    0.8815 C   0  0  0  0  0  0  0  0  0  0  0  0
   -6.1676    1.0498    0.9677 C   0  0  0  0  0  0  0  0  0  0  0  0
   -5.2382    2.0682    0.7696 C   0  0  0  0  0  0  0  0  0  0  0  0
   -3.8929    1.7798    0.4796 C   0  0  0  0  0  0  0  0  0  0  0  0
   -2.8753    3.1752    0.3545 Cl  0  0  0  0  0  0  0  0  0  0  0  0
   -1.2331    0.9232   -0.4479 N   0  0  0  0  0  0  0  0  0  0  0  0
   -0.1037    0.2317   -0.6619 C   0  0  0  0  0  0  0  0  0  0  0  0
    1.0898    0.8995   -1.2187 C   0  0  0  0  0  0  0  0  0  0  0  0
    1.0402    1.8174   -2.0343 O   0  0  0  0  0  0  0  0  0  0  0  0
    2.2891    0.4287   -0.7340 N   0  0  0  0  0  0  0  0  0  0  0  0
    3.5294    1.0870   -1.0740 C   0  0  0  0  0  0  0  0  0  0  0  0
    4.6631    0.3436   -0.4317 C   0  0  0  0  0  0  0  0  0  0  0  0
    4.5226   -0.5804    0.5037 N   0  0  0  0  0  0  0  0  0  0  0  0
    5.7659   -1.0510    0.8785 C   0  0  0  0  0  0  0  0  0  0  0  0
    6.8394   -0.4825    0.2288 C   0  0  0  0  0  0  0  0  0  0  0  0
    6.2847    0.6867   -0.8937 S   0  0  0  0  0  0  0  0  0  0  0  0
    0.1747   -3.2199   -0.3641 H   0  0  0  0  0  0  0  0  0  0  0  0
    1.2662   -2.2039   -1.3102 H   0  0  0  0  0  0  0  0  0  0  0  0
    1.3892   -2.2342    0.4647 H   0  0  0  0  0  0  0  0  0  0  0  0
   -2.1163   -2.0371    0.5817 H   0  0  0  0  0  0  0  0  0  0  0  0
   -4.1761   -1.6319    0.5071 H   0  0  0  0  0  0  0  0  0  0  0  0
   -6.4813   -1.0746    1.0306 H   0  0  0  0  0  0  0  0  0  0  0  0
   -7.2034    1.2928    1.1906 H   0  0  0  0  0  0  0  0  0  0  0  0
   -5.5674    3.1026    0.8515 H   0  0  0  0  0  0  0  0  0  0  0  0
    2.2981   -0.1435    0.1017 H   0  0  0  0  0  0  0  0  0  0  0  0
    3.4869    2.1165   -0.7022 H   0  0  0  0  0  0  0  0  0  0  0  0
    3.6263    1.1068   -2.1649 H   0  0  0  0  0  0  0  0  0  0  0  0
    5.8351   -1.8180    1.6404 H   0  0  0  0  0  0  0  0  0  0  0  0
    7.8918   -0.6908    0.3573 H   0  0  0  0  0  0  0  0  0  0  0  0
  1  2  1  0
  2  3  2  0
  3  4  1  0
  4  5  1  0
  5  6  2  0
  6  7  1  0
  7  8  2  0
  8  9  1  0
  9 10  2  0
 10 11  1  0
  4 12  1  0
 12 13  2  0
 13 14  1  0
 14 15  2  0
 14 16  1  0
 16 17  1  0
 17 18  1  0
 18 19  2  0
 19 20  1  0
 20 21  2  0
 21 22  1  0
 13  2  1  0
 22 18  1  0
 10  5  1  0
  1 23  1  0
  1 24  1  0
  1 25  1  0
  3 26  1  0
  6 27  1  0
  7 28  1  0
  8 29  1  0
  9 30  1  0
 16 31  1  0
 17 32  1  0
 17 33  1  0
 20 34  1  0
 21 35  1  0
M  END
$$$$
OCNT-2310923
     RDKit          3D

 38 40  0  0  0  0  0  0  0  0999 V2000
    7.5774    0.9436    0.6523 C   0  0  0  0  0  0  0  0  0  0  0  0
    6.9124   -0.0298   -0.3064 C   0  0  0  0  0  0  0  0  0  0  0  0
    5.6560    0.5117   -0.7858 N   0  0  0  0  0  0  0  0  0  0  0  0
    4.4554    0.1350   -0.2883 C   0  0  0  0  0  0  0  0  0  0  0  0
    3.3780    0.1849   -1.0339 N   0  0  0  0  0  0  0  0  0  0  0  0
    2.2440   -0.2189   -0.3305 C   0  0  0  0  0  0  0  0  0  0  0  0
    0.9224   -0.2564   -0.9867 C   0  0  0  0  0  0  0  0  0  0  0  0
    0.8221   -0.4511   -2.1929 O   0  0  0  0  0  0  0  0  0  0  0  0
   -0.1384   -0.0330   -0.1185 N   0  0  0  0  0  0  0  0  0  0  0  0
   -1.5168   -0.0578   -0.4178 C   0  0  0  0  0  0  0  0  0  0  0  0
   -2.0425   -0.4160   -1.6590 C   0  0  0  0  0  0  0  0  0  0  0  0
   -3.4260   -0.4270   -1.8644 C   0  0  0  0  0  0  0  0  0  0  0  0
   -4.2959   -0.0880   -0.8315 C   0  0  0  0  0  0  0  0  0  0  0  0
   -5.6311   -0.1240   -1.1302 O   0  0  0  0  0  0  0  0  0  0  0  0
   -6.4997   -0.0943    0.0056 C   0  0  0  0  0  0  0  0  0  0  0  0
   -6.1039    0.9868    0.9969 C   0  0  0  0  0  0  0  0  0  0  0  0
   -4.7136    0.6786    1.5324 C   0  0  0  0  0  0  0  0  0  0  0  0
   -3.7896    0.2945    0.4125 C   0  0  0  0  0  0  0  0  0  0  0  0
   -2.3998    0.2922    0.6148 C   0  0  0  0  0  0  0  0  0  0  0  0
    2.5088   -0.5879    0.9769 C   0  0  0  0  0  0  0  0  0  0  0  0
    4.1735   -0.4003    1.3245 S   0  0  0  0  0  0  0  0  0  0  0  0
    6.9648    1.1133    1.5431 H   0  0  0  0  0  0  0  0  0  0  0  0
    8.5475    0.5540    0.9763 H   0  0  0  0  0  0  0  0  0  0  0  0
    7.7428    1.9141    0.1723 H   0  0  0  0  0  0  0  0  0  0  0  0
    7.5754   -0.1780   -1.1669 H   0  0  0  0  0  0  0  0  0  0  0  0
    6.7929   -1.0146    0.1598 H   0  0  0  0  0  0  0  0  0  0  0  0
    5.6290    0.6861   -1.7870 H   0  0  0  0  0  0  0  0  0  0  0  0
    0.0988    0.2558    0.8197 H   0  0  0  0  0  0  0  0  0  0  0  0
   -1.4086   -0.6976   -2.4939 H   0  0  0  0  0  0  0  0  0  0  0  0
   -3.8230   -0.7079   -2.8366 H   0  0  0  0  0  0  0  0  0  0  0  0
   -7.5108    0.1021   -0.3665 H   0  0  0  0  0  0  0  0  0  0  0  0
   -6.5128   -1.0869    0.4731 H   0  0  0  0  0  0  0  0  0  0  0  0
   -6.0906    1.9593    0.4886 H   0  0  0  0  0  0  0  0  0  0  0  0
   -6.8237    1.0473    1.8197 H   0  0  0  0  0  0  0  0  0  0  0  0
   -4.3277    1.5552    2.0651 H   0  0  0  0  0  0  0  0  0  0  0  0
   -4.7648   -0.1545    2.2439 H   0  0  0  0  0  0  0  0  0  0  0  0
   -2.0151    0.5775    1.5912 H   0  0  0  0  0  0  0  0  0  0  0  0
    1.8332   -0.9694    1.7280 H   0  0  0  0  0  0  0  0  0  0  0  0
  1  2  1  0
  2  3  1  0
  3  4  1  0
  4  5  2  0
  5  6  1  0
  6  7  1  0
  7  8  2  0
  7  9  1  0
  9 10  1  0
 10 11  1  0
 11 12  2  0
 12 13  1  0
 13 14  1  0
 14 15  1  0
 15 16  1  0
 16 17  1  0
 17 18  1  0
 18 19  1  0
  6 20  2  0
 20 21  1  0
 21  4  1  0
 19 10  2  0
 18 13  2  0
  1 22  1  0
  1 23  1  0
  1 24  1  0
  2 25  1  0
  2 26  1  0
  3 27  1  0
  9 28  1  0
 11 29  1  0
 12 30  1  0
 15 31  1  0
 15 32  1  0
 16 33  1  0
 16 34  1  0
 17 35  1  0
 17 36  1  0
 19 37  1  0
 20 38  1  0
M  END
$$$$
OCNT-2310932
     RDKit          3D

 37 38  0  0  0  0  0  0  0  0999 V2000
    6.8020    1.4565   -1.1663 C   0  0  0  0  0  0  0  0  0  0  0  0
    5.4455    1.7855   -0.8914 O   0  0  0  0  0  0  0  0  0  0  0  0
    4.6149    0.7613   -0.5314 C   0  0  0  0  0  0  0  0  0  0  0  0
    4.9634   -0.5864   -0.4506 C   0  0  0  0  0  0  0  0  0  0  0  0
    4.0074   -1.5273   -0.0613 C   0  0  0  0  0  0  0  0  0  0  0  0
    4.4472   -3.1886    0.0525 Cl  0  0  0  0  0  0  0  0  0  0  0  0
    2.7015   -1.1452    0.2395 C   0  0  0  0  0  0  0  0  0  0  0  0
    2.3458    0.2024    0.1407 C   0  0  0  0  0  0  0  0  0  0  0  0
    0.9690    0.6716    0.4539 C   0  0  0  0  0  0  0  0  0  0  0  0
    0.8321    1.7576    1.0011 O   0  0  0  0  0  0  0  0  0  0  0  0
   -0.0476   -0.1792    0.0584 N   0  0  0  0  0  0  0  0  0  0  0  0
   -1.4317    0.0257    0.2511 C   0  0  0  0  0  0  0  0  0  0  0  0
   -1.9984    1.1045    0.9256 C   0  0  0  0  0  0  0  0  0  0  0  0
   -3.3354    1.2823    1.0963 N   0  0  0  0  0  0  0  0  0  0  0  0
   -4.1619    0.3521    0.5621 C   0  0  0  0  0  0  0  0  0  0  0  0
   -5.5185    0.4769    0.7697 O   0  0  0  0  0  0  0  0  0  0  0  0
   -5.8974    1.7389    1.3079 C   0  0  0  0  0  0  0  0  0  0  0  0
   -3.6897   -0.7652   -0.1133 C   0  0  0  0  0  0  0  0  0  0  0  0
   -4.6076   -1.7629   -0.6894 C   0  0  0  0  0  0  0  0  0  0  0  0
   -4.3482   -3.0691   -0.3673 N   0  0  0  0  0  0  0  0  0  0  0  0
   -5.5298   -1.4591   -1.4305 O   0  0  0  0  0  0  0  0  0  0  0  0
   -2.3070   -0.9273   -0.2718 C   0  0  0  0  0  0  0  0  0  0  0  0
    3.3068    1.1511   -0.2302 C   0  0  0  0  0  0  0  0  0  0  0  0
    6.8772    0.7882   -2.0303 H   0  0  0  0  0  0  0  0  0  0  0  0
    7.2890    1.0227   -0.2867 H   0  0  0  0  0  0  0  0  0  0  0  0
    7.3272    2.3837   -1.4151 H   0  0  0  0  0  0  0  0  0  0  0  0
    5.9680   -0.9278   -0.6773 H   0  0  0  0  0  0  0  0  0  0  0  0
    1.9883   -1.8920    0.5753 H   0  0  0  0  0  0  0  0  0  0  0  0
    0.2103   -0.9919   -0.4870 H   0  0  0  0  0  0  0  0  0  0  0  0
   -1.4012    1.8928    1.3726 H   0  0  0  0  0  0  0  0  0  0  0  0
   -5.5150    1.8647    2.3266 H   0  0  0  0  0  0  0  0  0  0  0  0
   -6.9902    1.7647    1.3583 H   0  0  0  0  0  0  0  0  0  0  0  0
   -5.5747    2.5624    0.6612 H   0  0  0  0  0  0  0  0  0  0  0  0
   -5.0589   -3.7337   -0.6499 H   0  0  0  0  0  0  0  0  0  0  0  0
   -3.7854   -3.3098    0.4371 H   0  0  0  0  0  0  0  0  0  0  0  0
   -1.9332   -1.7852   -0.8235 H   0  0  0  0  0  0  0  0  0  0  0  0
    3.0364    2.2050   -0.2871 H   0  0  0  0  0  0  0  0  0  0  0  0
  1  2  1  0
  2  3  1  0
  3  4  1  0
  4  5  2  0
  5  6  1  0
  5  7  1  0
  7  8  2  0
  8  9  1  0
  9 10  2  0
  9 11  1  0
 11 12  1  0
 12 13  1  0
 13 14  2  0
 14 15  1  0
 15 16  1  0
 16 17  1  0
 15 18  2  0
 18 19  1  0
 19 20  1  0
 19 21  2  0
 18 22  1  0
  8 23  1  0
 23  3  2  0
 22 12  2  0
  1 24  1  0
  1 25  1  0
  1 26  1  0
  4 27  1  0
  7 28  1  0
 11 29  1  0
 13 30  1  0
 17 31  1  0
 17 32  1  0
 17 33  1  0
 20 34  1  0
 20 35  1  0
 22 36  1  0
 23 37  1  0
M  END
$$$$
OCNT-2310937
     RDKit          3D

 40 42  0  0  0  0  0  0  0  0999 V2000
    6.7074    1.5720   -0.4078 N   0  0  0  0  0  0  0  0  0  0  0  0
    6.9682    0.7380    0.6431 C   0  0  0  0  0  0  0  0  0  0  0  0
    8.0235    0.1170    0.7138 O   0  0  0  0  0  0  0  0  0  0  0  0
    5.8871    0.6841    1.7220 C   0  0  0  0  0  0  0  0  0  0  0  0
    4.5673    0.9017    1.2347 O   0  0  0  0  0  0  0  0  0  0  0  0
    3.9146   -0.1527    0.6541 C   0  0  0  0  0  0  0  0  0  0  0  0
    4.4707   -1.3937    0.3442 C   0  0  0  0  0  0  0  0  0  0  0  0
    3.6862   -2.3751   -0.2639 C   0  0  0  0  0  0  0  0  0  0  0  0
    2.3494   -2.1165   -0.5638 C   0  0  0  0  0  0  0  0  0  0  0  0
    1.7827   -0.8778   -0.2616 C   0  0  0  0  0  0  0  0  0  0  0  0
    0.4662   -0.7550   -0.6088 O   0  0  0  0  0  0  0  0  0  0  0  0
   -0.1701    0.4900   -0.3155 C   0  0  0  0  0  0  0  0  0  0  0  0
   -1.5944    0.3854   -0.7750 C   0  0  0  0  0  0  0  0  0  0  0  0
   -2.6383    0.3584    0.0292 N   0  0  0  0  0  0  0  0  0  0  0  0
   -3.8155    0.2740   -0.7037 C   0  0  0  0  0  0  0  0  0  0  0  0
   -5.1138    0.2119   -0.0342 C   0  0  0  0  0  0  0  0  0  0  0  0
   -5.1704   -0.1428    1.3225 C   0  0  0  0  0  0  0  0  0  0  0  0
   -6.3926   -0.2137    1.9963 C   0  0  0  0  0  0  0  0  0  0  0  0
   -7.5764    0.0739    1.3223 C   0  0  0  0  0  0  0  0  0  0  0  0
   -7.5382    0.4347   -0.0226 C   0  0  0  0  0  0  0  0  0  0  0  0
   -6.3148    0.5051   -0.6973 C   0  0  0  0  0  0  0  0  0  0  0  0
   -3.6330    0.2393   -2.0729 C   0  0  0  0  0  0  0  0  0  0  0  0
   -1.9642    0.3344   -2.4549 S   0  0  0  0  0  0  0  0  0  0  0  0
    2.5709    0.1009    0.3457 C   0  0  0  0  0  0  0  0  0  0  0  0
    7.3530    1.5404   -1.1858 H   0  0  0  0  0  0  0  0  0  0  0  0
    5.7478    1.8371   -0.5976 H   0  0  0  0  0  0  0  0  0  0  0  0
    6.1065    1.4953    2.4255 H   0  0  0  0  0  0  0  0  0  0  0  0
    5.9590   -0.2517    2.2882 H   0  0  0  0  0  0  0  0  0  0  0  0
    5.5079   -1.6366    0.5534 H   0  0  0  0  0  0  0  0  0  0  0  0
    4.1173   -3.3437   -0.5053 H   0  0  0  0  0  0  0  0  0  0  0  0
    1.7439   -2.8869   -1.0360 H   0  0  0  0  0  0  0  0  0  0  0  0
    0.3275    1.3146   -0.8403 H   0  0  0  0  0  0  0  0  0  0  0  0
   -0.1575    0.6756    0.7653 H   0  0  0  0  0  0  0  0  0  0  0  0
   -4.2545   -0.3708    1.8651 H   0  0  0  0  0  0  0  0  0  0  0  0
   -6.4156   -0.4926    3.0464 H   0  0  0  0  0  0  0  0  0  0  0  0
   -8.5274    0.0203    1.8459 H   0  0  0  0  0  0  0  0  0  0  0  0
   -8.4614    0.6661   -0.5480 H   0  0  0  0  0  0  0  0  0  0  0  0
   -6.3228    0.8049   -1.7413 H   0  0  0  0  0  0  0  0  0  0  0  0
   -4.3669    0.1581   -2.8605 H   0  0  0  0  0  0  0  0  0  0  0  0
    2.1708    1.0766    0.6016 H   0  0  0  0  0  0  0  0  0  0  0  0
  1  2  1  0
  2  3  2  0
  2  4  1  0
  4  5  1  0
  5  6  1  0
  6  7  1  0
  7  8  2  0
  8  9  1  0
  9 10  2  0
 10 11  1  0
 11 12  1  0
 12 13  1  0
 13 14  2  0
 14 15  1  0
 15 16  1  0
 16 17  2  0
 17 18  1  0
 18 19  2  0
 19 20  1  0
 20 21  2  0
 15 22  2  0
 22 23  1  0
 10 24  1  0
 24  6  2  0
 23 13  1  0
 21 16  1  0
  1 25  1  0
  1 26  1  0
  4 27  1  0
  4 28  1  0
  7 29  1  0
  8 30  1  0
  9 31  1  0
 12 32  1  0
 12 33  1  0
 17 34  1  0
 18 35  1  0
 19 36  1  0
 20 37  1  0
 21 38  1  0
 22 39  1  0
 24 40  1  0
M  END
$$$$
OCNT-2310942
     RDKit          3D

 41 44  0  0  0  0  0  0  0  0999 V2000
   -4.5648    1.5540   -1.1600 C   0  0  0  0  0  0  0  0  0  0  0  0
   -3.3422    1.7627   -0.2630 C   0  0  0  0  0  0  0  0  0  0  0  0
   -3.6520    2.7572    0.8586 C   0  0  0  0  0  0  0  0  0  0  0  0
   -2.8231    0.4470    0.2867 C   0  0  0  0  0  0  0  0  0  0  0  0
   -3.5960   -0.3640    1.1192 C   0  0  0  0  0  0  0  0  0  0  0  0
   -3.0874   -1.5757    1.5993 C   0  0  0  0  0  0  0  0  0  0  0  0
   -1.8110   -2.0180    1.2800 C   0  0  0  0  0  0  0  0  0  0  0  0
   -1.3997   -3.1917    1.7695 N   0  0  0  0  0  0  0  0  0  0  0  0
   -0.1681   -3.5852    1.4288 C   0  0  0  0  0  0  0  0  0  0  0  0
    0.6929   -2.9143    0.6593 N   0  0  0  0  0  0  0  0  0  0  0  0
    0.2734   -1.7264    0.1834 C   0  0  0  0  0  0  0  0  0  0  0  0
    1.1749   -0.9628   -0.6207 N   0  0  0  0  0  0  0  0  0  0  0  0
    2.4244   -1.5130   -1.1197 C   0  0  0  0  0  0  0  0  0  0  0  0
    3.1586   -0.6524   -0.0974 C   0  0  0  0  0  0  0  0  0  0  0  0
    4.3221    0.0782   -0.6237 N   0  0  0  0  0  0  0  0  0  0  0  0
    4.3779    0.7993   -1.7885 C   0  0  0  0  0  0  0  0  0  0  0  0
    5.6525    1.3098   -1.8650 C   0  0  0  0  0  0  0  0  0  0  0  0
    6.2892    0.8492   -0.7001 C   0  0  0  0  0  0  0  0  0  0  0  0
    5.4835    0.1050    0.0598 N   0  0  0  0  0  0  0  0  0  0  0  0
    1.8759    0.1710   -0.0356 C   0  0  0  0  0  0  0  0  0  0  0  0
   -1.0121   -1.2160    0.4571 C   0  0  0  0  0  0  0  0  0  0  0  0
   -1.5328    0.0092   -0.0397 C   0  0  0  0  0  0  0  0  0  0  0  0
   -4.3402    0.8519   -1.9707 H   0  0  0  0  0  0  0  0  0  0  0  0
   -4.8754    2.5014   -1.6137 H   0  0  0  0  0  0  0  0  0  0  0  0
   -5.4196    1.1569   -0.6018 H   0  0  0  0  0  0  0  0  0  0  0  0
   -2.5589    2.2145   -0.8862 H   0  0  0  0  0  0  0  0  0  0  0  0
   -2.7736    2.9168    1.4939 H   0  0  0  0  0  0  0  0  0  0  0  0
   -3.9455    3.7271    0.4427 H   0  0  0  0  0  0  0  0  0  0  0  0
   -4.4692    2.4099    1.5002 H   0  0  0  0  0  0  0  0  0  0  0  0
   -4.6044   -0.0708    1.4026 H   0  0  0  0  0  0  0  0  0  0  0  0
   -3.7110   -2.1944    2.2414 H   0  0  0  0  0  0  0  0  0  0  0  0
    0.1649   -4.5414    1.8175 H   0  0  0  0  0  0  0  0  0  0  0  0
    2.5429   -2.5937   -1.0027 H   0  0  0  0  0  0  0  0  0  0  0  0
    2.5487   -1.2645   -2.1793 H   0  0  0  0  0  0  0  0  0  0  0  0
    3.3800   -1.1836    0.8378 H   0  0  0  0  0  0  0  0  0  0  0  0
    3.5302    0.8887   -2.4526 H   0  0  0  0  0  0  0  0  0  0  0  0
    6.0641    1.9282   -2.6498 H   0  0  0  0  0  0  0  0  0  0  0  0
    7.3057    1.0255   -0.3716 H   0  0  0  0  0  0  0  0  0  0  0  0
    1.7984    1.0475   -0.6874 H   0  0  0  0  0  0  0  0  0  0  0  0
    1.5428    0.4398    0.9717 H   0  0  0  0  0  0  0  0  0  0  0  0
   -0.9159    0.6174   -0.6986 H   0  0  0  0  0  0  0  0  0  0  0  0
  1  2  1  0
  2  3  1  0
  2  4  1  0
  4  5  1  0
  5  6  2  0
  6  7  1  0
  7  8  2  0
  8  9  1  0
  9 10  2  0
 10 11  1  0
 11 12  1  0
 12 13  1  0
 13 14  1  0
 14 15  1  0
 15 16  1  0
 16 17  2  0
 17 18  1  0
 18 19  2  0
 14 20  1  0
 11 21  2  0
 21 22  1  0
 22  4  2  0
 21  7  1  0
 20 12  1  0
 19 15  1  0
  1 23  1  0
  1 24  1  0
  1 25  1  0
  2 26  1  0
  3 27  1  0
  3 28  1  0
  3 29  1  0
  5 30  1  0
  6 31  1  0
  9 32  1  0
 13 33  1  0
 13 34  1  0
 14 35  1  0
 16 36  1  0
 17 37  1  0
 18 38  1  0
 20 39  1  0
 20 40  1  0
 22 41  1  0
M  END
$$$$
OCNT-2310944
     RDKit          3D

 38 41  0  0  0  0  0  0  0  0999 V2000
    4.2991   -2.4588   -0.8105 C   0  0  0  0  0  0  0  0  0  0  0  0
    5.3860   -1.6702   -0.5082 C   0  0  0  0  0  0  0  0  0  0  0  0
    4.9694   -0.3650    0.5142 S   0  0  0  0  0  0  0  0  0  0  0  0
    3.3193   -0.8348    0.5493 C   0  0  0  0  0  0  0  0  0  0  0  0
    2.3146   -0.0444    1.3476 C   0  0  0  0  0  0  0  0  0  0  0  0
    2.0241    1.2835    0.7709 N   0  0  0  0  0  0  0  0  0  0  0  0
    1.1138    2.0345    1.6757 C   0  0  0  0  0  0  0  0  0  0  0  0
   -0.3767    2.1251    1.2506 C   0  0  0  0  0  0  0  0  0  0  0  0
   -0.8036    0.8807    0.5898 N   0  0  0  0  0  0  0  0  0  0  0  0
   -2.1864    0.8057    0.3530 C   0  0  0  0  0  0  0  0  0  0  0  0
   -2.9635    1.9104    0.5262 N   0  0  0  0  0  0  0  0  0  0  0  0
   -4.2870    1.8334    0.2859 C   0  0  0  0  0  0  0  0  0  0  0  0
   -4.9964    0.7682   -0.1158 N   0  0  0  0  0  0  0  0  0  0  0  0
   -4.2118   -0.3091   -0.2500 C   0  0  0  0  0  0  0  0  0  0  0  0
   -2.8426   -0.3834   -0.0392 C   0  0  0  0  0  0  0  0  0  0  0  0
   -2.4787   -1.7434   -0.2735 C   0  0  0  0  0  0  0  0  0  0  0  0
   -3.6157   -2.4334   -0.6395 C   0  0  0  0  0  0  0  0  0  0  0  0
   -4.6604   -1.5463   -0.6234 N   0  0  0  0  0  0  0  0  0  0  0  0
   -0.0003    0.5325   -0.6026 C   0  0  0  0  0  0  0  0  0  0  0  0
    1.4020    1.1939   -0.5673 C   0  0  0  0  0  0  0  0  0  0  0  0
    3.1065   -1.9799   -0.1958 C   0  0  0  0  0  0  0  0  0  0  0  0
    4.3581   -3.3380   -1.4400 H   0  0  0  0  0  0  0  0  0  0  0  0
    6.4090   -1.7973   -0.8343 H   0  0  0  0  0  0  0  0  0  0  0  0
    1.4008   -0.6385    1.4759 H   0  0  0  0  0  0  0  0  0  0  0  0
    2.7345    0.0849    2.3550 H   0  0  0  0  0  0  0  0  0  0  0  0
    1.1637    1.6343    2.6971 H   0  0  0  0  0  0  0  0  0  0  0  0
    1.4981    3.0592    1.7554 H   0  0  0  0  0  0  0  0  0  0  0  0
   -0.9727    2.3170    2.1520 H   0  0  0  0  0  0  0  0  0  0  0  0
   -0.5060    2.9783    0.5706 H   0  0  0  0  0  0  0  0  0  0  0  0
   -4.8482    2.7507    0.4353 H   0  0  0  0  0  0  0  0  0  0  0  0
   -1.4912   -2.1722   -0.1714 H   0  0  0  0  0  0  0  0  0  0  0  0
   -3.7725   -3.4725   -0.8968 H   0  0  0  0  0  0  0  0  0  0  0  0
   -5.6265   -1.7515   -0.8327 H   0  0  0  0  0  0  0  0  0  0  0  0
    0.1286   -0.5542   -0.6395 H   0  0  0  0  0  0  0  0  0  0  0  0
   -0.4995    0.8452   -1.5293 H   0  0  0  0  0  0  0  0  0  0  0  0
    1.3123    2.2174   -0.9577 H   0  0  0  0  0  0  0  0  0  0  0  0
    2.0629    0.6902   -1.2822 H   0  0  0  0  0  0  0  0  0  0  0  0
    2.1369   -2.4523   -0.2961 H   0  0  0  0  0  0  0  0  0  0  0  0
  1  2  2  0
  2  3  1  0
  3  4  1  0
  4  5  1  0
  5  6  1  0
  6  7  1  0
  7  8  1  0
  8  9  1  0
  9 10  1  0
 10 11  1  0
 11 12  2  0
 12 13  1  0
 13 14  2  0
 14 15  1  0
 15 16  1  0
 16 17  2  0
 17 18  1  0
  9 19  1  0
 19 20  1  0
  4 21  2  0
 21  1  1  0
 20  6  1  0
 15 10  2  0
 18 14  1  0
  1 22  1  0
  2 23  1  0
  5 24  1  0
  5 25  1  0
  7 26  1  0
  7 27  1  0
  8 28  1  0
  8 29  1  0
 12 30  1  0
 16 31  1  0
 17 32  1  0
 18 33  1  0
 19 34  1  0
 19 35  1  0
 20 36  1  0
 20 37  1  0
 21 38  1  0
M  END
$$$$
OCNT-2310948
     RDKit          3D

 44 47  0  0  0  0  0  0  0  0999 V2000
    7.1935    3.1851    0.5183 O   0  0  0  0  0  0  0  0  0  0  0  0
    6.3184    2.4104    0.1773 C   0  0  0  0  0  0  0  0  0  0  0  0
    5.7568    1.3929    0.9631 N   0  0  0  0  0  0  0  0  0  0  0  0
    4.7955    0.7406    0.2015 C   0  0  0  0  0  0  0  0  0  0  0  0
    3.9741   -0.3134    0.5114 C   0  0  0  0  0  0  0  0  0  0  0  0
    3.0987   -0.7304   -0.5005 C   0  0  0  0  0  0  0  0  0  0  0  0
    2.1878   -1.8686   -0.2365 C   0  0  0  0  0  0  0  0  0  0  0  0
    2.4777   -2.6880    0.6282 O   0  0  0  0  0  0  0  0  0  0  0  0
    1.0242   -1.9176   -0.9717 N   0  0  0  0  0  0  0  0  0  0  0  0
   -0.0155   -2.8729   -0.6340 C   0  0  0  0  0  0  0  0  0  0  0  0
   -0.9823   -2.2800    0.3624 C   0  0  0  0  0  0  0  0  0  0  0  0
   -0.9045   -2.6147    1.7067 C   0  0  0  0  0  0  0  0  0  0  0  0
   -1.7977   -2.0185    2.5818 C   0  0  0  0  0  0  0  0  0  0  0  0
   -2.7217   -1.0990    2.0892 C   0  0  0  0  0  0  0  0  0  0  0  0
   -2.7339   -0.7716    0.7332 C   0  0  0  0  0  0  0  0  0  0  0  0
   -3.6569    0.1343    0.2252 N   0  0  0  0  0  0  0  0  0  0  0  0
   -3.6898    0.2805   -1.2384 C   0  0  0  0  0  0  0  0  0  0  0  0
   -4.8004    1.2696   -1.6244 C   0  0  0  0  0  0  0  0  0  0  0  0
   -4.6225    2.5866   -1.0775 O   0  0  0  0  0  0  0  0  0  0  0  0
   -3.7978    2.6068    0.0957 C   0  0  0  0  0  0  0  0  0  0  0  0
   -3.9527    1.3610    0.9853 C   0  0  0  0  0  0  0  0  0  0  0  0
   -1.8710   -1.3687   -0.1191 N   0  0  0  0  0  0  0  0  0  0  0  0
    3.1329   -0.0776   -1.7472 C   0  0  0  0  0  0  0  0  0  0  0  0
    3.9447    0.9731   -2.0554 N   0  0  0  0  0  0  0  0  0  0  0  0
    4.7477    1.3380   -1.0546 C   0  0  0  0  0  0  0  0  0  0  0  0
    5.6805    2.3611   -1.0650 N   0  0  0  0  0  0  0  0  0  0  0  0
    6.0338    1.1959    1.9115 H   0  0  0  0  0  0  0  0  0  0  0  0
    3.9959   -0.7974    1.4807 H   0  0  0  0  0  0  0  0  0  0  0  0
    0.6798   -1.0719   -1.4078 H   0  0  0  0  0  0  0  0  0  0  0  0
    0.4238   -3.8038   -0.2591 H   0  0  0  0  0  0  0  0  0  0  0  0
   -0.5521   -3.1060   -1.5602 H   0  0  0  0  0  0  0  0  0  0  0  0
   -0.1624   -3.3211    2.0661 H   0  0  0  0  0  0  0  0  0  0  0  0
   -1.7819   -2.2672    3.6387 H   0  0  0  0  0  0  0  0  0  0  0  0
   -3.4423   -0.6602    2.7708 H   0  0  0  0  0  0  0  0  0  0  0  0
   -2.7261    0.6582   -1.6035 H   0  0  0  0  0  0  0  0  0  0  0  0
   -3.8950   -0.6852   -1.7153 H   0  0  0  0  0  0  0  0  0  0  0  0
   -5.7738    0.9013   -1.2797 H   0  0  0  0  0  0  0  0  0  0  0  0
   -4.8551    1.3713   -2.7129 H   0  0  0  0  0  0  0  0  0  0  0  0
   -2.7561    2.7181   -0.2282 H   0  0  0  0  0  0  0  0  0  0  0  0
   -4.0578    3.5062    0.6631 H   0  0  0  0  0  0  0  0  0  0  0  0
   -3.3014    1.4847    1.8580 H   0  0  0  0  0  0  0  0  0  0  0  0
   -4.9875    1.2937    1.3404 H   0  0  0  0  0  0  0  0  0  0  0  0
    2.5022   -0.4002   -2.5720 H   0  0  0  0  0  0  0  0  0  0  0  0
    5.8704    2.9647   -1.8456 H   0  0  0  0  0  0  0  0  0  0  0  0
  1  2  2  0
  2  3  1  0
  3  4  1  0
  4  5  1  0
  5  6  2  0
  6  7  1  0
  7  8  2  0
  7  9  1  0
  9 10  1  0
 10 11  1  0
 11 12  2  0
 12 13  1  0
 13 14  2  0
 14 15  1  0
 15 16  1  0
 16 17  1  0
 17 18  1  0
 18 19  1  0
 19 20  1  0
 20 21  1  0
 15 22  2  0
  6 23  1  0
 23 24  2  0
 24 25  1  0
 25 26  1  0
 26  2  1  0
 25  4  2  0
 22 11  1  0
 21 16  1  0
  3 27  1  0
  5 28  1  0
  9 29  1  0
 10 30  1  0
 10 31  1  0
 12 32  1  0
 13 33  1  0
 14 34  1  0
 17 35  1  0
 17 36  1  0
 18 37  1  0
 18 38  1  0
 20 39  1  0
 20 40  1  0
 21 41  1  0
 21 42  1  0
 23 43  1  0
 26 44  1  0
M  END
$$$$
OCNT-2310953
     RDKit          3D

 44 48  0  0  0  0  0  0  0  0999 V2000
   -6.1010    1.3667   -0.0646 C   0  0  0  0  0  0  0  0  0  0  0  0
   -5.6336    0.7902   -1.2770 O   0  0  0  0  0  0  0  0  0  0  0  0
   -4.3212    0.4055   -1.3168 C   0  0  0  0  0  0  0  0  0  0  0  0
   -3.9216   -0.1676   -2.5206 C   0  0  0  0  0  0  0  0  0  0  0  0
   -2.6097   -0.6004   -2.6913 C   0  0  0  0  0  0  0  0  0  0  0  0
   -1.6755   -0.4655   -1.6521 C   0  0  0  0  0  0  0  0  0  0  0  0
   -0.2550   -0.9299   -1.8939 C   0  0  0  0  0  0  0  0  0  0  0  0
    0.6789   -0.7407   -0.7892 N   0  0  0  0  0  0  0  0  0  0  0  0
    1.9008   -1.4014   -0.8986 C   0  0  0  0  0  0  0  0  0  0  0  0
    2.1130   -2.2914   -1.7229 O   0  0  0  0  0  0  0  0  0  0  0  0
    2.9966   -1.1025    0.0324 C   0  0  0  0  0  0  0  0  0  0  0  0
    3.4962   -2.1358    0.8398 C   0  0  0  0  0  0  0  0  0  0  0  0
    4.5659   -1.8925    1.6920 C   0  0  0  0  0  0  0  0  0  0  0  0
    5.0218   -2.8878    2.4645 F   0  0  0  0  0  0  0  0  0  0  0  0
    5.1881   -0.6443    1.7697 C   0  0  0  0  0  0  0  0  0  0  0  0
    4.6852    0.3588    0.9371 C   0  0  0  0  0  0  0  0  0  0  0  0
    3.6103    0.1642    0.0683 C   0  0  0  0  0  0  0  0  0  0  0  0
    3.3395    1.3280   -0.6188 N   0  0  0  0  0  0  0  0  0  0  0  0
    4.2248    2.2019   -0.2003 C   0  0  0  0  0  0  0  0  0  0  0  0
    5.0565    1.6653    0.7402 N   0  0  0  0  0  0  0  0  0  0  0  0
    0.4076    0.3597    0.1302 C   0  0  0  0  0  0  0  0  0  0  0  0
   -1.0032    0.2218    0.6751 C   0  0  0  0  0  0  0  0  0  0  0  0
   -1.2863    0.8452    2.0291 C   0  0  0  0  0  0  0  0  0  0  0  0
   -1.1951   -0.6472    1.9093 C   0  0  0  0  0  0  0  0  0  0  0  0
   -2.0552    0.1076   -0.4201 C   0  0  0  0  0  0  0  0  0  0  0  0
   -3.3911    0.5400   -0.2813 C   0  0  0  0  0  0  0  0  0  0  0  0
   -6.0229    0.6576    0.7662 H   0  0  0  0  0  0  0  0  0  0  0  0
   -5.5720    2.2991    0.1588 H   0  0  0  0  0  0  0  0  0  0  0  0
   -7.1600    1.6089   -0.1962 H   0  0  0  0  0  0  0  0  0  0  0  0
   -4.6370   -0.2768   -3.3317 H   0  0  0  0  0  0  0  0  0  0  0  0
   -2.3144   -1.0428   -3.6404 H   0  0  0  0  0  0  0  0  0  0  0  0
    0.1543   -0.3744   -2.7475 H   0  0  0  0  0  0  0  0  0  0  0  0
   -0.2740   -1.9936   -2.1610 H   0  0  0  0  0  0  0  0  0  0  0  0
    3.0563   -3.1282    0.7961 H   0  0  0  0  0  0  0  0  0  0  0  0
    6.0256   -0.4839    2.4386 H   0  0  0  0  0  0  0  0  0  0  0  0
    4.3130    3.2264   -0.5384 H   0  0  0  0  0  0  0  0  0  0  0  0
    5.8170    2.1449    1.2008 H   0  0  0  0  0  0  0  0  0  0  0  0
    0.5183    1.3027   -0.4184 H   0  0  0  0  0  0  0  0  0  0  0  0
    1.1219    0.3654    0.9571 H   0  0  0  0  0  0  0  0  0  0  0  0
   -0.4782    1.3596    2.5398 H   0  0  0  0  0  0  0  0  0  0  0  0
   -2.2542    1.2756    2.2491 H   0  0  0  0  0  0  0  0  0  0  0  0
   -0.3277   -1.1459    2.3272 H   0  0  0  0  0  0  0  0  0  0  0  0
   -2.1092   -1.2241    1.9995 H   0  0  0  0  0  0  0  0  0  0  0  0
   -3.6930    0.9817    0.6601 H   0  0  0  0  0  0  0  0  0  0  0  0
  1  2  1  0
  2  3  1  0
  3  4  1  0
  4  5  2  0
  5  6  1  0
  6  7  1  0
  7  8  1  0
  8  9  1  0
  9 10  2  0
  9 11  1  0
 11 12  1  0
 12 13  2  0
 13 14  1  0
 13 15  1  0
 15 16  2  0
 16 17  1  0
 17 18  1  0
 18 19  2  0
 19 20  1  0
  8 21  1  0
 21 22  1  0
 22 23  1  0
 23 24  1  0
 22 25  1  0
 25 26  1  0
 26  3  2  0
 25  6  2  0
 17 11  2  0
 24 22  1  0
 20 16  1  0
  1 27  1  0
  1 28  1  0
  1 29  1  0
  4 30  1  0
  5 31  1  0
  7 32  1  0
  7 33  1  0
 12 34  1  0
 15 35  1  0
 19 36  1  0
 20 37  1  0
 21 38  1  0
 21 39  1  0
 23 40  1  0
 23 41  1  0
 24 42  1  0
 24 43  1  0
 26 44  1  0
M  END
$$$$
OCNT-2310956
     RDKit          3D

 39 42  0  0  0  0  0  0  0  0999 V2000
    7.1268    0.9326   -0.3366 C   0  0  0  0  0  0  0  0  0  0  0  0
    5.7612    0.3782   -0.4294 C   0  0  0  0  0  0  0  0  0  0  0  0
    4.6809    1.0787   -0.0656 N   0  0  0  0  0  0  0  0  0  0  0  0
    3.6924    0.2052   -0.3142 N   0  0  0  0  0  0  0  0  0  0  0  0
    2.4028    0.5310   -0.0877 N   0  0  0  0  0  0  0  0  0  0  0  0
    1.5452   -0.4098   -0.3919 C   0  0  0  0  0  0  0  0  0  0  0  0
    0.1795   -0.1721   -0.2022 N   0  0  0  0  0  0  0  0  0  0  0  0
   -0.2041    1.0028    0.6079 C   0  0  0  0  0  0  0  0  0  0  0  0
   -1.6075    0.8139    1.1773 C   0  0  0  0  0  0  0  0  0  0  0  0
   -2.6173    0.5405    0.0565 C   0  0  0  0  0  0  0  0  0  0  0  0
   -4.0256    0.3459    0.5760 C   0  0  0  0  0  0  0  0  0  0  0  0
   -4.3448   -0.6449    1.4883 C   0  0  0  0  0  0  0  0  0  0  0  0
   -5.6644   -0.7215    1.8762 C   0  0  0  0  0  0  0  0  0  0  0  0
   -6.6235    0.0996    1.4165 N   0  0  0  0  0  0  0  0  0  0  0  0
   -6.2161    1.0235    0.5359 C   0  0  0  0  0  0  0  0  0  0  0  0
   -4.9611    1.1889    0.0870 N   0  0  0  0  0  0  0  0  0  0  0  0
   -2.1585   -0.6474   -0.7975 C   0  0  0  0  0  0  0  0  0  0  0  0
   -0.7452   -0.4169   -1.3223 C   0  0  0  0  0  0  0  0  0  0  0  0
    1.9856   -1.7568   -0.9138 C   0  0  0  0  0  0  0  0  0  0  0  0
    3.2884   -1.9934   -1.1096 C   0  0  0  0  0  0  0  0  0  0  0  0
    4.2070   -0.9728   -0.8108 C   0  0  0  0  0  0  0  0  0  0  0  0
    5.5158   -0.8899   -0.8942 N   0  0  0  0  0  0  0  0  0  0  0  0
    7.3655    1.1952    0.6987 H   0  0  0  0  0  0  0  0  0  0  0  0
    7.8678    0.2052   -0.6821 H   0  0  0  0  0  0  0  0  0  0  0  0
    7.2196    1.8315   -0.9538 H   0  0  0  0  0  0  0  0  0  0  0  0
    0.4835    1.1288    1.4531 H   0  0  0  0  0  0  0  0  0  0  0  0
   -0.1532    1.9123   -0.0034 H   0  0  0  0  0  0  0  0  0  0  0  0
   -1.8986    1.7083    1.7416 H   0  0  0  0  0  0  0  0  0  0  0  0
   -1.5900   -0.0188    1.8921 H   0  0  0  0  0  0  0  0  0  0  0  0
   -2.6306    1.4278   -0.5936 H   0  0  0  0  0  0  0  0  0  0  0  0
   -3.6094   -1.3319    1.8849 H   0  0  0  0  0  0  0  0  0  0  0  0
   -5.9966   -1.4699    2.5898 H   0  0  0  0  0  0  0  0  0  0  0  0
   -6.9694    1.7006    0.1487 H   0  0  0  0  0  0  0  0  0  0  0  0
   -2.8432   -0.7952   -1.6417 H   0  0  0  0  0  0  0  0  0  0  0  0
   -2.1768   -1.5739   -0.2089 H   0  0  0  0  0  0  0  0  0  0  0  0
   -0.4505   -1.2954   -1.9048 H   0  0  0  0  0  0  0  0  0  0  0  0
   -0.7250    0.4397   -2.0078 H   0  0  0  0  0  0  0  0  0  0  0  0
    1.2357   -2.5161   -1.0881 H   0  0  0  0  0  0  0  0  0  0  0  0
    3.6534   -2.9470   -1.4707 H   0  0  0  0  0  0  0  0  0  0  0  0
  1  2  1  0
  2  3  2  0
  3  4  1  0
  4  5  1  0
  5  6  2  0
  6  7  1  0
  7  8  1  0
  8  9  1  0
  9 10  1  0
 10 11  1  0
 11 12  1  0
 12 13  2  0
 13 14  1  0
 14 15  2  0
 15 16  1  0
 10 17  1  0
 17 18  1  0
  6 19  1  0
 19 20  2  0
 20 21  1  0
 21 22  2  0
 22  2  1  0
 21  4  1  0
 18  7  1  0
 16 11  2  0
  1 23  1  0
  1 24  1  0
  1 25  1  0
  8 26  1  0
  8 27  1  0
  9 28  1  0
  9 29  1  0
 10 30  1  0
 12 31  1  0
 13 32  1  0
 15 33  1  0
 17 34  1  0
 17 35  1  0
 18 36  1  0
 18 37  1  0
 19 38  1  0
 20 39  1  0
M  END
$$$$
OCNT-2310962
     RDKit          3D

 39 41  0  0  0  0  0  0  0  0999 V2000
    5.1588    3.1247    1.0001 N   0  0  0  0  0  0  0  0  0  0  0  0
    5.9100    1.9852    0.9239 C   0  0  0  0  0  0  0  0  0  0  0  0
    6.8610    1.9003    0.1540 O   0  0  0  0  0  0  0  0  0  0  0  0
    5.5066    0.8724    1.8896 C   0  0  0  0  0  0  0  0  0  0  0  0
    4.1052    0.8014    2.1268 O   0  0  0  0  0  0  0  0  0  0  0  0
    3.3230    0.1845    1.1895 C   0  0  0  0  0  0  0  0  0  0  0  0
    3.7454   -0.3002   -0.0492 C   0  0  0  0  0  0  0  0  0  0  0  0
    2.8322   -0.9106   -0.9146 C   0  0  0  0  0  0  0  0  0  0  0  0
    1.4897   -1.0307   -0.5537 C   0  0  0  0  0  0  0  0  0  0  0  0
    1.0534   -0.5282    0.6773 C   0  0  0  0  0  0  0  0  0  0  0  0
   -0.3691   -0.6287    1.1148 C   0  0  0  0  0  0  0  0  0  0  0  0
   -0.6058   -0.7249    2.3134 O   0  0  0  0  0  0  0  0  0  0  0  0
   -1.2971   -0.5690    0.0992 N   0  0  0  0  0  0  0  0  0  0  0  0
   -2.7082   -0.6663    0.1863 C   0  0  0  0  0  0  0  0  0  0  0  0
   -3.3907   -0.9141    1.3812 C   0  0  0  0  0  0  0  0  0  0  0  0
   -4.7812   -0.9989    1.3883 C   0  0  0  0  0  0  0  0  0  0  0  0
   -5.4927   -0.8388    0.2030 C   0  0  0  0  0  0  0  0  0  0  0  0
   -4.8149   -0.5938   -1.0015 C   0  0  0  0  0  0  0  0  0  0  0  0
   -5.5084   -0.4314   -2.2083 C   0  0  0  0  0  0  0  0  0  0  0  0
   -4.8083   -0.1912   -3.3835 C   0  0  0  0  0  0  0  0  0  0  0  0
   -3.4309   -0.1214   -3.3146 C   0  0  0  0  0  0  0  0  0  0  0  0
   -2.7240   -0.2728   -2.1728 N   0  0  0  0  0  0  0  0  0  0  0  0
   -3.4059   -0.5056   -1.0230 C   0  0  0  0  0  0  0  0  0  0  0  0
    1.9772    0.0659    1.5472 C   0  0  0  0  0  0  0  0  0  0  0  0
    4.2343    3.0778    1.4134 H   0  0  0  0  0  0  0  0  0  0  0  0
    5.3311    3.8352    0.3013 H   0  0  0  0  0  0  0  0  0  0  0  0
    5.9104   -0.0907    1.5571 H   0  0  0  0  0  0  0  0  0  0  0  0
    5.9849    1.0992    2.8492 H   0  0  0  0  0  0  0  0  0  0  0  0
    4.7776   -0.2268   -0.3793 H   0  0  0  0  0  0  0  0  0  0  0  0
    3.1736   -1.3002   -1.8714 H   0  0  0  0  0  0  0  0  0  0  0  0
    0.8083   -1.5393   -1.2307 H   0  0  0  0  0  0  0  0  0  0  0  0
   -0.9872   -0.3687   -0.8490 H   0  0  0  0  0  0  0  0  0  0  0  0
   -2.8629   -1.0469    2.3204 H   0  0  0  0  0  0  0  0  0  0  0  0
   -5.3062   -1.1906    2.3211 H   0  0  0  0  0  0  0  0  0  0  0  0
   -6.5780   -0.9076    0.2247 H   0  0  0  0  0  0  0  0  0  0  0  0
   -6.5936   -0.4912   -2.2371 H   0  0  0  0  0  0  0  0  0  0  0  0
   -5.3251   -0.0620   -4.3277 H   0  0  0  0  0  0  0  0  0  0  0  0
   -2.8370    0.0647   -4.2053 H   0  0  0  0  0  0  0  0  0  0  0  0
    1.6442    0.4394    2.5143 H   0  0  0  0  0  0  0  0  0  0  0  0
  1  2  1  0
  2  3  2  0
  2  4  1  0
  4  5  1  0
  5  6  1  0
  6  7  1  0
  7  8  2  0
  8  9  1  0
  9 10  2  0
 10 11  1  0
 11 12  2  0
 11 13  1  0
 13 14  1  0
 14 15  1  0
 15 16  2  0
 16 17  1  0
 17 18  2  0
 18 19  1  0
 19 20  2  0
 20 21  1  0
 21 22  2  0
 22 23  1  0
 10 24  1  0
 24  6  2  0
 23 14  2  0
 23 18  1  0
  1 25  1  0
  1 26  1  0
  4 27  1  0
  4 28  1  0
  7 29  1  0
  8 30  1  0
  9 31  1  0
 13 32  1  0
 15 33  1  0
 16 34  1  0
 17 35  1  0
 19 36  1  0
 20 37  1  0
 21 38  1  0
 24 39  1  0
M  END
$$$$
OCNT-2310967
     RDKit          3D

 41 43  0  0  0  0  0  0  0  0999 V2000
   -2.8030    3.4883    0.9799 C   0  0  0  0  0  0  0  0  0  0  0  0
   -3.7908    3.0946    0.0195 O   0  0  0  0  0  0  0  0  0  0  0  0
   -3.7885    1.7846   -0.3237 C   0  0  0  0  0  0  0  0  0  0  0  0
   -2.9597    0.9230    0.1595 N   0  0  0  0  0  0  0  0  0  0  0  0
   -3.1585   -0.3328   -0.3369 N   0  0  0  0  0  0  0  0  0  0  0  0
   -2.4310   -1.4632   -0.0282 C   0  0  0  0  0  0  0  0  0  0  0  0
   -1.3540   -1.5242    0.9236 C   0  0  0  0  0  0  0  0  0  0  0  0
   -1.1946   -0.7240    1.8400 O   0  0  0  0  0  0  0  0  0  0  0  0
   -0.4792   -2.5756    0.7280 N   0  0  0  0  0  0  0  0  0  0  0  0
    0.7310   -2.7026    1.5070 C   0  0  0  0  0  0  0  0  0  0  0  0
    1.9050   -2.1151    0.7716 C   0  0  0  0  0  0  0  0  0  0  0  0
    2.7838   -2.9243    0.0472 C   0  0  0  0  0  0  0  0  0  0  0  0
    3.8343   -2.3230   -0.6296 C   0  0  0  0  0  0  0  0  0  0  0  0
    4.0616   -0.9924   -0.6402 N   0  0  0  0  0  0  0  0  0  0  0  0
    3.1971   -0.2277    0.0590 C   0  0  0  0  0  0  0  0  0  0  0  0
    3.3651    1.1404    0.0876 O   0  0  0  0  0  0  0  0  0  0  0  0
    4.4959    1.5808   -0.6762 C   0  0  0  0  0  0  0  0  0  0  0  0
    4.6196    3.0910   -0.6079 C   0  0  0  0  0  0  0  0  0  0  0  0
    5.6867    3.5135   -1.3284 F   0  0  0  0  0  0  0  0  0  0  0  0
    3.5277    3.7093   -1.1113 F   0  0  0  0  0  0  0  0  0  0  0  0
    4.7963    3.5254    0.6601 F   0  0  0  0  0  0  0  0  0  0  0  0
    2.1204   -0.7330    0.7688 C   0  0  0  0  0  0  0  0  0  0  0  0
   -2.9965   -2.4556   -0.8101 C   0  0  0  0  0  0  0  0  0  0  0  0
   -4.0223   -1.9819   -1.5831 N   0  0  0  0  0  0  0  0  0  0  0  0
   -4.1089   -0.7056   -1.2812 C   0  0  0  0  0  0  0  0  0  0  0  0
   -4.9846    0.2963   -1.7614 C   0  0  0  0  0  0  0  0  0  0  0  0
   -4.8606    1.5501   -1.3087 C   0  0  0  0  0  0  0  0  0  0  0  0
   -2.9532    2.9563    1.9244 H   0  0  0  0  0  0  0  0  0  0  0  0
   -2.9219    4.5596    1.1640 H   0  0  0  0  0  0  0  0  0  0  0  0
   -1.7963    3.3145    0.5871 H   0  0  0  0  0  0  0  0  0  0  0  0
   -0.5264   -3.0891   -0.1390 H   0  0  0  0  0  0  0  0  0  0  0  0
    0.6200   -2.2268    2.4878 H   0  0  0  0  0  0  0  0  0  0  0  0
    0.8890   -3.7723    1.6840 H   0  0  0  0  0  0  0  0  0  0  0  0
    2.6615   -4.0017    0.0073 H   0  0  0  0  0  0  0  0  0  0  0  0
    4.5424   -2.9171   -1.2009 H   0  0  0  0  0  0  0  0  0  0  0  0
    5.4157    1.1390   -0.2738 H   0  0  0  0  0  0  0  0  0  0  0  0
    4.3755    1.2907   -1.7272 H   0  0  0  0  0  0  0  0  0  0  0  0
    1.4576   -0.0599    1.3058 H   0  0  0  0  0  0  0  0  0  0  0  0
   -2.7255   -3.5033   -0.8465 H   0  0  0  0  0  0  0  0  0  0  0  0
   -5.7403    0.0250   -2.4891 H   0  0  0  0  0  0  0  0  0  0  0  0
   -5.4904    2.3688   -1.6269 H   0  0  0  0  0  0  0  0  0  0  0  0
  1  2  1  0
  2  3  1  0
  3  4  2  0
  4  5  1  0
  5  6  1  0
  6  7  1  0
  7  8  2  0
  7  9  1  0
  9 10  1  0
 10 11  1  0
 11 12  2  0
 12 13  1  0
 13 14  2  0
 14 15  1  0
 15 16  1  0
 16 17  1  0
 17 18  1  0
 18 19  1  0
 18 20  1  0
 18 21  1  0
 15 22  2  0
  6 23  2  0
 23 24  1  0
 24 25  2  0
 25 26  1  0
 26 27  2  0
 27  3  1  0
 25  5  1  0
 22 11  1  0
  1 28  1  0
  1 29  1  0
  1 30  1  0
  9 31  1  0
 10 32  1  0
 10 33  1  0
 12 34  1  0
 13 35  1  0
 17 36  1  0
 17 37  1  0
 22 38  1  0
 23 39  1  0
 26 40  1  0
 27 41  1  0
M  END
$$$$
OCNT-2310968
     RDKit          3D

 54 57  0  0  0  0  0  0  0  0999 V2000
    0.0534   -1.0336   -2.9926 O   0  0  0  0  0  0  0  0  0  0  0  0
    0.4569   -1.2006   -1.8444 C   0  0  0  0  0  0  0  0  0  0  0  0
   -0.1896   -2.0288   -0.9625 N   0  0  0  0  0  0  0  0  0  0  0  0
   -1.4395   -2.6646   -1.3194 C   0  0  0  0  0  0  0  0  0  0  0  0
   -2.6149   -1.8703   -0.8060 C   0  0  0  0  0  0  0  0  0  0  0  0
   -3.2458   -2.2153    0.3963 C   0  0  0  0  0  0  0  0  0  0  0  0
   -4.3174   -1.4585    0.8788 C   0  0  0  0  0  0  0  0  0  0  0  0
   -4.7722   -0.3368    0.1714 C   0  0  0  0  0  0  0  0  0  0  0  0
   -5.9205    0.4916    0.6922 C   0  0  0  0  0  0  0  0  0  0  0  0
   -5.4841    1.8083    1.1206 N   0  0  0  0  0  0  0  0  0  0  0  0
   -4.6561    2.1160    2.1559 C   0  0  0  0  0  0  0  0  0  0  0  0
   -4.5368    3.4202    2.2510 N   0  0  0  0  0  0  0  0  0  0  0  0
   -5.3287    3.8742    1.2349 C   0  0  0  0  0  0  0  0  0  0  0  0
   -5.9404    2.9263    0.5199 N   0  0  0  0  0  0  0  0  0  0  0  0
   -4.1377    0.0096   -1.0299 C   0  0  0  0  0  0  0  0  0  0  0  0
   -3.0683   -0.7477   -1.5107 C   0  0  0  0  0  0  0  0  0  0  0  0
    1.6061   -0.5930   -1.3498 N   0  0  0  0  0  0  0  0  0  0  0  0
    2.2496    0.4142   -2.1835 C   0  0  0  0  0  0  0  0  0  0  0  0
    3.7695    0.2917   -2.2039 C   0  0  0  0  0  0  0  0  0  0  0  0
    4.3642   -0.3552   -0.9541 C   0  0  0  0  0  0  0  0  0  0  0  0
    3.4993   -0.1643    0.3105 C   0  0  0  0  0  0  0  0  0  0  0  0
    3.4167    1.3403    0.6936 C   0  0  0  0  0  0  0  0  0  0  0  0
    3.3585    1.5352    2.2046 C   0  0  0  0  0  0  0  0  0  0  0  0
    4.5181    1.0374    2.8688 O   0  0  0  0  0  0  0  0  0  0  0  0
    5.1302   -0.0959    2.2564 C   0  0  0  0  0  0  0  0  0  0  0  0
    4.1299   -0.9522    1.4928 C   0  0  0  0  0  0  0  0  0  0  0  0
    2.0951   -0.7578    0.0233 C   0  0  0  0  0  0  0  0  0  0  0  0
   -0.0844   -1.8155    0.0135 H   0  0  0  0  0  0  0  0  0  0  0  0
   -1.4315   -3.6616   -0.8648 H   0  0  0  0  0  0  0  0  0  0  0  0
   -1.5170   -2.8058   -2.4031 H   0  0  0  0  0  0  0  0  0  0  0  0
   -2.9087   -3.0798    0.9644 H   0  0  0  0  0  0  0  0  0  0  0  0
   -4.7911   -1.7558    1.8123 H   0  0  0  0  0  0  0  0  0  0  0  0
   -6.6831    0.6110   -0.0862 H   0  0  0  0  0  0  0  0  0  0  0  0
   -6.4007    0.0188    1.5564 H   0  0  0  0  0  0  0  0  0  0  0  0
   -4.1806    1.3765    2.7844 H   0  0  0  0  0  0  0  0  0  0  0  0
   -5.4651    4.9248    1.0121 H   0  0  0  0  0  0  0  0  0  0  0  0
   -4.4659    0.8798   -1.5978 H   0  0  0  0  0  0  0  0  0  0  0  0
   -2.5811   -0.4543   -2.4407 H   0  0  0  0  0  0  0  0  0  0  0  0
    1.9473    1.3923   -1.7942 H   0  0  0  0  0  0  0  0  0  0  0  0
    1.8786    0.3826   -3.2136 H   0  0  0  0  0  0  0  0  0  0  0  0
    4.0761   -0.3011   -3.0752 H   0  0  0  0  0  0  0  0  0  0  0  0
    4.2015    1.2887   -2.3545 H   0  0  0  0  0  0  0  0  0  0  0  0
    4.4742   -1.4306   -1.1508 H   0  0  0  0  0  0  0  0  0  0  0  0
    5.3817    0.0236   -0.7991 H   0  0  0  0  0  0  0  0  0  0  0  0
    2.5464    1.8265    0.2435 H   0  0  0  0  0  0  0  0  0  0  0  0
    4.3064    1.8641    0.3207 H   0  0  0  0  0  0  0  0  0  0  0  0
    3.2773    2.6008    2.4441 H   0  0  0  0  0  0  0  0  0  0  0  0
    2.4761    1.0431    2.6298 H   0  0  0  0  0  0  0  0  0  0  0  0
    5.9326    0.2574    1.5997 H   0  0  0  0  0  0  0  0  0  0  0  0
    5.6007   -0.6830    3.0518 H   0  0  0  0  0  0  0  0  0  0  0  0
    3.3412   -1.2589    2.1932 H   0  0  0  0  0  0  0  0  0  0  0  0
    4.6125   -1.8709    1.1392 H   0  0  0  0  0  0  0  0  0  0  0  0
    1.3492   -0.3246    0.7013 H   0  0  0  0  0  0  0  0  0  0  0  0
    2.1119   -1.8384    0.2147 H   0  0  0  0  0  0  0  0  0  0  0  0
  1  2  2  0
  2  3  1  0
  3  4  1  0
  4  5  1  0
  5  6  1  0
  6  7  2  0
  7  8  1  0
  8  9  1  0
  9 10  1  0
 10 11  1  0
 11 12  2  0
 12 13  1  0
 13 14  2  0
  8 15  2  0
 15 16  1  0
  2 17  1  0
 17 18  1  0
 18 19  1  0
 19 20  1  0
 20 21  1  0
 21 22  1  0
 22 23  1  0
 23 24  1  0
 24 25  1  0
 25 26  1  0
 21 27  1  0
 16  5  2  0
 27 17  1  0
 14 10  1  0
 26 21  1  0
  3 28  1  0
  4 29  1  0
  4 30  1  0
  6 31  1  0
  7 32  1  0
  9 33  1  0
  9 34  1  0
 11 35  1  0
 13 36  1  0
 15 37  1  0
 16 38  1  0
 18 39  1  0
 18 40  1  0
 19 41  1  0
 19 42  1  0
 20 43  1  0
 20 44  1  0
 22 45  1  0
 22 46  1  0
 23 47  1  0
 23 48  1  0
 25 49  1  0
 25 50  1  0
 26 51  1  0
 26 52  1  0
 27 53  1  0
 27 54  1  0
M  END
$$$$
OCNT-2310978
     RDKit          3D

 40 42  0  0  0  0  0  0  0  0999 V2000
    5.2763    1.3293   -0.2807 C   0  0  0  0  0  0  0  0  0  0  0  0
    4.5319    0.6485    0.8584 C   0  0  0  0  0  0  0  0  0  0  0  0
    3.2210    0.0511    0.3992 C   0  0  0  0  0  0  0  0  0  0  0  0
    2.0792    0.8758    0.3831 C   0  0  0  0  0  0  0  0  0  0  0  0
    0.8266    0.3992   -0.0238 C   0  0  0  0  0  0  0  0  0  0  0  0
   -0.2606    1.2966   -0.0339 N   0  0  0  0  0  0  0  0  0  0  0  0
   -1.6306    0.9981   -0.0565 C   0  0  0  0  0  0  0  0  0  0  0  0
   -2.4062    1.7379   -0.8886 N   0  0  0  0  0  0  0  0  0  0  0  0
   -3.7391    1.5089   -0.9398 C   0  0  0  0  0  0  0  0  0  0  0  0
   -4.5248    2.3329   -1.9144 C   0  0  0  0  0  0  0  0  0  0  0  0
   -4.4234    0.5893   -0.2332 N   0  0  0  0  0  0  0  0  0  0  0  0
   -3.6286   -0.1000    0.6017 C   0  0  0  0  0  0  0  0  0  0  0  0
   -2.2618    0.0449    0.7485 C   0  0  0  0  0  0  0  0  0  0  0  0
   -1.9185   -0.8783    1.7586 C   0  0  0  0  0  0  0  0  0  0  0  0
   -2.9689   -1.5781    2.2047 N   0  0  0  0  0  0  0  0  0  0  0  0
   -3.9991   -1.0806    1.4817 N   0  0  0  0  0  0  0  0  0  0  0  0
   -5.3284   -1.5925    1.6990 C   0  0  0  0  0  0  0  0  0  0  0  0
    0.7329   -0.9225   -0.4601 C   0  0  0  0  0  0  0  0  0  0  0  0
    1.8553   -1.7552   -0.4579 C   0  0  0  0  0  0  0  0  0  0  0  0
    3.1066   -1.2830   -0.0348 C   0  0  0  0  0  0  0  0  0  0  0  0
    4.2800   -2.2238   -0.0426 C   0  0  0  0  0  0  0  0  0  0  0  0
    5.5077    0.6243   -1.0858 H   0  0  0  0  0  0  0  0  0  0  0  0
    4.6851    2.1451   -0.7103 H   0  0  0  0  0  0  0  0  0  0  0  0
    6.2191    1.7505    0.0826 H   0  0  0  0  0  0  0  0  0  0  0  0
    5.1674   -0.1180    1.3151 H   0  0  0  0  0  0  0  0  0  0  0  0
    4.3393    1.3777    1.6555 H   0  0  0  0  0  0  0  0  0  0  0  0
    2.1654    1.9105    0.7116 H   0  0  0  0  0  0  0  0  0  0  0  0
   -0.1079    2.0404   -0.7117 H   0  0  0  0  0  0  0  0  0  0  0  0
   -4.0738    3.3228   -2.0334 H   0  0  0  0  0  0  0  0  0  0  0  0
   -5.5538    2.4657   -1.5663 H   0  0  0  0  0  0  0  0  0  0  0  0
   -4.5427    1.8334   -2.8874 H   0  0  0  0  0  0  0  0  0  0  0  0
   -0.9417   -1.0692    2.1851 H   0  0  0  0  0  0  0  0  0  0  0  0
   -6.0316   -1.1131    1.0144 H   0  0  0  0  0  0  0  0  0  0  0  0
   -5.6133   -1.3802    2.7326 H   0  0  0  0  0  0  0  0  0  0  0  0
   -5.3158   -2.6706    1.5199 H   0  0  0  0  0  0  0  0  0  0  0  0
   -0.2075   -1.3250   -0.8265 H   0  0  0  0  0  0  0  0  0  0  0  0
    1.7432   -2.7822   -0.8004 H   0  0  0  0  0  0  0  0  0  0  0  0
    5.1154   -1.7950   -0.6043 H   0  0  0  0  0  0  0  0  0  0  0  0
    4.0273   -3.1772   -0.5191 H   0  0  0  0  0  0  0  0  0  0  0  0
    4.5985   -2.4384    0.9823 H   0  0  0  0  0  0  0  0  0  0  0  0
  1  2  1  0
  2  3  1  0
  3  4  1  0
  4  5  2  0
  5  6  1  0
  6  7  1  0
  7  8  1  0
  8  9  2  0
  9 10  1  0
  9 11  1  0
 11 12  2  0
 12 13  1  0
 13 14  1  0
 14 15  2  0
 15 16  1  0
 16 17  1  0
  5 18  1  0
 18 19  2  0
 19 20  1  0
 20 21  1  0
 20  3  2  0
 13  7  2  0
 16 12  1  0
  1 22  1  0
  1 23  1  0
  1 24  1  0
  2 25  1  0
  2 26  1  0
  4 27  1  0
  6 28  1  0
 10 29  1  0
 10 30  1  0
 10 31  1  0
 14 32  1  0
 17 33  1  0
 17 34  1  0
 17 35  1  0
 18 36  1  0
 19 37  1  0
 21 38  1  0
 21 39  1  0
 21 40  1  0
M  END
$$$$
OCNT-2310979
     RDKit          3D

 42 45  0  0  0  0  0  0  0  0999 V2000
    4.1328    1.5699    1.0341 C   0  0  0  0  0  0  0  0  0  0  0  0
    3.6702    0.6054   -0.0297 C   0  0  0  0  0  0  0  0  0  0  0  0
    2.2827    0.5823   -0.3010 C   0  0  0  0  0  0  0  0  0  0  0  0
    1.7433   -0.2686   -1.2716 C   0  0  0  0  0  0  0  0  0  0  0  0
    0.2846   -0.3067   -1.5721 C   0  0  0  0  0  0  0  0  0  0  0  0
   -0.0740   -0.5385   -2.7212 O   0  0  0  0  0  0  0  0  0  0  0  0
   -0.5484   -0.1066   -0.4875 N   0  0  0  0  0  0  0  0  0  0  0  0
   -1.9281   -0.0881   -0.5735 C   0  0  0  0  0  0  0  0  0  0  0  0
   -2.7621    0.0651    0.5078 C   0  0  0  0  0  0  0  0  0  0  0  0
   -4.0588    0.0355    0.0317 N   0  0  0  0  0  0  0  0  0  0  0  0
   -5.2686    0.1536    0.7743 C   0  0  0  0  0  0  0  0  0  0  0  0
   -6.4983    0.1001    0.0990 C   0  0  0  0  0  0  0  0  0  0  0  0
   -7.6973    0.2137    0.8059 C   0  0  0  0  0  0  0  0  0  0  0  0
   -7.6790    0.3812    2.1886 C   0  0  0  0  0  0  0  0  0  0  0  0
   -6.4627    0.4353    2.8671 C   0  0  0  0  0  0  0  0  0  0  0  0
   -5.2577    0.3222    2.1662 C   0  0  0  0  0  0  0  0  0  0  0  0
   -4.0824   -0.1280   -1.3164 N   0  0  0  0  0  0  0  0  0  0  0  0
   -2.7980   -0.2027   -1.6718 C   0  0  0  0  0  0  0  0  0  0  0  0
    2.5947   -1.0892   -2.0082 C   0  0  0  0  0  0  0  0  0  0  0  0
    3.9700   -1.0849   -1.7567 C   0  0  0  0  0  0  0  0  0  0  0  0
    4.5287   -0.2501   -0.7667 C   0  0  0  0  0  0  0  0  0  0  0  0
    5.9439   -0.3008   -0.5530 N   0  0  0  0  0  0  0  0  0  0  0  0
    6.8878   -1.0553   -1.2195 C   0  0  0  0  0  0  0  0  0  0  0  0
    8.0894   -0.8434   -0.7333 N   0  0  0  0  0  0  0  0  0  0  0  0
    7.8522    0.0638    0.2477 C   0  0  0  0  0  0  0  0  0  0  0  0
    6.5793    0.4235    0.4000 N   0  0  0  0  0  0  0  0  0  0  0  0
    3.2965    2.1488    1.4428 H   0  0  0  0  0  0  0  0  0  0  0  0
    4.8365    2.2971    0.6177 H   0  0  0  0  0  0  0  0  0  0  0  0
    4.5776    1.0316    1.8766 H   0  0  0  0  0  0  0  0  0  0  0  0
    1.6298    1.2679    0.2360 H   0  0  0  0  0  0  0  0  0  0  0  0
   -0.1533   -0.0298    0.4396 H   0  0  0  0  0  0  0  0  0  0  0  0
   -2.5455    0.1896    1.5561 H   0  0  0  0  0  0  0  0  0  0  0  0
   -6.5384   -0.0302   -0.9814 H   0  0  0  0  0  0  0  0  0  0  0  0
   -8.6444    0.1710    0.2739 H   0  0  0  0  0  0  0  0  0  0  0  0
   -8.6134    0.4693    2.7371 H   0  0  0  0  0  0  0  0  0  0  0  0
   -6.4526    0.5658    3.9466 H   0  0  0  0  0  0  0  0  0  0  0  0
   -4.3369    0.3698    2.7377 H   0  0  0  0  0  0  0  0  0  0  0  0
   -2.5550   -0.3366   -2.7186 H   0  0  0  0  0  0  0  0  0  0  0  0
    2.1901   -1.7402   -2.7822 H   0  0  0  0  0  0  0  0  0  0  0  0
    4.5715   -1.7564   -2.3631 H   0  0  0  0  0  0  0  0  0  0  0  0
    6.6615   -1.7261   -2.0337 H   0  0  0  0  0  0  0  0  0  0  0  0
    8.6319    0.4779    0.8748 H   0  0  0  0  0  0  0  0  0  0  0  0
  1  2  1  0
  2  3  1  0
  3  4  2  0
  4  5  1  0
  5  6  2  0
  5  7  1  0
  7  8  1  0
  8  9  2  0
  9 10  1  0
 10 11  1  0
 11 12  2  0
 12 13  1  0
 13 14  2  0
 14 15  1  0
 15 16  2  0
 10 17  1  0
 17 18  2  0
  4 19  1  0
 19 20  2  0
 20 21  1  0
 21 22  1  0
 22 23  1  0
 23 24  2  0
 24 25  1  0
 25 26  2  0
 21  2  2  0
 26 22  1  0
 18  8  1  0
 16 11  1  0
  1 27  1  0
  1 28  1  0
  1 29  1  0
  3 30  1  0
  7 31  1  0
  9 32  1  0
 12 33  1  0
 13 34  1  0
 14 35  1  0
 15 36  1  0
 16 37  1  0
 18 38  1  0
 19 39  1  0
 20 40  1  0
 23 41  1  0
 25 42  1  0
M  END
$$$$
OCNT-2310981
     RDKit          3D

 41 44  0  0  0  0  0  0  0  0999 V2000
   -4.7620   -3.2379   -1.8612 F   0  0  0  0  0  0  0  0  0  0  0  0
   -4.3042   -2.1844   -1.1710 C   0  0  0  0  0  0  0  0  0  0  0  0
   -4.1900   -0.9521   -1.8032 C   0  0  0  0  0  0  0  0  0  0  0  0
   -3.7149    0.1507   -1.0875 C   0  0  0  0  0  0  0  0  0  0  0  0
   -3.3443    0.0244    0.2617 C   0  0  0  0  0  0  0  0  0  0  0  0
   -2.8307    1.2152    1.0388 C   0  0  0  0  0  0  0  0  0  0  0  0
   -1.3058    1.4624    1.0116 C   0  0  0  0  0  0  0  0  0  0  0  0
   -0.4995    0.3392    1.6812 C   0  0  0  0  0  0  0  0  0  0  0  0
    0.9927    0.4640    1.3765 C   0  0  0  0  0  0  0  0  0  0  0  0
    1.2477    0.4153   -0.0658 N   0  0  0  0  0  0  0  0  0  0  0  0
    2.5021    0.0750   -0.5805 C   0  0  0  0  0  0  0  0  0  0  0  0
    2.6006   -0.1934   -1.8733 N   0  0  0  0  0  0  0  0  0  0  0  0
    3.8198   -0.5432   -2.4231 C   0  0  0  0  0  0  0  0  0  0  0  0
    4.9623   -0.6307   -1.7250 C   0  0  0  0  0  0  0  0  0  0  0  0
    4.9032   -0.3497   -0.3797 N   0  0  0  0  0  0  0  0  0  0  0  0
    5.8347   -0.3253    0.6137 C   0  0  0  0  0  0  0  0  0  0  0  0
    5.2648    0.0274    1.7470 N   0  0  0  0  0  0  0  0  0  0  0  0
    3.9225    0.2409    1.4942 N   0  0  0  0  0  0  0  0  0  0  0  0
    3.7239   -0.0008    0.2157 C   0  0  0  0  0  0  0  0  0  0  0  0
    0.1180    0.6848   -0.9583 C   0  0  0  0  0  0  0  0  0  0  0  0
   -0.7523    1.8012   -0.3837 C   0  0  0  0  0  0  0  0  0  0  0  0
   -3.4794   -1.2263    0.8844 C   0  0  0  0  0  0  0  0  0  0  0  0
   -3.9537   -2.3203    0.1649 C   0  0  0  0  0  0  0  0  0  0  0  0
   -4.0708   -3.5068    0.7768 F   0  0  0  0  0  0  0  0  0  0  0  0
   -4.4750   -0.8560   -2.8462 H   0  0  0  0  0  0  0  0  0  0  0  0
   -3.6451    1.1127   -1.5915 H   0  0  0  0  0  0  0  0  0  0  0  0
   -3.1538    1.1133    2.0839 H   0  0  0  0  0  0  0  0  0  0  0  0
   -3.3436    2.1153    0.6731 H   0  0  0  0  0  0  0  0  0  0  0  0
   -1.1523    2.3648    1.6221 H   0  0  0  0  0  0  0  0  0  0  0  0
   -0.6614    0.3642    2.7653 H   0  0  0  0  0  0  0  0  0  0  0  0
   -0.8342   -0.6448    1.3364 H   0  0  0  0  0  0  0  0  0  0  0  0
    1.3835    1.4022    1.7867 H   0  0  0  0  0  0  0  0  0  0  0  0
    1.4969   -0.3684    1.8798 H   0  0  0  0  0  0  0  0  0  0  0  0
    3.8086   -0.7537   -3.4897 H   0  0  0  0  0  0  0  0  0  0  0  0
    5.9143   -0.9038   -2.1583 H   0  0  0  0  0  0  0  0  0  0  0  0
    6.8783   -0.5605    0.4675 H   0  0  0  0  0  0  0  0  0  0  0  0
   -0.4633   -0.2323   -1.1058 H   0  0  0  0  0  0  0  0  0  0  0  0
    0.4623    1.0130   -1.9458 H   0  0  0  0  0  0  0  0  0  0  0  0
   -0.1318    2.7041   -0.2950 H   0  0  0  0  0  0  0  0  0  0  0  0
   -1.5500    2.0637   -1.0850 H   0  0  0  0  0  0  0  0  0  0  0  0
   -3.2181   -1.3638    1.9301 H   0  0  0  0  0  0  0  0  0  0  0  0
  1  2  1  0
  2  3  1  0
  3  4  2  0
  4  5  1  0
  5  6  1  0
  6  7  1  0
  7  8  1  0
  8  9  1  0
  9 10  1  0
 10 11  1  0
 11 12  2  0
 12 13  1  0
 13 14  2  0
 14 15  1  0
 15 16  1  0
 16 17  2  0
 17 18  1  0
 18 19  2  0
 10 20  1  0
 20 21  1  0
  5 22  2  0
 22 23  1  0
 23 24  1  0
 23  2  2  0
 21  7  1  0
 19 11  1  0
 19 15  1  0
  3 25  1  0
  4 26  1  0
  6 27  1  0
  6 28  1  0
  7 29  1  0
  8 30  1  0
  8 31  1  0
  9 32  1  0
  9 33  1  0
 13 34  1  0
 14 35  1  0
 16 36  1  0
 20 37  1  0
 20 38  1  0
 21 39  1  0
 21 40  1  0
 22 41  1  0
M  END
$$$$
OCNT-2310983
     RDKit          3D

 49 52  0  0  0  0  0  0  0  0999 V2000
   -9.0965   -0.7817    0.5603 C   0  0  0  0  0  0  0  0  0  0  0  0
   -8.6464    0.5010    0.1333 O   0  0  0  0  0  0  0  0  0  0  0  0
   -7.2746    0.5684   -0.0146 C   0  0  0  0  0  0  0  0  0  0  0  0
   -6.7719    1.7711   -0.4776 C   0  0  0  0  0  0  0  0  0  0  0  0
   -5.3970    1.8846   -0.6427 C   0  0  0  0  0  0  0  0  0  0  0  0
   -4.5682    0.7971   -0.3355 C   0  0  0  0  0  0  0  0  0  0  0  0
   -3.1685    0.8658   -0.4906 C   0  0  0  0  0  0  0  0  0  0  0  0
   -2.3583   -0.2262   -0.1754 C   0  0  0  0  0  0  0  0  0  0  0  0
   -0.9505   -0.2390   -0.2934 N   0  0  0  0  0  0  0  0  0  0  0  0
   -0.1375    0.7484   -0.8073 C   0  0  0  0  0  0  0  0  0  0  0  0
   -0.5448    1.8054   -1.2824 O   0  0  0  0  0  0  0  0  0  0  0  0
    1.2283    0.4735   -0.7485 N   0  0  0  0  0  0  0  0  0  0  0  0
    2.1570    1.5231   -1.1859 C   0  0  0  0  0  0  0  0  0  0  0  0
    3.4138    1.5836   -0.3114 C   0  0  0  0  0  0  0  0  0  0  0  0
    4.1070    0.2919   -0.2010 N   0  0  0  0  0  0  0  0  0  0  0  0
    5.4452    0.3002    0.1876 C   0  0  0  0  0  0  0  0  0  0  0  0
    6.0013    1.3499    0.5147 O   0  0  0  0  0  0  0  0  0  0  0  0
    6.1620   -1.0349    0.2213 C   0  0  0  0  0  0  0  0  0  0  0  0
    7.5979   -0.9298    0.3665 N   0  0  0  0  0  0  0  0  0  0  0  0
    8.3334   -0.2475    1.2844 C   0  0  0  0  0  0  0  0  0  0  0  0
    9.5984   -0.5705    1.1297 N   0  0  0  0  0  0  0  0  0  0  0  0
    9.6299   -1.4836    0.1024 N   0  0  0  0  0  0  0  0  0  0  0  0
    8.4080   -1.7281   -0.3557 N   0  0  0  0  0  0  0  0  0  0  0  0
    3.3369   -0.8979   -0.5810 C   0  0  0  0  0  0  0  0  0  0  0  0
    1.8372   -0.7695   -0.2638 C   0  0  0  0  0  0  0  0  0  0  0  0
   -2.9678   -1.3911    0.2985 C   0  0  0  0  0  0  0  0  0  0  0  0
   -4.3595   -1.4600    0.4434 C   0  0  0  0  0  0  0  0  0  0  0  0
   -5.1782   -0.3830    0.1366 C   0  0  0  0  0  0  0  0  0  0  0  0
   -6.5078   -0.5007    0.2942 N   0  0  0  0  0  0  0  0  0  0  0  0
   -8.7047   -1.0292    1.5530 H   0  0  0  0  0  0  0  0  0  0  0  0
  -10.1878   -0.7434    0.6347 H   0  0  0  0  0  0  0  0  0  0  0  0
   -8.8406   -1.5557   -0.1728 H   0  0  0  0  0  0  0  0  0  0  0  0
   -7.4354    2.5971   -0.7083 H   0  0  0  0  0  0  0  0  0  0  0  0
   -4.9780    2.8175   -1.0126 H   0  0  0  0  0  0  0  0  0  0  0  0
   -2.7396    1.7946   -0.8546 H   0  0  0  0  0  0  0  0  0  0  0  0
   -0.5040   -1.0821    0.0221 H   0  0  0  0  0  0  0  0  0  0  0  0
    2.4295    1.2880   -2.2224 H   0  0  0  0  0  0  0  0  0  0  0  0
    1.6728    2.5058   -1.1879 H   0  0  0  0  0  0  0  0  0  0  0  0
    3.1458    1.8834    0.7100 H   0  0  0  0  0  0  0  0  0  0  0  0
    4.1042    2.3371   -0.7085 H   0  0  0  0  0  0  0  0  0  0  0  0
    5.9699   -1.5718   -0.7138 H   0  0  0  0  0  0  0  0  0  0  0  0
    5.7985   -1.6216    1.0715 H   0  0  0  0  0  0  0  0  0  0  0  0
    7.9281    0.4407    2.0120 H   0  0  0  0  0  0  0  0  0  0  0  0
    3.4798   -1.0279   -1.6609 H   0  0  0  0  0  0  0  0  0  0  0  0
    3.7369   -1.7870   -0.0849 H   0  0  0  0  0  0  0  0  0  0  0  0
    1.6869   -0.7901    0.8221 H   0  0  0  0  0  0  0  0  0  0  0  0
    1.3062   -1.6239   -0.6970 H   0  0  0  0  0  0  0  0  0  0  0  0
   -2.3808   -2.2720    0.5481 H   0  0  0  0  0  0  0  0  0  0  0  0
   -4.8165   -2.3801    0.8023 H   0  0  0  0  0  0  0  0  0  0  0  0
  1  2  1  0
  2  3  1  0
  3  4  1  0
  4  5  2  0
  5  6  1  0
  6  7  2  0
  7  8  1  0
  8  9  1  0
  9 10  1  0
 10 11  2  0
 10 12  1  0
 12 13  1  0
 13 14  1  0
 14 15  1  0
 15 16  1  0
 16 17  2  0
 16 18  1  0
 18 19  1  0
 19 20  1  0
 20 21  2  0
 21 22  1  0
 22 23  2  0
 15 24  1  0
 24 25  1  0
  8 26  2  0
 26 27  1  0
 27 28  2  0
 28 29  1  0
 29  3  2  0
 28  6  1  0
 25 12  1  0
 23 19  1  0
  1 30  1  0
  1 31  1  0
  1 32  1  0
  4 33  1  0
  5 34  1  0
  7 35  1  0
  9 36  1  0
 13 37  1  0
 13 38  1  0
 14 39  1  0
 14 40  1  0
 18 41  1  0
 18 42  1  0
 20 43  1  0
 24 44  1  0
 24 45  1  0
 25 46  1  0
 25 47  1  0
 26 48  1  0
 27 49  1  0
M  END
$$$$
OCNT-2310986
     RDKit          3D

 41 43  0  0  0  0  0  0  0  0999 V2000
    4.1052   -1.4742    2.1530 C   0  0  0  0  0  0  0  0  0  0  0  0
    4.4267   -0.4969    1.1134 N   0  0  0  0  0  0  0  0  0  0  0  0
    4.3746    0.8943    1.5603 C   0  0  0  0  0  0  0  0  0  0  0  0
    3.7172   -0.7180   -0.0859 C   0  0  0  0  0  0  0  0  0  0  0  0
    3.8554   -1.9340   -0.7583 C   0  0  0  0  0  0  0  0  0  0  0  0
    3.1610   -2.1608   -1.9441 C   0  0  0  0  0  0  0  0  0  0  0  0
    2.3480   -1.1608   -2.4528 C   0  0  0  0  0  0  0  0  0  0  0  0
    2.2733    0.0412   -1.7618 C   0  0  0  0  0  0  0  0  0  0  0  0
    1.3761    1.1513   -2.2534 C   0  0  0  0  0  0  0  0  0  0  0  0
    0.0965    1.1203   -1.5734 N   0  0  0  0  0  0  0  0  0  0  0  0
   -0.9505    0.3951   -2.0901 C   0  0  0  0  0  0  0  0  0  0  0  0
   -0.9354   -0.1262   -3.1995 O   0  0  0  0  0  0  0  0  0  0  0  0
   -2.1162    0.2215   -1.1684 C   0  0  0  0  0  0  0  0  0  0  0  0
   -2.5279    1.2237   -0.3798 C   0  0  0  0  0  0  0  0  0  0  0  0
   -3.6902    1.0092    0.4678 C   0  0  0  0  0  0  0  0  0  0  0  0
   -4.1541    2.0182    1.3201 C   0  0  0  0  0  0  0  0  0  0  0  0
   -5.2728    1.7975    2.1274 C   0  0  0  0  0  0  0  0  0  0  0  0
   -5.9343    0.5710    2.0883 C   0  0  0  0  0  0  0  0  0  0  0  0
   -5.4783   -0.4381    1.2403 C   0  0  0  0  0  0  0  0  0  0  0  0
   -4.3563   -0.2181    0.4298 C   0  0  0  0  0  0  0  0  0  0  0  0
   -3.8802   -1.2966   -0.4691 C   0  0  0  0  0  0  0  0  0  0  0  0
   -4.4483   -2.3815   -0.5090 O   0  0  0  0  0  0  0  0  0  0  0  0
   -2.7859   -1.0207   -1.2346 O   0  0  0  0  0  0  0  0  0  0  0  0
    2.9327    0.2608   -0.5921 N   0  0  0  0  0  0  0  0  0  0  0  0
    4.4018   -2.4894    1.8696 H   0  0  0  0  0  0  0  0  0  0  0  0
    4.6535   -1.2394    3.0726 H   0  0  0  0  0  0  0  0  0  0  0  0
    3.0347   -1.4682    2.3902 H   0  0  0  0  0  0  0  0  0  0  0  0
    4.7400    1.5770    0.7841 H   0  0  0  0  0  0  0  0  0  0  0  0
    5.0302    1.0300    2.4280 H   0  0  0  0  0  0  0  0  0  0  0  0
    3.3617    1.1901    1.8586 H   0  0  0  0  0  0  0  0  0  0  0  0
    4.5184   -2.7026   -0.3765 H   0  0  0  0  0  0  0  0  0  0  0  0
    3.2583   -3.1090   -2.4642 H   0  0  0  0  0  0  0  0  0  0  0  0
    1.7807   -1.3178   -3.3656 H   0  0  0  0  0  0  0  0  0  0  0  0
    1.8386    2.1176   -2.0240 H   0  0  0  0  0  0  0  0  0  0  0  0
    1.2396    1.0976   -3.3390 H   0  0  0  0  0  0  0  0  0  0  0  0
    0.1382    1.2675   -0.5739 H   0  0  0  0  0  0  0  0  0  0  0  0
   -2.0431    2.1936   -0.3683 H   0  0  0  0  0  0  0  0  0  0  0  0
   -3.6546    2.9836    1.3652 H   0  0  0  0  0  0  0  0  0  0  0  0
   -5.6302    2.5848    2.7876 H   0  0  0  0  0  0  0  0  0  0  0  0
   -6.8058    0.4004    2.7163 H   0  0  0  0  0  0  0  0  0  0  0  0
   -5.9987   -1.3939    1.2113 H   0  0  0  0  0  0  0  0  0  0  0  0
  1  2  1  0
  2  3  1  0
  2  4  1  0
  4  5  1  0
  5  6  2  0
  6  7  1  0
  7  8  2  0
  8  9  1  0
  9 10  1  0
 10 11  1  0
 11 12  2  0
 11 13  1  0
 13 14  2  0
 14 15  1  0
 15 16  2  0
 16 17  1  0
 17 18  2  0
 18 19  1  0
 19 20  2  0
 20 21  1  0
 21 22  2  0
 21 23  1  0
  8 24  1  0
 24  4  2  0
 23 13  1  0
 20 15  1  0
  1 25  1  0
  1 26  1  0
  1 27  1  0
  3 28  1  0
  3 29  1  0
  3 30  1  0
  5 31  1  0
  6 32  1  0
  7 33  1  0
  9 34  1  0
  9 35  1  0
 10 36  1  0
 14 37  1  0
 16 38  1  0
 17 39  1  0
 18 40  1  0
 19 41  1  0
M  END
$$$$
OCNT-2310988
     RDKit          3D

 42 45  0  0  0  0  0  0  0  0999 V2000
   -1.9344   -2.0241    2.9755 O   0  0  0  0  0  0  0  0  0  0  0  0
   -1.8235   -2.3898    1.8085 C   0  0  0  0  0  0  0  0  0  0  0  0
   -3.0141   -2.4855    0.8674 C   0  0  0  0  0  0  0  0  0  0  0  0
   -2.9482   -1.4354   -0.1961 C   0  0  0  0  0  0  0  0  0  0  0  0
   -2.8199   -1.6428   -1.5603 C   0  0  0  0  0  0  0  0  0  0  0  0
   -2.7670   -0.4185   -2.1782 N   0  0  0  0  0  0  0  0  0  0  0  0
   -2.8614    0.5768   -1.2471 C   0  0  0  0  0  0  0  0  0  0  0  0
   -2.8312    1.8903   -1.5346 N   0  0  0  0  0  0  0  0  0  0  0  0
   -2.9499    2.6705   -0.4365 C   0  0  0  0  0  0  0  0  0  0  0  0
   -3.0824    2.2161    0.8691 C   0  0  0  0  0  0  0  0  0  0  0  0
   -3.1016    0.8408    1.1094 C   0  0  0  0  0  0  0  0  0  0  0  0
   -2.9875   -0.0174    0.0029 C   0  0  0  0  0  0  0  0  0  0  0  0
   -0.6221   -2.7455    1.2319 N   0  0  0  0  0  0  0  0  0  0  0  0
    0.6402   -2.4944    1.8897 C   0  0  0  0  0  0  0  0  0  0  0  0
    1.3828   -1.3812    1.1940 C   0  0  0  0  0  0  0  0  0  0  0  0
    0.8490   -0.0880    1.1450 C   0  0  0  0  0  0  0  0  0  0  0  0
    1.5166    0.9443    0.4735 C   0  0  0  0  0  0  0  0  0  0  0  0
    2.7504    0.7090   -0.1533 C   0  0  0  0  0  0  0  0  0  0  0  0
    3.4288    1.7670   -0.8265 N   0  0  0  0  0  0  0  0  0  0  0  0
    4.6706    1.7419   -1.4268 C   0  0  0  0  0  0  0  0  0  0  0  0
    4.8923    3.0052   -1.9235 C   0  0  0  0  0  0  0  0  0  0  0  0
    3.8324    3.8196   -1.6611 N   0  0  0  0  0  0  0  0  0  0  0  0
    2.9730    3.0590   -1.0176 C   0  0  0  0  0  0  0  0  0  0  0  0
    3.2834   -0.5841   -0.0895 C   0  0  0  0  0  0  0  0  0  0  0  0
    4.4481   -0.9075   -0.6675 F   0  0  0  0  0  0  0  0  0  0  0  0
    2.6111   -1.6157    0.5716 C   0  0  0  0  0  0  0  0  0  0  0  0
   -3.0343   -3.4904    0.4296 H   0  0  0  0  0  0  0  0  0  0  0  0
   -3.9336   -2.3699    1.4523 H   0  0  0  0  0  0  0  0  0  0  0  0
   -2.7566   -2.5520   -2.1471 H   0  0  0  0  0  0  0  0  0  0  0  0
   -2.6788   -0.2446   -3.1688 H   0  0  0  0  0  0  0  0  0  0  0  0
   -2.9383    3.7385   -0.6415 H   0  0  0  0  0  0  0  0  0  0  0  0
   -3.1725    2.9201    1.6891 H   0  0  0  0  0  0  0  0  0  0  0  0
   -3.2008    0.4530    2.1188 H   0  0  0  0  0  0  0  0  0  0  0  0
   -0.6007   -2.8680    0.2270 H   0  0  0  0  0  0  0  0  0  0  0  0
    0.5009   -2.2438    2.9458 H   0  0  0  0  0  0  0  0  0  0  0  0
    1.2098   -3.4276    1.8395 H   0  0  0  0  0  0  0  0  0  0  0  0
   -0.1035    0.1257    1.6289 H   0  0  0  0  0  0  0  0  0  0  0  0
    1.0343    1.9170    0.4725 H   0  0  0  0  0  0  0  0  0  0  0  0
    5.3028    0.8689   -1.4544 H   0  0  0  0  0  0  0  0  0  0  0  0
    5.7647    3.3630   -2.4558 H   0  0  0  0  0  0  0  0  0  0  0  0
    2.0062    3.4024   -0.6820 H   0  0  0  0  0  0  0  0  0  0  0  0
    3.0649   -2.6032    0.5844 H   0  0  0  0  0  0  0  0  0  0  0  0
  1  2  2  0
  2  3  1  0
  3  4  1  0
  4  5  2  0
  5  6  1  0
  6  7  1  0
  7  8  1  0
  8  9  2  0
  9 10  1  0
 10 11  2  0
 11 12  1  0
  2 13  1  0
 13 14  1  0
 14 15  1  0
 15 16  1  0
 16 17  2  0
 17 18  1  0
 18 19  1  0
 19 20  1  0
 20 21  2  0
 21 22  1  0
 22 23  2  0
 18 24  2  0
 24 25  1  0
 24 26  1  0
 12  4  1  0
 26 15  2  0
 12  7  2  0
 23 19  1  0
  3 27  1  0
  3 28  1  0
  5 29  1  0
  6 30  1  0
  9 31  1  0
 10 32  1  0
 11 33  1  0
 13 34  1  0
 14 35  1  0
 14 36  1  0
 16 37  1  0
 17 38  1  0
 20 39  1  0
 21 40  1  0
 23 41  1  0
 26 42  1  0
M  END
$$$$
OCNT-2310993
     RDKit          3D

 45 48  0  0  0  0  0  0  0  0999 V2000
    5.6982    1.5658   -0.9369 C   0  0  0  0  0  0  0  0  0  0  0  0
    5.7324    0.3701   -0.1663 O   0  0  0  0  0  0  0  0  0  0  0  0
    4.6199    0.0787    0.5776 C   0  0  0  0  0  0  0  0  0  0  0  0
    4.6859   -1.1470    1.2555 C   0  0  0  0  0  0  0  0  0  0  0  0
    3.6337   -1.6080    2.0564 C   0  0  0  0  0  0  0  0  0  0  0  0
    2.5250   -0.7745    2.1402 C   0  0  0  0  0  0  0  0  0  0  0  0
    1.3874   -1.0152    2.8447 O   0  0  0  0  0  0  0  0  0  0  0  0
    0.5062    0.0433    2.6806 N   0  0  0  0  0  0  0  0  0  0  0  0
    1.1369    0.9180    1.8830 C   0  0  0  0  0  0  0  0  0  0  0  0
    0.4696    2.1856    1.4949 C   0  0  0  0  0  0  0  0  0  0  0  0
    0.0662    2.1394    0.0348 C   0  0  0  0  0  0  0  0  0  0  0  0
    0.7012    2.7520   -0.8196 O   0  0  0  0  0  0  0  0  0  0  0  0
   -1.0359    1.3483   -0.1974 N   0  0  0  0  0  0  0  0  0  0  0  0
   -1.6546    1.0749   -1.4358 C   0  0  0  0  0  0  0  0  0  0  0  0
   -1.3271    1.6422   -2.6496 C   0  0  0  0  0  0  0  0  0  0  0  0
   -1.9713    1.3561   -3.8017 N   0  0  0  0  0  0  0  0  0  0  0  0
   -2.9731    0.4711   -3.7028 C   0  0  0  0  0  0  0  0  0  0  0  0
   -3.3801   -0.1503   -2.5856 N   0  0  0  0  0  0  0  0  0  0  0  0
   -2.7146    0.1565   -1.4551 C   0  0  0  0  0  0  0  0  0  0  0  0
   -3.0475   -0.4944   -0.2302 N   0  0  0  0  0  0  0  0  0  0  0  0
   -4.4809   -0.8436   -0.1287 C   0  0  0  0  0  0  0  0  0  0  0  0
   -4.5401   -2.3635   -0.2175 C   0  0  0  0  0  0  0  0  0  0  0  0
   -3.2372   -2.7744    0.4391 C   0  0  0  0  0  0  0  0  0  0  0  0
   -2.2582   -1.7460   -0.1155 C   0  0  0  0  0  0  0  0  0  0  0  0
    2.4187    0.4461    1.4997 C   0  0  0  0  0  0  0  0  0  0  0  0
    3.4837    0.8929    0.6940 C   0  0  0  0  0  0  0  0  0  0  0  0
    5.6266    2.4476   -0.2918 H   0  0  0  0  0  0  0  0  0  0  0  0
    4.8833    1.5418   -1.6681 H   0  0  0  0  0  0  0  0  0  0  0  0
    6.6400    1.6336   -1.4899 H   0  0  0  0  0  0  0  0  0  0  0  0
    5.5791   -1.7614    1.1526 H   0  0  0  0  0  0  0  0  0  0  0  0
    3.6775   -2.5563    2.5775 H   0  0  0  0  0  0  0  0  0  0  0  0
    1.1463    3.0347    1.6453 H   0  0  0  0  0  0  0  0  0  0  0  0
   -0.4196    2.3789    2.1068 H   0  0  0  0  0  0  0  0  0  0  0  0
   -1.4606    0.8405    0.5797 H   0  0  0  0  0  0  0  0  0  0  0  0
   -0.5288    2.3678   -2.7576 H   0  0  0  0  0  0  0  0  0  0  0  0
   -3.5055    0.2318   -4.6170 H   0  0  0  0  0  0  0  0  0  0  0  0
   -5.1354   -0.3579   -0.8611 H   0  0  0  0  0  0  0  0  0  0  0  0
   -4.8263   -0.5238    0.8623 H   0  0  0  0  0  0  0  0  0  0  0  0
   -4.5554   -2.6846   -1.2656 H   0  0  0  0  0  0  0  0  0  0  0  0
   -5.4184   -2.7784    0.2844 H   0  0  0  0  0  0  0  0  0  0  0  0
   -2.9456   -3.8012    0.2021 H   0  0  0  0  0  0  0  0  0  0  0  0
   -3.3142   -2.6784    1.5288 H   0  0  0  0  0  0  0  0  0  0  0  0
   -1.8772   -2.0956   -1.0849 H   0  0  0  0  0  0  0  0  0  0  0  0
   -1.4071   -1.6075    0.5592 H   0  0  0  0  0  0  0  0  0  0  0  0
    3.3968    1.8443    0.1818 H   0  0  0  0  0  0  0  0  0  0  0  0
  1  2  1  0
  2  3  1  0
  3  4  2  0
  4  5  1  0
  5  6  2  0
  6  7  1  0
  7  8  1  0
  8  9  2  0
  9 10  1  0
 10 11  1  0
 11 12  2  0
 11 13  1  0
 13 14  1  0
 14 15  2  0
 15 16  1  0
 16 17  2  0
 17 18  1  0
 18 19  2  0
 19 20  1  0
 20 21  1  0
 21 22  1  0
 22 23  1  0
 23 24  1  0
  9 25  1  0
 25 26  2  0
 26  3  1  0
 25  6  1  0
 19 14  1  0
 24 20  1  0
  1 27  1  0
  1 28  1  0
  1 29  1  0
  4 30  1  0
  5 31  1  0
 10 32  1  0
 10 33  1  0
 13 34  1  0
 15 35  1  0
 17 36  1  0
 21 37  1  0
 21 38  1  0
 22 39  1  0
 22 40  1  0
 23 41  1  0
 23 42  1  0
 24 43  1  0
 24 44  1  0
 26 45  1  0
M  END
$$$$
OCNT-2310994
     RDKit          3D

 38 40  0  0  0  0  0  0  0  0999 V2000
    5.1932    1.7552   -0.1511 C   0  0  0  0  0  0  0  0  0  0  0  0
    4.2490    1.2363   -1.2216 C   0  0  0  0  0  0  0  0  0  0  0  0
    2.8948    1.2861   -0.7747 O   0  0  0  0  0  0  0  0  0  0  0  0
    2.3874    0.2275   -0.0766 C   0  0  0  0  0  0  0  0  0  0  0  0
    3.0782   -0.9164    0.3146 C   0  0  0  0  0  0  0  0  0  0  0  0
    2.4242   -1.9127    1.0450 C   0  0  0  0  0  0  0  0  0  0  0  0
    1.0795   -1.7725    1.3859 C   0  0  0  0  0  0  0  0  0  0  0  0
    0.5390   -2.7922    2.1218 O   0  0  0  0  0  0  0  0  0  0  0  0
   -0.6726   -2.4440    2.7969 C   0  0  0  0  0  0  0  0  0  0  0  0
   -1.6732   -1.8304    1.8387 C   0  0  0  0  0  0  0  0  0  0  0  0
   -1.1096   -0.5115    1.3062 C   0  0  0  0  0  0  0  0  0  0  0  0
   -1.8850   -0.0772    0.1499 N   0  0  0  0  0  0  0  0  0  0  0  0
   -3.0987    0.5593    0.3008 C   0  0  0  0  0  0  0  0  0  0  0  0
   -3.5682    0.7896    1.4097 O   0  0  0  0  0  0  0  0  0  0  0  0
   -3.7479    0.9260   -0.9285 C   0  0  0  0  0  0  0  0  0  0  0  0
   -4.6701    1.9220   -1.1822 C   0  0  0  0  0  0  0  0  0  0  0  0
   -5.3179    3.0845   -0.1332 Cl  0  0  0  0  0  0  0  0  0  0  0  0
   -4.9755    1.8105   -2.5510 C   0  0  0  0  0  0  0  0  0  0  0  0
   -4.3135    0.8096   -3.1369 N   0  0  0  0  0  0  0  0  0  0  0  0
   -3.6032    0.2785   -2.1279 N   0  0  0  0  0  0  0  0  0  0  0  0
    0.3555   -0.6538    0.9653 C   0  0  0  0  0  0  0  0  0  0  0  0
    1.0351    0.3555    0.2598 C   0  0  0  0  0  0  0  0  0  0  0  0
    4.9007    2.7632    0.1614 H   0  0  0  0  0  0  0  0  0  0  0  0
    5.1689    1.1267    0.7440 H   0  0  0  0  0  0  0  0  0  0  0  0
    6.2205    1.7875   -0.5251 H   0  0  0  0  0  0  0  0  0  0  0  0
    4.3118    1.9036   -2.0888 H   0  0  0  0  0  0  0  0  0  0  0  0
    4.5340    0.2439   -1.5875 H   0  0  0  0  0  0  0  0  0  0  0  0
    4.1281   -1.0634    0.0876 H   0  0  0  0  0  0  0  0  0  0  0  0
    2.9713   -2.7967    1.3634 H   0  0  0  0  0  0  0  0  0  0  0  0
   -1.0842   -3.3676    3.2173 H   0  0  0  0  0  0  0  0  0  0  0  0
   -0.4450   -1.7767    3.6377 H   0  0  0  0  0  0  0  0  0  0  0  0
   -1.8490   -2.5254    1.0062 H   0  0  0  0  0  0  0  0  0  0  0  0
   -2.6362   -1.6679    2.3353 H   0  0  0  0  0  0  0  0  0  0  0  0
   -1.1931    0.2528    2.0904 H   0  0  0  0  0  0  0  0  0  0  0  0
   -1.4405   -0.1414   -0.7534 H   0  0  0  0  0  0  0  0  0  0  0  0
   -5.6499    2.4160   -3.1430 H   0  0  0  0  0  0  0  0  0  0  0  0
   -3.0480   -0.5475   -2.3241 H   0  0  0  0  0  0  0  0  0  0  0  0
    0.5106    1.2634   -0.0340 H   0  0  0  0  0  0  0  0  0  0  0  0
  1  2  1  0
  2  3  1  0
  3  4  1  0
  4  5  1  0
  5  6  2  0
  6  7  1  0
  7  8  1  0
  8  9  1  0
  9 10  1  0
 10 11  1  0
 11 12  1  0
 12 13  1  0
 13 14  2  0
 13 15  1  0
 15 16  2  0
 16 17  1  0
 16 18  1  0
 18 19  2  0
 19 20  1  0
 11 21  1  0
 21 22  1  0
 22  4  2  0
 21  7  2  0
 20 15  1  0
  1 23  1  0
  1 24  1  0
  1 25  1  0
  2 26  1  0
  2 27  1  0
  5 28  1  0
  6 29  1  0
  9 30  1  0
  9 31  1  0
 10 32  1  0
 10 33  1  0
 11 34  1  0
 12 35  1  0
 18 36  1  0
 20 37  1  0
 22 38  1  0
M  END
$$$$
OCNT-2310997
     RDKit          3D

 60 63  0  0  0  0  0  0  0  0999 V2000
   -9.1274   -0.2133    0.9094 C   0  0  0  0  0  0  0  0  0  0  0  0
   -7.8738    0.5052    0.7004 N   0  0  0  0  0  0  0  0  0  0  0  0
   -7.0949   -0.0625   -0.4286 C   0  0  0  0  0  0  0  0  0  0  0  0
   -5.9141   -0.9610   -0.0017 C   0  0  0  0  0  0  0  0  0  0  0  0
   -4.9516   -0.2267    0.8487 N   0  0  0  0  0  0  0  0  0  0  0  0
   -3.8208    0.2651    0.1673 C   0  0  0  0  0  0  0  0  0  0  0  0
   -2.7406    0.7612    0.9008 C   0  0  0  0  0  0  0  0  0  0  0  0
   -1.6134    1.2525    0.2427 C   0  0  0  0  0  0  0  0  0  0  0  0
   -1.5710    1.2441   -1.1486 C   0  0  0  0  0  0  0  0  0  0  0  0
   -0.3733    1.7407   -1.9035 C   0  0  0  0  0  0  0  0  0  0  0  0
    0.7085    0.7815   -1.8656 N   0  0  0  0  0  0  0  0  0  0  0  0
    1.7229    0.8899   -0.9533 C   0  0  0  0  0  0  0  0  0  0  0  0
    1.8212    1.8419   -0.1838 O   0  0  0  0  0  0  0  0  0  0  0  0
    2.6376   -0.1336   -0.9807 N   0  0  0  0  0  0  0  0  0  0  0  0
    2.6765   -1.2831   -1.8700 C   0  0  0  0  0  0  0  0  0  0  0  0
    3.7820   -2.1629   -1.3056 C   0  0  0  0  0  0  0  0  0  0  0  0
    4.7561   -1.1469   -0.7021 C   0  0  0  0  0  0  0  0  0  0  0  0
    5.6989   -1.7763    0.3232 C   0  0  0  0  0  0  0  0  0  0  0  0
    6.7260   -0.8012    0.8428 C   0  0  0  0  0  0  0  0  0  0  0  0
    7.8586   -0.4900    0.0782 C   0  0  0  0  0  0  0  0  0  0  0  0
    8.8018    0.4240    0.5499 C   0  0  0  0  0  0  0  0  0  0  0  0
    8.6209    1.0372    1.7879 C   0  0  0  0  0  0  0  0  0  0  0  0
    7.4971    0.7370    2.5551 C   0  0  0  0  0  0  0  0  0  0  0  0
    6.5532   -0.1777    2.0856 C   0  0  0  0  0  0  0  0  0  0  0  0
    3.8090   -0.0962   -0.1179 C   0  0  0  0  0  0  0  0  0  0  0  0
   -2.6770    0.7241   -1.8037 C   0  0  0  0  0  0  0  0  0  0  0  0
   -3.7780    0.2390   -1.1827 N   0  0  0  0  0  0  0  0  0  0  0  0
   -5.5732    0.8142    1.7050 C   0  0  0  0  0  0  0  0  0  0  0  0
   -7.0728    0.5251    1.9460 C   0  0  0  0  0  0  0  0  0  0  0  0
   -9.7621   -0.1441    0.0191 H   0  0  0  0  0  0  0  0  0  0  0  0
   -9.6941    0.2337    1.7339 H   0  0  0  0  0  0  0  0  0  0  0  0
   -8.9648   -1.2732    1.1356 H   0  0  0  0  0  0  0  0  0  0  0  0
   -6.7016    0.7840   -1.0060 H   0  0  0  0  0  0  0  0  0  0  0  0
   -7.7455   -0.6158   -1.1172 H   0  0  0  0  0  0  0  0  0  0  0  0
   -6.3037   -1.8015    0.5880 H   0  0  0  0  0  0  0  0  0  0  0  0
   -5.4477   -1.4270   -0.8780 H   0  0  0  0  0  0  0  0  0  0  0  0
   -2.7604    0.7483    1.9852 H   0  0  0  0  0  0  0  0  0  0  0  0
   -0.7714    1.6298    0.8197 H   0  0  0  0  0  0  0  0  0  0  0  0
   -0.0521    2.7105   -1.5074 H   0  0  0  0  0  0  0  0  0  0  0  0
   -0.6245    1.8920   -2.9592 H   0  0  0  0  0  0  0  0  0  0  0  0
    0.4941   -0.1441   -2.1943 H   0  0  0  0  0  0  0  0  0  0  0  0
    2.9187   -0.9250   -2.8764 H   0  0  0  0  0  0  0  0  0  0  0  0
    1.7133   -1.8000   -1.8925 H   0  0  0  0  0  0  0  0  0  0  0  0
    3.3751   -2.8167   -0.5240 H   0  0  0  0  0  0  0  0  0  0  0  0
    4.2436   -2.7936   -2.0710 H   0  0  0  0  0  0  0  0  0  0  0  0
    5.3305   -0.6915   -1.5210 H   0  0  0  0  0  0  0  0  0  0  0  0
    5.1295   -2.1982    1.1617 H   0  0  0  0  0  0  0  0  0  0  0  0
    6.2252   -2.6261   -0.1315 H   0  0  0  0  0  0  0  0  0  0  0  0
    8.0124   -0.9583   -0.8912 H   0  0  0  0  0  0  0  0  0  0  0  0
    9.6771    0.6591   -0.0496 H   0  0  0  0  0  0  0  0  0  0  0  0
    9.3542    1.7506    2.1543 H   0  0  0  0  0  0  0  0  0  0  0  0
    7.3539    1.2175    3.5194 H   0  0  0  0  0  0  0  0  0  0  0  0
    5.6805   -0.3965    2.6969 H   0  0  0  0  0  0  0  0  0  0  0  0
    3.4780   -0.3498    0.8959 H   0  0  0  0  0  0  0  0  0  0  0  0
    4.2510    0.9056   -0.1057 H   0  0  0  0  0  0  0  0  0  0  0  0
   -2.7194    0.6736   -2.8884 H   0  0  0  0  0  0  0  0  0  0  0  0
   -5.0612    0.8385    2.6742 H   0  0  0  0  0  0  0  0  0  0  0  0
   -5.4821    1.8104    1.2495 H   0  0  0  0  0  0  0  0  0  0  0  0
   -7.4814    1.2929    2.6132 H   0  0  0  0  0  0  0  0  0  0  0  0
   -7.1533   -0.4362    2.4722 H   0  0  0  0  0  0  0  0  0  0  0  0
  1  2  1  0
  2  3  1  0
  3  4  1  0
  4  5  1  0
  5  6  1  0
  6  7  2  0
  7  8  1  0
  8  9  2  0
  9 10  1  0
 10 11  1  0
 11 12  1  0
 12 13  2  0
 12 14  1  0
 14 15  1  0
 15 16  1  0
 16 17  1  0
 17 18  1  0
 18 19  1  0
 19 20  2  0
 20 21  1  0
 21 22  2  0
 22 23  1  0
 23 24  2  0
 17 25  1  0
  9 26  1  0
 26 27  2  0
  5 28  1  0
 28 29  1  0
 29  2  1  0
 27  6  1  0
 25 14  1  0
 24 19  1  0
  1 30  1  0
  1 31  1  0
  1 32  1  0
  3 33  1  0
  3 34  1  0
  4 35  1  0
  4 36  1  0
  7 37  1  0
  8 38  1  0
 10 39  1  0
 10 40  1  0
 11 41  1  0
 15 42  1  0
 15 43  1  0
 16 44  1  0
 16 45  1  0
 17 46  1  0
 18 47  1  0
 18 48  1  0
 20 49  1  0
 21 50  1  0
 22 51  1  0
 23 52  1  0
 24 53  1  0
 25 54  1  0
 25 55  1  0
 26 56  1  0
 28 57  1  0
 28 58  1  0
 29 59  1  0
 29 60  1  0
M  END
$$$$
OCNT-2311003
     RDKit          3D

 34 37  0  0  0  0  0  0  0  0999 V2000
    0.3565    2.0551    0.6953 O   0  0  0  0  0  0  0  0  0  0  0  0
    0.7457    0.9597    0.3031 C   0  0  0  0  0  0  0  0  0  0  0  0
   -0.0878   -0.0899   -0.0616 N   0  0  0  0  0  0  0  0  0  0  0  0
   -1.4980   -0.1137   -0.0569 C   0  0  0  0  0  0  0  0  0  0  0  0
   -2.1174   -1.2970   -0.4710 C   0  0  0  0  0  0  0  0  0  0  0  0
   -3.5132   -1.4032   -0.4957 C   0  0  0  0  0  0  0  0  0  0  0  0
   -4.3267   -0.3307   -0.1075 C   0  0  0  0  0  0  0  0  0  0  0  0
   -5.7791   -0.4830   -0.1481 C   0  0  0  0  0  0  0  0  0  0  0  0
   -6.4626   -1.5511   -0.5207 N   0  0  0  0  0  0  0  0  0  0  0  0
   -7.7925   -1.2339   -0.3957 N   0  0  0  0  0  0  0  0  0  0  0  0
   -7.9435    0.0049    0.0452 N   0  0  0  0  0  0  0  0  0  0  0  0
   -6.6980    0.4711    0.1990 N   0  0  0  0  0  0  0  0  0  0  0  0
   -3.7014    0.8518    0.3062 C   0  0  0  0  0  0  0  0  0  0  0  0
   -2.3022    0.9575    0.3307 C   0  0  0  0  0  0  0  0  0  0  0  0
    2.1890    0.6615    0.1839 C   0  0  0  0  0  0  0  0  0  0  0  0
    2.8071   -0.5075   -0.2365 C   0  0  0  0  0  0  0  0  0  0  0  0
    4.1596   -0.2731   -0.1659 N   0  0  0  0  0  0  0  0  0  0  0  0
    5.2229   -1.1186   -0.4756 C   0  0  0  0  0  0  0  0  0  0  0  0
    6.4806   -0.6678   -0.3275 C   0  0  0  0  0  0  0  0  0  0  0  0
    6.6896    0.6907    0.1524 C   0  0  0  0  0  0  0  0  0  0  0  0
    5.6537    1.5002    0.4491 C   0  0  0  0  0  0  0  0  0  0  0  0
    4.3207    1.0258    0.2933 C   0  0  0  0  0  0  0  0  0  0  0  0
    3.1595    1.6011    0.5081 N   0  0  0  0  0  0  0  0  0  0  0  0
    0.3600   -0.9398   -0.3673 H   0  0  0  0  0  0  0  0  0  0  0  0
   -1.5310   -2.1579   -0.7820 H   0  0  0  0  0  0  0  0  0  0  0  0
   -3.9641   -2.3395   -0.8237 H   0  0  0  0  0  0  0  0  0  0  0  0
   -6.5605    1.4150    0.5327 H   0  0  0  0  0  0  0  0  0  0  0  0
   -4.2711    1.7218    0.6202 H   0  0  0  0  0  0  0  0  0  0  0  0
   -1.8767    1.9007    0.6614 H   0  0  0  0  0  0  0  0  0  0  0  0
    2.4318   -1.4620   -0.5716 H   0  0  0  0  0  0  0  0  0  0  0  0
    4.9887   -2.1150   -0.8269 H   0  0  0  0  0  0  0  0  0  0  0  0
    7.3443   -1.2838   -0.5540 H   0  0  0  0  0  0  0  0  0  0  0  0
    7.7124    1.0379    0.2661 H   0  0  0  0  0  0  0  0  0  0  0  0
    5.8037    2.5125    0.8068 H   0  0  0  0  0  0  0  0  0  0  0  0
  1  2  2  0
  2  3  1  0
  3  4  1  0
  4  5  1  0
  5  6  2  0
  6  7  1  0
  7  8  1  0
  8  9  2  0
  9 10  1  0
 10 11  2  0
 11 12  1  0
  7 13  2  0
 13 14  1  0
  2 15  1  0
 15 16  2  0
 16 17  1  0
 17 18  1  0
 18 19  2  0
 19 20  1  0
 20 21  2  0
 21 22  1  0
 22 23  2  0
 14  4  2  0
 23 15  1  0
 12  8  1  0
 22 17  1  0
  3 24  1  0
  5 25  1  0
  6 26  1  0
 12 27  1  0
 13 28  1  0
 14 29  1  0
 16 30  1  0
 18 31  1  0
 19 32  1  0
 20 33  1  0
 21 34  1  0
M  END
$$$$
OCNT-2311017
     RDKit          3D

 32 33  0  0  0  0  0  0  0  0999 V2000
   -5.5223   -0.3414    0.4409 C   0  0  0  0  0  0  0  0  0  0  0  0
   -4.0979   -0.2368    0.4014 O   0  0  0  0  0  0  0  0  0  0  0  0
   -3.6419    0.7059   -0.4534 C   0  0  0  0  0  0  0  0  0  0  0  0
   -4.3063    1.4741   -1.1256 O   0  0  0  0  0  0  0  0  0  0  0  0
   -2.1628    0.7400   -0.3869 C   0  0  0  0  0  0  0  0  0  0  0  0
   -1.5712    2.0080   -0.2840 C   0  0  0  0  0  0  0  0  0  0  0  0
   -0.1841    2.1340   -0.1931 C   0  0  0  0  0  0  0  0  0  0  0  0
    0.6278    0.9954   -0.1992 C   0  0  0  0  0  0  0  0  0  0  0  0
    2.1028    1.1803   -0.0997 C   0  0  0  0  0  0  0  0  0  0  0  0
    2.6146    2.2233   -0.4920 O   0  0  0  0  0  0  0  0  0  0  0  0
    2.8128    0.1449    0.4733 N   0  0  0  0  0  0  0  0  0  0  0  0
    4.2349    0.1953    0.6451 C   0  0  2  0  0  0  0  0  0  0  0  0
    5.1245   -0.7348   -0.1376 C   0  0  0  0  0  0  0  0  0  0  0  0
    4.9553   -0.9286    1.3332 C   0  0  2  0  0  0  0  0  0  0  0  0
    4.1892   -2.0041    1.7500 F   0  0  0  0  0  0  0  0  0  0  0  0
    0.0403   -0.2706   -0.3391 C   0  0  0  0  0  0  0  0  0  0  0  0
   -1.3610   -0.4145   -0.4474 C   0  0  0  0  0  0  0  0  0  0  0  0
   -1.9503   -1.7899   -0.6412 C   0  0  0  0  0  0  0  0  0  0  0  0
   -2.3921   -2.3435    0.5193 F   0  0  0  0  0  0  0  0  0  0  0  0
   -2.9898   -1.8228   -1.5170 F   0  0  0  0  0  0  0  0  0  0  0  0
   -1.0382   -2.6767   -1.1375 F   0  0  0  0  0  0  0  0  0  0  0  0
   -5.9636    0.5909    0.8068 H   0  0  0  0  0  0  0  0  0  0  0  0
   -5.9161   -0.5955   -0.5482 H   0  0  0  0  0  0  0  0  0  0  0  0
   -5.7835   -1.1452    1.1347 H   0  0  0  0  0  0  0  0  0  0  0  0
   -2.1915    2.9038   -0.2713 H   0  0  0  0  0  0  0  0  0  0  0  0
    0.2621    3.1247   -0.1144 H   0  0  0  0  0  0  0  0  0  0  0  0
    2.3292   -0.6270    0.9182 H   0  0  0  0  0  0  0  0  0  0  0  0
    4.6152    1.1967    0.8353 H   0  0  0  0  0  0  0  0  0  0  0  0
    4.6625   -1.4596   -0.7958 H   0  0  0  0  0  0  0  0  0  0  0  0
    6.0685   -0.3427   -0.4947 H   0  0  0  0  0  0  0  0  0  0  0  0
    5.7651   -0.7251    2.0160 H   0  0  0  0  0  0  0  0  0  0  0  0
    0.6677   -1.1586   -0.4080 H   0  0  0  0  0  0  0  0  0  0  0  0
  1  2  1  0
  2  3  1  0
  3  4  2  0
  3  5  1  0
  5  6  1  0
  6  7  2  0
  7  8  1  0
  8  9  1  0
  9 10  2  0
  9 11  1  0
 11 12  1  0
 12 13  1  0
 13 14  1  0
 14 15  1  0
  8 16  2  0
 16 17  1  0
 17 18  1  0
 18 19  1  0
 18 20  1  0
 18 21  1  0
 17  5  2  0
 14 12  1  0
  1 22  1  0
  1 23  1  0
  1 24  1  0
  6 25  1  0
  7 26  1  0
 11 27  1  0
 12 28  1  1
 13 29  1  0
 13 30  1  0
 14 31  1  1
 16 32  1  0
M  END
$$$$
OCNT-2311021
     RDKit          3D

 44 46  0  0  0  0  0  0  0  0999 V2000
    8.0238   -1.9263    0.5930 C   0  0  0  0  0  0  0  0  0  0  0  0
    6.6134   -1.4605    0.7072 C   0  0  0  0  0  0  0  0  0  0  0  0
    5.7996   -1.4513    1.8191 C   0  0  0  0  0  0  0  0  0  0  0  0
    4.5065   -0.9240    1.5340 C   0  0  0  0  0  0  0  0  0  0  0  0
    4.3603   -0.5509    0.2102 C   0  0  0  0  0  0  0  0  0  0  0  0
    3.1895    0.0432   -0.4501 C   0  0  0  0  0  0  0  0  0  0  0  0
    2.4645    1.0580    0.1901 C   0  0  0  0  0  0  0  0  0  0  0  0
    1.3402    1.6271   -0.4156 C   0  0  0  0  0  0  0  0  0  0  0  0
    0.9153    1.1946   -1.6781 C   0  0  0  0  0  0  0  0  0  0  0  0
   -0.3120    1.7958   -2.3128 C   0  0  0  0  0  0  0  0  0  0  0  0
   -1.5107    1.1827   -1.7876 N   0  0  0  0  0  0  0  0  0  0  0  0
   -2.2565    1.7813   -0.7957 C   0  0  0  0  0  0  0  0  0  0  0  0
   -2.0325    2.9061   -0.3630 O   0  0  0  0  0  0  0  0  0  0  0  0
   -3.3884    0.9009   -0.3053 C   0  0  0  0  0  0  0  0  0  0  0  0
   -4.2020    1.5821    0.7950 C   0  0  0  0  0  0  0  0  0  0  0  0
   -5.3304    0.7066    1.3225 C   0  0  0  0  0  0  0  0  0  0  0  0
   -6.2650    0.3824    0.2841 O   0  0  0  0  0  0  0  0  0  0  0  0
   -6.3201   -1.0454    0.2599 C   0  0  0  0  0  0  0  0  0  0  0  0
   -5.8305   -1.4611    1.6210 C   0  0  0  0  0  0  0  0  0  0  0  0
   -4.8129   -0.5007    1.8952 O   0  0  0  0  0  0  0  0  0  0  0  0
    1.6275    0.1722   -2.3162 C   0  0  0  0  0  0  0  0  0  0  0  0
    2.7529   -0.3952   -1.7086 C   0  0  0  0  0  0  0  0  0  0  0  0
    5.8096   -0.8341   -0.6654 S   0  0  0  0  0  0  0  0  0  0  0  0
    8.1068   -2.7396   -0.1355 H   0  0  0  0  0  0  0  0  0  0  0  0
    8.3914   -2.2996    1.5545 H   0  0  0  0  0  0  0  0  0  0  0  0
    8.6793   -1.1071    0.2794 H   0  0  0  0  0  0  0  0  0  0  0  0
    6.1130   -1.8038    2.7944 H   0  0  0  0  0  0  0  0  0  0  0  0
    3.7157   -0.8311    2.2686 H   0  0  0  0  0  0  0  0  0  0  0  0
    2.7739    1.4251    1.1662 H   0  0  0  0  0  0  0  0  0  0  0  0
    0.7925    2.4122    0.1046 H   0  0  0  0  0  0  0  0  0  0  0  0
   -0.3270    2.8806   -2.1593 H   0  0  0  0  0  0  0  0  0  0  0  0
   -0.3063    1.6216   -3.3945 H   0  0  0  0  0  0  0  0  0  0  0  0
   -1.6428    0.1962   -1.9625 H   0  0  0  0  0  0  0  0  0  0  0  0
   -4.0301    0.6666   -1.1623 H   0  0  0  0  0  0  0  0  0  0  0  0
   -2.9540   -0.0338    0.0674 H   0  0  0  0  0  0  0  0  0  0  0  0
   -4.6227    2.5151    0.4004 H   0  0  0  0  0  0  0  0  0  0  0  0
   -3.5324    1.8437    1.6235 H   0  0  0  0  0  0  0  0  0  0  0  0
   -5.8776    1.2472    2.1038 H   0  0  0  0  0  0  0  0  0  0  0  0
   -5.6436   -1.3917   -0.5287 H   0  0  0  0  0  0  0  0  0  0  0  0
   -7.3334   -1.3899    0.0391 H   0  0  0  0  0  0  0  0  0  0  0  0
   -6.6132   -1.3632    2.3814 H   0  0  0  0  0  0  0  0  0  0  0  0
   -5.4256   -2.4757    1.6450 H   0  0  0  0  0  0  0  0  0  0  0  0
    1.3145   -0.1930   -3.2917 H   0  0  0  0  0  0  0  0  0  0  0  0
    3.2792   -1.1938   -2.2269 H   0  0  0  0  0  0  0  0  0  0  0  0
  1  2  1  0
  2  3  2  0
  3  4  1  0
  4  5  2  0
  5  6  1  0
  6  7  1  0
  7  8  2  0
  8  9  1  0
  9 10  1  0
 10 11  1  0
 11 12  1  0
 12 13  2  0
 12 14  1  0
 14 15  1  0
 15 16  1  0
 16 17  1  0
 17 18  1  0
 18 19  1  0
 19 20  1  0
  9 21  2  0
 21 22  1  0
  5 23  1  0
 23  2  1  0
 22  6  2  0
 20 16  1  0
  1 24  1  0
  1 25  1  0
  1 26  1  0
  3 27  1  0
  4 28  1  0
  7 29  1  0
  8 30  1  0
 10 31  1  0
 10 32  1  0
 11 33  1  0
 14 34  1  0
 14 35  1  0
 15 36  1  0
 15 37  1  0
 16 38  1  0
 18 39  1  0
 18 40  1  0
 19 41  1  0
 19 42  1  0
 21 43  1  0
 22 44  1  0
M  END
$$$$
