OCNT-2315503
     RDKit          3D

 45 48  0  0  0  0  0  0  0  0999 V2000
   -1.2205   -1.9296    0.4816 O   0  0  0  0  0  0  0  0  0  0  0  0
   -1.3071   -0.7356    0.2129 C   0  0  0  0  0  0  0  0  0  0  0  0
   -0.3212    0.2154    0.4106 N   0  0  0  0  0  0  0  0  0  0  0  0
    1.0117   -0.0125    0.8132 C   0  0  0  0  0  0  0  0  0  0  0  0
    1.6135   -1.2699    0.8254 C   0  0  0  0  0  0  0  0  0  0  0  0
    2.9490   -1.4153    1.2170 C   0  0  0  0  0  0  0  0  0  0  0  0
    3.7070   -0.3031    1.6051 C   0  0  0  0  0  0  0  0  0  0  0  0
    5.1465   -0.4681    2.0242 C   0  0  0  0  0  0  0  0  0  0  0  0
    6.0210   -0.6791    0.8788 N   0  0  0  0  0  0  0  0  0  0  0  0
    6.5047    0.2803    0.0319 C   0  0  0  0  0  0  0  0  0  0  0  0
    7.3254   -0.3740   -0.8566 C   0  0  0  0  0  0  0  0  0  0  0  0
    7.2809   -1.7223   -0.4583 C   0  0  0  0  0  0  0  0  0  0  0  0
    6.4982   -1.9137    0.6064 N   0  0  0  0  0  0  0  0  0  0  0  0
    3.1049    0.9603    1.5811 C   0  0  0  0  0  0  0  0  0  0  0  0
    1.7706    1.1022    1.1860 C   0  0  0  0  0  0  0  0  0  0  0  0
   -2.4519   -0.1526   -0.3184 N   0  0  0  0  0  0  0  0  0  0  0  0
   -3.6093   -0.8718   -0.5460 C   0  0  0  0  0  0  0  0  0  0  0  0
   -4.8153   -0.5225   -1.1085 C   0  0  0  0  0  0  0  0  0  0  0  0
   -5.3327    0.8136   -1.7070 C   0  0  0  0  0  0  0  0  0  0  0  0
   -5.6714    1.9117   -0.6777 C   0  0  0  0  0  0  0  0  0  0  0  0
   -4.4049    2.6717   -1.0993 C   0  0  0  0  0  0  0  0  0  0  0  0
   -4.3147    1.7755   -2.3458 C   0  0  0  0  0  0  0  0  0  0  0  0
   -5.6063   -1.6880   -1.0438 C   0  0  0  0  0  0  0  0  0  0  0  0
   -4.9581   -2.7121   -0.4870 N   0  0  0  0  0  0  0  0  0  0  0  0
   -3.7483   -2.1971   -0.2007 N   0  0  0  0  0  0  0  0  0  0  0  0
   -0.6374    1.1712    0.4477 H   0  0  0  0  0  0  0  0  0  0  0  0
    1.0758   -2.1625    0.5202 H   0  0  0  0  0  0  0  0  0  0  0  0
    3.3975   -2.4095    1.2077 H   0  0  0  0  0  0  0  0  0  0  0  0
    5.5134    0.4195    2.5514 H   0  0  0  0  0  0  0  0  0  0  0  0
    5.2564   -1.3194    2.7060 H   0  0  0  0  0  0  0  0  0  0  0  0
    6.2246    1.3197    0.1291 H   0  0  0  0  0  0  0  0  0  0  0  0
    7.8816    0.0615   -1.6746 H   0  0  0  0  0  0  0  0  0  0  0  0
    7.7898   -2.5717   -0.8958 H   0  0  0  0  0  0  0  0  0  0  0  0
    3.6672    1.8462    1.8665 H   0  0  0  0  0  0  0  0  0  0  0  0
    1.3363    2.0986    1.1782 H   0  0  0  0  0  0  0  0  0  0  0  0
   -2.4018    0.7936   -0.6585 H   0  0  0  0  0  0  0  0  0  0  0  0
   -6.1740    0.6181   -2.3864 H   0  0  0  0  0  0  0  0  0  0  0  0
   -6.5993    2.4461   -0.9102 H   0  0  0  0  0  0  0  0  0  0  0  0
   -5.7007    1.6094    0.3739 H   0  0  0  0  0  0  0  0  0  0  0  0
   -4.5462    3.7376   -1.3011 H   0  0  0  0  0  0  0  0  0  0  0  0
   -3.5708    2.5585   -0.3990 H   0  0  0  0  0  0  0  0  0  0  0  0
   -4.6974    2.2600   -3.2525 H   0  0  0  0  0  0  0  0  0  0  0  0
   -3.3239    1.3790   -2.5781 H   0  0  0  0  0  0  0  0  0  0  0  0
   -6.6254   -1.8345   -1.3764 H   0  0  0  0  0  0  0  0  0  0  0  0
   -3.0375   -2.7848    0.2289 H   0  0  0  0  0  0  0  0  0  0  0  0
  1  2  2  0
  2  3  1  0
  3  4  1  0
  4  5  1  0
  5  6  2  0
  6  7  1  0
  7  8  1  0
  8  9  1  0
  9 10  1  0
 10 11  2  0
 11 12  1  0
 12 13  2  0
  7 14  2  0
 14 15  1  0
  2 16  1  0
 16 17  1  0
 17 18  2  0
 18 19  1  0
 19 20  1  0
 20 21  1  0
 21 22  1  0
 18 23  1  0
 23 24  2  0
 24 25  1  0
 15  4  2  0
 25 17  1  0
 13  9  1  0
 22 19  1  0
  3 26  1  0
  5 27  1  0
  6 28  1  0
  8 29  1  0
  8 30  1  0
 10 31  1  0
 11 32  1  0
 12 33  1  0
 14 34  1  0
 15 35  1  0
 16 36  1  0
 19 37  1  0
 20 38  1  0
 20 39  1  0
 21 40  1  0
 21 41  1  0
 22 42  1  0
 22 43  1  0
 23 44  1  0
 25 45  1  0
M  END
$$$$
OCNT-2315512
     RDKit          3D

 44 47  0  0  0  0  0  0  0  0999 V2000
   -2.3138    3.5161   -0.2449 C   0  0  0  0  0  0  0  0  0  0  0  0
   -2.3308    2.7474    1.0676 C   0  0  0  0  0  0  0  0  0  0  0  0
   -2.5500    1.2727    0.8527 C   0  0  0  0  0  0  0  0  0  0  0  0
   -3.8160    0.7088    0.9801 C   0  0  0  0  0  0  0  0  0  0  0  0
   -3.9967   -0.6587    0.7574 C   0  0  0  0  0  0  0  0  0  0  0  0
   -2.9456   -1.4950    0.4067 C   0  0  0  0  0  0  0  0  0  0  0  0
   -3.2167   -2.7930    0.2027 N   0  0  0  0  0  0  0  0  0  0  0  0
   -2.1993   -3.6007   -0.1469 C   0  0  0  0  0  0  0  0  0  0  0  0
   -0.8943   -3.1758   -0.3040 C   0  0  0  0  0  0  0  0  0  0  0  0
   -0.5876   -1.8274   -0.0920 C   0  0  0  0  0  0  0  0  0  0  0  0
    0.7463   -1.3483   -0.2095 N   0  0  0  0  0  0  0  0  0  0  0  0
    1.5652   -1.9652   -1.2553 C   0  0  0  0  0  0  0  0  0  0  0  0
    2.7755   -1.0762   -1.5485 C   0  0  0  0  0  0  0  0  0  0  0  0
    3.3253   -0.3809   -0.2887 C   0  0  0  0  0  0  0  0  0  0  0  0
    3.0107    1.0392   -0.1896 N   0  0  0  0  0  0  0  0  0  0  0  0
    1.9893    1.7583   -0.7352 C   0  0  0  0  0  0  0  0  0  0  0  0
    2.2065    3.0390   -0.2911 C   0  0  0  0  0  0  0  0  0  0  0  0
    3.3243    3.0661    0.4895 N   0  0  0  0  0  0  0  0  0  0  0  0
    3.8135    1.8348    0.5462 N   0  0  0  0  0  0  0  0  0  0  0  0
    2.9131   -1.1300    0.9830 C   0  0  0  0  0  0  0  0  0  0  0  0
    1.3934   -1.2457    1.1162 C   0  0  0  0  0  0  0  0  0  0  0  0
   -1.6488   -0.9491    0.2750 C   0  0  0  0  0  0  0  0  0  0  0  0
   -1.4825    0.4401    0.4939 C   0  0  0  0  0  0  0  0  0  0  0  0
   -2.1610    4.5834   -0.0562 H   0  0  0  0  0  0  0  0  0  0  0  0
   -1.5071    3.1697   -0.8999 H   0  0  0  0  0  0  0  0  0  0  0  0
   -3.2593    3.3980   -0.7852 H   0  0  0  0  0  0  0  0  0  0  0  0
   -1.3846    2.9011    1.6009 H   0  0  0  0  0  0  0  0  0  0  0  0
   -3.1157    3.1501    1.7194 H   0  0  0  0  0  0  0  0  0  0  0  0
   -4.6733    1.3215    1.2481 H   0  0  0  0  0  0  0  0  0  0  0  0
   -4.9923   -1.0854    0.8571 H   0  0  0  0  0  0  0  0  0  0  0  0
   -2.4690   -4.6420   -0.2978 H   0  0  0  0  0  0  0  0  0  0  0  0
   -0.1379   -3.9048   -0.5649 H   0  0  0  0  0  0  0  0  0  0  0  0
    0.9962   -2.0926   -2.1848 H   0  0  0  0  0  0  0  0  0  0  0  0
    1.9113   -2.9584   -0.9406 H   0  0  0  0  0  0  0  0  0  0  0  0
    3.5585   -1.7154   -1.9773 H   0  0  0  0  0  0  0  0  0  0  0  0
    2.5315   -0.3527   -2.3349 H   0  0  0  0  0  0  0  0  0  0  0  0
    4.4216   -0.4089   -0.3641 H   0  0  0  0  0  0  0  0  0  0  0  0
    1.2198    1.3231   -1.3551 H   0  0  0  0  0  0  0  0  0  0  0  0
    1.6271    3.9297   -0.4853 H   0  0  0  0  0  0  0  0  0  0  0  0
    3.3246   -0.6564    1.8825 H   0  0  0  0  0  0  0  0  0  0  0  0
    3.3442   -2.1396    0.9480 H   0  0  0  0  0  0  0  0  0  0  0  0
    1.1643   -2.1175    1.7434 H   0  0  0  0  0  0  0  0  0  0  0  0
    1.0174   -0.3609    1.6423 H   0  0  0  0  0  0  0  0  0  0  0  0
   -0.4974    0.8815    0.3764 H   0  0  0  0  0  0  0  0  0  0  0  0
  1  2  1  0
  2  3  1  0
  3  4  2  0
  4  5  1  0
  5  6  2  0
  6  7  1  0
  7  8  2  0
  8  9  1  0
  9 10  2  0
 10 11  1  0
 11 12  1  0
 12 13  1  0
 13 14  1  0
 14 15  1  0
 15 16  1  0
 16 17  2  0
 17 18  1  0
 18 19  2  0
 14 20  1  0
 20 21  1  0
 10 22  1  0
 22 23  2  0
 23  3  1  0
 22  6  1  0
 21 11  1  0
 19 15  1  0
  1 24  1  0
  1 25  1  0
  1 26  1  0
  2 27  1  0
  2 28  1  0
  4 29  1  0
  5 30  1  0
  8 31  1  0
  9 32  1  0
 12 33  1  0
 12 34  1  0
 13 35  1  0
 13 36  1  0
 14 37  1  0
 16 38  1  0
 17 39  1  0
 20 40  1  0
 20 41  1  0
 21 42  1  0
 21 43  1  0
 23 44  1  0
M  END
$$$$
OCNT-2315514
     RDKit          3D

 54 57  0  0  0  0  0  0  0  0999 V2000
   -4.4828    3.3668    0.3655 C   0  0  0  0  0  0  0  0  0  0  0  0
   -5.1065    2.0478    0.7961 C   0  0  0  0  0  0  0  0  0  0  0  0
   -4.2678    0.8679    0.3695 C   0  0  0  0  0  0  0  0  0  0  0  0
   -4.5601    0.3899   -0.8674 N   0  0  0  0  0  0  0  0  0  0  0  0
   -3.9136   -0.6842   -1.3452 C   0  0  0  0  0  0  0  0  0  0  0  0
   -4.2605   -1.1596   -2.6034 C   0  0  0  0  0  0  0  0  0  0  0  0
   -3.6469   -2.2806   -3.1668 C   0  0  0  0  0  0  0  0  0  0  0  0
   -2.6624   -2.9522   -2.4577 C   0  0  0  0  0  0  0  0  0  0  0  0
   -2.2956   -2.4917   -1.1949 C   0  0  0  0  0  0  0  0  0  0  0  0
   -2.9087   -1.3452   -0.6250 C   0  0  0  0  0  0  0  0  0  0  0  0
   -2.5901   -0.7970    0.6400 C   0  0  0  0  0  0  0  0  0  0  0  0
   -1.5258   -1.4310    1.4470 C   0  0  0  0  0  0  0  0  0  0  0  0
   -1.8634   -2.1905    2.3500 O   0  0  0  0  0  0  0  0  0  0  0  0
   -0.2051   -1.1251    1.1452 N   0  0  0  0  0  0  0  0  0  0  0  0
    0.8537   -1.7957    1.9040 C   0  0  0  0  0  0  0  0  0  0  0  0
    2.2077   -1.7889    1.1770 C   0  0  0  0  0  0  0  0  0  0  0  0
    2.6181   -0.4125    0.8528 N   0  0  0  0  0  0  0  0  0  0  0  0
    3.9038   -0.2515    0.3469 C   0  0  0  0  0  0  0  0  0  0  0  0
    4.4466    1.0045    0.1526 C   0  0  0  0  0  0  0  0  0  0  0  0
    5.7322    1.0684   -0.3371 C   0  0  0  0  0  0  0  0  0  0  0  0
    6.2473    2.3380   -0.5244 O   0  0  0  0  0  0  0  0  0  0  0  0
    7.5839    2.3341   -1.0160 C   0  0  0  0  0  0  0  0  0  0  0  0
    6.4769   -0.0062   -0.6277 N   0  0  0  0  0  0  0  0  0  0  0  0
    5.8781   -1.1753   -0.3908 C   0  0  0  0  0  0  0  0  0  0  0  0
    4.6354   -1.3508    0.0842 N   0  0  0  0  0  0  0  0  0  0  0  0
    1.5583    0.5311    0.4598 C   0  0  0  0  0  0  0  0  0  0  0  0
    0.2336   -0.1773    0.1119 C   0  0  0  0  0  0  0  0  0  0  0  0
   -3.2613    0.3236    1.1648 C   0  0  0  0  0  0  0  0  0  0  0  0
   -2.9524    0.8460    2.5399 C   0  0  0  0  0  0  0  0  0  0  0  0
   -4.3706    3.4135   -0.7232 H   0  0  0  0  0  0  0  0  0  0  0  0
   -3.4917    3.5076    0.8087 H   0  0  0  0  0  0  0  0  0  0  0  0
   -5.1159    4.2037    0.6766 H   0  0  0  0  0  0  0  0  0  0  0  0
   -5.2801    2.0356    1.8773 H   0  0  0  0  0  0  0  0  0  0  0  0
   -6.0993    1.9586    0.3370 H   0  0  0  0  0  0  0  0  0  0  0  0
   -5.0397   -0.6434   -3.1603 H   0  0  0  0  0  0  0  0  0  0  0  0
   -3.9482   -2.6270   -4.1519 H   0  0  0  0  0  0  0  0  0  0  0  0
   -2.1852   -3.8330   -2.8795 H   0  0  0  0  0  0  0  0  0  0  0  0
   -1.5298   -3.0399   -0.6488 H   0  0  0  0  0  0  0  0  0  0  0  0
    0.9381   -1.2651    2.8603 H   0  0  0  0  0  0  0  0  0  0  0  0
    0.5510   -2.8258    2.1226 H   0  0  0  0  0  0  0  0  0  0  0  0
    2.1276   -2.3808    0.2559 H   0  0  0  0  0  0  0  0  0  0  0  0
    2.9473   -2.2668    1.8311 H   0  0  0  0  0  0  0  0  0  0  0  0
    3.9117    1.9121    0.3923 H   0  0  0  0  0  0  0  0  0  0  0  0
    7.9020    3.3756   -1.1238 H   0  0  0  0  0  0  0  0  0  0  0  0
    7.6416    1.8645   -2.0041 H   0  0  0  0  0  0  0  0  0  0  0  0
    8.2659    1.8495   -0.3088 H   0  0  0  0  0  0  0  0  0  0  0  0
    6.4493   -2.0724   -0.6021 H   0  0  0  0  0  0  0  0  0  0  0  0
    1.3898    1.2171    1.2986 H   0  0  0  0  0  0  0  0  0  0  0  0
    1.8444    1.1344   -0.4101 H   0  0  0  0  0  0  0  0  0  0  0  0
    0.3598   -0.7581   -0.8098 H   0  0  0  0  0  0  0  0  0  0  0  0
   -0.5384    0.5745   -0.0744 H   0  0  0  0  0  0  0  0  0  0  0  0
   -3.5722    0.3324    3.2813 H   0  0  0  0  0  0  0  0  0  0  0  0
   -1.8991    0.7082    2.8029 H   0  0  0  0  0  0  0  0  0  0  0  0
   -3.1306    1.9223    2.6162 H   0  0  0  0  0  0  0  0  0  0  0  0
  1  2  1  0
  2  3  1  0
  3  4  2  0
  4  5  1  0
  5  6  2  0
  6  7  1  0
  7  8  2  0
  8  9  1  0
  9 10  2  0
 10 11  1  0
 11 12  1  0
 12 13  2  0
 12 14  1  0
 14 15  1  0
 15 16  1  0
 16 17  1  0
 17 18  1  0
 18 19  1  0
 19 20  2  0
 20 21  1  0
 21 22  1  0
 20 23  1  0
 23 24  2  0
 24 25  1  0
 17 26  1  0
 26 27  1  0
 11 28  2  0
 28 29  1  0
 28  3  1  0
 10  5  1  0
 27 14  1  0
 25 18  2  0
  1 30  1  0
  1 31  1  0
  1 32  1  0
  2 33  1  0
  2 34  1  0
  6 35  1  0
  7 36  1  0
  8 37  1  0
  9 38  1  0
 15 39  1  0
 15 40  1  0
 16 41  1  0
 16 42  1  0
 19 43  1  0
 22 44  1  0
 22 45  1  0
 22 46  1  0
 24 47  1  0
 26 48  1  0
 26 49  1  0
 27 50  1  0
 27 51  1  0
 29 52  1  0
 29 53  1  0
 29 54  1  0
M  END
$$$$
OCNT-2315517
     RDKit          3D

 38 41  0  0  0  0  0  0  0  0999 V2000
   -4.5408    2.8279    0.0510 C   0  0  0  0  0  0  0  0  0  0  0  0
   -4.8907    1.4474   -0.1671 N   0  0  0  0  0  0  0  0  0  0  0  0
   -6.1531    0.9648   -0.3620 C   0  0  0  0  0  0  0  0  0  0  0  0
   -6.1529   -0.3380   -0.5333 N   0  0  0  0  0  0  0  0  0  0  0  0
   -4.8345   -0.7112   -0.4450 C   0  0  0  0  0  0  0  0  0  0  0  0
   -4.2560   -1.9817   -0.5518 C   0  0  0  0  0  0  0  0  0  0  0  0
   -2.8641   -2.1008   -0.4225 C   0  0  0  0  0  0  0  0  0  0  0  0
   -2.0503   -0.9818   -0.1906 C   0  0  0  0  0  0  0  0  0  0  0  0
   -0.6680   -1.2194   -0.0780 N   0  0  0  0  0  0  0  0  0  0  0  0
    0.3487   -0.3086    0.1487 C   0  0  0  0  0  0  0  0  0  0  0  0
    0.2187    0.9021    0.2967 O   0  0  0  0  0  0  0  0  0  0  0  0
    1.6727   -0.9466    0.2021 C   0  0  0  0  0  0  0  0  0  0  0  0
    1.8160   -2.2827    0.0507 N   0  0  0  0  0  0  0  0  0  0  0  0
    3.1760   -2.5426    0.1666 O   0  0  0  0  0  0  0  0  0  0  0  0
    3.8194   -1.3783    0.3844 C   0  0  0  0  0  0  0  0  0  0  0  0
    2.9336   -0.3343    0.4088 C   0  0  0  0  0  0  0  0  0  0  0  0
    3.3606    1.0671    0.6406 C   0  0  0  0  0  0  0  0  0  0  0  0
    4.8903    1.2057    0.4544 C   0  0  0  0  0  0  0  0  0  0  0  0
    5.6811    0.0464    1.1035 C   0  0  0  0  0  0  0  0  0  0  0  0
    5.2866   -1.3339    0.5344 C   0  0  0  0  0  0  0  0  0  0  0  0
   -2.6224    0.2927   -0.0827 C   0  0  0  0  0  0  0  0  0  0  0  0
   -4.0162    0.3901   -0.2150 C   0  0  0  0  0  0  0  0  0  0  0  0
   -4.0510    2.9126    1.0243 H   0  0  0  0  0  0  0  0  0  0  0  0
   -5.4448    3.4422    0.0376 H   0  0  0  0  0  0  0  0  0  0  0  0
   -3.8663    3.1457   -0.7482 H   0  0  0  0  0  0  0  0  0  0  0  0
   -7.0314    1.5972   -0.3703 H   0  0  0  0  0  0  0  0  0  0  0  0
   -4.8807   -2.8495   -0.7310 H   0  0  0  0  0  0  0  0  0  0  0  0
   -2.4283   -3.0938   -0.5076 H   0  0  0  0  0  0  0  0  0  0  0  0
   -0.3512   -2.1811   -0.1712 H   0  0  0  0  0  0  0  0  0  0  0  0
    3.0931    1.3565    1.6639 H   0  0  0  0  0  0  0  0  0  0  0  0
    2.8479    1.7516   -0.0435 H   0  0  0  0  0  0  0  0  0  0  0  0
    5.1222    1.2294   -0.6185 H   0  0  0  0  0  0  0  0  0  0  0  0
    5.2214    2.1627    0.8732 H   0  0  0  0  0  0  0  0  0  0  0  0
    6.7566    0.2038    0.9648 H   0  0  0  0  0  0  0  0  0  0  0  0
    5.4936    0.0588    2.1853 H   0  0  0  0  0  0  0  0  0  0  0  0
    5.7550   -1.4746   -0.4462 H   0  0  0  0  0  0  0  0  0  0  0  0
    5.6430   -2.1295    1.1963 H   0  0  0  0  0  0  0  0  0  0  0  0
   -2.0338    1.1834    0.0957 H   0  0  0  0  0  0  0  0  0  0  0  0
  1  2  1  0
  2  3  1  0
  3  4  2  0
  4  5  1  0
  5  6  2  0
  6  7  1  0
  7  8  2  0
  8  9  1  0
  9 10  1  0
 10 11  2  0
 10 12  1  0
 12 13  2  0
 13 14  1  0
 14 15  1  0
 15 16  2  0
 16 17  1  0
 17 18  1  0
 18 19  1  0
 19 20  1  0
  8 21  1  0
 21 22  2  0
 22  2  1  0
 22  5  1  0
 16 12  1  0
 20 15  1  0
  1 23  1  0
  1 24  1  0
  1 25  1  0
  3 26  1  0
  6 27  1  0
  7 28  1  0
  9 29  1  0
 17 30  1  0
 17 31  1  0
 18 32  1  0
 18 33  1  0
 19 34  1  0
 19 35  1  0
 20 36  1  0
 20 37  1  0
 21 38  1  0
M  END
$$$$
OCNT-2315532
     RDKit          3D

 38 41  0  0  0  0  0  0  0  0999 V2000
   -2.1485   -4.5262   -0.5782 N   0  0  0  0  0  0  0  0  0  0  0  0
   -2.6205   -3.5040   -0.3001 C   0  0  0  0  0  0  0  0  0  0  0  0
   -3.1610   -2.2297    0.0500 C   0  0  0  0  0  0  0  0  0  0  0  0
   -4.5313   -2.0944    0.1652 C   0  0  0  0  0  0  0  0  0  0  0  0
   -5.1504   -0.9378    0.4872 N   0  0  0  0  0  0  0  0  0  0  0  0
   -4.4064    0.1598    0.7233 C   0  0  0  0  0  0  0  0  0  0  0  0
   -5.0278    1.3627    1.0660 C   0  0  0  0  0  0  0  0  0  0  0  0
   -6.3680    1.4171    1.1511 F   0  0  0  0  0  0  0  0  0  0  0  0
   -4.3026    2.5170    1.3284 C   0  0  0  0  0  0  0  0  0  0  0  0
   -4.9357    3.6518    1.6565 F   0  0  0  0  0  0  0  0  0  0  0  0
   -2.9245    2.4886    1.2550 C   0  0  0  0  0  0  0  0  0  0  0  0
   -2.2065    3.5889    1.5135 F   0  0  0  0  0  0  0  0  0  0  0  0
   -2.2680    1.3130    0.9153 C   0  0  0  0  0  0  0  0  0  0  0  0
   -2.9923    0.1308    0.6356 C   0  0  0  0  0  0  0  0  0  0  0  0
   -2.3600   -1.0999    0.2901 C   0  0  0  0  0  0  0  0  0  0  0  0
   -0.9385   -1.1362    0.1153 N   0  0  0  0  0  0  0  0  0  0  0  0
   -0.5429   -0.7370   -1.2584 C   0  0  0  0  0  0  0  0  0  0  0  0
    0.9225   -0.5315   -1.4120 C   0  0  0  0  0  0  0  0  0  0  0  0
    1.6444   -0.6404   -2.5035 N   0  0  0  0  0  0  0  0  0  0  0  0
    2.9464   -0.3488   -2.1739 N   0  0  0  0  0  0  0  0  0  0  0  0
    3.0089   -0.0635   -0.8851 C   0  0  0  0  0  0  0  0  0  0  0  0
    4.2079    0.2959   -0.1279 C   0  0  0  0  0  0  0  0  0  0  0  0
    5.4433    0.3245   -0.7830 C   0  0  0  0  0  0  0  0  0  0  0  0
    6.5766    0.6646   -0.0642 C   0  0  0  0  0  0  0  0  0  0  0  0
    6.5632    0.9751    1.2480 N   0  0  0  0  0  0  0  0  0  0  0  0
    5.3658    0.9447    1.8657 C   0  0  0  0  0  0  0  0  0  0  0  0
    4.1761    0.6162    1.2323 C   0  0  0  0  0  0  0  0  0  0  0  0
    1.7400   -0.1682   -0.3761 N   0  0  0  0  0  0  0  0  0  0  0  0
   -5.2049   -2.9327   -0.0052 H   0  0  0  0  0  0  0  0  0  0  0  0
   -1.1823    1.3263    0.8809 H   0  0  0  0  0  0  0  0  0  0  0  0
   -0.5887   -2.0875    0.2684 H   0  0  0  0  0  0  0  0  0  0  0  0
   -1.0397    0.1980   -1.5455 H   0  0  0  0  0  0  0  0  0  0  0  0
   -0.8659   -1.5098   -1.9670 H   0  0  0  0  0  0  0  0  0  0  0  0
    5.5253    0.0851   -1.8396 H   0  0  0  0  0  0  0  0  0  0  0  0
    7.5523    0.6965   -0.5409 H   0  0  0  0  0  0  0  0  0  0  0  0
    5.3866    1.2009    2.9216 H   0  0  0  0  0  0  0  0  0  0  0  0
    3.2614    0.6205    1.8114 H   0  0  0  0  0  0  0  0  0  0  0  0
    1.4454   -0.0307    0.5783 H   0  0  0  0  0  0  0  0  0  0  0  0
  1  2  3  0
  2  3  1  0
  3  4  1  0
  4  5  2  0
  5  6  1  0
  6  7  2  0
  7  8  1  0
  7  9  1  0
  9 10  1  0
  9 11  2  0
 11 12  1  0
 11 13  1  0
 13 14  2  0
 14 15  1  0
 15 16  1  0
 16 17  1  0
 17 18  1  0
 18 19  2  0
 19 20  1  0
 20 21  2  0
 21 22  1  0
 22 23  2  0
 23 24  1  0
 24 25  2  0
 25 26  1  0
 26 27  2  0
 21 28  1  0
 15  3  2  0
 28 18  1  0
 14  6  1  0
 27 22  1  0
  4 29  1  0
 13 30  1  0
 16 31  1  0
 17 32  1  0
 17 33  1  0
 23 34  1  0
 24 35  1  0
 26 36  1  0
 27 37  1  0
 28 38  1  0
M  END
$$$$
OCNT-2315543
     RDKit          3D

 43 46  0  0  0  0  0  0  0  0999 V2000
   -4.5905    2.4171    0.9866 C   0  0  0  0  0  0  0  0  0  0  0  0
   -5.0624    1.0959    0.4439 C   0  0  0  0  0  0  0  0  0  0  0  0
   -6.4355    0.8533    0.3560 C   0  0  0  0  0  0  0  0  0  0  0  0
   -6.8618   -0.3618   -0.1424 C   0  0  0  0  0  0  0  0  0  0  0  0
   -6.0295   -1.3387   -0.5530 N   0  0  0  0  0  0  0  0  0  0  0  0
   -4.7077   -1.1160   -0.4722 C   0  0  0  0  0  0  0  0  0  0  0  0
   -3.8475   -2.1187   -0.8917 C   0  0  0  0  0  0  0  0  0  0  0  0
   -2.4575   -1.9712   -0.8414 C   0  0  0  0  0  0  0  0  0  0  0  0
   -1.8825   -0.7919   -0.3616 C   0  0  0  0  0  0  0  0  0  0  0  0
   -0.4225   -0.6241   -0.3047 C   0  0  0  0  0  0  0  0  0  0  0  0
    0.2079    0.4712   -0.9037 C   0  0  0  0  0  0  0  0  0  0  0  0
    1.6018    0.6265   -0.8465 C   0  0  0  0  0  0  0  0  0  0  0  0
    2.4300   -0.2959   -0.1921 C   0  0  0  0  0  0  0  0  0  0  0  0
    3.7931   -0.1390   -0.1382 N   0  0  0  0  0  0  0  0  0  0  0  0
    4.7190   -1.1256    0.4163 C   0  0  0  0  0  0  0  0  0  0  0  0
    6.0947   -0.6331   -0.0186 C   0  0  0  0  0  0  0  0  0  0  0  0
    5.9284    0.8775   -0.0443 C   0  0  0  0  0  0  0  0  0  0  0  0
    6.9314    1.4736   -0.8514 O   0  0  0  0  0  0  0  0  0  0  0  0
    4.5082    1.0469   -0.6067 C   0  0  0  0  0  0  0  0  0  0  0  0
    1.7843   -1.3890    0.4022 C   0  0  0  0  0  0  0  0  0  0  0  0
    0.3914   -1.5541    0.3498 C   0  0  0  0  0  0  0  0  0  0  0  0
   -2.7487    0.2279    0.0649 C   0  0  0  0  0  0  0  0  0  0  0  0
   -4.1584    0.0894    0.0198 C   0  0  0  0  0  0  0  0  0  0  0  0
   -5.4317    3.0646    1.2569 H   0  0  0  0  0  0  0  0  0  0  0  0
   -3.9906    2.2654    1.8897 H   0  0  0  0  0  0  0  0  0  0  0  0
   -3.9974    2.9478    0.2349 H   0  0  0  0  0  0  0  0  0  0  0  0
   -7.1651    1.5930    0.6684 H   0  0  0  0  0  0  0  0  0  0  0  0
   -7.9201   -0.5911   -0.2279 H   0  0  0  0  0  0  0  0  0  0  0  0
   -4.2704   -3.0454   -1.2732 H   0  0  0  0  0  0  0  0  0  0  0  0
   -1.8299   -2.7869   -1.1945 H   0  0  0  0  0  0  0  0  0  0  0  0
   -0.3778    1.2145   -1.4404 H   0  0  0  0  0  0  0  0  0  0  0  0
    2.0275    1.4917   -1.3466 H   0  0  0  0  0  0  0  0  0  0  0  0
    4.6434   -1.1384    1.5096 H   0  0  0  0  0  0  0  0  0  0  0  0
    4.5407   -2.1344    0.0288 H   0  0  0  0  0  0  0  0  0  0  0  0
    6.8915   -0.9580    0.6575 H   0  0  0  0  0  0  0  0  0  0  0  0
    6.3445   -1.0093   -1.0188 H   0  0  0  0  0  0  0  0  0  0  0  0
    5.9952    1.2840    0.9720 H   0  0  0  0  0  0  0  0  0  0  0  0
    6.7684    2.4324   -0.8608 H   0  0  0  0  0  0  0  0  0  0  0  0
    4.5204    1.0887   -1.7023 H   0  0  0  0  0  0  0  0  0  0  0  0
    4.0715    1.9773   -0.2265 H   0  0  0  0  0  0  0  0  0  0  0  0
    2.3554   -2.1436    0.9356 H   0  0  0  0  0  0  0  0  0  0  0  0
   -0.0499   -2.4184    0.8418 H   0  0  0  0  0  0  0  0  0  0  0  0
   -2.3110    1.1457    0.4528 H   0  0  0  0  0  0  0  0  0  0  0  0
  1  2  1  0
  2  3  2  0
  3  4  1  0
  4  5  2  0
  5  6  1  0
  6  7  2  0
  7  8  1  0
  8  9  2  0
  9 10  1  0
 10 11  1  0
 11 12  2  0
 12 13  1  0
 13 14  1  0
 14 15  1  0
 15 16  1  0
 16 17  1  0
 17 18  1  0
 17 19  1  0
 13 20  2  0
 20 21  1  0
  9 22  1  0
 22 23  2  0
 23  2  1  0
 23  6  1  0
 21 10  2  0
 19 14  1  0
  1 24  1  0
  1 25  1  0
  1 26  1  0
  3 27  1  0
  4 28  1  0
  7 29  1  0
  8 30  1  0
 11 31  1  0
 12 32  1  0
 15 33  1  0
 15 34  1  0
 16 35  1  0
 16 36  1  0
 17 37  1  0
 18 38  1  0
 19 39  1  0
 19 40  1  0
 20 41  1  0
 21 42  1  0
 22 43  1  0
M  END
$$$$
OCNT-2315565
     RDKit          3D

 39 42  0  0  0  0  0  0  0  0999 V2000
   -7.5041    1.9672   -0.2199 C   0  0  0  0  0  0  0  0  0  0  0  0
   -6.4503    2.6131    0.4142 C   0  0  0  0  0  0  0  0  0  0  0  0
   -5.1898    2.0180    0.4217 C   0  0  0  0  0  0  0  0  0  0  0  0
   -5.0218    0.7868   -0.2103 C   0  0  0  0  0  0  0  0  0  0  0  0
   -3.7102    0.1191   -0.2185 C   0  0  0  0  0  0  0  0  0  0  0  0
   -3.3024   -0.6682   -1.2307 N   0  0  0  0  0  0  0  0  0  0  0  0
   -2.0810   -1.0844   -0.8751 N   0  0  0  0  0  0  0  0  0  0  0  0
   -1.6654   -0.6026    0.3319 C   0  0  0  0  0  0  0  0  0  0  0  0
   -0.3462   -0.9714    0.9010 C   0  0  0  0  0  0  0  0  0  0  0  0
    0.7419   -0.6897   -0.0250 N   0  0  0  0  0  0  0  0  0  0  0  0
    2.0641   -0.9356    0.3692 C   0  0  0  0  0  0  0  0  0  0  0  0
    3.0985   -0.3022   -0.3408 C   0  0  0  0  0  0  0  0  0  0  0  0
    4.4563   -0.5414   -0.0606 C   0  0  0  0  0  0  0  0  0  0  0  0
    5.5044    0.1575   -0.8103 C   0  0  0  0  0  0  0  0  0  0  0  0
    5.2390    1.2512   -1.5465 N   0  0  0  0  0  0  0  0  0  0  0  0
    6.4349    1.6479   -2.1084 O   0  0  0  0  0  0  0  0  0  0  0  0
    7.4165    0.8036   -1.7197 C   0  0  0  0  0  0  0  0  0  0  0  0
    6.8891   -0.1570   -0.8991 C   0  0  0  0  0  0  0  0  0  0  0  0
    4.7771   -1.4626    0.9423 C   0  0  0  0  0  0  0  0  0  0  0  0
    3.7663   -2.1336    1.6297 C   0  0  0  0  0  0  0  0  0  0  0  0
    2.4241   -1.8815    1.3332 C   0  0  0  0  0  0  0  0  0  0  0  0
   -2.6970    0.1896    0.7830 C   0  0  0  0  0  0  0  0  0  0  0  0
   -6.0463    0.1452   -0.8289 N   0  0  0  0  0  0  0  0  0  0  0  0
   -7.2541    0.7469   -0.8234 C   0  0  0  0  0  0  0  0  0  0  0  0
   -8.4957    2.4044   -0.2478 H   0  0  0  0  0  0  0  0  0  0  0  0
   -6.6053    3.5753    0.8938 H   0  0  0  0  0  0  0  0  0  0  0  0
   -4.3588    2.5236    0.9004 H   0  0  0  0  0  0  0  0  0  0  0  0
   -1.5691   -1.6903   -1.5096 H   0  0  0  0  0  0  0  0  0  0  0  0
   -0.3773   -2.0409    1.1420 H   0  0  0  0  0  0  0  0  0  0  0  0
   -0.1894   -0.4207    1.8369 H   0  0  0  0  0  0  0  0  0  0  0  0
    0.6550    0.2438   -0.4257 H   0  0  0  0  0  0  0  0  0  0  0  0
    2.8385    0.3952   -1.1361 H   0  0  0  0  0  0  0  0  0  0  0  0
    8.4019    1.0178   -2.1053 H   0  0  0  0  0  0  0  0  0  0  0  0
    7.4251   -0.9720   -0.4386 H   0  0  0  0  0  0  0  0  0  0  0  0
    5.8097   -1.6761    1.2035 H   0  0  0  0  0  0  0  0  0  0  0  0
    4.0219   -2.8625    2.3950 H   0  0  0  0  0  0  0  0  0  0  0  0
    1.6732   -2.4476    1.8754 H   0  0  0  0  0  0  0  0  0  0  0  0
   -2.7315    0.7326    1.7168 H   0  0  0  0  0  0  0  0  0  0  0  0
   -8.0417    0.2017   -1.3356 H   0  0  0  0  0  0  0  0  0  0  0  0
  1  2  2  0
  2  3  1  0
  3  4  2  0
  4  5  1  0
  5  6  2  0
  6  7  1  0
  7  8  1  0
  8  9  1  0
  9 10  1  0
 10 11  1  0
 11 12  1  0
 12 13  2  0
 13 14  1  0
 14 15  2  0
 15 16  1  0
 16 17  1  0
 17 18  2  0
 13 19  1  0
 19 20  2  0
 20 21  1  0
  8 22  2  0
  4 23  1  0
 23 24  2  0
 24  1  1  0
 22  5  1  0
 21 11  2  0
 18 14  1  0
  1 25  1  0
  2 26  1  0
  3 27  1  0
  7 28  1  0
  9 29  1  0
  9 30  1  0
 10 31  1  0
 12 32  1  0
 17 33  1  0
 18 34  1  0
 19 35  1  0
 20 36  1  0
 21 37  1  0
 22 38  1  0
 24 39  1  0
M  END
$$$$
OCNT-2315584
     RDKit          3D

 48 50  0  0  0  0  0  0  0  0999 V2000
    6.1160   -0.8058   -1.5213 C   0  0  0  0  0  0  0  0  0  0  0  0
    6.0108   -0.0571   -0.1780 C   0  0  0  0  0  0  0  0  0  0  0  0
    7.0950   -0.6271    0.7626 C   0  0  0  0  0  0  0  0  0  0  0  0
    6.3200    1.4372   -0.3964 C   0  0  0  0  0  0  0  0  0  0  0  0
    4.6196   -0.2325    0.4236 C   0  0  0  0  0  0  0  0  0  0  0  0
    4.2265   -0.8066    1.6219 C   0  0  0  0  0  0  0  0  0  0  0  0
    2.8696   -0.8132    1.8833 N   0  0  0  0  0  0  0  0  0  0  0  0
    2.2331   -0.2276    0.8973 C   0  0  0  0  0  0  0  0  0  0  0  0
    0.8665   -0.1285    0.9056 N   0  0  0  0  0  0  0  0  0  0  0  0
    0.0890    0.6424    0.0807 C   0  0  0  0  0  0  0  0  0  0  0  0
    0.5090    1.4547   -0.7386 O   0  0  0  0  0  0  0  0  0  0  0  0
   -1.2865    0.4473    0.2540 N   0  0  0  0  0  0  0  0  0  0  0  0
   -2.1985    1.3194   -0.4849 C   0  0  0  0  0  0  0  0  0  0  0  0
   -3.5209    1.5091    0.2508 C   0  0  0  0  0  0  0  0  0  0  0  0
   -4.2198    0.1742    0.5786 C   0  0  0  0  0  0  0  0  0  0  0  0
   -5.4806   -0.0486   -0.2377 C   0  0  0  0  0  0  0  0  0  0  0  0
   -5.4665   -0.0610   -1.6369 C   0  0  0  0  0  0  0  0  0  0  0  0
   -6.6558   -0.2766   -2.3180 C   0  0  0  0  0  0  0  0  0  0  0  0
   -7.8436   -0.4798   -1.7119 N   0  0  0  0  0  0  0  0  0  0  0  0
   -7.8409   -0.4669   -0.3631 C   0  0  0  0  0  0  0  0  0  0  0  0
   -6.7048   -0.2603    0.4058 C   0  0  0  0  0  0  0  0  0  0  0  0
   -3.2715   -1.0309    0.4645 C   0  0  0  0  0  0  0  0  0  0  0  0
   -1.8760   -0.6860    0.9707 C   0  0  0  0  0  0  0  0  0  0  0  0
    3.1982    0.3112   -0.3929 S   0  0  0  0  0  0  0  0  0  0  0  0
    5.4353   -0.3940   -2.2748 H   0  0  0  0  0  0  0  0  0  0  0  0
    7.1300   -0.7390   -1.9324 H   0  0  0  0  0  0  0  0  0  0  0  0
    5.8729   -1.8684   -1.4033 H   0  0  0  0  0  0  0  0  0  0  0  0
    6.9482   -1.6987    0.9423 H   0  0  0  0  0  0  0  0  0  0  0  0
    7.0896   -0.1210    1.7352 H   0  0  0  0  0  0  0  0  0  0  0  0
    8.0966   -0.5020    0.3346 H   0  0  0  0  0  0  0  0  0  0  0  0
    5.6440    1.8934   -1.1282 H   0  0  0  0  0  0  0  0  0  0  0  0
    6.2243    2.0028    0.5381 H   0  0  0  0  0  0  0  0  0  0  0  0
    7.3412    1.5789   -0.7691 H   0  0  0  0  0  0  0  0  0  0  0  0
    4.8923   -1.2456    2.3553 H   0  0  0  0  0  0  0  0  0  0  0  0
    0.4599   -0.4866    1.7522 H   0  0  0  0  0  0  0  0  0  0  0  0
   -2.3568    0.8699   -1.4718 H   0  0  0  0  0  0  0  0  0  0  0  0
   -1.7316    2.2975   -0.6461 H   0  0  0  0  0  0  0  0  0  0  0  0
   -4.1725    2.1859   -0.3143 H   0  0  0  0  0  0  0  0  0  0  0  0
   -3.3049    2.0206    1.1992 H   0  0  0  0  0  0  0  0  0  0  0  0
   -4.5224    0.2458    1.6335 H   0  0  0  0  0  0  0  0  0  0  0  0
   -4.5522    0.0902   -2.2000 H   0  0  0  0  0  0  0  0  0  0  0  0
   -6.6822   -0.2926   -3.4040 H   0  0  0  0  0  0  0  0  0  0  0  0
   -8.8081   -0.6329    0.1026 H   0  0  0  0  0  0  0  0  0  0  0  0
   -6.7845   -0.2655    1.4879 H   0  0  0  0  0  0  0  0  0  0  0  0
   -3.6764   -1.8779    1.0320 H   0  0  0  0  0  0  0  0  0  0  0  0
   -3.1920   -1.3695   -0.5769 H   0  0  0  0  0  0  0  0  0  0  0  0
   -1.2282   -1.5631    0.8680 H   0  0  0  0  0  0  0  0  0  0  0  0
   -1.9104   -0.4153    2.0324 H   0  0  0  0  0  0  0  0  0  0  0  0
  1  2  1  0
  2  3  1  0
  2  4  1  0
  2  5  1  0
  5  6  2  0
  6  7  1  0
  7  8  2  0
  8  9  1  0
  9 10  1  0
 10 11  2  0
 10 12  1  0
 12 13  1  0
 13 14  1  0
 14 15  1  0
 15 16  1  0
 16 17  2  0
 17 18  1  0
 18 19  2  0
 19 20  1  0
 20 21  2  0
 15 22  1  0
 22 23  1  0
  8 24  1  0
 24  5  1  0
 23 12  1  0
 21 16  1  0
  1 25  1  0
  1 26  1  0
  1 27  1  0
  3 28  1  0
  3 29  1  0
  3 30  1  0
  4 31  1  0
  4 32  1  0
  4 33  1  0
  6 34  1  0
  9 35  1  0
 13 36  1  0
 13 37  1  0
 14 38  1  0
 14 39  1  0
 15 40  1  0
 17 41  1  0
 18 42  1  0
 20 43  1  0
 21 44  1  0
 22 45  1  0
 22 46  1  0
 23 47  1  0
 23 48  1  0
M  END
$$$$
OCNT-2315600
     RDKit          3D

 47 49  0  0  0  0  0  0  0  0999 V2000
   -1.4383   -3.6047    0.8860 C   0  0  0  0  0  0  0  0  0  0  0  0
   -1.0904   -2.1784    0.5563 C   0  0  0  0  0  0  0  0  0  0  0  0
    0.2566   -1.7748    0.5431 C   0  0  0  0  0  0  0  0  0  0  0  0
    0.6163   -0.4576    0.2339 C   0  0  0  0  0  0  0  0  0  0  0  0
    1.9914   -0.1414    0.2566 N   0  0  0  0  0  0  0  0  0  0  0  0
    2.5895    1.0451   -0.1319 C   0  0  0  0  0  0  0  0  0  0  0  0
    2.0125    1.9869   -0.6619 O   0  0  0  0  0  0  0  0  0  0  0  0
    4.0217    1.0789    0.1078 C   0  0  0  0  0  0  0  0  0  0  0  0
    4.9736    1.8480   -0.5510 C   0  0  0  0  0  0  0  0  0  0  0  0
    6.2457    1.5754    0.0149 C   0  0  0  0  0  0  0  0  0  0  0  0
    7.5632    2.0029   -0.2080 C   0  0  0  0  0  0  0  0  0  0  0  0
    8.5597    1.4716    0.6127 C   0  0  0  0  0  0  0  0  0  0  0  0
    8.2063    0.5603    1.6011 C   0  0  0  0  0  0  0  0  0  0  0  0
    6.9528    0.1177    1.8570 N   0  0  0  0  0  0  0  0  0  0  0  0
    6.0354    0.6589    1.0357 C   0  0  0  0  0  0  0  0  0  0  0  0
    4.6978    0.3895    1.0927 N   0  0  0  0  0  0  0  0  0  0  0  0
   -0.3917    0.4581   -0.0569 C   0  0  0  0  0  0  0  0  0  0  0  0
   -1.7377    0.0677   -0.0454 C   0  0  0  0  0  0  0  0  0  0  0  0
   -2.0980   -1.2443    0.2637 C   0  0  0  0  0  0  0  0  0  0  0  0
   -3.3782   -1.7272    0.2969 O   0  0  0  0  0  0  0  0  0  0  0  0
   -4.4710   -0.8123    0.1683 C   0  0  0  0  0  0  0  0  0  0  0  0
   -4.8602   -0.6306   -1.3109 C   0  0  0  0  0  0  0  0  0  0  0  0
   -5.9714    0.2867   -1.6156 N   0  0  0  0  0  0  0  0  0  0  0  0
   -5.6721    1.6700   -1.2578 C   0  0  0  0  0  0  0  0  0  0  0  0
   -7.2370   -0.1474   -1.0312 C   0  0  0  0  0  0  0  0  0  0  0  0
   -1.9687   -4.0691    0.0483 H   0  0  0  0  0  0  0  0  0  0  0  0
   -0.5419   -4.2027    1.0816 H   0  0  0  0  0  0  0  0  0  0  0  0
   -2.0654   -3.6445    1.7823 H   0  0  0  0  0  0  0  0  0  0  0  0
    1.0248   -2.5093    0.7735 H   0  0  0  0  0  0  0  0  0  0  0  0
    2.6077   -0.9083    0.4809 H   0  0  0  0  0  0  0  0  0  0  0  0
    4.7593    2.5299   -1.3654 H   0  0  0  0  0  0  0  0  0  0  0  0
    7.7999    2.7211   -0.9856 H   0  0  0  0  0  0  0  0  0  0  0  0
    9.5956    1.7676    0.4851 H   0  0  0  0  0  0  0  0  0  0  0  0
    8.9718    0.1390    2.2495 H   0  0  0  0  0  0  0  0  0  0  0  0
    4.2886   -0.1991    1.8023 H   0  0  0  0  0  0  0  0  0  0  0  0
   -0.1712    1.4941   -0.2964 H   0  0  0  0  0  0  0  0  0  0  0  0
   -2.4737    0.8244   -0.2937 H   0  0  0  0  0  0  0  0  0  0  0  0
   -4.2721    0.1319    0.6864 H   0  0  0  0  0  0  0  0  0  0  0  0
   -5.3076   -1.2742    0.7042 H   0  0  0  0  0  0  0  0  0  0  0  0
   -3.9809   -0.3133   -1.8856 H   0  0  0  0  0  0  0  0  0  0  0  0
   -5.0954   -1.6193   -1.7283 H   0  0  0  0  0  0  0  0  0  0  0  0
   -6.4506    2.3386   -1.6409 H   0  0  0  0  0  0  0  0  0  0  0  0
   -4.7306    1.9940   -1.7146 H   0  0  0  0  0  0  0  0  0  0  0  0
   -5.6014    1.8205   -0.1752 H   0  0  0  0  0  0  0  0  0  0  0  0
   -7.4713   -1.1741   -1.3331 H   0  0  0  0  0  0  0  0  0  0  0  0
   -7.2340   -0.0999    0.0631 H   0  0  0  0  0  0  0  0  0  0  0  0
   -8.0590    0.4795   -1.3944 H   0  0  0  0  0  0  0  0  0  0  0  0
  1  2  1  0
  2  3  1  0
  3  4  2  0
  4  5  1  0
  5  6  1  0
  6  7  2  0
  6  8  1  0
  8  9  2  0
  9 10  1  0
 10 11  1  0
 11 12  2  0
 12 13  1  0
 13 14  2  0
 14 15  1  0
 15 16  1  0
  4 17  1  0
 17 18  2  0
 18 19  1  0
 19 20  1  0
 20 21  1  0
 21 22  1  0
 22 23  1  0
 23 24  1  0
 23 25  1  0
 19  2  2  0
 16  8  1  0
 15 10  2  0
  1 26  1  0
  1 27  1  0
  1 28  1  0
  3 29  1  0
  5 30  1  0
  9 31  1  0
 11 32  1  0
 12 33  1  0
 13 34  1  0
 16 35  1  0
 17 36  1  0
 18 37  1  0
 21 38  1  0
 21 39  1  0
 22 40  1  0
 22 41  1  0
 24 42  1  0
 24 43  1  0
 24 44  1  0
 25 45  1  0
 25 46  1  0
 25 47  1  0
M  END
$$$$
OCNT-2315602
     RDKit          3D

 35 38  0  0  0  0  0  0  0  0999 V2000
    0.0961   -2.1126   -2.0404 O   0  0  0  0  0  0  0  0  0  0  0  0
    0.4040   -1.4102   -1.0856 C   0  0  0  0  0  0  0  0  0  0  0  0
   -0.4355   -0.6320   -0.3191 N   0  0  0  0  0  0  0  0  0  0  0  0
   -1.8123   -0.4108   -0.5091 C   0  0  0  0  0  0  0  0  0  0  0  0
   -2.5776   -0.9479   -1.5471 C   0  0  0  0  0  0  0  0  0  0  0  0
   -3.9535   -0.6573   -1.6487 C   0  0  0  0  0  0  0  0  0  0  0  0
   -4.5805    0.1736   -0.7171 C   0  0  0  0  0  0  0  0  0  0  0  0
   -3.8063    0.6936    0.2962 C   0  0  0  0  0  0  0  0  0  0  0  0
   -2.4639    0.4112    0.3982 C   0  0  0  0  0  0  0  0  0  0  0  0
   -1.8870    1.0301    1.4704 O   0  0  0  0  0  0  0  0  0  0  0  0
   -3.0235    1.7257    2.0252 C   0  0  0  0  0  0  0  0  0  0  0  0
   -4.2426    1.5184    1.2848 O   0  0  0  0  0  0  0  0  0  0  0  0
    1.8146   -1.4203   -0.6410 C   0  0  0  0  0  0  0  0  0  0  0  0
    2.4051   -2.6654   -0.3936 C   0  0  0  0  0  0  0  0  0  0  0  0
    3.7257   -2.7220    0.0273 C   0  0  0  0  0  0  0  0  0  0  0  0
    4.4058   -1.5293    0.1775 C   0  0  0  0  0  0  0  0  0  0  0  0
    3.8627   -0.3156   -0.0713 N   0  0  0  0  0  0  0  0  0  0  0  0
    2.5678   -0.2458   -0.4968 C   0  0  0  0  0  0  0  0  0  0  0  0
    2.0140    1.1288   -0.8383 C   0  0  0  0  0  0  0  0  0  0  0  0
    2.7518    2.3895   -0.4442 C   0  0  0  0  0  0  0  0  0  0  0  0
    1.4869    2.0178    0.2671 C   0  0  0  0  0  0  0  0  0  0  0  0
   -0.0468   -0.1624    0.4931 H   0  0  0  0  0  0  0  0  0  0  0  0
   -2.1370   -1.5976   -2.2979 H   0  0  0  0  0  0  0  0  0  0  0  0
   -4.5299   -1.0873   -2.4651 H   0  0  0  0  0  0  0  0  0  0  0  0
   -5.6378    0.4023   -0.7889 H   0  0  0  0  0  0  0  0  0  0  0  0
   -3.1753    1.3819    3.0548 H   0  0  0  0  0  0  0  0  0  0  0  0
   -2.8017    2.7990    2.0425 H   0  0  0  0  0  0  0  0  0  0  0  0
    1.8339   -3.5804   -0.5329 H   0  0  0  0  0  0  0  0  0  0  0  0
    4.2117   -3.6700    0.2287 H   0  0  0  0  0  0  0  0  0  0  0  0
    5.4417   -1.5121    0.5053 H   0  0  0  0  0  0  0  0  0  0  0  0
    1.5032    1.1898   -1.7983 H   0  0  0  0  0  0  0  0  0  0  0  0
    3.6864    2.3011    0.0990 H   0  0  0  0  0  0  0  0  0  0  0  0
    2.7255    3.2247   -1.1345 H   0  0  0  0  0  0  0  0  0  0  0  0
    0.5974    2.6031    0.0630 H   0  0  0  0  0  0  0  0  0  0  0  0
    1.5767    1.6885    1.2963 H   0  0  0  0  0  0  0  0  0  0  0  0
  1  2  2  0
  2  3  1  0
  3  4  1  0
  4  5  2  0
  5  6  1  0
  6  7  2  0
  7  8  1  0
  8  9  2  0
  9 10  1  0
 10 11  1  0
 11 12  1  0
  2 13  1  0
 13 14  1  0
 14 15  2  0
 15 16  1  0
 16 17  2  0
 17 18  1  0
 18 19  1  0
 19 20  1  0
 20 21  1  0
  9  4  1  0
 18 13  2  0
 21 19  1  0
 12  8  1  0
  3 22  1  0
  5 23  1  0
  6 24  1  0
  7 25  1  0
 11 26  1  0
 11 27  1  0
 14 28  1  0
 15 29  1  0
 16 30  1  0
 19 31  1  0
 20 32  1  0
 20 33  1  0
 21 34  1  0
 21 35  1  0
M  END
$$$$
OCNT-2315605
     RDKit          3D

 47 49  0  0  0  0  0  0  0  0999 V2000
    6.9015    1.8643   -1.7681 C   0  0  0  0  0  0  0  0  0  0  0  0
    7.1276    0.5704   -0.9844 C   0  0  0  0  0  0  0  0  0  0  0  0
    7.5399    0.8798    0.4555 C   0  0  0  0  0  0  0  0  0  0  0  0
    5.9140   -0.3111   -1.0235 C   0  0  0  0  0  0  0  0  0  0  0  0
    5.9930   -1.5449   -1.5306 N   0  0  0  0  0  0  0  0  0  0  0  0
    4.4615   -2.2044   -1.3994 S   0  0  0  0  0  0  0  0  0  0  0  0
    3.8076   -0.8054   -0.6747 C   0  0  0  0  0  0  0  0  0  0  0  0
    2.4987   -0.6604   -0.3019 N   0  0  0  0  0  0  0  0  0  0  0  0
    1.5414   -1.6387   -0.3129 C   0  0  0  0  0  0  0  0  0  0  0  0
    1.6933   -2.8149   -0.6135 O   0  0  0  0  0  0  0  0  0  0  0  0
    0.3206   -1.1391    0.0969 N   0  0  0  0  0  0  0  0  0  0  0  0
   -0.8562   -1.9950    0.0590 C   0  0  0  0  0  0  0  0  0  0  0  0
   -2.0291   -1.3403    0.7733 C   0  0  0  0  0  0  0  0  0  0  0  0
   -3.2939   -2.1575    0.7222 C   0  0  0  0  0  0  0  0  0  0  0  0
   -4.3098   -1.1883    0.9779 O   0  0  0  0  0  0  0  0  0  0  0  0
   -3.8070    0.0373    0.4123 C   0  0  0  0  0  0  0  0  0  0  0  0
   -3.9902    1.1584    1.4347 C   0  0  0  0  0  0  0  0  0  0  0  0
   -5.4596    1.3932    1.7935 C   0  0  0  0  0  0  0  0  0  0  0  0
   -6.4305    1.0443    0.6640 C   0  0  0  0  0  0  0  0  0  0  0  0
   -5.7958    1.2191   -0.7084 C   0  0  0  0  0  0  0  0  0  0  0  0
   -4.5506    0.3452   -0.8969 C   0  0  0  0  0  0  0  0  0  0  0  0
   -2.4064   -0.1194    0.1169 O   0  0  0  0  0  0  0  0  0  0  0  0
    4.6954    0.1515   -0.5299 N   0  0  0  0  0  0  0  0  0  0  0  0
    6.6236    1.6484   -2.8057 H   0  0  0  0  0  0  0  0  0  0  0  0
    7.8118    2.4733   -1.7833 H   0  0  0  0  0  0  0  0  0  0  0  0
    6.0993    2.4676   -1.3281 H   0  0  0  0  0  0  0  0  0  0  0  0
    7.9627    0.0391   -1.4609 H   0  0  0  0  0  0  0  0  0  0  0  0
    7.7313   -0.0433    1.0142 H   0  0  0  0  0  0  0  0  0  0  0  0
    6.7583    1.4331    0.9887 H   0  0  0  0  0  0  0  0  0  0  0  0
    8.4545    1.4820    0.4774 H   0  0  0  0  0  0  0  0  0  0  0  0
    2.2883    0.2201    0.1385 H   0  0  0  0  0  0  0  0  0  0  0  0
    0.1375   -0.1766   -0.1583 H   0  0  0  0  0  0  0  0  0  0  0  0
   -0.6107   -2.9600    0.5153 H   0  0  0  0  0  0  0  0  0  0  0  0
   -1.0867   -2.1613   -0.9999 H   0  0  0  0  0  0  0  0  0  0  0  0
   -1.7671   -1.0848    1.8076 H   0  0  0  0  0  0  0  0  0  0  0  0
   -3.4768   -2.5876   -0.2687 H   0  0  0  0  0  0  0  0  0  0  0  0
   -3.3262   -2.9528    1.4713 H   0  0  0  0  0  0  0  0  0  0  0  0
   -3.5537    2.0845    1.0376 H   0  0  0  0  0  0  0  0  0  0  0  0
   -3.4298    0.9387    2.3520 H   0  0  0  0  0  0  0  0  0  0  0  0
   -5.5853    2.4452    2.0779 H   0  0  0  0  0  0  0  0  0  0  0  0
   -5.7256    0.8060    2.6811 H   0  0  0  0  0  0  0  0  0  0  0  0
   -7.3286    1.6669    0.7478 H   0  0  0  0  0  0  0  0  0  0  0  0
   -6.7644    0.0053    0.7765 H   0  0  0  0  0  0  0  0  0  0  0  0
   -6.5251    0.9928   -1.4948 H   0  0  0  0  0  0  0  0  0  0  0  0
   -5.5165    2.2726   -0.8386 H   0  0  0  0  0  0  0  0  0  0  0  0
   -3.8840    0.8437   -1.6117 H   0  0  0  0  0  0  0  0  0  0  0  0
   -4.8525   -0.5970   -1.3722 H   0  0  0  0  0  0  0  0  0  0  0  0
  1  2  1  0
  2  3  1  0
  2  4  1  0
  4  5  2  0
  5  6  1  0
  6  7  1  0
  7  8  1  0
  8  9  1  0
  9 10  2  0
  9 11  1  0
 11 12  1  0
 12 13  1  0
 13 14  1  0
 14 15  1  0
 15 16  1  0
 16 17  1  0
 17 18  1  0
 18 19  1  0
 19 20  1  0
 20 21  1  0
 16 22  1  0
  7 23  2  0
 23  4  1  0
 22 13  1  0
 21 16  1  0
  1 24  1  0
  1 25  1  0
  1 26  1  0
  2 27  1  0
  3 28  1  0
  3 29  1  0
  3 30  1  0
  8 31  1  0
 11 32  1  0
 12 33  1  0
 12 34  1  0
 13 35  1  0
 14 36  1  0
 14 37  1  0
 17 38  1  0
 17 39  1  0
 18 40  1  0
 18 41  1  0
 19 42  1  0
 19 43  1  0
 20 44  1  0
 20 45  1  0
 21 46  1  0
 21 47  1  0
M  END
$$$$
OCNT-2315610
     RDKit          3D

 38 41  0  0  0  0  0  0  0  0999 V2000
    6.6437    0.3029   -3.1949 N   0  0  0  0  0  0  0  0  0  0  0  0
    6.8052    0.4848   -1.8493 C   0  0  0  0  0  0  0  0  0  0  0  0
    7.9116    0.7212   -1.3804 O   0  0  0  0  0  0  0  0  0  0  0  0
    5.6036    0.3433   -0.9835 C   0  0  0  0  0  0  0  0  0  0  0  0
    5.8033    0.0832    0.3823 C   0  0  0  0  0  0  0  0  0  0  0  0
    4.7280   -0.0657    1.2671 C   0  0  0  0  0  0  0  0  0  0  0  0
    3.4528    0.0653    0.7186 C   0  0  0  0  0  0  0  0  0  0  0  0
    2.1989   -0.0115    1.2647 N   0  0  0  0  0  0  0  0  0  0  0  0
    1.2813    0.2071    0.2682 C   0  0  0  0  0  0  0  0  0  0  0  0
   -0.0719    0.2049    0.4583 N   0  0  0  0  0  0  0  0  0  0  0  0
   -0.6643   -0.0201    1.6780 C   0  0  0  0  0  0  0  0  0  0  0  0
   -0.0585   -0.2439    2.7243 O   0  0  0  0  0  0  0  0  0  0  0  0
   -2.1259    0.0335    1.6025 C   0  0  0  0  0  0  0  0  0  0  0  0
   -2.9673   -0.1481    2.6810 C   0  0  0  0  0  0  0  0  0  0  0  0
   -4.5954   -0.0040    2.1842 S   0  0  0  0  0  0  0  0  0  0  0  0
   -4.0861    0.2833    0.5575 C   0  0  0  0  0  0  0  0  0  0  0  0
   -4.9214    0.5165   -0.4859 N   0  0  0  0  0  0  0  0  0  0  0  0
   -6.3072    0.0578   -0.4283 C   0  0  0  0  0  0  0  0  0  0  0  0
   -7.0363   -0.3082   -1.6924 C   0  0  0  0  0  0  0  0  0  0  0  0
   -6.6704   -1.3747   -0.7029 C   0  0  0  0  0  0  0  0  0  0  0  0
   -2.7802    0.2804    0.3934 N   0  0  0  0  0  0  0  0  0  0  0  0
    1.8722    0.4179   -0.8848 N   0  0  0  0  0  0  0  0  0  0  0  0
    3.2194    0.3346   -0.6252 C   0  0  0  0  0  0  0  0  0  0  0  0
    4.3054    0.4835   -1.5000 C   0  0  0  0  0  0  0  0  0  0  0  0
    7.4940    0.2864   -3.7438 H   0  0  0  0  0  0  0  0  0  0  0  0
    5.8287   -0.1437   -3.5892 H   0  0  0  0  0  0  0  0  0  0  0  0
    6.8185   -0.0075    0.7689 H   0  0  0  0  0  0  0  0  0  0  0  0
    4.8876   -0.2682    2.3208 H   0  0  0  0  0  0  0  0  0  0  0  0
    1.9595   -0.1915    2.2316 H   0  0  0  0  0  0  0  0  0  0  0  0
   -0.6622    0.3829   -0.3469 H   0  0  0  0  0  0  0  0  0  0  0  0
   -2.7024   -0.3496    3.7098 H   0  0  0  0  0  0  0  0  0  0  0  0
   -4.4577    0.5193   -1.3891 H   0  0  0  0  0  0  0  0  0  0  0  0
   -6.8985    0.5932    0.3126 H   0  0  0  0  0  0  0  0  0  0  0  0
   -8.0798   -0.0257   -1.7726 H   0  0  0  0  0  0  0  0  0  0  0  0
   -6.4981   -0.2831   -2.6321 H   0  0  0  0  0  0  0  0  0  0  0  0
   -5.8790   -2.0656   -0.9684 H   0  0  0  0  0  0  0  0  0  0  0  0
   -7.4635   -1.8153   -0.1100 H   0  0  0  0  0  0  0  0  0  0  0  0
    4.1122    0.7242   -2.5374 H   0  0  0  0  0  0  0  0  0  0  0  0
  1  2  1  0
  2  3  2  0
  2  4  1  0
  4  5  2  0
  5  6  1  0
  6  7  2  0
  7  8  1  0
  8  9  1  0
  9 10  1  0
 10 11  1  0
 11 12  2  0
 11 13  1  0
 13 14  2  0
 14 15  1  0
 15 16  1  0
 16 17  1  0
 17 18  1  0
 18 19  1  0
 19 20  1  0
 16 21  2  0
  9 22  2  0
 22 23  1  0
 23 24  2  0
 24  4  1  0
 23  7  1  0
 21 13  1  0
 20 18  1  0
  1 25  1  0
  1 26  1  0
  5 27  1  0
  6 28  1  0
  8 29  1  0
 10 30  1  0
 14 31  1  0
 17 32  1  0
 18 33  1  0
 19 34  1  0
 19 35  1  0
 20 36  1  0
 20 37  1  0
 24 38  1  0
M  END
$$$$
OCNT-2315616
     RDKit          3D

 38 41  0  0  0  0  0  0  0  0999 V2000
   -1.3650    0.8217    1.6386 C   0  0  0  0  0  0  0  0  0  0  0  0
   -1.9920   -0.2709    0.8895 N   0  0  0  0  0  0  0  0  0  0  0  0
   -3.3619    0.0106    0.6364 C   0  0  0  0  0  0  0  0  0  0  0  0
   -4.3005   -0.1474    1.6685 C   0  0  0  0  0  0  0  0  0  0  0  0
   -5.6525    0.1335    1.4588 C   0  0  0  0  0  0  0  0  0  0  0  0
   -6.0851    0.5825    0.2134 C   0  0  0  0  0  0  0  0  0  0  0  0
   -5.1673    0.7515   -0.8209 C   0  0  0  0  0  0  0  0  0  0  0  0
   -3.8150    0.4692   -0.6106 C   0  0  0  0  0  0  0  0  0  0  0  0
   -1.1874   -0.9204   -0.0127 C   0  0  0  0  0  0  0  0  0  0  0  0
    0.0834   -0.6290   -0.2152 N   0  0  0  0  0  0  0  0  0  0  0  0
    0.6639   -1.4672   -1.1675 C   0  0  0  0  0  0  0  0  0  0  0  0
    2.0609   -1.3460   -1.6093 C   0  0  0  0  0  0  0  0  0  0  0  0
    2.5163   -2.0552   -2.5068 O   0  0  0  0  0  0  0  0  0  0  0  0
    2.8320   -0.3949   -0.9868 N   0  0  0  0  0  0  0  0  0  0  0  0
    4.2799   -0.2703   -1.0407 C   0  0  0  0  0  0  0  0  0  0  0  0
    4.1905    0.4110    0.2613 C   0  0  0  0  0  0  0  0  0  0  0  0
    2.7311    0.2137    0.3290 C   0  0  0  0  0  0  0  0  0  0  0  0
    5.1741    0.3421    1.3955 C   0  0  0  0  0  0  0  0  0  0  0  0
    4.9254    1.6153    0.6699 C   0  0  0  0  0  0  0  0  0  0  0  0
    4.2920    2.6539    1.3103 F   0  0  0  0  0  0  0  0  0  0  0  0
    5.9103    2.1539   -0.1234 F   0  0  0  0  0  0  0  0  0  0  0  0
   -0.1988   -2.4233   -1.6677 C   0  0  0  0  0  0  0  0  0  0  0  0
   -1.7342   -2.2872   -0.9368 S   0  0  0  0  0  0  0  0  0  0  0  0
   -1.1818    1.6899    0.9934 H   0  0  0  0  0  0  0  0  0  0  0  0
   -0.4072    0.5029    2.0681 H   0  0  0  0  0  0  0  0  0  0  0  0
   -1.9816    1.1477    2.4850 H   0  0  0  0  0  0  0  0  0  0  0  0
   -3.9776   -0.5092    2.6417 H   0  0  0  0  0  0  0  0  0  0  0  0
   -6.3664   -0.0026    2.2668 H   0  0  0  0  0  0  0  0  0  0  0  0
   -7.1371    0.8002    0.0483 H   0  0  0  0  0  0  0  0  0  0  0  0
   -5.5016    1.1051   -1.7927 H   0  0  0  0  0  0  0  0  0  0  0  0
   -3.1147    0.6246   -1.4275 H   0  0  0  0  0  0  0  0  0  0  0  0
    4.6187    0.3345   -1.8864 H   0  0  0  0  0  0  0  0  0  0  0  0
    4.7999   -1.2329   -1.0409 H   0  0  0  0  0  0  0  0  0  0  0  0
    2.1246    1.1235    0.3354 H   0  0  0  0  0  0  0  0  0  0  0  0
    2.3955   -0.4730    1.1117 H   0  0  0  0  0  0  0  0  0  0  0  0
    4.7946    0.2685    2.4059 H   0  0  0  0  0  0  0  0  0  0  0  0
    6.1260   -0.1435    1.2258 H   0  0  0  0  0  0  0  0  0  0  0  0
    0.0089   -3.1827   -2.4091 H   0  0  0  0  0  0  0  0  0  0  0  0
  1  2  1  0
  2  3  1  0
  3  4  2  0
  4  5  1  0
  5  6  2  0
  6  7  1  0
  7  8  2  0
  2  9  1  0
  9 10  2  0
 10 11  1  0
 11 12  1  0
 12 13  2  0
 12 14  1  0
 14 15  1  0
 15 16  1  0
 16 17  1  0
 16 18  1  0
 18 19  1  0
 19 20  1  0
 19 21  1  0
 11 22  2  0
 22 23  1  0
  8  3  1  0
 23  9  1  0
 17 14  1  0
 19 16  1  0
  1 24  1  0
  1 25  1  0
  1 26  1  0
  4 27  1  0
  5 28  1  0
  6 29  1  0
  7 30  1  0
  8 31  1  0
 15 32  1  0
 15 33  1  0
 17 34  1  0
 17 35  1  0
 18 36  1  0
 18 37  1  0
 22 38  1  0
M  END
$$$$
OCNT-2315618
     RDKit          3D

 35 37  0  0  0  0  0  0  0  0999 V2000
   -5.1392   -0.4648    1.5497 C   0  0  0  0  0  0  0  0  0  0  0  0
   -4.9637   -0.8915    0.2061 O   0  0  0  0  0  0  0  0  0  0  0  0
   -3.9030   -0.3787   -0.4949 C   0  0  0  0  0  0  0  0  0  0  0  0
   -2.9631    0.5169    0.0308 C   0  0  0  0  0  0  0  0  0  0  0  0
   -1.9046    1.0004   -0.7592 C   0  0  0  0  0  0  0  0  0  0  0  0
   -0.8831    1.9430   -0.1745 C   0  0  0  0  0  0  0  0  0  0  0  0
    0.1226    1.1801    0.5030 O   0  0  0  0  0  0  0  0  0  0  0  0
    1.2670    0.9650   -0.1934 C   0  0  0  0  0  0  0  0  0  0  0  0
    1.5096    1.3895   -1.3107 O   0  0  0  0  0  0  0  0  0  0  0  0
    2.1974    0.1328    0.6089 C   0  0  0  0  0  0  0  0  0  0  0  0
    1.8171   -0.4556    1.8249 C   0  0  0  0  0  0  0  0  0  0  0  0
    2.7387   -1.2245    2.5189 C   0  0  0  0  0  0  0  0  0  0  0  0
    4.0064   -1.4718    2.1296 N   0  0  0  0  0  0  0  0  0  0  0  0
    4.3240   -0.8933    0.9584 C   0  0  0  0  0  0  0  0  0  0  0  0
    3.5116   -0.1007    0.1529 C   0  0  0  0  0  0  0  0  0  0  0  0
    4.3079    0.2676   -0.9718 C   0  0  0  0  0  0  0  0  0  0  0  0
    5.5543   -0.3022   -0.8179 C   0  0  0  0  0  0  0  0  0  0  0  0
    5.5483   -1.0043    0.3584 N   0  0  0  0  0  0  0  0  0  0  0  0
   -1.7803    0.5613   -2.0826 C   0  0  0  0  0  0  0  0  0  0  0  0
   -2.7088   -0.3309   -2.6162 C   0  0  0  0  0  0  0  0  0  0  0  0
   -3.7644   -0.7963   -1.8284 C   0  0  0  0  0  0  0  0  0  0  0  0
   -4.8833   -1.9020   -2.5489 Cl  0  0  0  0  0  0  0  0  0  0  0  0
   -6.0331   -0.9583    1.9432 H   0  0  0  0  0  0  0  0  0  0  0  0
   -5.3056    0.6161    1.6028 H   0  0  0  0  0  0  0  0  0  0  0  0
   -4.2913   -0.7669    2.1732 H   0  0  0  0  0  0  0  0  0  0  0  0
   -3.0264    0.8552    1.0606 H   0  0  0  0  0  0  0  0  0  0  0  0
   -0.4711    2.6139   -0.9383 H   0  0  0  0  0  0  0  0  0  0  0  0
   -1.3597    2.5922    0.5691 H   0  0  0  0  0  0  0  0  0  0  0  0
    0.8197   -0.3282    2.2317 H   0  0  0  0  0  0  0  0  0  0  0  0
    2.4599   -1.6891    3.4626 H   0  0  0  0  0  0  0  0  0  0  0  0
    3.9994    0.8843   -1.8076 H   0  0  0  0  0  0  0  0  0  0  0  0
    6.4378   -0.2689   -1.4416 H   0  0  0  0  0  0  0  0  0  0  0  0
    6.3152   -1.5331    0.7476 H   0  0  0  0  0  0  0  0  0  0  0  0
   -0.9537    0.9071   -2.7022 H   0  0  0  0  0  0  0  0  0  0  0  0
   -2.6025   -0.6641   -3.6454 H   0  0  0  0  0  0  0  0  0  0  0  0
  1  2  1  0
  2  3  1  0
  3  4  1  0
  4  5  2  0
  5  6  1  0
  6  7  1  0
  7  8  1  0
  8  9  2  0
  8 10  1  0
 10 11  2  0
 11 12  1  0
 12 13  2  0
 13 14  1  0
 14 15  2  0
 15 16  1  0
 16 17  2  0
 17 18  1  0
  5 19  1  0
 19 20  2  0
 20 21  1  0
 21 22  1  0
 21  3  2  0
 15 10  1  0
 18 14  1  0
  1 23  1  0
  1 24  1  0
  1 25  1  0
  4 26  1  0
  6 27  1  0
  6 28  1  0
 11 29  1  0
 12 30  1  0
 16 31  1  0
 17 32  1  0
 18 33  1  0
 19 34  1  0
 20 35  1  0
M  END
$$$$
OCNT-2315627
     RDKit          3D

 47 51  0  0  0  0  0  0  0  0999 V2000
    8.9617   -0.0057    0.7135 F   0  0  0  0  0  0  0  0  0  0  0  0
    7.6564    0.0099    0.4111 C   0  0  0  0  0  0  0  0  0  0  0  0
    6.7569   -0.6090    1.2792 C   0  0  0  0  0  0  0  0  0  0  0  0
    5.3827   -0.6156    1.0001 C   0  0  0  0  0  0  0  0  0  0  0  0
    4.9409    0.0168   -0.1764 C   0  0  0  0  0  0  0  0  0  0  0  0
    5.8753    0.6182   -1.0030 C   0  0  0  0  0  0  0  0  0  0  0  0
    7.2439    0.6440   -0.7586 C   0  0  0  0  0  0  0  0  0  0  0  0
    5.2422    1.1692   -2.0712 O   0  0  0  0  0  0  0  0  0  0  0  0
    3.8797    0.9450   -1.9701 N   0  0  0  0  0  0  0  0  0  0  0  0
    3.7045    0.2498   -0.8361 C   0  0  0  0  0  0  0  0  0  0  0  0
    2.3314   -0.1678   -0.4002 C   0  0  0  0  0  0  0  0  0  0  0  0
    1.5525    1.0037    0.2237 C   0  0  0  0  0  0  0  0  0  0  0  0
    0.0470    0.9321   -0.0406 C   0  0  0  0  0  0  0  0  0  0  0  0
   -0.3926   -0.4643    0.0120 N   0  0  0  0  0  0  0  0  0  0  0  0
   -1.7830   -0.6248    0.1713 C   0  0  0  0  0  0  0  0  0  0  0  0
   -2.3574   -1.8876    0.3580 C   0  0  0  0  0  0  0  0  0  0  0  0
   -3.6864   -2.1154    0.5168 N   0  0  0  0  0  0  0  0  0  0  0  0
   -4.4681   -1.0123    0.5099 C   0  0  0  0  0  0  0  0  0  0  0  0
   -5.9502   -1.2311    0.6362 C   0  0  0  0  0  0  0  0  0  0  0  0
   -6.7153    0.0342    1.0180 C   0  0  0  0  0  0  0  0  0  0  0  0
   -6.2672    1.2069    0.1528 C   0  0  0  0  0  0  0  0  0  0  0  0
   -4.7842    1.4955    0.3751 C   0  0  0  0  0  0  0  0  0  0  0  0
   -3.9256    0.2612    0.3325 C   0  0  0  0  0  0  0  0  0  0  0  0
   -2.5893    0.4601    0.1752 N   0  0  0  0  0  0  0  0  0  0  0  0
    0.1946   -1.3613   -0.9955 C   0  0  0  0  0  0  0  0  0  0  0  0
    1.5269   -0.8279   -1.5245 C   0  0  0  0  0  0  0  0  0  0  0  0
    7.1340   -1.0877    2.1792 H   0  0  0  0  0  0  0  0  0  0  0  0
    4.6853   -1.0967    1.6794 H   0  0  0  0  0  0  0  0  0  0  0  0
    7.9431    1.1244   -1.4292 H   0  0  0  0  0  0  0  0  0  0  0  0
    2.4565   -0.9295    0.3836 H   0  0  0  0  0  0  0  0  0  0  0  0
    1.7322    0.9962    1.3074 H   0  0  0  0  0  0  0  0  0  0  0  0
    1.9197    1.9755   -0.1301 H   0  0  0  0  0  0  0  0  0  0  0  0
   -0.1876    1.3694   -1.0201 H   0  0  0  0  0  0  0  0  0  0  0  0
   -0.4453    1.5477    0.7234 H   0  0  0  0  0  0  0  0  0  0  0  0
   -1.7440   -2.7803    0.4011 H   0  0  0  0  0  0  0  0  0  0  0  0
   -6.3181   -1.5999   -0.3293 H   0  0  0  0  0  0  0  0  0  0  0  0
   -6.1459   -2.0118    1.3803 H   0  0  0  0  0  0  0  0  0  0  0  0
   -7.7912   -0.1352    0.8985 H   0  0  0  0  0  0  0  0  0  0  0  0
   -6.5417    0.2711    2.0754 H   0  0  0  0  0  0  0  0  0  0  0  0
   -6.8562    2.0996    0.3906 H   0  0  0  0  0  0  0  0  0  0  0  0
   -6.4481    0.9734   -0.9041 H   0  0  0  0  0  0  0  0  0  0  0  0
   -4.6490    1.9637    1.3579 H   0  0  0  0  0  0  0  0  0  0  0  0
   -4.4372    2.2118   -0.3785 H   0  0  0  0  0  0  0  0  0  0  0  0
   -0.4802   -1.5100   -1.8488 H   0  0  0  0  0  0  0  0  0  0  0  0
    0.3711   -2.3411   -0.5349 H   0  0  0  0  0  0  0  0  0  0  0  0
    1.3337   -0.1025   -2.3264 H   0  0  0  0  0  0  0  0  0  0  0  0
    2.0913   -1.6486   -1.9845 H   0  0  0  0  0  0  0  0  0  0  0  0
  1  2  1  0
  2  3  2  0
  3  4  1  0
  4  5  2  0
  5  6  1  0
  6  7  2  0
  6  8  1  0
  8  9  1  0
  9 10  2  0
 10 11  1  0
 11 12  1  0
 12 13  1  0
 13 14  1  0
 14 15  1  0
 15 16  1  0
 16 17  2  0
 17 18  1  0
 18 19  1  0
 19 20  1  0
 20 21  1  0
 21 22  1  0
 22 23  1  0
 23 24  1  0
 14 25  1  0
 25 26  1  0
  7  2  1  0
 26 11  1  0
 10  5  1  0
 24 15  2  0
 23 18  2  0
  3 27  1  0
  4 28  1  0
  7 29  1  0
 11 30  1  0
 12 31  1  0
 12 32  1  0
 13 33  1  0
 13 34  1  0
 16 35  1  0
 19 36  1  0
 19 37  1  0
 20 38  1  0
 20 39  1  0
 21 40  1  0
 21 41  1  0
 22 42  1  0
 22 43  1  0
 25 44  1  0
 25 45  1  0
 26 46  1  0
 26 47  1  0
M  END
$$$$
OCNT-2315633
     RDKit          3D

 47 50  0  0  0  0  0  0  0  0999 V2000
   -1.0845    0.5080    0.5101 O   0  0  0  0  0  0  0  0  0  0  0  0
   -1.5013   -0.6160    0.2853 C   0  0  0  0  0  0  0  0  0  0  0  0
   -0.7660   -1.7609    0.0393 N   0  0  0  0  0  0  0  0  0  0  0  0
    0.6298   -1.9003   -0.0441 C   0  0  0  0  0  0  0  0  0  0  0  0
    1.1260   -3.1925   -0.2527 C   0  0  0  0  0  0  0  0  0  0  0  0
    2.4985   -3.4198   -0.3504 C   0  0  0  0  0  0  0  0  0  0  0  0
    3.3884   -2.3525   -0.2420 C   0  0  0  0  0  0  0  0  0  0  0  0
    2.9156   -1.0484   -0.0354 C   0  0  0  0  0  0  0  0  0  0  0  0
    3.8612    0.0595    0.0731 C   0  0  0  0  0  0  0  0  0  0  0  0
    3.5053    1.3404    0.2650 N   0  0  0  0  0  0  0  0  0  0  0  0
    4.7191    2.0207    0.3025 O   0  0  0  0  0  0  0  0  0  0  0  0
    5.6963    1.0857    0.1305 C   0  0  0  0  0  0  0  0  0  0  0  0
    7.2116    1.4288    0.1049 C   0  0  0  0  0  0  0  0  0  0  0  0
    7.8716    1.9188    1.3686 C   0  0  0  0  0  0  0  0  0  0  0  0
    8.1816    0.5451    0.8470 C   0  0  0  0  0  0  0  0  0  0  0  0
    5.2248   -0.1302   -0.0184 N   0  0  0  0  0  0  0  0  0  0  0  0
    1.5286   -0.8343    0.0622 C   0  0  0  0  0  0  0  0  0  0  0  0
   -3.0226   -0.9311    0.2696 C   0  0  0  0  0  0  0  0  0  0  0  0
   -3.3523   -2.1148    0.3443 O   0  0  0  0  0  0  0  0  0  0  0  0
   -3.9264    0.1068    0.1483 N   0  0  0  0  0  0  0  0  0  0  0  0
   -3.6091    1.5259    0.0062 C   0  0  0  0  0  0  0  0  0  0  0  0
   -4.9534    2.2093   -0.2587 C   0  0  1  0  0  0  0  0  0  0  0  0
   -5.2119    2.2753   -1.6597 O   0  0  0  0  0  0  0  0  0  0  0  0
   -5.9568    1.2831    0.4197 C   0  0  0  0  0  0  0  0  0  0  0  0
   -5.3692   -0.1181    0.1909 C   0  0  1  0  0  0  0  0  0  0  0  0
   -5.8998   -0.7999   -1.0824 C   0  0  0  0  0  0  0  0  0  0  0  0
   -7.3195   -0.9219   -1.0303 O   0  0  0  0  0  0  0  0  0  0  0  0
   -1.3327   -2.6021   -0.0511 H   0  0  0  0  0  0  0  0  0  0  0  0
    0.4506   -4.0404   -0.3398 H   0  0  0  0  0  0  0  0  0  0  0  0
    2.8750   -4.4271   -0.5105 H   0  0  0  0  0  0  0  0  0  0  0  0
    4.4573   -2.5439   -0.3204 H   0  0  0  0  0  0  0  0  0  0  0  0
    7.5468    1.8564   -0.8331 H   0  0  0  0  0  0  0  0  0  0  0  0
    8.6349    2.6829    1.2770 H   0  0  0  0  0  0  0  0  0  0  0  0
    7.2764    1.9941    2.2720 H   0  0  0  0  0  0  0  0  0  0  0  0
    9.1528    0.3745    0.3979 H   0  0  0  0  0  0  0  0  0  0  0  0
    7.7904   -0.3080    1.3913 H   0  0  0  0  0  0  0  0  0  0  0  0
    1.1690    0.1789    0.2194 H   0  0  0  0  0  0  0  0  0  0  0  0
   -3.1848    1.8646    0.9571 H   0  0  0  0  0  0  0  0  0  0  0  0
   -2.8936    1.6703   -0.8083 H   0  0  0  0  0  0  0  0  0  0  0  0
   -4.9775    3.2293    0.1355 H   0  0  0  0  0  0  0  0  0  0  0  0
   -6.1014    2.6540   -1.7734 H   0  0  0  0  0  0  0  0  0  0  0  0
   -5.9675    1.4946    1.4964 H   0  0  0  0  0  0  0  0  0  0  0  0
   -6.9754    1.3917    0.0367 H   0  0  0  0  0  0  0  0  0  0  0  0
   -5.6111   -0.7569    1.0496 H   0  0  0  0  0  0  0  0  0  0  0  0
   -5.6336   -0.2394   -1.9837 H   0  0  0  0  0  0  0  0  0  0  0  0
   -5.4781   -1.8052   -1.1830 H   0  0  0  0  0  0  0  0  0  0  0  0
   -7.5830   -1.4220   -1.8225 H   0  0  0  0  0  0  0  0  0  0  0  0
  1  2  2  0
  2  3  1  0
  3  4  1  0
  4  5  2  0
  5  6  1  0
  6  7  2  0
  7  8  1  0
  8  9  1  0
  9 10  2  0
 10 11  1  0
 11 12  1  0
 12 13  1  0
 13 14  1  0
 14 15  1  0
 12 16  2  0
  8 17  2  0
  2 18  1  0
 18 19  2  0
 18 20  1  0
 20 21  1  0
 21 22  1  0
 22 23  1  0
 22 24  1  0
 24 25  1  0
 25 26  1  0
 26 27  1  0
 17  4  1  0
 25 20  1  0
 16  9  1  0
 15 13  1  0
  3 28  1  0
  5 29  1  0
  6 30  1  0
  7 31  1  0
 13 32  1  0
 14 33  1  0
 14 34  1  0
 15 35  1  0
 15 36  1  0
 17 37  1  0
 21 38  1  0
 21 39  1  0
 22 40  1  1
 23 41  1  0
 24 42  1  0
 24 43  1  0
 25 44  1  1
 26 45  1  0
 26 46  1  0
 27 47  1  0
M  END
$$$$
OCNT-2315636
     RDKit          3D

 47 49  0  0  0  0  0  0  0  0999 V2000
   -1.3232   -5.2652   -0.1740 C   0  0  0  0  0  0  0  0  0  0  0  0
   -2.0585   -4.0502   -0.1099 O   0  0  0  0  0  0  0  0  0  0  0  0
   -1.3772   -2.9361    0.2976 C   0  0  0  0  0  0  0  0  0  0  0  0
   -0.0384   -2.8888    0.6833 C   0  0  0  0  0  0  0  0  0  0  0  0
    0.5330   -1.6791    1.0967 C   0  0  0  0  0  0  0  0  0  0  0  0
   -0.2196   -0.4936    1.1239 C   0  0  0  0  0  0  0  0  0  0  0  0
    0.4133    0.7901    1.6014 C   0  0  0  0  0  0  0  0  0  0  0  0
    0.9220    1.6169    0.5035 N   0  0  0  0  0  0  0  0  0  0  0  0
    2.0936    1.1335   -0.0913 C   0  0  0  0  0  0  0  0  0  0  0  0
    3.3040    1.1883    0.5677 C   0  0  0  0  0  0  0  0  0  0  0  0
    4.3875    0.6657   -0.0997 C   0  0  0  0  0  0  0  0  0  0  0  0
    5.5952    0.7183    0.5710 O   0  0  0  0  0  0  0  0  0  0  0  0
    6.6783    0.1812   -0.1824 C   0  0  0  0  0  0  0  0  0  0  0  0
    4.3222    0.1215   -1.3233 N   0  0  0  0  0  0  0  0  0  0  0  0
    3.1037    0.1255   -1.8750 C   0  0  0  0  0  0  0  0  0  0  0  0
    1.9849    0.6082   -1.3192 N   0  0  0  0  0  0  0  0  0  0  0  0
   -1.5516   -0.5505    0.6966 C   0  0  0  0  0  0  0  0  0  0  0  0
   -2.3421    0.5698    0.7109 O   0  0  0  0  0  0  0  0  0  0  0  0
   -2.2707    1.2612   -0.5495 C   0  0  0  0  0  0  0  0  0  0  0  0
   -2.2819    2.7639   -0.2751 C   0  0  0  0  0  0  0  0  0  0  0  0
   -3.7459    3.1050   -0.0001 C   0  0  0  0  0  0  0  0  0  0  0  0
   -4.5707    1.9799   -0.6217 C   0  0  0  0  0  0  0  0  0  0  0  0
   -3.5699    1.0721   -1.3293 C   0  0  0  0  0  0  0  0  0  0  0  0
   -2.1319   -1.7627    0.3151 C   0  0  0  0  0  0  0  0  0  0  0  0
   -0.4996   -5.1916   -0.8918 H   0  0  0  0  0  0  0  0  0  0  0  0
   -0.9604   -5.5595    0.8164 H   0  0  0  0  0  0  0  0  0  0  0  0
   -2.0018   -6.0484   -0.5256 H   0  0  0  0  0  0  0  0  0  0  0  0
    0.5902   -3.7727    0.6794 H   0  0  0  0  0  0  0  0  0  0  0  0
    1.5792   -1.6683    1.3947 H   0  0  0  0  0  0  0  0  0  0  0  0
    1.1972    0.5782    2.3407 H   0  0  0  0  0  0  0  0  0  0  0  0
   -0.3373    1.3718    2.1510 H   0  0  0  0  0  0  0  0  0  0  0  0
    1.0979    2.5585    0.8405 H   0  0  0  0  0  0  0  0  0  0  0  0
    3.4108    1.6142    1.5545 H   0  0  0  0  0  0  0  0  0  0  0  0
    6.5263   -0.8834   -0.3916 H   0  0  0  0  0  0  0  0  0  0  0  0
    6.8373    0.7463   -1.1073 H   0  0  0  0  0  0  0  0  0  0  0  0
    7.5843    0.2746    0.4243 H   0  0  0  0  0  0  0  0  0  0  0  0
    3.0089   -0.3028   -2.8665 H   0  0  0  0  0  0  0  0  0  0  0  0
   -1.3930    0.9732   -1.1417 H   0  0  0  0  0  0  0  0  0  0  0  0
   -1.9422    3.3088   -1.1639 H   0  0  0  0  0  0  0  0  0  0  0  0
   -1.6500    3.0513    0.5702 H   0  0  0  0  0  0  0  0  0  0  0  0
   -3.9350    3.1554    1.0782 H   0  0  0  0  0  0  0  0  0  0  0  0
   -4.0073    4.0803   -0.4236 H   0  0  0  0  0  0  0  0  0  0  0  0
   -5.0945    1.4261    0.1664 H   0  0  0  0  0  0  0  0  0  0  0  0
   -5.3281    2.3607   -1.3139 H   0  0  0  0  0  0  0  0  0  0  0  0
   -3.4374    1.4089   -2.3644 H   0  0  0  0  0  0  0  0  0  0  0  0
   -3.9229    0.0378   -1.3455 H   0  0  0  0  0  0  0  0  0  0  0  0
   -3.1786   -1.7945    0.0279 H   0  0  0  0  0  0  0  0  0  0  0  0
  1  2  1  0
  2  3  1  0
  3  4  1  0
  4  5  2  0
  5  6  1  0
  6  7  1  0
  7  8  1  0
  8  9  1  0
  9 10  1  0
 10 11  2  0
 11 12  1  0
 12 13  1  0
 11 14  1  0
 14 15  2  0
 15 16  1  0
  6 17  2  0
 17 18  1  0
 18 19  1  0
 19 20  1  0
 20 21  1  0
 21 22  1  0
 22 23  1  0
 17 24  1  0
 24  3  2  0
 16  9  2  0
 23 19  1  0
  1 25  1  0
  1 26  1  0
  1 27  1  0
  4 28  1  0
  5 29  1  0
  7 30  1  0
  7 31  1  0
  8 32  1  0
 10 33  1  0
 13 34  1  0
 13 35  1  0
 13 36  1  0
 15 37  1  0
 19 38  1  0
 20 39  1  0
 20 40  1  0
 21 41  1  0
 21 42  1  0
 22 43  1  0
 22 44  1  0
 23 45  1  0
 23 46  1  0
 24 47  1  0
M  END
$$$$
OCNT-2315640
     RDKit          3D

 47 50  0  0  0  0  0  0  0  0999 V2000
    5.3568   -1.8929    3.2213 C   0  0  0  0  0  0  0  0  0  0  0  0
    5.6497   -1.2206    1.9274 C   0  0  0  0  0  0  0  0  0  0  0  0
    4.7427   -0.6718    1.1519 N   0  0  0  0  0  0  0  0  0  0  0  0
    5.3344   -0.0945    0.0365 C   0  0  0  0  0  0  0  0  0  0  0  0
    4.4812    0.6121   -0.9779 C   0  0  0  0  0  0  0  0  0  0  0  0
    3.1232    0.9759   -0.5035 C   0  0  0  0  0  0  0  0  0  0  0  0
    1.9476    0.5814   -0.9412 N   0  0  0  0  0  0  0  0  0  0  0  0
    1.0760    1.3025   -0.1503 C   0  0  0  0  0  0  0  0  0  0  0  0
   -0.3717    1.1678   -0.2690 C   0  0  0  0  0  0  0  0  0  0  0  0
   -1.2414    1.9184    0.5247 C   0  0  0  0  0  0  0  0  0  0  0  0
   -2.6315    1.7746    0.3948 C   0  0  0  0  0  0  0  0  0  0  0  0
   -3.2119    0.8759   -0.5166 C   0  0  0  0  0  0  0  0  0  0  0  0
   -4.5994    0.7713   -0.6239 N   0  0  0  0  0  0  0  0  0  0  0  0
   -5.3797    0.6511    0.6220 C   0  0  0  0  0  0  0  0  0  0  0  0
   -5.5660   -0.8249    0.9799 C   0  0  0  0  0  0  0  0  0  0  0  0
   -6.2175   -1.5901   -0.1709 C   0  0  0  0  0  0  0  0  0  0  0  0
   -5.4445   -1.3898   -1.4736 C   0  0  0  0  0  0  0  0  0  0  0  0
   -5.2211    0.0942   -1.7689 C   0  0  0  0  0  0  0  0  0  0  0  0
   -2.3204    0.1490   -1.3184 C   0  0  0  0  0  0  0  0  0  0  0  0
   -0.9281    0.2829   -1.1956 C   0  0  0  0  0  0  0  0  0  0  0  0
    1.6860    2.1406    0.7050 N   0  0  0  0  0  0  0  0  0  0  0  0
    3.0423    1.9258    0.4717 O   0  0  0  0  0  0  0  0  0  0  0  0
    6.7111   -0.2599   -0.0249 C   0  0  0  0  0  0  0  0  0  0  0  0
    7.6844    0.1926   -1.0553 C   0  0  0  0  0  0  0  0  0  0  0  0
    7.2618   -1.1204    1.3548 S   0  0  0  0  0  0  0  0  0  0  0  0
    5.8858   -1.4005    4.0420 H   0  0  0  0  0  0  0  0  0  0  0  0
    4.2858   -1.8522    3.4406 H   0  0  0  0  0  0  0  0  0  0  0  0
    5.6565   -2.9443    3.1884 H   0  0  0  0  0  0  0  0  0  0  0  0
    4.3907   -0.0290   -1.8645 H   0  0  0  0  0  0  0  0  0  0  0  0
    4.9887    1.5303   -1.2992 H   0  0  0  0  0  0  0  0  0  0  0  0
   -0.8539    2.6313    1.2493 H   0  0  0  0  0  0  0  0  0  0  0  0
   -3.2611    2.4176    1.0031 H   0  0  0  0  0  0  0  0  0  0  0  0
   -4.9353    1.1794    1.4706 H   0  0  0  0  0  0  0  0  0  0  0  0
   -6.3618    1.1129    0.4619 H   0  0  0  0  0  0  0  0  0  0  0  0
   -4.5931   -1.2767    1.2121 H   0  0  0  0  0  0  0  0  0  0  0  0
   -6.1865   -0.9132    1.8781 H   0  0  0  0  0  0  0  0  0  0  0  0
   -6.2676   -2.6576    0.0693 H   0  0  0  0  0  0  0  0  0  0  0  0
   -7.2489   -1.2415   -0.3009 H   0  0  0  0  0  0  0  0  0  0  0  0
   -4.4838   -1.9114   -1.4005 H   0  0  0  0  0  0  0  0  0  0  0  0
   -5.9938   -1.8506   -2.3029 H   0  0  0  0  0  0  0  0  0  0  0  0
   -4.6481    0.2311   -2.6933 H   0  0  0  0  0  0  0  0  0  0  0  0
   -6.1933    0.5669   -1.9598 H   0  0  0  0  0  0  0  0  0  0  0  0
   -2.6800   -0.5611   -2.0545 H   0  0  0  0  0  0  0  0  0  0  0  0
   -0.2844   -0.3181   -1.8347 H   0  0  0  0  0  0  0  0  0  0  0  0
    8.2440    1.0578   -0.6930 H   0  0  0  0  0  0  0  0  0  0  0  0
    8.3965   -0.6022   -1.3047 H   0  0  0  0  0  0  0  0  0  0  0  0
    7.1796    0.4801   -1.9818 H   0  0  0  0  0  0  0  0  0  0  0  0
  1  2  1  0
  2  3  2  0
  3  4  1  0
  4  5  1  0
  5  6  1  0
  6  7  2  0
  7  8  1  0
  8  9  1  0
  9 10  1  0
 10 11  2  0
 11 12  1  0
 12 13  1  0
 13 14  1  0
 14 15  1  0
 15 16  1  0
 16 17  1  0
 17 18  1  0
 12 19  2  0
 19 20  1  0
  8 21  2  0
 21 22  1  0
  4 23  2  0
 23 24  1  0
 23 25  1  0
 25  2  1  0
 22  6  1  0
 20  9  2  0
 18 13  1  0
  1 26  1  0
  1 27  1  0
  1 28  1  0
  5 29  1  0
  5 30  1  0
 10 31  1  0
 11 32  1  0
 14 33  1  0
 14 34  1  0
 15 35  1  0
 15 36  1  0
 16 37  1  0
 16 38  1  0
 17 39  1  0
 17 40  1  0
 18 41  1  0
 18 42  1  0
 19 43  1  0
 20 44  1  0
 24 45  1  0
 24 46  1  0
 24 47  1  0
M  END
$$$$
OCNT-2315646
     RDKit          3D

 42 45  0  0  0  0  0  0  0  0999 V2000
    5.6035    0.8999    2.4248 C   0  0  0  0  0  0  0  0  0  0  0  0
    4.2092    0.8666    2.1464 O   0  0  0  0  0  0  0  0  0  0  0  0
    3.8241    0.2399    0.9950 C   0  0  0  0  0  0  0  0  0  0  0  0
    4.6594   -0.3960    0.0885 C   0  0  0  0  0  0  0  0  0  0  0  0
    4.1168   -0.9818   -1.0602 C   0  0  0  0  0  0  0  0  0  0  0  0
    2.7552   -0.9626   -1.3283 C   0  0  0  0  0  0  0  0  0  0  0  0
    2.3344   -1.5231   -2.4703 N   0  0  0  0  0  0  0  0  0  0  0  0
    1.0189   -1.4735   -2.7431 C   0  0  0  0  0  0  0  0  0  0  0  0
    0.0759   -0.9072   -1.9059 C   0  0  0  0  0  0  0  0  0  0  0  0
    0.4837   -0.3527   -0.6908 C   0  0  0  0  0  0  0  0  0  0  0  0
   -0.4441    0.1781    0.2120 N   0  0  0  0  0  0  0  0  0  0  0  0
   -0.6107   -0.5277    1.4928 C   0  0  0  0  0  0  0  0  0  0  0  0
   -1.8613   -1.4061    1.4641 C   0  0  0  0  0  0  0  0  0  0  0  0
   -3.1013   -0.5967    1.0882 C   0  0  0  0  0  0  0  0  0  0  0  0
   -2.8951    0.1074   -0.2602 C   0  0  0  0  0  0  0  0  0  0  0  0
   -4.0470    0.9049   -0.6411 N   0  0  0  0  0  0  0  0  0  0  0  0
   -4.8588    0.7253   -1.7182 C   0  0  0  0  0  0  0  0  0  0  0  0
   -5.7893    1.6512   -1.7254 N   0  0  0  0  0  0  0  0  0  0  0  0
   -5.5016    2.3845   -0.6100 C   0  0  0  0  0  0  0  0  0  0  0  0
   -4.4417    1.9660    0.0869 N   0  0  0  0  0  0  0  0  0  0  0  0
   -1.6099    0.9494   -0.2547 C   0  0  0  0  0  0  0  0  0  0  0  0
    1.8815   -0.3500   -0.4023 C   0  0  0  0  0  0  0  0  0  0  0  0
    2.4511    0.2638    0.7418 C   0  0  0  0  0  0  0  0  0  0  0  0
    6.1503    1.4361    1.6421 H   0  0  0  0  0  0  0  0  0  0  0  0
    6.0016   -0.1106    2.5646 H   0  0  0  0  0  0  0  0  0  0  0  0
    5.7441    1.4457    3.3628 H   0  0  0  0  0  0  0  0  0  0  0  0
    5.7332   -0.4493    0.2299 H   0  0  0  0  0  0  0  0  0  0  0  0
    4.7816   -1.4630   -1.7745 H   0  0  0  0  0  0  0  0  0  0  0  0
    0.7273   -1.9249   -3.6872 H   0  0  0  0  0  0  0  0  0  0  0  0
   -0.9607   -0.9348   -2.2088 H   0  0  0  0  0  0  0  0  0  0  0  0
   -0.7049    0.2188    2.2911 H   0  0  0  0  0  0  0  0  0  0  0  0
    0.2538   -1.1523    1.7457 H   0  0  0  0  0  0  0  0  0  0  0  0
   -2.0081   -1.8688    2.4464 H   0  0  0  0  0  0  0  0  0  0  0  0
   -1.7253   -2.2201    0.7413 H   0  0  0  0  0  0  0  0  0  0  0  0
   -3.3090    0.1368    1.8779 H   0  0  0  0  0  0  0  0  0  0  0  0
   -3.9736   -1.2597    1.0388 H   0  0  0  0  0  0  0  0  0  0  0  0
   -2.8063   -0.6730   -1.0257 H   0  0  0  0  0  0  0  0  0  0  0  0
   -4.7353   -0.0673   -2.4428 H   0  0  0  0  0  0  0  0  0  0  0  0
   -6.0792    3.2456   -0.2988 H   0  0  0  0  0  0  0  0  0  0  0  0
   -1.4261    1.3870   -1.2447 H   0  0  0  0  0  0  0  0  0  0  0  0
   -1.7262    1.8041    0.4249 H   0  0  0  0  0  0  0  0  0  0  0  0
    1.8097    0.7900    1.4453 H   0  0  0  0  0  0  0  0  0  0  0  0
  1  2  1  0
  2  3  1  0
  3  4  2  0
  4  5  1  0
  5  6  2  0
  6  7  1  0
  7  8  2  0
  8  9  1  0
  9 10  2  0
 10 11  1  0
 11 12  1  0
 12 13  1  0
 13 14  1  0
 14 15  1  0
 15 16  1  0
 16 17  1  0
 17 18  2  0
 18 19  1  0
 19 20  2  0
 15 21  1  0
 10 22  1  0
 22 23  2  0
 23  3  1  0
 22  6  1  0
 21 11  1  0
 20 16  1  0
  1 24  1  0
  1 25  1  0
  1 26  1  0
  4 27  1  0
  5 28  1  0
  8 29  1  0
  9 30  1  0
 12 31  1  0
 12 32  1  0
 13 33  1  0
 13 34  1  0
 14 35  1  0
 14 36  1  0
 15 37  1  0
 17 38  1  0
 19 39  1  0
 21 40  1  0
 21 41  1  0
 23 42  1  0
M  END
$$$$
OCNT-2315652
     RDKit          3D

 36 39  0  0  0  0  0  0  0  0999 V2000
   -2.5455    2.8366   -1.3044 C   0  0  0  0  0  0  0  0  0  0  0  0
   -3.1028    1.6081   -0.6645 C   0  0  0  0  0  0  0  0  0  0  0  0
   -2.4545    0.5284   -0.1680 C   0  0  0  0  0  0  0  0  0  0  0  0
   -0.9699    0.3197   -0.0880 C   0  0  0  0  0  0  0  0  0  0  0  0
   -0.2029    1.2546   -0.2859 O   0  0  0  0  0  0  0  0  0  0  0  0
   -0.6084   -0.9831    0.1951 N   0  0  0  0  0  0  0  0  0  0  0  0
    0.6893   -1.5087    0.3551 C   0  0  0  0  0  0  0  0  0  0  0  0
    0.7981   -2.8946    0.5142 C   0  0  0  0  0  0  0  0  0  0  0  0
    2.0480   -3.4908    0.6682 C   0  0  0  0  0  0  0  0  0  0  0  0
    3.2034   -2.7050    0.6761 C   0  0  0  0  0  0  0  0  0  0  0  0
    3.1235   -1.3116    0.5385 C   0  0  0  0  0  0  0  0  0  0  0  0
    4.3227   -0.4624    0.5660 C   0  0  0  0  0  0  0  0  0  0  0  0
    4.5237    0.8574    0.1922 C   0  0  0  0  0  0  0  0  0  0  0  0
    5.8740    1.1316    0.4709 C   0  0  0  0  0  0  0  0  0  0  0  0
    6.5056    0.0762    0.9860 N   0  0  0  0  0  0  0  0  0  0  0  0
    5.5478   -0.8667    1.0425 N   0  0  0  0  0  0  0  0  0  0  0  0
    1.8529   -0.7300    0.3744 C   0  0  0  0  0  0  0  0  0  0  0  0
   -3.5610   -0.7230    0.4632 S   0  0  0  0  0  0  0  0  0  0  0  0
   -4.8964    0.2738    0.0134 C   0  0  0  0  0  0  0  0  0  0  0  0
   -6.2584    0.2938    0.0098 C   0  0  0  0  0  0  0  0  0  0  0  0
   -6.6939    1.4860   -0.5368 N   0  0  0  0  0  0  0  0  0  0  0  0
   -5.5994    2.1610   -0.8446 C   0  0  0  0  0  0  0  0  0  0  0  0
   -4.4758    1.4449   -0.5431 N   0  0  0  0  0  0  0  0  0  0  0  0
   -2.6015    3.6841   -0.6141 H   0  0  0  0  0  0  0  0  0  0  0  0
   -1.5060    2.7219   -1.6206 H   0  0  0  0  0  0  0  0  0  0  0  0
   -3.1121    3.0952   -2.2060 H   0  0  0  0  0  0  0  0  0  0  0  0
   -1.3720   -1.6483    0.2647 H   0  0  0  0  0  0  0  0  0  0  0  0
   -0.0846   -3.5308    0.5070 H   0  0  0  0  0  0  0  0  0  0  0  0
    2.1234   -4.5706    0.7774 H   0  0  0  0  0  0  0  0  0  0  0  0
    4.1593   -3.2088    0.7818 H   0  0  0  0  0  0  0  0  0  0  0  0
    3.7943    1.5359   -0.2294 H   0  0  0  0  0  0  0  0  0  0  0  0
    6.4210    2.0541    0.3209 H   0  0  0  0  0  0  0  0  0  0  0  0
    5.7953   -1.7706    1.4345 H   0  0  0  0  0  0  0  0  0  0  0  0
    1.7863    0.3518    0.2803 H   0  0  0  0  0  0  0  0  0  0  0  0
   -6.9532   -0.4594    0.3544 H   0  0  0  0  0  0  0  0  0  0  0  0
   -5.5700    3.1493   -1.2817 H   0  0  0  0  0  0  0  0  0  0  0  0
  1  2  1  0
  2  3  2  0
  3  4  1  0
  4  5  2  0
  4  6  1  0
  6  7  1  0
  7  8  2  0
  8  9  1  0
  9 10  2  0
 10 11  1  0
 11 12  1  0
 12 13  2  0
 13 14  1  0
 14 15  2  0
 15 16  1  0
 11 17  2  0
  3 18  1  0
 18 19  1  0
 19 20  2  0
 20 21  1  0
 21 22  2  0
 22 23  1  0
 23  2  1  0
 17  7  1  0
 23 19  1  0
 16 12  1  0
  1 24  1  0
  1 25  1  0
  1 26  1  0
  6 27  1  0
  8 28  1  0
  9 29  1  0
 10 30  1  0
 13 31  1  0
 14 32  1  0
 16 33  1  0
 17 34  1  0
 20 35  1  0
 22 36  1  0
M  END
$$$$
OCNT-2315667
     RDKit          3D

 42 44  0  0  0  0  0  0  0  0999 V2000
    0.5143   -2.7357    1.6545 C   0  0  0  0  0  0  0  0  0  0  0  0
   -0.6945   -1.9613    1.2018 C   0  0  0  0  0  0  0  0  0  0  0  0
   -1.9584   -2.5473    1.3737 C   0  0  0  0  0  0  0  0  0  0  0  0
   -3.1177   -1.8812    0.9747 C   0  0  0  0  0  0  0  0  0  0  0  0
   -3.0516   -0.6096    0.3937 C   0  0  0  0  0  0  0  0  0  0  0  0
   -4.2745    0.0963   -0.0308 C   0  0  0  0  0  0  0  0  0  0  0  0
   -4.3781    0.6689   -1.3045 C   0  0  0  0  0  0  0  0  0  0  0  0
   -5.5501    1.3189   -1.6607 C   0  0  0  0  0  0  0  0  0  0  0  0
   -6.6195    1.4394   -0.8477 N   0  0  0  0  0  0  0  0  0  0  0  0
   -6.5062    0.8906    0.3786 C   0  0  0  0  0  0  0  0  0  0  0  0
   -5.3766    0.2207    0.8242 C   0  0  0  0  0  0  0  0  0  0  0  0
   -1.7805   -0.0282    0.2240 C   0  0  0  0  0  0  0  0  0  0  0  0
   -0.6023   -0.6805    0.6174 C   0  0  0  0  0  0  0  0  0  0  0  0
    0.6802   -0.1054    0.4377 N   0  0  0  0  0  0  0  0  0  0  0  0
    0.9867    1.1477   -0.0616 C   0  0  0  0  0  0  0  0  0  0  0  0
    0.2066    2.0337   -0.3835 O   0  0  0  0  0  0  0  0  0  0  0  0
    2.4448    1.4272   -0.1738 C   0  0  0  0  0  0  0  0  0  0  0  0
    2.9064    2.7042    0.1670 C   0  0  0  0  0  0  0  0  0  0  0  0
    4.2619    3.0094    0.0562 C   0  0  0  0  0  0  0  0  0  0  0  0
    5.1564    2.0413   -0.4026 C   0  0  0  0  0  0  0  0  0  0  0  0
    4.7023    0.7621   -0.7541 C   0  0  0  0  0  0  0  0  0  0  0  0
    5.6985   -0.2167   -1.2675 C   0  0  0  0  0  0  0  0  0  0  0  0
    5.3718   -1.5438   -1.2232 N   0  0  0  0  0  0  0  0  0  0  0  0
    6.7914    0.1401   -1.6882 O   0  0  0  0  0  0  0  0  0  0  0  0
    3.3388    0.4567   -0.6499 C   0  0  0  0  0  0  0  0  0  0  0  0
    0.2382   -3.7071    2.0786 H   0  0  0  0  0  0  0  0  0  0  0  0
    1.1822   -2.9268    0.8083 H   0  0  0  0  0  0  0  0  0  0  0  0
    1.0518   -2.1813    2.4306 H   0  0  0  0  0  0  0  0  0  0  0  0
   -2.0533   -3.5358    1.8190 H   0  0  0  0  0  0  0  0  0  0  0  0
   -4.0784   -2.3743    1.1101 H   0  0  0  0  0  0  0  0  0  0  0  0
   -3.5626    0.6077   -2.0184 H   0  0  0  0  0  0  0  0  0  0  0  0
   -5.6601    1.7720   -2.6417 H   0  0  0  0  0  0  0  0  0  0  0  0
   -7.3749    1.0079    1.0200 H   0  0  0  0  0  0  0  0  0  0  0  0
   -5.3573   -0.1831    1.8311 H   0  0  0  0  0  0  0  0  0  0  0  0
   -1.7377    0.9630   -0.2184 H   0  0  0  0  0  0  0  0  0  0  0  0
    1.4573   -0.6532    0.7756 H   0  0  0  0  0  0  0  0  0  0  0  0
    2.2069    3.4646    0.5109 H   0  0  0  0  0  0  0  0  0  0  0  0
    4.6204    4.0031    0.3153 H   0  0  0  0  0  0  0  0  0  0  0  0
    6.2125    2.2912   -0.4982 H   0  0  0  0  0  0  0  0  0  0  0  0
    6.1156   -2.1830   -1.4781 H   0  0  0  0  0  0  0  0  0  0  0  0
    4.6275   -1.9103   -0.6508 H   0  0  0  0  0  0  0  0  0  0  0  0
    2.9620   -0.5021   -0.9913 H   0  0  0  0  0  0  0  0  0  0  0  0
  1  2  1  0
  2  3  1  0
  3  4  2  0
  4  5  1  0
  5  6  1  0
  6  7  2  0
  7  8  1  0
  8  9  2  0
  9 10  1  0
 10 11  2  0
  5 12  2  0
 12 13  1  0
 13 14  1  0
 14 15  1  0
 15 16  2  0
 15 17  1  0
 17 18  2  0
 18 19  1  0
 19 20  2  0
 20 21  1  0
 21 22  1  0
 22 23  1  0
 22 24  2  0
 21 25  2  0
 13  2  2  0
 25 17  1  0
 11  6  1  0
  1 26  1  0
  1 27  1  0
  1 28  1  0
  3 29  1  0
  4 30  1  0
  7 31  1  0
  8 32  1  0
 10 33  1  0
 11 34  1  0
 12 35  1  0
 14 36  1  0
 18 37  1  0
 19 38  1  0
 20 39  1  0
 23 40  1  0
 23 41  1  0
 25 42  1  0
M  END
$$$$
OCNT-2315694
     RDKit          3D

 44 47  0  0  0  0  0  0  0  0999 V2000
   -2.5939   -0.4802    2.7062 C   0  0  0  0  0  0  0  0  0  0  0  0
   -2.3224    0.5448    1.6117 C   0  0  0  0  0  0  0  0  0  0  0  0
   -3.6044    1.3253    1.2423 C   0  0  0  0  0  0  0  0  0  0  0  0
   -3.4088    1.4962   -0.2240 C   0  0  0  0  0  0  0  0  0  0  0  0
   -4.1083    2.3253   -1.0876 C   0  0  0  0  0  0  0  0  0  0  0  0
   -3.7707    2.3016   -2.4394 C   0  0  0  0  0  0  0  0  0  0  0  0
   -2.7591    1.4487   -2.9004 C   0  0  0  0  0  0  0  0  0  0  0  0
   -2.0710    0.6116   -2.0143 C   0  0  0  0  0  0  0  0  0  0  0  0
   -2.3931    0.6430   -0.6660 C   0  0  0  0  0  0  0  0  0  0  0  0
   -1.8405   -0.1273    0.3808 N   0  0  0  0  0  0  0  0  0  0  0  0
   -0.4178   -0.4641    0.2838 C   0  0  0  0  0  0  0  0  0  0  0  0
   -0.0723   -1.7104   -0.4772 C   0  0  0  0  0  0  0  0  0  0  0  0
    1.1468   -2.0385   -1.0628 C   0  0  0  0  0  0  0  0  0  0  0  0
    2.4368   -1.3697   -1.0951 C   0  0  0  0  0  0  0  0  0  0  0  0
    3.1181   -1.3033   -2.1125 O   0  0  0  0  0  0  0  0  0  0  0  0
    2.8096   -0.8560    0.1400 N   0  0  0  0  0  0  0  0  0  0  0  0
    3.9565   -0.0915    0.4430 C   0  0  0  0  0  0  0  0  0  0  0  0
    4.8505    0.3844   -0.5108 C   0  0  0  0  0  0  0  0  0  0  0  0
    5.9345    1.1357   -0.0832 C   0  0  0  0  0  0  0  0  0  0  0  0
    6.1782    1.4414    1.2085 N   0  0  0  0  0  0  0  0  0  0  0  0
    5.2988    0.9719    2.1143 C   0  0  0  0  0  0  0  0  0  0  0  0
    4.1862    0.2134    1.7858 C   0  0  0  0  0  0  0  0  0  0  0  0
    1.0306   -3.2271   -1.7312 O   0  0  0  0  0  0  0  0  0  0  0  0
   -0.2349   -3.6759   -1.5522 C   0  0  0  0  0  0  0  0  0  0  0  0
   -0.9511   -2.7920   -0.7857 C   0  0  0  0  0  0  0  0  0  0  0  0
   -3.3166   -1.2343    2.3750 H   0  0  0  0  0  0  0  0  0  0  0  0
   -2.9927    0.0064    3.6022 H   0  0  0  0  0  0  0  0  0  0  0  0
   -1.6773   -1.0079    2.9889 H   0  0  0  0  0  0  0  0  0  0  0  0
   -1.5603    1.2571    1.9593 H   0  0  0  0  0  0  0  0  0  0  0  0
   -4.5149    0.7470    1.4328 H   0  0  0  0  0  0  0  0  0  0  0  0
   -3.6530    2.2806    1.7733 H   0  0  0  0  0  0  0  0  0  0  0  0
   -4.8996    2.9734   -0.7261 H   0  0  0  0  0  0  0  0  0  0  0  0
   -4.2998    2.9399   -3.1426 H   0  0  0  0  0  0  0  0  0  0  0  0
   -2.5116    1.4288   -3.9591 H   0  0  0  0  0  0  0  0  0  0  0  0
   -1.3089   -0.0547   -2.4021 H   0  0  0  0  0  0  0  0  0  0  0  0
    0.1428    0.3902   -0.1198 H   0  0  0  0  0  0  0  0  0  0  0  0
   -0.0278   -0.6139    1.2994 H   0  0  0  0  0  0  0  0  0  0  0  0
    2.2469   -1.1464    0.9279 H   0  0  0  0  0  0  0  0  0  0  0  0
    4.7375    0.1989   -1.5717 H   0  0  0  0  0  0  0  0  0  0  0  0
    6.6568    1.5242   -0.7962 H   0  0  0  0  0  0  0  0  0  0  0  0
    5.5175    1.2290    3.1469 H   0  0  0  0  0  0  0  0  0  0  0  0
    3.5266   -0.1277    2.5750 H   0  0  0  0  0  0  0  0  0  0  0  0
   -0.4711   -4.6159   -2.0316 H   0  0  0  0  0  0  0  0  0  0  0  0
   -1.9927   -2.8821   -0.5057 H   0  0  0  0  0  0  0  0  0  0  0  0
  1  2  1  0
  2  3  1  0
  3  4  1  0
  4  5  2  0
  5  6  1  0
  6  7  2  0
  7  8  1  0
  8  9  2  0
  9 10  1  0
 10 11  1  0
 11 12  1  0
 12 13  2  0
 13 14  1  0
 14 15  2  0
 14 16  1  0
 16 17  1  0
 17 18  2  0
 18 19  1  0
 19 20  2  0
 20 21  1  0
 21 22  2  0
 13 23  1  0
 23 24  1  0
 24 25  2  0
 10  2  1  0
 25 12  1  0
  9  4  1  0
 22 17  1  0
  1 26  1  0
  1 27  1  0
  1 28  1  0
  2 29  1  0
  3 30  1  0
  3 31  1  0
  5 32  1  0
  6 33  1  0
  7 34  1  0
  8 35  1  0
 11 36  1  0
 11 37  1  0
 16 38  1  0
 18 39  1  0
 19 40  1  0
 21 41  1  0
 22 42  1  0
 24 43  1  0
 25 44  1  0
M  END
$$$$
OCNT-2315701
     RDKit          3D

 42 44  0  0  0  0  0  0  0  0999 V2000
    6.7032    0.3688    1.0501 C   0  0  0  0  0  0  0  0  0  0  0  0
    5.5391    1.1817    0.9712 O   0  0  0  0  0  0  0  0  0  0  0  0
    4.3253    0.5576    0.8821 C   0  0  0  0  0  0  0  0  0  0  0  0
    4.1402   -0.8269    0.8755 C   0  0  0  0  0  0  0  0  0  0  0  0
    2.8539   -1.3957    0.7837 C   0  0  0  0  0  0  0  0  0  0  0  0
    2.7439   -2.8988    0.7773 C   0  0  0  0  0  0  0  0  0  0  0  0
    1.7258   -0.5550    0.6939 C   0  0  0  0  0  0  0  0  0  0  0  0
    0.4425   -1.1456    0.6023 N   0  0  0  0  0  0  0  0  0  0  0  0
   -0.7917   -0.5086    0.4960 C   0  0  0  0  0  0  0  0  0  0  0  0
   -0.9752    0.7045    0.4808 O   0  0  0  0  0  0  0  0  0  0  0  0
   -1.9497   -1.5189    0.4616 C   0  0  0  0  0  0  0  0  0  0  0  0
   -3.1848   -0.9303   -0.0020 N   0  0  0  0  0  0  0  0  0  0  0  0
   -4.2652   -0.1449    1.0680 S   0  0  0  0  0  0  0  0  0  0  0  0
   -5.2398    0.4162   -0.2998 C   0  0  0  0  0  0  0  0  0  0  0  0
   -6.3987    1.1756   -0.2631 C   0  0  0  0  0  0  0  0  0  0  0  0
   -7.0189    1.5101   -1.4726 C   0  0  0  0  0  0  0  0  0  0  0  0
   -6.4787    1.0849   -2.6980 C   0  0  0  0  0  0  0  0  0  0  0  0
   -5.3106    0.3201   -2.7286 C   0  0  0  0  0  0  0  0  0  0  0  0
   -4.7101   -0.0024   -1.5191 C   0  0  0  0  0  0  0  0  0  0  0  0
   -3.4771   -0.7927   -1.3483 C   0  0  0  0  0  0  0  0  0  0  0  0
   -2.8360   -1.2466   -2.2837 O   0  0  0  0  0  0  0  0  0  0  0  0
    1.9215    0.8302    0.6998 C   0  0  0  0  0  0  0  0  0  0  0  0
    3.2092    1.3972    0.7926 C   0  0  0  0  0  0  0  0  0  0  0  0
    3.3776    2.8970    0.7923 C   0  0  0  0  0  0  0  0  0  0  0  0
    4.1408    3.3510   -0.2426 F   0  0  0  0  0  0  0  0  0  0  0  0
    3.9595    3.3706    1.9320 F   0  0  0  0  0  0  0  0  0  0  0  0
    2.1974    3.5757    0.6879 F   0  0  0  0  0  0  0  0  0  0  0  0
    6.6925   -0.2458    1.9572 H   0  0  0  0  0  0  0  0  0  0  0  0
    7.5708    1.0331    1.1078 H   0  0  0  0  0  0  0  0  0  0  0  0
    6.8156   -0.2490    0.1528 H   0  0  0  0  0  0  0  0  0  0  0  0
    4.9931   -1.4967    0.9401 H   0  0  0  0  0  0  0  0  0  0  0  0
    3.7231   -3.3790    0.8792 H   0  0  0  0  0  0  0  0  0  0  0  0
    2.1276   -3.2391    1.6158 H   0  0  0  0  0  0  0  0  0  0  0  0
    2.3067   -3.2428   -0.1658 H   0  0  0  0  0  0  0  0  0  0  0  0
    0.4215   -2.1563    0.5843 H   0  0  0  0  0  0  0  0  0  0  0  0
   -1.6819   -2.3355   -0.2185 H   0  0  0  0  0  0  0  0  0  0  0  0
   -2.0899   -1.9336    1.4663 H   0  0  0  0  0  0  0  0  0  0  0  0
   -6.8187    1.5065    0.6824 H   0  0  0  0  0  0  0  0  0  0  0  0
   -7.9291    2.1077   -1.4646 H   0  0  0  0  0  0  0  0  0  0  0  0
   -6.9728    1.3561   -3.6286 H   0  0  0  0  0  0  0  0  0  0  0  0
   -4.8795   -0.0137   -3.6676 H   0  0  0  0  0  0  0  0  0  0  0  0
    1.0778    1.5135    0.6281 H   0  0  0  0  0  0  0  0  0  0  0  0
  1  2  1  0
  2  3  1  0
  3  4  2  0
  4  5  1  0
  5  6  1  0
  5  7  2  0
  7  8  1  0
  8  9  1  0
  9 10  2  0
  9 11  1  0
 11 12  1  0
 12 13  1  0
 13 14  1  0
 14 15  2  0
 15 16  1  0
 16 17  2  0
 17 18  1  0
 18 19  2  0
 19 20  1  0
 20 21  2  0
  7 22  1  0
 22 23  2  0
 23 24  1  0
 24 25  1  0
 24 26  1  0
 24 27  1  0
 23  3  1  0
 20 12  1  0
 19 14  1  0
  1 28  1  0
  1 29  1  0
  1 30  1  0
  4 31  1  0
  6 32  1  0
  6 33  1  0
  6 34  1  0
  8 35  1  0
 11 36  1  0
 11 37  1  0
 15 38  1  0
 16 39  1  0
 17 40  1  0
 18 41  1  0
 22 42  1  0
M  END
$$$$
OCNT-2315716
     RDKit          3D

 44 46  0  0  0  0  0  0  0  0999 V2000
    0.7642    3.4567    2.3191 C   0  0  0  0  0  0  0  0  0  0  0  0
    1.7650    2.3647    1.9862 C   0  0  0  0  0  0  0  0  0  0  0  0
    1.1638    1.4889    1.0332 O   0  0  0  0  0  0  0  0  0  0  0  0
    1.9191    0.4371    0.5799 C   0  0  0  0  0  0  0  0  0  0  0  0
    3.2088    0.1318    1.0078 C   0  0  0  0  0  0  0  0  0  0  0  0
    3.8899   -0.9638    0.4659 C   0  0  0  0  0  0  0  0  0  0  0  0
    3.3043   -1.7695   -0.5233 C   0  0  0  0  0  0  0  0  0  0  0  0
    4.0031   -2.8570   -1.0739 C   0  0  0  0  0  0  0  0  0  0  0  0
    3.4275   -3.6495   -2.0674 C   0  0  0  0  0  0  0  0  0  0  0  0
    2.1475   -3.3631   -2.5268 C   0  0  0  0  0  0  0  0  0  0  0  0
    1.4403   -2.2875   -1.9875 C   0  0  0  0  0  0  0  0  0  0  0  0
    1.9977   -1.4774   -0.9744 C   0  0  0  0  0  0  0  0  0  0  0  0
    1.3156   -0.3854   -0.3891 C   0  0  0  0  0  0  0  0  0  0  0  0
    0.0428   -0.0754   -0.8178 O   0  0  0  0  0  0  0  0  0  0  0  0
   -0.9448   -0.6868    0.0337 C   0  0  0  0  0  0  0  0  0  0  0  0
   -2.1635    0.2564    0.1301 C   0  0  0  0  0  0  0  0  0  0  0  0
   -1.7534    1.4652    0.7933 O   0  0  0  0  0  0  0  0  0  0  0  0
   -2.7014    0.6354   -1.2569 C   0  0  0  0  0  0  0  0  0  0  0  0
   -4.0201    1.3906   -1.1477 C   0  0  0  0  0  0  0  0  0  0  0  0
   -4.9719    0.6309   -0.4026 O   0  0  0  0  0  0  0  0  0  0  0  0
   -4.5418    0.4394    0.9451 C   0  0  0  0  0  0  0  0  0  0  0  0
   -3.2651   -0.3897    0.9787 C   0  0  0  0  0  0  0  0  0  0  0  0
    1.1852    4.1652    3.0379 H   0  0  0  0  0  0  0  0  0  0  0  0
   -0.1491    3.0262    2.7428 H   0  0  0  0  0  0  0  0  0  0  0  0
    0.4713    4.0005    1.4150 H   0  0  0  0  0  0  0  0  0  0  0  0
    2.0125    1.8166    2.9025 H   0  0  0  0  0  0  0  0  0  0  0  0
    2.6668    2.8235    1.5646 H   0  0  0  0  0  0  0  0  0  0  0  0
    3.7203    0.7228    1.7600 H   0  0  0  0  0  0  0  0  0  0  0  0
    4.8969   -1.1782    0.8195 H   0  0  0  0  0  0  0  0  0  0  0  0
    5.0091   -3.0938   -0.7339 H   0  0  0  0  0  0  0  0  0  0  0  0
    3.9821   -4.4858   -2.4853 H   0  0  0  0  0  0  0  0  0  0  0  0
    1.6980   -3.9723   -3.3067 H   0  0  0  0  0  0  0  0  0  0  0  0
    0.4441   -2.0745   -2.3696 H   0  0  0  0  0  0  0  0  0  0  0  0
   -0.5495   -0.8735    1.0417 H   0  0  0  0  0  0  0  0  0  0  0  0
   -1.2332   -1.6460   -0.4121 H   0  0  0  0  0  0  0  0  0  0  0  0
   -0.8283    1.6357    0.5140 H   0  0  0  0  0  0  0  0  0  0  0  0
   -2.8679   -0.2796   -1.8392 H   0  0  0  0  0  0  0  0  0  0  0  0
   -1.9850    1.2606   -1.8019 H   0  0  0  0  0  0  0  0  0  0  0  0
   -4.4358    1.5538   -2.1473 H   0  0  0  0  0  0  0  0  0  0  0  0
   -3.8882    2.3751   -0.6837 H   0  0  0  0  0  0  0  0  0  0  0  0
   -5.3399   -0.0899    1.4756 H   0  0  0  0  0  0  0  0  0  0  0  0
   -4.4118    1.4115    1.4351 H   0  0  0  0  0  0  0  0  0  0  0  0
   -3.4863   -1.3890    0.5831 H   0  0  0  0  0  0  0  0  0  0  0  0
   -2.9388   -0.5012    2.0194 H   0  0  0  0  0  0  0  0  0  0  0  0
  1  2  1  0
  2  3  1  0
  3  4  1  0
  4  5  1  0
  5  6  2  0
  6  7  1  0
  7  8  2  0
  8  9  1  0
  9 10  2  0
 10 11  1  0
 11 12  2  0
 12 13  1  0
 13 14  1  0
 14 15  1  0
 15 16  1  0
 16 17  1  0
 16 18  1  0
 18 19  1  0
 19 20  1  0
 20 21  1  0
 21 22  1  0
 13  4  2  0
 22 16  1  0
 12  7  1  0
  1 23  1  0
  1 24  1  0
  1 25  1  0
  2 26  1  0
  2 27  1  0
  5 28  1  0
  6 29  1  0
  8 30  1  0
  9 31  1  0
 10 32  1  0
 11 33  1  0
 15 34  1  0
 15 35  1  0
 17 36  1  0
 18 37  1  0
 18 38  1  0
 19 39  1  0
 19 40  1  0
 21 41  1  0
 21 42  1  0
 22 43  1  0
 22 44  1  0
M  END
$$$$
OCNT-2315717
     RDKit          3D

 45 47  0  0  0  0  0  0  0  0999 V2000
   -1.0021    3.5215   -1.2899 O   0  0  0  0  0  0  0  0  0  0  0  0
   -1.3439    2.6036   -0.5539 C   0  0  0  0  0  0  0  0  0  0  0  0
   -2.5932    2.7265    0.2952 C   0  0  0  0  0  0  0  0  0  0  0  0
   -3.8546    2.5479   -0.5376 C   0  0  0  0  0  0  0  0  0  0  0  0
   -4.0666    0.8689   -1.2466 S   0  0  0  0  0  0  0  0  0  0  0  0
   -4.1433   -0.1470    0.2159 C   0  0  0  0  0  0  0  0  0  0  0  0
   -5.0247    0.1250    1.2670 C   0  0  0  0  0  0  0  0  0  0  0  0
   -5.0502   -0.6972    2.3988 C   0  0  0  0  0  0  0  0  0  0  0  0
   -4.2050   -1.8017    2.4715 C   0  0  0  0  0  0  0  0  0  0  0  0
   -4.2333   -2.8079    3.8650 Cl  0  0  0  0  0  0  0  0  0  0  0  0
   -3.3401   -2.0955    1.4198 C   0  0  0  0  0  0  0  0  0  0  0  0
   -3.3125   -1.2712    0.2928 C   0  0  0  0  0  0  0  0  0  0  0  0
   -0.7051    1.3862   -0.3929 N   0  0  0  0  0  0  0  0  0  0  0  0
    0.4161    0.9026   -1.0958 C   0  0  0  0  0  0  0  0  0  0  0  0
    1.0523    1.5977   -2.1260 C   0  0  0  0  0  0  0  0  0  0  0  0
    2.1369    1.0323   -2.8073 C   0  0  0  0  0  0  0  0  0  0  0  0
    2.6045   -0.2313   -2.4584 C   0  0  0  0  0  0  0  0  0  0  0  0
    1.9885   -0.9167   -1.4123 C   0  0  0  0  0  0  0  0  0  0  0  0
    2.5451   -2.5388   -0.9584 S   0  0  0  0  0  0  0  0  0  0  0  0
    1.3595   -3.3215   -0.6693 O   0  0  0  0  0  0  0  0  0  0  0  0
    3.5217   -2.9816   -1.9300 O   0  0  0  0  0  0  0  0  0  0  0  0
    3.2928   -2.2732    0.5158 N   0  0  0  0  0  0  0  0  0  0  0  0
    4.4815   -1.5799    0.7269 C   0  0  0  0  0  0  0  0  0  0  0  0
    5.3652   -1.0282   -0.1672 C   0  0  0  0  0  0  0  0  0  0  0  0
    6.3673   -0.4677    0.5727 N   0  0  0  0  0  0  0  0  0  0  0  0
    6.1962   -0.6099    1.8989 N   0  0  0  0  0  0  0  0  0  0  0  0
    5.0543   -1.2957    1.9902 C   0  0  0  0  0  0  0  0  0  0  0  0
    0.8907   -0.3644   -0.7409 C   0  0  0  0  0  0  0  0  0  0  0  0
   -2.5658    2.0373    1.1427 H   0  0  0  0  0  0  0  0  0  0  0  0
   -2.5835    3.7319    0.7289 H   0  0  0  0  0  0  0  0  0  0  0  0
   -3.8422    3.2451   -1.3817 H   0  0  0  0  0  0  0  0  0  0  0  0
   -4.7360    2.7937    0.0618 H   0  0  0  0  0  0  0  0  0  0  0  0
   -5.7118    0.9651    1.2148 H   0  0  0  0  0  0  0  0  0  0  0  0
   -5.7395   -0.4777    3.2111 H   0  0  0  0  0  0  0  0  0  0  0  0
   -2.6918   -2.9666    1.4655 H   0  0  0  0  0  0  0  0  0  0  0  0
   -2.6431   -1.5209   -0.5303 H   0  0  0  0  0  0  0  0  0  0  0  0
   -1.1094    0.7536    0.2815 H   0  0  0  0  0  0  0  0  0  0  0  0
    0.7170    2.5816   -2.4407 H   0  0  0  0  0  0  0  0  0  0  0  0
    2.6044    1.5820   -3.6208 H   0  0  0  0  0  0  0  0  0  0  0  0
    3.4355   -0.6695   -3.0057 H   0  0  0  0  0  0  0  0  0  0  0  0
    2.7882   -2.6716    1.3073 H   0  0  0  0  0  0  0  0  0  0  0  0
    5.3922   -0.9957   -1.2465 H   0  0  0  0  0  0  0  0  0  0  0  0
    7.1942    0.0206    0.2429 H   0  0  0  0  0  0  0  0  0  0  0  0
    4.6832   -1.5578    2.9738 H   0  0  0  0  0  0  0  0  0  0  0  0
    0.4104   -0.9318    0.0513 H   0  0  0  0  0  0  0  0  0  0  0  0
  1  2  2  0
  2  3  1  0
  3  4  1  0
  4  5  1  0
  5  6  1  0
  6  7  1  0
  7  8  2  0
  8  9  1  0
  9 10  1  0
  9 11  2  0
 11 12  1  0
  2 13  1  0
 13 14  1  0
 14 15  1  0
 15 16  2  0
 16 17  1  0
 17 18  2  0
 18 19  1  0
 19 20  2  0
 19 21  2  0
 19 22  1  0
 22 23  1  0
 23 24  2  0
 24 25  1  0
 25 26  1  0
 26 27  2  0
 18 28  1  0
 12  6  2  0
 28 14  2  0
 27 23  1  0
  3 29  1  0
  3 30  1  0
  4 31  1  0
  4 32  1  0
  7 33  1  0
  8 34  1  0
 11 35  1  0
 12 36  1  0
 13 37  1  0
 15 38  1  0
 16 39  1  0
 17 40  1  0
 22 41  1  0
 24 42  1  0
 25 43  1  0
 27 44  1  0
 28 45  1  0
M  END
$$$$
OCNT-2315731
     RDKit          3D

 47 50  0  0  0  0  0  0  0  0999 V2000
    7.6233   -1.6489   -1.3614 C   0  0  0  0  0  0  0  0  0  0  0  0
    6.3113   -1.1761   -0.9761 N   0  0  0  0  0  0  0  0  0  0  0  0
    5.3289   -0.9735   -1.9006 C   0  0  0  0  0  0  0  0  0  0  0  0
    4.1406   -0.5475   -1.6414 N   0  0  0  0  0  0  0  0  0  0  0  0
    3.8008   -0.2652   -0.3365 C   0  0  0  0  0  0  0  0  0  0  0  0
    2.5046    0.1980   -0.0619 N   0  0  0  0  0  0  0  0  0  0  0  0
    1.9103    0.2727    1.2859 C   0  0  0  0  0  0  0  0  0  0  0  0
    0.3784    0.1118    1.2666 C   0  0  0  0  0  0  0  0  0  0  0  0
   -0.2923    1.0521    0.3664 N   0  0  0  0  0  0  0  0  0  0  0  0
   -1.6118    1.4761    0.4883 C   0  0  0  0  0  0  0  0  0  0  0  0
   -2.0587    2.3703   -0.2322 O   0  0  0  0  0  0  0  0  0  0  0  0
   -2.4514    0.8019    1.5730 C   0  0  0  0  0  0  0  0  0  0  0  0
   -3.9220    0.8443    1.2974 C   0  0  0  0  0  0  0  0  0  0  0  0
   -4.8481    1.6839    1.8866 C   0  0  0  0  0  0  0  0  0  0  0  0
   -6.0801    1.4008    1.3619 N   0  0  0  0  0  0  0  0  0  0  0  0
   -5.9874    0.3727    0.4535 C   0  0  0  0  0  0  0  0  0  0  0  0
   -6.9827   -0.2485   -0.3106 C   0  0  0  0  0  0  0  0  0  0  0  0
   -6.5909   -1.2773   -1.1719 C   0  0  0  0  0  0  0  0  0  0  0  0
   -5.2566   -1.6652   -1.2654 C   0  0  0  0  0  0  0  0  0  0  0  0
   -4.2743   -1.0326   -0.4944 C   0  0  0  0  0  0  0  0  0  0  0  0
   -4.6432    0.0062    0.3855 C   0  0  0  0  0  0  0  0  0  0  0  0
    0.5259    1.5887   -0.7231 C   0  0  0  0  0  0  0  0  0  0  0  0
    1.6187    0.6093   -1.1774 C   0  0  0  0  0  0  0  0  0  0  0  0
    4.7074   -0.4216    0.6451 C   0  0  0  0  0  0  0  0  0  0  0  0
    6.0625   -0.9056    0.3446 C   0  0  0  0  0  0  0  0  0  0  0  0
    6.8787   -1.0402    1.2526 O   0  0  0  0  0  0  0  0  0  0  0  0
    7.6649   -1.8836   -2.4284 H   0  0  0  0  0  0  0  0  0  0  0  0
    7.8688   -2.5433   -0.7801 H   0  0  0  0  0  0  0  0  0  0  0  0
    8.3595   -0.8725   -1.1303 H   0  0  0  0  0  0  0  0  0  0  0  0
    5.6129   -1.2037   -2.9396 H   0  0  0  0  0  0  0  0  0  0  0  0
    2.1742    1.2402    1.7299 H   0  0  0  0  0  0  0  0  0  0  0  0
    2.3109   -0.5155    1.9334 H   0  0  0  0  0  0  0  0  0  0  0  0
    0.1152   -0.8953    0.9214 H   0  0  0  0  0  0  0  0  0  0  0  0
   -0.0100    0.2323    2.2827 H   0  0  0  0  0  0  0  0  0  0  0  0
   -2.1626   -0.2501    1.6720 H   0  0  0  0  0  0  0  0  0  0  0  0
   -2.2305    1.3018    2.5234 H   0  0  0  0  0  0  0  0  0  0  0  0
   -4.7314    2.4686    2.6220 H   0  0  0  0  0  0  0  0  0  0  0  0
   -6.9384    1.8765    1.6013 H   0  0  0  0  0  0  0  0  0  0  0  0
   -8.0220    0.0557   -0.2444 H   0  0  0  0  0  0  0  0  0  0  0  0
   -7.3395   -1.7779   -1.7815 H   0  0  0  0  0  0  0  0  0  0  0  0
   -4.9723   -2.4632   -1.9466 H   0  0  0  0  0  0  0  0  0  0  0  0
   -3.2366   -1.3387   -0.5827 H   0  0  0  0  0  0  0  0  0  0  0  0
    0.9812    2.5143   -0.3501 H   0  0  0  0  0  0  0  0  0  0  0  0
   -0.1096    1.8524   -1.5755 H   0  0  0  0  0  0  0  0  0  0  0  0
    1.1562   -0.2889   -1.6046 H   0  0  0  0  0  0  0  0  0  0  0  0
    2.1991    1.0994   -1.9682 H   0  0  0  0  0  0  0  0  0  0  0  0
    4.5182   -0.1951    1.6831 H   0  0  0  0  0  0  0  0  0  0  0  0
  1  2  1  0
  2  3  1  0
  3  4  2  0
  4  5  1  0
  5  6  1  0
  6  7  1  0
  7  8  1  0
  8  9  1  0
  9 10  1  0
 10 11  2  0
 10 12  1  0
 12 13  1  0
 13 14  2  0
 14 15  1  0
 15 16  1  0
 16 17  2  0
 17 18  1  0
 18 19  2  0
 19 20  1  0
 20 21  2  0
  9 22  1  0
 22 23  1  0
  5 24  2  0
 24 25  1  0
 25 26  2  0
 25  2  1  0
 23  6  1  0
 21 13  1  0
 21 16  1  0
  1 27  1  0
  1 28  1  0
  1 29  1  0
  3 30  1  0
  7 31  1  0
  7 32  1  0
  8 33  1  0
  8 34  1  0
 12 35  1  0
 12 36  1  0
 14 37  1  0
 15 38  1  0
 17 39  1  0
 18 40  1  0
 19 41  1  0
 20 42  1  0
 22 43  1  0
 22 44  1  0
 23 45  1  0
 23 46  1  0
 24 47  1  0
M  END
$$$$
OCNT-2315746
     RDKit          3D

 42 43  0  0  0  0  0  0  0  0999 V2000
    6.5407   -0.9971    2.3501 C   0  0  0  0  0  0  0  0  0  0  0  0
    5.5794   -0.8509    1.2104 C   0  0  0  0  0  0  0  0  0  0  0  0
    4.8539    0.3338    1.0220 C   0  0  0  0  0  0  0  0  0  0  0  0
    3.9777    0.4741   -0.0677 C   0  0  0  0  0  0  0  0  0  0  0  0
    3.1744    1.7383   -0.2520 C   0  0  0  0  0  0  0  0  0  0  0  0
    1.8295    1.5769    0.2574 N   0  0  0  0  0  0  0  0  0  0  0  0
    0.7904    1.2350   -0.5914 C   0  0  0  0  0  0  0  0  0  0  0  0
    0.9422    1.1509   -1.8029 O   0  0  0  0  0  0  0  0  0  0  0  0
   -0.3671    1.0412    0.1120 N   0  0  0  0  0  0  0  0  0  0  0  0
   -1.5579    0.6441   -0.4205 C   0  0  0  0  0  0  0  0  0  0  0  0
   -2.6571    0.5931    0.3386 N   0  0  0  0  0  0  0  0  0  0  0  0
   -3.5840    0.1574   -0.5390 N   0  0  0  0  0  0  0  0  0  0  0  0
   -4.9865   -0.0496   -0.1543 C   0  0  0  0  0  0  0  0  0  0  0  0
   -5.2328    0.2813    1.3343 C   0  0  0  0  0  0  0  0  0  0  0  0
   -5.3742   -1.5222   -0.3856 C   0  0  0  0  0  0  0  0  0  0  0  0
   -5.8938    0.8616   -1.0021 C   0  0  0  0  0  0  0  0  0  0  0  0
   -3.0186   -0.0434   -1.7626 C   0  0  0  0  0  0  0  0  0  0  0  0
   -1.7427    0.2509   -1.7103 N   0  0  0  0  0  0  0  0  0  0  0  0
    3.8313   -0.5913   -0.9691 C   0  0  0  0  0  0  0  0  0  0  0  0
    4.5579   -1.7681   -0.7941 C   0  0  0  0  0  0  0  0  0  0  0  0
    5.4257   -1.8863    0.2856 C   0  0  0  0  0  0  0  0  0  0  0  0
    6.1228   -3.0221    0.4351 F   0  0  0  0  0  0  0  0  0  0  0  0
    6.4472   -1.9868    2.8089 H   0  0  0  0  0  0  0  0  0  0  0  0
    6.3444   -0.2563    3.1323 H   0  0  0  0  0  0  0  0  0  0  0  0
    7.5670   -0.8620    1.9948 H   0  0  0  0  0  0  0  0  0  0  0  0
    4.9737    1.1542    1.7273 H   0  0  0  0  0  0  0  0  0  0  0  0
    3.6313    2.5607    0.3096 H   0  0  0  0  0  0  0  0  0  0  0  0
    3.1654    2.0349   -1.3068 H   0  0  0  0  0  0  0  0  0  0  0  0
    1.7569    1.2325    1.2019 H   0  0  0  0  0  0  0  0  0  0  0  0
   -0.4280    1.3234    1.0730 H   0  0  0  0  0  0  0  0  0  0  0  0
   -4.9906    1.3269    1.5581 H   0  0  0  0  0  0  0  0  0  0  0  0
   -6.2828    0.1221    1.6060 H   0  0  0  0  0  0  0  0  0  0  0  0
   -4.6240   -0.3508    1.9915 H   0  0  0  0  0  0  0  0  0  0  0  0
   -5.2905   -1.8034   -1.4416 H   0  0  0  0  0  0  0  0  0  0  0  0
   -4.7243   -2.1957    0.1854 H   0  0  0  0  0  0  0  0  0  0  0  0
   -6.4086   -1.7128   -0.0778 H   0  0  0  0  0  0  0  0  0  0  0  0
   -5.8177    0.6298   -2.0705 H   0  0  0  0  0  0  0  0  0  0  0  0
   -6.9460    0.7490   -0.7171 H   0  0  0  0  0  0  0  0  0  0  0  0
   -5.6226    1.9164   -0.8756 H   0  0  0  0  0  0  0  0  0  0  0  0
   -3.5591   -0.3935   -2.6306 H   0  0  0  0  0  0  0  0  0  0  0  0
    3.1456   -0.5046   -1.8119 H   0  0  0  0  0  0  0  0  0  0  0  0
    4.4513   -2.5918   -1.4925 H   0  0  0  0  0  0  0  0  0  0  0  0
  1  2  1  0
  2  3  1  0
  3  4  2  0
  4  5  1  0
  5  6  1  0
  6  7  1  0
  7  8  2  0
  7  9  1  0
  9 10  1  0
 10 11  2  0
 11 12  1  0
 12 13  1  0
 13 14  1  0
 13 15  1  0
 13 16  1  0
 12 17  1  0
 17 18  2  0
  4 19  1  0
 19 20  2  0
 20 21  1  0
 21 22  1  0
 21  2  2  0
 18 10  1  0
  1 23  1  0
  1 24  1  0
  1 25  1  0
  3 26  1  0
  5 27  1  0
  5 28  1  0
  6 29  1  0
  9 30  1  0
 14 31  1  0
 14 32  1  0
 14 33  1  0
 15 34  1  0
 15 35  1  0
 15 36  1  0
 16 37  1  0
 16 38  1  0
 16 39  1  0
 17 40  1  0
 19 41  1  0
 20 42  1  0
M  END
$$$$
OCNT-2315752
     RDKit          3D

 38 41  0  0  0  0  0  0  0  0999 V2000
   -4.1201    1.2127    1.9342 C   0  0  0  0  0  0  0  0  0  0  0  0
   -3.7470    0.0495    1.0494 C   0  0  0  0  0  0  0  0  0  0  0  0
   -2.5345    0.0128    0.5683 N   0  0  0  0  0  0  0  0  0  0  0  0
   -2.2272   -1.0610   -0.2308 C   0  0  0  0  0  0  0  0  0  0  0  0
   -1.0634   -1.4119   -0.8903 C   0  0  0  0  0  0  0  0  0  0  0  0
    0.2100   -0.7139   -0.9121 C   0  0  0  0  0  0  0  0  0  0  0  0
    1.1115   -1.0827   -1.6553 O   0  0  0  0  0  0  0  0  0  0  0  0
    0.2670    0.3818   -0.0637 N   0  0  0  0  0  0  0  0  0  0  0  0
    1.3292    1.3134   -0.0260 C   0  0  0  0  0  0  0  0  0  0  0  0
    0.9203    2.6595    0.0022 C   0  0  0  0  0  0  0  0  0  0  0  0
    1.8398    3.6977   -0.1526 C   0  0  0  0  0  0  0  0  0  0  0  0
    3.1855    3.4064   -0.3323 C   0  0  0  0  0  0  0  0  0  0  0  0
    3.6175    2.0804   -0.2983 C   0  0  0  0  0  0  0  0  0  0  0  0
    2.7055    1.0233   -0.0914 C   0  0  0  0  0  0  0  0  0  0  0  0
    3.2657   -0.2610    0.1830 N   0  0  0  0  0  0  0  0  0  0  0  0
    2.7159   -1.2994    0.9140 C   0  0  0  0  0  0  0  0  0  0  0  0
    3.6374   -2.3177    0.9409 C   0  0  0  0  0  0  0  0  0  0  0  0
    4.7522   -1.7950    0.2746 C   0  0  0  0  0  0  0  0  0  0  0  0
    4.5657   -0.5395   -0.1317 N   0  0  0  0  0  0  0  0  0  0  0  0
   -1.3911   -2.6088   -1.5589 C   0  0  0  0  0  0  0  0  0  0  0  0
   -2.6454   -3.0079   -1.3410 N   0  0  0  0  0  0  0  0  0  0  0  0
   -3.1612   -2.0585   -0.5274 N   0  0  0  0  0  0  0  0  0  0  0  0
   -4.4460   -1.9961   -0.0031 C   0  0  0  0  0  0  0  0  0  0  0  0
   -4.8064   -0.9784    0.7899 C   0  0  0  0  0  0  0  0  0  0  0  0
   -3.4573    1.2301    2.8042 H   0  0  0  0  0  0  0  0  0  0  0  0
   -3.9978    2.1445    1.3742 H   0  0  0  0  0  0  0  0  0  0  0  0
   -5.1546    1.1406    2.2791 H   0  0  0  0  0  0  0  0  0  0  0  0
   -0.6484    0.7107    0.2415 H   0  0  0  0  0  0  0  0  0  0  0  0
   -0.1342    2.9159    0.0807 H   0  0  0  0  0  0  0  0  0  0  0  0
    1.5005    4.7302   -0.1611 H   0  0  0  0  0  0  0  0  0  0  0  0
    3.9069    4.2075   -0.4721 H   0  0  0  0  0  0  0  0  0  0  0  0
    4.6863    1.8854   -0.3805 H   0  0  0  0  0  0  0  0  0  0  0  0
    1.7340   -1.2247    1.3530 H   0  0  0  0  0  0  0  0  0  0  0  0
    3.5262   -3.2885    1.4009 H   0  0  0  0  0  0  0  0  0  0  0  0
    5.7069   -2.2683    0.0854 H   0  0  0  0  0  0  0  0  0  0  0  0
   -0.7506   -3.2062   -2.1976 H   0  0  0  0  0  0  0  0  0  0  0  0
   -5.1087   -2.8061   -0.2768 H   0  0  0  0  0  0  0  0  0  0  0  0
   -5.7900   -0.8768    1.2262 H   0  0  0  0  0  0  0  0  0  0  0  0
  1  2  1  0
  2  3  2  0
  3  4  1  0
  4  5  2  0
  5  6  1  0
  6  7  2  0
  6  8  1  0
  8  9  1  0
  9 10  2  0
 10 11  1  0
 11 12  2  0
 12 13  1  0
 13 14  2  0
 14 15  1  0
 15 16  1  0
 16 17  2  0
 17 18  1  0
 18 19  2  0
  5 20  1  0
 20 21  2  0
 21 22  1  0
 22 23  1  0
 23 24  2  0
 24  2  1  0
 22  4  1  0
 14  9  1  0
 19 15  1  0
  1 25  1  0
  1 26  1  0
  1 27  1  0
  8 28  1  0
 10 29  1  0
 11 30  1  0
 12 31  1  0
 13 32  1  0
 16 33  1  0
 17 34  1  0
 18 35  1  0
 20 36  1  0
 23 37  1  0
 24 38  1  0
M  END
$$$$
OCNT-2315753
     RDKit          3D

 35 38  0  0  0  0  0  0  0  0999 V2000
    6.5341   -0.4071    0.6580 Br  0  0  0  0  0  0  0  0  0  0  0  0
    4.7768   -0.6236   -0.0049 C   0  0  0  0  0  0  0  0  0  0  0  0
    4.5722   -1.2702   -1.2197 C   0  0  0  0  0  0  0  0  0  0  0  0
    3.2753   -1.4213   -1.7057 C   0  0  0  0  0  0  0  0  0  0  0  0
    2.1886   -0.9310   -0.9759 C   0  0  0  0  0  0  0  0  0  0  0  0
    2.3797   -0.2846    0.2545 C   0  0  0  0  0  0  0  0  0  0  0  0
    1.2390    0.2807    1.0863 C   0  0  0  0  0  0  0  0  0  0  0  0
    0.9462    1.7406    0.7472 C   0  0  0  0  0  0  0  0  0  0  0  0
   -0.0419    1.6462   -0.4108 C   0  0  0  0  0  0  0  0  0  0  0  0
   -0.8071    0.4008   -0.1888 N   0  0  0  0  0  0  0  0  0  0  0  0
   -2.1508    0.6258    0.1384 C   0  0  0  0  0  0  0  0  0  0  0  0
   -2.5561    1.7017    0.8488 N   0  0  0  0  0  0  0  0  0  0  0  0
   -3.8690    1.8283    1.1433 C   0  0  0  0  0  0  0  0  0  0  0  0
   -4.8746    1.0022    0.8276 N   0  0  0  0  0  0  0  0  0  0  0  0
   -4.4573   -0.0618    0.1205 C   0  0  0  0  0  0  0  0  0  0  0  0
   -3.1382   -0.2693   -0.2278 C   0  0  0  0  0  0  0  0  0  0  0  0
   -3.1442   -1.4356   -0.9391 N   0  0  0  0  0  0  0  0  0  0  0  0
   -4.4350   -1.8841   -0.9832 C   0  0  0  0  0  0  0  0  0  0  0  0
   -5.2536   -1.0749   -0.3463 N   0  0  0  0  0  0  0  0  0  0  0  0
   -0.1470   -0.3632    0.8998 C   0  0  0  0  0  0  0  0  0  0  0  0
    3.6953   -0.1315    0.7277 C   0  0  0  0  0  0  0  0  0  0  0  0
    5.4108   -1.6533   -1.7945 H   0  0  0  0  0  0  0  0  0  0  0  0
    3.1084   -1.9179   -2.6585 H   0  0  0  0  0  0  0  0  0  0  0  0
    1.1920   -1.0533   -1.3947 H   0  0  0  0  0  0  0  0  0  0  0  0
    1.5252    0.1818    2.1416 H   0  0  0  0  0  0  0  0  0  0  0  0
    1.8312    2.3298    0.4875 H   0  0  0  0  0  0  0  0  0  0  0  0
    0.4573    2.2250    1.6019 H   0  0  0  0  0  0  0  0  0  0  0  0
   -0.6491    2.5542   -0.5027 H   0  0  0  0  0  0  0  0  0  0  0  0
    0.5023    1.5413   -1.3570 H   0  0  0  0  0  0  0  0  0  0  0  0
   -4.1421    2.7126    1.7113 H   0  0  0  0  0  0  0  0  0  0  0  0
   -2.3344   -1.8661   -1.3624 H   0  0  0  0  0  0  0  0  0  0  0  0
   -4.7163   -2.7971   -1.4915 H   0  0  0  0  0  0  0  0  0  0  0  0
   -0.6987   -0.2728    1.8468 H   0  0  0  0  0  0  0  0  0  0  0  0
   -0.0946   -1.4284    0.6491 H   0  0  0  0  0  0  0  0  0  0  0  0
    3.8753    0.3760    1.6734 H   0  0  0  0  0  0  0  0  0  0  0  0
  1  2  1  0
  2  3  1  0
  3  4  2  0
  4  5  1  0
  5  6  2  0
  6  7  1  0
  7  8  1  0
  8  9  1  0
  9 10  1  0
 10 11  1  0
 11 12  1  0
 12 13  2  0
 13 14  1  0
 14 15  2  0
 15 16  1  0
 16 17  1  0
 17 18  1  0
 18 19  2  0
 10 20  1  0
  6 21  1  0
 21  2  2  0
 20  7  1  0
 16 11  2  0
 19 15  1  0
  3 22  1  0
  4 23  1  0
  5 24  1  0
  7 25  1  0
  8 26  1  0
  8 27  1  0
  9 28  1  0
  9 29  1  0
 13 30  1  0
 17 31  1  0
 18 32  1  0
 20 33  1  0
 20 34  1  0
 21 35  1  0
M  END
$$$$
OCNT-2315759
     RDKit          3D

 46 49  0  0  0  0  0  0  0  0999 V2000
    8.7964   -0.5068    0.6907 C   0  0  0  0  0  0  0  0  0  0  0  0
    8.0312    0.7915    0.8975 C   0  0  0  0  0  0  0  0  0  0  0  0
    6.5649    0.6339    0.5858 C   0  0  0  0  0  0  0  0  0  0  0  0
    5.6635    0.2391    1.5803 C   0  0  0  0  0  0  0  0  0  0  0  0
    4.3040    0.0761    1.2876 C   0  0  0  0  0  0  0  0  0  0  0  0
    3.8175    0.3008   -0.0082 C   0  0  0  0  0  0  0  0  0  0  0  0
    2.4047    0.1443   -0.3582 C   0  0  0  0  0  0  0  0  0  0  0  0
    1.8694    0.2477   -1.5653 N   0  0  0  0  0  0  0  0  0  0  0  0
    0.5116    0.0351   -1.4687 N   0  0  0  0  0  0  0  0  0  0  0  0
    0.2485   -0.1858   -0.2075 C   0  0  0  0  0  0  0  0  0  0  0  0
   -1.2659   -0.4975    0.5391 S   0  0  0  0  0  0  0  0  0  0  0  0
   -2.3025   -0.8072   -0.9331 C   0  0  0  0  0  0  0  0  0  0  0  0
   -2.7283    0.4649   -1.6519 C   0  0  0  0  0  0  0  0  0  0  0  0
   -4.0024    0.8766   -0.9455 C   0  0  0  0  0  0  0  0  0  0  0  0
   -4.5980   -0.3680   -0.5181 N   0  0  0  0  0  0  0  0  0  0  0  0
   -5.9483   -0.4581   -0.0776 C   0  0  0  0  0  0  0  0  0  0  0  0
   -6.7497    0.6926    0.0145 C   0  0  0  0  0  0  0  0  0  0  0  0
   -8.0807    0.6221    0.4433 C   0  0  0  0  0  0  0  0  0  0  0  0
   -8.6386   -0.6031    0.7882 C   0  0  0  0  0  0  0  0  0  0  0  0
   -7.8644   -1.7546    0.7041 C   0  0  0  0  0  0  0  0  0  0  0  0
   -6.5334   -1.6810    0.2749 C   0  0  0  0  0  0  0  0  0  0  0  0
   -3.6325   -1.3925   -0.4775 C   0  0  0  0  0  0  0  0  0  0  0  0
   -3.7622   -2.5537   -0.1134 O   0  0  0  0  0  0  0  0  0  0  0  0
    1.3900   -0.1294    0.5255 N   0  0  0  0  0  0  0  0  0  0  0  0
    4.7296    0.6867   -1.0010 C   0  0  0  0  0  0  0  0  0  0  0  0
    6.0873    0.8505   -0.7103 C   0  0  0  0  0  0  0  0  0  0  0  0
    9.8566   -0.3623    0.9214 H   0  0  0  0  0  0  0  0  0  0  0  0
    8.4133   -1.3015    1.3399 H   0  0  0  0  0  0  0  0  0  0  0  0
    8.7188   -0.8532   -0.3456 H   0  0  0  0  0  0  0  0  0  0  0  0
    8.1537    1.1337    1.9324 H   0  0  0  0  0  0  0  0  0  0  0  0
    8.4598    1.5791    0.2656 H   0  0  0  0  0  0  0  0  0  0  0  0
    6.0157    0.0522    2.5929 H   0  0  0  0  0  0  0  0  0  0  0  0
    3.6485   -0.2357    2.0949 H   0  0  0  0  0  0  0  0  0  0  0  0
   -1.8128   -1.5087   -1.6162 H   0  0  0  0  0  0  0  0  0  0  0  0
   -1.9812    1.2634   -1.6717 H   0  0  0  0  0  0  0  0  0  0  0  0
   -2.9643    0.2178   -2.6958 H   0  0  0  0  0  0  0  0  0  0  0  0
   -3.7923    1.4905   -0.0625 H   0  0  0  0  0  0  0  0  0  0  0  0
   -4.6556    1.4207   -1.6346 H   0  0  0  0  0  0  0  0  0  0  0  0
   -6.3618    1.6763   -0.2305 H   0  0  0  0  0  0  0  0  0  0  0  0
   -8.6775    1.5280    0.5095 H   0  0  0  0  0  0  0  0  0  0  0  0
   -9.6709   -0.6619    1.1218 H   0  0  0  0  0  0  0  0  0  0  0  0
   -8.2902   -2.7191    0.9696 H   0  0  0  0  0  0  0  0  0  0  0  0
   -5.9822   -2.6144    0.2182 H   0  0  0  0  0  0  0  0  0  0  0  0
    1.4589   -0.2597    1.5211 H   0  0  0  0  0  0  0  0  0  0  0  0
    4.3848    0.8632   -2.0194 H   0  0  0  0  0  0  0  0  0  0  0  0
    6.7670    1.1468   -1.5065 H   0  0  0  0  0  0  0  0  0  0  0  0
  1  2  1  0
  2  3  1  0
  3  4  1  0
  4  5  2  0
  5  6  1  0
  6  7  1  0
  7  8  2  0
  8  9  1  0
  9 10  2  0
 10 11  1  0
 11 12  1  0
 12 13  1  0
 13 14  1  0
 14 15  1  0
 15 16  1  0
 16 17  2  0
 17 18  1  0
 18 19  2  0
 19 20  1  0
 20 21  2  0
 15 22  1  0
 22 23  2  0
 10 24  1  0
  6 25  2  0
 25 26  1  0
 26  3  2  0
 24  7  1  0
 22 12  1  0
 21 16  1  0
  1 27  1  0
  1 28  1  0
  1 29  1  0
  2 30  1  0
  2 31  1  0
  4 32  1  0
  5 33  1  0
 12 34  1  0
 13 35  1  0
 13 36  1  0
 14 37  1  0
 14 38  1  0
 17 39  1  0
 18 40  1  0
 19 41  1  0
 20 42  1  0
 21 43  1  0
 24 44  1  0
 25 45  1  0
 26 46  1  0
M  END
$$$$
OCNT-2315765
     RDKit          3D

 46 49  0  0  0  0  0  0  0  0999 V2000
   -3.2799   -2.5371   -0.2813 C   0  0  0  0  0  0  0  0  0  0  0  0
   -3.7621   -1.1397    0.0032 C   0  0  0  0  0  0  0  0  0  0  0  0
   -5.1466   -0.9308    0.1535 C   0  0  0  0  0  0  0  0  0  0  0  0
   -5.6644    0.3432    0.4143 C   0  0  0  0  0  0  0  0  0  0  0  0
   -7.1383    0.4899    0.5605 C   0  0  0  0  0  0  0  0  0  0  0  0
   -7.6721    1.7397    0.4092 N   0  0  0  0  0  0  0  0  0  0  0  0
   -7.8622   -0.4748    0.7740 O   0  0  0  0  0  0  0  0  0  0  0  0
   -4.7873    1.4200    0.5430 C   0  0  0  0  0  0  0  0  0  0  0  0
   -3.4092    1.2246    0.3942 C   0  0  0  0  0  0  0  0  0  0  0  0
   -2.8802   -0.0458    0.1333 C   0  0  0  0  0  0  0  0  0  0  0  0
   -1.4932   -0.2599   -0.0353 N   0  0  0  0  0  0  0  0  0  0  0  0
   -0.4617    0.5964    0.2812 C   0  0  0  0  0  0  0  0  0  0  0  0
   -0.5802    1.6322    0.9298 O   0  0  0  0  0  0  0  0  0  0  0  0
    0.7853    0.1579   -0.1725 N   0  0  0  0  0  0  0  0  0  0  0  0
    0.9543   -0.5759   -1.4499 C   0  0  0  0  0  0  0  0  0  0  0  0
    2.1459   -1.5556   -1.4165 C   0  0  0  0  0  0  0  0  0  0  0  0
    3.3017   -0.8748   -0.7800 C   0  0  0  0  0  0  0  0  0  0  0  0
    3.2143    0.2649   -0.0070 C   0  0  0  0  0  0  0  0  0  0  0  0
    1.9290    0.9813    0.2616 C   0  0  0  0  0  0  0  0  0  0  0  0
    4.5359    0.5789    0.4218 C   0  0  0  0  0  0  0  0  0  0  0  0
    5.0961    1.6025    1.2122 C   0  0  0  0  0  0  0  0  0  0  0  0
    6.4771    1.6086    1.4400 C   0  0  0  0  0  0  0  0  0  0  0  0
    7.1636    2.8600    2.4058 Cl  0  0  0  0  0  0  0  0  0  0  0  0
    7.3059    0.6281    0.9040 C   0  0  0  0  0  0  0  0  0  0  0  0
    6.7663   -0.3912    0.1197 C   0  0  0  0  0  0  0  0  0  0  0  0
    7.7823   -1.6063   -0.5472 Cl  0  0  0  0  0  0  0  0  0  0  0  0
    5.3851   -0.3984   -0.1097 C   0  0  0  0  0  0  0  0  0  0  0  0
    4.6036   -1.2749   -0.8350 N   0  0  0  0  0  0  0  0  0  0  0  0
   -2.6311   -2.8865    0.5283 H   0  0  0  0  0  0  0  0  0  0  0  0
   -4.1122   -3.2442   -0.3638 H   0  0  0  0  0  0  0  0  0  0  0  0
   -2.7333   -2.5650   -1.2295 H   0  0  0  0  0  0  0  0  0  0  0  0
   -5.8356   -1.7707    0.0653 H   0  0  0  0  0  0  0  0  0  0  0  0
   -8.6830    1.7897    0.3974 H   0  0  0  0  0  0  0  0  0  0  0  0
   -7.1651    2.4997   -0.0195 H   0  0  0  0  0  0  0  0  0  0  0  0
   -5.1435    2.4173    0.7817 H   0  0  0  0  0  0  0  0  0  0  0  0
   -2.7662    2.0952    0.4900 H   0  0  0  0  0  0  0  0  0  0  0  0
   -1.1987   -1.2136   -0.1661 H   0  0  0  0  0  0  0  0  0  0  0  0
    0.0487   -1.1168   -1.7365 H   0  0  0  0  0  0  0  0  0  0  0  0
    1.1132    0.1868   -2.2241 H   0  0  0  0  0  0  0  0  0  0  0  0
    1.8789   -2.4356   -0.8196 H   0  0  0  0  0  0  0  0  0  0  0  0
    2.3861   -1.8908   -2.4307 H   0  0  0  0  0  0  0  0  0  0  0  0
    1.8991    1.9250   -0.2957 H   0  0  0  0  0  0  0  0  0  0  0  0
    1.8323    1.2024    1.3306 H   0  0  0  0  0  0  0  0  0  0  0  0
    4.4632    2.3750    1.6399 H   0  0  0  0  0  0  0  0  0  0  0  0
    8.3753    0.6548    1.0958 H   0  0  0  0  0  0  0  0  0  0  0  0
    4.9626   -2.0857   -1.3230 H   0  0  0  0  0  0  0  0  0  0  0  0
  1  2  1  0
  2  3  1  0
  3  4  2  0
  4  5  1  0
  5  6  1  0
  5  7  2  0
  4  8  1  0
  8  9  2  0
  9 10  1  0
 10 11  1  0
 11 12  1  0
 12 13  2  0
 12 14  1  0
 14 15  1  0
 15 16  1  0
 16 17  1  0
 17 18  2  0
 18 19  1  0
 18 20  1  0
 20 21  2  0
 21 22  1  0
 22 23  1  0
 22 24  2  0
 24 25  1  0
 25 26  1  0
 25 27  2  0
 27 28  1  0
 10  2  2  0
 19 14  1  0
 27 20  1  0
 28 17  1  0
  1 29  1  0
  1 30  1  0
  1 31  1  0
  3 32  1  0
  6 33  1  0
  6 34  1  0
  8 35  1  0
  9 36  1  0
 11 37  1  0
 15 38  1  0
 15 39  1  0
 16 40  1  0
 16 41  1  0
 19 42  1  0
 19 43  1  0
 21 44  1  0
 24 45  1  0
 28 46  1  0
M  END
$$$$
OCNT-2315791
     RDKit          3D

 47 50  0  0  0  0  0  0  0  0999 V2000
   -3.9774   -2.0275   -1.6770 C   0  0  0  0  0  0  0  0  0  0  0  0
   -3.8071   -1.4531   -0.2663 C   0  0  0  0  0  0  0  0  0  0  0  0
   -5.1695   -1.1063    0.3591 C   0  0  0  0  0  0  0  0  0  0  0  0
   -5.1924    0.3833    0.2138 C   0  0  0  0  0  0  0  0  0  0  0  0
   -6.2788    1.2178    0.4374 C   0  0  0  0  0  0  0  0  0  0  0  0
   -6.0958    2.5908    0.2973 C   0  0  0  0  0  0  0  0  0  0  0  0
   -4.8412    3.1017   -0.0570 C   0  0  0  0  0  0  0  0  0  0  0  0
   -3.7501    2.2484   -0.2714 C   0  0  0  0  0  0  0  0  0  0  0  0
   -3.9289    0.8829   -0.1249 C   0  0  0  0  0  0  0  0  0  0  0  0
   -3.0292   -0.1908   -0.2887 N   0  0  0  0  0  0  0  0  0  0  0  0
   -1.6561   -0.2295   -0.4451 C   0  0  0  0  0  0  0  0  0  0  0  0
   -1.0725   -1.2975   -0.6716 O   0  0  0  0  0  0  0  0  0  0  0  0
   -0.8500    1.0621   -0.3146 C   0  0  0  0  0  0  0  0  0  0  0  0
    0.5594    0.8204   -0.2280 O   0  0  0  0  0  0  0  0  0  0  0  0
    0.9715    0.3758    0.9853 C   0  0  0  0  0  0  0  0  0  0  0  0
    0.2793    0.2907    1.9875 O   0  0  0  0  0  0  0  0  0  0  0  0
    2.4181    0.0295    0.9533 C   0  0  0  0  0  0  0  0  0  0  0  0
    3.0559   -0.2605    2.1679 C   0  0  0  0  0  0  0  0  0  0  0  0
    4.4107   -0.6010    2.1921 C   0  0  0  0  0  0  0  0  0  0  0  0
    5.1327   -0.6413    1.0008 C   0  0  0  0  0  0  0  0  0  0  0  0
    6.4859   -0.9881    1.0236 N   0  0  0  0  0  0  0  0  0  0  0  0
    7.3187   -0.9078   -0.0608 C   0  0  0  0  0  0  0  0  0  0  0  0
    8.4870   -1.2823    0.0101 O   0  0  0  0  0  0  0  0  0  0  0  0
    6.7600   -0.2304   -1.2909 C   0  0  0  0  0  0  0  0  0  0  0  0
    5.2871   -0.5434   -1.4961 C   0  0  0  0  0  0  0  0  0  0  0  0
    4.5098   -0.3659   -0.2214 C   0  0  0  0  0  0  0  0  0  0  0  0
    3.1473   -0.0378   -0.2430 C   0  0  0  0  0  0  0  0  0  0  0  0
   -4.5742   -2.9452   -1.6496 H   0  0  0  0  0  0  0  0  0  0  0  0
   -3.0105   -2.2716   -2.1276 H   0  0  0  0  0  0  0  0  0  0  0  0
   -4.4773   -1.3146   -2.3422 H   0  0  0  0  0  0  0  0  0  0  0  0
   -3.2821   -2.1924    0.3514 H   0  0  0  0  0  0  0  0  0  0  0  0
   -6.0108   -1.5907   -0.1452 H   0  0  0  0  0  0  0  0  0  0  0  0
   -5.1819   -1.3650    1.4237 H   0  0  0  0  0  0  0  0  0  0  0  0
   -7.2467    0.8152    0.7191 H   0  0  0  0  0  0  0  0  0  0  0  0
   -6.9290    3.2695    0.4636 H   0  0  0  0  0  0  0  0  0  0  0  0
   -4.7143    4.1763   -0.1713 H   0  0  0  0  0  0  0  0  0  0  0  0
   -2.8156    2.6988   -0.5717 H   0  0  0  0  0  0  0  0  0  0  0  0
   -1.0024    1.6467   -1.2265 H   0  0  0  0  0  0  0  0  0  0  0  0
   -1.1766    1.6467    0.5509 H   0  0  0  0  0  0  0  0  0  0  0  0
    2.4960   -0.2273    3.1012 H   0  0  0  0  0  0  0  0  0  0  0  0
    4.8860   -0.8249    3.1431 H   0  0  0  0  0  0  0  0  0  0  0  0
    6.9110   -1.3243    1.8783 H   0  0  0  0  0  0  0  0  0  0  0  0
    7.3311   -0.5550   -2.1673 H   0  0  0  0  0  0  0  0  0  0  0  0
    6.9115    0.8488   -1.1675 H   0  0  0  0  0  0  0  0  0  0  0  0
    4.8882    0.1066   -2.2833 H   0  0  0  0  0  0  0  0  0  0  0  0
    5.1670   -1.5822   -1.8279 H   0  0  0  0  0  0  0  0  0  0  0  0
    2.6561    0.1439   -1.1965 H   0  0  0  0  0  0  0  0  0  0  0  0
  1  2  1  0
  2  3  1  0
  3  4  1  0
  4  5  2  0
  5  6  1  0
  6  7  2  0
  7  8  1  0
  8  9  2  0
  9 10  1  0
 10 11  1  0
 11 12  2  0
 11 13  1  0
 13 14  1  0
 14 15  1  0
 15 16  2  0
 15 17  1  0
 17 18  1  0
 18 19  2  0
 19 20  1  0
 20 21  1  0
 21 22  1  0
 22 23  2  0
 22 24  1  0
 24 25  1  0
 25 26  1  0
 26 27  1  0
 10  2  1  0
 27 17  2  0
  9  4  1  0
 26 20  2  0
  1 28  1  0
  1 29  1  0
  1 30  1  0
  2 31  1  0
  3 32  1  0
  3 33  1  0
  5 34  1  0
  6 35  1  0
  7 36  1  0
  8 37  1  0
 13 38  1  0
 13 39  1  0
 18 40  1  0
 19 41  1  0
 21 42  1  0
 24 43  1  0
 24 44  1  0
 25 45  1  0
 25 46  1  0
 27 47  1  0
M  END
$$$$
OCNT-2315806
     RDKit          3D

 37 40  0  0  0  0  0  0  0  0999 V2000
   -2.1443   -4.1657   -0.9151 C   0  0  0  0  0  0  0  0  0  0  0  0
   -1.0277   -3.3197   -0.6718 O   0  0  0  0  0  0  0  0  0  0  0  0
   -1.3266   -2.0160   -0.4671 C   0  0  0  0  0  0  0  0  0  0  0  0
   -2.5577   -1.4062   -0.4632 C   0  0  0  0  0  0  0  0  0  0  0  0
   -2.3371   -0.0674   -0.2085 N   0  0  0  0  0  0  0  0  0  0  0  0
   -3.3038    0.9742   -0.1062 C   0  0  0  0  0  0  0  0  0  0  0  0
   -4.6730    0.7181   -0.2666 C   0  0  0  0  0  0  0  0  0  0  0  0
   -5.5975    1.7621   -0.1602 C   0  0  0  0  0  0  0  0  0  0  0  0
   -5.1654    3.0604    0.1052 C   0  0  0  0  0  0  0  0  0  0  0  0
   -3.8069    3.3221    0.2657 C   0  0  0  0  0  0  0  0  0  0  0  0
   -2.8774    2.2851    0.1610 C   0  0  0  0  0  0  0  0  0  0  0  0
   -1.0154    0.1981   -0.0505 N   0  0  0  0  0  0  0  0  0  0  0  0
   -0.4028   -0.9834   -0.2073 C   0  0  0  0  0  0  0  0  0  0  0  0
    1.1568   -1.1595   -0.1072 C   0  0  0  0  0  0  0  0  0  0  0  0
    2.0031   -0.1787    0.1370 N   0  0  0  0  0  0  0  0  0  0  0  0
    3.2310   -0.8121    0.1286 C   0  0  0  0  0  0  0  0  0  0  0  0
    4.4836   -0.0856    0.3621 C   0  0  0  0  0  0  0  0  0  0  0  0
    4.4635    1.2877    0.6025 C   0  0  0  0  0  0  0  0  0  0  0  0
    5.6681    1.9528    0.8212 C   0  0  0  0  0  0  0  0  0  0  0  0
    6.8564    1.2337    0.7945 C   0  0  0  0  0  0  0  0  0  0  0  0
    6.7922   -0.1273    0.5491 C   0  0  0  0  0  0  0  0  0  0  0  0
    5.6409   -0.7992    0.3337 N   0  0  0  0  0  0  0  0  0  0  0  0
    3.1534   -2.1321   -0.1107 N   0  0  0  0  0  0  0  0  0  0  0  0
    1.7904   -2.3625   -0.2660 O   0  0  0  0  0  0  0  0  0  0  0  0
   -1.7685   -5.1828   -1.0627 H   0  0  0  0  0  0  0  0  0  0  0  0
   -2.8232   -4.1816   -0.0556 H   0  0  0  0  0  0  0  0  0  0  0  0
   -2.6740   -3.8693   -1.8269 H   0  0  0  0  0  0  0  0  0  0  0  0
   -3.5499   -1.7980   -0.6157 H   0  0  0  0  0  0  0  0  0  0  0  0
   -5.0585   -0.2746   -0.4741 H   0  0  0  0  0  0  0  0  0  0  0  0
   -6.6591    1.5619   -0.2849 H   0  0  0  0  0  0  0  0  0  0  0  0
   -5.8875    3.8689    0.1870 H   0  0  0  0  0  0  0  0  0  0  0  0
   -3.4672    4.3339    0.4727 H   0  0  0  0  0  0  0  0  0  0  0  0
   -1.8211    2.5162    0.2906 H   0  0  0  0  0  0  0  0  0  0  0  0
    3.5262    1.8364    0.6204 H   0  0  0  0  0  0  0  0  0  0  0  0
    5.6757    3.0226    1.0104 H   0  0  0  0  0  0  0  0  0  0  0  0
    7.8105    1.7214    0.9607 H   0  0  0  0  0  0  0  0  0  0  0  0
    7.6929   -0.7339    0.5180 H   0  0  0  0  0  0  0  0  0  0  0  0
  1  2  1  0
  2  3  1  0
  3  4  2  0
  4  5  1  0
  5  6  1  0
  6  7  2  0
  7  8  1  0
  8  9  2  0
  9 10  1  0
 10 11  2  0
  5 12  1  0
 12 13  2  0
 13 14  1  0
 14 15  2  0
 15 16  1  0
 16 17  1  0
 17 18  2  0
 18 19  1  0
 19 20  2  0
 20 21  1  0
 21 22  2  0
 16 23  2  0
 23 24  1  0
 13  3  1  0
 24 14  1  0
 11  6  1  0
 22 17  1  0
  1 25  1  0
  1 26  1  0
  1 27  1  0
  4 28  1  0
  7 29  1  0
  8 30  1  0
  9 31  1  0
 10 32  1  0
 11 33  1  0
 18 34  1  0
 19 35  1  0
 20 36  1  0
 21 37  1  0
M  END
$$$$
OCNT-2315815
     RDKit          3D

 35 37  0  0  0  0  0  0  0  0999 V2000
   -4.1620   -1.4396    1.4440 C   0  0  0  0  0  0  0  0  0  0  0  0
   -3.1281   -0.9198    0.4516 C   0  0  0  0  0  0  0  0  0  0  0  0
   -2.4432   -2.0783   -0.2664 C   0  0  0  0  0  0  0  0  0  0  0  0
   -2.1285   -0.2011    1.1948 O   0  0  0  0  0  0  0  0  0  0  0  0
   -1.8959    1.0642    0.7199 C   0  0  0  0  0  0  0  0  0  0  0  0
   -2.9250    2.0147    0.7857 C   0  0  0  0  0  0  0  0  0  0  0  0
   -2.7138    3.3153    0.3324 C   0  0  0  0  0  0  0  0  0  0  0  0
   -1.4699    3.6767   -0.1734 C   0  0  0  0  0  0  0  0  0  0  0  0
   -0.4344    2.7393   -0.2105 C   0  0  0  0  0  0  0  0  0  0  0  0
   -0.6208    1.4211    0.2495 C   0  0  0  0  0  0  0  0  0  0  0  0
    0.5204    0.5103    0.1947 C   0  0  0  0  0  0  0  0  0  0  0  0
    1.6901    0.6819   -0.3821 N   0  0  0  0  0  0  0  0  0  0  0  0
    2.3573   -0.4927   -0.0941 C   0  0  0  0  0  0  0  0  0  0  0  0
    3.7211   -0.7597   -0.5448 C   0  0  0  0  0  0  0  0  0  0  0  0
    4.3661   -1.9521   -0.2287 C   0  0  0  0  0  0  0  0  0  0  0  0
    5.6334   -2.2398   -0.6290 N   0  0  0  0  0  0  0  0  0  0  0  0
    6.2362   -1.2796   -1.3636 C   0  0  0  0  0  0  0  0  0  0  0  0
    5.6065   -0.0896   -1.6848 C   0  0  0  0  0  0  0  0  0  0  0  0
    4.3455    0.1970   -1.2876 N   0  0  0  0  0  0  0  0  0  0  0  0
    1.6309   -1.3578    0.6361 N   0  0  0  0  0  0  0  0  0  0  0  0
    0.4227   -0.6920    0.8330 O   0  0  0  0  0  0  0  0  0  0  0  0
   -3.6920   -2.0678    2.2089 H   0  0  0  0  0  0  0  0  0  0  0  0
   -4.9388   -2.0226    0.9398 H   0  0  0  0  0  0  0  0  0  0  0  0
   -4.6395   -0.6072    1.9715 H   0  0  0  0  0  0  0  0  0  0  0  0
   -3.6313   -0.2940   -0.2971 H   0  0  0  0  0  0  0  0  0  0  0  0
   -1.7039   -1.7013   -0.9810 H   0  0  0  0  0  0  0  0  0  0  0  0
   -3.1673   -2.6924   -0.8104 H   0  0  0  0  0  0  0  0  0  0  0  0
   -1.9017   -2.7159    0.4412 H   0  0  0  0  0  0  0  0  0  0  0  0
   -3.8931    1.7464    1.1999 H   0  0  0  0  0  0  0  0  0  0  0  0
   -3.5167    4.0465    0.3804 H   0  0  0  0  0  0  0  0  0  0  0  0
   -1.2974    4.6896   -0.5290 H   0  0  0  0  0  0  0  0  0  0  0  0
    0.5373    3.0468   -0.5979 H   0  0  0  0  0  0  0  0  0  0  0  0
    3.8860   -2.7261    0.3619 H   0  0  0  0  0  0  0  0  0  0  0  0
    7.2476   -1.4931   -1.6904 H   0  0  0  0  0  0  0  0  0  0  0  0
    6.1024    0.6726   -2.2753 H   0  0  0  0  0  0  0  0  0  0  0  0
  1  2  1  0
  2  3  1  0
  2  4  1  0
  4  5  1  0
  5  6  2  0
  6  7  1  0
  7  8  2  0
  8  9  1  0
  9 10  2  0
 10 11  1  0
 11 12  2  0
 12 13  1  0
 13 14  1  0
 14 15  2  0
 15 16  1  0
 16 17  2  0
 17 18  1  0
 18 19  2  0
 13 20  2  0
 20 21  1  0
 10  5  1  0
 21 11  1  0
 19 14  1  0
  1 22  1  0
  1 23  1  0
  1 24  1  0
  2 25  1  0
  3 26  1  0
  3 27  1  0
  3 28  1  0
  6 29  1  0
  7 30  1  0
  8 31  1  0
  9 32  1  0
 15 33  1  0
 17 34  1  0
 18 35  1  0
M  END
$$$$
OCNT-2315816
     RDKit          3D

 47 50  0  0  0  0  0  0  0  0999 V2000
    6.9187   -0.7876    0.7845 C   0  0  0  0  0  0  0  0  0  0  0  0
    5.5970   -1.4440    0.9053 C   0  0  0  0  0  0  0  0  0  0  0  0
    5.3767   -2.3457    1.8711 N   0  0  0  0  0  0  0  0  0  0  0  0
    4.0624   -2.7611    1.7048 O   0  0  0  0  0  0  0  0  0  0  0  0
    3.5022   -2.1074    0.6492 C   0  0  0  0  0  0  0  0  0  0  0  0
    2.2336   -2.2939    0.2304 N   0  0  0  0  0  0  0  0  0  0  0  0
    1.9098   -1.5281   -0.8399 C   0  0  0  0  0  0  0  0  0  0  0  0
    2.7610   -0.6207   -1.4551 C   0  0  0  0  0  0  0  0  0  0  0  0
    2.1860    0.2860   -2.8496 S   0  0  0  0  0  0  0  0  0  0  0  0
    0.9955   -0.3542   -3.3625 O   0  0  0  0  0  0  0  0  0  0  0  0
    3.3306    0.5204   -3.7049 O   0  0  0  0  0  0  0  0  0  0  0  0
    1.7877    1.7871   -2.1827 N   0  0  0  0  0  0  0  0  0  0  0  0
    0.5662    1.8895   -1.4624 C   0  0  0  0  0  0  0  0  0  0  0  0
    0.5784    1.7417   -0.0775 C   0  0  0  0  0  0  0  0  0  0  0  0
   -0.6191    1.7967    0.6381 C   0  0  0  0  0  0  0  0  0  0  0  0
   -1.8378    1.9986   -0.0264 C   0  0  0  0  0  0  0  0  0  0  0  0
   -3.1421    2.0210    0.7462 C   0  0  0  0  0  0  0  0  0  0  0  0
   -3.7017    0.6826    0.9004 N   0  0  0  0  0  0  0  0  0  0  0  0
   -3.3418   -0.0314    2.0425 C   0  0  0  0  0  0  0  0  0  0  0  0
   -2.6059    0.4189    2.9217 O   0  0  0  0  0  0  0  0  0  0  0  0
   -3.8625   -1.4453    2.1509 C   0  0  0  0  0  0  0  0  0  0  0  0
   -5.2150   -1.5832    1.4888 C   0  0  0  0  0  0  0  0  0  0  0  0
   -5.0854   -1.1769    0.0380 C   0  0  0  0  0  0  0  0  0  0  0  0
   -4.5767    0.2397   -0.0906 C   0  0  0  0  0  0  0  0  0  0  0  0
   -4.9112    0.9243   -1.0584 O   0  0  0  0  0  0  0  0  0  0  0  0
   -1.8336    2.1378   -1.4224 C   0  0  0  0  0  0  0  0  0  0  0  0
   -0.6357    2.0856   -2.1383 C   0  0  0  0  0  0  0  0  0  0  0  0
    4.0737   -0.4648   -1.0000 C   0  0  0  0  0  0  0  0  0  0  0  0
    4.4456   -1.2459    0.1043 C   0  0  0  0  0  0  0  0  0  0  0  0
    7.2787   -0.8355   -0.2486 H   0  0  0  0  0  0  0  0  0  0  0  0
    7.6681   -1.2674    1.4231 H   0  0  0  0  0  0  0  0  0  0  0  0
    6.8471    0.2653    1.0759 H   0  0  0  0  0  0  0  0  0  0  0  0
    0.8899   -1.6729   -1.1944 H   0  0  0  0  0  0  0  0  0  0  0  0
    2.0002    2.5403   -2.8374 H   0  0  0  0  0  0  0  0  0  0  0  0
    1.5114    1.5893    0.4582 H   0  0  0  0  0  0  0  0  0  0  0  0
   -0.5965    1.6743    1.7205 H   0  0  0  0  0  0  0  0  0  0  0  0
   -2.9748    2.4793    1.7288 H   0  0  0  0  0  0  0  0  0  0  0  0
   -3.8595    2.6743    0.2341 H   0  0  0  0  0  0  0  0  0  0  0  0
   -3.1257   -2.1176    1.6976 H   0  0  0  0  0  0  0  0  0  0  0  0
   -3.9511   -1.7018    3.2123 H   0  0  0  0  0  0  0  0  0  0  0  0
   -5.9488   -0.9436    1.9948 H   0  0  0  0  0  0  0  0  0  0  0  0
   -5.5689   -2.6171    1.5621 H   0  0  0  0  0  0  0  0  0  0  0  0
   -6.0673   -1.2380   -0.4443 H   0  0  0  0  0  0  0  0  0  0  0  0
   -4.3984   -1.8382   -0.5017 H   0  0  0  0  0  0  0  0  0  0  0  0
   -2.7692    2.2736   -1.9640 H   0  0  0  0  0  0  0  0  0  0  0  0
   -0.6583    2.1743   -3.2212 H   0  0  0  0  0  0  0  0  0  0  0  0
    4.7666    0.2219   -1.4759 H   0  0  0  0  0  0  0  0  0  0  0  0
  1  2  1  0
  2  3  2  0
  3  4  1  0
  4  5  1  0
  5  6  2  0
  6  7  1  0
  7  8  2  0
  8  9  1  0
  9 10  2  0
  9 11  2  0
  9 12  1  0
 12 13  1  0
 13 14  1  0
 14 15  2  0
 15 16  1  0
 16 17  1  0
 17 18  1  0
 18 19  1  0
 19 20  2  0
 19 21  1  0
 21 22  1  0
 22 23  1  0
 23 24  1  0
 24 25  2  0
 16 26  2  0
 26 27  1  0
  8 28  1  0
 28 29  2  0
 29  2  1  0
 29  5  1  0
 27 13  2  0
 24 18  1  0
  1 30  1  0
  1 31  1  0
  1 32  1  0
  7 33  1  0
 12 34  1  0
 14 35  1  0
 15 36  1  0
 17 37  1  0
 17 38  1  0
 21 39  1  0
 21 40  1  0
 22 41  1  0
 22 42  1  0
 23 43  1  0
 23 44  1  0
 26 45  1  0
 27 46  1  0
 28 47  1  0
M  END
$$$$
OCNT-2315819
     RDKit          3D

  0  0  0  0  0  0  0  0  0  0999 V3000
M  V30 BEGIN CTAB
M  V30 COUNTS 54 57 0 0 0
M  V30 BEGIN ATOM
M  V30 1 C -5.393624 -1.681465 1.444554 0
M  V30 2 C -4.425949 -1.198227 0.353038 0
M  V30 3 C -4.525699 -2.160815 -0.840331 0
M  V30 4 C -3.015365 -1.116227 0.946354 0
M  V30 5 C -2.024786 -0.513009 -0.053747 0
M  V30 6 C -0.722469 -0.235564 0.627140 0
M  V30 7 N 0.461429 -0.763414 0.402804 0
M  V30 8 C 1.248818 -0.107615 1.314792 0
M  V30 9 C 2.705558 -0.349356 1.452330 0 CFG=1
M  V30 10 C 3.009332 -1.660844 2.154105 0
M  V30 11 C 4.443417 -1.907527 1.754475 0
M  V30 12 O 4.603052 -1.373934 0.436056 0
M  V30 13 C 3.462671 -0.531250 0.129034 0 CFG=2
M  V30 14 C 3.948513 0.752390 -0.609637 0
M  V30 15 C 2.770279 1.675341 -0.963497 0
M  V30 16 C 4.642881 0.335841 -1.925623 0
M  V30 17 C 4.969990 1.546565 0.227268 0
M  V30 18 N 0.598908 0.772110 2.087592 0
M  V30 19 O -0.715841 0.695734 1.627159 0
M  V30 20 C -2.630699 0.689673 -0.744963 0
M  V30 21 C -1.837007 1.573019 -1.499712 0
M  V30 22 C -2.404825 2.678496 -2.135517 0
M  V30 23 C -3.773407 2.909992 -2.037910 0
M  V30 24 C -4.574588 2.026491 -1.317595 0
M  V30 25 C -4.011107 0.913087 -0.690761 0
M  V30 26 O -4.897711 0.100223 -0.039763 0
M  V30 27 H -5.399984 -0.989799 2.295061 0
M  V30 28 H -5.126242 -2.678466 1.810016 0
M  V30 29 H -6.423024 -1.713687 1.068849 0
M  V30 30 H -3.934180 -1.821429 -1.696462 0
M  V30 31 H -5.559803 -2.223966 -1.199110 0
M  V30 32 H -4.192385 -3.168040 -0.569549 0
M  V30 33 H -2.667961 -2.105142 1.273113 0
M  V30 34 H -3.052042 -0.484830 1.846384 0
M  V30 35 H -1.827949 -1.257675 -0.837115 0
M  V30 36 H 3.159337 0.458021 2.039432 0
M  V30 37 H 2.373026 -2.468741 1.770364 0
M  V30 38 H 2.874394 -1.618219 3.239211 0
M  V30 39 H 4.704819 -2.969312 1.757203 0
M  V30 40 H 5.136241 -1.376636 2.416108 0
M  V30 41 H 2.851159 -1.118387 -0.570176 0
M  V30 42 H 2.309885 2.106163 -0.069061 0
M  V30 43 H 3.100310 2.514700 -1.586737 0
M  V30 44 H 1.997877 1.135054 -1.521695 0
M  V30 45 H 3.961846 -0.235556 -2.566422 0
M  V30 46 H 5.526364 -0.284078 -1.737826 0
M  V30 47 H 4.973780 1.212517 -2.494409 0
M  V30 48 H 4.525259 1.939448 1.146727 0
M  V30 49 H 5.830864 0.929555 0.506029 0
M  V30 50 H 5.352919 2.406080 -0.335544 0
M  V30 51 H -0.764424 1.413323 -1.596718 0
M  V30 52 H -1.777399 3.359384 -2.705389 0
M  V30 53 H -4.218516 3.771772 -2.527817 0
M  V30 54 H -5.645942 2.198232 -1.252111 0
M  V30 END ATOM
M  V30 BEGIN BOND
M  V30 1 1 1 2
M  V30 2 1 2 3
M  V30 3 1 2 4
M  V30 4 1 4 5
M  V30 5 1 5 6
M  V30 6 2 6 7
M  V30 7 1 7 8
M  V30 8 1 8 9
M  V30 9 1 9 10
M  V30 10 1 10 11
M  V30 11 1 11 12
M  V30 12 1 12 13
M  V30 13 1 13 14
M  V30 14 1 14 15
M  V30 15 1 14 16
M  V30 16 1 14 17
M  V30 17 2 8 18
M  V30 18 1 18 19
M  V30 19 1 5 20
M  V30 20 2 20 21
M  V30 21 1 21 22
M  V30 22 2 22 23
M  V30 23 1 23 24
M  V30 24 2 24 25
M  V30 25 1 25 26
M  V30 26 1 26 2
M  V30 27 1 19 6
M  V30 28 1 25 20
M  V30 29 1 13 9
M  V30 30 1 1 27
M  V30 31 1 1 28
M  V30 32 1 1 29
M  V30 33 1 3 30
M  V30 34 1 3 31
M  V30 35 1 3 32
M  V30 36 1 4 33
M  V30 37 1 4 34
M  V30 38 1 5 35
M  V30 39 1 9 36 CFG=1
M  V30 40 1 10 37
M  V30 41 1 10 38
M  V30 42 1 11 39
M  V30 43 1 11 40
M  V30 44 1 13 41 CFG=3
M  V30 45 1 15 42
M  V30 46 1 15 43
M  V30 47 1 15 44
M  V30 48 1 16 45
M  V30 49 1 16 46
M  V30 50 1 16 47
M  V30 51 1 17 48
M  V30 52 1 17 49
M  V30 53 1 17 50
M  V30 54 1 21 51
M  V30 55 1 22 52
M  V30 56 1 23 53
M  V30 57 1 24 54
M  V30 END BOND
M  V30 BEGIN COLLECTION
M  V30 MDLV30/STERAC1 ATOMS=(2 9 13)
M  V30 END COLLECTION
M  V30 END CTAB
M  END
>  <_CXSMILES_Data>  (1036) 
|&1:8,12|

$$$$
OCNT-2315820
     RDKit          3D

 48 51  0  0  0  0  0  0  0  0999 V2000
   -0.9205    4.5743    0.6145 N   0  0  0  0  0  0  0  0  0  0  0  0
   -1.3817    3.6026    0.1766 C   0  0  0  0  0  0  0  0  0  0  0  0
   -1.9390    2.3957   -0.3587 C   0  0  0  0  0  0  0  0  0  0  0  0
   -2.3642    1.3791    0.5010 C   0  0  0  0  0  0  0  0  0  0  0  0
   -2.8753    0.1879   -0.0210 C   0  0  0  0  0  0  0  0  0  0  0  0
   -2.9639   -0.0063   -1.4086 C   0  0  0  0  0  0  0  0  0  0  0  0
   -3.4165   -1.3457   -1.9628 C   0  0  0  0  0  0  0  0  0  0  0  0
   -4.3368   -1.1050   -3.0347 O   0  0  0  0  0  0  0  0  0  0  0  0
   -2.2361   -2.2030   -2.4663 C   0  0  0  0  0  0  0  0  0  0  0  0
   -1.4317   -2.7629   -1.3831 N   0  0  0  0  0  0  0  0  0  0  0  0
   -0.4735   -1.9301   -0.8624 N   0  0  0  0  0  0  0  0  0  0  0  0
    0.1941   -2.3127    0.1834 C   0  0  0  0  0  0  0  0  0  0  0  0
    1.1554   -1.3425    0.8062 C   0  0  0  0  0  0  0  0  0  0  0  0
    1.7131   -1.5223    2.0776 C   0  0  0  0  0  0  0  0  0  0  0  0
    2.5708   -0.5557    2.6157 C   0  0  0  0  0  0  0  0  0  0  0  0
    2.8756    0.6049    1.9023 C   0  0  0  0  0  0  0  0  0  0  0  0
    3.7528    1.4529    2.5280 O   0  0  0  0  0  0  0  0  0  0  0  0
    4.5937    2.1790    1.6300 C   0  0  0  0  0  0  0  0  0  0  0  0
    3.9054    3.4335    1.1200 C   0  0  0  0  0  0  0  0  0  0  0  0
    2.4815    3.1549    0.6706 C   0  0  0  0  0  0  0  0  0  0  0  0
    2.4156    1.9555   -0.1046 O   0  0  0  0  0  0  0  0  0  0  0  0
    2.2724    0.8243    0.6593 C   0  0  0  0  0  0  0  0  0  0  0  0
    1.4463   -0.1590    0.1065 C   0  0  0  0  0  0  0  0  0  0  0  0
    0.0345   -3.6546    0.7891 C   0  0  0  0  0  0  0  0  0  0  0  0
   -0.9384   -4.4288    0.3029 C   0  0  0  0  0  0  0  0  0  0  0  0
   -1.8001   -3.9643   -0.8020 C   0  0  0  0  0  0  0  0  0  0  0  0
   -2.7613   -4.6458   -1.1479 O   0  0  0  0  0  0  0  0  0  0  0  0
   -2.5541    1.0307   -2.2614 C   0  0  0  0  0  0  0  0  0  0  0  0
   -2.0446    2.2234   -1.7413 C   0  0  0  0  0  0  0  0  0  0  0  0
   -2.2852    1.4984    1.5795 H   0  0  0  0  0  0  0  0  0  0  0  0
   -3.1738   -0.6043    0.6623 H   0  0  0  0  0  0  0  0  0  0  0  0
   -3.9759   -1.8857   -1.1889 H   0  0  0  0  0  0  0  0  0  0  0  0
   -4.7775   -1.9530   -3.2171 H   0  0  0  0  0  0  0  0  0  0  0  0
   -2.6273   -3.0307   -3.0711 H   0  0  0  0  0  0  0  0  0  0  0  0
   -1.5782   -1.6297   -3.1315 H   0  0  0  0  0  0  0  0  0  0  0  0
    1.4934   -2.3898    2.6899 H   0  0  0  0  0  0  0  0  0  0  0  0
    3.0107   -0.7107    3.5985 H   0  0  0  0  0  0  0  0  0  0  0  0
    4.9414    1.5386    0.8079 H   0  0  0  0  0  0  0  0  0  0  0  0
    5.4925    2.4663    2.1873 H   0  0  0  0  0  0  0  0  0  0  0  0
    4.4932    3.8384    0.2882 H   0  0  0  0  0  0  0  0  0  0  0  0
    3.8804    4.2006    1.9025 H   0  0  0  0  0  0  0  0  0  0  0  0
    1.7852    3.1189    1.5196 H   0  0  0  0  0  0  0  0  0  0  0  0
    2.1394    3.9767    0.0317 H   0  0  0  0  0  0  0  0  0  0  0  0
    1.0016    0.0279   -0.8696 H   0  0  0  0  0  0  0  0  0  0  0  0
    0.6830   -4.0083    1.5752 H   0  0  0  0  0  0  0  0  0  0  0  0
   -1.1373   -5.4220    0.6837 H   0  0  0  0  0  0  0  0  0  0  0  0
   -2.6186    0.9026   -3.3406 H   0  0  0  0  0  0  0  0  0  0  0  0
   -1.7205    3.0060   -2.4240 H   0  0  0  0  0  0  0  0  0  0  0  0
  1  2  3  0
  2  3  1  0
  3  4  1  0
  4  5  2  0
  5  6  1  0
  6  7  1  0
  7  8  1  0
  7  9  1  0
  9 10  1  0
 10 11  1  0
 11 12  2  0
 12 13  1  0
 13 14  1  0
 14 15  2  0
 15 16  1  0
 16 17  1  0
 17 18  1  0
 18 19  1  0
 19 20  1  0
 20 21  1  0
 21 22  1  0
 22 23  1  0
 12 24  1  0
 24 25  2  0
 25 26  1  0
 26 27  2  0
  6 28  2  0
 28 29  1  0
 29  3  2  0
 26 10  1  0
 23 13  2  0
 22 16  2  0
  4 30  1  0
  5 31  1  0
  7 32  1  0
  8 33  1  0
  9 34  1  0
  9 35  1  0
 14 36  1  0
 15 37  1  0
 18 38  1  0
 18 39  1  0
 19 40  1  0
 19 41  1  0
 20 42  1  0
 20 43  1  0
 23 44  1  0
 24 45  1  0
 25 46  1  0
 28 47  1  0
 29 48  1  0
M  END
$$$$
OCNT-2315821
     RDKit          3D

 43 45  0  0  0  0  0  0  0  0999 V2000
    6.3959   -3.1573   -0.4286 C   0  0  0  0  0  0  0  0  0  0  0  0
    6.6619   -1.9637    0.2973 O   0  0  0  0  0  0  0  0  0  0  0  0
    5.6635   -1.0311    0.3350 C   0  0  0  0  0  0  0  0  0  0  0  0
    4.4114   -1.1409   -0.2625 C   0  0  0  0  0  0  0  0  0  0  0  0
    3.4753   -0.1017   -0.1445 C   0  0  0  0  0  0  0  0  0  0  0  0
    3.7644    1.0666    0.5676 C   0  0  0  0  0  0  0  0  0  0  0  0
    2.8714    2.1414    0.7257 N   0  0  0  0  0  0  0  0  0  0  0  0
    1.6056    2.2894    0.2700 C   0  0  0  0  0  0  0  0  0  0  0  0
    0.8922    1.4353   -0.4303 N   0  0  0  0  0  0  0  0  0  0  0  0
   -0.3696    1.9383   -0.7122 C   0  0  0  0  0  0  0  0  0  0  0  0
   -1.3290    1.1029   -1.4993 C   0  0  0  0  0  0  0  0  0  0  0  0
   -2.4983    0.8125   -0.7203 O   0  0  0  0  0  0  0  0  0  0  0  0
   -3.4139    0.0308   -1.3620 C   0  0  0  0  0  0  0  0  0  0  0  0
   -3.2673   -0.3590   -2.5184 O   0  0  0  0  0  0  0  0  0  0  0  0
   -4.6531   -0.2808   -0.4462 C   0  0  0  0  0  0  0  0  0  0  0  0
   -5.8206    0.6527   -0.7830 C   0  0  0  0  0  0  0  0  0  0  0  0
   -5.0671   -1.7852   -0.4000 C   0  0  0  0  0  0  0  0  0  0  0  0
   -5.2901   -1.6492    1.1185 C   0  0  0  0  0  0  0  0  0  0  0  0
   -6.5686   -1.4172    1.4973 F   0  0  0  0  0  0  0  0  0  0  0  0
   -4.3783   -0.4072    1.0859 C   0  0  0  0  0  0  0  0  0  0  0  0
   -0.6040    3.2033   -0.2124 C   0  0  0  0  0  0  0  0  0  0  0  0
    0.7741    3.7672    0.6260 S   0  0  0  0  0  0  0  0  0  0  0  0
    5.0314    1.1590    1.1650 C   0  0  0  0  0  0  0  0  0  0  0  0
    5.9675    0.1252    1.0501 C   0  0  0  0  0  0  0  0  0  0  0  0
    5.5606   -3.7105    0.0133 H   0  0  0  0  0  0  0  0  0  0  0  0
    6.2138   -2.9435   -1.4871 H   0  0  0  0  0  0  0  0  0  0  0  0
    7.2853   -3.7918   -0.3658 H   0  0  0  0  0  0  0  0  0  0  0  0
    4.1210   -2.0184   -0.8301 H   0  0  0  0  0  0  0  0  0  0  0  0
    2.5130   -0.2358   -0.6293 H   0  0  0  0  0  0  0  0  0  0  0  0
    3.2474    2.9180    1.2535 H   0  0  0  0  0  0  0  0  0  0  0  0
   -1.6181    1.6506   -2.4045 H   0  0  0  0  0  0  0  0  0  0  0  0
   -0.8421    0.1636   -1.7887 H   0  0  0  0  0  0  0  0  0  0  0  0
   -6.7036    0.4500   -0.1683 H   0  0  0  0  0  0  0  0  0  0  0  0
   -5.5364    1.6981   -0.6205 H   0  0  0  0  0  0  0  0  0  0  0  0
   -6.1142    0.5418   -1.8324 H   0  0  0  0  0  0  0  0  0  0  0  0
   -4.2613   -2.4827   -0.6592 H   0  0  0  0  0  0  0  0  0  0  0  0
   -5.9564   -2.0567   -0.9767 H   0  0  0  0  0  0  0  0  0  0  0  0
   -4.8637   -2.4805    1.6912 H   0  0  0  0  0  0  0  0  0  0  0  0
   -4.7141    0.4311    1.7036 H   0  0  0  0  0  0  0  0  0  0  0  0
   -3.3379   -0.6346    1.3478 H   0  0  0  0  0  0  0  0  0  0  0  0
   -1.4998    3.8019   -0.2947 H   0  0  0  0  0  0  0  0  0  0  0  0
    5.3104    2.0429    1.7329 H   0  0  0  0  0  0  0  0  0  0  0  0
    6.9411    0.2252    1.5234 H   0  0  0  0  0  0  0  0  0  0  0  0
  1  2  1  0
  2  3  1  0
  3  4  1  0
  4  5  2  0
  5  6  1  0
  6  7  1  0
  7  8  1  0
  8  9  2  0
  9 10  1  0
 10 11  1  0
 11 12  1  0
 12 13  1  0
 13 14  2  0
 13 15  1  0
 15 16  1  0
 15 17  1  0
 17 18  1  0
 18 19  1  0
 18 20  1  0
 10 21  2  0
 21 22  1  0
  6 23  2  0
 23 24  1  0
 24  3  2  0
 22  8  1  0
 20 15  1  0
  1 25  1  0
  1 26  1  0
  1 27  1  0
  4 28  1  0
  5 29  1  0
  7 30  1  0
 11 31  1  0
 11 32  1  0
 16 33  1  0
 16 34  1  0
 16 35  1  0
 17 36  1  0
 17 37  1  0
 18 38  1  0
 20 39  1  0
 20 40  1  0
 21 41  1  0
 23 42  1  0
 24 43  1  0
M  END
$$$$
OCNT-2315826
     RDKit          3D

 41 43  0  0  0  0  0  0  0  0999 V2000
    6.8231    0.1152    1.4584 C   0  0  0  0  0  0  0  0  0  0  0  0
    6.2714    1.4001    1.1915 O   0  0  0  0  0  0  0  0  0  0  0  0
    5.0792    1.4363    0.5231 C   0  0  0  0  0  0  0  0  0  0  0  0
    4.5865    2.7169    0.2779 C   0  0  0  0  0  0  0  0  0  0  0  0
    3.3839    2.8549   -0.3946 C   0  0  0  0  0  0  0  0  0  0  0  0
    2.6498    1.8123   -0.8326 N   0  0  0  0  0  0  0  0  0  0  0  0
    3.1562    0.5737   -0.5767 C   0  0  0  0  0  0  0  0  0  0  0  0
    2.3308   -0.5806   -1.0603 C   0  0  0  0  0  0  0  0  0  0  0  0
    2.6661   -1.7425   -0.8657 O   0  0  0  0  0  0  0  0  0  0  0  0
    1.1738   -0.2175   -1.7169 N   0  0  0  0  0  0  0  0  0  0  0  0
    0.3539   -1.1584   -2.4595 C   0  0  0  0  0  0  0  0  0  0  0  0
   -0.3921   -2.1704   -1.5877 C   0  0  0  0  0  0  0  0  0  0  0  0
   -1.3722   -1.5115   -0.6871 C   0  0  0  0  0  0  0  0  0  0  0  0
   -2.6664   -1.3600   -0.8609 N   0  0  0  0  0  0  0  0  0  0  0  0
   -3.0756   -0.6838    0.2706 C   0  0  0  0  0  0  0  0  0  0  0  0
   -4.4689   -0.3059    0.4907 C   0  0  0  0  0  0  0  0  0  0  0  0
   -4.8549    0.3891    1.6476 C   0  0  0  0  0  0  0  0  0  0  0  0
   -6.1911    0.7484    1.8516 C   0  0  0  0  0  0  0  0  0  0  0  0
   -7.1504    0.4141    0.8984 C   0  0  0  0  0  0  0  0  0  0  0  0
   -8.7943    0.8560    1.1481 Cl  0  0  0  0  0  0  0  0  0  0  0  0
   -6.7865   -0.2757   -0.2558 C   0  0  0  0  0  0  0  0  0  0  0  0
   -5.4497   -0.6341   -0.4580 C   0  0  0  0  0  0  0  0  0  0  0  0
   -2.0770   -0.4131    1.1273 N   0  0  0  0  0  0  0  0  0  0  0  0
   -1.0176   -0.9459    0.5016 N   0  0  0  0  0  0  0  0  0  0  0  0
    4.3517    0.3357    0.0889 C   0  0  0  0  0  0  0  0  0  0  0  0
    7.7687    0.2613    1.9892 H   0  0  0  0  0  0  0  0  0  0  0  0
    6.1628   -0.4697    2.1072 H   0  0  0  0  0  0  0  0  0  0  0  0
    7.0410   -0.4209    0.5288 H   0  0  0  0  0  0  0  0  0  0  0  0
    5.1356    3.5930    0.6077 H   0  0  0  0  0  0  0  0  0  0  0  0
    2.9715    3.8388   -0.6019 H   0  0  0  0  0  0  0  0  0  0  0  0
    1.0639    0.7819   -1.8865 H   0  0  0  0  0  0  0  0  0  0  0  0
   -0.3529   -0.5656   -3.0510 H   0  0  0  0  0  0  0  0  0  0  0  0
    1.0119   -1.6924   -3.1544 H   0  0  0  0  0  0  0  0  0  0  0  0
   -0.9287   -2.8694   -2.2404 H   0  0  0  0  0  0  0  0  0  0  0  0
    0.3073   -2.7710   -0.9957 H   0  0  0  0  0  0  0  0  0  0  0  0
   -4.1130    0.6547    2.3987 H   0  0  0  0  0  0  0  0  0  0  0  0
   -6.4717    1.2860    2.7532 H   0  0  0  0  0  0  0  0  0  0  0  0
   -7.5323   -0.5386   -1.0009 H   0  0  0  0  0  0  0  0  0  0  0  0
   -5.1749   -1.1738   -1.3627 H   0  0  0  0  0  0  0  0  0  0  0  0
   -0.0976   -0.8832    0.9234 H   0  0  0  0  0  0  0  0  0  0  0  0
    4.6785   -0.6845    0.2474 H   0  0  0  0  0  0  0  0  0  0  0  0
  1  2  1  0
  2  3  1  0
  3  4  2  0
  4  5  1  0
  5  6  2  0
  6  7  1  0
  7  8  1  0
  8  9  2  0
  8 10  1  0
 10 11  1  0
 11 12  1  0
 12 13  1  0
 13 14  2  0
 14 15  1  0
 15 16  1  0
 16 17  1  0
 17 18  2  0
 18 19  1  0
 19 20  1  0
 19 21  2  0
 21 22  1  0
 15 23  2  0
 23 24  1  0
  7 25  2  0
 25  3  1  0
 24 13  1  0
 22 16  2  0
  1 26  1  0
  1 27  1  0
  1 28  1  0
  4 29  1  0
  5 30  1  0
 10 31  1  0
 11 32  1  0
 11 33  1  0
 12 34  1  0
 12 35  1  0
 17 36  1  0
 18 37  1  0
 21 38  1  0
 22 39  1  0
 24 40  1  0
 25 41  1  0
M  END
$$$$
OCNT-2315838
     RDKit          3D

 49 53  0  0  0  0  0  0  0  0999 V2000
    8.5584    1.2248   -1.8245 O   0  0  0  0  0  0  0  0  0  0  0  0
    7.4108    1.2006   -1.3901 C   0  0  0  0  0  0  0  0  0  0  0  0
    7.0986    1.3530    0.0806 C   0  0  0  0  0  0  0  0  0  0  0  0
    5.9088    0.4942    0.4812 C   0  0  0  0  0  0  0  0  0  0  0  0
    4.7107    0.8492   -0.3942 C   0  0  0  0  0  0  0  0  0  0  0  0
    3.5052    0.1236   -0.0123 N   0  0  0  0  0  0  0  0  0  0  0  0
    3.4330   -1.3312    0.0574 C   0  0  0  0  0  0  0  0  0  0  0  0
    1.9657   -1.5784    0.1754 C   0  0  0  0  0  0  0  0  0  0  0  0
    1.2791   -2.7663    0.3374 C   0  0  0  0  0  0  0  0  0  0  0  0
   -0.1205   -2.7174    0.3982 C   0  0  0  0  0  0  0  0  0  0  0  0
   -0.8193   -1.4885    0.2910 C   0  0  0  0  0  0  0  0  0  0  0  0
   -2.2373   -1.4890    0.3497 N   0  0  0  0  0  0  0  0  0  0  0  0
   -3.1078   -0.4283    0.2544 C   0  0  0  0  0  0  0  0  0  0  0  0
   -4.3640   -0.9837    0.3703 C   0  0  0  0  0  0  0  0  0  0  0  0
   -5.7081   -0.3518    0.3356 C   0  0  0  0  0  0  0  0  0  0  0  0
   -5.8989    0.7734    1.3524 C   0  0  0  0  0  0  0  0  0  0  0  0
   -7.1267    1.4981    0.8262 C   0  0  0  0  0  0  0  0  0  0  0  0
   -6.9218    1.5189   -0.6823 C   0  0  0  0  0  0  0  0  0  0  0  0
   -6.0596    0.2961   -1.0110 C   0  0  0  0  0  0  0  0  0  0  0  0
   -4.2352   -2.3342    0.5337 N   0  0  0  0  0  0  0  0  0  0  0  0
   -2.9442   -2.6324    0.5205 N   0  0  0  0  0  0  0  0  0  0  0  0
   -0.1110   -0.2913    0.1266 C   0  0  0  0  0  0  0  0  0  0  0  0
    1.2695   -0.3756    0.0768 C   0  0  0  0  0  0  0  0  0  0  0  0
    2.2479    0.7042   -0.0880 C   0  0  0  0  0  0  0  0  0  0  0  0
    1.9685    1.8754   -0.2566 O   0  0  0  0  0  0  0  0  0  0  0  0
    5.0833    0.6187   -1.8691 C   0  0  0  0  0  0  0  0  0  0  0  0
    4.3481    0.0854   -2.6970 O   0  0  0  0  0  0  0  0  0  0  0  0
    6.3386    1.0512   -2.2322 N   0  0  0  0  0  0  0  0  0  0  0  0
    6.9070    2.4128    0.2817 H   0  0  0  0  0  0  0  0  0  0  0  0
    7.9785    1.0489    0.6581 H   0  0  0  0  0  0  0  0  0  0  0  0
    6.1692   -0.5655    0.3644 H   0  0  0  0  0  0  0  0  0  0  0  0
    5.6721    0.6554    1.5391 H   0  0  0  0  0  0  0  0  0  0  0  0
    4.4952    1.9216   -0.2992 H   0  0  0  0  0  0  0  0  0  0  0  0
    3.9789   -1.6769    0.9391 H   0  0  0  0  0  0  0  0  0  0  0  0
    3.8333   -1.7731   -0.8588 H   0  0  0  0  0  0  0  0  0  0  0  0
    1.7989   -3.7164    0.4121 H   0  0  0  0  0  0  0  0  0  0  0  0
   -0.6632   -3.6546    0.5243 H   0  0  0  0  0  0  0  0  0  0  0  0
   -2.7866    0.5908    0.1123 H   0  0  0  0  0  0  0  0  0  0  0  0
   -6.4609   -1.1263    0.5437 H   0  0  0  0  0  0  0  0  0  0  0  0
   -6.0492    0.3928    2.3675 H   0  0  0  0  0  0  0  0  0  0  0  0
   -5.0409    1.4554    1.3725 H   0  0  0  0  0  0  0  0  0  0  0  0
   -8.0326    0.9322    1.0742 H   0  0  0  0  0  0  0  0  0  0  0  0
   -7.2306    2.5033    1.2447 H   0  0  0  0  0  0  0  0  0  0  0  0
   -7.8752    1.5041   -1.2189 H   0  0  0  0  0  0  0  0  0  0  0  0
   -6.3930    2.4329   -0.9785 H   0  0  0  0  0  0  0  0  0  0  0  0
   -5.1710    0.6120   -1.5741 H   0  0  0  0  0  0  0  0  0  0  0  0
   -6.6036   -0.4126   -1.6491 H   0  0  0  0  0  0  0  0  0  0  0  0
   -0.5803    0.6816    0.0370 H   0  0  0  0  0  0  0  0  0  0  0  0
    6.5821    0.8826   -3.2001 H   0  0  0  0  0  0  0  0  0  0  0  0
  1  2  2  0
  2  3  1  0
  3  4  1  0
  4  5  1  0
  5  6  1  0
  6  7  1  0
  7  8  1  0
  8  9  1  0
  9 10  2  0
 10 11  1  0
 11 12  1  0
 12 13  1  0
 13 14  2  0
 14 15  1  0
 15 16  1  0
 16 17  1  0
 17 18  1  0
 18 19  1  0
 14 20  1  0
 20 21  2  0
 11 22  2  0
 22 23  1  0
 23 24  1  0
 24 25  2  0
  5 26  1  0
 26 27  2  0
 26 28  1  0
 28  2  1  0
 24  6  1  0
 23  8  2  0
 21 12  1  0
 19 15  1  0
  3 29  1  0
  3 30  1  0
  4 31  1  0
  4 32  1  0
  5 33  1  0
  7 34  1  0
  7 35  1  0
  9 36  1  0
 10 37  1  0
 13 38  1  0
 15 39  1  0
 16 40  1  0
 16 41  1  0
 17 42  1  0
 17 43  1  0
 18 44  1  0
 18 45  1  0
 19 46  1  0
 19 47  1  0
 22 48  1  0
 28 49  1  0
M  END
$$$$
OCNT-2315844
     RDKit          3D

 45 48  0  0  0  0  0  0  0  0999 V2000
    0.2289   -0.5968    3.5691 O   0  0  0  0  0  0  0  0  0  0  0  0
    0.5242    0.0519    2.5670 C   0  0  0  0  0  0  0  0  0  0  0  0
   -0.4319    0.7695    1.8663 N   0  0  0  0  0  0  0  0  0  0  0  0
   -1.8578    0.6414    2.1257 C   0  0  0  0  0  0  0  0  0  0  0  0
   -2.5538   -0.5080    1.3438 C   0  0  0  0  0  0  0  0  0  0  0  0
   -2.2771   -0.3396   -0.1606 C   0  0  0  0  0  0  0  0  0  0  0  0
   -1.2003   -0.9761   -0.8032 C   0  0  0  0  0  0  0  0  0  0  0  0
   -0.9353   -0.7524   -2.1578 C   0  0  0  0  0  0  0  0  0  0  0  0
   -1.7363    0.1140   -2.8947 C   0  0  0  0  0  0  0  0  0  0  0  0
   -2.8021    0.7626   -2.2771 C   0  0  0  0  0  0  0  0  0  0  0  0
   -3.0676    0.5399   -0.9242 C   0  0  0  0  0  0  0  0  0  0  0  0
   -2.2401   -1.8925    1.9260 C   0  0  0  0  0  0  0  0  0  0  0  0
   -3.4580   -2.6927    1.5317 C   0  0  0  0  0  0  0  0  0  0  0  0
   -4.5651   -1.6797    1.7198 C   0  0  0  0  0  0  0  0  0  0  0  0
   -3.9892   -0.3748    1.5485 O   0  0  0  0  0  0  0  0  0  0  0  0
    1.8537    0.1132    1.9886 C   0  0  0  0  0  0  0  0  0  0  0  0
    2.9597   -0.4162    2.4722 N   0  0  0  0  0  0  0  0  0  0  0  0
    3.9542   -0.1461    1.5520 N   0  0  0  0  0  0  0  0  0  0  0  0
    3.3874    0.5186    0.5650 C   0  0  0  0  0  0  0  0  0  0  0  0
    3.9615    1.0234   -0.6746 C   0  0  0  0  0  0  0  0  0  0  0  0
    5.3346    0.8587   -0.9197 C   0  0  0  0  0  0  0  0  0  0  0  0
    5.9104    1.3220   -2.1058 C   0  0  0  0  0  0  0  0  0  0  0  0
    5.1195    1.9548   -3.0641 C   0  0  0  0  0  0  0  0  0  0  0  0
    3.7557    2.1277   -2.8361 C   0  0  0  0  0  0  0  0  0  0  0  0
    3.1794    1.6647   -1.6488 C   0  0  0  0  0  0  0  0  0  0  0  0
    2.0473    0.7297    0.7736 O   0  0  0  0  0  0  0  0  0  0  0  0
   -0.1548    1.1929    0.9867 H   0  0  0  0  0  0  0  0  0  0  0  0
   -2.0238    0.5220    3.2034 H   0  0  0  0  0  0  0  0  0  0  0  0
   -2.3096    1.6047    1.8564 H   0  0  0  0  0  0  0  0  0  0  0  0
   -0.5343   -1.6413   -0.2603 H   0  0  0  0  0  0  0  0  0  0  0  0
   -0.0954   -1.2550   -2.6343 H   0  0  0  0  0  0  0  0  0  0  0  0
   -1.5310    0.2881   -3.9468 H   0  0  0  0  0  0  0  0  0  0  0  0
   -3.4313    1.4438   -2.8466 H   0  0  0  0  0  0  0  0  0  0  0  0
   -3.9065    1.0630   -0.4647 H   0  0  0  0  0  0  0  0  0  0  0  0
   -1.3054   -2.3495    1.5985 H   0  0  0  0  0  0  0  0  0  0  0  0
   -2.2102   -1.8427    3.0220 H   0  0  0  0  0  0  0  0  0  0  0  0
   -3.6039   -3.5947    2.1335 H   0  0  0  0  0  0  0  0  0  0  0  0
   -3.3939   -2.9949    0.4790 H   0  0  0  0  0  0  0  0  0  0  0  0
   -5.3817   -1.8160    1.0042 H   0  0  0  0  0  0  0  0  0  0  0  0
   -4.9795   -1.7274    2.7321 H   0  0  0  0  0  0  0  0  0  0  0  0
    5.9680    0.3626   -0.1839 H   0  0  0  0  0  0  0  0  0  0  0  0
    6.9744    1.1837   -2.2819 H   0  0  0  0  0  0  0  0  0  0  0  0
    5.5670    2.3131   -3.9887 H   0  0  0  0  0  0  0  0  0  0  0  0
    3.1385    2.6212   -3.5840 H   0  0  0  0  0  0  0  0  0  0  0  0
    2.1114    1.8092   -1.4998 H   0  0  0  0  0  0  0  0  0  0  0  0
  1  2  2  0
  2  3  1  0
  3  4  1  0
  4  5  1  0
  5  6  1  0
  6  7  2  0
  7  8  1  0
  8  9  2  0
  9 10  1  0
 10 11  2  0
  5 12  1  0
 12 13  1  0
 13 14  1  0
 14 15  1  0
  2 16  1  0
 16 17  2  0
 17 18  1  0
 18 19  2  0
 19 20  1  0
 20 21  2  0
 21 22  1  0
 22 23  2  0
 23 24  1  0
 24 25  2  0
 19 26  1  0
 15  5  1  0
 26 16  1  0
 11  6  1  0
 25 20  1  0
  3 27  1  0
  4 28  1  0
  4 29  1  0
  7 30  1  0
  8 31  1  0
  9 32  1  0
 10 33  1  0
 11 34  1  0
 12 35  1  0
 12 36  1  0
 13 37  1  0
 13 38  1  0
 14 39  1  0
 14 40  1  0
 21 41  1  0
 22 42  1  0
 23 43  1  0
 24 44  1  0
 25 45  1  0
M  END
$$$$
OCNT-2315849
     RDKit          3D

 41 44  0  0  0  0  0  0  0  0999 V2000
   -6.7871    0.7586   -1.8970 C   0  0  0  0  0  0  0  0  0  0  0  0
   -5.4494    0.7194   -1.2178 C   0  0  0  0  0  0  0  0  0  0  0  0
   -5.1988    1.5280   -0.1016 C   0  0  0  0  0  0  0  0  0  0  0  0
   -3.9710    1.4929    0.5733 C   0  0  0  0  0  0  0  0  0  0  0  0
   -3.0005    0.6042    0.0941 C   0  0  0  0  0  0  0  0  0  0  0  0
   -3.2255   -0.2209   -1.0021 C   0  0  0  0  0  0  0  0  0  0  0  0
   -4.4612   -0.1726   -1.6662 C   0  0  0  0  0  0  0  0  0  0  0  0
   -2.1296   -0.9976   -1.2665 N   0  0  0  0  0  0  0  0  0  0  0  0
   -1.2280   -0.6752   -0.3594 C   0  0  0  0  0  0  0  0  0  0  0  0
    0.1671   -1.3644   -0.3368 C   0  0  0  0  0  0  0  0  0  0  0  0
    1.2202   -1.1832    0.5262 C   0  0  0  0  0  0  0  0  0  0  0  0
    2.2139   -2.0224    0.0888 N   0  0  0  0  0  0  0  0  0  0  0  0
    3.5285   -2.2091    0.6922 C   0  0  0  0  0  0  0  0  0  0  0  0
    4.3615   -0.9515    0.6372 C   0  0  0  0  0  0  0  0  0  0  0  0
    4.7457   -0.4050   -0.5972 C   0  0  0  0  0  0  0  0  0  0  0  0
    5.5181    0.7558   -0.6488 C   0  0  0  0  0  0  0  0  0  0  0  0
    5.9193    1.3797    0.5306 C   0  0  0  0  0  0  0  0  0  0  0  0
    5.5501    0.8433    1.7628 C   0  0  0  0  0  0  0  0  0  0  0  0
    4.7762   -0.3174    1.8177 C   0  0  0  0  0  0  0  0  0  0  0  0
    1.8576   -2.7567   -0.9857 N   0  0  0  0  0  0  0  0  0  0  0  0
    0.6118   -2.3460   -1.2444 C   0  0  0  0  0  0  0  0  0  0  0  0
   -1.7147    0.2991    0.4841 N   0  0  0  0  0  0  0  0  0  0  0  0
   -1.0068    0.9084    1.5808 C   0  0  0  0  0  0  0  0  0  0  0  0
   -7.4675    0.0436   -1.4243 H   0  0  0  0  0  0  0  0  0  0  0  0
   -6.6937    0.5095   -2.9593 H   0  0  0  0  0  0  0  0  0  0  0  0
   -7.2265    1.7598   -1.8362 H   0  0  0  0  0  0  0  0  0  0  0  0
   -5.9715    2.2060    0.2579 H   0  0  0  0  0  0  0  0  0  0  0  0
   -3.7974    2.1318    1.4319 H   0  0  0  0  0  0  0  0  0  0  0  0
   -4.6307   -0.8250   -2.5163 H   0  0  0  0  0  0  0  0  0  0  0  0
    1.3773   -0.5493    1.3845 H   0  0  0  0  0  0  0  0  0  0  0  0
    4.0418   -3.0229    0.1671 H   0  0  0  0  0  0  0  0  0  0  0  0
    3.3528   -2.5345    1.7240 H   0  0  0  0  0  0  0  0  0  0  0  0
    4.4390   -0.8813   -1.5281 H   0  0  0  0  0  0  0  0  0  0  0  0
    5.8067    1.1721   -1.6107 H   0  0  0  0  0  0  0  0  0  0  0  0
    6.5226    2.2829    0.4886 H   0  0  0  0  0  0  0  0  0  0  0  0
    5.8687    1.3289    2.6817 H   0  0  0  0  0  0  0  0  0  0  0  0
    4.5033   -0.7219    2.7900 H   0  0  0  0  0  0  0  0  0  0  0  0
    0.0726   -2.7728   -2.0809 H   0  0  0  0  0  0  0  0  0  0  0  0
   -1.6249    1.6718    2.0573 H   0  0  0  0  0  0  0  0  0  0  0  0
   -0.1006    1.3805    1.1934 H   0  0  0  0  0  0  0  0  0  0  0  0
   -0.7693    0.1350    2.3152 H   0  0  0  0  0  0  0  0  0  0  0  0
  1  2  1  0
  2  3  2  0
  3  4  1  0
  4  5  2  0
  5  6  1  0
  6  7  2  0
  6  8  1  0
  8  9  2  0
  9 10  1  0
 10 11  2  0
 11 12  1  0
 12 13  1  0
 13 14  1  0
 14 15  2  0
 15 16  1  0
 16 17  2  0
 17 18  1  0
 18 19  2  0
 12 20  1  0
 20 21  2  0
  9 22  1  0
 22 23  1  0
  7  2  1  0
 21 10  1  0
 22  5  1  0
 19 14  1  0
  1 24  1  0
  1 25  1  0
  1 26  1  0
  3 27  1  0
  4 28  1  0
  7 29  1  0
 11 30  1  0
 13 31  1  0
 13 32  1  0
 15 33  1  0
 16 34  1  0
 17 35  1  0
 18 36  1  0
 19 37  1  0
 21 38  1  0
 23 39  1  0
 23 40  1  0
 23 41  1  0
M  END
$$$$
OCNT-2315858
     RDKit          3D

 35 37  0  0  0  0  0  0  0  0999 V2000
   -3.5052   -2.0409    1.4696 C   0  0  0  0  0  0  0  0  0  0  0  0
   -2.4992   -1.0730    1.7457 O   0  0  0  0  0  0  0  0  0  0  0  0
   -2.3316   -0.1538    0.7673 C   0  0  0  0  0  0  0  0  0  0  0  0
   -3.0485   -0.1887   -0.3572 N   0  0  0  0  0  0  0  0  0  0  0  0
   -2.5781    0.8679   -1.0484 N   0  0  0  0  0  0  0  0  0  0  0  0
   -3.1406    1.1769   -2.3408 C   0  0  0  0  0  0  0  0  0  0  0  0
   -1.5791    1.5437   -0.4069 C   0  0  0  0  0  0  0  0  0  0  0  0
   -1.3914    0.9028    0.7940 C   0  0  0  0  0  0  0  0  0  0  0  0
   -0.5041    1.1765    1.8341 N   0  0  0  0  0  0  0  0  0  0  0  0
    0.9056    2.0548    1.6648 S   0  0  0  0  0  0  0  0  0  0  0  0
    0.5969    3.3893    1.1983 O   0  0  0  0  0  0  0  0  0  0  0  0
    1.6972    1.8170    2.8522 O   0  0  0  0  0  0  0  0  0  0  0  0
    1.8553    1.3531    0.3994 C   0  0  0  0  0  0  0  0  0  0  0  0
    2.4494    2.0360   -0.6436 C   0  0  0  0  0  0  0  0  0  0  0  0
    3.0975    1.1215   -1.4260 N   0  0  0  0  0  0  0  0  0  0  0  0
    2.9291   -0.1464   -0.9122 C   0  0  0  0  0  0  0  0  0  0  0  0
    3.4060   -1.3751   -1.3876 C   0  0  0  0  0  0  0  0  0  0  0  0
    3.0890   -2.5289   -0.6589 C   0  0  0  0  0  0  0  0  0  0  0  0
    3.6841   -4.0345   -1.2695 Cl  0  0  0  0  0  0  0  0  0  0  0  0
    2.3259   -2.4475    0.5083 C   0  0  0  0  0  0  0  0  0  0  0  0
    1.9113   -3.8450    1.4402 Cl  0  0  0  0  0  0  0  0  0  0  0  0
    1.8607   -1.2073    0.9710 C   0  0  0  0  0  0  0  0  0  0  0  0
    2.1583   -0.0316    0.2485 C   0  0  0  0  0  0  0  0  0  0  0  0
   -3.2524   -2.6375    0.5859 H   0  0  0  0  0  0  0  0  0  0  0  0
   -4.4901   -1.5731    1.3610 H   0  0  0  0  0  0  0  0  0  0  0  0
   -3.5549   -2.7219    2.3249 H   0  0  0  0  0  0  0  0  0  0  0  0
   -2.6418    2.0571   -2.7539 H   0  0  0  0  0  0  0  0  0  0  0  0
   -4.2072    1.3775   -2.2130 H   0  0  0  0  0  0  0  0  0  0  0  0
   -2.9861    0.3174   -2.9978 H   0  0  0  0  0  0  0  0  0  0  0  0
   -1.1116    2.4154   -0.8431 H   0  0  0  0  0  0  0  0  0  0  0  0
   -0.5128    0.5580    2.6446 H   0  0  0  0  0  0  0  0  0  0  0  0
    2.4610    3.0919   -0.8837 H   0  0  0  0  0  0  0  0  0  0  0  0
    3.6271    1.3391   -2.2606 H   0  0  0  0  0  0  0  0  0  0  0  0
    4.0034   -1.4327   -2.2927 H   0  0  0  0  0  0  0  0  0  0  0  0
    1.2768   -1.1582    1.8858 H   0  0  0  0  0  0  0  0  0  0  0  0
  1  2  1  0
  2  3  1  0
  3  4  2  0
  4  5  1  0
  5  6  1  0
  5  7  1  0
  7  8  2  0
  8  9  1  0
  9 10  1  0
 10 11  2  0
 10 12  2  0
 10 13  1  0
 13 14  2  0
 14 15  1  0
 15 16  1  0
 16 17  2  0
 17 18  1  0
 18 19  1  0
 18 20  2  0
 20 21  1  0
 20 22  1  0
 22 23  2  0
  8  3  1  0
 23 13  1  0
 23 16  1  0
  1 24  1  0
  1 25  1  0
  1 26  1  0
  6 27  1  0
  6 28  1  0
  6 29  1  0
  7 30  1  0
  9 31  1  0
 14 32  1  0
 15 33  1  0
 17 34  1  0
 22 35  1  0
M  END
$$$$
OCNT-2315859
     RDKit          3D

  0  0  0  0  0  0  0  0  0  0999 V3000
M  V30 BEGIN CTAB
M  V30 COUNTS 50 53 0 0 0
M  V30 BEGIN ATOM
M  V30 1 O -1.051382 -3.020042 -1.221028 0
M  V30 2 C -1.015943 -1.870484 -0.789871 0
M  V30 3 N -0.156791 -1.422287 0.181588 0
M  V30 4 C 0.873539 -2.142851 0.835592 0
M  V30 5 C 1.230369 -3.456387 0.517396 0
M  V30 6 C 2.238706 -4.103764 1.236456 0
M  V30 7 Cl 2.663499 -5.728026 0.844626 0
M  V30 8 C 2.900064 -3.459458 2.280265 0
M  V30 9 C 2.565659 -2.144591 2.597781 0
M  V30 10 C 1.581900 -1.482382 1.856852 0
M  V30 11 O 1.232112 -0.191797 2.167523 0
M  V30 12 C 2.296236 0.751194 1.976443 0
M  V30 13 C 2.138769 1.438928 0.628898 0
M  V30 14 C 3.216248 2.508451 0.304871 0
M  V30 15 C 3.147553 2.038177 -1.161073 0
M  V30 16 C 2.639292 0.682965 -0.631582 0
M  V30 17 N -1.875598 -0.912207 -1.295193 0
M  V30 18 C -2.780391 -1.244980 -2.379766 0
M  V30 19 C -3.719584 -0.052784 -2.462934 0
M  V30 20 C -2.815824 1.127838 -2.094590 0 CFG=1
M  V30 21 C -3.540534 2.275203 -1.384979 0
M  V30 22 C -2.886195 2.382556 -0.011295 0
M  V30 23 C -2.391442 0.973807 0.281113 0 CFG=2
M  V30 24 O -1.370503 0.980724 1.262817 0
M  V30 25 C -1.836311 0.527846 -1.074462 0 CFG=1
M  V30 26 H -0.343447 -0.505738 0.585889 0
M  V30 27 H 0.734618 -4.000763 -0.279781 0
M  V30 28 H 3.668001 -3.977147 2.849624 0
M  V30 29 H 3.062784 -1.647382 3.424869 0
M  V30 30 H 3.293405 0.306663 2.085729 0
M  V30 31 H 2.195175 1.494943 2.774321 0
M  V30 32 H 1.125518 1.841374 0.496350 0
M  V30 33 H 4.188483 2.331585 0.778551 0
M  V30 34 H 2.921090 3.545961 0.482243 0
M  V30 35 H 2.411401 2.581295 -1.766072 0
M  V30 36 H 4.101558 2.012876 -1.694448 0
M  V30 37 H 1.868221 0.208375 -1.240720 0
M  V30 38 H 3.440666 -0.039411 -0.444978 0
M  V30 39 H -3.303718 -2.186289 -2.186114 0
M  V30 40 H -2.186870 -1.349101 -3.295429 0
M  V30 41 H -4.174979 0.056139 -3.451827 0
M  V30 42 H -4.527323 -0.174163 -1.729767 0
M  V30 43 H -2.280836 1.478635 -2.985558 0
M  V30 44 H -4.613189 2.076604 -1.282832 0
M  V30 45 H -3.437444 3.216113 -1.937786 0
M  V30 46 H -3.580043 2.742989 0.755286 0
M  V30 47 H -2.047043 3.089253 -0.039363 0
M  V30 48 H -3.207627 0.322746 0.618975 0
M  V30 49 H -1.778755 1.230079 2.111406 0
M  V30 50 H -0.813092 0.888712 -1.230282 0
M  V30 END ATOM
M  V30 BEGIN BOND
M  V30 1 2 1 2
M  V30 2 1 2 3
M  V30 3 1 3 4
M  V30 4 1 4 5
M  V30 5 2 5 6
M  V30 6 1 6 7
M  V30 7 1 6 8
M  V30 8 2 8 9
M  V30 9 1 9 10
M  V30 10 1 10 11
M  V30 11 1 11 12
M  V30 12 1 12 13
M  V30 13 1 13 14
M  V30 14 1 14 15
M  V30 15 1 15 16
M  V30 16 1 2 17
M  V30 17 1 17 18
M  V30 18 1 18 19
M  V30 19 1 19 20
M  V30 20 1 20 21
M  V30 21 1 21 22
M  V30 22 1 22 23
M  V30 23 1 23 24
M  V30 24 1 23 25
M  V30 25 2 10 4
M  V30 26 1 16 13
M  V30 27 1 25 17
M  V30 28 1 25 20
M  V30 29 1 3 26
M  V30 30 1 5 27
M  V30 31 1 8 28
M  V30 32 1 9 29
M  V30 33 1 12 30
M  V30 34 1 12 31
M  V30 35 1 13 32
M  V30 36 1 14 33
M  V30 37 1 14 34
M  V30 38 1 15 35
M  V30 39 1 15 36
M  V30 40 1 16 37
M  V30 41 1 16 38
M  V30 42 1 18 39
M  V30 43 1 18 40
M  V30 44 1 19 41
M  V30 45 1 19 42
M  V30 46 1 20 43 CFG=3
M  V30 47 1 21 44
M  V30 48 1 21 45
M  V30 49 1 22 46
M  V30 50 1 22 47
M  V30 51 1 23 48 CFG=1
M  V30 52 1 24 49
M  V30 53 1 25 50 CFG=3
M  V30 END BOND
M  V30 BEGIN COLLECTION
M  V30 MDLV30/STERAC1 ATOMS=(3 20 23 25)
M  V30 END COLLECTION
M  V30 END CTAB
M  END
>  <_CXSMILES_Data>  (1044) 
|&1:19,22,24|

$$$$
OCNT-2315862
     RDKit          3D

 45 48  0  0  0  0  0  0  0  0999 V2000
   -1.3733    1.4961   -0.5396 C   0  0  0  0  0  0  0  0  0  0  0  0
   -2.2033    0.2354   -0.2599 C   0  0  0  0  0  0  0  0  0  0  0  0
   -3.6369    0.4724   -0.6199 C   0  0  0  0  0  0  0  0  0  0  0  0
   -4.6286    0.6697    0.3144 C   0  0  0  0  0  0  0  0  0  0  0  0
   -4.4869    0.6357    1.7894 C   0  0  0  0  0  0  0  0  0  0  0  0
   -2.9927    0.6560    2.1683 C   0  0  0  0  0  0  0  0  0  0  0  0
   -2.1346   -0.2320    1.2275 C   0  0  0  0  0  0  0  0  0  0  0  0
   -0.7037   -0.3288    1.7142 C   0  0  0  0  0  0  0  0  0  0  0  0
   -0.2093    0.3722    2.5854 O   0  0  0  0  0  0  0  0  0  0  0  0
   -0.0508   -1.3143    1.0356 O   0  0  0  0  0  0  0  0  0  0  0  0
    1.3288   -1.5137    1.3869 C   0  0  0  0  0  0  0  0  0  0  0  0
    2.1977   -0.5822    0.5609 C   0  0  0  0  0  0  0  0  0  0  0  0
    3.7302   -0.8706    0.5860 C   0  0  0  0  0  0  0  0  0  0  0  0
    3.7257   -0.5772   -0.8917 C   0  0  0  0  0  0  0  0  0  0  0  0
    4.6575   -1.3132   -1.8192 C   0  0  0  0  0  0  0  0  0  0  0  0
    4.7365    0.0001   -2.6401 C   0  0  0  0  0  0  0  0  0  0  0  0
    4.2421    0.7586   -1.3813 C   0  0  0  0  0  0  0  0  0  0  0  0
    2.2382   -0.8393   -0.9777 C   0  0  0  0  0  0  0  0  0  0  0  0
   -5.7834    0.8640   -0.3808 N   0  0  0  0  0  0  0  0  0  0  0  0
   -5.6072    0.7988   -1.7140 N   0  0  0  0  0  0  0  0  0  0  0  0
   -4.2991    0.5608   -1.8574 C   0  0  0  0  0  0  0  0  0  0  0  0
   -0.3110    1.3310   -0.3369 H   0  0  0  0  0  0  0  0  0  0  0  0
   -1.4591    1.7906   -1.5920 H   0  0  0  0  0  0  0  0  0  0  0  0
   -1.7077    2.3471    0.0633 H   0  0  0  0  0  0  0  0  0  0  0  0
   -1.8120   -0.5697   -0.8959 H   0  0  0  0  0  0  0  0  0  0  0  0
   -4.9453   -0.2842    2.1714 H   0  0  0  0  0  0  0  0  0  0  0  0
   -5.0014    1.4825    2.2560 H   0  0  0  0  0  0  0  0  0  0  0  0
   -2.8834    0.3286    3.2097 H   0  0  0  0  0  0  0  0  0  0  0  0
   -2.6242    1.6896    2.1352 H   0  0  0  0  0  0  0  0  0  0  0  0
   -2.5505   -1.2486    1.2991 H   0  0  0  0  0  0  0  0  0  0  0  0
    1.5616   -2.5620    1.1702 H   0  0  0  0  0  0  0  0  0  0  0  0
    1.4898   -1.3678    2.4614 H   0  0  0  0  0  0  0  0  0  0  0  0
    1.9879    0.4726    0.7909 H   0  0  0  0  0  0  0  0  0  0  0  0
    4.3189   -0.2010    1.2194 H   0  0  0  0  0  0  0  0  0  0  0  0
    3.9890   -1.9066    0.8344 H   0  0  0  0  0  0  0  0  0  0  0  0
    5.6131   -1.5986   -1.3645 H   0  0  0  0  0  0  0  0  0  0  0  0
    4.2479   -2.1745   -2.3533 H   0  0  0  0  0  0  0  0  0  0  0  0
    5.7318    0.2754   -2.9984 H   0  0  0  0  0  0  0  0  0  0  0  0
    4.0314    0.0361   -3.4786 H   0  0  0  0  0  0  0  0  0  0  0  0
    3.5022    1.5418   -1.5673 H   0  0  0  0  0  0  0  0  0  0  0  0
    5.0580    1.1772   -0.7810 H   0  0  0  0  0  0  0  0  0  0  0  0
    1.9780   -1.8645   -1.2666 H   0  0  0  0  0  0  0  0  0  0  0  0
    1.6462   -0.1453   -1.5810 H   0  0  0  0  0  0  0  0  0  0  0  0
   -6.7183    1.0359   -0.0254 H   0  0  0  0  0  0  0  0  0  0  0  0
   -3.8894    0.4659   -2.8549 H   0  0  0  0  0  0  0  0  0  0  0  0
  1  2  1  0
  2  3  1  0
  3  4  2  0
  4  5  1  0
  5  6  1  0
  6  7  1  0
  7  8  1  0
  8  9  2  0
  8 10  1  0
 10 11  1  0
 11 12  1  0
 12 13  1  0
 13 14  1  0
 14 15  1  0
 15 16  1  0
 16 17  1  0
 14 18  1  0
  4 19  1  0
 19 20  1  0
 20 21  2  0
  7  2  1  0
 18 12  1  0
 21  3  1  0
 17 14  1  0
  1 22  1  0
  1 23  1  0
  1 24  1  0
  2 25  1  0
  5 26  1  0
  5 27  1  0
  6 28  1  0
  6 29  1  0
  7 30  1  0
 11 31  1  0
 11 32  1  0
 12 33  1  0
 13 34  1  0
 13 35  1  0
 15 36  1  0
 15 37  1  0
 16 38  1  0
 16 39  1  0
 17 40  1  0
 17 41  1  0
 18 42  1  0
 18 43  1  0
 19 44  1  0
 21 45  1  0
M  END
$$$$
OCNT-2315864
     RDKit          3D

 45 48  0  0  0  0  0  0  0  0999 V2000
    5.0692   -0.8210    0.6973 C   0  0  0  0  0  0  0  0  0  0  0  0
    5.4828    0.1929   -0.1365 C   0  0  0  0  0  0  0  0  0  0  0  0
    4.3300    0.7854   -0.5730 N   0  0  0  0  0  0  0  0  0  0  0  0
    4.1167    1.8286   -1.4447 C   0  0  0  0  0  0  0  0  0  0  0  0
    2.8482    2.1784   -1.6971 C   0  0  0  0  0  0  0  0  0  0  0  0
    1.7498    1.5633   -1.1343 N   0  0  0  0  0  0  0  0  0  0  0  0
    1.9006    0.5640   -0.2752 C   0  0  0  0  0  0  0  0  0  0  0  0
    0.7253   -0.0008    0.2680 N   0  0  0  0  0  0  0  0  0  0  0  0
    0.7900   -1.0406    1.2859 C   0  0  0  0  0  0  0  0  0  0  0  0
    0.6943   -2.4360    0.6810 C   0  0  0  0  0  0  0  0  0  0  0  0
   -0.6047   -2.7065   -0.0830 C   0  0  0  0  0  0  0  0  0  0  0  0
   -1.7984   -1.9178    0.4557 C   0  0  0  0  0  0  0  0  0  0  0  0
   -1.8571   -0.4052    0.0440 C   0  0  0  0  0  0  0  0  0  0  0  0
   -2.9292   -0.2914   -1.0929 C   0  0  0  0  0  0  0  0  0  0  0  0
   -3.3099    1.1434   -1.4593 C   0  0  0  0  0  0  0  0  0  0  0  0
   -3.7836    1.9221   -0.2391 C   0  0  0  0  0  0  0  0  0  0  0  0
   -2.7723    1.8688    0.8986 C   0  0  0  0  0  0  0  0  0  0  0  0
   -2.3775    0.4324    1.2478 C   0  0  0  0  0  0  0  0  0  0  0  0
   -0.5146    0.1599   -0.5199 C   0  0  0  0  0  0  0  0  0  0  0  0
    3.2777    0.1323    0.0227 C   0  0  0  0  0  0  0  0  0  0  0  0
    3.7001   -0.8602    0.7850 N   0  0  0  0  0  0  0  0  0  0  0  0
    5.6861   -1.5278    1.2375 H   0  0  0  0  0  0  0  0  0  0  0  0
    6.4617    0.5241   -0.4499 H   0  0  0  0  0  0  0  0  0  0  0  0
    4.9741    2.3139   -1.8893 H   0  0  0  0  0  0  0  0  0  0  0  0
    2.6290    2.9945   -2.3808 H   0  0  0  0  0  0  0  0  0  0  0  0
    0.0032   -0.8905    2.0292 H   0  0  0  0  0  0  0  0  0  0  0  0
    1.6927   -0.9570    1.8959 H   0  0  0  0  0  0  0  0  0  0  0  0
    0.7707   -3.1615    1.5009 H   0  0  0  0  0  0  0  0  0  0  0  0
    1.5451   -2.6317    0.0179 H   0  0  0  0  0  0  0  0  0  0  0  0
   -0.4683   -2.5093   -1.1522 H   0  0  0  0  0  0  0  0  0  0  0  0
   -0.8224   -3.7797   -0.0102 H   0  0  0  0  0  0  0  0  0  0  0  0
   -1.8260   -2.0218    1.5484 H   0  0  0  0  0  0  0  0  0  0  0  0
   -2.7091   -2.4283    0.1162 H   0  0  0  0  0  0  0  0  0  0  0  0
   -3.8500   -0.8034   -0.7807 H   0  0  0  0  0  0  0  0  0  0  0  0
   -2.5795   -0.8131   -1.9927 H   0  0  0  0  0  0  0  0  0  0  0  0
   -2.4631    1.6577   -1.9265 H   0  0  0  0  0  0  0  0  0  0  0  0
   -4.1097    1.1248   -2.2090 H   0  0  0  0  0  0  0  0  0  0  0  0
   -3.9748    2.9649   -0.5163 H   0  0  0  0  0  0  0  0  0  0  0  0
   -4.7383    1.5065    0.1068 H   0  0  0  0  0  0  0  0  0  0  0  0
   -1.8840    2.4533    0.6347 H   0  0  0  0  0  0  0  0  0  0  0  0
   -3.2022    2.3497    1.7854 H   0  0  0  0  0  0  0  0  0  0  0  0
   -1.6343    0.4681    2.0502 H   0  0  0  0  0  0  0  0  0  0  0  0
   -3.2599   -0.0652    1.6733 H   0  0  0  0  0  0  0  0  0  0  0  0
   -0.6448    1.2297   -0.7116 H   0  0  0  0  0  0  0  0  0  0  0  0
   -0.3335   -0.2901   -1.5056 H   0  0  0  0  0  0  0  0  0  0  0  0
  1  2  2  0
  2  3  1  0
  3  4  1  0
  4  5  2  0
  5  6  1  0
  6  7  2  0
  7  8  1  0
  8  9  1  0
  9 10  1  0
 10 11  1  0
 11 12  1  0
 12 13  1  0
 13 14  1  0
 14 15  1  0
 15 16  1  0
 16 17  1  0
 17 18  1  0
 13 19  1  0
  7 20  1  0
 20 21  2  0
 21  1  1  0
 20  3  1  0
 19  8  1  0
 18 13  1  0
  1 22  1  0
  2 23  1  0
  4 24  1  0
  5 25  1  0
  9 26  1  0
  9 27  1  0
 10 28  1  0
 10 29  1  0
 11 30  1  0
 11 31  1  0
 12 32  1  0
 12 33  1  0
 14 34  1  0
 14 35  1  0
 15 36  1  0
 15 37  1  0
 16 38  1  0
 16 39  1  0
 17 40  1  0
 17 41  1  0
 18 42  1  0
 18 43  1  0
 19 44  1  0
 19 45  1  0
M  END
$$$$
OCNT-2315870
     RDKit          3D

 45 46  0  0  0  0  0  0  0  0999 V2000
   -5.0923    1.1205   -2.6883 C   0  0  0  0  0  0  0  0  0  0  0  0
   -4.3524    0.6360   -1.5748 O   0  0  0  0  0  0  0  0  0  0  0  0
   -2.9409    0.7559   -1.7907 C   0  0  0  0  0  0  0  0  0  0  0  0
   -2.1535    0.2145   -0.5630 C   0  0  0  0  0  0  0  0  0  0  0  0
   -0.6513    0.4669   -0.8611 C   0  0  0  0  0  0  0  0  0  0  0  0
   -0.2885    0.9204   -1.9444 O   0  0  0  0  0  0  0  0  0  0  0  0
    0.2017    0.1201    0.1727 N   0  0  0  0  0  0  0  0  0  0  0  0
    1.6112    0.1776    0.1930 C   0  0  0  0  0  0  0  0  0  0  0  0
    2.3983    0.5561   -0.8938 C   0  0  0  0  0  0  0  0  0  0  0  0
    3.7945    0.5785   -0.7886 C   0  0  0  0  0  0  0  0  0  0  0  0
    4.4281    0.2271    0.4089 C   0  0  0  0  0  0  0  0  0  0  0  0
    5.9338    0.2452    0.5169 C   0  0  0  0  0  0  0  0  0  0  0  0
    6.5761   -1.1140    0.3838 C   0  0  0  0  0  0  0  0  0  0  0  0
    6.0423   -2.2100    0.3957 O   0  0  0  0  0  0  0  0  0  0  0  0
    7.9200   -1.0235    0.2723 O   0  0  0  0  0  0  0  0  0  0  0  0
    3.6389   -0.1592    1.4974 C   0  0  0  0  0  0  0  0  0  0  0  0
    2.2449   -0.1834    1.3885 C   0  0  0  0  0  0  0  0  0  0  0  0
   -2.4158   -1.3142   -0.4605 C   0  0  0  0  0  0  0  0  0  0  0  0
   -2.1758   -1.9407    0.9129 C   0  0  0  0  0  0  0  0  0  0  0  0
   -2.7172   -1.1218    2.0820 C   0  0  0  0  0  0  0  0  0  0  0  0
   -3.4583    0.1354    1.6510 C   0  0  0  0  0  0  0  0  0  0  0  0
   -2.6064    0.9816    0.7095 C   0  0  0  0  0  0  0  0  0  0  0  0
   -4.8823    2.1812   -2.8556 H   0  0  0  0  0  0  0  0  0  0  0  0
   -6.1572    1.0057   -2.4694 H   0  0  0  0  0  0  0  0  0  0  0  0
   -4.8558    0.5420   -3.5864 H   0  0  0  0  0  0  0  0  0  0  0  0
   -2.6708    0.1958   -2.6956 H   0  0  0  0  0  0  0  0  0  0  0  0
   -2.7021    1.8141   -1.9606 H   0  0  0  0  0  0  0  0  0  0  0  0
   -0.2257   -0.1822    1.0365 H   0  0  0  0  0  0  0  0  0  0  0  0
    1.9609    0.8349   -1.8469 H   0  0  0  0  0  0  0  0  0  0  0  0
    4.3779    0.8730   -1.6586 H   0  0  0  0  0  0  0  0  0  0  0  0
    6.2210    0.6694    1.4863 H   0  0  0  0  0  0  0  0  0  0  0  0
    6.3451    0.8984   -0.2622 H   0  0  0  0  0  0  0  0  0  0  0  0
    8.2097   -1.9577    0.2005 H   0  0  0  0  0  0  0  0  0  0  0  0
    4.1025   -0.4542    2.4364 H   0  0  0  0  0  0  0  0  0  0  0  0
    1.6659   -0.4937    2.2544 H   0  0  0  0  0  0  0  0  0  0  0  0
   -3.4599   -1.5275   -0.7255 H   0  0  0  0  0  0  0  0  0  0  0  0
   -1.8110   -1.8515   -1.2028 H   0  0  0  0  0  0  0  0  0  0  0  0
   -1.1067   -2.1289    1.0626 H   0  0  0  0  0  0  0  0  0  0  0  0
   -2.6401   -2.9351    0.9269 H   0  0  0  0  0  0  0  0  0  0  0  0
   -3.3803   -1.7450    2.6936 H   0  0  0  0  0  0  0  0  0  0  0  0
   -1.8814   -0.8404    2.7353 H   0  0  0  0  0  0  0  0  0  0  0  0
   -4.4028   -0.1348    1.1638 H   0  0  0  0  0  0  0  0  0  0  0  0
   -3.7213    0.7254    2.5367 H   0  0  0  0  0  0  0  0  0  0  0  0
   -1.7474    1.3647    1.2735 H   0  0  0  0  0  0  0  0  0  0  0  0
   -3.1755    1.8799    0.4377 H   0  0  0  0  0  0  0  0  0  0  0  0
  1  2  1  0
  2  3  1  0
  3  4  1  0
  4  5  1  0
  5  6  2  0
  5  7  1  0
  7  8  1  0
  8  9  1  0
  9 10  2  0
 10 11  1  0
 11 12  1  0
 12 13  1  0
 13 14  2  0
 13 15  1  0
 11 16  2  0
 16 17  1  0
  4 18  1  0
 18 19  1  0
 19 20  1  0
 20 21  1  0
 21 22  1  0
 22  4  1  0
 17  8  2  0
  1 23  1  0
  1 24  1  0
  1 25  1  0
  3 26  1  0
  3 27  1  0
  7 28  1  0
  9 29  1  0
 10 30  1  0
 12 31  1  0
 12 32  1  0
 15 33  1  0
 16 34  1  0
 17 35  1  0
 18 36  1  0
 18 37  1  0
 19 38  1  0
 19 39  1  0
 20 40  1  0
 20 41  1  0
 21 42  1  0
 21 43  1  0
 22 44  1  0
 22 45  1  0
M  END
$$$$
OCNT-2315875
     RDKit          3D

 52 56  0  0  0  0  0  0  0  0999 V2000
    6.1345   -1.9483    3.2307 C   0  0  0  0  0  0  0  0  0  0  0  0
    6.4225   -0.6582    2.7755 C   0  0  0  0  0  0  0  0  0  0  0  0
    5.8807   -0.2033    1.5708 C   0  0  0  0  0  0  0  0  0  0  0  0
    5.0426   -1.0316    0.8098 C   0  0  0  0  0  0  0  0  0  0  0  0
    4.4664   -0.5420   -0.4945 C   0  0  0  0  0  0  0  0  0  0  0  0
    3.3493    0.4724   -0.2766 C   0  0  0  0  0  0  0  0  0  0  0  0
    2.9115    1.0454   -1.5268 N   0  0  0  0  0  0  0  0  0  0  0  0
    3.4824    2.1361   -2.1279 C   0  0  0  0  0  0  0  0  0  0  0  0
    2.7563    2.3444   -3.2693 C   0  0  0  0  0  0  0  0  0  0  0  0
    1.7664    1.4112   -3.3790 N   0  0  0  0  0  0  0  0  0  0  0  0
    1.8922    0.6157   -2.3311 C   0  0  0  0  0  0  0  0  0  0  0  0
    1.0233   -0.5708   -2.0477 C   0  0  0  0  0  0  0  0  0  0  0  0
   -0.2037   -0.2142   -1.3498 N   0  0  0  0  0  0  0  0  0  0  0  0
   -1.2429   -1.1074   -1.2823 C   0  0  0  0  0  0  0  0  0  0  0  0
   -1.0334   -2.3762   -1.5352 N   0  0  0  0  0  0  0  0  0  0  0  0
   -2.1055   -3.2385   -1.5510 C   0  0  0  0  0  0  0  0  0  0  0  0
   -3.3691   -2.8542   -1.3418 C   0  0  0  0  0  0  0  0  0  0  0  0
   -3.6181   -1.5299   -1.0314 N   0  0  0  0  0  0  0  0  0  0  0  0
   -4.7968   -0.9335   -0.7568 N   0  0  0  0  0  0  0  0  0  0  0  0
   -4.4847    0.3090   -0.3587 C   0  0  0  0  0  0  0  0  0  0  0  0
   -5.5167    1.2381    0.1203 C   0  0  0  0  0  0  0  0  0  0  0  0
   -5.1823    2.4214    0.7870 C   0  0  0  0  0  0  0  0  0  0  0  0
   -6.1794    3.2888    1.2549 C   0  0  0  0  0  0  0  0  0  0  0  0
   -7.5221    2.9802    1.0640 C   0  0  0  0  0  0  0  0  0  0  0  0
   -7.8734    1.8097    0.3975 C   0  0  0  0  0  0  0  0  0  0  0  0
   -6.8777    0.9466   -0.0707 C   0  0  0  0  0  0  0  0  0  0  0  0
   -3.0915    0.5310   -0.4881 C   0  0  0  0  0  0  0  0  0  0  0  0
   -2.5742   -0.6539   -0.9503 C   0  0  0  0  0  0  0  0  0  0  0  0
    4.7490   -2.3186    1.2754 C   0  0  0  0  0  0  0  0  0  0  0  0
    5.2974   -2.7776    2.4791 C   0  0  0  0  0  0  0  0  0  0  0  0
    6.5682   -2.3096    4.1638 H   0  0  0  0  0  0  0  0  0  0  0  0
    7.0791   -0.0120    3.3517 H   0  0  0  0  0  0  0  0  0  0  0  0
    6.1343    0.7979    1.2233 H   0  0  0  0  0  0  0  0  0  0  0  0
    5.2746   -0.0970   -1.0863 H   0  0  0  0  0  0  0  0  0  0  0  0
    4.0943   -1.3932   -1.0849 H   0  0  0  0  0  0  0  0  0  0  0  0
    2.4805    0.0255    0.2232 H   0  0  0  0  0  0  0  0  0  0  0  0
    3.6788    1.3037    0.3507 H   0  0  0  0  0  0  0  0  0  0  0  0
    4.3300    2.6514   -1.7087 H   0  0  0  0  0  0  0  0  0  0  0  0
    2.8922    3.1054   -4.0260 H   0  0  0  0  0  0  0  0  0  0  0  0
    0.7812   -1.0340   -3.0164 H   0  0  0  0  0  0  0  0  0  0  0  0
    1.5683   -1.3192   -1.4704 H   0  0  0  0  0  0  0  0  0  0  0  0
   -0.5157    0.7042   -1.6713 H   0  0  0  0  0  0  0  0  0  0  0  0
   -1.8729   -4.2812   -1.7672 H   0  0  0  0  0  0  0  0  0  0  0  0
   -4.2220   -3.5174   -1.3790 H   0  0  0  0  0  0  0  0  0  0  0  0
   -4.1489    2.6857    0.9713 H   0  0  0  0  0  0  0  0  0  0  0  0
   -5.9010    4.2043    1.7729 H   0  0  0  0  0  0  0  0  0  0  0  0
   -8.2938    3.6495    1.4378 H   0  0  0  0  0  0  0  0  0  0  0  0
   -8.9207    1.5523    0.2432 H   0  0  0  0  0  0  0  0  0  0  0  0
   -7.1704    0.0430   -0.5973 H   0  0  0  0  0  0  0  0  0  0  0  0
   -2.5327    1.4167   -0.2500 H   0  0  0  0  0  0  0  0  0  0  0  0
    4.1104   -2.9821    0.6945 H   0  0  0  0  0  0  0  0  0  0  0  0
    5.0832   -3.7856    2.8339 H   0  0  0  0  0  0  0  0  0  0  0  0
  1  2  2  0
  2  3  1  0
  3  4  2  0
  4  5  1  0
  5  6  1  0
  6  7  1  0
  7  8  1  0
  8  9  2  0
  9 10  1  0
 10 11  2  0
 11 12  1  0
 12 13  1  0
 13 14  1  0
 14 15  2  0
 15 16  1  0
 16 17  2  0
 17 18  1  0
 18 19  1  0
 19 20  2  0
 20 21  1  0
 21 22  2  0
 22 23  1  0
 23 24  2  0
 24 25  1  0
 25 26  2  0
 20 27  1  0
 27 28  2  0
  4 29  1  0
 29 30  2  0
 30  1  1  0
 11  7  1  0
 28 14  1  0
 28 18  1  0
 26 21  1  0
  1 31  1  0
  2 32  1  0
  3 33  1  0
  5 34  1  0
  5 35  1  0
  6 36  1  0
  6 37  1  0
  8 38  1  0
  9 39  1  0
 12 40  1  0
 12 41  1  0
 13 42  1  0
 16 43  1  0
 17 44  1  0
 22 45  1  0
 23 46  1  0
 24 47  1  0
 25 48  1  0
 26 49  1  0
 27 50  1  0
 29 51  1  0
 30 52  1  0
M  END
$$$$
OCNT-2315877
     RDKit          3D

 37 38  0  0  0  0  0  0  0  0999 V2000
   -2.8199   -0.8976    1.9459 C   0  0  0  0  0  0  0  0  0  0  0  0
   -3.3451    0.1406    0.9939 C   0  0  0  0  0  0  0  0  0  0  0  0
   -4.1821    1.1519    1.4952 C   0  0  0  0  0  0  0  0  0  0  0  0
   -4.7277    2.1174    0.6456 C   0  0  0  0  0  0  0  0  0  0  0  0
   -4.4425    2.0821   -0.7165 C   0  0  0  0  0  0  0  0  0  0  0  0
   -5.1930    3.3818   -1.8655 Br  0  0  0  0  0  0  0  0  0  0  0  0
   -3.6035    1.1014   -1.2359 C   0  0  0  0  0  0  0  0  0  0  0  0
   -3.0363    0.1447   -0.3815 C   0  0  0  0  0  0  0  0  0  0  0  0
   -2.1244   -0.8422   -1.0148 C   0  0  0  0  0  0  0  0  0  0  0  0
   -2.4412   -1.3961   -2.0601 O   0  0  0  0  0  0  0  0  0  0  0  0
   -0.9122   -1.0171   -0.3914 N   0  0  0  0  0  0  0  0  0  0  0  0
    0.1529   -1.7753   -1.0201 C   0  0  0  0  0  0  0  0  0  0  0  0
    1.2886   -2.0711   -0.0334 C   0  0  0  0  0  0  0  0  0  0  0  0
    1.6528   -0.8713    0.7414 N   0  0  0  0  0  0  0  0  0  0  0  0
    2.8412   -0.2588    0.3475 C   0  0  0  0  0  0  0  0  0  0  0  0
    3.0224    0.2904   -0.9164 C   0  0  0  0  0  0  0  0  0  0  0  0
    4.2367    0.9058   -1.2260 C   0  0  0  0  0  0  0  0  0  0  0  0
    5.2362    0.9633   -0.2599 C   0  0  0  0  0  0  0  0  0  0  0  0
    6.4956    1.5822   -0.5218 C   0  0  0  0  0  0  0  0  0  0  0  0
    7.5205    2.0828   -0.7343 N   0  0  0  0  0  0  0  0  0  0  0  0
    4.9675    0.4021    0.9769 C   0  0  0  0  0  0  0  0  0  0  0  0
    3.7950   -0.2008    1.2956 N   0  0  0  0  0  0  0  0  0  0  0  0
   -1.8085   -0.6383    2.2727 H   0  0  0  0  0  0  0  0  0  0  0  0
   -2.8163   -1.8904    1.4850 H   0  0  0  0  0  0  0  0  0  0  0  0
   -3.4551   -0.9706    2.8358 H   0  0  0  0  0  0  0  0  0  0  0  0
   -4.4284    1.1866    2.5552 H   0  0  0  0  0  0  0  0  0  0  0  0
   -5.3799    2.8847    1.0556 H   0  0  0  0  0  0  0  0  0  0  0  0
   -3.3785    1.0750   -2.3000 H   0  0  0  0  0  0  0  0  0  0  0  0
   -0.6082   -0.3278    0.2899 H   0  0  0  0  0  0  0  0  0  0  0  0
    0.5110   -1.1841   -1.8685 H   0  0  0  0  0  0  0  0  0  0  0  0
   -0.2561   -2.7090   -1.4216 H   0  0  0  0  0  0  0  0  0  0  0  0
    0.9281   -2.8197    0.6835 H   0  0  0  0  0  0  0  0  0  0  0  0
    2.1468   -2.5200   -0.5486 H   0  0  0  0  0  0  0  0  0  0  0  0
    1.8491   -1.1311    1.7111 H   0  0  0  0  0  0  0  0  0  0  0  0
    2.2285    0.2704   -1.6535 H   0  0  0  0  0  0  0  0  0  0  0  0
    4.3850    1.3412   -2.2115 H   0  0  0  0  0  0  0  0  0  0  0  0
    5.7011    0.4168    1.7799 H   0  0  0  0  0  0  0  0  0  0  0  0
  1  2  1  0
  2  3  1  0
  3  4  2  0
  4  5  1  0
  5  6  1  0
  5  7  2  0
  7  8  1  0
  8  9  1  0
  9 10  2  0
  9 11  1  0
 11 12  1  0
 12 13  1  0
 13 14  1  0
 14 15  1  0
 15 16  2  0
 16 17  1  0
 17 18  2  0
 18 19  1  0
 19 20  3  0
 18 21  1  0
 21 22  2  0
  8  2  2  0
 22 15  1  0
  1 23  1  0
  1 24  1  0
  1 25  1  0
  3 26  1  0
  4 27  1  0
  7 28  1  0
 11 29  1  0
 12 30  1  0
 12 31  1  0
 13 32  1  0
 13 33  1  0
 14 34  1  0
 16 35  1  0
 17 36  1  0
 21 37  1  0
M  END
$$$$
OCNT-2315886
     RDKit          3D

 51 53  0  0  0  0  0  0  0  0999 V2000
    6.6845    2.3055   -2.4696 C   0  0  0  0  0  0  0  0  0  0  0  0
    5.3656    1.7949   -2.3114 O   0  0  0  0  0  0  0  0  0  0  0  0
    5.2310    0.9703   -1.2110 C   0  0  0  0  0  0  0  0  0  0  0  0
    3.9748    0.4188   -1.0089 C   0  0  0  0  0  0  0  0  0  0  0  0
    3.7851   -0.4153    0.0884 C   0  0  0  0  0  0  0  0  0  0  0  0
    2.5546   -1.0268    0.4148 N   0  0  0  0  0  0  0  0  0  0  0  0
    1.4139   -1.0800   -0.3573 C   0  0  0  0  0  0  0  0  0  0  0  0
    1.3437   -0.6914   -1.5200 O   0  0  0  0  0  0  0  0  0  0  0  0
    0.3083   -1.6240    0.2944 N   0  0  0  0  0  0  0  0  0  0  0  0
    0.2311   -1.9237    1.7243 C   0  0  0  0  0  0  0  0  0  0  0  0
   -1.2062   -2.0911    2.2164 C   0  0  0  0  0  0  0  0  0  0  0  0
   -2.0937   -0.9986    1.6188 C   0  0  0  0  0  0  0  0  0  0  0  0
   -2.1066   -1.0169    0.0580 C   0  0  0  0  0  0  0  0  0  0  0  0
   -3.4160   -1.6644   -0.4538 C   0  0  0  0  0  0  0  0  0  0  0  0
   -3.5432   -3.0052    0.0119 O   0  0  0  0  0  0  0  0  0  0  0  0
   -1.9615    0.4293   -0.5170 C   0  0  0  0  0  0  0  0  0  0  0  0
   -3.1337    1.3663   -0.3132 C   0  0  0  0  0  0  0  0  0  0  0  0
   -4.1133    1.4991   -1.3094 C   0  0  0  0  0  0  0  0  0  0  0  0
   -5.2011    2.3552   -1.1292 C   0  0  0  0  0  0  0  0  0  0  0  0
   -5.3195    3.0943    0.0452 C   0  0  0  0  0  0  0  0  0  0  0  0
   -4.3469    2.9826    1.0361 C   0  0  0  0  0  0  0  0  0  0  0  0
   -3.2582    2.1267    0.8565 C   0  0  0  0  0  0  0  0  0  0  0  0
   -0.9142   -1.8666   -0.4703 C   0  0  0  0  0  0  0  0  0  0  0  0
    4.8628   -0.6501    0.9432 C   0  0  0  0  0  0  0  0  0  0  0  0
    6.0799   -0.0532    0.6569 C   0  0  0  0  0  0  0  0  0  0  0  0
    6.2897    0.7526   -0.4017 N   0  0  0  0  0  0  0  0  0  0  0  0
    7.4073    1.4975   -2.6276 H   0  0  0  0  0  0  0  0  0  0  0  0
    6.9733    2.9318   -1.6183 H   0  0  0  0  0  0  0  0  0  0  0  0
    6.6921    2.9370   -3.3634 H   0  0  0  0  0  0  0  0  0  0  0  0
    3.1820    0.6608   -1.7053 H   0  0  0  0  0  0  0  0  0  0  0  0
    2.5589   -1.6244    1.2245 H   0  0  0  0  0  0  0  0  0  0  0  0
    0.7126   -1.1066    2.2740 H   0  0  0  0  0  0  0  0  0  0  0  0
    0.8028   -2.8389    1.9135 H   0  0  0  0  0  0  0  0  0  0  0  0
   -1.5901   -3.0795    1.9380 H   0  0  0  0  0  0  0  0  0  0  0  0
   -1.2284   -2.0434    3.3109 H   0  0  0  0  0  0  0  0  0  0  0  0
   -3.1100   -1.0867    2.0208 H   0  0  0  0  0  0  0  0  0  0  0  0
   -1.7047   -0.0414    1.9847 H   0  0  0  0  0  0  0  0  0  0  0  0
   -4.2958   -1.1187   -0.0986 H   0  0  0  0  0  0  0  0  0  0  0  0
   -3.4380   -1.6843   -1.5491 H   0  0  0  0  0  0  0  0  0  0  0  0
   -4.4052   -3.3319   -0.3011 H   0  0  0  0  0  0  0  0  0  0  0  0
   -1.7700    0.3710   -1.5977 H   0  0  0  0  0  0  0  0  0  0  0  0
   -1.0628    0.9062   -0.1022 H   0  0  0  0  0  0  0  0  0  0  0  0
   -4.0326    0.9385   -2.2382 H   0  0  0  0  0  0  0  0  0  0  0  0
   -5.9527    2.4497   -1.9085 H   0  0  0  0  0  0  0  0  0  0  0  0
   -6.1640    3.7637    0.1846 H   0  0  0  0  0  0  0  0  0  0  0  0
   -4.4314    3.5677    1.9481 H   0  0  0  0  0  0  0  0  0  0  0  0
   -2.5022    2.0705    1.6355 H   0  0  0  0  0  0  0  0  0  0  0  0
   -0.7588   -1.6876   -1.5403 H   0  0  0  0  0  0  0  0  0  0  0  0
   -1.1110   -2.9424   -0.3832 H   0  0  0  0  0  0  0  0  0  0  0  0
    4.7739   -1.2847    1.8172 H   0  0  0  0  0  0  0  0  0  0  0  0
    6.9443   -0.2124    1.2950 H   0  0  0  0  0  0  0  0  0  0  0  0
  1  2  1  0
  2  3  1  0
  3  4  2  0
  4  5  1  0
  5  6  1  0
  6  7  1  0
  7  8  2  0
  7  9  1  0
  9 10  1  0
 10 11  1  0
 11 12  1  0
 12 13  1  0
 13 14  1  0
 14 15  1  0
 13 16  1  0
 16 17  1  0
 17 18  2  0
 18 19  1  0
 19 20  2  0
 20 21  1  0
 21 22  2  0
 13 23  1  0
  5 24  2  0
 24 25  1  0
 25 26  2  0
 26  3  1  0
 23  9  1  0
 22 17  1  0
  1 27  1  0
  1 28  1  0
  1 29  1  0
  4 30  1  0
  6 31  1  0
 10 32  1  0
 10 33  1  0
 11 34  1  0
 11 35  1  0
 12 36  1  0
 12 37  1  0
 14 38  1  0
 14 39  1  0
 15 40  1  0
 16 41  1  0
 16 42  1  0
 18 43  1  0
 19 44  1  0
 20 45  1  0
 21 46  1  0
 22 47  1  0
 23 48  1  0
 23 49  1  0
 24 50  1  0
 25 51  1  0
M  END
$$$$
OCNT-2315888
     RDKit          3D

 43 45  0  0  0  0  0  0  0  0999 V2000
    3.0796   -0.1419    1.6646 C   0  0  0  0  0  0  0  0  0  0  0  0
    4.2190   -0.1094    0.6470 C   0  0  0  0  0  0  0  0  0  0  0  0
    4.8627   -1.4923    0.5295 C   0  0  0  0  0  0  0  0  0  0  0  0
    3.7959    0.4666   -0.7191 C   0  0  0  0  0  0  0  0  0  0  0  0
    2.7959   -0.2961   -1.4475 N   0  0  0  0  0  0  0  0  0  0  0  0
    3.2365   -1.2905   -2.2529 N   0  0  0  0  0  0  0  0  0  0  0  0
    2.1289   -1.7971   -2.7847 C   0  0  0  0  0  0  0  0  0  0  0  0
    0.9787   -1.1333   -2.3372 C   0  0  0  0  0  0  0  0  0  0  0  0
    1.4221   -0.1467   -1.4654 C   0  0  0  0  0  0  0  0  0  0  0  0
    0.6683    0.8526   -0.7237 C   0  0  0  0  0  0  0  0  0  0  0  0
    1.2026    1.8361   -0.2244 O   0  0  0  0  0  0  0  0  0  0  0  0
   -0.6802    0.5672   -0.6179 N   0  0  0  0  0  0  0  0  0  0  0  0
   -1.7138    1.3455   -0.0343 C   0  0  0  0  0  0  0  0  0  0  0  0
   -1.4995    2.6448    0.4408 C   0  0  0  0  0  0  0  0  0  0  0  0
   -2.5496    3.3968    0.9745 C   0  0  0  0  0  0  0  0  0  0  0  0
   -3.8325    2.8664    1.0316 C   0  0  0  0  0  0  0  0  0  0  0  0
   -4.0666    1.5728    0.5690 C   0  0  0  0  0  0  0  0  0  0  0  0
   -3.0167    0.7909    0.0533 C   0  0  0  0  0  0  0  0  0  0  0  0
   -3.2844   -0.5782   -0.3960 C   0  0  0  0  0  0  0  0  0  0  0  0
   -2.8040   -1.1416   -1.4931 N   0  0  0  0  0  0  0  0  0  0  0  0
   -3.2683   -2.4306   -1.5131 N   0  0  0  0  0  0  0  0  0  0  0  0
   -3.9947   -2.6875   -0.4378 N   0  0  0  0  0  0  0  0  0  0  0  0
   -3.9918   -1.5474    0.2725 N   0  0  0  0  0  0  0  0  0  0  0  0
   -4.5972   -1.5153    1.5749 C   0  0  0  0  0  0  0  0  0  0  0  0
    3.4463   -0.4777    2.6408 H   0  0  0  0  0  0  0  0  0  0  0  0
    2.6511    0.8554    1.8024 H   0  0  0  0  0  0  0  0  0  0  0  0
    2.2807   -0.8250    1.3598 H   0  0  0  0  0  0  0  0  0  0  0  0
    4.9869    0.5675    1.0452 H   0  0  0  0  0  0  0  0  0  0  0  0
    4.1355   -2.2555    0.2345 H   0  0  0  0  0  0  0  0  0  0  0  0
    5.6740   -1.4851   -0.2059 H   0  0  0  0  0  0  0  0  0  0  0  0
    5.2894   -1.7990    1.4907 H   0  0  0  0  0  0  0  0  0  0  0  0
    4.6765    0.5266   -1.3730 H   0  0  0  0  0  0  0  0  0  0  0  0
    3.4474    1.4964   -0.6145 H   0  0  0  0  0  0  0  0  0  0  0  0
    2.2068   -2.6230   -3.4801 H   0  0  0  0  0  0  0  0  0  0  0  0
   -0.0385   -1.3435   -2.6386 H   0  0  0  0  0  0  0  0  0  0  0  0
   -0.9836   -0.3166   -1.0138 H   0  0  0  0  0  0  0  0  0  0  0  0
   -0.5235    3.1180    0.3941 H   0  0  0  0  0  0  0  0  0  0  0  0
   -2.3603    4.4078    1.3290 H   0  0  0  0  0  0  0  0  0  0  0  0
   -4.6504    3.4646    1.4263 H   0  0  0  0  0  0  0  0  0  0  0  0
   -5.0854    1.1935    0.5969 H   0  0  0  0  0  0  0  0  0  0  0  0
   -3.9988   -0.8891    2.2405 H   0  0  0  0  0  0  0  0  0  0  0  0
   -4.6357   -2.5300    1.9809 H   0  0  0  0  0  0  0  0  0  0  0  0
   -5.6093   -1.1170    1.4742 H   0  0  0  0  0  0  0  0  0  0  0  0
  1  2  1  0
  2  3  1  0
  2  4  1  0
  4  5  1  0
  5  6  1  0
  6  7  2  0
  7  8  1  0
  8  9  2  0
  9 10  1  0
 10 11  2  0
 10 12  1  0
 12 13  1  0
 13 14  2  0
 14 15  1  0
 15 16  2  0
 16 17  1  0
 17 18  2  0
 18 19  1  0
 19 20  2  0
 20 21  1  0
 21 22  2  0
 22 23  1  0
 23 24  1  0
  9  5  1  0
 18 13  1  0
 23 19  1  0
  1 25  1  0
  1 26  1  0
  1 27  1  0
  2 28  1  0
  3 29  1  0
  3 30  1  0
  3 31  1  0
  4 32  1  0
  4 33  1  0
  7 34  1  0
  8 35  1  0
 12 36  1  0
 14 37  1  0
 15 38  1  0
 16 39  1  0
 17 40  1  0
 24 41  1  0
 24 42  1  0
 24 43  1  0
M  END
$$$$
OCNT-2315903
     RDKit          3D

 47 51  0  0  0  0  0  0  0  0999 V2000
    2.4862    0.4822    0.5734 C   0  0  0  0  0  0  0  0  0  0  0  0
    1.1965    0.1151    0.7993 N   0  0  0  0  0  0  0  0  0  0  0  0
    0.8655   -1.1355    0.3935 C   0  0  0  0  0  0  0  0  0  0  0  0
   -0.5055   -1.5892    0.6131 C   0  0  0  0  0  0  0  0  0  0  0  0
   -0.9546   -2.8064    0.2545 N   0  0  0  0  0  0  0  0  0  0  0  0
   -2.2905   -2.7972    0.6483 O   0  0  0  0  0  0  0  0  0  0  0  0
   -2.5283   -1.5742    1.2025 C   0  0  0  0  0  0  0  0  0  0  0  0
   -3.9047   -1.1361    1.7766 C   0  0  0  0  0  0  0  0  0  0  0  0
   -5.1669   -1.6015    1.1020 C   0  0  0  0  0  0  0  0  0  0  0  0
   -4.7766   -0.1378    1.0291 C   0  0  0  0  0  0  0  0  0  0  0  0
   -4.3331    0.4142   -0.3103 C   0  0  0  0  0  0  0  0  0  0  0  0
   -5.2316    1.5736   -0.7406 C   0  0  0  0  0  0  0  0  0  0  0  0
   -6.6590    1.3349   -0.2699 C   0  0  0  0  0  0  0  0  0  0  0  0
   -6.7802    1.2127    1.1493 O   0  0  0  0  0  0  0  0  0  0  0  0
   -5.5810    0.8469    1.8360 C   0  0  0  0  0  0  0  0  0  0  0  0
   -1.4701   -0.8004    1.2099 N   0  0  0  0  0  0  0  0  0  0  0  0
    1.8105   -1.9534   -0.2107 C   0  0  0  0  0  0  0  0  0  0  0  0
    3.0965   -1.5701   -0.4410 N   0  0  0  0  0  0  0  0  0  0  0  0
    3.4472   -0.3221   -0.0546 C   0  0  0  0  0  0  0  0  0  0  0  0
    4.7653    0.1297   -0.2496 N   0  0  0  0  0  0  0  0  0  0  0  0
    4.8531    1.3947   -1.0090 C   0  0  0  0  0  0  0  0  0  0  0  0
    6.3243    1.8566   -1.1361 C   0  0  0  0  0  0  0  0  0  0  0  0
    7.2239    0.8323   -1.7024 N   0  0  0  0  0  0  0  0  0  0  0  0
    7.1148   -0.3895   -0.8773 C   0  0  0  0  0  0  0  0  0  0  0  0
    5.6692   -0.9232   -0.7616 C   0  0  0  0  0  0  0  0  0  0  0  0
    2.7405    1.4690    0.9451 H   0  0  0  0  0  0  0  0  0  0  0  0
   -3.9127   -1.0971    2.8607 H   0  0  0  0  0  0  0  0  0  0  0  0
   -6.0069   -1.8784    1.7311 H   0  0  0  0  0  0  0  0  0  0  0  0
   -5.0881   -2.2098    0.2074 H   0  0  0  0  0  0  0  0  0  0  0  0
   -4.3656   -0.3697   -1.0766 H   0  0  0  0  0  0  0  0  0  0  0  0
   -3.2991    0.7726   -0.2590 H   0  0  0  0  0  0  0  0  0  0  0  0
   -5.1912    1.7012   -1.8275 H   0  0  0  0  0  0  0  0  0  0  0  0
   -4.8562    2.5012   -0.2905 H   0  0  0  0  0  0  0  0  0  0  0  0
   -7.3048    2.1613   -0.5844 H   0  0  0  0  0  0  0  0  0  0  0  0
   -7.0633    0.4211   -0.7207 H   0  0  0  0  0  0  0  0  0  0  0  0
   -5.8743    0.4368    2.8087 H   0  0  0  0  0  0  0  0  0  0  0  0
   -4.9968    1.7531    2.0350 H   0  0  0  0  0  0  0  0  0  0  0  0
    1.5723   -2.9604   -0.5387 H   0  0  0  0  0  0  0  0  0  0  0  0
    4.2967    2.1976   -0.5127 H   0  0  0  0  0  0  0  0  0  0  0  0
    4.4274    1.2587   -2.0124 H   0  0  0  0  0  0  0  0  0  0  0  0
    6.3668    2.7482   -1.7715 H   0  0  0  0  0  0  0  0  0  0  0  0
    6.7024    2.1554   -0.1503 H   0  0  0  0  0  0  0  0  0  0  0  0
    6.8975    0.6058   -2.6423 H   0  0  0  0  0  0  0  0  0  0  0  0
    7.7512   -1.1653   -1.3171 H   0  0  0  0  0  0  0  0  0  0  0  0
    7.5154   -0.1820    0.1229 H   0  0  0  0  0  0  0  0  0  0  0  0
    5.3389   -1.2671   -1.7514 H   0  0  0  0  0  0  0  0  0  0  0  0
    5.6791   -1.7830   -0.0799 H   0  0  0  0  0  0  0  0  0  0  0  0
  1  2  2  0
  2  3  1  0
  3  4  1  0
  4  5  2  0
  5  6  1  0
  6  7  1  0
  7  8  1  0
  8  9  1  0
  9 10  1  0
 10 11  1  0
 11 12  1  0
 12 13  1  0
 13 14  1  0
 14 15  1  0
  7 16  2  0
  3 17  2  0
 17 18  1  0
 18 19  2  0
 19 20  1  0
 20 21  1  0
 21 22  1  0
 22 23  1  0
 23 24  1  0
 24 25  1  0
 19  1  1  0
 25 20  1  0
 16  4  1  0
 10  8  1  0
 15 10  1  0
  1 26  1  0
  8 27  1  0
  9 28  1  0
  9 29  1  0
 11 30  1  0
 11 31  1  0
 12 32  1  0
 12 33  1  0
 13 34  1  0
 13 35  1  0
 15 36  1  0
 15 37  1  0
 17 38  1  0
 21 39  1  0
 21 40  1  0
 22 41  1  0
 22 42  1  0
 23 43  1  0
 24 44  1  0
 24 45  1  0
 25 46  1  0
 25 47  1  0
M  END
$$$$
OCNT-2315910
     RDKit          3D

 36 38  0  0  0  0  0  0  0  0999 V2000
   -1.8948    2.8133   -0.7981 C   0  0  0  0  0  0  0  0  0  0  0  0
   -1.0238    2.7875    0.4535 C   0  0  0  0  0  0  0  0  0  0  0  0
   -1.3415    1.6148    1.3850 C   0  0  0  0  0  0  0  0  0  0  0  0
   -0.3981    0.4804    0.9522 C   0  0  0  0  0  0  0  0  0  0  0  0
   -1.1040   -0.5959    0.1441 C   0  0  0  0  0  0  0  0  0  0  0  0
   -1.9342   -1.5137    0.8153 C   0  0  0  0  0  0  0  0  0  0  0  0
   -2.5966   -2.5299    0.1203 C   0  0  0  0  0  0  0  0  0  0  0  0
   -2.4396   -2.6447   -1.2580 C   0  0  0  0  0  0  0  0  0  0  0  0
   -1.6241   -1.7429   -1.9282 C   0  0  0  0  0  0  0  0  0  0  0  0
   -1.4714   -1.8528   -3.2541 F   0  0  0  0  0  0  0  0  0  0  0  0
   -0.9591   -0.7282   -1.2454 C   0  0  0  0  0  0  0  0  0  0  0  0
    0.6975    1.1532    0.2541 N   0  0  0  0  0  0  0  0  0  0  0  0
    1.9884    0.6817    0.0579 C   0  0  0  0  0  0  0  0  0  0  0  0
    2.8838    1.4453   -0.2930 O   0  0  0  0  0  0  0  0  0  0  0  0
    2.1428   -0.6669    0.2869 N   0  0  0  0  0  0  0  0  0  0  0  0
    3.3375   -1.3602    0.2581 C   0  0  0  0  0  0  0  0  0  0  0  0
    3.5395   -2.7263    0.3136 C   0  0  0  0  0  0  0  0  0  0  0  0
    4.8633   -3.1349    0.2958 N   0  0  0  0  0  0  0  0  0  0  0  0
    5.6858   -2.1009    0.2313 N   0  0  0  0  0  0  0  0  0  0  0  0
    4.8799   -0.6321    0.1918 S   0  0  0  0  0  0  0  0  0  0  0  0
    0.4543    2.5837    0.1381 C   0  0  0  0  0  0  0  0  0  0  0  0
   -1.7627    1.9269   -1.4210 H   0  0  0  0  0  0  0  0  0  0  0  0
   -2.9539    2.8829   -0.5289 H   0  0  0  0  0  0  0  0  0  0  0  0
   -1.6487    3.6856   -1.4131 H   0  0  0  0  0  0  0  0  0  0  0  0
   -1.1728    3.7401    0.9755 H   0  0  0  0  0  0  0  0  0  0  0  0
   -1.0780    1.9121    2.4091 H   0  0  0  0  0  0  0  0  0  0  0  0
   -2.4023    1.3440    1.3917 H   0  0  0  0  0  0  0  0  0  0  0  0
    0.0280   -0.0002    1.8431 H   0  0  0  0  0  0  0  0  0  0  0  0
   -2.0746   -1.4408    1.8933 H   0  0  0  0  0  0  0  0  0  0  0  0
   -3.2369   -3.2284    0.6541 H   0  0  0  0  0  0  0  0  0  0  0  0
   -2.9481   -3.4260   -1.8140 H   0  0  0  0  0  0  0  0  0  0  0  0
   -0.3359   -0.0474   -1.8199 H   0  0  0  0  0  0  0  0  0  0  0  0
    1.3072   -1.2298    0.3067 H   0  0  0  0  0  0  0  0  0  0  0  0
    2.7661   -3.4793    0.3692 H   0  0  0  0  0  0  0  0  0  0  0  0
    1.0777    3.0878    0.8868 H   0  0  0  0  0  0  0  0  0  0  0  0
    0.7493    2.9417   -0.8537 H   0  0  0  0  0  0  0  0  0  0  0  0
  1  2  1  0
  2  3  1  0
  3  4  1  0
  4  5  1  0
  5  6  2  0
  6  7  1  0
  7  8  2  0
  8  9  1  0
  9 10  1  0
  9 11  2  0
  4 12  1  0
 12 13  1  0
 13 14  2  0
 13 15  1  0
 15 16  1  0
 16 17  2  0
 17 18  1  0
 18 19  2  0
 19 20  1  0
 12 21  1  0
 21  2  1  0
 11  5  1  0
 20 16  1  0
  1 22  1  0
  1 23  1  0
  1 24  1  0
  2 25  1  0
  3 26  1  0
  3 27  1  0
  4 28  1  0
  6 29  1  0
  7 30  1  0
  8 31  1  0
 11 32  1  0
 15 33  1  0
 17 34  1  0
 21 35  1  0
 21 36  1  0
M  END
$$$$
OCNT-2315954
     RDKit          3D

 44 46  0  0  0  0  0  0  0  0999 V2000
   -4.5794    1.9831   -0.9038 C   0  0  0  0  0  0  0  0  0  0  0  0
   -3.3116    1.4094   -1.5268 C   0  0  0  0  0  0  0  0  0  0  0  0
   -2.2323    1.1237   -0.5694 N   0  0  0  0  0  0  0  0  0  0  0  0
   -1.8414    2.1938    0.3632 C   0  0  0  0  0  0  0  0  0  0  0  0
   -0.3491    2.4984    0.2985 C   0  0  0  0  0  0  0  0  0  0  0  0
    0.5531    1.3680    0.7963 C   0  0  0  0  0  0  0  0  0  0  0  0
    0.4157    0.1000   -0.0640 C   0  0  0  0  0  0  0  0  0  0  0  0
    1.6347   -0.7426    0.0157 N   0  0  0  0  0  0  0  0  0  0  0  0
    2.7413   -0.1977   -0.7688 C   0  0  0  0  0  0  0  0  0  0  0  0
    3.9021   -1.1116   -0.6767 C   0  0  0  0  0  0  0  0  0  0  0  0
    4.5779   -1.8405   -1.6313 C   0  0  0  0  0  0  0  0  0  0  0  0
    5.6033   -2.5283   -1.0506 N   0  0  0  0  0  0  0  0  0  0  0  0
    5.5943   -2.2574    0.2470 N   0  0  0  0  0  0  0  0  0  0  0  0
    4.5776   -1.4069    0.4785 N   0  0  0  0  0  0  0  0  0  0  0  0
    4.3121   -0.9575    1.8203 C   0  0  0  0  0  0  0  0  0  0  0  0
   -0.8463   -0.6660    0.3531 C   0  0  0  0  0  0  0  0  0  0  0  0
   -0.7617   -1.8865    1.0584 C   0  0  0  0  0  0  0  0  0  0  0  0
   -1.8971   -2.6460    1.3265 C   0  0  0  0  0  0  0  0  0  0  0  0
   -3.1358   -2.1984    0.8953 C   0  0  0  0  0  0  0  0  0  0  0  0
   -3.2425   -0.9717    0.2354 C   0  0  0  0  0  0  0  0  0  0  0  0
   -2.1198   -0.1625   -0.0129 C   0  0  0  0  0  0  0  0  0  0  0  0
   -4.4295    3.0138   -0.5681 H   0  0  0  0  0  0  0  0  0  0  0  0
   -4.9280    1.4076   -0.0431 H   0  0  0  0  0  0  0  0  0  0  0  0
   -5.3819    2.0032   -1.6486 H   0  0  0  0  0  0  0  0  0  0  0  0
   -2.9296    2.1347   -2.2560 H   0  0  0  0  0  0  0  0  0  0  0  0
   -3.5543    0.5115   -2.1089 H   0  0  0  0  0  0  0  0  0  0  0  0
   -2.3533    3.1258    0.0981 H   0  0  0  0  0  0  0  0  0  0  0  0
   -2.1503    1.9607    1.3910 H   0  0  0  0  0  0  0  0  0  0  0  0
   -0.0702    2.7598   -0.7303 H   0  0  0  0  0  0  0  0  0  0  0  0
   -0.1511    3.3874    0.9102 H   0  0  0  0  0  0  0  0  0  0  0  0
    1.5767    1.7566    0.7704 H   0  0  0  0  0  0  0  0  0  0  0  0
    0.3387    1.1519    1.8512 H   0  0  0  0  0  0  0  0  0  0  0  0
    0.2857    0.3669   -1.1222 H   0  0  0  0  0  0  0  0  0  0  0  0
    1.3968   -1.6390   -0.4150 H   0  0  0  0  0  0  0  0  0  0  0  0
    2.4460   -0.0909   -1.8198 H   0  0  0  0  0  0  0  0  0  0  0  0
    3.0478    0.7915   -0.4144 H   0  0  0  0  0  0  0  0  0  0  0  0
    4.3861   -1.9055   -2.6926 H   0  0  0  0  0  0  0  0  0  0  0  0
    3.9593    0.0759    1.7945 H   0  0  0  0  0  0  0  0  0  0  0  0
    5.2349   -1.0068    2.4046 H   0  0  0  0  0  0  0  0  0  0  0  0
    3.5554   -1.6129    2.2578 H   0  0  0  0  0  0  0  0  0  0  0  0
    0.1990   -2.2645    1.4006 H   0  0  0  0  0  0  0  0  0  0  0  0
   -1.8094   -3.5888    1.8592 H   0  0  0  0  0  0  0  0  0  0  0  0
   -4.0268   -2.7900    1.0870 H   0  0  0  0  0  0  0  0  0  0  0  0
   -4.2372   -0.6518   -0.0524 H   0  0  0  0  0  0  0  0  0  0  0  0
  1  2  1  0
  2  3  1  0
  3  4  1  0
  4  5  1  0
  5  6  1  0
  6  7  1  0
  7  8  1  0
  8  9  1  0
  9 10  1  0
 10 11  2  0
 11 12  1  0
 12 13  2  0
 13 14  1  0
 14 15  1  0
  7 16  1  0
 16 17  2  0
 17 18  1  0
 18 19  2  0
 19 20  1  0
 20 21  2  0
 21  3  1  0
 14 10  1  0
 21 16  1  0
  1 22  1  0
  1 23  1  0
  1 24  1  0
  2 25  1  0
  2 26  1  0
  4 27  1  0
  4 28  1  0
  5 29  1  0
  5 30  1  0
  6 31  1  0
  6 32  1  0
  7 33  1  0
  8 34  1  0
  9 35  1  0
  9 36  1  0
 11 37  1  0
 15 38  1  0
 15 39  1  0
 15 40  1  0
 17 41  1  0
 18 42  1  0
 19 43  1  0
 20 44  1  0
M  END
$$$$
OCNT-2315965
     RDKit          3D

 46 48  0  0  0  0  0  0  0  0999 V2000
    6.1408    1.2807    0.1803 C   0  0  0  0  0  0  0  0  0  0  0  0
    5.1308    0.9987   -0.9321 C   0  0  0  0  0  0  0  0  0  0  0  0
    4.0105    2.0378   -0.9057 C   0  0  0  0  0  0  0  0  0  0  0  0
    4.6081   -0.4545   -0.9149 C   0  0  0  0  0  0  0  0  0  0  0  0
    3.8331   -0.8309    0.2720 N   0  0  0  0  0  0  0  0  0  0  0  0
    4.4955   -1.3498    1.3708 C   0  0  0  0  0  0  0  0  0  0  0  0
    3.8313   -1.7138    2.4712 C   0  0  0  0  0  0  0  0  0  0  0  0
    2.4006   -1.5683    2.5293 C   0  0  0  0  0  0  0  0  0  0  0  0
    1.6966   -1.0847    1.4888 C   0  0  0  0  0  0  0  0  0  0  0  0
    0.2055   -0.9709    1.6435 C   0  0  0  0  0  0  0  0  0  0  0  0
   -0.3197   -1.3151    2.6998 O   0  0  0  0  0  0  0  0  0  0  0  0
   -0.4422   -0.4728    0.5421 N   0  0  0  0  0  0  0  0  0  0  0  0
   -1.7862   -0.2527    0.3869 C   0  0  0  0  0  0  0  0  0  0  0  0
   -2.2681    0.2316   -0.7381 N   0  0  0  0  0  0  0  0  0  0  0  0
   -3.6353    0.3573   -0.6255 C   0  0  0  0  0  0  0  0  0  0  0  0
   -4.1698   -0.0410    0.5797 C   0  0  0  0  0  0  0  0  0  0  0  0
   -5.6170    0.0238    0.9352 C   0  0  0  0  0  0  0  0  0  0  0  0
   -6.4812    0.1698   -0.2641 N   0  0  0  0  0  0  0  0  0  0  0  0
   -6.7299   -1.1220   -0.9042 C   0  0  0  0  0  0  0  0  0  0  0  0
   -5.9169    1.1584   -1.2174 C   0  0  0  0  0  0  0  0  0  0  0  0
   -4.4906    0.8526   -1.7379 C   0  0  0  0  0  0  0  0  0  0  0  0
   -2.9343   -0.5784    1.6124 S   0  0  0  0  0  0  0  0  0  0  0  0
    2.4401   -0.6922    0.2471 C   0  0  0  0  0  0  0  0  0  0  0  0
    1.8184   -0.2710   -0.7291 O   0  0  0  0  0  0  0  0  0  0  0  0
    6.9449    0.5377    0.1761 H   0  0  0  0  0  0  0  0  0  0  0  0
    6.5996    2.2657    0.0399 H   0  0  0  0  0  0  0  0  0  0  0  0
    5.6696    1.2763    1.1682 H   0  0  0  0  0  0  0  0  0  0  0  0
    5.6629    1.1239   -1.8849 H   0  0  0  0  0  0  0  0  0  0  0  0
    3.4660    2.0235    0.0438 H   0  0  0  0  0  0  0  0  0  0  0  0
    4.4189    3.0459   -1.0365 H   0  0  0  0  0  0  0  0  0  0  0  0
    3.2973    1.8636   -1.7177 H   0  0  0  0  0  0  0  0  0  0  0  0
    3.9836   -0.6130   -1.8031 H   0  0  0  0  0  0  0  0  0  0  0  0
    5.4508   -1.1512   -1.0142 H   0  0  0  0  0  0  0  0  0  0  0  0
    5.5751   -1.4512    1.3062 H   0  0  0  0  0  0  0  0  0  0  0  0
    4.3488   -2.1205    3.3344 H   0  0  0  0  0  0  0  0  0  0  0  0
    1.9134   -1.8687    3.4540 H   0  0  0  0  0  0  0  0  0  0  0  0
    0.0992   -0.2242   -0.2846 H   0  0  0  0  0  0  0  0  0  0  0  0
   -5.9239   -0.8478    1.5259 H   0  0  0  0  0  0  0  0  0  0  0  0
   -5.7788    0.9010    1.5748 H   0  0  0  0  0  0  0  0  0  0  0  0
   -5.8165   -1.6208   -1.2447 H   0  0  0  0  0  0  0  0  0  0  0  0
   -7.3941   -0.9986   -1.7669 H   0  0  0  0  0  0  0  0  0  0  0  0
   -7.2454   -1.7957   -0.2105 H   0  0  0  0  0  0  0  0  0  0  0  0
   -5.9036    2.1340   -0.7118 H   0  0  0  0  0  0  0  0  0  0  0  0
   -6.5959    1.2841   -2.0699 H   0  0  0  0  0  0  0  0  0  0  0  0
   -4.5352    0.0869   -2.5209 H   0  0  0  0  0  0  0  0  0  0  0  0
   -4.0563    1.7564   -2.1786 H   0  0  0  0  0  0  0  0  0  0  0  0
  1  2  1  0
  2  3  1  0
  2  4  1  0
  4  5  1  0
  5  6  1  0
  6  7  2  0
  7  8  1  0
  8  9  2  0
  9 10  1  0
 10 11  2  0
 10 12  1  0
 12 13  1  0
 13 14  2  0
 14 15  1  0
 15 16  2  0
 16 17  1  0
 17 18  1  0
 18 19  1  0
 18 20  1  0
 20 21  1  0
 16 22  1  0
  9 23  1  0
 23 24  2  0
 23  5  1  0
 22 13  1  0
 21 15  1  0
  1 25  1  0
  1 26  1  0
  1 27  1  0
  2 28  1  0
  3 29  1  0
  3 30  1  0
  3 31  1  0
  4 32  1  0
  4 33  1  0
  6 34  1  0
  7 35  1  0
  8 36  1  0
 12 37  1  0
 17 38  1  0
 17 39  1  0
 19 40  1  0
 19 41  1  0
 19 42  1  0
 20 43  1  0
 20 44  1  0
 21 45  1  0
 21 46  1  0
M  END
$$$$
OCNT-2315978
     RDKit          3D

 36 39  0  0  0  0  0  0  0  0999 V2000
   -2.1989    2.2225    0.4193 C   0  0  0  0  0  0  0  0  0  0  0  0
   -2.6064    0.8693    0.1239 N   0  0  0  0  0  0  0  0  0  0  0  0
   -3.9129    0.4686   -0.0302 C   0  0  0  0  0  0  0  0  0  0  0  0
   -5.1509    1.0960    0.1177 C   0  0  0  0  0  0  0  0  0  0  0  0
   -6.2603    0.3016   -0.1647 C   0  0  0  0  0  0  0  0  0  0  0  0
   -6.0740   -1.0166   -0.5662 C   0  0  0  0  0  0  0  0  0  0  0  0
   -4.8830   -1.6326   -0.7160 N   0  0  0  0  0  0  0  0  0  0  0  0
   -3.8143   -0.8561   -0.4330 C   0  0  0  0  0  0  0  0  0  0  0  0
   -2.5131   -1.2550   -0.5096 N   0  0  0  0  0  0  0  0  0  0  0  0
   -1.7859   -0.2182   -0.1254 C   0  0  0  0  0  0  0  0  0  0  0  0
   -0.3227   -0.2478   -0.0426 C   0  0  0  0  0  0  0  0  0  0  0  0
    0.4022   -0.9001   -1.0479 C   0  0  0  0  0  0  0  0  0  0  0  0
    1.8001   -0.9705   -0.9957 C   0  0  0  0  0  0  0  0  0  0  0  0
    2.5160   -0.4013    0.0697 C   0  0  0  0  0  0  0  0  0  0  0  0
    3.9840   -0.4810    0.1282 C   0  0  0  0  0  0  0  0  0  0  0  0
    4.7664    0.6658    0.3097 C   0  0  0  0  0  0  0  0  0  0  0  0
    6.1465    0.5397    0.3572 C   0  0  0  0  0  0  0  0  0  0  0  0
    6.7971   -0.6355    0.2414 N   0  0  0  0  0  0  0  0  0  0  0  0
    6.0332   -1.7334    0.0691 C   0  0  0  0  0  0  0  0  0  0  0  0
    4.6484   -1.7073    0.0056 C   0  0  0  0  0  0  0  0  0  0  0  0
    1.7843    0.2351    1.0827 C   0  0  0  0  0  0  0  0  0  0  0  0
    0.3905    0.3006    1.0250 C   0  0  0  0  0  0  0  0  0  0  0  0
   -0.2517    0.9012    2.0385 F   0  0  0  0  0  0  0  0  0  0  0  0
   -1.2179    2.4205   -0.0176 H   0  0  0  0  0  0  0  0  0  0  0  0
   -2.1777    2.3464    1.5043 H   0  0  0  0  0  0  0  0  0  0  0  0
   -2.9165    2.9197   -0.0215 H   0  0  0  0  0  0  0  0  0  0  0  0
   -5.2519    2.1274    0.4326 H   0  0  0  0  0  0  0  0  0  0  0  0
   -7.2641    0.7047   -0.0743 H   0  0  0  0  0  0  0  0  0  0  0  0
   -6.9335   -1.6444   -0.7901 H   0  0  0  0  0  0  0  0  0  0  0  0
   -0.1250   -1.3655   -1.8805 H   0  0  0  0  0  0  0  0  0  0  0  0
    2.3260   -1.4762   -1.8042 H   0  0  0  0  0  0  0  0  0  0  0  0
    4.3160    1.6488    0.4009 H   0  0  0  0  0  0  0  0  0  0  0  0
    6.7830    1.4096    0.4921 H   0  0  0  0  0  0  0  0  0  0  0  0
    6.5788   -2.6687   -0.0178 H   0  0  0  0  0  0  0  0  0  0  0  0
    4.1010   -2.6356   -0.1246 H   0  0  0  0  0  0  0  0  0  0  0  0
    2.2867    0.6685    1.9438 H   0  0  0  0  0  0  0  0  0  0  0  0
  1  2  1  0
  2  3  1  0
  3  4  1  0
  4  5  2  0
  5  6  1  0
  6  7  2  0
  7  8  1  0
  8  9  1  0
  9 10  2  0
 10 11  1  0
 11 12  1  0
 12 13  2  0
 13 14  1  0
 14 15  1  0
 15 16  2  0
 16 17  1  0
 17 18  2  0
 18 19  1  0
 19 20  2  0
 14 21  2  0
 21 22  1  0
 22 23  1  0
 10  2  1  0
 22 11  2  0
  8  3  2  0
 20 15  1  0
  1 24  1  0
  1 25  1  0
  1 26  1  0
  4 27  1  0
  5 28  1  0
  6 29  1  0
 12 30  1  0
 13 31  1  0
 16 32  1  0
 17 33  1  0
 19 34  1  0
 20 35  1  0
 21 36  1  0
M  END
$$$$
OCNT-2315992
     RDKit          3D

  0  0  0  0  0  0  0  0  0  0999 V3000
M  V30 BEGIN CTAB
M  V30 COUNTS 43 46 0 0 0
M  V30 BEGIN ATOM
M  V30 1 O -0.123919 -2.705034 -2.889670 0
M  V30 2 C -0.289929 -1.994599 -1.902376 0
M  V30 3 N 0.770368 -1.450067 -1.201730 0
M  V30 4 C 2.133888 -1.574059 -1.686284 0
M  V30 5 C 3.168727 -1.384560 -0.573395 0
M  V30 6 C 3.141201 -0.014412 0.036624 0
M  V30 7 C 2.590177 0.326316 1.257384 0
M  V30 8 N 2.778914 1.667437 1.456704 0
M  V30 9 C 3.445374 2.216408 0.386694 0
M  V30 10 C 3.857232 3.534133 0.161428 0
M  V30 11 C 4.538560 3.794924 -1.026479 0
M  V30 12 F 4.961191 5.041519 -1.270842 0
M  V30 13 C 4.800322 2.799112 -1.956333 0
M  V30 14 C 4.380161 1.486156 -1.716367 0
M  V30 15 C 3.690218 1.184675 -0.521502 0
M  V30 16 C -1.614976 -1.663791 -1.381780 0
M  V30 17 C -1.965416 -0.847824 -0.321460 0
M  V30 18 N -3.327139 -0.939358 -0.261833 0
M  V30 19 C -4.175431 -0.172328 0.672354 0 CFG=2
M  V30 20 C -3.848092 -0.454216 2.159655 0
M  V30 21 C -4.965247 -1.509826 2.166857 0
M  V30 22 C -5.571044 -0.808716 0.929564 0 CFG=1
M  V30 23 O -6.629182 0.129883 1.224329 0
M  V30 24 N -3.806586 -1.703465 -1.250134 0
M  V30 25 N -2.769488 -2.172856 -1.931217 0
M  V30 26 H 0.584984 -0.693505 -0.558892 0
M  V30 27 H 2.261274 -2.565166 -2.136849 0
M  V30 28 H 2.263141 -0.830029 -2.480635 0
M  V30 29 H 3.000554 -2.133764 0.211698 0
M  V30 30 H 4.169332 -1.575036 -0.978565 0
M  V30 31 H 2.092836 -0.275662 2.007058 0
M  V30 32 H 2.489112 2.184416 2.276452 0
M  V30 33 H 3.669478 4.329032 0.873108 0
M  V30 34 H 5.337961 3.045834 -2.866946 0
M  V30 35 H 4.594501 0.708736 -2.443891 0
M  V30 36 H -1.399757 -0.245712 0.370563 0
M  V30 37 H -4.197092 0.891366 0.409231 0
M  V30 38 H -2.849814 -0.831993 2.401629 0
M  V30 39 H -4.054259 0.401882 2.814185 0
M  V30 40 H -4.617581 -2.529421 1.967776 0
M  V30 41 H -5.588292 -1.519155 3.065339 0
M  V30 42 H -5.928832 -1.522549 0.180617 0
M  V30 43 H -6.997432 0.375273 0.355478 0
M  V30 END ATOM
M  V30 BEGIN BOND
M  V30 1 2 1 2
M  V30 2 1 2 3
M  V30 3 1 3 4
M  V30 4 1 4 5
M  V30 5 1 5 6
M  V30 6 2 6 7
M  V30 7 1 7 8
M  V30 8 1 8 9
M  V30 9 2 9 10
M  V30 10 1 10 11
M  V30 11 1 11 12
M  V30 12 2 11 13
M  V30 13 1 13 14
M  V30 14 2 14 15
M  V30 15 1 2 16
M  V30 16 2 16 17
M  V30 17 1 17 18
M  V30 18 1 18 19
M  V30 19 1 19 20
M  V30 20 1 20 21
M  V30 21 1 21 22
M  V30 22 1 22 23
M  V30 23 1 18 24
M  V30 24 2 24 25
M  V30 25 1 15 6
M  V30 26 1 25 16
M  V30 27 1 15 9
M  V30 28 1 22 19
M  V30 29 1 3 26
M  V30 30 1 4 27
M  V30 31 1 4 28
M  V30 32 1 5 29
M  V30 33 1 5 30
M  V30 34 1 7 31
M  V30 35 1 8 32
M  V30 36 1 10 33
M  V30 37 1 13 34
M  V30 38 1 14 35
M  V30 39 1 17 36
M  V30 40 1 19 37 CFG=3
M  V30 41 1 20 38
M  V30 42 1 20 39
M  V30 43 1 21 40
M  V30 44 1 21 41
M  V30 45 1 22 42 CFG=3
M  V30 46 1 23 43
M  V30 END BOND
M  V30 BEGIN COLLECTION
M  V30 MDLV30/STERAC1 ATOMS=(2 19 22)
M  V30 END COLLECTION
M  V30 END CTAB
M  END
>  <_CXSMILES_Data>  (1057) 
|&1:18,21|

$$$$
OCNT-2315994
     RDKit          3D

 40 43  0  0  0  0  0  0  0  0999 V2000
    0.3677   -3.6254   -0.9527 O   0  0  0  0  0  0  0  0  0  0  0  0
    0.9742   -2.6880   -0.4464 C   0  0  0  0  0  0  0  0  0  0  0  0
    0.5902   -2.0583    0.7137 N   0  0  0  0  0  0  0  0  0  0  0  0
   -0.6498   -2.3526    1.3817 C   0  0  0  0  0  0  0  0  0  0  0  0
   -1.7213   -1.3758    0.9740 C   0  0  0  0  0  0  0  0  0  0  0  0
   -1.9642   -0.2189    1.7215 C   0  0  0  0  0  0  0  0  0  0  0  0
   -2.9449    0.6991    1.3224 C   0  0  0  0  0  0  0  0  0  0  0  0
   -3.7015    0.4824    0.1583 C   0  0  0  0  0  0  0  0  0  0  0  0
   -4.6968    1.4239   -0.2379 N   0  0  0  0  0  0  0  0  0  0  0  0
   -5.0378    2.5945    0.4143 C   0  0  0  0  0  0  0  0  0  0  0  0
   -6.0400    3.1758   -0.3245 C   0  0  0  0  0  0  0  0  0  0  0  0
   -6.3387    2.4144   -1.4123 N   0  0  0  0  0  0  0  0  0  0  0  0
   -5.5282    1.3799   -1.3388 C   0  0  0  0  0  0  0  0  0  0  0  0
   -3.4437   -0.6728   -0.5882 C   0  0  0  0  0  0  0  0  0  0  0  0
   -4.1111   -0.9572   -1.7137 F   0  0  0  0  0  0  0  0  0  0  0  0
   -2.4672   -1.5879   -0.1903 C   0  0  0  0  0  0  0  0  0  0  0  0
    2.1888   -2.1097   -1.0287 C   0  0  0  0  0  0  0  0  0  0  0  0
    2.7845   -2.5692   -2.1861 C   0  0  0  0  0  0  0  0  0  0  0  0
    4.1725   -1.6404   -2.5471 S   0  0  0  0  0  0  0  0  0  0  0  0
    3.9022   -0.6743   -1.1423 C   0  0  0  0  0  0  0  0  0  0  0  0
    4.8075    0.4327   -0.7977 C   0  0  0  0  0  0  0  0  0  0  0  0
    4.5837    1.2089    0.3356 C   0  0  0  0  0  0  0  0  0  0  0  0
    5.3863    2.2425    0.7004 N   0  0  0  0  0  0  0  0  0  0  0  0
    6.4336    2.4731   -0.1213 C   0  0  0  0  0  0  0  0  0  0  0  0
    6.6681    1.7090   -1.2515 C   0  0  0  0  0  0  0  0  0  0  0  0
    5.8678    0.6788   -1.6137 N   0  0  0  0  0  0  0  0  0  0  0  0
    2.8373   -1.0191   -0.4353 N   0  0  0  0  0  0  0  0  0  0  0  0
    1.1189   -1.2318    0.9698 H   0  0  0  0  0  0  0  0  0  0  0  0
   -0.9693   -3.3787    1.1670 H   0  0  0  0  0  0  0  0  0  0  0  0
   -0.4657   -2.2892    2.4598 H   0  0  0  0  0  0  0  0  0  0  0  0
   -1.3907   -0.0191    2.6254 H   0  0  0  0  0  0  0  0  0  0  0  0
   -3.0848    1.5742    1.9500 H   0  0  0  0  0  0  0  0  0  0  0  0
   -4.5671    2.9282    1.3250 H   0  0  0  0  0  0  0  0  0  0  0  0
   -6.5594    4.1044   -0.1250 H   0  0  0  0  0  0  0  0  0  0  0  0
   -5.5174    0.5814   -2.0660 H   0  0  0  0  0  0  0  0  0  0  0  0
   -2.2928   -2.4683   -0.8064 H   0  0  0  0  0  0  0  0  0  0  0  0
    2.4696   -3.3894   -2.8170 H   0  0  0  0  0  0  0  0  0  0  0  0
    3.7418    1.0224    0.9943 H   0  0  0  0  0  0  0  0  0  0  0  0
    7.0850    3.2949    0.1541 H   0  0  0  0  0  0  0  0  0  0  0  0
    7.5129    1.9055   -1.9023 H   0  0  0  0  0  0  0  0  0  0  0  0
  1  2  2  0
  2  3  1  0
  3  4  1  0
  4  5  1  0
  5  6  1  0
  6  7  2  0
  7  8  1  0
  8  9  1  0
  9 10  1  0
 10 11  2  0
 11 12  1  0
 12 13  2  0
  8 14  2  0
 14 15  1  0
 14 16  1  0
  2 17  1  0
 17 18  2  0
 18 19  1  0
 19 20  1  0
 20 21  1  0
 21 22  2  0
 22 23  1  0
 23 24  2  0
 24 25  1  0
 25 26  2  0
 20 27  2  0
 16  5  2  0
 27 17  1  0
 13  9  1  0
 26 21  1  0
  3 28  1  0
  4 29  1  0
  4 30  1  0
  6 31  1  0
  7 32  1  0
 10 33  1  0
 11 34  1  0
 13 35  1  0
 16 36  1  0
 18 37  1  0
 22 38  1  0
 24 39  1  0
 25 40  1  0
M  END
$$$$
OCNT-2315996
     RDKit          3D

 50 53  0  0  0  0  0  0  0  0999 V2000
   -7.0428   -0.4944   -1.6429 C   0  0  0  0  0  0  0  0  0  0  0  0
   -6.8201    0.9152   -1.5896 O   0  0  0  0  0  0  0  0  0  0  0  0
   -6.4491    1.2906   -0.3109 C   0  0  0  0  0  0  0  0  0  0  0  0
   -7.3587    2.0745    0.4079 C   0  0  0  0  0  0  0  0  0  0  0  0
   -7.0420    2.5260    1.6839 C   0  0  0  0  0  0  0  0  0  0  0  0
   -5.8039    2.2285    2.2601 C   0  0  0  0  0  0  0  0  0  0  0  0
   -4.8814    1.4742    1.5140 C   0  0  0  0  0  0  0  0  0  0  0  0
   -5.1743    0.9963    0.2337 C   0  0  0  0  0  0  0  0  0  0  0  0
   -4.1455    0.2786   -0.3696 N   0  0  0  0  0  0  0  0  0  0  0  0
   -3.1117    0.2211    0.4331 C   0  0  0  0  0  0  0  0  0  0  0  0
   -1.9494   -0.3860    0.0306 N   0  0  0  0  0  0  0  0  0  0  0  0
   -0.8512   -0.6679    0.7980 C   0  0  0  0  0  0  0  0  0  0  0  0
   -0.7862   -0.5487    2.0190 O   0  0  0  0  0  0  0  0  0  0  0  0
    0.2530   -1.1325    0.0724 N   0  0  0  0  0  0  0  0  0  0  0  0
    1.4090   -1.5870    0.8413 C   0  0  0  0  0  0  0  0  0  0  0  0
    2.3508   -2.4709    0.0325 C   0  0  0  0  0  0  0  0  0  0  0  0
    2.7927   -1.8322   -1.2921 C   0  0  0  0  0  0  0  0  0  0  0  0
    4.2395   -1.3354   -1.2331 C   0  0  0  0  0  0  0  0  0  0  0  0
    5.0905   -1.8610   -1.9447 O   0  0  0  0  0  0  0  0  0  0  0  0
    4.4554   -0.3007   -0.3424 N   0  0  0  0  0  0  0  0  0  0  0  0
    5.6735    0.3668   -0.0825 C   0  0  0  0  0  0  0  0  0  0  0  0
    5.6423    1.4167    0.8372 C   0  0  0  0  0  0  0  0  0  0  0  0
    6.8184    2.0963    1.1114 C   0  0  0  0  0  0  0  0  0  0  0  0
    8.0018    1.8055    0.5369 N   0  0  0  0  0  0  0  0  0  0  0  0
    8.0077    0.7877   -0.3478 C   0  0  0  0  0  0  0  0  0  0  0  0
    6.8850    0.0471   -0.6861 C   0  0  0  0  0  0  0  0  0  0  0  0
    1.8379   -0.7403   -1.7869 C   0  0  0  0  0  0  0  0  0  0  0  0
    0.3993   -1.0324   -1.3818 C   0  0  0  0  0  0  0  0  0  0  0  0
   -3.2813    0.9989    1.9342 S   0  0  0  0  0  0  0  0  0  0  0  0
   -6.1237   -1.0612   -1.4650 H   0  0  0  0  0  0  0  0  0  0  0  0
   -7.3970   -0.7375   -2.6494 H   0  0  0  0  0  0  0  0  0  0  0  0
   -7.8215   -0.7934   -0.9316 H   0  0  0  0  0  0  0  0  0  0  0  0
   -8.3186    2.3275   -0.0366 H   0  0  0  0  0  0  0  0  0  0  0  0
   -7.7610    3.1262    2.2382 H   0  0  0  0  0  0  0  0  0  0  0  0
   -5.5531    2.5889    3.2541 H   0  0  0  0  0  0  0  0  0  0  0  0
   -2.0320   -0.8155   -0.8751 H   0  0  0  0  0  0  0  0  0  0  0  0
    1.9277   -0.6941    1.2067 H   0  0  0  0  0  0  0  0  0  0  0  0
    1.0628   -2.1369    1.7244 H   0  0  0  0  0  0  0  0  0  0  0  0
    3.2137   -2.7549    0.6467 H   0  0  0  0  0  0  0  0  0  0  0  0
    1.8195   -3.4037   -0.1997 H   0  0  0  0  0  0  0  0  0  0  0  0
    2.7912   -2.6365   -2.0428 H   0  0  0  0  0  0  0  0  0  0  0  0
    3.6545    0.0490    0.1658 H   0  0  0  0  0  0  0  0  0  0  0  0
    4.7293    1.7143    1.3399 H   0  0  0  0  0  0  0  0  0  0  0  0
    6.8382    2.9179    1.8210 H   0  0  0  0  0  0  0  0  0  0  0  0
    8.9719    0.5719   -0.8007 H   0  0  0  0  0  0  0  0  0  0  0  0
    6.9923   -0.7543   -1.4072 H   0  0  0  0  0  0  0  0  0  0  0  0
    1.9084   -0.6638   -2.8787 H   0  0  0  0  0  0  0  0  0  0  0  0
    2.1201    0.2452   -1.3983 H   0  0  0  0  0  0  0  0  0  0  0  0
   -0.2439   -0.2401   -1.7749 H   0  0  0  0  0  0  0  0  0  0  0  0
    0.0622   -1.9834   -1.8083 H   0  0  0  0  0  0  0  0  0  0  0  0
  1  2  1  0
  2  3  1  0
  3  4  1  0
  4  5  2  0
  5  6  1  0
  6  7  2  0
  7  8  1  0
  8  9  1  0
  9 10  2  0
 10 11  1  0
 11 12  1  0
 12 13  2  0
 12 14  1  0
 14 15  1  0
 15 16  1  0
 16 17  1  0
 17 18  1  0
 18 19  2  0
 18 20  1  0
 20 21  1  0
 21 22  2  0
 22 23  1  0
 23 24  2  0
 24 25  1  0
 25 26  2  0
 17 27  1  0
 27 28  1  0
 10 29  1  0
  8  3  2  0
 28 14  1  0
 29  7  1  0
 26 21  1  0
  1 30  1  0
  1 31  1  0
  1 32  1  0
  4 33  1  0
  5 34  1  0
  6 35  1  0
 11 36  1  0
 15 37  1  0
 15 38  1  0
 16 39  1  0
 16 40  1  0
 17 41  1  0
 20 42  1  0
 22 43  1  0
 23 44  1  0
 25 45  1  0
 26 46  1  0
 27 47  1  0
 27 48  1  0
 28 49  1  0
 28 50  1  0
M  END
$$$$
OCNT-2316001
     RDKit          3D

 40 43  0  0  0  0  0  0  0  0999 V2000
   -7.1683   -0.7055   -1.2347 C   0  0  0  0  0  0  0  0  0  0  0  0
   -6.2616   -1.7649   -1.1786 C   0  0  0  0  0  0  0  0  0  0  0  0
   -4.9505   -1.5739   -0.7603 C   0  0  0  0  0  0  0  0  0  0  0  0
   -4.1066   -2.6221   -0.7203 N   0  0  0  0  0  0  0  0  0  0  0  0
   -2.8433   -2.3593   -0.3033 C   0  0  0  0  0  0  0  0  0  0  0  0
   -2.4239   -1.0915    0.0668 C   0  0  0  0  0  0  0  0  0  0  0  0
   -1.0671   -0.8528    0.5078 C   0  0  0  0  0  0  0  0  0  0  0  0
   -0.5306    0.3602    0.8822 C   0  0  0  0  0  0  0  0  0  0  0  0
    0.7612    0.0637    1.1918 N   0  0  0  0  0  0  0  0  0  0  0  0
    1.7830    0.9538    1.6946 C   0  0  0  0  0  0  0  0  0  0  0  0
    2.3344    1.8930    0.6242 C   0  0  0  0  0  0  0  0  0  0  0  0
    2.9044    1.2300   -0.5038 O   0  0  0  0  0  0  0  0  0  0  0  0
    4.1320    0.5586   -0.2629 C   0  0  0  0  0  0  0  0  0  0  0  0
    4.5754   -0.1827   -1.5041 C   0  0  0  0  0  0  0  0  0  0  0  0
    6.0543   -0.3658   -1.2479 C   0  0  0  0  0  0  0  0  0  0  0  0
    6.4894    0.7659   -0.4770 O   0  0  0  0  0  0  0  0  0  0  0  0
    5.3233    1.4797   -0.0416 C   0  0  0  0  0  0  0  0  0  0  0  0
    1.0104   -1.2519    1.0580 N   0  0  0  0  0  0  0  0  0  0  0  0
   -0.1052   -1.8246    0.6245 N   0  0  0  0  0  0  0  0  0  0  0  0
   -3.2699   -0.0295    0.0306 N   0  0  0  0  0  0  0  0  0  0  0  0
   -4.5295   -0.2729   -0.3834 C   0  0  0  0  0  0  0  0  0  0  0  0
   -5.4422    0.7732   -0.4439 C   0  0  0  0  0  0  0  0  0  0  0  0
   -6.7569    0.5687   -0.8660 C   0  0  0  0  0  0  0  0  0  0  0  0
   -8.1891   -0.8796   -1.5657 H   0  0  0  0  0  0  0  0  0  0  0  0
   -6.5815   -2.7634   -1.4671 H   0  0  0  0  0  0  0  0  0  0  0  0
   -2.1751   -3.2143   -0.2778 H   0  0  0  0  0  0  0  0  0  0  0  0
   -0.9466    1.3551    0.9392 H   0  0  0  0  0  0  0  0  0  0  0  0
    1.3305    1.5347    2.5063 H   0  0  0  0  0  0  0  0  0  0  0  0
    2.5745    0.3384    2.1342 H   0  0  0  0  0  0  0  0  0  0  0  0
    3.0704    2.5756    1.0631 H   0  0  0  0  0  0  0  0  0  0  0  0
    1.5221    2.5180    0.2359 H   0  0  0  0  0  0  0  0  0  0  0  0
    4.0374   -0.1601    0.5590 H   0  0  0  0  0  0  0  0  0  0  0  0
    4.4096    0.4326   -2.3972 H   0  0  0  0  0  0  0  0  0  0  0  0
    4.0456   -1.1272   -1.6581 H   0  0  0  0  0  0  0  0  0  0  0  0
    6.6362   -0.4268   -2.1718 H   0  0  0  0  0  0  0  0  0  0  0  0
    6.2459   -1.2660   -0.6542 H   0  0  0  0  0  0  0  0  0  0  0  0
    5.4404    1.7571    1.0103 H   0  0  0  0  0  0  0  0  0  0  0  0
    5.2403    2.4029   -0.6261 H   0  0  0  0  0  0  0  0  0  0  0  0
   -5.1202    1.7709   -0.1557 H   0  0  0  0  0  0  0  0  0  0  0  0
   -7.4527    1.4030   -0.9053 H   0  0  0  0  0  0  0  0  0  0  0  0
  1  2  1  0
  2  3  2  0
  3  4  1  0
  4  5  2  0
  5  6  1  0
  6  7  1  0
  7  8  2  0
  8  9  1  0
  9 10  1  0
 10 11  1  0
 11 12  1  0
 12 13  1  0
 13 14  1  0
 14 15  1  0
 15 16  1  0
 16 17  1  0
  9 18  1  0
 18 19  2  0
  6 20  2  0
 20 21  1  0
 21 22  2  0
 22 23  1  0
 23  1  2  0
 21  3  1  0
 19  7  1  0
 17 13  1  0
  1 24  1  0
  2 25  1  0
  5 26  1  0
  8 27  1  0
 10 28  1  0
 10 29  1  0
 11 30  1  0
 11 31  1  0
 13 32  1  0
 14 33  1  0
 14 34  1  0
 15 35  1  0
 15 36  1  0
 17 37  1  0
 17 38  1  0
 22 39  1  0
 23 40  1  0
M  END
$$$$
OCNT-2316009
     RDKit          3D

 45 48  0  0  0  0  0  0  0  0999 V2000
    2.6708    2.6587   -2.7433 N   0  0  0  0  0  0  0  0  0  0  0  0
    2.7770    1.8507   -1.9172 C   0  0  0  0  0  0  0  0  0  0  0  0
    2.9534    0.8800   -0.9042 C   0  0  0  0  0  0  0  0  0  0  0  0
    2.0270    0.3104   -0.0570 C   0  0  0  0  0  0  0  0  0  0  0  0
    0.6916    0.5579    0.0200 N   0  0  0  0  0  0  0  0  0  0  0  0
    0.2502    1.9437    0.2778 C   0  0  0  0  0  0  0  0  0  0  0  0
   -1.2477    2.0797   -0.0111 C   0  0  0  0  0  0  0  0  0  0  0  0
   -2.0289    1.1354    0.7306 O   0  0  0  0  0  0  0  0  0  0  0  0
   -1.6471   -0.2432    0.5105 C   0  0  0  0  0  0  0  0  0  0  0  0
   -2.4066   -1.0768    1.5694 C   0  0  0  0  0  0  0  0  0  0  0  0
   -3.9030   -1.3223    1.3566 C   0  0  0  0  0  0  0  0  0  0  0  0
   -4.6965   -0.1614    0.7686 C   0  0  0  0  0  0  0  0  0  0  0  0
   -4.3918    0.1978   -0.6907 C   0  0  0  0  0  0  0  0  0  0  0  0
   -3.4139   -0.7185   -1.4157 C   0  0  0  0  0  0  0  0  0  0  0  0
   -1.9570   -0.7203   -0.9300 C   0  0  0  0  0  0  0  0  0  0  0  0
   -0.1180   -0.4065    0.8059 C   0  0  0  0  0  0  0  0  0  0  0  0
    2.6040   -0.6506    0.7292 N   0  0  0  0  0  0  0  0  0  0  0  0
    3.8775   -0.6549    0.4025 C   0  0  0  0  0  0  0  0  0  0  0  0
    4.9676   -1.4294    0.8914 C   0  0  0  0  0  0  0  0  0  0  0  0
    6.2005   -1.2473    0.3804 C   0  0  0  0  0  0  0  0  0  0  0  0
    6.4516   -0.2723   -0.6688 C   0  0  0  0  0  0  0  0  0  0  0  0
    5.4272    0.4617   -1.1356 C   0  0  0  0  0  0  0  0  0  0  0  0
    4.1489    0.2712   -0.6013 N   0  0  0  0  0  0  0  0  0  0  0  0
    0.4441    2.1878    1.3303 H   0  0  0  0  0  0  0  0  0  0  0  0
    0.7882    2.6711   -0.3365 H   0  0  0  0  0  0  0  0  0  0  0  0
   -1.4585    1.9770   -1.0804 H   0  0  0  0  0  0  0  0  0  0  0  0
   -1.5847    3.0793    0.2827 H   0  0  0  0  0  0  0  0  0  0  0  0
   -1.9299   -2.0598    1.6793 H   0  0  0  0  0  0  0  0  0  0  0  0
   -2.2975   -0.5739    2.5407 H   0  0  0  0  0  0  0  0  0  0  0  0
   -4.0429   -2.2192    0.7420 H   0  0  0  0  0  0  0  0  0  0  0  0
   -4.3395   -1.5802    2.3306 H   0  0  0  0  0  0  0  0  0  0  0  0
   -4.5770    0.7287    1.3983 H   0  0  0  0  0  0  0  0  0  0  0  0
   -5.7619   -0.4188    0.8347 H   0  0  0  0  0  0  0  0  0  0  0  0
   -5.3405    0.1832   -1.2437 H   0  0  0  0  0  0  0  0  0  0  0  0
   -4.0505    1.2372   -0.7562 H   0  0  0  0  0  0  0  0  0  0  0  0
   -3.7999   -1.7453   -1.3984 H   0  0  0  0  0  0  0  0  0  0  0  0
   -3.4113   -0.4447   -2.4792 H   0  0  0  0  0  0  0  0  0  0  0  0
   -1.5695   -1.7402   -1.0594 H   0  0  0  0  0  0  0  0  0  0  0  0
   -1.3872   -0.1132   -1.6438 H   0  0  0  0  0  0  0  0  0  0  0  0
    0.0730   -0.2288    1.8735 H   0  0  0  0  0  0  0  0  0  0  0  0
    0.1808   -1.4383    0.5779 H   0  0  0  0  0  0  0  0  0  0  0  0
    4.7770   -2.1564    1.6727 H   0  0  0  0  0  0  0  0  0  0  0  0
    7.0417   -1.8311    0.7432 H   0  0  0  0  0  0  0  0  0  0  0  0
    7.4606   -0.1605   -1.0524 H   0  0  0  0  0  0  0  0  0  0  0  0
    5.5485    1.2026   -1.9169 H   0  0  0  0  0  0  0  0  0  0  0  0
  1  2  3  0
  2  3  1  0
  3  4  2  0
  4  5  1  0
  5  6  1  0
  6  7  1  0
  7  8  1  0
  8  9  1  0
  9 10  1  0
 10 11  1  0
 11 12  1  0
 12 13  1  0
 13 14  1  0
 14 15  1  0
  9 16  1  0
  4 17  1  0
 17 18  2  0
 18 19  1  0
 19 20  2  0
 20 21  1  0
 21 22  2  0
 22 23  1  0
 23  3  1  0
 16  5  1  0
 23 18  1  0
 15  9  1  0
  6 24  1  0
  6 25  1  0
  7 26  1  0
  7 27  1  0
 10 28  1  0
 10 29  1  0
 11 30  1  0
 11 31  1  0
 12 32  1  0
 12 33  1  0
 13 34  1  0
 13 35  1  0
 14 36  1  0
 14 37  1  0
 15 38  1  0
 15 39  1  0
 16 40  1  0
 16 41  1  0
 19 42  1  0
 20 43  1  0
 21 44  1  0
 22 45  1  0
M  END
$$$$
OCNT-2316025
     RDKit          3D

 50 53  0  0  0  0  0  0  0  0999 V2000
   -2.1535    0.1505   -2.4347 C   0  0  0  0  0  0  0  0  0  0  0  0
   -1.5256    0.5952   -1.1066 C   0  0  1  0  0  0  0  0  0  0  0  0
   -2.4611    1.5126   -0.2806 C   0  0  0  0  0  0  0  0  0  0  0  0
   -2.9740    0.9026    0.9635 N   0  0  0  0  0  0  0  0  0  0  0  0
   -3.3724    1.8598    1.9942 C   0  0  0  0  0  0  0  0  0  0  0  0
   -3.8465   -0.1714    0.7096 C   0  0  0  0  0  0  0  0  0  0  0  0
   -5.2323   -0.0759    0.9426 C   0  0  0  0  0  0  0  0  0  0  0  0
   -6.1004   -1.1374    0.6747 C   0  0  0  0  0  0  0  0  0  0  0  0
   -5.6009   -2.3287    0.1714 C   0  0  0  0  0  0  0  0  0  0  0  0
   -4.2347   -2.4530   -0.0624 C   0  0  0  0  0  0  0  0  0  0  0  0
   -3.3459   -1.3845    0.1899 C   0  0  0  0  0  0  0  0  0  0  0  0
   -1.8716   -1.6630   -0.0324 C   0  0  0  0  0  0  0  0  0  0  0  0
   -0.9908   -0.5334   -0.3177 N   0  0  0  0  0  0  0  0  0  0  0  0
    0.3705   -0.7622   -0.1175 C   0  0  0  0  0  0  0  0  0  0  0  0
    0.8199   -1.8950    0.0418 O   0  0  0  0  0  0  0  0  0  0  0  0
    1.1257    0.3936   -0.0805 N   0  0  0  0  0  0  0  0  0  0  0  0
    2.5096    0.3945   -0.0281 C   0  0  0  0  0  0  0  0  0  0  0  0
    3.4362   -0.6113   -0.2042 C   0  0  0  0  0  0  0  0  0  0  0  0
    4.6975    0.0017   -0.0456 C   0  0  0  0  0  0  0  0  0  0  0  0
    5.9923   -0.6868   -0.1446 C   0  0  0  0  0  0  0  0  0  0  0  0
    6.1853   -2.0332   -0.3766 C   0  0  0  0  0  0  0  0  0  0  0  0
    7.8453   -2.4553   -0.4245 S   0  0  0  0  0  0  0  0  0  0  0  0
    8.3208   -0.8387   -0.1323 C   0  0  0  0  0  0  0  0  0  0  0  0
    7.2373    0.0024   -0.0022 C   0  0  0  0  0  0  0  0  0  0  0  0
    4.5845    1.3114    0.2051 N   0  0  0  0  0  0  0  0  0  0  0  0
    3.2552    1.5236    0.2165 N   0  0  0  0  0  0  0  0  0  0  0  0
    2.7644    2.8564    0.4737 C   0  0  0  0  0  0  0  0  0  0  0  0
   -1.4622   -0.4910   -2.9919 H   0  0  0  0  0  0  0  0  0  0  0  0
   -2.3794    1.0221   -3.0588 H   0  0  0  0  0  0  0  0  0  0  0  0
   -3.0865   -0.4025   -2.3007 H   0  0  0  0  0  0  0  0  0  0  0  0
   -0.6851    1.2239   -1.4238 H   0  0  0  0  0  0  0  0  0  0  0  0
   -1.8635    2.3890    0.0062 H   0  0  0  0  0  0  0  0  0  0  0  0
   -3.2845    1.9050   -0.8922 H   0  0  0  0  0  0  0  0  0  0  0  0
   -2.5113    2.4756    2.2769 H   0  0  0  0  0  0  0  0  0  0  0  0
   -3.7075    1.3500    2.9046 H   0  0  0  0  0  0  0  0  0  0  0  0
   -4.1610    2.5333    1.6408 H   0  0  0  0  0  0  0  0  0  0  0  0
   -5.6700    0.8410    1.3253 H   0  0  0  0  0  0  0  0  0  0  0  0
   -7.1648   -1.0287    0.8638 H   0  0  0  0  0  0  0  0  0  0  0  0
   -6.2683   -3.1619   -0.0306 H   0  0  0  0  0  0  0  0  0  0  0  0
   -3.8527   -3.4008   -0.4385 H   0  0  0  0  0  0  0  0  0  0  0  0
   -1.4959   -2.1867    0.8563 H   0  0  0  0  0  0  0  0  0  0  0  0
   -1.7597   -2.3494   -0.8825 H   0  0  0  0  0  0  0  0  0  0  0  0
    0.6257    1.2290    0.1793 H   0  0  0  0  0  0  0  0  0  0  0  0
    3.2251   -1.6492   -0.4177 H   0  0  0  0  0  0  0  0  0  0  0  0
    5.4393   -2.8022   -0.5209 H   0  0  0  0  0  0  0  0  0  0  0  0
    9.3690   -0.5816   -0.0692 H   0  0  0  0  0  0  0  0  0  0  0  0
    7.3291    1.0655    0.1870 H   0  0  0  0  0  0  0  0  0  0  0  0
    2.1663    2.8325    1.3880 H   0  0  0  0  0  0  0  0  0  0  0  0
    3.6069    3.5415    0.5993 H   0  0  0  0  0  0  0  0  0  0  0  0
    2.1563    3.1712   -0.3781 H   0  0  0  0  0  0  0  0  0  0  0  0
  1  2  1  0
  2  3  1  0
  3  4  1  0
  4  5  1  0
  4  6  1  0
  6  7  2  0
  7  8  1  0
  8  9  2  0
  9 10  1  0
 10 11  2  0
 11 12  1  0
 12 13  1  0
 13 14  1  0
 14 15  2  0
 14 16  1  0
 16 17  1  0
 17 18  2  0
 18 19  1  0
 19 20  1  0
 20 21  2  0
 21 22  1  0
 22 23  1  0
 23 24  2  0
 19 25  2  0
 25 26  1  0
 26 27  1  0
 13  2  1  0
 26 17  1  0
 11  6  1  0
 24 20  1  0
  1 28  1  0
  1 29  1  0
  1 30  1  0
  2 31  1  6
  3 32  1  0
  3 33  1  0
  5 34  1  0
  5 35  1  0
  5 36  1  0
  7 37  1  0
  8 38  1  0
  9 39  1  0
 10 40  1  0
 12 41  1  0
 12 42  1  0
 16 43  1  0
 18 44  1  0
 21 45  1  0
 23 46  1  0
 24 47  1  0
 27 48  1  0
 27 49  1  0
 27 50  1  0
M  END
$$$$
OCNT-2316031
     RDKit          3D

 41 43  0  0  0  0  0  0  0  0999 V2000
    4.7483   -0.8745    2.2488 C   0  0  0  0  0  0  0  0  0  0  0  0
    3.3880   -1.0766    1.8017 N   0  0  0  0  0  0  0  0  0  0  0  0
    3.1277   -0.6090    0.5221 C   0  0  0  0  0  0  0  0  0  0  0  0
    4.0830   -0.6210   -0.4173 N   0  0  0  0  0  0  0  0  0  0  0  0
    3.7748   -0.1594   -1.6458 C   0  0  0  0  0  0  0  0  0  0  0  0
    4.8597   -0.1674   -2.6793 C   0  0  0  0  0  0  0  0  0  0  0  0
    2.5207    0.3069   -1.9558 C   0  0  0  0  0  0  0  0  0  0  0  0
    1.6000    0.2666   -0.9311 C   0  0  0  0  0  0  0  0  0  0  0  0
    0.2171    0.7942   -1.1841 C   0  0  0  0  0  0  0  0  0  0  0  0
    0.1142    1.6311   -2.0839 O   0  0  0  0  0  0  0  0  0  0  0  0
   -0.8618    0.3035   -0.4261 N   0  0  0  0  0  0  0  0  0  0  0  0
   -0.8010   -1.0082    0.2279 C   0  0  0  0  0  0  0  0  0  0  0  0
   -2.1300   -1.7446    0.1444 C   0  0  0  0  0  0  0  0  0  0  0  0
   -3.1880   -0.9646    0.7859 N   0  0  0  0  0  0  0  0  0  0  0  0
   -4.4325   -1.6850    1.0387 C   0  0  0  0  0  0  0  0  0  0  0  0
   -3.2362    0.3814    0.3571 C   0  0  0  0  0  0  0  0  0  0  0  0
   -4.4005    1.1536    0.5673 C   0  0  0  0  0  0  0  0  0  0  0  0
   -4.4824    2.4876    0.1712 C   0  0  0  0  0  0  0  0  0  0  0  0
   -3.3888    3.0815   -0.4263 C   0  0  0  0  0  0  0  0  0  0  0  0
   -3.4578    4.3686   -0.7920 F   0  0  0  0  0  0  0  0  0  0  0  0
   -2.2132    2.3717   -0.6332 C   0  0  0  0  0  0  0  0  0  0  0  0
   -2.1069    1.0218   -0.2547 C   0  0  0  0  0  0  0  0  0  0  0  0
    1.8865   -0.1711    0.3144 N   0  0  0  0  0  0  0  0  0  0  0  0
    5.4594   -1.4661    1.6619 H   0  0  0  0  0  0  0  0  0  0  0  0
    4.8355   -1.2023    3.2897 H   0  0  0  0  0  0  0  0  0  0  0  0
    5.0336    0.1827    2.2089 H   0  0  0  0  0  0  0  0  0  0  0  0
    2.6735   -0.6788    2.4016 H   0  0  0  0  0  0  0  0  0  0  0  0
    5.0574    0.8508   -3.0284 H   0  0  0  0  0  0  0  0  0  0  0  0
    5.7891   -0.5722   -2.2657 H   0  0  0  0  0  0  0  0  0  0  0  0
    4.5668   -0.7894   -3.5309 H   0  0  0  0  0  0  0  0  0  0  0  0
    2.2698    0.6862   -2.9382 H   0  0  0  0  0  0  0  0  0  0  0  0
   -0.5125   -0.8463    1.2738 H   0  0  0  0  0  0  0  0  0  0  0  0
   -0.0455   -1.6373   -0.2532 H   0  0  0  0  0  0  0  0  0  0  0  0
   -2.3957   -1.9449   -0.9021 H   0  0  0  0  0  0  0  0  0  0  0  0
   -2.0238   -2.7135    0.6467 H   0  0  0  0  0  0  0  0  0  0  0  0
   -4.2279   -2.7290    1.3025 H   0  0  0  0  0  0  0  0  0  0  0  0
   -5.0786   -1.6865    0.1539 H   0  0  0  0  0  0  0  0  0  0  0  0
   -4.9724   -1.2579    1.8902 H   0  0  0  0  0  0  0  0  0  0  0  0
   -5.2746    0.7316    1.0528 H   0  0  0  0  0  0  0  0  0  0  0  0
   -5.3867    3.0633    0.3374 H   0  0  0  0  0  0  0  0  0  0  0  0
   -1.3885    2.9225   -1.0689 H   0  0  0  0  0  0  0  0  0  0  0  0
  1  2  1  0
  2  3  1  0
  3  4  1  0
  4  5  2  0
  5  6  1  0
  5  7  1  0
  7  8  2  0
  8  9  1  0
  9 10  2  0
  9 11  1  0
 11 12  1  0
 12 13  1  0
 13 14  1  0
 14 15  1  0
 14 16  1  0
 16 17  1  0
 17 18  2  0
 18 19  1  0
 19 20  1  0
 19 21  2  0
 21 22  1  0
  8 23  1  0
 23  3  2  0
 22 11  1  0
 22 16  2  0
  1 24  1  0
  1 25  1  0
  1 26  1  0
  2 27  1  0
  6 28  1  0
  6 29  1  0
  6 30  1  0
  7 31  1  0
 12 32  1  0
 12 33  1  0
 13 34  1  0
 13 35  1  0
 15 36  1  0
 15 37  1  0
 15 38  1  0
 17 39  1  0
 18 40  1  0
 21 41  1  0
M  END
$$$$
OCNT-2316037
     RDKit          3D

 37 39  0  0  0  0  0  0  0  0999 V2000
    5.0359    2.6877   -0.2838 C   0  0  0  0  0  0  0  0  0  0  0  0
    3.9440    2.5815   -1.1872 O   0  0  0  0  0  0  0  0  0  0  0  0
    3.0438    1.5762   -0.9622 C   0  0  0  0  0  0  0  0  0  0  0  0
    3.1416    0.6028    0.0322 C   0  0  0  0  0  0  0  0  0  0  0  0
    2.1520   -0.3838    0.1620 C   0  0  0  0  0  0  0  0  0  0  0  0
    1.0435   -0.4170   -0.6957 C   0  0  0  0  0  0  0  0  0  0  0  0
   -0.0428   -1.4618   -0.5960 C   0  0  0  0  0  0  0  0  0  0  0  0
    0.1189   -2.6481    0.3516 C   0  0  0  0  0  0  0  0  0  0  0  0
   -1.2547   -3.3077    0.2475 C   0  0  0  0  0  0  0  0  0  0  0  0
   -2.2225   -2.1518   -0.0359 C   0  0  0  0  0  0  0  0  0  0  0  0
   -1.3904   -0.9710   -0.2843 N   0  0  0  0  0  0  0  0  0  0  0  0
   -1.5315    0.0217    0.6980 C   0  0  0  0  0  0  0  0  0  0  0  0
   -0.7121    0.2711    1.5739 O   0  0  0  0  0  0  0  0  0  0  0  0
   -2.8068    0.7881    0.5867 C   0  0  0  0  0  0  0  0  0  0  0  0
   -3.2342    1.6442    1.5214 C   0  0  0  0  0  0  0  0  0  0  0  0
   -4.7518    2.3699    1.0631 S   0  0  0  0  0  0  0  0  0  0  0  0
   -4.7654    1.4764   -0.4647 C   0  0  0  0  0  0  0  0  0  0  0  0
   -5.6311    1.5531   -1.3178 O   0  0  0  0  0  0  0  0  0  0  0  0
   -3.6407    0.6948   -0.4995 N   0  0  0  0  0  0  0  0  0  0  0  0
    0.9546    0.5654   -1.6940 C   0  0  0  0  0  0  0  0  0  0  0  0
    1.9419    1.5410   -1.8189 C   0  0  0  0  0  0  0  0  0  0  0  0
    1.8126    2.4573   -2.7911 F   0  0  0  0  0  0  0  0  0  0  0  0
    4.6877    2.8609    0.7399 H   0  0  0  0  0  0  0  0  0  0  0  0
    5.6343    3.5538   -0.5826 H   0  0  0  0  0  0  0  0  0  0  0  0
    5.6797    1.8037   -0.3387 H   0  0  0  0  0  0  0  0  0  0  0  0
    3.9716    0.5813    0.7309 H   0  0  0  0  0  0  0  0  0  0  0  0
    2.2585   -1.1130    0.9620 H   0  0  0  0  0  0  0  0  0  0  0  0
   -0.1211   -1.8855   -1.6105 H   0  0  0  0  0  0  0  0  0  0  0  0
    0.9291   -3.3230    0.0597 H   0  0  0  0  0  0  0  0  0  0  0  0
    0.2938   -2.3253    1.3847 H   0  0  0  0  0  0  0  0  0  0  0  0
   -1.5196   -3.8565    1.1563 H   0  0  0  0  0  0  0  0  0  0  0  0
   -1.2729   -4.0190   -0.5867 H   0  0  0  0  0  0  0  0  0  0  0  0
   -2.8076   -2.3535   -0.9394 H   0  0  0  0  0  0  0  0  0  0  0  0
   -2.9084   -2.0008    0.8047 H   0  0  0  0  0  0  0  0  0  0  0  0
   -2.7229    1.8766    2.4463 H   0  0  0  0  0  0  0  0  0  0  0  0
   -3.4227    0.1239   -1.3030 H   0  0  0  0  0  0  0  0  0  0  0  0
    0.1157    0.5863   -2.3840 H   0  0  0  0  0  0  0  0  0  0  0  0
  1  2  1  0
  2  3  1  0
  3  4  1  0
  4  5  2  0
  5  6  1  0
  6  7  1  0
  7  8  1  0
  8  9  1  0
  9 10  1  0
 10 11  1  0
 11 12  1  0
 12 13  2  0
 12 14  1  0
 14 15  2  0
 15 16  1  0
 16 17  1  0
 17 18  2  0
 17 19  1  0
  6 20  2  0
 20 21  1  0
 21 22  1  0
 21  3  2  0
 11  7  1  0
 19 14  1  0
  1 23  1  0
  1 24  1  0
  1 25  1  0
  4 26  1  0
  5 27  1  0
  7 28  1  0
  8 29  1  0
  8 30  1  0
  9 31  1  0
  9 32  1  0
 10 33  1  0
 10 34  1  0
 15 35  1  0
 19 36  1  0
 20 37  1  0
M  END
$$$$
OCNT-2316044
     RDKit          3D

 49 51  0  0  0  0  0  0  0  0999 V2000
    3.8662   -2.0690   -1.3683 C   0  0  0  0  0  0  0  0  0  0  0  0
    4.5568   -1.0116   -0.5522 C   0  0  0  0  0  0  0  0  0  0  0  0
    3.9913   -0.2054    0.3708 C   0  0  0  0  0  0  0  0  0  0  0  0
    2.6527   -0.0515    0.6952 N   0  0  0  0  0  0  0  0  0  0  0  0
    1.5248   -0.2235   -0.0830 C   0  0  0  0  0  0  0  0  0  0  0  0
    1.5398   -0.5453   -1.2713 O   0  0  0  0  0  0  0  0  0  0  0  0
    0.2144    0.0768    0.6836 C   0  0  0  0  0  0  0  0  0  0  0  0
   -1.0406   -0.7265    0.2794 C   0  0  0  0  0  0  0  0  0  0  0  0
   -1.7528    0.5297    0.3419 N   0  0  0  0  0  0  0  0  0  0  0  0
   -3.0559    0.8941    0.5226 C   0  0  0  0  0  0  0  0  0  0  0  0
   -3.3807    2.0733    0.6481 O   0  0  0  0  0  0  0  0  0  0  0  0
   -4.0682   -0.2561    0.5592 C   0  0  0  0  0  0  0  0  0  0  0  0
   -4.1847   -0.9477   -0.8134 C   0  0  0  0  0  0  0  0  0  0  0  0
   -5.5434   -0.7654   -1.4908 C   0  0  0  0  0  0  0  0  0  0  0  0
   -6.0401    0.6633   -1.3393 C   0  0  0  0  0  0  0  0  0  0  0  0
   -6.2517    1.0386    0.1251 C   0  0  0  0  0  0  0  0  0  0  0  0
   -5.4288    0.1982    1.1045 C   0  0  0  0  0  0  0  0  0  0  0  0
   -0.5581    1.3467    0.2797 C   0  0  0  0  0  0  0  0  0  0  0  0
    4.9003    0.6494    1.2472 C   0  0  0  0  0  0  0  0  0  0  0  0
    4.3794    1.3259    2.1383 O   0  0  0  0  0  0  0  0  0  0  0  0
    6.2626    0.6112    0.9817 N   0  0  0  0  0  0  0  0  0  0  0  0
    7.1713    1.4317    1.7664 C   0  0  0  0  0  0  0  0  0  0  0  0
    6.7835   -0.1738   -0.0235 C   0  0  0  0  0  0  0  0  0  0  0  0
    5.9960   -0.9548   -0.7692 C   0  0  0  0  0  0  0  0  0  0  0  0
    4.5101   -2.9470   -1.5029 H   0  0  0  0  0  0  0  0  0  0  0  0
    3.6132   -1.6874   -2.3624 H   0  0  0  0  0  0  0  0  0  0  0  0
    2.9672   -2.4498   -0.8762 H   0  0  0  0  0  0  0  0  0  0  0  0
    2.5298    0.4981    1.5468 H   0  0  0  0  0  0  0  0  0  0  0  0
    0.3614    0.0330    1.7738 H   0  0  0  0  0  0  0  0  0  0  0  0
   -1.3588   -1.4713    1.0129 H   0  0  0  0  0  0  0  0  0  0  0  0
   -1.0377   -1.1616   -0.7238 H   0  0  0  0  0  0  0  0  0  0  0  0
   -3.6683   -0.9822    1.2801 H   0  0  0  0  0  0  0  0  0  0  0  0
   -3.4101   -0.5850   -1.5000 H   0  0  0  0  0  0  0  0  0  0  0  0
   -4.0019   -2.0232   -0.6939 H   0  0  0  0  0  0  0  0  0  0  0  0
   -5.4592   -1.0241   -2.5523 H   0  0  0  0  0  0  0  0  0  0  0  0
   -6.2726   -1.4597   -1.0554 H   0  0  0  0  0  0  0  0  0  0  0  0
   -6.9754    0.8010   -1.8937 H   0  0  0  0  0  0  0  0  0  0  0  0
   -5.3096    1.3486   -1.7880 H   0  0  0  0  0  0  0  0  0  0  0  0
   -6.0258    2.1036    0.2558 H   0  0  0  0  0  0  0  0  0  0  0  0
   -7.3126    0.9271    0.3819 H   0  0  0  0  0  0  0  0  0  0  0  0
   -5.3064    0.7522    2.0434 H   0  0  0  0  0  0  0  0  0  0  0  0
   -6.0097   -0.6989    1.3588 H   0  0  0  0  0  0  0  0  0  0  0  0
   -0.3640    1.7326   -0.7253 H   0  0  0  0  0  0  0  0  0  0  0  0
   -0.5266    2.1579    1.0109 H   0  0  0  0  0  0  0  0  0  0  0  0
    7.9321    0.7896    2.2215 H   0  0  0  0  0  0  0  0  0  0  0  0
    7.6532    2.1591    1.1052 H   0  0  0  0  0  0  0  0  0  0  0  0
    6.6497    1.9723    2.5608 H   0  0  0  0  0  0  0  0  0  0  0  0
    7.8575   -0.1331   -0.1838 H   0  0  0  0  0  0  0  0  0  0  0  0
    6.4303   -1.5602   -1.5601 H   0  0  0  0  0  0  0  0  0  0  0  0
  1  2  1  0
  2  3  2  0
  3  4  1  0
  4  5  1  0
  5  6  2  0
  5  7  1  0
  7  8  1  0
  8  9  1  0
  9 10  1  0
 10 11  2  0
 10 12  1  0
 12 13  1  0
 13 14  1  0
 14 15  1  0
 15 16  1  0
 16 17  1  0
  9 18  1  0
  3 19  1  0
 19 20  2  0
 19 21  1  0
 21 22  1  0
 21 23  1  0
 23 24  2  0
 24  2  1  0
 18  7  1  0
 17 12  1  0
  1 25  1  0
  1 26  1  0
  1 27  1  0
  4 28  1  0
  7 29  1  0
  8 30  1  0
  8 31  1  0
 12 32  1  0
 13 33  1  0
 13 34  1  0
 14 35  1  0
 14 36  1  0
 15 37  1  0
 15 38  1  0
 16 39  1  0
 16 40  1  0
 17 41  1  0
 17 42  1  0
 18 43  1  0
 18 44  1  0
 22 45  1  0
 22 46  1  0
 22 47  1  0
 23 48  1  0
 24 49  1  0
M  END
$$$$
OCNT-2316068
     RDKit          3D

 41 43  0  0  0  0  0  0  0  0999 V2000
    3.8124   -1.2972    2.4676 C   0  0  0  0  0  0  0  0  0  0  0  0
    3.5643   -1.4354    0.9824 C   0  0  0  0  0  0  0  0  0  0  0  0
    4.0417   -2.4057    0.3899 O   0  0  0  0  0  0  0  0  0  0  0  0
    2.7895   -0.4285    0.3940 N   0  0  0  0  0  0  0  0  0  0  0  0
    2.3643    0.7492    1.1460 C   0  0  0  0  0  0  0  0  0  0  0  0
    2.4383   -0.4861   -0.9969 C   0  0  0  0  0  0  0  0  0  0  0  0
    3.4571   -0.7960   -1.9199 C   0  0  0  0  0  0  0  0  0  0  0  0
    3.2629   -0.6680   -3.2968 C   0  0  0  0  0  0  0  0  0  0  0  0
    2.0466   -0.2114   -3.7822 C   0  0  0  0  0  0  0  0  0  0  0  0
    1.0136    0.0751   -2.8911 C   0  0  0  0  0  0  0  0  0  0  0  0
    1.1750   -0.1012   -1.5033 C   0  0  0  0  0  0  0  0  0  0  0  0
   -0.0092    0.0947   -0.7498 N   0  0  0  0  0  0  0  0  0  0  0  0
   -0.4096   -0.6047    0.3735 C   0  0  0  0  0  0  0  0  0  0  0  0
    0.2442   -1.4682    0.9506 O   0  0  0  0  0  0  0  0  0  0  0  0
   -1.7788   -0.2839    0.9081 C   0  0  0  0  0  0  0  0  0  0  0  0
   -2.1050   -0.8424    2.1612 C   0  0  0  0  0  0  0  0  0  0  0  0
   -3.3423   -0.6059    2.7458 C   0  0  0  0  0  0  0  0  0  0  0  0
   -4.2659    0.1892    2.0813 C   0  0  0  0  0  0  0  0  0  0  0  0
   -3.9580    0.7475    0.8303 C   0  0  0  0  0  0  0  0  0  0  0  0
   -4.9028    1.5431    0.1680 C   0  0  0  0  0  0  0  0  0  0  0  0
   -4.6080    2.0935   -1.0704 C   0  0  0  0  0  0  0  0  0  0  0  0
   -3.3693    1.8288   -1.6104 C   0  0  0  0  0  0  0  0  0  0  0  0
   -2.4304    1.0677   -1.0020 N   0  0  0  0  0  0  0  0  0  0  0  0
   -2.7027    0.5204    0.2146 C   0  0  0  0  0  0  0  0  0  0  0  0
    4.3110   -2.2001    2.8346 H   0  0  0  0  0  0  0  0  0  0  0  0
    4.4661   -0.4440    2.6645 H   0  0  0  0  0  0  0  0  0  0  0  0
    2.8693   -1.1960    3.0101 H   0  0  0  0  0  0  0  0  0  0  0  0
    3.2416    1.1955    1.6256 H   0  0  0  0  0  0  0  0  0  0  0  0
    1.6584    0.4635    1.9298 H   0  0  0  0  0  0  0  0  0  0  0  0
    1.9246    1.5181    0.5048 H   0  0  0  0  0  0  0  0  0  0  0  0
    4.4439   -1.0952   -1.5738 H   0  0  0  0  0  0  0  0  0  0  0  0
    4.0733   -0.9066   -3.9804 H   0  0  0  0  0  0  0  0  0  0  0  0
    1.8930   -0.0985   -4.8518 H   0  0  0  0  0  0  0  0  0  0  0  0
    0.0549    0.3880   -3.2984 H   0  0  0  0  0  0  0  0  0  0  0  0
   -0.7730    0.5672   -1.2349 H   0  0  0  0  0  0  0  0  0  0  0  0
   -1.3853   -1.4706    2.6852 H   0  0  0  0  0  0  0  0  0  0  0  0
   -3.5836   -1.0427    3.7118 H   0  0  0  0  0  0  0  0  0  0  0  0
   -5.2342    0.3681    2.5451 H   0  0  0  0  0  0  0  0  0  0  0  0
   -5.8763    1.7365    0.6134 H   0  0  0  0  0  0  0  0  0  0  0  0
   -5.3273    2.7099   -1.5977 H   0  0  0  0  0  0  0  0  0  0  0  0
   -3.0847    2.2327   -2.5784 H   0  0  0  0  0  0  0  0  0  0  0  0
  1  2  1  0
  2  3  2  0
  2  4  1  0
  4  5  1  0
  4  6  1  0
  6  7  2  0
  7  8  1  0
  8  9  2  0
  9 10  1  0
 10 11  2  0
 11 12  1  0
 12 13  1  0
 13 14  2  0
 13 15  1  0
 15 16  1  0
 16 17  2  0
 17 18  1  0
 18 19  2  0
 19 20  1  0
 20 21  2  0
 21 22  1  0
 22 23  2  0
 23 24  1  0
 11  6  1  0
 24 15  2  0
 24 19  1  0
  1 25  1  0
  1 26  1  0
  1 27  1  0
  5 28  1  0
  5 29  1  0
  5 30  1  0
  7 31  1  0
  8 32  1  0
  9 33  1  0
 10 34  1  0
 12 35  1  0
 16 36  1  0
 17 37  1  0
 18 38  1  0
 20 39  1  0
 21 40  1  0
 22 41  1  0
M  END
$$$$
OCNT-2316070
     RDKit          3D

 43 45  0  0  0  0  0  0  0  0999 V2000
    6.2441    2.2965    0.3063 C   0  0  0  0  0  0  0  0  0  0  0  0
    4.8827    2.5651    0.0076 O   0  0  0  0  0  0  0  0  0  0  0  0
    4.2961    1.7623   -1.0362 C   0  0  2  0  0  0  0  0  0  0  0  0
    2.7625    1.9147   -1.2171 C   0  0  0  0  0  0  0  0  0  0  0  0
    2.7276    0.4050   -1.5370 C   0  0  2  0  0  0  0  0  0  0  0  0
    1.5395   -0.3792   -1.0810 N   0  0  0  0  0  0  0  0  0  0  0  0
    0.9908   -1.3186   -2.0579 C   0  0  0  0  0  0  0  0  0  0  0  0
    1.0313   -0.2719    0.2194 C   0  0  0  0  0  0  0  0  0  0  0  0
    1.5846    0.3237    1.1384 O   0  0  0  0  0  0  0  0  0  0  0  0
   -0.2699   -0.9058    0.5281 C   0  0  0  0  0  0  0  0  0  0  0  0
   -0.3307   -1.8638    1.5419 C   0  0  0  0  0  0  0  0  0  0  0  0
   -1.5517   -2.4579    1.8537 C   0  0  0  0  0  0  0  0  0  0  0  0
   -2.7091   -2.0827    1.1663 C   0  0  0  0  0  0  0  0  0  0  0  0
   -2.6657   -1.0946    0.1680 C   0  0  0  0  0  0  0  0  0  0  0  0
   -3.9180   -0.6765   -0.5625 C   0  0  0  0  0  0  0  0  0  0  0  0
   -4.9081   -0.0955    0.3275 N   0  0  0  0  0  0  0  0  0  0  0  0
   -6.1281   -0.6293    0.6417 C   0  0  0  0  0  0  0  0  0  0  0  0
   -6.7206    0.3024    1.4619 C   0  0  0  0  0  0  0  0  0  0  0  0
   -5.8991    1.3844    1.6419 N   0  0  0  0  0  0  0  0  0  0  0  0
   -4.8145    1.1172    0.9494 C   0  0  0  0  0  0  0  0  0  0  0  0
   -1.4312   -0.5060   -0.1459 C   0  0  0  0  0  0  0  0  0  0  0  0
    4.0303    0.2662   -0.7213 C   0  0  0  0  0  0  0  0  0  0  0  0
    6.5768    2.9982    1.0755 H   0  0  0  0  0  0  0  0  0  0  0  0
    6.3545    1.2770    0.6863 H   0  0  0  0  0  0  0  0  0  0  0  0
    6.8603    2.4317   -0.5872 H   0  0  0  0  0  0  0  0  0  0  0  0
    4.8344    1.9059   -1.9834 H   0  0  0  0  0  0  0  0  0  0  0  0
    2.2404    2.2399   -0.3122 H   0  0  0  0  0  0  0  0  0  0  0  0
    2.4569    2.5662   -2.0414 H   0  0  0  0  0  0  0  0  0  0  0  0
    2.9111    0.2380   -2.6095 H   0  0  0  0  0  0  0  0  0  0  0  0
    0.5032   -2.1667   -1.5715 H   0  0  0  0  0  0  0  0  0  0  0  0
    0.2721   -0.7851   -2.6859 H   0  0  0  0  0  0  0  0  0  0  0  0
    1.7979   -1.7118   -2.6835 H   0  0  0  0  0  0  0  0  0  0  0  0
    0.5682   -2.1387    2.0890 H   0  0  0  0  0  0  0  0  0  0  0  0
   -1.6057   -3.2048    2.6425 H   0  0  0  0  0  0  0  0  0  0  0  0
   -3.6535   -2.5542    1.4347 H   0  0  0  0  0  0  0  0  0  0  0  0
   -3.7051    0.0742   -1.3328 H   0  0  0  0  0  0  0  0  0  0  0  0
   -4.3644   -1.5441   -1.0621 H   0  0  0  0  0  0  0  0  0  0  0  0
   -6.4651   -1.5876    0.2732 H   0  0  0  0  0  0  0  0  0  0  0  0
   -7.6960    0.2544    1.9286 H   0  0  0  0  0  0  0  0  0  0  0  0
   -3.9456    1.7581    0.8683 H   0  0  0  0  0  0  0  0  0  0  0  0
   -1.3658    0.2758   -0.8997 H   0  0  0  0  0  0  0  0  0  0  0  0
    4.7622   -0.4311   -1.1401 H   0  0  0  0  0  0  0  0  0  0  0  0
    3.9204    0.0491    0.3455 H   0  0  0  0  0  0  0  0  0  0  0  0
  1  2  1  0
  2  3  1  0
  3  4  1  0
  4  5  1  0
  5  6  1  0
  6  7  1  0
  6  8  1  0
  8  9  2  0
  8 10  1  0
 10 11  1  0
 11 12  2  0
 12 13  1  0
 13 14  2  0
 14 15  1  0
 15 16  1  0
 16 17  1  0
 17 18  2  0
 18 19  1  0
 19 20  2  0
 14 21  1  0
  5 22  1  0
 22  3  1  0
 21 10  2  0
 20 16  1  0
  1 23  1  0
  1 24  1  0
  1 25  1  0
  3 26  1  6
  4 27  1  0
  4 28  1  0
  5 29  1  6
  7 30  1  0
  7 31  1  0
  7 32  1  0
 11 33  1  0
 12 34  1  0
 13 35  1  0
 15 36  1  0
 15 37  1  0
 17 38  1  0
 18 39  1  0
 20 40  1  0
 21 41  1  0
 22 42  1  0
 22 43  1  0
M  END
$$$$
OCNT-2316079
     RDKit          3D

 53 56  0  0  0  0  0  0  0  0999 V2000
    3.4671    2.2275   -0.7487 C   0  0  0  0  0  0  0  0  0  0  0  0
    3.7574    0.9020   -0.0465 C   0  0  0  0  0  0  0  0  0  0  0  0
    2.7110   -0.0712   -0.2990 N   0  0  0  0  0  0  0  0  0  0  0  0
    1.4988   -0.0093    0.3589 C   0  0  0  0  0  0  0  0  0  0  0  0
    1.2765    0.7876    1.2686 O   0  0  0  0  0  0  0  0  0  0  0  0
    0.4920   -1.0871   -0.0951 C   0  0  0  0  0  0  0  0  0  0  0  0
    0.7587   -2.4153    0.6124 C   0  0  0  0  0  0  0  0  0  0  0  0
   -0.1013   -2.3173    1.8676 C   0  0  0  0  0  0  0  0  0  0  0  0
   -1.3395   -1.5728    1.3869 C   0  0  0  0  0  0  0  0  0  0  0  0
   -0.8653   -0.7260    0.3007 N   0  0  0  0  0  0  0  0  0  0  0  0
   -1.6234    0.0875   -0.5180 C   0  0  0  0  0  0  0  0  0  0  0  0
   -1.2452    0.4512   -1.6327 O   0  0  0  0  0  0  0  0  0  0  0  0
   -2.9787    0.4988   -0.0934 C   0  0  0  0  0  0  0  0  0  0  0  0
   -3.1891    1.0412    1.1752 C   0  0  0  0  0  0  0  0  0  0  0  0
   -4.4755    1.4163    1.5668 C   0  0  0  0  0  0  0  0  0  0  0  0
   -5.5652    1.2747    0.6919 C   0  0  0  0  0  0  0  0  0  0  0  0
   -6.8603    1.6427    1.0920 C   0  0  0  0  0  0  0  0  0  0  0  0
   -7.9424    1.5175    0.2198 C   0  0  0  0  0  0  0  0  0  0  0  0
   -7.7441    1.0265   -1.0654 C   0  0  0  0  0  0  0  0  0  0  0  0
   -6.4632    0.6571   -1.4785 C   0  0  0  0  0  0  0  0  0  0  0  0
   -5.3550    0.7689   -0.6144 C   0  0  0  0  0  0  0  0  0  0  0  0
   -4.0463    0.4077   -0.9993 C   0  0  0  0  0  0  0  0  0  0  0  0
   -3.8409   -0.0263   -2.2906 O   0  0  0  0  0  0  0  0  0  0  0  0
    5.0454    0.2713   -0.4703 C   0  0  0  0  0  0  0  0  0  0  0  0
    5.9074   -0.4824    0.3054 C   0  0  0  0  0  0  0  0  0  0  0  0
    6.9360   -0.8567   -0.5069 N   0  0  0  0  0  0  0  0  0  0  0  0
    8.0827   -1.6552   -0.1485 C   0  0  0  0  0  0  0  0  0  0  0  0
    6.8067   -0.4112   -1.7684 N   0  0  0  0  0  0  0  0  0  0  0  0
    5.6639    0.2776   -1.7443 C   0  0  0  0  0  0  0  0  0  0  0  0
    3.3409    2.0937   -1.8295 H   0  0  0  0  0  0  0  0  0  0  0  0
    2.5431    2.6789   -0.3707 H   0  0  0  0  0  0  0  0  0  0  0  0
    4.2814    2.9428   -0.5888 H   0  0  0  0  0  0  0  0  0  0  0  0
    3.7928    1.0920    1.0338 H   0  0  0  0  0  0  0  0  0  0  0  0
    2.7778   -0.6206   -1.1456 H   0  0  0  0  0  0  0  0  0  0  0  0
    0.5583   -1.1960   -1.1837 H   0  0  0  0  0  0  0  0  0  0  0  0
    0.3994   -3.2453   -0.0084 H   0  0  0  0  0  0  0  0  0  0  0  0
    1.8130   -2.5922    0.8458 H   0  0  0  0  0  0  0  0  0  0  0  0
   -0.3398   -3.2938    2.2986 H   0  0  0  0  0  0  0  0  0  0  0  0
    0.4201   -1.7266    2.6302 H   0  0  0  0  0  0  0  0  0  0  0  0
   -2.0879   -2.2617    0.9794 H   0  0  0  0  0  0  0  0  0  0  0  0
   -1.7921   -0.9909    2.1908 H   0  0  0  0  0  0  0  0  0  0  0  0
   -2.3551    1.1926    1.8566 H   0  0  0  0  0  0  0  0  0  0  0  0
   -4.6209    1.8292    2.5635 H   0  0  0  0  0  0  0  0  0  0  0  0
   -7.0374    2.0346    2.0915 H   0  0  0  0  0  0  0  0  0  0  0  0
   -8.9383    1.8073    0.5440 H   0  0  0  0  0  0  0  0  0  0  0  0
   -8.5826    0.9307   -1.7503 H   0  0  0  0  0  0  0  0  0  0  0  0
   -6.3258    0.2752   -2.4889 H   0  0  0  0  0  0  0  0  0  0  0  0
   -2.8888    0.1006   -2.4954 H   0  0  0  0  0  0  0  0  0  0  0  0
    5.8626   -0.7748    1.3459 H   0  0  0  0  0  0  0  0  0  0  0  0
    8.0591   -2.5741   -0.7388 H   0  0  0  0  0  0  0  0  0  0  0  0
    8.9859   -1.0800   -0.3667 H   0  0  0  0  0  0  0  0  0  0  0  0
    8.0417   -1.8939    0.9172 H   0  0  0  0  0  0  0  0  0  0  0  0
    5.3243    0.7513   -2.6568 H   0  0  0  0  0  0  0  0  0  0  0  0
  1  2  1  0
  2  3  1  0
  3  4  1  0
  4  5  2  0
  4  6  1  0
  6  7  1  0
  7  8  1  0
  8  9  1  0
  9 10  1  0
 10 11  1  0
 11 12  2  0
 11 13  1  0
 13 14  1  0
 14 15  2  0
 15 16  1  0
 16 17  2  0
 17 18  1  0
 18 19  2  0
 19 20  1  0
 20 21  2  0
 21 22  1  0
 22 23  1  0
  2 24  1  0
 24 25  2  0
 25 26  1  0
 26 27  1  0
 26 28  1  0
 28 29  2  0
 10  6  1  0
 22 13  2  0
 29 24  1  0
 21 16  1  0
  1 30  1  0
  1 31  1  0
  1 32  1  0
  2 33  1  0
  3 34  1  0
  6 35  1  0
  7 36  1  0
  7 37  1  0
  8 38  1  0
  8 39  1  0
  9 40  1  0
  9 41  1  0
 14 42  1  0
 15 43  1  0
 17 44  1  0
 18 45  1  0
 19 46  1  0
 20 47  1  0
 23 48  1  0
 25 49  1  0
 27 50  1  0
 27 51  1  0
 27 52  1  0
 29 53  1  0
M  END
$$$$
OCNT-2316083
     RDKit          3D

 40 42  0  0  0  0  0  0  0  0999 V2000
   -7.4165    0.7214   -0.4268 C   0  0  0  0  0  0  0  0  0  0  0  0
   -5.9436    0.5544   -0.1965 C   0  0  0  0  0  0  0  0  0  0  0  0
   -5.1409    1.6593    0.0798 C   0  0  0  0  0  0  0  0  0  0  0  0
   -3.7750    1.4924    0.3180 C   0  0  0  0  0  0  0  0  0  0  0  0
   -3.1703    0.2202    0.2963 C   0  0  0  0  0  0  0  0  0  0  0  0
   -1.7285    0.1653    0.5422 C   0  0  0  0  0  0  0  0  0  0  0  0
   -0.9387    1.0654    1.0966 N   0  0  0  0  0  0  0  0  0  0  0  0
    0.3393    0.5494    1.0508 N   0  0  0  0  0  0  0  0  0  0  0  0
    0.2493   -0.6238    0.4599 C   0  0  0  0  0  0  0  0  0  0  0  0
    1.5831   -1.6953    0.1583 S   0  0  0  0  0  0  0  0  0  0  0  0
    2.9736   -0.6362    0.6605 C   0  0  0  0  0  0  0  0  0  0  0  0
    4.2851   -1.4110    0.5331 C   0  0  0  0  0  0  0  0  0  0  0  0
    5.4879   -0.6004    1.0204 C   0  0  0  0  0  0  0  0  0  0  0  0
    5.7976    0.5396    0.1841 N   0  0  0  0  0  0  0  0  0  0  0  0
    6.4067    0.5009   -1.0386 C   0  0  0  0  0  0  0  0  0  0  0  0
    6.4993    1.8166   -1.4285 C   0  0  0  0  0  0  0  0  0  0  0  0
    5.9730    2.6449   -0.4714 N   0  0  0  0  0  0  0  0  0  0  0  0
    5.5649    1.8491    0.4912 C   0  0  0  0  0  0  0  0  0  0  0  0
   -1.0358   -0.9315    0.1059 O   0  0  0  0  0  0  0  0  0  0  0  0
   -3.9881   -0.9062    0.0538 C   0  0  0  0  0  0  0  0  0  0  0  0
   -3.4625   -2.3178    0.0445 C   0  0  0  0  0  0  0  0  0  0  0  0
   -5.3639   -0.7194   -0.1951 C   0  0  0  0  0  0  0  0  0  0  0  0
   -7.6313    1.6876   -0.8955 H   0  0  0  0  0  0  0  0  0  0  0  0
   -7.7979   -0.0561   -1.0972 H   0  0  0  0  0  0  0  0  0  0  0  0
   -7.9529    0.6626    0.5253 H   0  0  0  0  0  0  0  0  0  0  0  0
   -5.5676    2.6596    0.1082 H   0  0  0  0  0  0  0  0  0  0  0  0
   -3.1729    2.3786    0.5197 H   0  0  0  0  0  0  0  0  0  0  0  0
    2.8301   -0.3186    1.6990 H   0  0  0  0  0  0  0  0  0  0  0  0
    2.9866    0.2531    0.0224 H   0  0  0  0  0  0  0  0  0  0  0  0
    4.4425   -1.7185   -0.5086 H   0  0  0  0  0  0  0  0  0  0  0  0
    4.2319   -2.3264    1.1364 H   0  0  0  0  0  0  0  0  0  0  0  0
    6.3829   -1.2338    1.0324 H   0  0  0  0  0  0  0  0  0  0  0  0
    5.3290   -0.2414    2.0438 H   0  0  0  0  0  0  0  0  0  0  0  0
    6.7114   -0.4195   -1.5164 H   0  0  0  0  0  0  0  0  0  0  0  0
    6.9187    2.2117   -2.3447 H   0  0  0  0  0  0  0  0  0  0  0  0
    5.0984    2.1690    1.4143 H   0  0  0  0  0  0  0  0  0  0  0  0
   -2.8832   -2.5216    0.9507 H   0  0  0  0  0  0  0  0  0  0  0  0
   -4.2782   -3.0492    0.0251 H   0  0  0  0  0  0  0  0  0  0  0  0
   -2.8467   -2.4892   -0.8438 H   0  0  0  0  0  0  0  0  0  0  0  0
   -5.9969   -1.5852   -0.3874 H   0  0  0  0  0  0  0  0  0  0  0  0
  1  2  1  0
  2  3  1  0
  3  4  2  0
  4  5  1  0
  5  6  1  0
  6  7  2  0
  7  8  1  0
  8  9  2  0
  9 10  1  0
 10 11  1  0
 11 12  1  0
 12 13  1  0
 13 14  1  0
 14 15  1  0
 15 16  2  0
 16 17  1  0
 17 18  2  0
  9 19  1  0
  5 20  2  0
 20 21  1  0
 20 22  1  0
 22  2  2  0
 19  6  1  0
 18 14  1  0
  1 23  1  0
  1 24  1  0
  1 25  1  0
  3 26  1  0
  4 27  1  0
 11 28  1  0
 11 29  1  0
 12 30  1  0
 12 31  1  0
 13 32  1  0
 13 33  1  0
 15 34  1  0
 16 35  1  0
 18 36  1  0
 21 37  1  0
 21 38  1  0
 21 39  1  0
 22 40  1  0
M  END
$$$$
OCNT-2316099
     RDKit          3D

 38 40  0  0  0  0  0  0  0  0999 V2000
    6.5385    1.7626   -0.1026 C   0  0  0  0  0  0  0  0  0  0  0  0
    5.3997    1.1448   -0.7822 C   0  0  0  0  0  0  0  0  0  0  0  0
    4.4596    0.6440   -1.3384 C   0  0  0  0  0  0  0  0  0  0  0  0
    3.3091    0.0310   -2.0168 C   0  0  0  0  0  0  0  0  0  0  0  0
    2.1159    0.1725   -1.2429 O   0  0  0  0  0  0  0  0  0  0  0  0
    1.8191   -0.7755   -0.3127 C   0  0  0  0  0  0  0  0  0  0  0  0
    2.7115   -1.7251    0.2052 C   0  0  0  0  0  0  0  0  0  0  0  0
    2.3050   -2.6535    1.1889 C   0  0  0  0  0  0  0  0  0  0  0  0
    1.0004   -2.6479    1.6810 C   0  0  0  0  0  0  0  0  0  0  0  0
    0.1412   -1.6982    1.1657 C   0  0  0  0  0  0  0  0  0  0  0  0
    0.5314   -0.7865    0.1984 C   0  0  0  0  0  0  0  0  0  0  0  0
   -0.6451    0.0348   -0.1141 C   0  0  0  0  0  0  0  0  0  0  0  0
   -0.7062    0.8871   -0.9795 O   0  0  0  0  0  0  0  0  0  0  0  0
   -1.6497   -0.3794    0.7218 N   0  0  0  0  0  0  0  0  0  0  0  0
   -3.0310    0.0713    0.6486 C   0  0  0  0  0  0  0  0  0  0  0  0
   -3.1987    1.5886    0.6538 C   0  0  0  0  0  0  0  0  0  0  0  0
   -4.6812    1.9279    0.6111 C   0  0  0  0  0  0  0  0  0  0  0  0
   -5.3542    1.2992   -0.5875 C   0  0  0  0  0  0  0  0  0  0  0  0
   -6.3567    1.7832   -1.1046 O   0  0  0  0  0  0  0  0  0  0  0  0
   -4.8261    0.1152   -1.0391 N   0  0  0  0  0  0  0  0  0  0  0  0
   -3.6954   -0.5328   -0.5932 C   0  0  0  0  0  0  0  0  0  0  0  0
   -3.3134   -1.5651   -1.1416 O   0  0  0  0  0  0  0  0  0  0  0  0
   -1.2618   -1.4485    1.4793 C   0  0  0  0  0  0  0  0  0  0  0  0
   -1.9128   -2.0977    2.2755 O   0  0  0  0  0  0  0  0  0  0  0  0
    6.4913    2.8533   -0.1773 H   0  0  0  0  0  0  0  0  0  0  0  0
    6.5500    1.4950    0.9583 H   0  0  0  0  0  0  0  0  0  0  0  0
    7.4824    1.4322   -0.5465 H   0  0  0  0  0  0  0  0  0  0  0  0
    3.1314    0.5618   -2.9591 H   0  0  0  0  0  0  0  0  0  0  0  0
    3.4930   -1.0147   -2.2898 H   0  0  0  0  0  0  0  0  0  0  0  0
    3.7475   -1.7669   -0.1215 H   0  0  0  0  0  0  0  0  0  0  0  0
    3.0228   -3.3782    1.5698 H   0  0  0  0  0  0  0  0  0  0  0  0
    0.6712   -3.3547    2.4359 H   0  0  0  0  0  0  0  0  0  0  0  0
   -3.5667   -0.3484    1.5105 H   0  0  0  0  0  0  0  0  0  0  0  0
   -2.7103    2.0479   -0.2127 H   0  0  0  0  0  0  0  0  0  0  0  0
   -2.7402    2.0199    1.5510 H   0  0  0  0  0  0  0  0  0  0  0  0
   -4.8039    3.0145    0.5476 H   0  0  0  0  0  0  0  0  0  0  0  0
   -5.1916    1.5762    1.5144 H   0  0  0  0  0  0  0  0  0  0  0  0
   -5.2762   -0.2897   -1.8489 H   0  0  0  0  0  0  0  0  0  0  0  0
  1  2  1  0
  2  3  3  0
  3  4  1  0
  4  5  1  0
  5  6  1  0
  6  7  1  0
  7  8  2  0
  8  9  1  0
  9 10  2  0
 10 11  1  0
 11 12  1  0
 12 13  2  0
 12 14  1  0
 14 15  1  0
 15 16  1  0
 16 17  1  0
 17 18  1  0
 18 19  2  0
 18 20  1  0
 20 21  1  0
 21 22  2  0
 14 23  1  0
 23 24  2  0
 11  6  2  0
 21 15  1  0
 23 10  1  0
  1 25  1  0
  1 26  1  0
  1 27  1  0
  4 28  1  0
  4 29  1  0
  7 30  1  0
  8 31  1  0
  9 32  1  0
 15 33  1  0
 16 34  1  0
 16 35  1  0
 17 36  1  0
 17 37  1  0
 20 38  1  0
M  END
$$$$
OCNT-2316100
     RDKit          3D

 42 45  0  0  0  0  0  0  0  0999 V2000
    7.1896   -1.1800    0.9703 C   0  0  0  0  0  0  0  0  0  0  0  0
    7.1305    0.0410    0.2425 O   0  0  0  0  0  0  0  0  0  0  0  0
    5.8887    0.5115   -0.0843 C   0  0  0  0  0  0  0  0  0  0  0  0
    5.8905    1.7047   -0.8058 C   0  0  0  0  0  0  0  0  0  0  0  0
    4.6886    2.2807   -1.1955 C   0  0  0  0  0  0  0  0  0  0  0  0
    4.7012    3.4270   -1.8884 F   0  0  0  0  0  0  0  0  0  0  0  0
    3.4728    1.6889   -0.8788 C   0  0  0  0  0  0  0  0  0  0  0  0
    3.4498    0.4915   -0.1540 C   0  0  0  0  0  0  0  0  0  0  0  0
    2.1744   -0.1328    0.1822 C   0  0  0  0  0  0  0  0  0  0  0  0
    2.0585   -1.2768    0.8741 N   0  0  0  0  0  0  0  0  0  0  0  0
    0.6822   -1.4770    0.9412 O   0  0  0  0  0  0  0  0  0  0  0  0
    0.0902   -0.4260    0.2920 C   0  0  0  0  0  0  0  0  0  0  0  0
   -1.2680   -0.3844    0.2115 N   0  0  0  0  0  0  0  0  0  0  0  0
   -2.0324   -1.1339    1.2105 C   0  0  0  0  0  0  0  0  0  0  0  0
   -3.4685   -1.3388    0.7356 C   0  0  0  0  0  0  0  0  0  0  0  0
   -4.1192   -0.0036    0.3613 C   0  0  0  0  0  0  0  0  0  0  0  0
   -5.5146   -0.2023   -0.1154 C   0  0  0  0  0  0  0  0  0  0  0  0
   -6.1053   -0.8504   -1.1774 C   0  0  0  0  0  0  0  0  0  0  0  0
   -7.4672   -0.7033   -1.1187 N   0  0  0  0  0  0  0  0  0  0  0  0
   -7.6512    0.0195   -0.0377 C   0  0  0  0  0  0  0  0  0  0  0  0
   -6.5148    0.3639    0.6282 O   0  0  0  0  0  0  0  0  0  0  0  0
   -3.2699    0.7143   -0.6917 C   0  0  0  0  0  0  0  0  0  0  0  0
   -1.8376    0.9015   -0.1998 C   0  0  0  0  0  0  0  0  0  0  0  0
    0.9695    0.4198   -0.1884 N   0  0  0  0  0  0  0  0  0  0  0  0
    4.6694   -0.0919    0.2401 C   0  0  0  0  0  0  0  0  0  0  0  0
    8.2442   -1.4147    1.1439 H   0  0  0  0  0  0  0  0  0  0  0  0
    6.7053   -1.0802    1.9473 H   0  0  0  0  0  0  0  0  0  0  0  0
    6.7552   -2.0039    0.3946 H   0  0  0  0  0  0  0  0  0  0  0  0
    6.8258    2.1897   -1.0676 H   0  0  0  0  0  0  0  0  0  0  0  0
    2.5539    2.1701   -1.2026 H   0  0  0  0  0  0  0  0  0  0  0  0
   -1.5982   -2.1255    1.3874 H   0  0  0  0  0  0  0  0  0  0  0  0
   -2.0240   -0.5949    2.1665 H   0  0  0  0  0  0  0  0  0  0  0  0
   -4.0462   -1.8380    1.5235 H   0  0  0  0  0  0  0  0  0  0  0  0
   -3.4685   -2.0150   -0.1302 H   0  0  0  0  0  0  0  0  0  0  0  0
   -4.1498    0.6257    1.2619 H   0  0  0  0  0  0  0  0  0  0  0  0
   -5.6273   -1.4083   -1.9710 H   0  0  0  0  0  0  0  0  0  0  0  0
   -8.5837    0.3694    0.3820 H   0  0  0  0  0  0  0  0  0  0  0  0
   -3.7049    1.6924   -0.9320 H   0  0  0  0  0  0  0  0  0  0  0  0
   -3.2575    0.1372   -1.6263 H   0  0  0  0  0  0  0  0  0  0  0  0
   -1.2587    1.3494   -1.0175 H   0  0  0  0  0  0  0  0  0  0  0  0
   -1.8169    1.6048    0.6427 H   0  0  0  0  0  0  0  0  0  0  0  0
    4.6441   -1.0216    0.8018 H   0  0  0  0  0  0  0  0  0  0  0  0
  1  2  1  0
  2  3  1  0
  3  4  1  0
  4  5  2  0
  5  6  1  0
  5  7  1  0
  7  8  2  0
  8  9  1  0
  9 10  2  0
 10 11  1  0
 11 12  1  0
 12 13  1  0
 13 14  1  0
 14 15  1  0
 15 16  1  0
 16 17  1  0
 17 18  2  0
 18 19  1  0
 19 20  2  0
 20 21  1  0
 16 22  1  0
 22 23  1  0
 12 24  2  0
  8 25  1  0
 25  3  2  0
 24  9  1  0
 23 13  1  0
 21 17  1  0
  1 26  1  0
  1 27  1  0
  1 28  1  0
  4 29  1  0
  7 30  1  0
 14 31  1  0
 14 32  1  0
 15 33  1  0
 15 34  1  0
 16 35  1  0
 18 36  1  0
 20 37  1  0
 22 38  1  0
 22 39  1  0
 23 40  1  0
 23 41  1  0
 25 42  1  0
M  END
$$$$
OCNT-2316109
     RDKit          3D

 33 36  0  0  0  0  0  0  0  0999 V2000
    7.9929   -0.4685   -0.1220 Cl  0  0  0  0  0  0  0  0  0  0  0  0
    6.2928   -0.3074    0.0827 C   0  0  0  0  0  0  0  0  0  0  0  0
    5.4355   -0.6278   -0.9684 C   0  0  0  0  0  0  0  0  0  0  0  0
    4.0510   -0.4993   -0.8092 C   0  0  0  0  0  0  0  0  0  0  0  0
    3.5247   -0.0473    0.4098 C   0  0  0  0  0  0  0  0  0  0  0  0
    2.1239    0.0922    0.5977 N   0  0  0  0  0  0  0  0  0  0  0  0
    1.1019   -0.1626   -0.2900 C   0  0  0  0  0  0  0  0  0  0  0  0
   -0.0516    0.1382    0.3994 C   0  0  0  0  0  0  0  0  0  0  0  0
   -1.4210    0.0438   -0.0801 C   0  0  0  0  0  0  0  0  0  0  0  0
   -1.7273   -0.3910   -1.3763 C   0  0  0  0  0  0  0  0  0  0  0  0
   -3.0560   -0.4707   -1.8072 C   0  0  0  0  0  0  0  0  0  0  0  0
   -4.1072   -0.1156   -0.9465 C   0  0  0  0  0  0  0  0  0  0  0  0
   -5.4520   -0.1752   -1.3220 C   0  0  0  0  0  0  0  0  0  0  0  0
   -6.4887    0.1590   -0.5191 N   0  0  0  0  0  0  0  0  0  0  0  0
   -6.1756    0.5754    0.7249 C   0  0  0  0  0  0  0  0  0  0  0  0
   -4.8786    0.6734    1.2037 C   0  0  0  0  0  0  0  0  0  0  0  0
   -3.8186    0.3232    0.3584 C   0  0  0  0  0  0  0  0  0  0  0  0
   -2.4773    0.3977    0.7763 C   0  0  0  0  0  0  0  0  0  0  0  0
    0.2830    0.5583    1.6575 N   0  0  0  0  0  0  0  0  0  0  0  0
    1.6028    0.5276    1.7699 N   0  0  0  0  0  0  0  0  0  0  0  0
    4.3982    0.2729    1.4626 C   0  0  0  0  0  0  0  0  0  0  0  0
    5.7801    0.1421    1.2967 C   0  0  0  0  0  0  0  0  0  0  0  0
    5.8390   -0.9786   -1.9153 H   0  0  0  0  0  0  0  0  0  0  0  0
    3.4195   -0.7596   -1.6533 H   0  0  0  0  0  0  0  0  0  0  0  0
    1.2765   -0.5201   -1.2906 H   0  0  0  0  0  0  0  0  0  0  0  0
   -0.9452   -0.6754   -2.0748 H   0  0  0  0  0  0  0  0  0  0  0  0
   -3.2655   -0.8117   -2.8190 H   0  0  0  0  0  0  0  0  0  0  0  0
   -5.7443   -0.5054   -2.3155 H   0  0  0  0  0  0  0  0  0  0  0  0
   -7.0230    0.8384    1.3519 H   0  0  0  0  0  0  0  0  0  0  0  0
   -4.7038    1.0171    2.2180 H   0  0  0  0  0  0  0  0  0  0  0  0
   -2.2546    0.7378    1.7876 H   0  0  0  0  0  0  0  0  0  0  0  0
    4.0218    0.6265    2.4218 H   0  0  0  0  0  0  0  0  0  0  0  0
    6.4467    0.3926    2.1182 H   0  0  0  0  0  0  0  0  0  0  0  0
  1  2  1  0
  2  3  1  0
  3  4  2  0
  4  5  1  0
  5  6  1  0
  6  7  1  0
  7  8  2  0
  8  9  1  0
  9 10  1  0
 10 11  2  0
 11 12  1  0
 12 13  2  0
 13 14  1  0
 14 15  2  0
 15 16  1  0
 16 17  2  0
 17 18  1  0
  8 19  1  0
 19 20  2  0
  5 21  2  0
 21 22  1  0
 22  2  2  0
 20  6  1  0
 18  9  2  0
 17 12  1  0
  3 23  1  0
  4 24  1  0
  7 25  1  0
 10 26  1  0
 11 27  1  0
 13 28  1  0
 15 29  1  0
 16 30  1  0
 18 31  1  0
 21 32  1  0
 22 33  1  0
M  END
$$$$
OCNT-2316115
     RDKit          3D

 48 51  0  0  0  0  0  0  0  0999 V2000
   -2.9645   -0.6530    3.0062 N   0  0  0  0  0  0  0  0  0  0  0  0
   -3.0146    0.1166    1.8738 C   0  0  0  0  0  0  0  0  0  0  0  0
   -3.4734    1.2542    1.9254 O   0  0  0  0  0  0  0  0  0  0  0  0
   -2.4446   -0.5247    0.6150 C   0  0  0  0  0  0  0  0  0  0  0  0
   -2.9704    0.1194   -0.6750 C   0  0  0  0  0  0  0  0  0  0  0  0
   -4.3617   -0.3566   -1.0264 C   0  0  0  0  0  0  0  0  0  0  0  0
   -5.4886    0.3600   -0.6036 C   0  0  0  0  0  0  0  0  0  0  0  0
   -6.7715   -0.0958   -0.9099 C   0  0  0  0  0  0  0  0  0  0  0  0
   -6.9400   -1.2710   -1.6394 C   0  0  0  0  0  0  0  0  0  0  0  0
   -5.8257   -1.9925   -2.0631 C   0  0  0  0  0  0  0  0  0  0  0  0
   -4.5415   -1.5394   -1.7574 C   0  0  0  0  0  0  0  0  0  0  0  0
   -0.9934   -0.4504    0.6863 N   0  0  0  0  0  0  0  0  0  0  0  0
   -0.1857    0.6457    0.6009 C   0  0  0  0  0  0  0  0  0  0  0  0
    1.0830    0.1370    0.7722 C   0  0  0  0  0  0  0  0  0  0  0  0
    2.3202    0.8997    0.7682 C   0  0  0  0  0  0  0  0  0  0  0  0
    2.3489    2.1321    1.4449 C   0  0  0  0  0  0  0  0  0  0  0  0
    3.5115    2.8971    1.4911 C   0  0  0  0  0  0  0  0  0  0  0  0
    4.6655    2.4374    0.8675 C   0  0  0  0  0  0  0  0  0  0  0  0
    4.6735    1.2075    0.1916 C   0  0  0  0  0  0  0  0  0  0  0  0
    3.4896    0.4358    0.1168 C   0  0  0  0  0  0  0  0  0  0  0  0
    3.4985   -0.8902   -0.6204 C   0  0  0  0  0  0  0  0  0  0  0  0
    4.6848   -1.0729   -1.5655 C   0  0  0  0  0  0  0  0  0  0  0  0
    5.9797   -0.6951   -0.8657 C   0  0  0  0  0  0  0  0  0  0  0  0
    5.9539    0.7814   -0.4884 C   0  0  0  0  0  0  0  0  0  0  0  0
    0.9995   -1.2175    0.9656 N   0  0  0  0  0  0  0  0  0  0  0  0
   -0.2785   -1.5681    0.9128 N   0  0  0  0  0  0  0  0  0  0  0  0
   -2.3343   -1.4452    3.0778 H   0  0  0  0  0  0  0  0  0  0  0  0
   -3.2395   -0.2053    3.8722 H   0  0  0  0  0  0  0  0  0  0  0  0
   -2.7068   -1.5916    0.6271 H   0  0  0  0  0  0  0  0  0  0  0  0
   -2.3086   -0.1221   -1.5184 H   0  0  0  0  0  0  0  0  0  0  0  0
   -2.9653    1.2154   -0.6097 H   0  0  0  0  0  0  0  0  0  0  0  0
   -5.3771    1.2785   -0.0291 H   0  0  0  0  0  0  0  0  0  0  0  0
   -7.6398    0.4674   -0.5776 H   0  0  0  0  0  0  0  0  0  0  0  0
   -7.9398   -1.6239   -1.8778 H   0  0  0  0  0  0  0  0  0  0  0  0
   -5.9574   -2.9087   -2.6330 H   0  0  0  0  0  0  0  0  0  0  0  0
   -3.6838   -2.1163   -2.0973 H   0  0  0  0  0  0  0  0  0  0  0  0
   -0.5626    1.6445    0.4334 H   0  0  0  0  0  0  0  0  0  0  0  0
    1.4646    2.5016    1.9596 H   0  0  0  0  0  0  0  0  0  0  0  0
    3.5185    3.8469    2.0191 H   0  0  0  0  0  0  0  0  0  0  0  0
    5.5685    3.0431    0.9108 H   0  0  0  0  0  0  0  0  0  0  0  0
    3.5169   -1.6939    0.1261 H   0  0  0  0  0  0  0  0  0  0  0  0
    2.5848   -0.9974   -1.2165 H   0  0  0  0  0  0  0  0  0  0  0  0
    4.5514   -0.4492   -2.4585 H   0  0  0  0  0  0  0  0  0  0  0  0
    4.7272   -2.1141   -1.9046 H   0  0  0  0  0  0  0  0  0  0  0  0
    6.8366   -0.8944   -1.5187 H   0  0  0  0  0  0  0  0  0  0  0  0
    6.1086   -1.3113    0.0330 H   0  0  0  0  0  0  0  0  0  0  0  0
    6.0741    1.3891   -1.3943 H   0  0  0  0  0  0  0  0  0  0  0  0
    6.8095    0.9903    0.1652 H   0  0  0  0  0  0  0  0  0  0  0  0
  1  2  1  0
  2  3  2  0
  2  4  1  0
  4  5  1  0
  5  6  1  0
  6  7  2  0
  7  8  1  0
  8  9  2  0
  9 10  1  0
 10 11  2  0
  4 12  1  0
 12 13  1  0
 13 14  2  0
 14 15  1  0
 15 16  1  0
 16 17  2  0
 17 18  1  0
 18 19  2  0
 19 20  1  0
 20 21  1  0
 21 22  1  0
 22 23  1  0
 23 24  1  0
 14 25  1  0
 25 26  2  0
 11  6  1  0
 26 12  1  0
 20 15  2  0
 24 19  1  0
  1 27  1  0
  1 28  1  0
  4 29  1  0
  5 30  1  0
  5 31  1  0
  7 32  1  0
  8 33  1  0
  9 34  1  0
 10 35  1  0
 11 36  1  0
 13 37  1  0
 16 38  1  0
 17 39  1  0
 18 40  1  0
 21 41  1  0
 21 42  1  0
 22 43  1  0
 22 44  1  0
 23 45  1  0
 23 46  1  0
 24 47  1  0
 24 48  1  0
M  END
$$$$
OCNT-2316117
     RDKit          3D

 44 46  0  0  0  0  0  0  0  0999 V2000
    5.4798    3.2375    1.9350 O   0  0  0  0  0  0  0  0  0  0  0  0
    5.0817    2.2129    1.3939 C   0  0  0  0  0  0  0  0  0  0  0  0
    4.7800    0.9928    2.1845 C   0  0  0  0  0  0  0  0  0  0  0  0
    4.3360   -0.1096    1.5631 C   0  0  0  0  0  0  0  0  0  0  0  0
    4.1405   -0.1315    0.1228 C   0  0  0  0  0  0  0  0  0  0  0  0
    3.6475   -1.4063   -0.5183 C   0  0  0  0  0  0  0  0  0  0  0  0
    2.1344   -1.5978   -0.3780 C   0  0  0  0  0  0  0  0  0  0  0  0
    1.3338   -0.7263   -1.3370 C   0  0  0  0  0  0  0  0  0  0  0  0
    1.8686   -0.1644   -2.2937 O   0  0  0  0  0  0  0  0  0  0  0  0
   -0.0338   -0.6242   -1.0979 N   0  0  0  0  0  0  0  0  0  0  0  0
   -0.7465   -1.3469   -0.0434 C   0  0  0  0  0  0  0  0  0  0  0  0
   -2.2091   -1.5981   -0.3982 C   0  0  0  0  0  0  0  0  0  0  0  0
   -2.9707   -0.3117   -0.7750 C   0  0  0  0  0  0  0  0  0  0  0  0
   -3.9309    0.1324    0.3142 C   0  0  0  0  0  0  0  0  0  0  0  0
   -5.3095    0.1339    0.0738 C   0  0  0  0  0  0  0  0  0  0  0  0
   -6.1683    0.5352    1.0868 C   0  0  0  0  0  0  0  0  0  0  0  0
   -5.7562    0.9301    2.3088 N   0  0  0  0  0  0  0  0  0  0  0  0
   -4.4250    0.9262    2.5251 C   0  0  0  0  0  0  0  0  0  0  0  0
   -3.4879    0.5408    1.5770 C   0  0  0  0  0  0  0  0  0  0  0  0
   -2.0314    0.8265   -1.2089 C   0  0  0  0  0  0  0  0  0  0  0  0
   -0.8147    0.2785   -1.9431 C   0  0  0  0  0  0  0  0  0  0  0  0
    4.4313    0.9726   -0.5850 C   0  0  0  0  0  0  0  0  0  0  0  0
    4.8850    2.1069    0.0393 N   0  0  0  0  0  0  0  0  0  0  0  0
    4.9403    1.0489    3.2524 H   0  0  0  0  0  0  0  0  0  0  0  0
    4.1213   -1.0067    2.1348 H   0  0  0  0  0  0  0  0  0  0  0  0
    4.1588   -2.2575   -0.0496 H   0  0  0  0  0  0  0  0  0  0  0  0
    3.9391   -1.4368   -1.5760 H   0  0  0  0  0  0  0  0  0  0  0  0
    1.8254   -1.3988    0.6537 H   0  0  0  0  0  0  0  0  0  0  0  0
    1.8948   -2.6408   -0.6168 H   0  0  0  0  0  0  0  0  0  0  0  0
   -0.2582   -2.3069    0.1473 H   0  0  0  0  0  0  0  0  0  0  0  0
   -0.6635   -0.7495    0.8709 H   0  0  0  0  0  0  0  0  0  0  0  0
   -2.7051   -2.1425    0.4142 H   0  0  0  0  0  0  0  0  0  0  0  0
   -2.2283   -2.2695   -1.2681 H   0  0  0  0  0  0  0  0  0  0  0  0
   -3.5770   -0.5709   -1.6554 H   0  0  0  0  0  0  0  0  0  0  0  0
   -5.7198   -0.1712   -0.8834 H   0  0  0  0  0  0  0  0  0  0  0  0
   -7.2439    0.5487    0.9347 H   0  0  0  0  0  0  0  0  0  0  0  0
   -4.1170    1.2526    3.5144 H   0  0  0  0  0  0  0  0  0  0  0  0
   -2.4346    0.5697    1.8317 H   0  0  0  0  0  0  0  0  0  0  0  0
   -2.5755    1.5279   -1.8532 H   0  0  0  0  0  0  0  0  0  0  0  0
   -1.6847    1.4082   -0.3454 H   0  0  0  0  0  0  0  0  0  0  0  0
   -0.1861    1.1087   -2.2838 H   0  0  0  0  0  0  0  0  0  0  0  0
   -1.1206   -0.2878   -2.8308 H   0  0  0  0  0  0  0  0  0  0  0  0
    4.3118    1.0282   -1.6637 H   0  0  0  0  0  0  0  0  0  0  0  0
    5.0881    2.9363   -0.5045 H   0  0  0  0  0  0  0  0  0  0  0  0
  1  2  2  0
  2  3  1  0
  3  4  2  0
  4  5  1  0
  5  6  1  0
  6  7  1  0
  7  8  1  0
  8  9  2  0
  8 10  1  0
 10 11  1  0
 11 12  1  0
 12 13  1  0
 13 14  1  0
 14 15  2  0
 15 16  1  0
 16 17  2  0
 17 18  1  0
 18 19  2  0
 13 20  1  0
 20 21  1  0
  5 22  2  0
 22 23  1  0
 23  2  1  0
 21 10  1  0
 19 14  1  0
  3 24  1  0
  4 25  1  0
  6 26  1  0
  6 27  1  0
  7 28  1  0
  7 29  1  0
 11 30  1  0
 11 31  1  0
 12 32  1  0
 12 33  1  0
 13 34  1  0
 15 35  1  0
 16 36  1  0
 18 37  1  0
 19 38  1  0
 20 39  1  0
 20 40  1  0
 21 41  1  0
 21 42  1  0
 22 43  1  0
 23 44  1  0
M  END
$$$$
OCNT-2316119
     RDKit          3D

 42 45  0  0  0  0  0  0  0  0999 V2000
   -2.0903    1.0415    4.0147 O   0  0  0  0  0  0  0  0  0  0  0  0
   -1.6397   -0.2387    3.5848 C   0  0  0  0  0  0  0  0  0  0  0  0
   -2.2254   -0.5644    2.2168 C   0  0  0  0  0  0  0  0  0  0  0  0
   -1.7163    0.3807    1.1120 C   0  0  0  0  0  0  0  0  0  0  0  0
   -0.2582    0.3595    0.9390 N   0  0  0  0  0  0  0  0  0  0  0  0
    0.4090   -0.7448    0.4208 C   0  0  0  0  0  0  0  0  0  0  0  0
   -0.1537   -1.9767    0.4730 N   0  0  0  0  0  0  0  0  0  0  0  0
    0.4978   -3.0264   -0.0617 C   0  0  0  0  0  0  0  0  0  0  0  0
    1.6941   -3.0320   -0.6640 N   0  0  0  0  0  0  0  0  0  0  0  0
    2.2361   -1.8074   -0.6749 C   0  0  0  0  0  0  0  0  0  0  0  0
    1.6927   -0.6397   -0.1613 C   0  0  0  0  0  0  0  0  0  0  0  0
    2.6658    0.3957   -0.3861 C   0  0  0  0  0  0  0  0  0  0  0  0
    2.7438    1.7739   -0.0768 C   0  0  0  0  0  0  0  0  0  0  0  0
    3.8718    2.5099   -0.4612 C   0  0  0  0  0  0  0  0  0  0  0  0
    4.9126    1.8915   -1.1384 C   0  0  0  0  0  0  0  0  0  0  0  0
    5.9815    2.6165   -1.4949 F   0  0  0  0  0  0  0  0  0  0  0  0
    4.8806    0.5352   -1.4522 C   0  0  0  0  0  0  0  0  0  0  0  0
    3.7471   -0.1873   -1.0600 C   0  0  0  0  0  0  0  0  0  0  0  0
    3.4528   -1.5201   -1.2196 N   0  0  0  0  0  0  0  0  0  0  0  0
   -2.4204    0.2773   -0.2389 C   0  0  0  0  0  0  0  0  0  0  0  0
   -2.5019    1.4166   -1.0635 C   0  0  0  0  0  0  0  0  0  0  0  0
   -3.1193    1.3571   -2.3174 C   0  0  0  0  0  0  0  0  0  0  0  0
   -3.6591    0.1542   -2.7672 C   0  0  0  0  0  0  0  0  0  0  0  0
   -4.4150    0.0896   -4.3122 Cl  0  0  0  0  0  0  0  0  0  0  0  0
   -3.5788   -0.9798   -1.9651 C   0  0  0  0  0  0  0  0  0  0  0  0
   -4.0863   -2.1501   -2.3810 F   0  0  0  0  0  0  0  0  0  0  0  0
   -2.9668   -0.9249   -0.7139 C   0  0  0  0  0  0  0  0  0  0  0  0
   -1.6933    1.1964    4.8897 H   0  0  0  0  0  0  0  0  0  0  0  0
   -1.9808   -0.9775    4.3173 H   0  0  0  0  0  0  0  0  0  0  0  0
   -0.5457   -0.2458    3.5725 H   0  0  0  0  0  0  0  0  0  0  0  0
   -3.3179   -0.4685    2.2757 H   0  0  0  0  0  0  0  0  0  0  0  0
   -2.0183   -1.6141    1.9921 H   0  0  0  0  0  0  0  0  0  0  0  0
   -1.9528    1.3918    1.4734 H   0  0  0  0  0  0  0  0  0  0  0  0
    0.0841    1.2137    0.5193 H   0  0  0  0  0  0  0  0  0  0  0  0
   -0.0109   -3.9834    0.0017 H   0  0  0  0  0  0  0  0  0  0  0  0
    1.9500    2.2735    0.4691 H   0  0  0  0  0  0  0  0  0  0  0  0
    3.9426    3.5680   -0.2274 H   0  0  0  0  0  0  0  0  0  0  0  0
    5.7097    0.0723   -1.9752 H   0  0  0  0  0  0  0  0  0  0  0  0
    4.0431   -2.2076   -1.6630 H   0  0  0  0  0  0  0  0  0  0  0  0
   -2.0826    2.3642   -0.7294 H   0  0  0  0  0  0  0  0  0  0  0  0
   -3.1728    2.2497   -2.9353 H   0  0  0  0  0  0  0  0  0  0  0  0
   -2.9091   -1.8395   -0.1313 H   0  0  0  0  0  0  0  0  0  0  0  0
  1  2  1  0
  2  3  1  0
  3  4  1  0
  4  5  1  0
  5  6  1  0
  6  7  1  0
  7  8  2  0
  8  9  1  0
  9 10  2  0
 10 11  1  0
 11 12  1  0
 12 13  2  0
 13 14  1  0
 14 15  2  0
 15 16  1  0
 15 17  1  0
 17 18  2  0
 18 19  1  0
  4 20  1  0
 20 21  1  0
 21 22  2  0
 22 23  1  0
 23 24  1  0
 23 25  2  0
 25 26  1  0
 25 27  1  0
 11  6  2  0
 18 12  1  0
 27 20  2  0
 19 10  1  0
  1 28  1  0
  2 29  1  0
  2 30  1  0
  3 31  1  0
  3 32  1  0
  4 33  1  0
  5 34  1  0
  8 35  1  0
 13 36  1  0
 14 37  1  0
 17 38  1  0
 19 39  1  0
 21 40  1  0
 22 41  1  0
 27 42  1  0
M  END
$$$$
OCNT-2316120
     RDKit          3D

 41 44  0  0  0  0  0  0  0  0999 V2000
    5.5094    1.8975   -0.9537 C   0  0  0  0  0  0  0  0  0  0  0  0
    5.0071    0.5604   -0.4843 C   0  0  0  0  0  0  0  0  0  0  0  0
    5.9200   -0.5122   -0.4102 C   0  0  0  0  0  0  0  0  0  0  0  0
    5.5264   -1.7799    0.0144 C   0  0  0  0  0  0  0  0  0  0  0  0
    4.2058   -2.0330    0.3842 C   0  0  0  0  0  0  0  0  0  0  0  0
    3.3006   -0.9696    0.3122 C   0  0  0  0  0  0  0  0  0  0  0  0
    3.6636    0.3101   -0.1110 C   0  0  0  0  0  0  0  0  0  0  0  0
    2.4821    1.1086   -0.0550 C   0  0  0  0  0  0  0  0  0  0  0  0
    1.4427    0.3182    0.3910 C   0  0  0  0  0  0  0  0  0  0  0  0
    0.0102    0.6275    0.6464 C   0  0  0  0  0  0  0  0  0  0  0  0
   -0.8167   -0.4346    0.0808 N   0  0  0  0  0  0  0  0  0  0  0  0
   -2.2507   -0.2528    0.3594 C   0  0  0  0  0  0  0  0  0  0  0  0
   -2.9825   -1.5658   -0.0400 C   0  0  0  0  0  0  0  0  0  0  0  0
   -4.4836   -1.5360    0.3191 C   0  0  0  0  0  0  0  0  0  0  0  0
   -5.0892   -0.2398   -0.0692 C   0  0  0  0  0  0  0  0  0  0  0  0
   -4.3463    0.8807   -0.3583 C   0  0  0  0  0  0  0  0  0  0  0  0
   -2.8664    0.9817   -0.3717 C   0  0  0  0  0  0  0  0  0  0  0  0
   -5.2329    1.8690   -0.6583 N   0  0  0  0  0  0  0  0  0  0  0  0
   -6.5135    1.4620   -0.5736 N   0  0  0  0  0  0  0  0  0  0  0  0
   -6.4231    0.1764   -0.2147 C   0  0  0  0  0  0  0  0  0  0  0  0
    1.9591   -0.9355    0.6117 N   0  0  0  0  0  0  0  0  0  0  0  0
    5.9063    1.8133   -1.9706 H   0  0  0  0  0  0  0  0  0  0  0  0
    6.3024    2.2551   -0.2890 H   0  0  0  0  0  0  0  0  0  0  0  0
    4.7147    2.6488   -0.9636 H   0  0  0  0  0  0  0  0  0  0  0  0
    6.9596   -0.3523   -0.6907 H   0  0  0  0  0  0  0  0  0  0  0  0
    6.2583   -2.5829    0.0584 H   0  0  0  0  0  0  0  0  0  0  0  0
    3.8984   -3.0193    0.7152 H   0  0  0  0  0  0  0  0  0  0  0  0
    2.4056    2.1561   -0.3145 H   0  0  0  0  0  0  0  0  0  0  0  0
   -0.2344    1.5970    0.1988 H   0  0  0  0  0  0  0  0  0  0  0  0
   -0.1462    0.7027    1.7290 H   0  0  0  0  0  0  0  0  0  0  0  0
   -0.6620   -0.4609   -0.9281 H   0  0  0  0  0  0  0  0  0  0  0  0
   -2.3888   -0.1276    1.4427 H   0  0  0  0  0  0  0  0  0  0  0  0
   -2.5200   -2.4286    0.4558 H   0  0  0  0  0  0  0  0  0  0  0  0
   -2.8757   -1.7261   -1.1220 H   0  0  0  0  0  0  0  0  0  0  0  0
   -4.9974   -2.3671   -0.1763 H   0  0  0  0  0  0  0  0  0  0  0  0
   -4.6002   -1.6735    1.4008 H   0  0  0  0  0  0  0  0  0  0  0  0
   -2.5246    1.0121   -1.4139 H   0  0  0  0  0  0  0  0  0  0  0  0
   -2.5443    1.9099    0.1132 H   0  0  0  0  0  0  0  0  0  0  0  0
   -5.0492    2.8301   -0.9277 H   0  0  0  0  0  0  0  0  0  0  0  0
   -7.3321   -0.3945   -0.0746 H   0  0  0  0  0  0  0  0  0  0  0  0
    1.4078   -1.7251    0.9199 H   0  0  0  0  0  0  0  0  0  0  0  0
  1  2  1  0
  2  3  1  0
  3  4  2  0
  4  5  1  0
  5  6  2  0
  6  7  1  0
  7  8  1  0
  8  9  2  0
  9 10  1  0
 10 11  1  0
 11 12  1  0
 12 13  1  0
 13 14  1  0
 14 15  1  0
 15 16  2  0
 16 17  1  0
 16 18  1  0
 18 19  1  0
 19 20  2  0
  9 21  1  0
  7  2  2  0
 17 12  1  0
 21  6  1  0
 20 15  1  0
  1 22  1  0
  1 23  1  0
  1 24  1  0
  3 25  1  0
  4 26  1  0
  5 27  1  0
  8 28  1  0
 10 29  1  0
 10 30  1  0
 11 31  1  0
 12 32  1  0
 13 33  1  0
 13 34  1  0
 14 35  1  0
 14 36  1  0
 17 37  1  0
 17 38  1  0
 18 39  1  0
 20 40  1  0
 21 41  1  0
M  END
$$$$
OCNT-2316121
     RDKit          3D

 38 41  0  0  0  0  0  0  0  0999 V2000
   -2.6996    1.5657   -2.0744 O   0  0  0  0  0  0  0  0  0  0  0  0
   -1.9403    1.1297   -1.2113 C   0  0  0  0  0  0  0  0  0  0  0  0
   -2.3895    0.1295   -0.2755 C   0  0  0  0  0  0  0  0  0  0  0  0
   -2.4380    0.1187    1.1054 C   0  0  0  0  0  0  0  0  0  0  0  0
   -1.9818    1.3668    2.1739 Cl  0  0  0  0  0  0  0  0  0  0  0  0
   -2.9872   -1.1285    1.5253 C   0  0  0  0  0  0  0  0  0  0  0  0
   -3.2546   -1.7215    2.7763 C   0  0  0  0  0  0  0  0  0  0  0  0
   -3.8247   -2.9935    2.8090 C   0  0  0  0  0  0  0  0  0  0  0  0
   -4.0754   -3.5650    3.9949 F   0  0  0  0  0  0  0  0  0  0  0  0
   -4.1402   -3.6828    1.6452 C   0  0  0  0  0  0  0  0  0  0  0  0
   -3.8954   -3.1126    0.3934 C   0  0  0  0  0  0  0  0  0  0  0  0
   -3.3182   -1.8364    0.3683 C   0  0  0  0  0  0  0  0  0  0  0  0
   -2.9926   -1.0334   -0.6992 N   0  0  0  0  0  0  0  0  0  0  0  0
   -0.6148    1.5107   -1.1615 N   0  0  0  0  0  0  0  0  0  0  0  0
   -0.1104    2.4817   -2.1075 C   0  0  0  0  0  0  0  0  0  0  0  0
    1.3633    2.3894   -1.9151 C   0  0  0  0  0  0  0  0  0  0  0  0
    1.6927    1.4754   -0.9885 C   0  0  0  0  0  0  0  0  0  0  0  0
    3.0446    1.1008   -0.5374 C   0  0  0  0  0  0  0  0  0  0  0  0
    3.2287    0.2666    0.5776 C   0  0  0  0  0  0  0  0  0  0  0  0
    4.5092   -0.1004    1.0063 C   0  0  0  0  0  0  0  0  0  0  0  0
    5.6321    0.3576    0.3254 C   0  0  0  0  0  0  0  0  0  0  0  0
    5.4744    1.1815   -0.7840 C   0  0  0  0  0  0  0  0  0  0  0  0
    4.1933    1.5477   -1.2108 C   0  0  0  0  0  0  0  0  0  0  0  0
    0.4511    0.8524   -0.4198 C   0  0  0  0  0  0  0  0  0  0  0  0
   -3.0259   -1.2093    3.7052 H   0  0  0  0  0  0  0  0  0  0  0  0
   -4.5864   -4.6704    1.7185 H   0  0  0  0  0  0  0  0  0  0  0  0
   -4.1495   -3.6426   -0.5195 H   0  0  0  0  0  0  0  0  0  0  0  0
   -3.1589   -1.2620   -1.6709 H   0  0  0  0  0  0  0  0  0  0  0  0
   -0.4041    2.2117   -3.1266 H   0  0  0  0  0  0  0  0  0  0  0  0
   -0.5002    3.4720   -1.8544 H   0  0  0  0  0  0  0  0  0  0  0  0
    2.0459    3.0061   -2.4798 H   0  0  0  0  0  0  0  0  0  0  0  0
    2.3821   -0.1124    1.1443 H   0  0  0  0  0  0  0  0  0  0  0  0
    4.6259   -0.7439    1.8747 H   0  0  0  0  0  0  0  0  0  0  0  0
    6.6269    0.0731    0.6577 H   0  0  0  0  0  0  0  0  0  0  0  0
    6.3475    1.5415   -1.3223 H   0  0  0  0  0  0  0  0  0  0  0  0
    4.1159    2.1858   -2.0869 H   0  0  0  0  0  0  0  0  0  0  0  0
    0.3469    1.0778    0.6428 H   0  0  0  0  0  0  0  0  0  0  0  0
    0.4074   -0.2276   -0.5928 H   0  0  0  0  0  0  0  0  0  0  0  0
  1  2  2  0
  2  3  1  0
  3  4  2  0
  4  5  1  0
  4  6  1  0
  6  7  2  0
  7  8  1  0
  8  9  1  0
  8 10  2  0
 10 11  1  0
 11 12  2  0
 12 13  1  0
  2 14  1  0
 14 15  1  0
 15 16  1  0
 16 17  2  0
 17 18  1  0
 18 19  2  0
 19 20  1  0
 20 21  2  0
 21 22  1  0
 22 23  2  0
 17 24  1  0
 13  3  1  0
 24 14  1  0
 12  6  1  0
 23 18  1  0
  7 25  1  0
 10 26  1  0
 11 27  1  0
 13 28  1  0
 15 29  1  0
 15 30  1  0
 16 31  1  0
 19 32  1  0
 20 33  1  0
 21 34  1  0
 22 35  1  0
 23 36  1  0
 24 37  1  0
 24 38  1  0
M  END
$$$$
OCNT-2316125
     RDKit          3D

 39 41  0  0  0  0  0  0  0  0999 V2000
    5.4930   -0.6728    1.2933 O   0  0  0  0  0  0  0  0  0  0  0  0
    4.9796    0.6380    1.1116 C   0  0  0  0  0  0  0  0  0  0  0  0
    3.5509    0.5983    0.5628 C   0  0  0  0  0  0  0  0  0  0  0  0
    2.5882   -0.1003    1.5351 C   0  0  0  0  0  0  0  0  0  0  0  0
    1.1680   -0.1321    0.9683 C   0  0  0  0  0  0  0  0  0  0  0  0
    1.1713   -0.7972   -0.3446 N   0  0  0  0  0  0  0  0  0  0  0  0
   -0.1327   -1.0029   -0.8527 C   0  0  0  0  0  0  0  0  0  0  0  0
   -0.3156   -1.9017   -1.8880 C   0  0  0  0  0  0  0  0  0  0  0  0
   -1.5996   -2.0789   -2.3432 C   0  0  0  0  0  0  0  0  0  0  0  0
   -2.6595   -1.4311   -1.8371 N   0  0  0  0  0  0  0  0  0  0  0  0
   -2.4050   -0.5857   -0.8214 C   0  0  0  0  0  0  0  0  0  0  0  0
   -3.5462    0.1417   -0.2252 C   0  0  0  0  0  0  0  0  0  0  0  0
   -3.3677    1.0395    0.8469 C   0  0  0  0  0  0  0  0  0  0  0  0
   -4.4451    1.7305    1.4140 C   0  0  0  0  0  0  0  0  0  0  0  0
   -5.7287    1.5343    0.9156 C   0  0  0  0  0  0  0  0  0  0  0  0
   -7.1863    2.4648    1.6774 Br  0  0  0  0  0  0  0  0  0  0  0  0
   -5.9435    0.6559   -0.1411 C   0  0  0  0  0  0  0  0  0  0  0  0
   -4.8610   -0.0315   -0.7029 C   0  0  0  0  0  0  0  0  0  0  0  0
   -1.1787   -0.3530   -0.3115 N   0  0  0  0  0  0  0  0  0  0  0  0
    2.0506   -0.1512   -1.3329 C   0  0  0  0  0  0  0  0  0  0  0  0
    3.4847   -0.1032   -0.8024 C   0  0  0  0  0  0  0  0  0  0  0  0
    6.3889   -0.5831    1.6609 H   0  0  0  0  0  0  0  0  0  0  0  0
    5.6385    1.1726    0.4192 H   0  0  0  0  0  0  0  0  0  0  0  0
    5.0028    1.1552    2.0767 H   0  0  0  0  0  0  0  0  0  0  0  0
    3.2179    1.6371    0.4343 H   0  0  0  0  0  0  0  0  0  0  0  0
    2.9227   -1.1278    1.7272 H   0  0  0  0  0  0  0  0  0  0  0  0
    2.5830    0.4226    2.4986 H   0  0  0  0  0  0  0  0  0  0  0  0
    0.5325   -0.6810    1.6751 H   0  0  0  0  0  0  0  0  0  0  0  0
    0.7847    0.8942    0.8888 H   0  0  0  0  0  0  0  0  0  0  0  0
    0.5079   -2.4632   -2.3072 H   0  0  0  0  0  0  0  0  0  0  0  0
   -1.8173   -2.7730   -3.1490 H   0  0  0  0  0  0  0  0  0  0  0  0
   -2.3710    1.2071    1.2531 H   0  0  0  0  0  0  0  0  0  0  0  0
   -4.2668    2.4138    2.2398 H   0  0  0  0  0  0  0  0  0  0  0  0
   -6.9423    0.4948   -0.5375 H   0  0  0  0  0  0  0  0  0  0  0  0
   -5.0520   -0.7152   -1.5293 H   0  0  0  0  0  0  0  0  0  0  0  0
    1.6988    0.8669   -1.5475 H   0  0  0  0  0  0  0  0  0  0  0  0
    2.0645   -0.7018   -2.2809 H   0  0  0  0  0  0  0  0  0  0  0  0
    3.8690   -1.1279   -0.7199 H   0  0  0  0  0  0  0  0  0  0  0  0
    4.1214    0.4217   -1.5242 H   0  0  0  0  0  0  0  0  0  0  0  0
  1  2  1  0
  2  3  1  0
  3  4  1  0
  4  5  1  0
  5  6  1  0
  6  7  1  0
  7  8  1  0
  8  9  2  0
  9 10  1  0
 10 11  2  0
 11 12  1  0
 12 13  1  0
 13 14  2  0
 14 15  1  0
 15 16  1  0
 15 17  2  0
 17 18  1  0
 11 19  1  0
  6 20  1  0
 20 21  1  0
 21  3  1  0
 19  7  2  0
 18 12  2  0
  1 22  1  0
  2 23  1  0
  2 24  1  0
  3 25  1  0
  4 26  1  0
  4 27  1  0
  5 28  1  0
  5 29  1  0
  8 30  1  0
  9 31  1  0
 13 32  1  0
 14 33  1  0
 17 34  1  0
 18 35  1  0
 20 36  1  0
 20 37  1  0
 21 38  1  0
 21 39  1  0
M  END
$$$$
OCNT-2316131
     RDKit          3D

 51 54  0  0  0  0  0  0  0  0999 V2000
   -0.2845   -2.7352    1.9843 C   0  0  0  0  0  0  0  0  0  0  0  0
   -0.3384   -1.7292    0.8272 C   0  0  0  0  0  0  0  0  0  0  0  0
    0.1861   -2.4162   -0.4423 C   0  0  0  0  0  0  0  0  0  0  0  0
    0.5139   -0.4924    1.1908 C   0  0  0  0  0  0  0  0  0  0  0  0
    0.2651    0.6329    0.2821 N   0  0  0  0  0  0  0  0  0  0  0  0
    1.1563    1.6987    0.1501 C   0  0  0  0  0  0  0  0  0  0  0  0
    0.8087    2.8444   -0.1224 O   0  0  0  0  0  0  0  0  0  0  0  0
    2.6030    1.4372    0.3124 C   0  0  0  0  0  0  0  0  0  0  0  0
    3.3446    2.2324    1.1834 C   0  0  0  0  0  0  0  0  0  0  0  0
    4.7159    2.0004    1.3289 C   0  0  0  0  0  0  0  0  0  0  0  0
    5.3687    1.0044    0.6129 C   0  0  0  0  0  0  0  0  0  0  0  0
    6.6868    0.8185    0.7939 N   0  0  0  0  0  0  0  0  0  0  0  0
    7.2972   -0.1485    0.0737 C   0  0  0  0  0  0  0  0  0  0  0  0
    6.6462   -0.9598   -0.8360 C   0  0  0  0  0  0  0  0  0  0  0  0
    5.2821   -0.7700   -1.0195 C   0  0  0  0  0  0  0  0  0  0  0  0
    4.6137    0.2220   -0.2903 C   0  0  0  0  0  0  0  0  0  0  0  0
    3.2351    0.4461   -0.4432 C   0  0  0  0  0  0  0  0  0  0  0  0
   -1.1581    0.9374    0.1089 C   0  0  0  0  0  0  0  0  0  0  0  0
   -1.9782   -0.3153   -0.2629 C   0  0  0  0  0  0  0  0  0  0  0  0
   -3.4882   -0.1244   -0.3361 C   0  0  0  0  0  0  0  0  0  0  0  0
   -4.2980   -1.2538   -0.5553 C   0  0  0  0  0  0  0  0  0  0  0  0
   -5.6849   -1.1438   -0.6589 C   0  0  0  0  0  0  0  0  0  0  0  0
   -6.2936    0.1031   -0.5482 C   0  0  0  0  0  0  0  0  0  0  0  0
   -5.5197    1.2503   -0.3278 C   0  0  0  0  0  0  0  0  0  0  0  0
   -6.1735    2.6077   -0.2304 C   0  0  0  0  0  0  0  0  0  0  0  0
   -6.2037    3.2538   -1.4285 F   0  0  0  0  0  0  0  0  0  0  0  0
   -5.5327    3.4466    0.6310 F   0  0  0  0  0  0  0  0  0  0  0  0
   -7.4659    2.5539    0.1982 F   0  0  0  0  0  0  0  0  0  0  0  0
   -4.1196    1.1264   -0.2350 C   0  0  0  0  0  0  0  0  0  0  0  0
   -1.7272   -1.3747    0.6845 O   0  0  0  0  0  0  0  0  0  0  0  0
   -0.6981   -2.2981    2.9006 H   0  0  0  0  0  0  0  0  0  0  0  0
   -0.8947   -3.6182    1.7616 H   0  0  0  0  0  0  0  0  0  0  0  0
    0.7398   -3.0636    2.1892 H   0  0  0  0  0  0  0  0  0  0  0  0
   -0.4860   -3.2246   -0.7511 H   0  0  0  0  0  0  0  0  0  0  0  0
    1.1858   -2.8351   -0.2839 H   0  0  0  0  0  0  0  0  0  0  0  0
    0.2538   -1.7238   -1.2873 H   0  0  0  0  0  0  0  0  0  0  0  0
    1.5737   -0.7547    1.2327 H   0  0  0  0  0  0  0  0  0  0  0  0
    0.2409   -0.1274    2.1901 H   0  0  0  0  0  0  0  0  0  0  0  0
    2.8645    3.0303    1.7452 H   0  0  0  0  0  0  0  0  0  0  0  0
    5.2933    2.6175    2.0139 H   0  0  0  0  0  0  0  0  0  0  0  0
    8.3633   -0.2541    0.2553 H   0  0  0  0  0  0  0  0  0  0  0  0
    7.1877   -1.7189   -1.3889 H   0  0  0  0  0  0  0  0  0  0  0  0
    4.7485   -1.3944   -1.7314 H   0  0  0  0  0  0  0  0  0  0  0  0
    2.6563   -0.1406   -1.1524 H   0  0  0  0  0  0  0  0  0  0  0  0
   -1.5015    1.3593    1.0625 H   0  0  0  0  0  0  0  0  0  0  0  0
   -1.2762    1.7077   -0.6620 H   0  0  0  0  0  0  0  0  0  0  0  0
   -1.6658   -0.6542   -1.2586 H   0  0  0  0  0  0  0  0  0  0  0  0
   -3.8403   -2.2388   -0.6394 H   0  0  0  0  0  0  0  0  0  0  0  0
   -6.2881   -2.0331   -0.8244 H   0  0  0  0  0  0  0  0  0  0  0  0
   -7.3767    0.1778   -0.6323 H   0  0  0  0  0  0  0  0  0  0  0  0
   -3.5376    2.0339   -0.0796 H   0  0  0  0  0  0  0  0  0  0  0  0
  1  2  1  0
  2  3  1  0
  2  4  1  0
  4  5  1  0
  5  6  1  0
  6  7  2  0
  6  8  1  0
  8  9  2  0
  9 10  1  0
 10 11  2  0
 11 12  1  0
 12 13  2  0
 13 14  1  0
 14 15  2  0
 15 16  1  0
 16 17  2  0
  5 18  1  0
 18 19  1  0
 19 20  1  0
 20 21  2  0
 21 22  1  0
 22 23  2  0
 23 24  1  0
 24 25  1  0
 25 26  1  0
 25 27  1  0
 25 28  1  0
 24 29  2  0
 19 30  1  0
 30  2  1  0
 17  8  1  0
 29 20  1  0
 16 11  1  0
  1 31  1  0
  1 32  1  0
  1 33  1  0
  3 34  1  0
  3 35  1  0
  3 36  1  0
  4 37  1  0
  4 38  1  0
  9 39  1  0
 10 40  1  0
 13 41  1  0
 14 42  1  0
 15 43  1  0
 17 44  1  0
 18 45  1  0
 18 46  1  0
 19 47  1  0
 21 48  1  0
 22 49  1  0
 23 50  1  0
 29 51  1  0
M  END
$$$$
OCNT-2316132
     RDKit          3D

 40 43  0  0  0  0  0  0  0  0999 V2000
   -5.1952    3.1207    0.6388 C   0  0  0  0  0  0  0  0  0  0  0  0
   -4.3021    2.0174    0.3803 N   0  0  0  0  0  0  0  0  0  0  0  0
   -2.9409    2.0676    0.3125 C   0  0  0  0  0  0  0  0  0  0  0  0
   -2.5219    0.7866    0.0479 C   0  0  0  0  0  0  0  0  0  0  0  0
   -1.2328    0.3050   -0.1158 N   0  0  0  0  0  0  0  0  0  0  0  0
   -0.0767    1.0541   -0.0387 C   0  0  0  0  0  0  0  0  0  0  0  0
   -0.0292    2.2595    0.1885 O   0  0  0  0  0  0  0  0  0  0  0  0
    1.1472    0.2885   -0.2541 C   0  0  0  0  0  0  0  0  0  0  0  0
    2.4286    0.8097   -0.2125 C   0  0  0  0  0  0  0  0  0  0  0  0
    3.2852   -0.2222   -0.4582 N   0  0  0  0  0  0  0  0  0  0  0  0
    4.7396   -0.1517   -0.5149 C   0  0  0  0  0  0  0  0  0  0  0  0
    5.3606   -0.4480    0.8174 C   0  0  0  0  0  0  0  0  0  0  0  0
    5.5955    0.6475    1.8276 C   0  0  0  0  0  0  0  0  0  0  0  0
    6.7633    0.0160    1.1208 C   0  0  0  0  0  0  0  0  0  0  0  0
    2.6545   -1.3939   -0.6692 N   0  0  0  0  0  0  0  0  0  0  0  0
    1.3622   -1.0806   -0.5417 C   0  0  0  0  0  0  0  0  0  0  0  0
   -3.7237    0.0314   -0.0262 C   0  0  0  0  0  0  0  0  0  0  0  0
   -3.7992   -1.5032   -0.3109 C   0  0  0  0  0  0  0  0  0  0  0  0
   -4.9501   -2.2615   -0.3883 C   0  0  0  0  0  0  0  0  0  0  0  0
   -4.5448   -3.5900   -0.6613 C   0  0  0  0  0  0  0  0  0  0  0  0
   -3.1724   -3.5631   -0.7341 C   0  0  0  0  0  0  0  0  0  0  0  0
   -2.7077   -2.3044   -0.5237 O   0  0  0  0  0  0  0  0  0  0  0  0
   -4.8108    0.7870    0.1775 N   0  0  0  0  0  0  0  0  0  0  0  0
   -5.7640    2.8982    1.5450 H   0  0  0  0  0  0  0  0  0  0  0  0
   -5.8641    3.2303   -0.2185 H   0  0  0  0  0  0  0  0  0  0  0  0
   -4.6140    4.0355    0.7781 H   0  0  0  0  0  0  0  0  0  0  0  0
   -2.3993    2.9925    0.4559 H   0  0  0  0  0  0  0  0  0  0  0  0
   -1.1769   -0.6882   -0.3043 H   0  0  0  0  0  0  0  0  0  0  0  0
    2.7811    1.8149   -0.0239 H   0  0  0  0  0  0  0  0  0  0  0  0
    5.0035    0.8482   -0.8783 H   0  0  0  0  0  0  0  0  0  0  0  0
    5.0738   -0.8795   -1.2628 H   0  0  0  0  0  0  0  0  0  0  0  0
    5.0714   -1.4271    1.1870 H   0  0  0  0  0  0  0  0  0  0  0  0
    5.4440    0.4087    2.8748 H   0  0  0  0  0  0  0  0  0  0  0  0
    5.3348    1.6672    1.5674 H   0  0  0  0  0  0  0  0  0  0  0  0
    7.4035   -0.6471    1.6927 H   0  0  0  0  0  0  0  0  0  0  0  0
    7.2910    0.6104    0.3835 H   0  0  0  0  0  0  0  0  0  0  0  0
    0.6371   -1.8740   -0.6675 H   0  0  0  0  0  0  0  0  0  0  0  0
   -5.9568   -1.8871   -0.2607 H   0  0  0  0  0  0  0  0  0  0  0  0
   -5.1754   -4.4587   -0.7890 H   0  0  0  0  0  0  0  0  0  0  0  0
   -2.4190   -4.3167   -0.9186 H   0  0  0  0  0  0  0  0  0  0  0  0
  1  2  1  0
  2  3  1  0
  3  4  2  0
  4  5  1  0
  5  6  1  0
  6  7  2  0
  6  8  1  0
  8  9  2  0
  9 10  1  0
 10 11  1  0
 11 12  1  0
 12 13  1  0
 13 14  1  0
 10 15  1  0
 15 16  2  0
  4 17  1  0
 17 18  1  0
 18 19  2  0
 19 20  1  0
 20 21  2  0
 21 22  1  0
 17 23  2  0
 23  2  1  0
 16  8  1  0
 22 18  1  0
 14 12  1  0
  1 24  1  0
  1 25  1  0
  1 26  1  0
  3 27  1  0
  5 28  1  0
  9 29  1  0
 11 30  1  0
 11 31  1  0
 12 32  1  0
 13 33  1  0
 13 34  1  0
 14 35  1  0
 14 36  1  0
 16 37  1  0
 19 38  1  0
 20 39  1  0
 21 40  1  0
M  END
$$$$
OCNT-2316159
     RDKit          3D

 38 41  0  0  0  0  0  0  0  0999 V2000
    2.8935    1.3660   -0.0578 O   0  0  0  0  0  0  0  0  0  0  0  0
    2.2388    0.3765    0.2625 C   0  0  0  0  0  0  0  0  0  0  0  0
    3.0404   -0.8497    0.4008 C   0  0  0  0  0  0  0  0  0  0  0  0
    3.7406   -1.3325   -0.7053 C   0  0  0  0  0  0  0  0  0  0  0  0
    4.5211   -2.4609   -0.5282 C   0  0  0  0  0  0  0  0  0  0  0  0
    4.6444   -3.1084    0.6535 N   0  0  0  0  0  0  0  0  0  0  0  0
    3.9774   -2.5891    1.7129 C   0  0  0  0  0  0  0  0  0  0  0  0
    3.1752   -1.4680    1.6354 C   0  0  0  0  0  0  0  0  0  0  0  0
    2.5360   -1.0182    2.7231 F   0  0  0  0  0  0  0  0  0  0  0  0
    0.8485    0.3009    0.4549 N   0  0  0  0  0  0  0  0  0  0  0  0
    0.1461   -0.9890    0.3491 C   0  0  0  0  0  0  0  0  0  0  0  0
   -1.2428   -0.9664    0.9658 C   0  0  0  0  0  0  0  0  0  0  0  0
   -2.0784    0.0564    0.3397 N   0  0  0  0  0  0  0  0  0  0  0  0
   -2.7776   -0.3287   -0.9049 C   0  0  0  0  0  0  0  0  0  0  0  0
   -4.2359   -0.0151   -1.1039 C   0  0  0  0  0  0  0  0  0  0  0  0
   -3.7989   -1.4354   -0.9164 C   0  0  0  0  0  0  0  0  0  0  0  0
   -1.4224    1.3260    0.3340 C   0  0  0  0  0  0  0  0  0  0  0  0
   -2.2333    2.4742    0.2413 C   0  0  0  0  0  0  0  0  0  0  0  0
   -1.6851    3.7523    0.2862 C   0  0  0  0  0  0  0  0  0  0  0  0
   -0.3145    3.9008    0.4341 C   0  0  0  0  0  0  0  0  0  0  0  0
    0.5108    2.7738    0.5129 C   0  0  0  0  0  0  0  0  0  0  0  0
   -0.0091    1.4709    0.4341 C   0  0  0  0  0  0  0  0  0  0  0  0
    3.6867   -0.8344   -1.6675 H   0  0  0  0  0  0  0  0  0  0  0  0
    5.0903   -2.8853   -1.3515 H   0  0  0  0  0  0  0  0  0  0  0  0
    4.1085   -3.1136    2.6540 H   0  0  0  0  0  0  0  0  0  0  0  0
    0.0994   -1.2404   -0.7183 H   0  0  0  0  0  0  0  0  0  0  0  0
    0.7169   -1.7818    0.8365 H   0  0  0  0  0  0  0  0  0  0  0  0
   -1.7070   -1.9547    0.8717 H   0  0  0  0  0  0  0  0  0  0  0  0
   -1.1727   -0.7622    2.0427 H   0  0  0  0  0  0  0  0  0  0  0  0
   -2.1373   -0.2564   -1.7825 H   0  0  0  0  0  0  0  0  0  0  0  0
   -4.7790    0.4512   -0.2907 H   0  0  0  0  0  0  0  0  0  0  0  0
   -4.5516    0.2995   -2.0910 H   0  0  0  0  0  0  0  0  0  0  0  0
   -3.8246   -2.0917   -1.7777 H   0  0  0  0  0  0  0  0  0  0  0  0
   -4.0592   -1.9145    0.0197 H   0  0  0  0  0  0  0  0  0  0  0  0
   -3.3116    2.3684    0.1654 H   0  0  0  0  0  0  0  0  0  0  0  0
   -2.3288    4.6252    0.2254 H   0  0  0  0  0  0  0  0  0  0  0  0
    0.1247    4.8937    0.4905 H   0  0  0  0  0  0  0  0  0  0  0  0
    1.5708    2.9605    0.6483 H   0  0  0  0  0  0  0  0  0  0  0  0
  1  2  2  0
  2  3  1  0
  3  4  2  0
  4  5  1  0
  5  6  2  0
  6  7  1  0
  7  8  2  0
  8  9  1  0
  2 10  1  0
 10 11  1  0
 11 12  1  0
 12 13  1  0
 13 14  1  0
 14 15  1  0
 15 16  1  0
 13 17  1  0
 17 18  2  0
 18 19  1  0
 19 20  2  0
 20 21  1  0
 21 22  2  0
  8  3  1  0
 22 10  1  0
 16 14  1  0
 22 17  1  0
  4 23  1  0
  5 24  1  0
  7 25  1  0
 11 26  1  0
 11 27  1  0
 12 28  1  0
 12 29  1  0
 14 30  1  0
 15 31  1  0
 15 32  1  0
 16 33  1  0
 16 34  1  0
 18 35  1  0
 19 36  1  0
 20 37  1  0
 21 38  1  0
M  END
$$$$
OCNT-2316164
     RDKit          3D

 56 58  0  0  0  0  0  0  0  0999 V2000
    5.5897    1.5367    2.7219 N   0  0  0  0  0  0  0  0  0  0  0  0
    5.2933    1.9352    1.4509 C   0  0  0  0  0  0  0  0  0  0  0  0
    6.0219    2.7144    0.8509 O   0  0  0  0  0  0  0  0  0  0  0  0
    4.0176    1.3307    0.8983 C   0  0  0  0  0  0  0  0  0  0  0  0
    3.7034    1.7958   -0.5367 C   0  0  0  0  0  0  0  0  0  0  0  0
    4.6449    1.1540   -1.5783 C   0  0  0  0  0  0  0  0  0  0  0  0
    3.9787    0.0502   -2.4016 C   0  0  0  0  0  0  0  0  0  0  0  0
    2.9742   -0.7548   -1.5844 C   0  0  0  0  0  0  0  0  0  0  0  0
    1.9257    0.0979   -1.0113 N   0  0  0  0  0  0  0  0  0  0  0  0
    0.5954   -0.2829   -0.8429 C   0  0  0  0  0  0  0  0  0  0  0  0
   -0.2860    0.5626   -0.6677 O   0  0  0  0  0  0  0  0  0  0  0  0
    0.2529   -1.7781   -0.8627 C   0  0  0  0  0  0  0  0  0  0  0  0
    0.8489   -2.5301    0.3340 C   0  0  0  0  0  0  0  0  0  0  0  0
    0.0830   -2.2561    1.6271 C   0  0  0  0  0  0  0  0  0  0  0  0
   -1.4039   -2.5454    1.4669 C   0  0  0  0  0  0  0  0  0  0  0  0
   -1.9569   -1.8054    0.3404 N   0  0  0  0  0  0  0  0  0  0  0  0
   -3.2180   -1.2190    0.4852 C   0  0  0  0  0  0  0  0  0  0  0  0
   -3.8741   -1.3591    1.5225 O   0  0  0  0  0  0  0  0  0  0  0  0
   -3.7428   -0.4118   -0.7003 C   0  0  0  0  0  0  0  0  0  0  0  0
   -4.9128    0.4901   -0.3797 C   0  0  0  0  0  0  0  0  0  0  0  0
   -4.6845    1.8046    0.0580 C   0  0  0  0  0  0  0  0  0  0  0  0
   -5.7562    2.6513    0.3436 C   0  0  0  0  0  0  0  0  0  0  0  0
   -7.0651    2.1910    0.2009 C   0  0  0  0  0  0  0  0  0  0  0  0
   -7.3038    0.8820   -0.2195 C   0  0  0  0  0  0  0  0  0  0  0  0
   -6.2330    0.0322   -0.5055 C   0  0  0  0  0  0  0  0  0  0  0  0
   -1.2692   -1.9851   -0.9422 C   0  0  0  0  0  0  0  0  0  0  0  0
    2.2332    1.5256   -0.8791 C   0  0  0  0  0  0  0  0  0  0  0  0
    5.0597    0.8354    3.2204 H   0  0  0  0  0  0  0  0  0  0  0  0
    6.4410    1.8925    3.1382 H   0  0  0  0  0  0  0  0  0  0  0  0
    4.1054    0.2401    0.9495 H   0  0  0  0  0  0  0  0  0  0  0  0
    3.2055    1.6339    1.5715 H   0  0  0  0  0  0  0  0  0  0  0  0
    3.8542    2.8824   -0.5745 H   0  0  0  0  0  0  0  0  0  0  0  0
    5.5549    0.7595   -1.0955 H   0  0  0  0  0  0  0  0  0  0  0  0
    4.9845    1.9290   -2.2780 H   0  0  0  0  0  0  0  0  0  0  0  0
    4.7405   -0.6127   -2.8264 H   0  0  0  0  0  0  0  0  0  0  0  0
    3.4575    0.5135   -3.2522 H   0  0  0  0  0  0  0  0  0  0  0  0
    3.4835   -1.2597   -0.7554 H   0  0  0  0  0  0  0  0  0  0  0  0
    2.5350   -1.5253   -2.2249 H   0  0  0  0  0  0  0  0  0  0  0  0
    0.6605   -2.1935   -1.7897 H   0  0  0  0  0  0  0  0  0  0  0  0
    1.9009   -2.2756    0.4890 H   0  0  0  0  0  0  0  0  0  0  0  0
    0.8149   -3.6067    0.1266 H   0  0  0  0  0  0  0  0  0  0  0  0
    0.4921   -2.8698    2.4339 H   0  0  0  0  0  0  0  0  0  0  0  0
    0.2229   -1.2083    1.9167 H   0  0  0  0  0  0  0  0  0  0  0  0
   -1.5721   -3.6121    1.2770 H   0  0  0  0  0  0  0  0  0  0  0  0
   -1.9197   -2.2935    2.3999 H   0  0  0  0  0  0  0  0  0  0  0  0
   -2.9404    0.2237   -1.0913 H   0  0  0  0  0  0  0  0  0  0  0  0
   -4.0291   -1.1110   -1.4963 H   0  0  0  0  0  0  0  0  0  0  0  0
   -3.6680    2.1719    0.1825 H   0  0  0  0  0  0  0  0  0  0  0  0
   -5.5701    3.6673    0.6810 H   0  0  0  0  0  0  0  0  0  0  0  0
   -7.8995    2.8494    0.4251 H   0  0  0  0  0  0  0  0  0  0  0  0
   -8.3258    0.5221   -0.3206 H   0  0  0  0  0  0  0  0  0  0  0  0
   -6.4330   -0.9869   -0.8219 H   0  0  0  0  0  0  0  0  0  0  0  0
   -1.6929   -1.3518   -1.7217 H   0  0  0  0  0  0  0  0  0  0  0  0
   -1.4743   -3.0174   -1.2505 H   0  0  0  0  0  0  0  0  0  0  0  0
    1.5818    1.9778   -0.1193 H   0  0  0  0  0  0  0  0  0  0  0  0
    1.9734    1.9992   -1.8349 H   0  0  0  0  0  0  0  0  0  0  0  0
  1  2  1  0
  2  3  2  0
  2  4  1  0
  4  5  1  0
  5  6  1  0
  6  7  1  0
  7  8  1  0
  8  9  1  0
  9 10  1  0
 10 11  2  0
 10 12  1  0
 12 13  1  0
 13 14  1  0
 14 15  1  0
 15 16  1  0
 16 17  1  0
 17 18  2  0
 17 19  1  0
 19 20  1  0
 20 21  2  0
 21 22  1  0
 22 23  2  0
 23 24  1  0
 24 25  2  0
 16 26  1  0
  9 27  1  0
 27  5  1  0
 26 12  1  0
 25 20  1  0
  1 28  1  0
  1 29  1  0
  4 30  1  0
  4 31  1  0
  5 32  1  0
  6 33  1  0
  6 34  1  0
  7 35  1  0
  7 36  1  0
  8 37  1  0
  8 38  1  0
 12 39  1  0
 13 40  1  0
 13 41  1  0
 14 42  1  0
 14 43  1  0
 15 44  1  0
 15 45  1  0
 19 46  1  0
 19 47  1  0
 21 48  1  0
 22 49  1  0
 23 50  1  0
 24 51  1  0
 25 52  1  0
 26 53  1  0
 26 54  1  0
 27 55  1  0
 27 56  1  0
M  END
$$$$
OCNT-2316180
     RDKit          3D

 46 50  0  0  0  0  0  0  0  0999 V2000
   -6.7251    0.5196    0.7381 C   0  0  0  0  0  0  0  0  0  0  0  0
   -6.0820   -0.5436    0.1091 C   0  0  0  0  0  0  0  0  0  0  0  0
   -4.6866   -0.5710    0.0359 C   0  0  0  0  0  0  0  0  0  0  0  0
   -3.9145    0.4627    0.5881 C   0  0  0  0  0  0  0  0  0  0  0  0
   -2.4625    0.4031    0.4865 C   0  0  0  0  0  0  0  0  0  0  0  0
   -1.5625    1.3538    0.9176 C   0  0  0  0  0  0  0  0  0  0  0  0
   -0.3312    0.8579    0.5935 N   0  0  0  0  0  0  0  0  0  0  0  0
   -0.5063   -0.3597   -0.0175 C   0  0  0  0  0  0  0  0  0  0  0  0
    0.6784   -1.1681   -0.4868 C   0  0  0  0  0  0  0  0  0  0  0  0
    0.2195   -2.5479   -1.0172 C   0  0  0  0  0  0  0  0  0  0  0  0
    1.3591   -3.2742   -1.7276 C   0  0  0  0  0  0  0  0  0  0  0  0
    1.9405   -2.4437   -2.8765 C   0  0  0  0  0  0  0  0  0  0  0  0
    1.4661   -0.9918   -2.8523 C   0  0  0  0  0  0  0  0  0  0  0  0
    1.5251   -0.4826   -1.4906 N   0  0  0  0  0  0  0  0  0  0  0  0
    2.4900    0.3773   -1.0518 C   0  0  0  0  0  0  0  0  0  0  0  0
    2.5335    0.8627    0.1753 N   0  0  0  0  0  0  0  0  0  0  0  0
    3.6375    1.6911    0.3077 C   0  0  0  0  0  0  0  0  0  0  0  0
    3.9299    2.3870    1.6741 C   0  0  0  0  0  0  0  0  0  0  0  0
    5.0256    1.8372    2.5522 C   0  0  0  0  0  0  0  0  0  0  0  0
    3.5890    1.6752    2.9591 C   0  0  0  0  0  0  0  0  0  0  0  0
    4.4343    1.9063   -0.7353 N   0  0  0  0  0  0  0  0  0  0  0  0
    3.8059    1.0155   -1.9924 S   0  0  0  0  0  0  0  0  0  0  0  0
   -1.7900   -0.6558   -0.0897 N   0  0  0  0  0  0  0  0  0  0  0  0
   -4.5771    1.5254    1.2198 C   0  0  0  0  0  0  0  0  0  0  0  0
   -5.9740    1.5532    1.2938 C   0  0  0  0  0  0  0  0  0  0  0  0
   -7.8105    0.5429    0.7940 H   0  0  0  0  0  0  0  0  0  0  0  0
   -6.6618   -1.3531   -0.3281 H   0  0  0  0  0  0  0  0  0  0  0  0
   -4.1976   -1.4073   -0.4604 H   0  0  0  0  0  0  0  0  0  0  0  0
   -1.6735    2.3124    1.4015 H   0  0  0  0  0  0  0  0  0  0  0  0
    0.5731    1.2922    0.7448 H   0  0  0  0  0  0  0  0  0  0  0  0
    1.2944   -1.3841    0.3996 H   0  0  0  0  0  0  0  0  0  0  0  0
   -0.6218   -2.4401   -1.7157 H   0  0  0  0  0  0  0  0  0  0  0  0
   -0.1511   -3.1614   -0.1860 H   0  0  0  0  0  0  0  0  0  0  0  0
    2.1538   -3.4914   -1.0024 H   0  0  0  0  0  0  0  0  0  0  0  0
    1.0119   -4.2425   -2.1062 H   0  0  0  0  0  0  0  0  0  0  0  0
    3.0358   -2.4813   -2.8221 H   0  0  0  0  0  0  0  0  0  0  0  0
    1.6645   -2.8941   -3.8377 H   0  0  0  0  0  0  0  0  0  0  0  0
    0.4291   -0.9348   -3.2090 H   0  0  0  0  0  0  0  0  0  0  0  0
    2.0434   -0.3987   -3.5691 H   0  0  0  0  0  0  0  0  0  0  0  0
    3.8031    3.4639    1.6511 H   0  0  0  0  0  0  0  0  0  0  0  0
    5.6354    2.5468    3.0984 H   0  0  0  0  0  0  0  0  0  0  0  0
    5.5630    0.9570    2.2159 H   0  0  0  0  0  0  0  0  0  0  0  0
    3.1580    0.6814    2.9059 H   0  0  0  0  0  0  0  0  0  0  0  0
    3.2231    2.2733    3.7855 H   0  0  0  0  0  0  0  0  0  0  0  0
   -4.0212    2.3465    1.6632 H   0  0  0  0  0  0  0  0  0  0  0  0
   -6.4737    2.3832    1.7860 H   0  0  0  0  0  0  0  0  0  0  0  0
  1  2  2  0
  2  3  1  0
  3  4  2  0
  4  5  1  0
  5  6  2  0
  6  7  1  0
  7  8  1  0
  8  9  1  0
  9 10  1  0
 10 11  1  0
 11 12  1  0
 12 13  1  0
 13 14  1  0
 14 15  1  0
 15 16  2  0
 16 17  1  0
 17 18  1  0
 18 19  1  0
 19 20  1  0
 17 21  2  0
 21 22  1  0
  8 23  2  0
  4 24  1  0
 24 25  2  0
 25  1  1  0
 23  5  1  0
 14  9  1  0
 22 15  1  0
 20 18  1  0
  1 26  1  0
  2 27  1  0
  3 28  1  0
  6 29  1  0
  7 30  1  0
  9 31  1  0
 10 32  1  0
 10 33  1  0
 11 34  1  0
 11 35  1  0
 12 36  1  0
 12 37  1  0
 13 38  1  0
 13 39  1  0
 18 40  1  0
 19 41  1  0
 19 42  1  0
 20 43  1  0
 20 44  1  0
 24 45  1  0
 25 46  1  0
M  END
$$$$
OCNT-2316181
     RDKit          3D

 37 38  0  0  0  0  0  0  0  0999 V2000
    6.3704    0.3001    0.7136 C   0  0  0  0  0  0  0  0  0  0  0  0
    5.3543    0.9015    1.6715 C   0  0  0  0  0  0  0  0  0  0  0  0
    4.1060    1.3287    0.9734 C   0  0  0  0  0  0  0  0  0  0  0  0
    3.8062    2.5975    0.5111 C   0  0  0  0  0  0  0  0  0  0  0  0
    2.2580    2.5998   -0.2273 S   0  0  0  0  0  0  0  0  0  0  0  0
    2.1140    0.9326    0.1173 C   0  0  0  0  0  0  0  0  0  0  0  0
    0.9380    0.3839   -0.3027 N   0  0  0  0  0  0  0  0  0  0  0  0
    0.6620   -0.9550   -0.2120 C   0  0  0  0  0  0  0  0  0  0  0  0
    1.4009   -1.8436    0.1894 O   0  0  0  0  0  0  0  0  0  0  0  0
   -0.6098   -1.2178   -0.6816 N   0  0  0  0  0  0  0  0  0  0  0  0
   -1.1653   -2.5522   -0.5757 C   0  0  0  0  0  0  0  0  0  0  0  0
   -2.5980   -2.6349   -1.1203 C   0  0  0  0  0  0  0  0  0  0  0  0
   -3.5793   -2.0569   -0.1931 N   0  0  0  0  0  0  0  0  0  0  0  0
   -3.8894   -0.6927   -0.2954 C   0  0  0  0  0  0  0  0  0  0  0  0
   -3.0568    0.1304   -0.9801 N   0  0  0  0  0  0  0  0  0  0  0  0
   -3.3699    1.4522   -1.0273 C   0  0  0  0  0  0  0  0  0  0  0  0
   -4.4622    2.0149   -0.3888 C   0  0  0  0  0  0  0  0  0  0  0  0
   -4.7740    3.6978   -0.4966 Cl  0  0  0  0  0  0  0  0  0  0  0  0
   -5.2965    1.1849    0.3413 C   0  0  0  0  0  0  0  0  0  0  0  0
   -5.0073   -0.1785    0.3934 C   0  0  0  0  0  0  0  0  0  0  0  0
   -6.0702   -1.2086    1.2879 Cl  0  0  0  0  0  0  0  0  0  0  0  0
    3.1204    0.3832    0.7441 N   0  0  0  0  0  0  0  0  0  0  0  0
    5.9621   -0.5801    0.2051 H   0  0  0  0  0  0  0  0  0  0  0  0
    6.6662    1.0233   -0.0540 H   0  0  0  0  0  0  0  0  0  0  0  0
    7.2696   -0.0070    1.2568 H   0  0  0  0  0  0  0  0  0  0  0  0
    5.1025    0.1651    2.4439 H   0  0  0  0  0  0  0  0  0  0  0  0
    5.8032    1.7587    2.1870 H   0  0  0  0  0  0  0  0  0  0  0  0
    4.4060    3.4942    0.5695 H   0  0  0  0  0  0  0  0  0  0  0  0
    0.3020    0.9778   -0.8031 H   0  0  0  0  0  0  0  0  0  0  0  0
   -1.2990   -0.4804   -0.5712 H   0  0  0  0  0  0  0  0  0  0  0  0
   -0.5118   -3.2250   -1.1425 H   0  0  0  0  0  0  0  0  0  0  0  0
   -1.1302   -2.8569    0.4769 H   0  0  0  0  0  0  0  0  0  0  0  0
   -2.6787   -2.1959   -2.1223 H   0  0  0  0  0  0  0  0  0  0  0  0
   -2.8476   -3.6976   -1.2255 H   0  0  0  0  0  0  0  0  0  0  0  0
   -4.4455   -2.5936   -0.1801 H   0  0  0  0  0  0  0  0  0  0  0  0
   -2.6892    2.0635   -1.6139 H   0  0  0  0  0  0  0  0  0  0  0  0
   -6.1610    1.5867    0.8609 H   0  0  0  0  0  0  0  0  0  0  0  0
  1  2  1  0
  2  3  1  0
  3  4  2  0
  4  5  1  0
  5  6  1  0
  6  7  1  0
  7  8  1  0
  8  9  2  0
  8 10  1  0
 10 11  1  0
 11 12  1  0
 12 13  1  0
 13 14  1  0
 14 15  1  0
 15 16  2  0
 16 17  1  0
 17 18  1  0
 17 19  2  0
 19 20  1  0
 20 21  1  0
  6 22  2  0
 22  3  1  0
 20 14  2  0
  1 23  1  0
  1 24  1  0
  1 25  1  0
  2 26  1  0
  2 27  1  0
  4 28  1  0
  7 29  1  0
 10 30  1  0
 11 31  1  0
 11 32  1  0
 12 33  1  0
 12 34  1  0
 13 35  1  0
 16 36  1  0
 19 37  1  0
M  END
$$$$
OCNT-2316189
     RDKit          3D

 39 41  0  0  0  0  0  0  0  0999 V2000
    1.9195    1.0664   -2.1343 C   0  0  0  0  0  0  0  0  0  0  0  0
    3.1675    0.6270   -1.3856 C   0  0  0  0  0  0  0  0  0  0  0  0
    2.8364    0.0829   -0.0342 C   0  0  0  0  0  0  0  0  0  0  0  0
    2.8132    0.7330    1.1825 C   0  0  0  0  0  0  0  0  0  0  0  0
    2.4177   -0.0299    2.2624 N   0  0  0  0  0  0  0  0  0  0  0  0
    2.1502   -1.2563    1.8590 C   0  0  0  0  0  0  0  0  0  0  0  0
    1.6347   -2.3341    2.7669 C   0  0  0  0  0  0  0  0  0  0  0  0
    0.7771   -1.7200    3.7976 N   0  0  0  0  0  0  0  0  0  0  0  0
   -0.8572   -1.5804    3.4574 S   0  0  0  0  0  0  0  0  0  0  0  0
   -1.3328   -2.8677    3.0020 O   0  0  0  0  0  0  0  0  0  0  0  0
   -1.4630   -0.8724    4.5600 O   0  0  0  0  0  0  0  0  0  0  0  0
   -1.0937   -0.5396    2.1256 C   0  0  0  0  0  0  0  0  0  0  0  0
   -1.6483   -0.8276    0.8993 C   0  0  0  0  0  0  0  0  0  0  0  0
   -1.6002    0.3350    0.1613 N   0  0  0  0  0  0  0  0  0  0  0  0
   -2.0511    0.5461   -1.1733 C   0  0  0  0  0  0  0  0  0  0  0  0
   -2.6743   -0.4774   -1.9002 C   0  0  0  0  0  0  0  0  0  0  0  0
   -3.1089   -0.2398   -3.2084 C   0  0  0  0  0  0  0  0  0  0  0  0
   -2.9207    1.0099   -3.7979 C   0  0  0  0  0  0  0  0  0  0  0  0
   -2.2995    2.0309   -3.0830 C   0  0  0  0  0  0  0  0  0  0  0  0
   -1.8672    1.8043   -1.7749 C   0  0  0  0  0  0  0  0  0  0  0  0
   -1.0277    1.3460    0.8723 N   0  0  0  0  0  0  0  0  0  0  0  0
   -0.7467    0.8098    2.0629 C   0  0  0  0  0  0  0  0  0  0  0  0
    2.4000   -1.5597    0.1891 S   0  0  0  0  0  0  0  0  0  0  0  0
    2.1853    1.4705   -3.1147 H   0  0  0  0  0  0  0  0  0  0  0  0
    1.3812    1.8459   -1.5801 H   0  0  0  0  0  0  0  0  0  0  0  0
    1.2321    0.2279   -2.2931 H   0  0  0  0  0  0  0  0  0  0  0  0
    3.7088   -0.1198   -1.9783 H   0  0  0  0  0  0  0  0  0  0  0  0
    3.8390    1.4869   -1.2752 H   0  0  0  0  0  0  0  0  0  0  0  0
    3.0559    1.7768    1.3324 H   0  0  0  0  0  0  0  0  0  0  0  0
    2.4894   -2.7899    3.2804 H   0  0  0  0  0  0  0  0  0  0  0  0
    1.1167   -3.1353    2.2344 H   0  0  0  0  0  0  0  0  0  0  0  0
    1.1713   -0.8469    4.1571 H   0  0  0  0  0  0  0  0  0  0  0  0
   -2.0596   -1.7477    0.5169 H   0  0  0  0  0  0  0  0  0  0  0  0
   -2.8475   -1.4632   -1.4818 H   0  0  0  0  0  0  0  0  0  0  0  0
   -3.6068   -1.0347   -3.7645 H   0  0  0  0  0  0  0  0  0  0  0  0
   -3.2642    1.1893   -4.8136 H   0  0  0  0  0  0  0  0  0  0  0  0
   -2.1528    3.0075   -3.5405 H   0  0  0  0  0  0  0  0  0  0  0  0
   -1.3853    2.6181   -1.2355 H   0  0  0  0  0  0  0  0  0  0  0  0
   -0.2886    1.4283    2.8240 H   0  0  0  0  0  0  0  0  0  0  0  0
  1  2  1  0
  2  3  1  0
  3  4  2  0
  4  5  1  0
  5  6  2  0
  6  7  1  0
  7  8  1  0
  8  9  1  0
  9 10  2  0
  9 11  2  0
  9 12  1  0
 12 13  2  0
 13 14  1  0
 14 15  1  0
 15 16  2  0
 16 17  1  0
 17 18  2  0
 18 19  1  0
 19 20  2  0
 14 21  1  0
 21 22  2  0
  6 23  1  0
 23  3  1  0
 22 12  1  0
 20 15  1  0
  1 24  1  0
  1 25  1  0
  1 26  1  0
  2 27  1  0
  2 28  1  0
  4 29  1  0
  7 30  1  0
  7 31  1  0
  8 32  1  0
 13 33  1  0
 16 34  1  0
 17 35  1  0
 18 36  1  0
 19 37  1  0
 20 38  1  0
 22 39  1  0
M  END
$$$$
OCNT-2316204
     RDKit          3D

 39 41  0  0  0  0  0  0  0  0999 V2000
    6.4796   -0.7770    0.7644 C   0  0  0  0  0  0  0  0  0  0  0  0
    6.4514    0.5384    1.3028 O   0  0  0  0  0  0  0  0  0  0  0  0
    5.1982    0.8514    1.9335 C   0  0  0  0  0  0  0  0  0  0  0  0
    4.0734    1.0908    0.9836 C   0  0  0  0  0  0  0  0  0  0  0  0
    3.7487    2.3122    0.5365 N   0  0  0  0  0  0  0  0  0  0  0  0
    2.6540    2.0695   -0.2949 O   0  0  0  0  0  0  0  0  0  0  0  0
    2.4327    0.7228   -0.2623 C   0  0  0  0  0  0  0  0  0  0  0  0
    1.3112    0.2043   -1.1008 C   0  0  0  0  0  0  0  0  0  0  0  0
   -0.0097    0.2813   -0.4423 N   0  0  0  0  0  0  0  0  0  0  0  0
   -0.1171   -0.6671    0.6768 C   0  0  0  0  0  0  0  0  0  0  0  0
   -1.4263   -0.4476    1.4480 C   0  0  0  0  0  0  0  0  0  0  0  0
   -2.6405   -0.3406    0.5552 C   0  0  0  0  0  0  0  0  0  0  0  0
   -3.9492   -0.4117    1.0599 C   0  0  0  0  0  0  0  0  0  0  0  0
   -4.3075   -0.6699    2.9090 Br  0  0  0  0  0  0  0  0  0  0  0  0
   -5.0521   -0.2815    0.2089 C   0  0  0  0  0  0  0  0  0  0  0  0
   -4.8726   -0.0782   -1.1621 C   0  0  0  0  0  0  0  0  0  0  0  0
   -6.0564    0.0927   -2.0671 C   0  0  0  0  0  0  0  0  0  0  0  0
   -3.5722    0.0264   -1.6652 C   0  0  0  0  0  0  0  0  0  0  0  0
   -2.4550   -0.0923   -0.8199 C   0  0  0  0  0  0  0  0  0  0  0  0
   -1.0682   -0.0099   -1.4243 C   0  0  0  0  0  0  0  0  0  0  0  0
    3.2775    0.0719    0.5097 N   0  0  0  0  0  0  0  0  0  0  0  0
    5.7880   -0.8699   -0.0773 H   0  0  0  0  0  0  0  0  0  0  0  0
    6.2442   -1.5179    1.5344 H   0  0  0  0  0  0  0  0  0  0  0  0
    7.4907   -0.9716    0.3959 H   0  0  0  0  0  0  0  0  0  0  0  0
    4.9362    0.0589    2.6446 H   0  0  0  0  0  0  0  0  0  0  0  0
    5.3664    1.7579    2.5261 H   0  0  0  0  0  0  0  0  0  0  0  0
    1.2935    0.8031   -2.0210 H   0  0  0  0  0  0  0  0  0  0  0  0
    1.5356   -0.8269   -1.4031 H   0  0  0  0  0  0  0  0  0  0  0  0
   -0.0647   -1.7027    0.3133 H   0  0  0  0  0  0  0  0  0  0  0  0
    0.7051   -0.5366    1.3896 H   0  0  0  0  0  0  0  0  0  0  0  0
   -1.5406   -1.2847    2.1458 H   0  0  0  0  0  0  0  0  0  0  0  0
   -1.3487    0.4783    2.0321 H   0  0  0  0  0  0  0  0  0  0  0  0
   -6.0597   -0.3350    0.6159 H   0  0  0  0  0  0  0  0  0  0  0  0
   -6.9114   -0.4885   -1.7060 H   0  0  0  0  0  0  0  0  0  0  0  0
   -5.8289   -0.2598   -3.0787 H   0  0  0  0  0  0  0  0  0  0  0  0
   -6.3409    1.1483   -2.1157 H   0  0  0  0  0  0  0  0  0  0  0  0
   -3.4235    0.2067   -2.7289 H   0  0  0  0  0  0  0  0  0  0  0  0
   -1.0695    0.7890   -2.1768 H   0  0  0  0  0  0  0  0  0  0  0  0
   -0.8719   -0.9600   -1.9397 H   0  0  0  0  0  0  0  0  0  0  0  0
  1  2  1  0
  2  3  1  0
  3  4  1  0
  4  5  2  0
  5  6  1  0
  6  7  1  0
  7  8  1  0
  8  9  1  0
  9 10  1  0
 10 11  1  0
 11 12  1  0
 12 13  1  0
 13 14  1  0
 13 15  2  0
 15 16  1  0
 16 17  1  0
 16 18  2  0
 18 19  1  0
 19 20  1  0
  7 21  2  0
 21  4  1  0
 20  9  1  0
 19 12  2  0
  1 22  1  0
  1 23  1  0
  1 24  1  0
  3 25  1  0
  3 26  1  0
  8 27  1  0
  8 28  1  0
 10 29  1  0
 10 30  1  0
 11 31  1  0
 11 32  1  0
 15 33  1  0
 17 34  1  0
 17 35  1  0
 17 36  1  0
 18 37  1  0
 20 38  1  0
 20 39  1  0
M  END
$$$$
OCNT-2316205
     RDKit          3D

 53 56  0  0  0  0  0  0  0  0999 V2000
   -6.9416   -0.5214   -0.1738 C   0  0  0  0  0  0  0  0  0  0  0  0
   -5.6398    0.1790   -0.4279 C   0  0  0  0  0  0  0  0  0  0  0  0
   -4.4657   -0.5617   -0.6255 C   0  0  0  0  0  0  0  0  0  0  0  0
   -3.2429    0.0747   -0.8839 C   0  0  0  0  0  0  0  0  0  0  0  0
   -1.9719   -0.7205   -1.0993 C   0  0  0  0  0  0  0  0  0  0  0  0
   -1.4752   -1.5888    0.0966 C   0  0  0  0  0  0  0  0  0  0  0  0
   -2.3452   -2.7227    0.2530 O   0  0  0  0  0  0  0  0  0  0  0  0
   -1.4508   -0.8345    1.4326 C   0  0  0  0  0  0  0  0  0  0  0  0
   -0.4598    0.3218    1.3980 C   0  0  0  0  0  0  0  0  0  0  0  0
    0.7968   -0.0288    0.7434 N   0  0  0  0  0  0  0  0  0  0  0  0
    1.6830    1.0134    0.4574 C   0  0  0  0  0  0  0  0  0  0  0  0
    1.3473    2.1930    0.5504 O   0  0  0  0  0  0  0  0  0  0  0  0
    3.0256    0.6613    0.0111 C   0  0  0  0  0  0  0  0  0  0  0  0
    3.5643    1.0034   -1.2219 C   0  0  0  0  0  0  0  0  0  0  0  0
    2.9701    1.7576   -2.3553 C   0  0  0  0  0  0  0  0  0  0  0  0
    4.8471    0.5180   -1.2655 N   0  0  0  0  0  0  0  0  0  0  0  0
    5.1664   -0.1132   -0.0863 C   0  0  0  0  0  0  0  0  0  0  0  0
    6.3557   -0.7384    0.3073 C   0  0  0  0  0  0  0  0  0  0  0  0
    6.4082   -1.2804    1.5948 C   0  0  0  0  0  0  0  0  0  0  0  0
    5.3165   -1.1936    2.4548 C   0  0  0  0  0  0  0  0  0  0  0  0
    4.1352   -0.5654    2.0448 C   0  0  0  0  0  0  0  0  0  0  0  0
    4.0503   -0.0219    0.7450 C   0  0  0  0  0  0  0  0  0  0  0  0
    1.0639   -1.4501    0.5484 C   0  0  0  0  0  0  0  0  0  0  0  0
   -0.0643   -2.1455   -0.2188 C   0  0  0  0  0  0  0  0  0  0  0  0
   -3.2179    1.4738   -0.9689 C   0  0  0  0  0  0  0  0  0  0  0  0
   -4.3839    2.2176   -0.7885 C   0  0  0  0  0  0  0  0  0  0  0  0
   -5.5909    1.5731   -0.5234 C   0  0  0  0  0  0  0  0  0  0  0  0
   -7.4127   -0.7916   -1.1240 H   0  0  0  0  0  0  0  0  0  0  0  0
   -7.6279    0.1189    0.3902 H   0  0  0  0  0  0  0  0  0  0  0  0
   -6.7858   -1.4299    0.4173 H   0  0  0  0  0  0  0  0  0  0  0  0
   -4.5095   -1.6473   -0.5682 H   0  0  0  0  0  0  0  0  0  0  0  0
   -1.1740   -0.0282   -1.3990 H   0  0  0  0  0  0  0  0  0  0  0  0
   -2.1474   -1.3673   -1.9702 H   0  0  0  0  0  0  0  0  0  0  0  0
   -2.3828   -3.1920   -0.5984 H   0  0  0  0  0  0  0  0  0  0  0  0
   -2.4466   -0.4776    1.7196 H   0  0  0  0  0  0  0  0  0  0  0  0
   -1.1703   -1.5356    2.2313 H   0  0  0  0  0  0  0  0  0  0  0  0
   -0.2258    0.6433    2.4198 H   0  0  0  0  0  0  0  0  0  0  0  0
   -0.8933    1.1874    0.8865 H   0  0  0  0  0  0  0  0  0  0  0  0
    1.9768    1.3661   -2.5979 H   0  0  0  0  0  0  0  0  0  0  0  0
    3.5884    1.6832   -3.2557 H   0  0  0  0  0  0  0  0  0  0  0  0
    2.8707    2.8164   -2.0960 H   0  0  0  0  0  0  0  0  0  0  0  0
    5.4838    0.6255   -2.0429 H   0  0  0  0  0  0  0  0  0  0  0  0
    7.2134   -0.7966   -0.3549 H   0  0  0  0  0  0  0  0  0  0  0  0
    7.3196   -1.7689    1.9322 H   0  0  0  0  0  0  0  0  0  0  0  0
    5.3822   -1.6118    3.4562 H   0  0  0  0  0  0  0  0  0  0  0  0
    3.2927   -0.4948    2.7271 H   0  0  0  0  0  0  0  0  0  0  0  0
    1.9980   -1.6260    0.0113 H   0  0  0  0  0  0  0  0  0  0  0  0
    1.1751   -1.8959    1.5441 H   0  0  0  0  0  0  0  0  0  0  0  0
    0.1358   -2.0518   -1.2945 H   0  0  0  0  0  0  0  0  0  0  0  0
   -0.0100   -3.2219   -0.0101 H   0  0  0  0  0  0  0  0  0  0  0  0
   -2.2874    1.9994   -1.1754 H   0  0  0  0  0  0  0  0  0  0  0  0
   -4.3509    3.3019   -0.8566 H   0  0  0  0  0  0  0  0  0  0  0  0
   -6.4927    2.1660   -0.3904 H   0  0  0  0  0  0  0  0  0  0  0  0
  1  2  1  0
  2  3  2  0
  3  4  1  0
  4  5  1  0
  5  6  1  0
  6  7  1  0
  6  8  1  0
  8  9  1  0
  9 10  1  0
 10 11  1  0
 11 12  2  0
 11 13  1  0
 13 14  2  0
 14 15  1  0
 14 16  1  0
 16 17  1  0
 17 18  2  0
 18 19  1  0
 19 20  2  0
 20 21  1  0
 21 22  2  0
 10 23  1  0
 23 24  1  0
  4 25  2  0
 25 26  1  0
 26 27  2  0
 27  2  1  0
 24  6  1  0
 22 13  1  0
 22 17  1  0
  1 28  1  0
  1 29  1  0
  1 30  1  0
  3 31  1  0
  5 32  1  0
  5 33  1  0
  7 34  1  0
  8 35  1  0
  8 36  1  0
  9 37  1  0
  9 38  1  0
 15 39  1  0
 15 40  1  0
 15 41  1  0
 16 42  1  0
 18 43  1  0
 19 44  1  0
 20 45  1  0
 21 46  1  0
 23 47  1  0
 23 48  1  0
 24 49  1  0
 24 50  1  0
 25 51  1  0
 26 52  1  0
 27 53  1  0
M  END
$$$$
OCNT-2316215
     RDKit          3D

 40 42  0  0  0  0  0  0  0  0999 V2000
    0.2967    1.7429   -0.4670 O   0  0  0  0  0  0  0  0  0  0  0  0
    0.0803    0.5361   -0.5541 C   0  0  0  0  0  0  0  0  0  0  0  0
    1.0216   -0.3372   -1.2331 C   0  0  0  0  0  0  0  0  0  0  0  0
    0.7223   -1.2241   -2.2517 C   0  0  0  0  0  0  0  0  0  0  0  0
    1.9051   -1.7638   -2.6447 N   0  0  0  0  0  0  0  0  0  0  0  0
    2.9576   -1.3023   -1.9619 N   0  0  0  0  0  0  0  0  0  0  0  0
    2.4441   -0.4070   -1.0974 C   0  0  0  0  0  0  0  0  0  0  0  0
    3.3299    0.3196   -0.1816 C   0  0  0  0  0  0  0  0  0  0  0  0
    2.9287    0.6459    1.1224 C   0  0  0  0  0  0  0  0  0  0  0  0
    3.7903    1.3333    1.9827 C   0  0  0  0  0  0  0  0  0  0  0  0
    5.0651    1.6949    1.5509 C   0  0  0  0  0  0  0  0  0  0  0  0
    5.4749    1.3649    0.2613 C   0  0  0  0  0  0  0  0  0  0  0  0
    7.0521    1.8060   -0.2695 Cl  0  0  0  0  0  0  0  0  0  0  0  0
    4.6195    0.6807   -0.6012 C   0  0  0  0  0  0  0  0  0  0  0  0
   -1.0909   -0.0326   -0.0400 N   0  0  0  0  0  0  0  0  0  0  0  0
   -1.2175   -1.4335    0.3509 C   0  0  0  0  0  0  0  0  0  0  0  0
   -2.5930   -1.9809   -0.0279 C   0  0  0  0  0  0  0  0  0  0  0  0
   -3.7146   -0.9338    0.0476 C   0  0  0  0  0  0  0  0  0  0  0  0
   -3.3766    0.2214    1.0020 C   0  0  0  0  0  0  0  0  0  0  0  0
   -3.2029   -0.3607    2.3212 O   0  0  0  0  0  0  0  0  0  0  0  0
   -4.4940    1.2788    1.0056 C   0  0  0  0  0  0  0  0  0  0  0  0
   -4.7340    1.7706   -0.2280 F   0  0  0  0  0  0  0  0  0  0  0  0
   -5.6485    0.7304    1.4593 F   0  0  0  0  0  0  0  0  0  0  0  0
   -4.1983    2.3165    1.8175 F   0  0  0  0  0  0  0  0  0  0  0  0
   -2.0558    0.8923    0.5738 C   0  0  0  0  0  0  0  0  0  0  0  0
   -0.2095   -1.4860   -2.7320 H   0  0  0  0  0  0  0  0  0  0  0  0
    2.0731   -2.4460   -3.3774 H   0  0  0  0  0  0  0  0  0  0  0  0
    1.9455    0.3670    1.4918 H   0  0  0  0  0  0  0  0  0  0  0  0
    3.4645    1.5859    2.9886 H   0  0  0  0  0  0  0  0  0  0  0  0
    5.7318    2.2301    2.2214 H   0  0  0  0  0  0  0  0  0  0  0  0
    4.9535    0.4275   -1.6050 H   0  0  0  0  0  0  0  0  0  0  0  0
   -0.4362   -2.0671   -0.0725 H   0  0  0  0  0  0  0  0  0  0  0  0
   -1.0687   -1.4772    1.4368 H   0  0  0  0  0  0  0  0  0  0  0  0
   -2.8271   -2.8324    0.6221 H   0  0  0  0  0  0  0  0  0  0  0  0
   -2.5620   -2.3770   -1.0505 H   0  0  0  0  0  0  0  0  0  0  0  0
   -3.8945   -0.5369   -0.9600 H   0  0  0  0  0  0  0  0  0  0  0  0
   -4.6383   -1.4369    0.3589 H   0  0  0  0  0  0  0  0  0  0  0  0
   -4.0918   -0.5439    2.6827 H   0  0  0  0  0  0  0  0  0  0  0  0
   -2.2389    1.6856   -0.1616 H   0  0  0  0  0  0  0  0  0  0  0  0
   -1.5636    1.3487    1.4420 H   0  0  0  0  0  0  0  0  0  0  0  0
  1  2  2  0
  2  3  1  0
  3  4  2  0
  4  5  1  0
  5  6  1  0
  6  7  2  0
  7  8  1  0
  8  9  2  0
  9 10  1  0
 10 11  2  0
 11 12  1  0
 12 13  1  0
 12 14  2  0
  2 15  1  0
 15 16  1  0
 16 17  1  0
 17 18  1  0
 18 19  1  0
 19 20  1  0
 19 21  1  0
 21 22  1  0
 21 23  1  0
 21 24  1  0
 19 25  1  0
  7  3  1  0
 14  8  1  0
 25 15  1  0
  4 26  1  0
  5 27  1  0
  9 28  1  0
 10 29  1  0
 11 30  1  0
 14 31  1  0
 16 32  1  0
 16 33  1  0
 17 34  1  0
 17 35  1  0
 18 36  1  0
 18 37  1  0
 20 38  1  0
 25 39  1  0
 25 40  1  0
M  END
$$$$
OCNT-2316229
     RDKit          3D

 42 45  0  0  0  0  0  0  0  0999 V2000
    1.6232   -3.1261   -0.8326 O   0  0  0  0  0  0  0  0  0  0  0  0
    1.9302   -1.9530   -1.0117 C   0  0  0  0  0  0  0  0  0  0  0  0
    1.0568   -0.8824   -1.0090 N   0  0  0  0  0  0  0  0  0  0  0  0
   -0.3225   -0.8926   -0.7152 C   0  0  0  0  0  0  0  0  0  0  0  0
   -0.9994    0.3297   -0.8021 C   0  0  0  0  0  0  0  0  0  0  0  0
   -2.3671    0.4116   -0.5249 C   0  0  0  0  0  0  0  0  0  0  0  0
   -3.0863   -0.7290   -0.1469 C   0  0  0  0  0  0  0  0  0  0  0  0
   -4.5635   -0.6453    0.1494 C   0  0  0  0  0  0  0  0  0  0  0  0
   -4.8383    0.1829    1.3165 N   0  0  0  0  0  0  0  0  0  0  0  0
   -4.6499   -0.1605    2.6275 C   0  0  0  0  0  0  0  0  0  0  0  0
   -5.0713    0.9176    3.3688 C   0  0  0  0  0  0  0  0  0  0  0  0
   -5.5090    1.8560    2.4169 C   0  0  0  0  0  0  0  0  0  0  0  0
   -5.3796    1.4115    1.1643 N   0  0  0  0  0  0  0  0  0  0  0  0
   -2.4070   -1.9503   -0.0591 C   0  0  0  0  0  0  0  0  0  0  0  0
   -1.0371   -2.0299   -0.3389 C   0  0  0  0  0  0  0  0  0  0  0  0
    3.3158   -1.5958   -1.3073 C   0  0  0  0  0  0  0  0  0  0  0  0
    4.2109   -2.4491   -1.9276 C   0  0  0  0  0  0  0  0  0  0  0  0
    5.3736   -1.7632   -2.0652 N   0  0  0  0  0  0  0  0  0  0  0  0
    5.3159   -0.5172   -1.5797 N   0  0  0  0  0  0  0  0  0  0  0  0
    4.0823   -0.4118   -1.0563 C   0  0  0  0  0  0  0  0  0  0  0  0
    3.7043    0.8055   -0.3486 C   0  0  0  0  0  0  0  0  0  0  0  0
    3.9769    2.0647   -0.8903 C   0  0  0  0  0  0  0  0  0  0  0  0
    3.5873    3.2128   -0.2039 C   0  0  0  0  0  0  0  0  0  0  0  0
    2.9363    3.0629    1.0093 C   0  0  0  0  0  0  0  0  0  0  0  0
    2.6625    1.8650    1.5692 N   0  0  0  0  0  0  0  0  0  0  0  0
    3.0664    0.7655    0.8872 C   0  0  0  0  0  0  0  0  0  0  0  0
    1.4301    0.0166   -1.2829 H   0  0  0  0  0  0  0  0  0  0  0  0
   -0.4744    1.2409   -1.0786 H   0  0  0  0  0  0  0  0  0  0  0  0
   -2.8677    1.3769   -0.5949 H   0  0  0  0  0  0  0  0  0  0  0  0
   -5.0998   -0.2248   -0.7091 H   0  0  0  0  0  0  0  0  0  0  0  0
   -4.9912   -1.6335    0.3550 H   0  0  0  0  0  0  0  0  0  0  0  0
   -4.2302   -1.1153    2.9113 H   0  0  0  0  0  0  0  0  0  0  0  0
   -5.0631    1.0139    4.4448 H   0  0  0  0  0  0  0  0  0  0  0  0
   -5.9189    2.8437    2.5840 H   0  0  0  0  0  0  0  0  0  0  0  0
   -2.9324   -2.8583    0.2305 H   0  0  0  0  0  0  0  0  0  0  0  0
   -0.5612   -3.0014   -0.2496 H   0  0  0  0  0  0  0  0  0  0  0  0
    4.1012   -3.4646   -2.2834 H   0  0  0  0  0  0  0  0  0  0  0  0
    6.2438   -2.0779   -2.4835 H   0  0  0  0  0  0  0  0  0  0  0  0
    4.4978    2.1530   -1.8412 H   0  0  0  0  0  0  0  0  0  0  0  0
    3.7928    4.1994   -0.6041 H   0  0  0  0  0  0  0  0  0  0  0  0
    2.6127    3.9273    1.5827 H   0  0  0  0  0  0  0  0  0  0  0  0
    2.8492   -0.1752    1.3875 H   0  0  0  0  0  0  0  0  0  0  0  0
  1  2  2  0
  2  3  1  0
  3  4  1  0
  4  5  1  0
  5  6  2  0
  6  7  1  0
  7  8  1  0
  8  9  1  0
  9 10  1  0
 10 11  2  0
 11 12  1  0
 12 13  2  0
  7 14  2  0
 14 15  1  0
  2 16  1  0
 16 17  2  0
 17 18  1  0
 18 19  1  0
 19 20  2  0
 20 21  1  0
 21 22  1  0
 22 23  2  0
 23 24  1  0
 24 25  2  0
 25 26  1  0
 15  4  2  0
 20 16  1  0
 26 21  2  0
 13  9  1  0
  3 27  1  0
  5 28  1  0
  6 29  1  0
  8 30  1  0
  8 31  1  0
 10 32  1  0
 11 33  1  0
 12 34  1  0
 14 35  1  0
 15 36  1  0
 17 37  1  0
 18 38  1  0
 22 39  1  0
 23 40  1  0
 24 41  1  0
 26 42  1  0
M  END
$$$$
OCNT-2316247
     RDKit          3D

  0  0  0  0  0  0  0  0  0  0999 V3000
M  V30 BEGIN CTAB
M  V30 COUNTS 44 47 0 0 0
M  V30 BEGIN ATOM
M  V30 1 O -2.084187 -0.840458 -0.132454 0
M  V30 2 C -1.948856 0.268759 -0.644391 0
M  V30 3 N -0.707259 0.774209 -0.983557 0
M  V30 4 C 0.474883 -0.063998 -1.013929 0 CFG=2
M  V30 5 C 0.866786 -0.637745 0.360074 0
M  V30 6 C 2.387497 -0.445971 0.496334 0
M  V30 7 C 3.074844 -1.659084 1.123875 0
M  V30 8 N 4.490995 -1.449339 1.346961 0
M  V30 9 C 5.510492 -1.882913 0.547480 0
M  V30 10 C 6.656673 -1.441230 1.167902 0
M  V30 11 N 6.356109 -0.761958 2.319794 0
M  V30 12 C 5.045396 -0.792524 2.407587 0
M  V30 13 C 2.861966 -0.124277 -0.921278 0
M  V30 14 C 1.718937 0.710614 -1.473952 0 CFG=1
M  V30 15 O 1.775422 0.807508 -2.886601 0
M  V30 16 C -3.045871 1.158348 -0.967524 0
M  V30 17 C -4.409208 1.072560 -0.769456 0
M  V30 18 C -5.164932 -0.094490 -0.098214 0
M  V30 19 C -4.976731 -0.331772 1.378046 0
M  V30 20 C -6.284126 0.196747 0.867916 0
M  V30 21 C -4.999690 2.228282 -1.323275 0
M  V30 22 C -3.958716 2.971620 -1.825085 0
M  V30 23 O -2.772889 2.341561 -1.616938 0
M  V30 24 H -0.735672 1.572808 -1.611676 0
M  V30 25 H 0.262095 -0.885199 -1.711261 0
M  V30 26 H 0.354752 -0.132138 1.186908 0
M  V30 27 H 0.585729 -1.696646 0.410066 0
M  V30 28 H 2.564662 0.437345 1.126305 0
M  V30 29 H 2.628403 -1.893155 2.097721 0
M  V30 30 H 2.964876 -2.548824 0.492051 0
M  V30 31 H 5.348460 -2.444821 -0.362188 0
M  V30 32 H 7.681192 -1.577247 0.847630 0
M  V30 33 H 4.458412 -0.356618 3.205082 0
M  V30 34 H 3.807689 0.427946 -0.935982 0
M  V30 35 H 3.005467 -1.031639 -1.522288 0
M  V30 36 H 1.732897 1.723869 -1.053234 0
M  V30 37 H 2.620730 1.231322 -3.118570 0
M  V30 38 H -5.268268 -0.976913 -0.723406 0
M  V30 39 H -4.932006 -1.360540 1.717422 0
M  V30 40 H -4.333363 0.341688 1.934303 0
M  V30 41 H -7.137012 -0.472256 0.865202 0
M  V30 42 H -6.531156 1.226057 1.099434 0
M  V30 43 H -6.047508 2.488938 -1.358550 0
M  V30 44 H -3.897912 3.921573 -2.337473 0
M  V30 END ATOM
M  V30 BEGIN BOND
M  V30 1 2 1 2
M  V30 2 1 2 3
M  V30 3 1 3 4
M  V30 4 1 4 5
M  V30 5 1 5 6
M  V30 6 1 6 7
M  V30 7 1 7 8
M  V30 8 1 8 9
M  V30 9 2 9 10
M  V30 10 1 10 11
M  V30 11 2 11 12
M  V30 12 1 6 13
M  V30 13 1 13 14
M  V30 14 1 14 15
M  V30 15 1 2 16
M  V30 16 2 16 17
M  V30 17 1 17 18
M  V30 18 1 18 19
M  V30 19 1 19 20
M  V30 20 1 17 21
M  V30 21 2 21 22
M  V30 22 1 22 23
M  V30 23 1 14 4
M  V30 24 1 23 16
M  V30 25 1 12 8
M  V30 26 1 20 18
M  V30 27 1 3 24
M  V30 28 1 4 25 CFG=3
M  V30 29 1 5 26
M  V30 30 1 5 27
M  V30 31 1 6 28
M  V30 32 1 7 29
M  V30 33 1 7 30
M  V30 34 1 9 31
M  V30 35 1 10 32
M  V30 36 1 12 33
M  V30 37 1 13 34
M  V30 38 1 13 35
M  V30 39 1 14 36 CFG=1
M  V30 40 1 15 37
M  V30 41 1 18 38
M  V30 42 1 19 39
M  V30 43 1 19 40
M  V30 44 1 20 41
M  V30 45 1 20 42
M  V30 46 1 21 43
M  V30 47 1 22 44
M  V30 END BOND
M  V30 BEGIN COLLECTION
M  V30 MDLV30/STERAC1 ATOMS=(2 4 14)
M  V30 END COLLECTION
M  V30 END CTAB
M  END
>  <_CXSMILES_Data>  (1090) 
|&1:3,13|

$$$$
OCNT-2316254
     RDKit          3D

 42 43  0  0  0  0  0  0  0  0999 V2000
    3.0099    2.2646    1.8130 C   0  0  0  0  0  0  0  0  0  0  0  0
    3.4305    1.3876    0.6757 C   0  0  0  0  0  0  0  0  0  0  0  0
    4.3071    1.8665   -0.3026 C   0  0  0  0  0  0  0  0  0  0  0  0
    4.6887    1.0480   -1.3660 C   0  0  0  0  0  0  0  0  0  0  0  0
    4.1766   -0.2377   -1.4354 C   0  0  0  0  0  0  0  0  0  0  0  0
    3.3183   -0.7489   -0.5308 N   0  0  0  0  0  0  0  0  0  0  0  0
    2.9725    0.0841    0.4998 C   0  0  0  0  0  0  0  0  0  0  0  0
    1.8008   -0.6731    1.6330 S   0  0  0  0  0  0  0  0  0  0  0  0
    0.6826    0.2265    1.8209 O   0  0  0  0  0  0  0  0  0  0  0  0
    2.5634   -1.1960    2.7455 O   0  0  0  0  0  0  0  0  0  0  0  0
    1.2291   -2.0260    0.7447 N   0  0  0  0  0  0  0  0  0  0  0  0
    0.2252   -1.7250   -0.3135 C   0  0  0  0  0  0  0  0  0  0  0  0
   -1.2144   -1.7965    0.2126 C   0  0  0  0  0  0  0  0  0  0  0  0
   -2.0009   -0.9190   -0.6307 O   0  0  0  0  0  0  0  0  0  0  0  0
   -3.1823   -0.4098   -0.0076 C   0  0  0  0  0  0  0  0  0  0  0  0
   -2.8768    0.8364    0.8175 C   0  0  0  0  0  0  0  0  0  0  0  0
   -2.6708    1.9321   -0.2241 C   0  0  0  0  0  0  0  0  0  0  0  0
   -3.5045    1.5172   -1.4356 C   0  0  0  0  0  0  0  0  0  0  0  0
   -4.0906    0.1460   -1.1000 C   0  0  0  0  0  0  0  0  0  0  0  0
   -1.7076   -3.2473    0.1597 C   0  0  0  0  0  0  0  0  0  0  0  0
   -1.7086   -3.7316   -1.1050 F   0  0  0  0  0  0  0  0  0  0  0  0
   -0.9392   -4.0737    0.9046 F   0  0  0  0  0  0  0  0  0  0  0  0
   -2.9719   -3.3610    0.6326 F   0  0  0  0  0  0  0  0  0  0  0  0
    3.0745    1.7303    2.7660 H   0  0  0  0  0  0  0  0  0  0  0  0
    1.9871    2.6218    1.6601 H   0  0  0  0  0  0  0  0  0  0  0  0
    3.6619    3.1408    1.8975 H   0  0  0  0  0  0  0  0  0  0  0  0
    4.7031    2.8784   -0.2429 H   0  0  0  0  0  0  0  0  0  0  0  0
    5.3741    1.4096   -2.1259 H   0  0  0  0  0  0  0  0  0  0  0  0
    4.4538   -0.9040   -2.2483 H   0  0  0  0  0  0  0  0  0  0  0  0
    2.0694   -2.4452    0.3254 H   0  0  0  0  0  0  0  0  0  0  0  0
    0.4303   -0.7402   -0.7511 H   0  0  0  0  0  0  0  0  0  0  0  0
    0.3767   -2.4334   -1.1370 H   0  0  0  0  0  0  0  0  0  0  0  0
   -1.2596   -1.4428    1.2480 H   0  0  0  0  0  0  0  0  0  0  0  0
   -3.6904   -1.1847    0.5721 H   0  0  0  0  0  0  0  0  0  0  0  0
   -3.7373    1.0875    1.4491 H   0  0  0  0  0  0  0  0  0  0  0  0
   -1.9977    0.7364    1.4580 H   0  0  0  0  0  0  0  0  0  0  0  0
   -2.9655    2.9136    0.1603 H   0  0  0  0  0  0  0  0  0  0  0  0
   -1.6129    1.9932   -0.5059 H   0  0  0  0  0  0  0  0  0  0  0  0
   -2.8670    1.4578   -2.3251 H   0  0  0  0  0  0  0  0  0  0  0  0
   -4.2975    2.2413   -1.6493 H   0  0  0  0  0  0  0  0  0  0  0  0
   -4.1308   -0.4941   -1.9869 H   0  0  0  0  0  0  0  0  0  0  0  0
   -5.1093    0.2705   -0.7140 H   0  0  0  0  0  0  0  0  0  0  0  0
  1  2  1  0
  2  3  1  0
  3  4  2  0
  4  5  1  0
  5  6  2  0
  6  7  1  0
  7  8  1  0
  8  9  2  0
  8 10  2  0
  8 11  1  0
 11 12  1  0
 12 13  1  0
 13 14  1  0
 14 15  1  0
 15 16  1  0
 16 17  1  0
 17 18  1  0
 18 19  1  0
 13 20  1  0
 20 21  1  0
 20 22  1  0
 20 23  1  0
  7  2  2  0
 19 15  1  0
  1 24  1  0
  1 25  1  0
  1 26  1  0
  3 27  1  0
  4 28  1  0
  5 29  1  0
 11 30  1  0
 12 31  1  0
 12 32  1  0
 13 33  1  0
 15 34  1  0
 16 35  1  0
 16 36  1  0
 17 37  1  0
 17 38  1  0
 18 39  1  0
 18 40  1  0
 19 41  1  0
 19 42  1  0
M  END
$$$$
OCNT-2316255
     RDKit          3D

 47 50  0  0  0  0  0  0  0  0999 V2000
   -4.1050    1.0216    2.1491 C   0  0  0  0  0  0  0  0  0  0  0  0
   -3.4993   -0.3483    1.7787 C   0  0  0  0  0  0  0  0  0  0  0  0
   -4.0025   -1.3413    2.8542 C   0  0  0  0  0  0  0  0  0  0  0  0
   -2.0311   -0.3273    1.8229 N   0  0  0  0  0  0  0  0  0  0  0  0
   -1.2450    0.5846    1.1462 C   0  0  0  0  0  0  0  0  0  0  0  0
   -1.6743    1.5579    0.5388 O   0  0  0  0  0  0  0  0  0  0  0  0
    0.2412    0.2382    1.1883 C   0  0  0  0  0  0  0  0  0  0  0  0
    0.5031   -0.9028    0.1942 C   0  0  0  0  0  0  0  0  0  0  0  0
    1.9480   -0.9368   -0.2933 C   0  0  0  0  0  0  0  0  0  0  0  0
    2.3924    0.3442   -0.8557 N   0  0  0  0  0  0  0  0  0  0  0  0
    3.6915    0.5342   -1.3451 C   0  0  0  0  0  0  0  0  0  0  0  0
    4.1255    1.7606   -1.5235 N   0  0  0  0  0  0  0  0  0  0  0  0
    5.3966    1.8562   -1.9680 N   0  0  0  0  0  0  0  0  0  0  0  0
    6.0015    3.0377   -2.1786 N   0  0  0  0  0  0  0  0  0  0  0  0
    7.2345    2.7390   -2.5751 N   0  0  0  0  0  0  0  0  0  0  0  0
    7.4224    1.3755   -2.6396 N   0  0  0  0  0  0  0  0  0  0  0  0
    6.2851    0.8441   -2.2526 C   0  0  0  0  0  0  0  0  0  0  0  0
    5.8251   -0.4734   -2.0929 C   0  0  0  0  0  0  0  0  0  0  0  0
    4.5719   -0.6619   -1.6579 C   0  0  0  0  0  0  0  0  0  0  0  0
    1.5236    1.5034   -0.5742 C   0  0  0  0  0  0  0  0  0  0  0  0
    1.1050    1.4719    0.8912 C   0  0  0  0  0  0  0  0  0  0  0  0
   -3.9227   -0.8227    0.3864 C   0  0  0  0  0  0  0  0  0  0  0  0
   -4.6568   -0.1502   -0.5823 C   0  0  0  0  0  0  0  0  0  0  0  0
   -4.8819   -0.9281   -1.7566 C   0  0  0  0  0  0  0  0  0  0  0  0
   -4.3059   -2.1746   -1.6639 C   0  0  0  0  0  0  0  0  0  0  0  0
   -3.4690   -2.3887   -0.1898 S   0  0  0  0  0  0  0  0  0  0  0  0
   -5.1993    0.9672    2.2072 H   0  0  0  0  0  0  0  0  0  0  0  0
   -3.7364    1.3596    3.1231 H   0  0  0  0  0  0  0  0  0  0  0  0
   -3.8702    1.8069    1.4270 H   0  0  0  0  0  0  0  0  0  0  0  0
   -3.5590   -2.3374    2.7443 H   0  0  0  0  0  0  0  0  0  0  0  0
   -3.7429   -0.9955    3.8630 H   0  0  0  0  0  0  0  0  0  0  0  0
   -5.0916   -1.4587    2.8093 H   0  0  0  0  0  0  0  0  0  0  0  0
   -1.5994   -1.2133    2.0433 H   0  0  0  0  0  0  0  0  0  0  0  0
    0.4755   -0.0941    2.2085 H   0  0  0  0  0  0  0  0  0  0  0  0
    0.2510   -1.8638    0.6596 H   0  0  0  0  0  0  0  0  0  0  0  0
   -0.1622   -0.8081   -0.6763 H   0  0  0  0  0  0  0  0  0  0  0  0
    2.0251   -1.7219   -1.0539 H   0  0  0  0  0  0  0  0  0  0  0  0
    2.6040   -1.2102    0.5422 H   0  0  0  0  0  0  0  0  0  0  0  0
    6.4830   -1.3009   -2.3325 H   0  0  0  0  0  0  0  0  0  0  0  0
    4.1736   -1.6608   -1.5391 H   0  0  0  0  0  0  0  0  0  0  0  0
    0.6474    1.4714   -1.2347 H   0  0  0  0  0  0  0  0  0  0  0  0
    2.0193    2.4587   -0.7734 H   0  0  0  0  0  0  0  0  0  0  0  0
    0.5857    2.4017    1.1530 H   0  0  0  0  0  0  0  0  0  0  0  0
    2.0078    1.4346    1.5174 H   0  0  0  0  0  0  0  0  0  0  0  0
   -5.0267    0.8625   -0.4612 H   0  0  0  0  0  0  0  0  0  0  0  0
   -5.4360   -0.5858   -2.6238 H   0  0  0  0  0  0  0  0  0  0  0  0
   -4.3230   -2.9636   -2.4042 H   0  0  0  0  0  0  0  0  0  0  0  0
  1  2  1  0
  2  3  1  0
  2  4  1  0
  4  5  1  0
  5  6  2  0
  5  7  1  0
  7  8  1  0
  8  9  1  0
  9 10  1  0
 10 11  1  0
 11 12  2  0
 12 13  1  0
 13 14  1  0
 14 15  2  0
 15 16  1  0
 16 17  2  0
 17 18  1  0
 18 19  2  0
 10 20  1  0
 20 21  1  0
  2 22  1  0
 22 23  2  0
 23 24  1  0
 24 25  2  0
 25 26  1  0
 21  7  1  0
 26 22  1  0
 19 11  1  0
 17 13  1  0
  1 27  1  0
  1 28  1  0
  1 29  1  0
  3 30  1  0
  3 31  1  0
  3 32  1  0
  4 33  1  0
  7 34  1  0
  8 35  1  0
  8 36  1  0
  9 37  1  0
  9 38  1  0
 18 39  1  0
 19 40  1  0
 20 41  1  0
 20 42  1  0
 21 43  1  0
 21 44  1  0
 23 45  1  0
 24 46  1  0
 25 47  1  0
M  END
$$$$
OCNT-2316266
     RDKit          3D

 50 53  0  0  0  0  0  0  0  0999 V2000
    5.0990    4.0568    0.3109 C   0  0  0  0  0  0  0  0  0  0  0  0
    4.9026    2.6321   -0.1019 C   0  0  0  0  0  0  0  0  0  0  0  0
    5.7656    2.1153   -0.9905 N   0  0  0  0  0  0  0  0  0  0  0  0
    5.5430    0.8404   -1.3400 C   0  0  0  0  0  0  0  0  0  0  0  0
    4.4942    0.0914   -0.8575 C   0  0  0  0  0  0  0  0  0  0  0  0
    3.6302    0.7048    0.0317 C   0  0  0  0  0  0  0  0  0  0  0  0
    2.5529    0.0124    0.5778 N   0  0  0  0  0  0  0  0  0  0  0  0
    1.7775   -0.8992   -0.2801 C   0  0  0  0  0  0  0  0  0  0  0  0
    0.2541   -0.7022   -0.1335 C   0  0  0  0  0  0  0  0  0  0  0  0
   -0.2056   -0.7325    1.2581 N   0  0  0  0  0  0  0  0  0  0  0  0
   -1.4600   -1.1454    1.7007 C   0  0  0  0  0  0  0  0  0  0  0  0
   -1.7124   -1.1289    2.9139 O   0  0  0  0  0  0  0  0  0  0  0  0
   -2.5631   -1.5932    0.6652 C   0  0  0  0  0  0  0  0  0  0  0  0
   -3.8136   -2.0379    1.4579 C   0  0  0  0  0  0  0  0  0  0  0  0
   -2.0578   -2.7460   -0.0446 O   0  0  0  0  0  0  0  0  0  0  0  0
   -2.8103   -3.0838   -1.2087 C   0  0  0  0  0  0  0  0  0  0  0  0
   -2.7069   -1.9794   -2.2507 C   0  0  0  0  0  0  0  0  0  0  0  0
   -3.0511   -0.6395   -1.6573 C   0  0  0  0  0  0  0  0  0  0  0  0
   -3.4062    0.4241   -2.4983 C   0  0  0  0  0  0  0  0  0  0  0  0
   -3.6952    1.6787   -1.9649 C   0  0  0  0  0  0  0  0  0  0  0  0
   -3.6267    1.8827   -0.5900 C   0  0  0  0  0  0  0  0  0  0  0  0
   -3.2631    0.8336    0.2545 C   0  0  0  0  0  0  0  0  0  0  0  0
   -2.9578   -0.4371   -0.2661 C   0  0  0  0  0  0  0  0  0  0  0  0
    0.7462   -0.2226    2.2529 C   0  0  0  0  0  0  0  0  0  0  0  0
    1.8136    0.7032    1.6466 C   0  0  0  0  0  0  0  0  0  0  0  0
    3.8466    1.9766    0.4169 N   0  0  0  0  0  0  0  0  0  0  0  0
    4.4859    4.7102   -0.3171 H   0  0  0  0  0  0  0  0  0  0  0  0
    6.1485    4.3497    0.2057 H   0  0  0  0  0  0  0  0  0  0  0  0
    4.8078    4.1961    1.3569 H   0  0  0  0  0  0  0  0  0  0  0  0
    6.2577    0.4174   -2.0394 H   0  0  0  0  0  0  0  0  0  0  0  0
    4.3802   -0.9420   -1.1527 H   0  0  0  0  0  0  0  0  0  0  0  0
    2.0355   -1.9270    0.0025 H   0  0  0  0  0  0  0  0  0  0  0  0
    2.0231   -0.7777   -1.3421 H   0  0  0  0  0  0  0  0  0  0  0  0
   -0.0282    0.2777   -0.5365 H   0  0  0  0  0  0  0  0  0  0  0  0
   -0.2454   -1.4633   -0.7279 H   0  0  0  0  0  0  0  0  0  0  0  0
   -3.5968   -2.9367    2.0474 H   0  0  0  0  0  0  0  0  0  0  0  0
   -4.1666   -1.2598    2.1445 H   0  0  0  0  0  0  0  0  0  0  0  0
   -4.6531   -2.2865    0.7997 H   0  0  0  0  0  0  0  0  0  0  0  0
   -2.3903   -4.0094   -1.6164 H   0  0  0  0  0  0  0  0  0  0  0  0
   -3.8516   -3.2981   -0.9467 H   0  0  0  0  0  0  0  0  0  0  0  0
   -3.3695   -2.2113   -3.0919 H   0  0  0  0  0  0  0  0  0  0  0  0
   -1.6795   -1.9240   -2.6295 H   0  0  0  0  0  0  0  0  0  0  0  0
   -3.4604    0.2799   -3.5752 H   0  0  0  0  0  0  0  0  0  0  0  0
   -3.9745    2.4981   -2.6222 H   0  0  0  0  0  0  0  0  0  0  0  0
   -3.8555    2.8603   -0.1731 H   0  0  0  0  0  0  0  0  0  0  0  0
   -3.2178    1.0184    1.3271 H   0  0  0  0  0  0  0  0  0  0  0  0
    1.2233   -1.0990    2.7086 H   0  0  0  0  0  0  0  0  0  0  0  0
    0.2077    0.3116    3.0435 H   0  0  0  0  0  0  0  0  0  0  0  0
    1.3262    1.6023    1.2471 H   0  0  0  0  0  0  0  0  0  0  0  0
    2.4975    1.0088    2.4481 H   0  0  0  0  0  0  0  0  0  0  0  0
  1  2  1  0
  2  3  2  0
  3  4  1  0
  4  5  2  0
  5  6  1  0
  6  7  1  0
  7  8  1  0
  8  9  1  0
  9 10  1  0
 10 11  1  0
 11 12  2  0
 11 13  1  0
 13 14  1  0
 13 15  1  0
 15 16  1  0
 16 17  1  0
 17 18  1  0
 18 19  2  0
 19 20  1  0
 20 21  2  0
 21 22  1  0
 22 23  2  0
 10 24  1  0
 24 25  1  0
  6 26  2  0
 26  2  1  0
 25  7  1  0
 23 13  1  0
 23 18  1  0
  1 27  1  0
  1 28  1  0
  1 29  1  0
  4 30  1  0
  5 31  1  0
  8 32  1  0
  8 33  1  0
  9 34  1  0
  9 35  1  0
 14 36  1  0
 14 37  1  0
 14 38  1  0
 16 39  1  0
 16 40  1  0
 17 41  1  0
 17 42  1  0
 19 43  1  0
 20 44  1  0
 21 45  1  0
 22 46  1  0
 24 47  1  0
 24 48  1  0
 25 49  1  0
 25 50  1  0
M  END
$$$$
OCNT-2316270
     RDKit          3D

 38 41  0  0  0  0  0  0  0  0999 V2000
   -5.4312    1.8361   -0.0483 C   0  0  0  0  0  0  0  0  0  0  0  0
   -4.1428    1.1934    0.0636 N   0  0  0  0  0  0  0  0  0  0  0  0
   -3.0337    1.8853   -0.2542 N   0  0  0  0  0  0  0  0  0  0  0  0
   -2.0318    1.0148   -0.0632 C   0  0  0  0  0  0  0  0  0  0  0  0
   -0.5257    1.3951   -0.3128 C   0  0  0  0  0  0  0  0  0  0  0  0
    0.4852    0.5676   -0.1281 N   0  0  0  0  0  0  0  0  0  0  0  0
    1.5841    1.3387   -0.4563 C   0  0  0  0  0  0  0  0  0  0  0  0
    2.8844    0.7398   -0.3907 C   0  0  0  0  0  0  0  0  0  0  0  0
    3.0828   -0.5956   -0.3801 C   0  0  0  0  0  0  0  0  0  0  0  0
    4.3974   -1.1919   -0.3301 C   0  0  0  0  0  0  0  0  0  0  0  0
    5.4958   -0.4195   -0.2931 C   0  0  0  0  0  0  0  0  0  0  0  0
    6.9044   -0.9697   -0.2439 C   0  0  0  0  0  0  0  0  0  0  0  0
    7.5612   -0.5472    0.8662 F   0  0  0  0  0  0  0  0  0  0  0  0
    6.9420   -2.3261   -0.2363 F   0  0  0  0  0  0  0  0  0  0  0  0
    7.6341   -0.5571   -1.3112 F   0  0  0  0  0  0  0  0  0  0  0  0
    5.3262    0.9547   -0.2938 N   0  0  0  0  0  0  0  0  0  0  0  0
    4.1126    1.6064   -0.3228 C   0  0  0  0  0  0  0  0  0  0  0  0
    4.0898    2.8314   -0.2755 O   0  0  0  0  0  0  0  0  0  0  0  0
    1.2710    2.5806   -0.8473 N   0  0  0  0  0  0  0  0  0  0  0  0
   -0.1165    2.6258   -0.7461 O   0  0  0  0  0  0  0  0  0  0  0  0
   -2.5071   -0.2433    0.3883 C   0  0  0  0  0  0  0  0  0  0  0  0
   -3.8772   -0.0779    0.4844 C   0  0  0  0  0  0  0  0  0  0  0  0
   -4.8843   -1.0829    0.9253 C   0  0  0  0  0  0  0  0  0  0  0  0
   -4.2261   -2.1986    1.7474 C   0  0  0  0  0  0  0  0  0  0  0  0
   -2.7967   -2.9532    0.8842 S   0  0  0  0  0  0  0  0  0  0  0  0
   -1.7333   -1.4672    0.7286 C   0  0  0  0  0  0  0  0  0  0  0  0
   -5.6982    2.2326    0.9341 H   0  0  0  0  0  0  0  0  0  0  0  0
   -5.3676    2.6452   -0.7806 H   0  0  0  0  0  0  0  0  0  0  0  0
   -6.1692    1.1025   -0.3813 H   0  0  0  0  0  0  0  0  0  0  0  0
    2.2402   -1.2822   -0.4242 H   0  0  0  0  0  0  0  0  0  0  0  0
    4.4635   -2.2774   -0.3295 H   0  0  0  0  0  0  0  0  0  0  0  0
    6.1370    1.5657   -0.2503 H   0  0  0  0  0  0  0  0  0  0  0  0
   -5.3792   -1.5097    0.0443 H   0  0  0  0  0  0  0  0  0  0  0  0
   -5.6597   -0.6054    1.5353 H   0  0  0  0  0  0  0  0  0  0  0  0
   -3.8776   -1.8164    2.7137 H   0  0  0  0  0  0  0  0  0  0  0  0
   -4.9584   -2.9861    1.9523 H   0  0  0  0  0  0  0  0  0  0  0  0
   -0.9913   -1.6837   -0.0457 H   0  0  0  0  0  0  0  0  0  0  0  0
   -1.2041   -1.3245    1.6765 H   0  0  0  0  0  0  0  0  0  0  0  0
  1  2  1  0
  2  3  1  0
  3  4  2  0
  4  5  1  0
  5  6  2  0
  6  7  1  0
  7  8  1  0
  8  9  2  0
  9 10  1  0
 10 11  2  0
 11 12  1  0
 12 13  1  0
 12 14  1  0
 12 15  1  0
 11 16  1  0
 16 17  1  0
 17 18  2  0
  7 19  2  0
 19 20  1  0
  4 21  1  0
 21 22  2  0
 22 23  1  0
 23 24  1  0
 24 25  1  0
 25 26  1  0
 22  2  1  0
 20  5  1  0
 26 21  1  0
 17  8  1  0
  1 27  1  0
  1 28  1  0
  1 29  1  0
  9 30  1  0
 10 31  1  0
 16 32  1  0
 23 33  1  0
 23 34  1  0
 24 35  1  0
 24 36  1  0
 26 37  1  0
 26 38  1  0
M  END
$$$$
OCNT-2316274
     RDKit          3D

 39 41  0  0  0  0  0  0  0  0999 V2000
   -6.2013   -0.2825   -1.4821 C   0  0  0  0  0  0  0  0  0  0  0  0
   -4.8692    0.0724   -0.9828 N   0  0  0  0  0  0  0  0  0  0  0  0
   -4.8296    1.5120   -0.6901 C   0  0  0  0  0  0  0  0  0  0  0  0
   -4.5745   -0.7117    0.2375 C   0  0  0  0  0  0  0  0  0  0  0  0
   -3.1278   -0.6551    0.6171 C   0  0  0  0  0  0  0  0  0  0  0  0
   -2.6183   -0.5962    1.8317 N   0  0  0  0  0  0  0  0  0  0  0  0
   -1.2560   -0.5715    1.6577 C   0  0  0  0  0  0  0  0  0  0  0  0
   -0.2295   -0.5082    2.6075 C   0  0  0  0  0  0  0  0  0  0  0  0
    1.1045   -0.4913    2.1662 C   0  0  0  0  0  0  0  0  0  0  0  0
    1.4201   -0.5344    0.8043 C   0  0  0  0  0  0  0  0  0  0  0  0
    2.7380   -0.5213    0.3112 N   0  0  0  0  0  0  0  0  0  0  0  0
    3.9282   -0.4178    1.0227 C   0  0  0  0  0  0  0  0  0  0  0  0
    4.0391   -0.3072    2.2401 O   0  0  0  0  0  0  0  0  0  0  0  0
    5.1659   -0.4766    0.0693 C   0  0  0  0  0  0  0  0  0  0  0  0
    6.2586    0.3317    0.5059 O   0  0  0  0  0  0  0  0  0  0  0  0
    6.6707    1.0597   -0.6463 C   0  0  0  0  0  0  0  0  0  0  0  0
    5.4135    1.1692   -1.4623 C   0  0  0  0  0  0  0  0  0  0  0  0
    4.7939   -0.1039   -1.2749 O   0  0  0  0  0  0  0  0  0  0  0  0
    0.3944   -0.6001   -0.1559 C   0  0  0  0  0  0  0  0  0  0  0  0
   -0.9241   -0.6178    0.3099 C   0  0  0  0  0  0  0  0  0  0  0  0
   -2.1328   -0.6745   -0.3307 N   0  0  0  0  0  0  0  0  0  0  0  0
   -6.9884   -0.0823   -0.7459 H   0  0  0  0  0  0  0  0  0  0  0  0
   -6.2408   -1.3442   -1.7506 H   0  0  0  0  0  0  0  0  0  0  0  0
   -6.4313    0.2778   -2.3953 H   0  0  0  0  0  0  0  0  0  0  0  0
   -5.5548    1.7992    0.0802 H   0  0  0  0  0  0  0  0  0  0  0  0
   -3.8334    1.8244   -0.3594 H   0  0  0  0  0  0  0  0  0  0  0  0
   -5.0462    2.0892   -1.5963 H   0  0  0  0  0  0  0  0  0  0  0  0
   -5.1972   -0.3862    1.0805 H   0  0  0  0  0  0  0  0  0  0  0  0
   -4.8063   -1.7702    0.0592 H   0  0  0  0  0  0  0  0  0  0  0  0
   -0.4664   -0.4724    3.6651 H   0  0  0  0  0  0  0  0  0  0  0  0
    1.8775   -0.4438    2.9275 H   0  0  0  0  0  0  0  0  0  0  0  0
    2.8578   -0.5392   -0.6986 H   0  0  0  0  0  0  0  0  0  0  0  0
    5.4948   -1.5217    0.0428 H   0  0  0  0  0  0  0  0  0  0  0  0
    7.0922    2.0278   -0.3650 H   0  0  0  0  0  0  0  0  0  0  0  0
    7.4342    0.4691   -1.1641 H   0  0  0  0  0  0  0  0  0  0  0  0
    5.5979    1.3577   -2.5226 H   0  0  0  0  0  0  0  0  0  0  0  0
    4.7400    1.9379   -1.0678 H   0  0  0  0  0  0  0  0  0  0  0  0
    0.6061   -0.6365   -1.2187 H   0  0  0  0  0  0  0  0  0  0  0  0
   -2.2993   -0.6873   -1.3271 H   0  0  0  0  0  0  0  0  0  0  0  0
  1  2  1  0
  2  3  1  0
  2  4  1  0
  4  5  1  0
  5  6  2  0
  6  7  1  0
  7  8  2  0
  8  9  1  0
  9 10  2  0
 10 11  1  0
 11 12  1  0
 12 13  2  0
 12 14  1  0
 14 15  1  0
 15 16  1  0
 16 17  1  0
 17 18  1  0
 10 19  1  0
 19 20  2  0
 20 21  1  0
 21  5  1  0
 20  7  1  0
 18 14  1  0
  1 22  1  0
  1 23  1  0
  1 24  1  0
  3 25  1  0
  3 26  1  0
  3 27  1  0
  4 28  1  0
  4 29  1  0
  8 30  1  0
  9 31  1  0
 11 32  1  0
 14 33  1  0
 16 34  1  0
 16 35  1  0
 17 36  1  0
 17 37  1  0
 19 38  1  0
 21 39  1  0
M  END
$$$$
OCNT-2316290
     RDKit          3D

 39 41  0  0  0  0  0  0  0  0999 V2000
   -2.6551   -0.6489    2.1882 C   0  0  0  0  0  0  0  0  0  0  0  0
   -2.4549   -0.5049    0.6767 C   0  0  0  0  0  0  0  0  0  0  0  0
   -0.9640   -0.2662    0.3744 C   0  0  0  0  0  0  0  0  0  0  0  0
   -0.5019    0.8500    0.1616 O   0  0  0  0  0  0  0  0  0  0  0  0
   -0.2286   -1.4472    0.4182 N   0  0  0  0  0  0  0  0  0  0  0  0
    1.1586   -1.6101    0.2124 C   0  0  0  0  0  0  0  0  0  0  0  0
    1.6621   -2.9135    0.2905 C   0  0  0  0  0  0  0  0  0  0  0  0
    3.0203   -3.1634    0.0939 C   0  0  0  0  0  0  0  0  0  0  0  0
    3.8921   -2.1097   -0.1798 C   0  0  0  0  0  0  0  0  0  0  0  0
    3.4153   -0.7948   -0.2557 C   0  0  0  0  0  0  0  0  0  0  0  0
    4.3161    0.3228   -0.5430 C   0  0  0  0  0  0  0  0  0  0  0  0
    4.0931    1.5484   -1.1442 C   0  0  0  0  0  0  0  0  0  0  0  0
    5.3359    2.2055   -1.1328 C   0  0  0  0  0  0  0  0  0  0  0  0
    6.2903    1.4706   -0.5612 N   0  0  0  0  0  0  0  0  0  0  0  0
    5.6460    0.3479   -0.2001 N   0  0  0  0  0  0  0  0  0  0  0  0
    2.0423   -0.5615   -0.0601 C   0  0  0  0  0  0  0  0  0  0  0  0
   -3.3828    0.5419    0.0784 C   0  0  0  0  0  0  0  0  0  0  0  0
   -4.2904    0.1784   -0.9300 C   0  0  0  0  0  0  0  0  0  0  0  0
   -5.1604    1.1217   -1.4814 C   0  0  0  0  0  0  0  0  0  0  0  0
   -5.1344    2.4407   -1.0354 C   0  0  0  0  0  0  0  0  0  0  0  0
   -4.2369    2.8183   -0.0401 C   0  0  0  0  0  0  0  0  0  0  0  0
   -3.3675    1.8762    0.5134 C   0  0  0  0  0  0  0  0  0  0  0  0
   -2.0733   -1.4892    2.5827 H   0  0  0  0  0  0  0  0  0  0  0  0
   -3.7084   -0.8261    2.4316 H   0  0  0  0  0  0  0  0  0  0  0  0
   -2.3294    0.2477    2.7274 H   0  0  0  0  0  0  0  0  0  0  0  0
   -2.7208   -1.4710    0.2245 H   0  0  0  0  0  0  0  0  0  0  0  0
   -0.7441   -2.2970    0.6079 H   0  0  0  0  0  0  0  0  0  0  0  0
    1.0062   -3.7546    0.4994 H   0  0  0  0  0  0  0  0  0  0  0  0
    3.3989   -4.1813    0.1461 H   0  0  0  0  0  0  0  0  0  0  0  0
    4.9403   -2.3382   -0.3532 H   0  0  0  0  0  0  0  0  0  0  0  0
    3.1589    1.9163   -1.5455 H   0  0  0  0  0  0  0  0  0  0  0  0
    5.5834    3.1869   -1.5164 H   0  0  0  0  0  0  0  0  0  0  0  0
    6.1721   -0.3645    0.2920 H   0  0  0  0  0  0  0  0  0  0  0  0
    1.6821    0.4608   -0.1155 H   0  0  0  0  0  0  0  0  0  0  0  0
   -4.3304   -0.8442   -1.2979 H   0  0  0  0  0  0  0  0  0  0  0  0
   -5.8567    0.8273   -2.2621 H   0  0  0  0  0  0  0  0  0  0  0  0
   -5.8077    3.1759   -1.4678 H   0  0  0  0  0  0  0  0  0  0  0  0
   -4.2052    3.8495    0.3020 H   0  0  0  0  0  0  0  0  0  0  0  0
   -2.6610    2.1995    1.2756 H   0  0  0  0  0  0  0  0  0  0  0  0
  1  2  1  0
  2  3  1  0
  3  4  2  0
  3  5  1  0
  5  6  1  0
  6  7  2  0
  7  8  1  0
  8  9  2  0
  9 10  1  0
 10 11  1  0
 11 12  2  0
 12 13  1  0
 13 14  2  0
 14 15  1  0
 10 16  2  0
  2 17  1  0
 17 18  2  0
 18 19  1  0
 19 20  2  0
 20 21  1  0
 21 22  2  0
 16  6  1  0
 22 17  1  0
 15 11  1  0
  1 23  1  0
  1 24  1  0
  1 25  1  0
  2 26  1  0
  5 27  1  0
  7 28  1  0
  8 29  1  0
  9 30  1  0
 12 31  1  0
 13 32  1  0
 15 33  1  0
 16 34  1  0
 18 35  1  0
 19 36  1  0
 20 37  1  0
 21 38  1  0
 22 39  1  0
M  END
$$$$
OCNT-2316303
     RDKit          3D

 40 42  0  0  0  0  0  0  0  0999 V2000
    1.2314   -0.7569    1.4797 C   0  0  0  0  0  0  0  0  0  0  0  0
    1.4156    0.6192    1.0289 N   0  0  0  0  0  0  0  0  0  0  0  0
    0.3769    1.5757    1.4203 C   0  0  0  0  0  0  0  0  0  0  0  0
   -0.8415    1.4127    0.5628 C   0  0  0  0  0  0  0  0  0  0  0  0
   -1.9197    0.7621    1.0204 N   0  0  0  0  0  0  0  0  0  0  0  0
   -2.8201    0.8034    0.0014 N   0  0  0  0  0  0  0  0  0  0  0  0
   -4.1155    0.2297    0.1476 C   0  0  0  0  0  0  0  0  0  0  0  0
   -5.0430    0.2490   -0.9039 C   0  0  0  0  0  0  0  0  0  0  0  0
   -6.3153   -0.3024   -0.7252 C   0  0  0  0  0  0  0  0  0  0  0  0
   -6.6703   -0.8720    0.4968 C   0  0  0  0  0  0  0  0  0  0  0  0
   -5.7520   -0.9012    1.5437 C   0  0  0  0  0  0  0  0  0  0  0  0
   -4.4772   -0.3551    1.3717 C   0  0  0  0  0  0  0  0  0  0  0  0
   -2.2984    1.4555   -1.0953 C   0  0  0  0  0  0  0  0  0  0  0  0
   -1.0347    1.8725   -0.7568 C   0  0  0  0  0  0  0  0  0  0  0  0
    2.3780    1.0471    0.1213 C   0  0  0  0  0  0  0  0  0  0  0  0
    2.3402    2.1385   -0.4423 O   0  0  0  0  0  0  0  0  0  0  0  0
    3.5344    0.1760   -0.1848 C   0  0  0  0  0  0  0  0  0  0  0  0
    3.8740   -0.0440   -1.5240 C   0  0  0  0  0  0  0  0  0  0  0  0
    4.9872   -0.8253   -1.8402 C   0  0  0  0  0  0  0  0  0  0  0  0
    5.7760   -1.3778   -0.8200 C   0  0  0  0  0  0  0  0  0  0  0  0
    6.9052   -2.1829   -1.1830 C   0  0  0  0  0  0  0  0  0  0  0  0
    7.8064   -2.8376   -1.5076 N   0  0  0  0  0  0  0  0  0  0  0  0
    5.4441   -1.1294    0.5190 C   0  0  0  0  0  0  0  0  0  0  0  0
    6.3756   -1.7646    1.8289 Cl  0  0  0  0  0  0  0  0  0  0  0  0
    4.3316   -0.3452    0.8387 C   0  0  0  0  0  0  0  0  0  0  0  0
    0.2083   -1.0797    1.2704 H   0  0  0  0  0  0  0  0  0  0  0  0
    1.9024   -1.4542    0.9762 H   0  0  0  0  0  0  0  0  0  0  0  0
    1.4073   -0.7940    2.5592 H   0  0  0  0  0  0  0  0  0  0  0  0
    0.1418    1.4145    2.4784 H   0  0  0  0  0  0  0  0  0  0  0  0
    0.7539    2.6011    1.3283 H   0  0  0  0  0  0  0  0  0  0  0  0
   -4.8122    0.6848   -1.8721 H   0  0  0  0  0  0  0  0  0  0  0  0
   -7.0338   -0.2835   -1.5412 H   0  0  0  0  0  0  0  0  0  0  0  0
   -7.6640   -1.2920    0.6332 H   0  0  0  0  0  0  0  0  0  0  0  0
   -6.0270   -1.3443    2.4973 H   0  0  0  0  0  0  0  0  0  0  0  0
   -3.7788   -0.3840    2.2059 H   0  0  0  0  0  0  0  0  0  0  0  0
   -2.8553    1.5857   -2.0101 H   0  0  0  0  0  0  0  0  0  0  0  0
   -0.3381    2.4256   -1.3723 H   0  0  0  0  0  0  0  0  0  0  0  0
    3.2755    0.3979   -2.3190 H   0  0  0  0  0  0  0  0  0  0  0  0
    5.2387   -0.9930   -2.8874 H   0  0  0  0  0  0  0  0  0  0  0  0
    4.0921   -0.1318    1.8774 H   0  0  0  0  0  0  0  0  0  0  0  0
  1  2  1  0
  2  3  1  0
  3  4  1  0
  4  5  2  0
  5  6  1  0
  6  7  1  0
  7  8  2  0
  8  9  1  0
  9 10  2  0
 10 11  1  0
 11 12  2  0
  6 13  1  0
 13 14  2  0
  2 15  1  0
 15 16  2  0
 15 17  1  0
 17 18  1  0
 18 19  2  0
 19 20  1  0
 20 21  1  0
 21 22  3  0
 20 23  2  0
 23 24  1  0
 23 25  1  0
 14  4  1  0
 25 17  2  0
 12  7  1  0
  1 26  1  0
  1 27  1  0
  1 28  1  0
  3 29  1  0
  3 30  1  0
  8 31  1  0
  9 32  1  0
 10 33  1  0
 11 34  1  0
 12 35  1  0
 13 36  1  0
 14 37  1  0
 18 38  1  0
 19 39  1  0
 25 40  1  0
M  END
$$$$
OCNT-2316304
     RDKit          3D

 46 49  0  0  0  0  0  0  0  0999 V2000
    0.1423   -0.8045   -1.4497 O   0  0  0  0  0  0  0  0  0  0  0  0
   -0.3153    0.0093   -0.6529 C   0  0  0  0  0  0  0  0  0  0  0  0
   -1.6345    0.0877   -0.2784 N   0  0  0  0  0  0  0  0  0  0  0  0
   -2.6818   -0.8066   -0.5862 C   0  0  0  0  0  0  0  0  0  0  0  0
   -2.4795   -2.0786   -1.1264 C   0  0  0  0  0  0  0  0  0  0  0  0
   -3.5691   -2.9126   -1.3982 C   0  0  0  0  0  0  0  0  0  0  0  0
   -4.8673   -2.4893   -1.1161 C   0  0  0  0  0  0  0  0  0  0  0  0
   -5.0788   -1.2324   -0.5560 C   0  0  0  0  0  0  0  0  0  0  0  0
   -3.9931   -0.3828   -0.3076 C   0  0  0  0  0  0  0  0  0  0  0  0
   -4.1481    0.8840    0.2180 O   0  0  0  0  0  0  0  0  0  0  0  0
   -5.5056    1.3287    0.1120 C   0  0  0  0  0  0  0  0  0  0  0  0
   -6.4601    0.2432    0.5773 C   0  0  0  0  0  0  0  0  0  0  0  0
   -6.3808   -0.8972   -0.2829 O   0  0  0  0  0  0  0  0  0  0  0  0
    0.4895    0.9859   -0.0543 N   0  0  0  0  0  0  0  0  0  0  0  0
    0.2993    1.3785    1.3467 C   0  0  0  0  0  0  0  0  0  0  0  0
    1.1483    0.4803    2.2722 C   0  0  0  0  0  0  0  0  0  0  0  0
    2.5816    0.4658    1.9205 N   0  0  0  0  0  0  0  0  0  0  0  0
    2.7577    0.1063    0.4863 C   0  0  0  0  0  0  0  0  0  0  0  0
    4.2315    0.1380    0.1126 C   0  0  0  0  0  0  0  0  0  0  0  0
    4.9629    1.3371    0.0705 C   0  0  0  0  0  0  0  0  0  0  0  0
    6.3152    1.3365   -0.2792 C   0  0  0  0  0  0  0  0  0  0  0  0
    6.9569    0.1393   -0.5871 C   0  0  0  0  0  0  0  0  0  0  0  0
    6.2488   -1.0589   -0.5422 C   0  0  0  0  0  0  0  0  0  0  0  0
    4.8969   -1.0602   -0.1927 C   0  0  0  0  0  0  0  0  0  0  0  0
    1.9018    1.0062   -0.4530 C   0  0  0  0  0  0  0  0  0  0  0  0
   -1.9495    0.9896    0.0534 H   0  0  0  0  0  0  0  0  0  0  0  0
   -1.4822   -2.4492   -1.3449 H   0  0  0  0  0  0  0  0  0  0  0  0
   -3.3993   -3.8976   -1.8264 H   0  0  0  0  0  0  0  0  0  0  0  0
   -5.7102   -3.1434   -1.3212 H   0  0  0  0  0  0  0  0  0  0  0  0
   -5.6989    1.6176   -0.9286 H   0  0  0  0  0  0  0  0  0  0  0  0
   -5.6112    2.2197    0.7387 H   0  0  0  0  0  0  0  0  0  0  0  0
   -7.4915    0.6084    0.5503 H   0  0  0  0  0  0  0  0  0  0  0  0
   -6.2366   -0.0765    1.6027 H   0  0  0  0  0  0  0  0  0  0  0  0
    0.6139    2.4247    1.4412 H   0  0  0  0  0  0  0  0  0  0  0  0
   -0.7481    1.3190    1.6521 H   0  0  0  0  0  0  0  0  0  0  0  0
    1.0457    0.8268    3.3063 H   0  0  0  0  0  0  0  0  0  0  0  0
    0.7671   -0.5479    2.2433 H   0  0  0  0  0  0  0  0  0  0  0  0
    2.9662    1.3979    2.0616 H   0  0  0  0  0  0  0  0  0  0  0  0
    2.3989   -0.9261    0.3735 H   0  0  0  0  0  0  0  0  0  0  0  0
    4.4895    2.2845    0.3142 H   0  0  0  0  0  0  0  0  0  0  0  0
    6.8693    2.2711   -0.3082 H   0  0  0  0  0  0  0  0  0  0  0  0
    8.0093    0.1389   -0.8576 H   0  0  0  0  0  0  0  0  0  0  0  0
    6.7480   -1.9954   -0.7767 H   0  0  0  0  0  0  0  0  0  0  0  0
    4.3628   -2.0079   -0.1585 H   0  0  0  0  0  0  0  0  0  0  0  0
    2.0113    0.6894   -1.4969 H   0  0  0  0  0  0  0  0  0  0  0  0
    2.2265    2.0529   -0.4026 H   0  0  0  0  0  0  0  0  0  0  0  0
  1  2  2  0
  2  3  1  0
  3  4  1  0
  4  5  2  0
  5  6  1  0
  6  7  2  0
  7  8  1  0
  8  9  2  0
  9 10  1  0
 10 11  1  0
 11 12  1  0
 12 13  1  0
  2 14  1  0
 14 15  1  0
 15 16  1  0
 16 17  1  0
 17 18  1  0
 18 19  1  0
 19 20  2  0
 20 21  1  0
 21 22  2  0
 22 23  1  0
 23 24  2  0
 18 25  1  0
  9  4  1  0
 25 14  1  0
 13  8  1  0
 24 19  1  0
  3 26  1  0
  5 27  1  0
  6 28  1  0
  7 29  1  0
 11 30  1  0
 11 31  1  0
 12 32  1  0
 12 33  1  0
 15 34  1  0
 15 35  1  0
 16 36  1  0
 16 37  1  0
 17 38  1  0
 18 39  1  0
 20 40  1  0
 21 41  1  0
 22 42  1  0
 23 43  1  0
 24 44  1  0
 25 45  1  0
 25 46  1  0
M  END
$$$$
OCNT-2316319
     RDKit          3D

 39 41  0  0  0  0  0  0  0  0999 V2000
    5.4297    1.4565   -2.1372 N   0  0  0  0  0  0  0  0  0  0  0  0
    4.3271    0.9410   -1.5197 C   0  0  0  0  0  0  0  0  0  0  0  0
    3.2919    1.5895   -1.4870 O   0  0  0  0  0  0  0  0  0  0  0  0
    4.5707   -0.2999   -0.9953 N   0  0  0  0  0  0  0  0  0  0  0  0
    3.6659   -1.1458   -0.3234 C   0  0  0  0  0  0  0  0  0  0  0  0
    4.1631   -2.3647    0.1546 C   0  0  0  0  0  0  0  0  0  0  0  0
    3.3293   -3.2580    0.8290 C   0  0  0  0  0  0  0  0  0  0  0  0
    1.9867   -2.9412    1.0246 C   0  0  0  0  0  0  0  0  0  0  0  0
    1.4706   -1.7317    0.5434 C   0  0  0  0  0  0  0  0  0  0  0  0
    0.0278   -1.4420    0.7858 C   0  0  0  0  0  0  0  0  0  0  0  0
   -0.5640   -2.0072    1.6997 O   0  0  0  0  0  0  0  0  0  0  0  0
   -0.5875   -0.5461   -0.0643 N   0  0  0  0  0  0  0  0  0  0  0  0
   -1.9790   -0.1459    0.1244 C   0  0  0  0  0  0  0  0  0  0  0  0
   -2.5392    0.4738   -1.1817 C   0  0  0  0  0  0  0  0  0  0  0  0
   -4.0342    0.8359   -1.0695 C   0  0  0  0  0  0  0  0  0  0  0  0
   -4.3101    1.5220    0.2154 C   0  0  0  0  0  0  0  0  0  0  0  0
   -3.4479    1.4867    1.2859 C   0  0  0  0  0  0  0  0  0  0  0  0
   -2.1236    0.8198    1.3362 C   0  0  0  0  0  0  0  0  0  0  0  0
   -4.0359    2.1987    2.2853 N   0  0  0  0  0  0  0  0  0  0  0  0
   -5.2320    2.7055    1.9278 N   0  0  0  0  0  0  0  0  0  0  0  0
   -5.3983    2.2869    0.6679 C   0  0  0  0  0  0  0  0  0  0  0  0
    2.3188   -0.8319   -0.1187 C   0  0  0  0  0  0  0  0  0  0  0  0
    5.9726    0.8210   -2.7037 H   0  0  0  0  0  0  0  0  0  0  0  0
    5.2276    2.3350   -2.6012 H   0  0  0  0  0  0  0  0  0  0  0  0
    5.5354   -0.5953   -1.0256 H   0  0  0  0  0  0  0  0  0  0  0  0
    5.2065   -2.6352    0.0130 H   0  0  0  0  0  0  0  0  0  0  0  0
    3.7243   -4.1993    1.2032 H   0  0  0  0  0  0  0  0  0  0  0  0
    1.3402   -3.6395    1.5535 H   0  0  0  0  0  0  0  0  0  0  0  0
   -0.0617   -0.0985   -0.8026 H   0  0  0  0  0  0  0  0  0  0  0  0
   -2.5536   -1.0573    0.3405 H   0  0  0  0  0  0  0  0  0  0  0  0
   -2.3974   -0.2181   -2.0210 H   0  0  0  0  0  0  0  0  0  0  0  0
   -1.9638    1.3778   -1.4249 H   0  0  0  0  0  0  0  0  0  0  0  0
   -4.3250    1.4677   -1.9159 H   0  0  0  0  0  0  0  0  0  0  0  0
   -4.6342   -0.0807   -1.1200 H   0  0  0  0  0  0  0  0  0  0  0  0
   -1.3366    1.5837    1.3004 H   0  0  0  0  0  0  0  0  0  0  0  0
   -2.0003    0.2703    2.2761 H   0  0  0  0  0  0  0  0  0  0  0  0
   -3.6910    2.3840    3.2217 H   0  0  0  0  0  0  0  0  0  0  0  0
   -6.3043    2.5574    0.1411 H   0  0  0  0  0  0  0  0  0  0  0  0
    1.9314    0.1253   -0.4431 H   0  0  0  0  0  0  0  0  0  0  0  0
  1  2  1  0
  2  3  2  0
  2  4  1  0
  4  5  1  0
  5  6  2  0
  6  7  1  0
  7  8  2  0
  8  9  1  0
  9 10  1  0
 10 11  2  0
 10 12  1  0
 12 13  1  0
 13 14  1  0
 14 15  1  0
 15 16  1  0
 16 17  2  0
 17 18  1  0
 17 19  1  0
 19 20  1  0
 20 21  2  0
  9 22  2  0
 22  5  1  0
 18 13  1  0
 21 16  1  0
  1 23  1  0
  1 24  1  0
  4 25  1  0
  6 26  1  0
  7 27  1  0
  8 28  1  0
 12 29  1  0
 13 30  1  0
 14 31  1  0
 14 32  1  0
 15 33  1  0
 15 34  1  0
 18 35  1  0
 18 36  1  0
 19 37  1  0
 21 38  1  0
 22 39  1  0
M  END
$$$$
OCNT-2316326
     RDKit          3D

 44 46  0  0  0  0  0  0  0  0999 V2000
    5.9631    0.4344    1.5555 C   0  0  0  0  0  0  0  0  0  0  0  0
    5.0112   -0.7611    1.4673 C   0  0  0  0  0  0  0  0  0  0  0  0
    5.7185   -1.9786    0.8669 C   0  0  0  0  0  0  0  0  0  0  0  0
    3.7486   -0.4136    0.6982 C   0  0  0  0  0  0  0  0  0  0  0  0
    2.5043   -0.4713    1.3399 C   0  0  0  0  0  0  0  0  0  0  0  0
    1.3284   -0.1560    0.6521 C   0  0  0  0  0  0  0  0  0  0  0  0
    1.3753    0.2245   -0.6964 C   0  0  0  0  0  0  0  0  0  0  0  0
    0.1662    0.5407   -1.3797 N   0  0  0  0  0  0  0  0  0  0  0  0
    0.0156    0.9323   -2.6888 C   0  0  0  0  0  0  0  0  0  0  0  0
   -1.3232    1.1160   -2.8747 C   0  0  0  0  0  0  0  0  0  0  0  0
   -1.8640    1.5207   -4.0354 O   0  0  0  0  0  0  0  0  0  0  0  0
   -1.9591    0.8087   -1.6485 C   0  0  0  0  0  0  0  0  0  0  0  0
   -3.4179    0.8964   -1.4231 C   0  0  0  0  0  0  0  0  0  0  0  0
   -4.1114    1.3910   -2.3190 O   0  0  0  0  0  0  0  0  0  0  0  0
   -4.0061    0.4335   -0.2348 N   0  0  0  0  0  0  0  0  0  0  0  0
   -5.3747    0.8675    0.0500 C   0  0  0  0  0  0  0  0  0  0  0  0
   -6.2005   -0.2099    0.7549 C   0  0  0  0  0  0  0  0  0  0  0  0
   -5.4389   -0.8514    1.8693 C   0  0  0  0  0  0  0  0  0  0  0  0
   -4.1024   -0.7840    1.9253 C   0  0  0  0  0  0  0  0  0  0  0  0
   -3.4894   -1.3850    2.9710 F   0  0  0  0  0  0  0  0  0  0  0  0
   -3.2381   -0.1184    0.8885 C   0  0  0  0  0  0  0  0  0  0  0  0
   -1.0327    0.4781   -0.7317 N   0  0  0  0  0  0  0  0  0  0  0  0
    2.6143    0.2845   -1.3453 C   0  0  0  0  0  0  0  0  0  0  0  0
    3.7877   -0.0323   -0.6507 C   0  0  0  0  0  0  0  0  0  0  0  0
    6.3407    0.7314    0.5711 H   0  0  0  0  0  0  0  0  0  0  0  0
    6.8274    0.1924    2.1835 H   0  0  0  0  0  0  0  0  0  0  0  0
    5.4611    1.3029    1.9964 H   0  0  0  0  0  0  0  0  0  0  0  0
    4.7315   -1.0262    2.4957 H   0  0  0  0  0  0  0  0  0  0  0  0
    6.5782   -2.2660    1.4819 H   0  0  0  0  0  0  0  0  0  0  0  0
    6.0859   -1.7812   -0.1460 H   0  0  0  0  0  0  0  0  0  0  0  0
    5.0412   -2.8384    0.8147 H   0  0  0  0  0  0  0  0  0  0  0  0
    2.4362   -0.7636    2.3859 H   0  0  0  0  0  0  0  0  0  0  0  0
    0.3830   -0.2137    1.1876 H   0  0  0  0  0  0  0  0  0  0  0  0
    0.8438    1.0541   -3.3681 H   0  0  0  0  0  0  0  0  0  0  0  0
   -2.8335    1.6249   -3.9223 H   0  0  0  0  0  0  0  0  0  0  0  0
   -5.2965    1.7606    0.6836 H   0  0  0  0  0  0  0  0  0  0  0  0
   -5.8956    1.1737   -0.8631 H   0  0  0  0  0  0  0  0  0  0  0  0
   -6.4944   -0.9881    0.0407 H   0  0  0  0  0  0  0  0  0  0  0  0
   -7.1195    0.2410    1.1453 H   0  0  0  0  0  0  0  0  0  0  0  0
   -5.9856   -1.3857    2.6392 H   0  0  0  0  0  0  0  0  0  0  0  0
   -2.5478   -0.8773    0.5109 H   0  0  0  0  0  0  0  0  0  0  0  0
   -2.6778    0.6985    1.3553 H   0  0  0  0  0  0  0  0  0  0  0  0
    2.7091    0.5720   -2.3878 H   0  0  0  0  0  0  0  0  0  0  0  0
    4.7378    0.0222   -1.1783 H   0  0  0  0  0  0  0  0  0  0  0  0
  1  2  1  0
  2  3  1  0
  2  4  1  0
  4  5  1  0
  5  6  2  0
  6  7  1  0
  7  8  1  0
  8  9  1  0
  9 10  2  0
 10 11  1  0
 10 12  1  0
 12 13  1  0
 13 14  2  0
 13 15  1  0
 15 16  1  0
 16 17  1  0
 17 18  1  0
 18 19  2  0
 19 20  1  0
 19 21  1  0
 12 22  2  0
  7 23  2  0
 23 24  1  0
 24  4  2  0
 22  8  1  0
 21 15  1  0
  1 25  1  0
  1 26  1  0
  1 27  1  0
  2 28  1  0
  3 29  1  0
  3 30  1  0
  3 31  1  0
  5 32  1  0
  6 33  1  0
  9 34  1  0
 11 35  1  0
 16 36  1  0
 16 37  1  0
 17 38  1  0
 17 39  1  0
 18 40  1  0
 21 41  1  0
 21 42  1  0
 23 43  1  0
 24 44  1  0
M  END
$$$$
