OCNT-2311801
     RDKit          3D

 50 53  0  0  0  0  0  0  0  0999 V2000
   -4.1700   -2.7391    0.7736 C   0  0  0  0  0  0  0  0  0  0  0  0
   -3.3400   -1.6195    0.4782 O   0  0  0  0  0  0  0  0  0  0  0  0
   -3.9439   -0.4019    0.2764 C   0  0  0  0  0  0  0  0  0  0  0  0
   -5.3207   -0.1917    0.4602 C   0  0  0  0  0  0  0  0  0  0  0  0
   -5.9096    1.0673    0.2460 C   0  0  0  0  0  0  0  0  0  0  0  0
   -7.2874    1.2756    0.4287 C   0  0  0  0  0  0  0  0  0  0  0  0
   -7.8558    2.5318    0.2112 C   0  0  0  0  0  0  0  0  0  0  0  0
   -7.0553    3.5958   -0.1915 C   0  0  0  0  0  0  0  0  0  0  0  0
   -5.6857    3.4047   -0.3766 C   0  0  0  0  0  0  0  0  0  0  0  0
   -5.1009    2.1460   -0.1609 C   0  0  0  0  0  0  0  0  0  0  0  0
   -3.7260    1.9376   -0.3407 C   0  0  0  0  0  0  0  0  0  0  0  0
   -3.1309    0.6782   -0.1258 C   0  0  0  0  0  0  0  0  0  0  0  0
   -1.6407    0.6053   -0.3575 C   0  0  0  0  0  0  0  0  0  0  0  0
   -1.0643    1.6097   -0.7667 O   0  0  0  0  0  0  0  0  0  0  0  0
   -1.0280   -0.6005   -0.0811 N   0  0  0  0  0  0  0  0  0  0  0  0
    0.3331   -0.9388   -0.2069 C   0  0  0  0  0  0  0  0  0  0  0  0
    1.3207   -0.0649   -0.6603 C   0  0  0  0  0  0  0  0  0  0  0  0
    2.6578   -0.4787   -0.7570 C   0  0  0  0  0  0  0  0  0  0  0  0
    3.0226   -1.7738   -0.3979 C   0  0  0  0  0  0  0  0  0  0  0  0
    4.2796   -2.3067   -0.4333 O   0  0  0  0  0  0  0  0  0  0  0  0
    5.3676   -1.4768   -0.8433 C   0  0  0  0  0  0  0  0  0  0  0  0
    5.9040   -0.6658    0.3317 C   0  0  0  0  0  0  0  0  0  0  0  0
    7.0428    0.1428   -0.0404 N   0  0  0  0  0  0  0  0  0  0  0  0
    8.3542   -0.2374    0.0011 C   0  0  0  0  0  0  0  0  0  0  0  0
    9.0528    0.8589   -0.4486 C   0  0  0  0  0  0  0  0  0  0  0  0
    8.1990    1.8875   -0.7537 N   0  0  0  0  0  0  0  0  0  0  0  0
    6.9958    1.4309   -0.4891 C   0  0  0  0  0  0  0  0  0  0  0  0
    2.0357   -2.6511    0.0531 C   0  0  0  0  0  0  0  0  0  0  0  0
    0.7027   -2.2395    0.1484 C   0  0  0  0  0  0  0  0  0  0  0  0
   -3.5254   -3.6208    0.8400 H   0  0  0  0  0  0  0  0  0  0  0  0
   -4.6643   -2.6159    1.7426 H   0  0  0  0  0  0  0  0  0  0  0  0
   -4.8952   -2.9173   -0.0270 H   0  0  0  0  0  0  0  0  0  0  0  0
   -5.9710   -1.0013    0.7779 H   0  0  0  0  0  0  0  0  0  0  0  0
   -7.9326    0.4581    0.7430 H   0  0  0  0  0  0  0  0  0  0  0  0
   -8.9231    2.6786    0.3560 H   0  0  0  0  0  0  0  0  0  0  0  0
   -7.4947    4.5753   -0.3620 H   0  0  0  0  0  0  0  0  0  0  0  0
   -5.0748    4.2486   -0.6915 H   0  0  0  0  0  0  0  0  0  0  0  0
   -3.1025    2.7750   -0.6542 H   0  0  0  0  0  0  0  0  0  0  0  0
   -1.6420   -1.3368    0.2519 H   0  0  0  0  0  0  0  0  0  0  0  0
    1.0848    0.9537   -0.9528 H   0  0  0  0  0  0  0  0  0  0  0  0
    3.3748    0.2487   -1.1207 H   0  0  0  0  0  0  0  0  0  0  0  0
    6.1542   -2.1571   -1.1929 H   0  0  0  0  0  0  0  0  0  0  0  0
    5.1154   -0.8604   -1.7141 H   0  0  0  0  0  0  0  0  0  0  0  0
    5.1388   -0.0003    0.7461 H   0  0  0  0  0  0  0  0  0  0  0  0
    6.2097   -1.3295    1.1493 H   0  0  0  0  0  0  0  0  0  0  0  0
    8.6750   -1.2155    0.3312 H   0  0  0  0  0  0  0  0  0  0  0  0
   10.1235    0.9632   -0.5678 H   0  0  0  0  0  0  0  0  0  0  0  0
    6.0734    1.9852   -0.6068 H   0  0  0  0  0  0  0  0  0  0  0  0
    2.3044   -3.6666    0.3339 H   0  0  0  0  0  0  0  0  0  0  0  0
   -0.0376   -2.9509    0.5041 H   0  0  0  0  0  0  0  0  0  0  0  0
  1  2  1  0
  2  3  1  0
  3  4  2  0
  4  5  1  0
  5  6  2  0
  6  7  1  0
  7  8  2  0
  8  9  1  0
  9 10  2  0
 10 11  1  0
 11 12  2  0
 12 13  1  0
 13 14  2  0
 13 15  1  0
 15 16  1  0
 16 17  1  0
 17 18  2  0
 18 19  1  0
 19 20  1  0
 20 21  1  0
 21 22  1  0
 22 23  1  0
 23 24  1  0
 24 25  2  0
 25 26  1  0
 26 27  2  0
 19 28  2  0
 28 29  1  0
 12  3  1  0
 29 16  2  0
 10  5  1  0
 27 23  1  0
  1 30  1  0
  1 31  1  0
  1 32  1  0
  4 33  1  0
  6 34  1  0
  7 35  1  0
  8 36  1  0
  9 37  1  0
 11 38  1  0
 15 39  1  0
 17 40  1  0
 18 41  1  0
 21 42  1  0
 21 43  1  0
 22 44  1  0
 22 45  1  0
 24 46  1  0
 25 47  1  0
 27 48  1  0
 28 49  1  0
 29 50  1  0
M  END
$$$$
OCNT-2311803
     RDKit          3D

  0  0  0  0  0  0  0  0  0  0999 V3000
M  V30 BEGIN CTAB
M  V30 COUNTS 54 58 0 0 0
M  V30 BEGIN ATOM
M  V30 1 C -2.280075 3.706288 2.517227 0
M  V30 2 C -1.802702 2.522711 1.727480 0
M  V30 3 C -0.613906 2.611341 0.980505 0
M  V30 4 C -0.155701 1.530198 0.218386 0
M  V30 5 C -0.891046 0.357452 0.213189 0
M  V30 6 C -2.101509 0.283900 0.908006 0
M  V30 7 C -2.560494 1.346885 1.677956 0
M  V30 8 C -2.757839 -1.056257 0.706371 0 CFG=1
M  V30 9 C -4.245814 -0.976328 0.344759 0
M  V30 10 N -4.646889 -2.213713 -0.326564 0
M  V30 11 C -6.098846 -2.326765 -0.437109 0
M  V30 12 C -4.003923 -2.358403 -1.643116 0
M  V30 13 C -2.655787 -1.639090 -1.763320 0
M  V30 14 C -1.895528 -1.656081 -0.432560 0 CFG=1
M  V30 15 N -0.656680 -0.848959 -0.474422 0
M  V30 16 C 0.463072 -1.298605 -1.164244 0
M  V30 17 O 0.384567 -2.203691 -1.995737 0
M  V30 18 C 1.774557 -0.750354 -0.826905 0
M  V30 19 C 2.286945 -0.523296 0.433579 0
M  V30 20 N 3.577544 -0.047682 0.322284 0
M  V30 21 C 4.355515 0.238748 1.512307 0
M  V30 22 C 5.500806 1.218509 1.359796 0
M  V30 23 C 6.566673 0.650517 0.449114 0
M  V30 24 N 6.261301 0.848948 -0.940879 0
M  V30 25 C 5.164664 0.456580 -1.653625 0
M  V30 26 O 5.273414 0.520458 -2.879974 0
M  V30 27 C 3.941971 0.014463 -1.006938 0
M  V30 28 C 2.834278 -0.448547 -1.717674 0
M  V30 29 H -3.013006 3.407698 3.273665 0
M  V30 30 H -2.745729 4.438679 1.850822 0
M  V30 31 H -1.443366 4.180906 3.041230 0
M  V30 32 H -0.039075 3.535662 0.981138 0
M  V30 33 H 0.744111 1.651274 -0.372837 0
M  V30 34 H -3.494135 1.266980 2.227856 0
M  V30 35 H -2.614647 -1.654727 1.615894 0
M  V30 36 H -4.814217 -0.842380 1.274165 0
M  V30 37 H -4.469927 -0.102380 -0.282004 0
M  V30 38 H -6.533075 -1.507304 -1.020815 0
M  V30 39 H -6.561053 -2.324155 0.556305 0
M  V30 40 H -6.376214 -3.274968 -0.910380 0
M  V30 41 H -4.649684 -1.982941 -2.447811 0
M  V30 42 H -3.857646 -3.429282 -1.828992 0
M  V30 43 H -2.069263 -2.105222 -2.562684 0
M  V30 44 H -2.823552 -0.600340 -2.079239 0
M  V30 45 H -1.621160 -2.692274 -0.193934 0
M  V30 46 H 1.832579 -0.669639 1.405864 0
M  V30 47 H 4.715151 -0.727805 1.887543 0
M  V30 48 H 3.658906 0.641484 2.258451 0
M  V30 49 H 5.937380 1.386149 2.351814 0
M  V30 50 H 5.140350 2.187843 0.994264 0
M  V30 51 H 6.733496 -0.419055 0.619669 0
M  V30 52 H 7.514643 1.169707 0.629752 0
M  V30 53 H 7.032998 1.052640 -1.565065 0
M  V30 54 H 2.797567 -0.545780 -2.797650 0
M  V30 END ATOM
M  V30 BEGIN BOND
M  V30 1 1 1 2
M  V30 2 1 2 3
M  V30 3 2 3 4
M  V30 4 1 4 5
M  V30 5 2 5 6
M  V30 6 1 6 7
M  V30 7 1 6 8
M  V30 8 1 8 9
M  V30 9 1 9 10
M  V30 10 1 10 11
M  V30 11 1 10 12
M  V30 12 1 12 13
M  V30 13 1 13 14
M  V30 14 1 14 15
M  V30 15 1 15 16
M  V30 16 2 16 17
M  V30 17 1 16 18
M  V30 18 2 18 19
M  V30 19 1 19 20
M  V30 20 1 20 21
M  V30 21 1 21 22
M  V30 22 1 22 23
M  V30 23 1 23 24
M  V30 24 1 24 25
M  V30 25 2 25 26
M  V30 26 1 25 27
M  V30 27 2 27 28
M  V30 28 2 7 2
M  V30 29 1 14 8
M  V30 30 1 28 18
M  V30 31 1 15 5
M  V30 32 1 27 20
M  V30 33 1 1 29
M  V30 34 1 1 30
M  V30 35 1 1 31
M  V30 36 1 3 32
M  V30 37 1 4 33
M  V30 38 1 7 34
M  V30 39 1 8 35 CFG=1
M  V30 40 1 9 36
M  V30 41 1 9 37
M  V30 42 1 11 38
M  V30 43 1 11 39
M  V30 44 1 11 40
M  V30 45 1 12 41
M  V30 46 1 12 42
M  V30 47 1 13 43
M  V30 48 1 13 44
M  V30 49 1 14 45 CFG=1
M  V30 50 1 19 46
M  V30 51 1 21 47
M  V30 52 1 21 48
M  V30 53 1 22 49
M  V30 54 1 22 50
M  V30 55 1 23 51
M  V30 56 1 23 52
M  V30 57 1 24 53
M  V30 58 1 28 54
M  V30 END BOND
M  V30 BEGIN COLLECTION
M  V30 MDLV30/STERAC1 ATOMS=(2 8 14)
M  V30 END COLLECTION
M  V30 END CTAB
M  END
>  <_CXSMILES_Data>  (502) 
|&1:7,13|

$$$$
OCNT-2311807
     RDKit          3D

 42 45  0  0  0  0  0  0  0  0999 V2000
   -2.5218   -1.3298   -1.9510 O   0  0  0  0  0  0  0  0  0  0  0  0
   -1.7843   -0.8961   -1.0613 C   0  0  0  0  0  0  0  0  0  0  0  0
   -2.3188   -0.1913    0.1038 C   0  0  0  0  0  0  0  0  0  0  0  0
   -1.6548   -0.0127    1.2409 N   0  0  0  0  0  0  0  0  0  0  0  0
   -2.5012    0.6463    2.0894 C   0  0  0  0  0  0  0  0  0  0  0  0
   -3.7073    0.8816    1.4818 C   0  0  0  0  0  0  0  0  0  0  0  0
   -4.9301    1.5040    1.8543 C   0  0  0  0  0  0  0  0  0  0  0  0
   -5.9406    1.5553    0.9658 C   0  0  0  0  0  0  0  0  0  0  0  0
   -5.8099    0.9889   -0.3660 C   0  0  0  0  0  0  0  0  0  0  0  0
   -4.6537    0.3992   -0.7153 C   0  0  0  0  0  0  0  0  0  0  0  0
   -3.6003    0.3395    0.2038 N   0  0  0  0  0  0  0  0  0  0  0  0
   -0.3959   -1.0932   -1.1709 N   0  0  0  0  0  0  0  0  0  0  0  0
    0.0947   -1.9919   -2.2135 C   0  0  0  0  0  0  0  0  0  0  0  0
    1.4028   -2.6612   -1.8092 C   0  0  0  0  0  0  0  0  0  0  0  0
    2.5093   -1.6471   -1.5136 C   0  0  0  0  0  0  0  0  0  0  0  0
    1.9641   -0.2876   -1.0449 C   0  0  0  0  0  0  0  0  0  0  0  0
    2.9319    0.4479   -0.2417 N   0  0  0  0  0  0  0  0  0  0  0  0
    3.5474    1.6174   -0.5812 C   0  0  0  0  0  0  0  0  0  0  0  0
    4.3674    1.9364    0.4736 C   0  0  0  0  0  0  0  0  0  0  0  0
    4.1900    0.8930    1.4224 C   0  0  0  0  0  0  0  0  0  0  0  0
    4.8691    0.7717    2.7611 C   0  0  0  0  0  0  0  0  0  0  0  0
    5.5894   -0.3758    2.8805 F   0  0  0  0  0  0  0  0  0  0  0  0
    3.9900    0.8008    3.7980 F   0  0  0  0  0  0  0  0  0  0  0  0
    5.7451    1.7944    2.9760 F   0  0  0  0  0  0  0  0  0  0  0  0
    3.3051   -0.0169    0.9651 N   0  0  0  0  0  0  0  0  0  0  0  0
    0.6120   -0.4206   -0.3315 C   0  0  0  0  0  0  0  0  0  0  0  0
   -2.1958    0.9143    3.0927 H   0  0  0  0  0  0  0  0  0  0  0  0
   -5.0378    1.9287    2.8474 H   0  0  0  0  0  0  0  0  0  0  0  0
   -6.8851    2.0236    1.2261 H   0  0  0  0  0  0  0  0  0  0  0  0
   -6.6492    1.0521   -1.0501 H   0  0  0  0  0  0  0  0  0  0  0  0
   -4.5045   -0.0386   -1.6940 H   0  0  0  0  0  0  0  0  0  0  0  0
    0.2307   -1.3960   -3.1238 H   0  0  0  0  0  0  0  0  0  0  0  0
   -0.6562   -2.7593   -2.4309 H   0  0  0  0  0  0  0  0  0  0  0  0
    1.7347   -3.3525   -2.5919 H   0  0  0  0  0  0  0  0  0  0  0  0
    1.2287   -3.2649   -0.9090 H   0  0  0  0  0  0  0  0  0  0  0  0
    3.1963   -2.0867   -0.7800 H   0  0  0  0  0  0  0  0  0  0  0  0
    3.1090   -1.4870   -2.4191 H   0  0  0  0  0  0  0  0  0  0  0  0
    1.7975    0.3231   -1.9443 H   0  0  0  0  0  0  0  0  0  0  0  0
    3.3556    2.1167   -1.5211 H   0  0  0  0  0  0  0  0  0  0  0  0
    5.0117    2.8013    0.5600 H   0  0  0  0  0  0  0  0  0  0  0  0
    0.2550    0.5805   -0.0681 H   0  0  0  0  0  0  0  0  0  0  0  0
    0.7101   -1.0072    0.5898 H   0  0  0  0  0  0  0  0  0  0  0  0
  1  2  2  0
  2  3  1  0
  3  4  2  0
  4  5  1  0
  5  6  2  0
  6  7  1  0
  7  8  2  0
  8  9  1  0
  9 10  2  0
 10 11  1  0
  2 12  1  0
 12 13  1  0
 13 14  1  0
 14 15  1  0
 15 16  1  0
 16 17  1  0
 17 18  1  0
 18 19  2  0
 19 20  1  0
 20 21  1  0
 21 22  1  0
 21 23  1  0
 21 24  1  0
 20 25  2  0
 16 26  1  0
 11  3  1  0
 26 12  1  0
 11  6  1  0
 25 17  1  0
  5 27  1  0
  7 28  1  0
  8 29  1  0
  9 30  1  0
 10 31  1  0
 13 32  1  0
 13 33  1  0
 14 34  1  0
 14 35  1  0
 15 36  1  0
 15 37  1  0
 16 38  1  0
 18 39  1  0
 19 40  1  0
 26 41  1  0
 26 42  1  0
M  END
$$$$
OCNT-2311808
     RDKit          3D

 54 58  0  0  0  0  0  0  0  0999 V2000
    3.0407   -1.4661    1.0311 O   0  0  0  0  0  0  0  0  0  0  0  0
    2.9480   -0.2462    0.9515 C   0  0  0  0  0  0  0  0  0  0  0  0
    2.3852    0.4742   -0.0875 N   0  0  0  0  0  0  0  0  0  0  0  0
    1.8872   -0.0346   -1.3020 C   0  0  0  0  0  0  0  0  0  0  0  0
    1.9869   -1.3768   -1.6822 C   0  0  0  0  0  0  0  0  0  0  0  0
    1.4426   -1.8163   -2.8919 C   0  0  0  0  0  0  0  0  0  0  0  0
    0.7739   -0.9077   -3.7123 C   0  0  0  0  0  0  0  0  0  0  0  0
   -0.0713   -1.4951   -5.1683 S   0  0  0  0  0  0  0  0  0  0  0  0
   -0.3461   -0.3563   -6.0170 O   0  0  0  0  0  0  0  0  0  0  0  0
    0.6523   -2.6490   -5.6571 O   0  0  0  0  0  0  0  0  0  0  0  0
   -1.5328   -2.0802   -4.5246 N   0  0  0  0  0  0  0  0  0  0  0  0
   -2.2726   -1.2008   -3.6805 C   0  0  0  0  0  0  0  0  0  0  0  0
   -3.0387   -0.1853   -4.2449 C   0  0  0  0  0  0  0  0  0  0  0  0
   -3.6627    0.7490   -3.4229 C   0  0  0  0  0  0  0  0  0  0  0  0
   -3.4791    0.6924   -2.0423 C   0  0  0  0  0  0  0  0  0  0  0  0
   -2.6643   -0.2936   -1.4589 C   0  0  0  0  0  0  0  0  0  0  0  0
   -2.4104   -0.2500   -0.0188 C   0  0  0  0  0  0  0  0  0  0  0  0
   -3.1392    0.3694    0.8889 N   0  0  0  0  0  0  0  0  0  0  0  0
   -2.4653    0.1415    2.0665 C   0  0  0  0  0  0  0  0  0  0  0  0
   -2.9972    0.6754    3.4266 C   0  0  0  0  0  0  0  0  0  0  0  0
   -3.8726   -0.2306    4.2551 C   0  0  0  0  0  0  0  0  0  0  0  0
   -2.4954    0.1165    4.7326 C   0  0  0  0  0  0  0  0  0  0  0  0
   -1.3315   -0.5576    1.9418 N   0  0  0  0  0  0  0  0  0  0  0  0
   -1.3276   -0.8106    0.6188 N   0  0  0  0  0  0  0  0  0  0  0  0
   -2.0945   -1.2662   -2.2910 C   0  0  0  0  0  0  0  0  0  0  0  0
    0.7119    0.4464   -3.3734 C   0  0  0  0  0  0  0  0  0  0  0  0
    1.2662    0.8767   -2.1671 C   0  0  0  0  0  0  0  0  0  0  0  0
    3.4880    0.5698    2.0772 C   0  0  0  0  0  0  0  0  0  0  0  0
    2.8453    1.7362    2.5194 C   0  0  0  0  0  0  0  0  0  0  0  0
    3.3953    2.4786    3.5687 C   0  0  0  0  0  0  0  0  0  0  0  0
    4.5717    2.0458    4.1764 C   0  0  0  0  0  0  0  0  0  0  0  0
    5.0992    2.7634    5.1772 F   0  0  0  0  0  0  0  0  0  0  0  0
    5.2069    0.8792    3.7623 C   0  0  0  0  0  0  0  0  0  0  0  0
    4.6604    0.1354    2.7144 C   0  0  0  0  0  0  0  0  0  0  0  0
    2.3653    1.4807    0.0089 H   0  0  0  0  0  0  0  0  0  0  0  0
    2.4961   -2.1094   -1.0604 H   0  0  0  0  0  0  0  0  0  0  0  0
    1.5279   -2.8637   -3.1723 H   0  0  0  0  0  0  0  0  0  0  0  0
   -1.4429   -3.0505   -4.2244 H   0  0  0  0  0  0  0  0  0  0  0  0
   -3.1556   -0.1169   -5.3245 H   0  0  0  0  0  0  0  0  0  0  0  0
   -4.2830    1.5327   -3.8586 H   0  0  0  0  0  0  0  0  0  0  0  0
   -3.9603    1.4399   -1.4150 H   0  0  0  0  0  0  0  0  0  0  0  0
   -3.2605    1.7192    3.4036 H   0  0  0  0  0  0  0  0  0  0  0  0
   -4.0425   -1.2464    3.9051 H   0  0  0  0  0  0  0  0  0  0  0  0
   -4.7211    0.2193    4.7609 H   0  0  0  0  0  0  0  0  0  0  0  0
   -2.4024    0.7957    5.5695 H   0  0  0  0  0  0  0  0  0  0  0  0
   -1.7329   -0.6583    4.7017 H   0  0  0  0  0  0  0  0  0  0  0  0
   -0.5446   -1.3260    0.2223 H   0  0  0  0  0  0  0  0  0  0  0  0
   -1.4853   -2.0625   -1.8753 H   0  0  0  0  0  0  0  0  0  0  0  0
    0.2053    1.1613   -4.0211 H   0  0  0  0  0  0  0  0  0  0  0  0
    1.1820    1.9293   -1.9062 H   0  0  0  0  0  0  0  0  0  0  0  0
    1.9098    2.0680    2.0798 H   0  0  0  0  0  0  0  0  0  0  0  0
    2.9129    3.3860    3.9226 H   0  0  0  0  0  0  0  0  0  0  0  0
    6.1209    0.5578    4.2562 H   0  0  0  0  0  0  0  0  0  0  0  0
    5.1502   -0.7831    2.3922 H   0  0  0  0  0  0  0  0  0  0  0  0
  1  2  2  0
  2  3  1  0
  3  4  1  0
  4  5  1  0
  5  6  2  0
  6  7  1  0
  7  8  1  0
  8  9  2  0
  8 10  2  0
  8 11  1  0
 11 12  1  0
 12 13  2  0
 13 14  1  0
 14 15  2  0
 15 16  1  0
 16 17  1  0
 17 18  2  0
 18 19  1  0
 19 20  1  0
 20 21  1  0
 21 22  1  0
 19 23  2  0
 23 24  1  0
 16 25  2  0
  7 26  2  0
 26 27  1  0
  2 28  1  0
 28 29  1  0
 29 30  2  0
 30 31  1  0
 31 32  1  0
 31 33  2  0
 33 34  1  0
 27  4  2  0
 34 28  2  0
 25 12  1  0
 24 17  1  0
 22 20  1  0
  3 35  1  0
  5 36  1  0
  6 37  1  0
 11 38  1  0
 13 39  1  0
 14 40  1  0
 15 41  1  0
 20 42  1  0
 21 43  1  0
 21 44  1  0
 22 45  1  0
 22 46  1  0
 24 47  1  0
 25 48  1  0
 26 49  1  0
 27 50  1  0
 29 51  1  0
 30 52  1  0
 33 53  1  0
 34 54  1  0
M  END
$$$$
OCNT-2311815
     RDKit          3D

 51 55  0  0  0  0  0  0  0  0999 V2000
   -7.3196   -1.6672   -1.4762 C   0  0  0  0  0  0  0  0  0  0  0  0
   -7.4038   -0.2860   -1.3114 C   0  0  0  0  0  0  0  0  0  0  0  0
   -6.3400    0.4179   -0.7432 C   0  0  0  0  0  0  0  0  0  0  0  0
   -5.1759   -0.2520   -0.3406 C   0  0  0  0  0  0  0  0  0  0  0  0
   -4.0469    0.5066    0.3119 C   0  0  0  0  0  0  0  0  0  0  0  0
   -2.8006    0.0372   -0.1913 O   0  0  0  0  0  0  0  0  0  0  0  0
   -1.6182    0.3864    0.5491 C   0  0  0  0  0  0  0  0  0  0  0  0
   -0.4863    0.1449   -0.4263 C   0  0  0  0  0  0  0  0  0  0  0  0
    0.5449   -0.6713   -0.3560 N   0  0  0  0  0  0  0  0  0  0  0  0
    1.2453   -0.3578   -1.4946 C   0  0  0  0  0  0  0  0  0  0  0  0
    2.5483   -0.9926   -1.8238 C   0  0  0  0  0  0  0  0  0  0  0  0
    3.6752   -0.4226   -1.0449 C   0  0  0  0  0  0  0  0  0  0  0  0
    3.8232    0.1107    0.2156 C   0  0  0  0  0  0  0  0  0  0  0  0
    5.1276    0.4825    0.4176 N   0  0  0  0  0  0  0  0  0  0  0  0
    5.7299    0.1613   -0.7102 C   0  0  0  0  0  0  0  0  0  0  0  0
    7.2470    0.3987   -0.9648 C   0  0  0  0  0  0  0  0  0  0  0  0
    8.2150    0.3481    0.1907 C   0  0  0  0  0  0  0  0  0  0  0  0
    8.1979   -0.7634   -0.8200 C   0  0  0  0  0  0  0  0  0  0  0  0
    4.9037   -0.3986   -1.6480 O   0  0  0  0  0  0  0  0  0  0  0  0
    0.6782    0.5813   -2.2633 N   0  0  0  0  0  0  0  0  0  0  0  0
   -0.4790    0.9153   -1.5584 O   0  0  0  0  0  0  0  0  0  0  0  0
   -1.5866    1.8562    1.0063 C   0  0  0  0  0  0  0  0  0  0  0  0
   -0.3095    2.1750    1.7812 C   0  0  0  0  0  0  0  0  0  0  0  0
    0.2760    1.0240    2.3858 O   0  0  0  0  0  0  0  0  0  0  0  0
   -0.6814    0.1099    2.9020 C   0  0  0  0  0  0  0  0  0  0  0  0
   -1.4862   -0.5376    1.7783 C   0  0  0  0  0  0  0  0  0  0  0  0
   -5.1089   -1.6442   -0.5029 C   0  0  0  0  0  0  0  0  0  0  0  0
   -6.1726   -2.3466   -1.0719 C   0  0  0  0  0  0  0  0  0  0  0  0
   -8.1470   -2.2140   -1.9207 H   0  0  0  0  0  0  0  0  0  0  0  0
   -8.2994    0.2445   -1.6259 H   0  0  0  0  0  0  0  0  0  0  0  0
   -6.4268    1.4950   -0.6220 H   0  0  0  0  0  0  0  0  0  0  0  0
   -4.1231    0.3693    1.3956 H   0  0  0  0  0  0  0  0  0  0  0  0
   -4.1343    1.5739    0.0802 H   0  0  0  0  0  0  0  0  0  0  0  0
    2.4836   -2.0685   -1.6213 H   0  0  0  0  0  0  0  0  0  0  0  0
    2.7497   -0.8869   -2.8970 H   0  0  0  0  0  0  0  0  0  0  0  0
    3.0668    0.2454    0.9788 H   0  0  0  0  0  0  0  0  0  0  0  0
    7.4492    1.1162   -1.7512 H   0  0  0  0  0  0  0  0  0  0  0  0
    9.0489    1.0394    0.1792 H   0  0  0  0  0  0  0  0  0  0  0  0
    7.8218    0.1458    1.1811 H   0  0  0  0  0  0  0  0  0  0  0  0
    7.7991   -1.7225   -0.5087 H   0  0  0  0  0  0  0  0  0  0  0  0
    9.0241   -0.8309   -1.5187 H   0  0  0  0  0  0  0  0  0  0  0  0
   -1.7148    2.5565    0.1716 H   0  0  0  0  0  0  0  0  0  0  0  0
   -2.4375    2.0523    1.6719 H   0  0  0  0  0  0  0  0  0  0  0  0
   -0.5084    2.9227    2.5568 H   0  0  0  0  0  0  0  0  0  0  0  0
    0.4433    2.6022    1.1102 H   0  0  0  0  0  0  0  0  0  0  0  0
   -0.1518   -0.6590    3.4739 H   0  0  0  0  0  0  0  0  0  0  0  0
   -1.3405    0.6360    3.6035 H   0  0  0  0  0  0  0  0  0  0  0  0
   -2.4622   -0.8344    2.1789 H   0  0  0  0  0  0  0  0  0  0  0  0
   -1.0151   -1.4877    1.4938 H   0  0  0  0  0  0  0  0  0  0  0  0
   -4.2182   -2.1876   -0.1938 H   0  0  0  0  0  0  0  0  0  0  0  0
   -6.1039   -3.4236   -1.2011 H   0  0  0  0  0  0  0  0  0  0  0  0
  1  2  2  0
  2  3  1  0
  3  4  2  0
  4  5  1  0
  5  6  1  0
  6  7  1  0
  7  8  1  0
  8  9  2  0
  9 10  1  0
 10 11  1  0
 11 12  1  0
 12 13  2  0
 13 14  1  0
 14 15  2  0
 15 16  1  0
 16 17  1  0
 17 18  1  0
 15 19  1  0
 10 20  2  0
 20 21  1  0
  7 22  1  0
 22 23  1  0
 23 24  1  0
 24 25  1  0
 25 26  1  0
  4 27  1  0
 27 28  2  0
 28  1  1  0
 26  7  1  0
 21  8  1  0
 19 12  1  0
 18 16  1  0
  1 29  1  0
  2 30  1  0
  3 31  1  0
  5 32  1  0
  5 33  1  0
 11 34  1  0
 11 35  1  0
 13 36  1  0
 16 37  1  0
 17 38  1  0
 17 39  1  0
 18 40  1  0
 18 41  1  0
 22 42  1  0
 22 43  1  0
 23 44  1  0
 23 45  1  0
 25 46  1  0
 25 47  1  0
 26 48  1  0
 26 49  1  0
 27 50  1  0
 28 51  1  0
M  END
$$$$
OCNT-2311830
     RDKit          3D

 39 41  0  0  0  0  0  0  0  0999 V2000
   -3.2791   -1.6967    0.9793 C   0  0  0  0  0  0  0  0  0  0  0  0
   -1.9287   -1.0098    1.0389 C   0  0  0  0  0  0  0  0  0  0  0  0
   -1.8254    0.1657    0.1540 N   0  0  0  0  0  0  0  0  0  0  0  0
   -2.7526    1.3184    0.3776 C   0  0  0  0  0  0  0  0  0  0  0  0
   -3.8684    1.4301   -0.6458 C   0  0  0  0  0  0  0  0  0  0  0  0
   -4.3941    2.4832   -0.9751 O   0  0  0  0  0  0  0  0  0  0  0  0
   -4.3109    0.2540   -1.1358 O   0  0  0  0  0  0  0  0  0  0  0  0
   -2.1280    2.6106    0.8892 C   0  0  0  0  0  0  0  0  0  0  0  0
   -3.0411    1.8316    1.7801 C   0  0  0  0  0  0  0  0  0  0  0  0
   -1.1992   -0.0265   -1.4097 S   0  0  0  0  0  0  0  0  0  0  0  0
   -1.2867    1.2335   -2.1183 O   0  0  0  0  0  0  0  0  0  0  0  0
   -1.7200   -1.2504   -1.9803 O   0  0  0  0  0  0  0  0  0  0  0  0
    0.5305   -0.2875   -1.0636 C   0  0  0  0  0  0  0  0  0  0  0  0
    1.0886   -1.5609   -1.1891 C   0  0  0  0  0  0  0  0  0  0  0  0
    2.4487   -1.7444   -0.9274 C   0  0  0  0  0  0  0  0  0  0  0  0
    3.2540   -0.6544   -0.5533 C   0  0  0  0  0  0  0  0  0  0  0  0
    4.6339   -0.8643   -0.2930 N   0  0  0  0  0  0  0  0  0  0  0  0
    5.5970    0.0509    0.0678 C   0  0  0  0  0  0  0  0  0  0  0  0
    6.7487   -0.6855    0.1965 C   0  0  0  0  0  0  0  0  0  0  0  0
    6.4854   -1.9920   -0.0740 N   0  0  0  0  0  0  0  0  0  0  0  0
    5.1975   -2.0956   -0.3718 N   0  0  0  0  0  0  0  0  0  0  0  0
    2.6851    0.6240   -0.4466 C   0  0  0  0  0  0  0  0  0  0  0  0
    1.3233    0.8070   -0.7051 C   0  0  0  0  0  0  0  0  0  0  0  0
   -4.0859   -1.0306    1.2991 H   0  0  0  0  0  0  0  0  0  0  0  0
   -3.2858   -2.5660    1.6450 H   0  0  0  0  0  0  0  0  0  0  0  0
   -3.5048   -2.0505   -0.0308 H   0  0  0  0  0  0  0  0  0  0  0  0
   -1.7132   -0.7005    2.0673 H   0  0  0  0  0  0  0  0  0  0  0  0
   -1.1484   -1.7366    0.7895 H   0  0  0  0  0  0  0  0  0  0  0  0
   -4.9834    0.5105   -1.7994 H   0  0  0  0  0  0  0  0  0  0  0  0
   -2.4869    3.5487    0.4798 H   0  0  0  0  0  0  0  0  0  0  0  0
   -1.0700    2.6105    1.1201 H   0  0  0  0  0  0  0  0  0  0  0  0
   -4.0243    2.2456    1.9782 H   0  0  0  0  0  0  0  0  0  0  0  0
   -2.5999    1.3338    2.6332 H   0  0  0  0  0  0  0  0  0  0  0  0
    0.4800   -2.4114   -1.4900 H   0  0  0  0  0  0  0  0  0  0  0  0
    2.8667   -2.7458   -1.0280 H   0  0  0  0  0  0  0  0  0  0  0  0
    5.4011    1.1026    0.1958 H   0  0  0  0  0  0  0  0  0  0  0  0
    7.7398   -0.3495    0.4656 H   0  0  0  0  0  0  0  0  0  0  0  0
    3.2699    1.4968   -0.1706 H   0  0  0  0  0  0  0  0  0  0  0  0
    0.8870    1.8016   -0.6330 H   0  0  0  0  0  0  0  0  0  0  0  0
  1  2  1  0
  2  3  1  0
  3  4  1  0
  4  5  1  0
  5  6  2  0
  5  7  1  0
  4  8  1  0
  8  9  1  0
  3 10  1  0
 10 11  2  0
 10 12  2  0
 10 13  1  0
 13 14  1  0
 14 15  2  0
 15 16  1  0
 16 17  1  0
 17 18  1  0
 18 19  2  0
 19 20  1  0
 20 21  2  0
 16 22  2  0
 22 23  1  0
  9  4  1  0
 23 13  2  0
 21 17  1  0
  1 24  1  0
  1 25  1  0
  1 26  1  0
  2 27  1  0
  2 28  1  0
  7 29  1  0
  8 30  1  0
  8 31  1  0
  9 32  1  0
  9 33  1  0
 14 34  1  0
 15 35  1  0
 18 36  1  0
 19 37  1  0
 22 38  1  0
 23 39  1  0
M  END
$$$$
OCNT-2311839
     RDKit          3D

 50 54  0  0  0  0  0  0  0  0999 V2000
   -4.2903   -5.6530    0.3944 C   0  0  0  0  0  0  0  0  0  0  0  0
   -3.4558   -4.4433    0.0902 C   0  0  0  0  0  0  0  0  0  0  0  0
   -2.1931   -4.5818   -0.4851 C   0  0  0  0  0  0  0  0  0  0  0  0
   -1.4013   -3.4600   -0.7400 C   0  0  0  0  0  0  0  0  0  0  0  0
   -1.8508   -2.1759   -0.4153 C   0  0  0  0  0  0  0  0  0  0  0  0
   -1.0680   -1.0186   -0.6573 N   0  0  0  0  0  0  0  0  0  0  0  0
    0.1645   -0.9121   -1.2740 C   0  0  0  0  0  0  0  0  0  0  0  0
    0.8068   -1.8379   -1.7622 O   0  0  0  0  0  0  0  0  0  0  0  0
    0.6716    0.5087   -1.3420 C   0  0  0  0  0  0  0  0  0  0  0  0
    1.9103    0.6415   -0.6174 N   0  0  0  0  0  0  0  0  0  0  0  0
    1.9537    0.5184    0.7203 N   0  0  0  0  0  0  0  0  0  0  0  0
    3.1893    0.8625    1.0491 N   0  0  0  0  0  0  0  0  0  0  0  0
    3.8257    1.2376   -0.1131 C   0  0  0  0  0  0  0  0  0  0  0  0
    5.2081    1.6963   -0.1449 C   0  0  0  0  0  0  0  0  0  0  0  0
    5.9713    1.7361    1.0315 C   0  0  0  0  0  0  0  0  0  0  0  0
    7.2994    2.1703    1.0041 C   0  0  0  0  0  0  0  0  0  0  0  0
    7.8782    2.5717   -0.1981 C   0  0  0  0  0  0  0  0  0  0  0  0
    7.1300    2.5419   -1.3738 C   0  0  0  0  0  0  0  0  0  0  0  0
    5.8033    2.1050   -1.3481 C   0  0  0  0  0  0  0  0  0  0  0  0
    3.0192    1.1540   -1.1870 N   0  0  0  0  0  0  0  0  0  0  0  0
   -3.1294   -2.0152    0.1847 C   0  0  0  0  0  0  0  0  0  0  0  0
   -3.6355   -0.6751    0.5389 C   0  0  0  0  0  0  0  0  0  0  0  0
   -2.9746    0.4683    0.4339 N   0  0  0  0  0  0  0  0  0  0  0  0
   -3.8624    1.4087    0.8871 C   0  0  0  0  0  0  0  0  0  0  0  0
   -3.5199    2.9224    0.9680 C   0  0  0  0  0  0  0  0  0  0  0  0
   -2.0918    3.3487    1.1985 C   0  0  0  0  0  0  0  0  0  0  0  0
   -2.7283    3.5611   -0.1458 C   0  0  0  0  0  0  0  0  0  0  0  0
   -5.0518    0.9241    1.2457 N   0  0  0  0  0  0  0  0  0  0  0  0
   -4.8848   -0.3886    1.0237 N   0  0  0  0  0  0  0  0  0  0  0  0
   -3.9099   -3.1622    0.4330 C   0  0  0  0  0  0  0  0  0  0  0  0
   -4.1501   -5.9516    1.4381 H   0  0  0  0  0  0  0  0  0  0  0  0
   -4.0160   -6.4940   -0.2509 H   0  0  0  0  0  0  0  0  0  0  0  0
   -5.3513   -5.4434    0.2219 H   0  0  0  0  0  0  0  0  0  0  0  0
   -1.8062   -5.5665   -0.7417 H   0  0  0  0  0  0  0  0  0  0  0  0
   -0.4258   -3.6287   -1.1862 H   0  0  0  0  0  0  0  0  0  0  0  0
   -1.5025   -0.1580   -0.3157 H   0  0  0  0  0  0  0  0  0  0  0  0
   -0.0359    1.2286   -0.9182 H   0  0  0  0  0  0  0  0  0  0  0  0
    0.8392    0.7723   -2.3914 H   0  0  0  0  0  0  0  0  0  0  0  0
    5.5394    1.4239    1.9807 H   0  0  0  0  0  0  0  0  0  0  0  0
    7.8825    2.1907    1.9219 H   0  0  0  0  0  0  0  0  0  0  0  0
    8.9119    2.9074   -0.2199 H   0  0  0  0  0  0  0  0  0  0  0  0
    7.5793    2.8541   -2.3131 H   0  0  0  0  0  0  0  0  0  0  0  0
    5.2364    2.0822   -2.2770 H   0  0  0  0  0  0  0  0  0  0  0  0
   -4.2939    3.5237    1.4293 H   0  0  0  0  0  0  0  0  0  0  0  0
   -1.3319    2.5813    1.2936 H   0  0  0  0  0  0  0  0  0  0  0  0
   -1.9225    4.2150    1.8257 H   0  0  0  0  0  0  0  0  0  0  0  0
   -2.9900    4.5732   -0.4318 H   0  0  0  0  0  0  0  0  0  0  0  0
   -2.4044    2.9377   -0.9700 H   0  0  0  0  0  0  0  0  0  0  0  0
   -5.6541   -1.0174    1.2190 H   0  0  0  0  0  0  0  0  0  0  0  0
   -4.8874   -3.0840    0.9021 H   0  0  0  0  0  0  0  0  0  0  0  0
  1  2  1  0
  2  3  1  0
  3  4  2  0
  4  5  1  0
  5  6  1  0
  6  7  1  0
  7  8  2  0
  7  9  1  0
  9 10  1  0
 10 11  1  0
 11 12  2  0
 12 13  1  0
 13 14  1  0
 14 15  2  0
 15 16  1  0
 16 17  2  0
 17 18  1  0
 18 19  2  0
 13 20  2  0
  5 21  2  0
 21 22  1  0
 22 23  2  0
 23 24  1  0
 24 25  1  0
 25 26  1  0
 26 27  1  0
 24 28  2  0
 28 29  1  0
 21 30  1  0
 30  2  2  0
 20 10  1  0
 29 22  1  0
 19 14  1  0
 27 25  1  0
  1 31  1  0
  1 32  1  0
  1 33  1  0
  3 34  1  0
  4 35  1  0
  6 36  1  0
  9 37  1  0
  9 38  1  0
 15 39  1  0
 16 40  1  0
 17 41  1  0
 18 42  1  0
 19 43  1  0
 25 44  1  0
 26 45  1  0
 26 46  1  0
 27 47  1  0
 27 48  1  0
 29 49  1  0
 30 50  1  0
M  END
$$$$
OCNT-2311855
     RDKit          3D

 39 40  0  0  0  0  0  0  0  0999 V2000
    2.8715    1.1890    2.4300 C   0  0  0  0  0  0  0  0  0  0  0  0
    3.3033    0.5506    1.1219 C   0  0  0  0  0  0  0  0  0  0  0  0
    2.1378   -0.0065    0.4969 O   0  0  0  0  0  0  0  0  0  0  0  0
    2.3726   -0.3104   -0.8128 C   0  0  0  0  0  0  0  0  0  0  0  0
    3.2058   -1.3703   -1.1606 C   0  0  0  0  0  0  0  0  0  0  0  0
    3.3620   -1.7069   -2.5054 C   0  0  0  0  0  0  0  0  0  0  0  0
    2.6613   -0.9833   -3.4600 C   0  0  0  0  0  0  0  0  0  0  0  0
    1.8284    0.0341   -3.1622 N   0  0  0  0  0  0  0  0  0  0  0  0
    1.7105    0.3455   -1.8424 C   0  0  0  0  0  0  0  0  0  0  0  0
    0.6108    1.7119   -1.4828 S   0  0  0  0  0  0  0  0  0  0  0  0
   -0.1283    2.0644   -2.6771 O   0  0  0  0  0  0  0  0  0  0  0  0
    1.3725    2.6976   -0.7430 O   0  0  0  0  0  0  0  0  0  0  0  0
   -0.5083    1.0404   -0.3945 N   0  0  0  0  0  0  0  0  0  0  0  0
   -1.3883    0.0068   -0.9371 C   0  0  0  0  0  0  0  0  0  0  0  0
   -2.3220   -0.5080    0.1420 C   0  0  0  0  0  0  0  0  0  0  0  0
   -2.1735   -1.8376    0.5872 C   0  0  0  0  0  0  0  0  0  0  0  0
   -2.9903   -2.3489    1.5953 C   0  0  0  0  0  0  0  0  0  0  0  0
   -3.9562   -1.5365    2.1690 C   0  0  0  0  0  0  0  0  0  0  0  0
   -4.7370   -2.0249    3.1413 F   0  0  0  0  0  0  0  0  0  0  0  0
   -4.1242   -0.2216    1.7516 C   0  0  0  0  0  0  0  0  0  0  0  0
   -3.3160    0.3148    0.7301 C   0  0  0  0  0  0  0  0  0  0  0  0
   -3.5218    1.7644    0.3304 C   0  0  0  0  0  0  0  0  0  0  0  0
   -2.6050    2.6000    0.8870 F   0  0  0  0  0  0  0  0  0  0  0  0
   -4.7371    2.2459    0.7269 F   0  0  0  0  0  0  0  0  0  0  0  0
   -3.4829    1.9671   -1.0132 F   0  0  0  0  0  0  0  0  0  0  0  0
    3.7326    1.6073    2.9589 H   0  0  0  0  0  0  0  0  0  0  0  0
    2.3822    0.4553    3.0783 H   0  0  0  0  0  0  0  0  0  0  0  0
    2.1464    1.9880    2.2443 H   0  0  0  0  0  0  0  0  0  0  0  0
    3.7652    1.3135    0.4822 H   0  0  0  0  0  0  0  0  0  0  0  0
    4.0313   -0.2430    1.3266 H   0  0  0  0  0  0  0  0  0  0  0  0
    3.7217   -1.9463   -0.3978 H   0  0  0  0  0  0  0  0  0  0  0  0
    4.0105   -2.5247   -2.8030 H   0  0  0  0  0  0  0  0  0  0  0  0
    2.7521   -1.2162   -4.5183 H   0  0  0  0  0  0  0  0  0  0  0  0
   -0.0377    0.8065    0.4822 H   0  0  0  0  0  0  0  0  0  0  0  0
   -0.7867   -0.8264   -1.3180 H   0  0  0  0  0  0  0  0  0  0  0  0
   -1.9799    0.3841   -1.7763 H   0  0  0  0  0  0  0  0  0  0  0  0
   -1.4143   -2.4864    0.1517 H   0  0  0  0  0  0  0  0  0  0  0  0
   -2.8767   -3.3730    1.9395 H   0  0  0  0  0  0  0  0  0  0  0  0
   -4.8927    0.3834    2.2312 H   0  0  0  0  0  0  0  0  0  0  0  0
  1  2  1  0
  2  3  1  0
  3  4  1  0
  4  5  1  0
  5  6  2  0
  6  7  1  0
  7  8  2  0
  8  9  1  0
  9 10  1  0
 10 11  2  0
 10 12  2  0
 10 13  1  0
 13 14  1  0
 14 15  1  0
 15 16  1  0
 16 17  2  0
 17 18  1  0
 18 19  1  0
 18 20  2  0
 20 21  1  0
 21 22  1  0
 22 23  1  0
 22 24  1  0
 22 25  1  0
  9  4  2  0
 21 15  2  0
  1 26  1  0
  1 27  1  0
  1 28  1  0
  2 29  1  0
  2 30  1  0
  5 31  1  0
  6 32  1  0
  7 33  1  0
 13 34  1  0
 14 35  1  0
 14 36  1  0
 16 37  1  0
 17 38  1  0
 20 39  1  0
M  END
$$$$
OCNT-2311870
     RDKit          3D

 45 47  0  0  0  0  0  0  0  0999 V2000
   -5.6412    1.8275   -2.4542 C   0  0  0  0  0  0  0  0  0  0  0  0
   -4.2608    1.8993   -2.1207 O   0  0  0  0  0  0  0  0  0  0  0  0
   -3.8250    1.0844   -1.1131 C   0  0  0  0  0  0  0  0  0  0  0  0
   -4.6125    0.2099   -0.3693 C   0  0  0  0  0  0  0  0  0  0  0  0
   -4.0322   -0.5796    0.6278 C   0  0  0  0  0  0  0  0  0  0  0  0
   -2.6567   -0.5113    0.8930 C   0  0  0  0  0  0  0  0  0  0  0  0
   -2.0851   -1.3652    1.9976 C   0  0  0  0  0  0  0  0  0  0  0  0
   -0.5651   -1.4877    1.9386 C   0  0  0  0  0  0  0  0  0  0  0  0
    0.0691   -0.1174    1.7275 C   0  0  0  0  0  0  0  0  0  0  0  0
   -0.3648    0.5048    0.3905 C   0  0  1  0  0  0  0  0  0  0  0  0
    0.3542   -0.1567   -0.6988 N   0  0  0  0  0  0  0  0  0  0  0  0
    1.5399    0.6234   -1.5583 S   0  0  0  0  0  0  0  0  0  0  0  0
    1.8678   -0.2007   -2.7020 O   0  0  0  0  0  0  0  0  0  0  0  0
    1.1532    2.0082   -1.7176 O   0  0  0  0  0  0  0  0  0  0  0  0
    2.9334    0.5544   -0.4693 C   0  0  0  0  0  0  0  0  0  0  0  0
    3.4520    1.7476    0.0438 C   0  0  0  0  0  0  0  0  0  0  0  0
    4.5513    1.6966    0.8908 C   0  0  0  0  0  0  0  0  0  0  0  0
    5.0485    2.8337    1.3925 F   0  0  0  0  0  0  0  0  0  0  0  0
    5.1396    0.4844    1.2338 C   0  0  0  0  0  0  0  0  0  0  0  0
    4.6242   -0.7047    0.7167 C   0  0  0  0  0  0  0  0  0  0  0  0
    3.5316   -0.6723   -0.1554 C   0  0  0  0  0  0  0  0  0  0  0  0
    2.9956   -1.8540   -0.5864 O   0  0  0  0  0  0  0  0  0  0  0  0
    3.7841   -2.4387   -1.6225 C   0  0  0  0  0  0  0  0  0  0  0  0
    4.8963   -2.9843   -1.0662 F   0  0  0  0  0  0  0  0  0  0  0  0
    3.0688   -3.4701   -2.1369 F   0  0  0  0  0  0  0  0  0  0  0  0
   -1.8596    0.3886    0.1636 C   0  0  0  0  0  0  0  0  0  0  0  0
   -2.4572    1.1695   -0.8418 C   0  0  0  0  0  0  0  0  0  0  0  0
   -6.2666    2.1516   -1.6156 H   0  0  0  0  0  0  0  0  0  0  0  0
   -5.9168    0.8218   -2.7880 H   0  0  0  0  0  0  0  0  0  0  0  0
   -5.8197    2.5137   -3.2878 H   0  0  0  0  0  0  0  0  0  0  0  0
   -5.6800    0.1154   -0.5369 H   0  0  0  0  0  0  0  0  0  0  0  0
   -4.6659   -1.2548    1.1993 H   0  0  0  0  0  0  0  0  0  0  0  0
   -2.3763   -0.9184    2.9565 H   0  0  0  0  0  0  0  0  0  0  0  0
   -2.5209   -2.3703    1.9554 H   0  0  0  0  0  0  0  0  0  0  0  0
   -0.1976   -1.9323    2.8713 H   0  0  0  0  0  0  0  0  0  0  0  0
   -0.2739   -2.1648    1.1271 H   0  0  0  0  0  0  0  0  0  0  0  0
    1.1596   -0.2034    1.7847 H   0  0  0  0  0  0  0  0  0  0  0  0
   -0.2372    0.5435    2.5499 H   0  0  0  0  0  0  0  0  0  0  0  0
   -0.1047    1.5690    0.4360 H   0  0  0  0  0  0  0  0  0  0  0  0
   -0.0376   -1.0005   -1.1142 H   0  0  0  0  0  0  0  0  0  0  0  0
    3.0158    2.7127   -0.2010 H   0  0  0  0  0  0  0  0  0  0  0  0
    5.9895    0.4726    1.9088 H   0  0  0  0  0  0  0  0  0  0  0  0
    5.0691   -1.6537    1.0075 H   0  0  0  0  0  0  0  0  0  0  0  0
    4.0598   -1.7449   -2.4241 H   0  0  0  0  0  0  0  0  0  0  0  0
   -1.8463    1.8536   -1.4301 H   0  0  0  0  0  0  0  0  0  0  0  0
  1  2  1  0
  2  3  1  0
  3  4  1  0
  4  5  2  0
  5  6  1  0
  6  7  1  0
  7  8  1  0
  8  9  1  0
  9 10  1  0
 10 11  1  0
 11 12  1  0
 12 13  2  0
 12 14  2  0
 12 15  1  0
 15 16  1  0
 16 17  2  0
 17 18  1  0
 17 19  1  0
 19 20  2  0
 20 21  1  0
 21 22  1  0
 22 23  1  0
 23 24  1  0
 23 25  1  0
 10 26  1  0
 26 27  1  0
 27  3  2  0
 26  6  2  0
 21 15  2  0
  1 28  1  0
  1 29  1  0
  1 30  1  0
  4 31  1  0
  5 32  1  0
  7 33  1  0
  7 34  1  0
  8 35  1  0
  8 36  1  0
  9 37  1  0
  9 38  1  0
 10 39  1  1
 11 40  1  0
 16 41  1  0
 19 42  1  0
 20 43  1  0
 23 44  1  0
 27 45  1  0
M  END
$$$$
OCNT-2311873
     RDKit          3D

 39 42  0  0  0  0  0  0  0  0999 V2000
   -0.1291    2.1766    1.3295 O   0  0  0  0  0  0  0  0  0  0  0  0
   -0.4426    1.1259    0.7639 C   0  0  0  0  0  0  0  0  0  0  0  0
    0.5808    0.3929   -0.0031 C   0  0  0  0  0  0  0  0  0  0  0  0
    0.4208   -0.0673   -1.2985 C   0  0  0  0  0  0  0  0  0  0  0  0
    1.8575   -0.8121   -1.8478 S   0  0  0  0  0  0  0  0  0  0  0  0
    2.6344   -0.4345   -0.3555 C   0  0  0  0  0  0  0  0  0  0  0  0
    4.0333   -0.8018   -0.0839 C   0  0  0  0  0  0  0  0  0  0  0  0
    4.8745   -1.4590   -0.9913 C   0  0  0  0  0  0  0  0  0  0  0  0
    6.1897   -1.7666   -0.6377 C   0  0  0  0  0  0  0  0  0  0  0  0
    6.6355   -1.4088    0.6223 C   0  0  0  0  0  0  0  0  0  0  0  0
    5.8671   -0.7769    1.5304 N   0  0  0  0  0  0  0  0  0  0  0  0
    4.5928   -0.4887    1.1558 C   0  0  0  0  0  0  0  0  0  0  0  0
    1.8682    0.2076    0.5042 N   0  0  0  0  0  0  0  0  0  0  0  0
   -1.7676    0.6838    0.7355 N   0  0  0  0  0  0  0  0  0  0  0  0
   -2.8177    1.6460    1.0413 C   0  0  0  0  0  0  0  0  0  0  0  0
   -3.3643    2.2381   -0.2291 C   0  0  0  0  0  0  0  0  0  0  0  0
   -2.6274    3.3410   -0.9475 C   0  0  0  0  0  0  0  0  0  0  0  0
   -3.9198    3.6399   -0.2387 C   0  0  0  0  0  0  0  0  0  0  0  0
   -2.1491   -0.6694    0.5967 C   0  0  0  0  0  0  0  0  0  0  0  0
   -3.4578   -0.9457    0.4398 N   0  0  0  0  0  0  0  0  0  0  0  0
   -3.8185   -2.2401    0.3428 C   0  0  0  0  0  0  0  0  0  0  0  0
   -2.9277   -3.2797    0.3998 C   0  0  0  0  0  0  0  0  0  0  0  0
   -1.6188   -2.9113    0.5658 C   0  0  0  0  0  0  0  0  0  0  0  0
   -1.2156   -1.6302    0.6644 N   0  0  0  0  0  0  0  0  0  0  0  0
   -0.4557   -0.0077   -1.9272 H   0  0  0  0  0  0  0  0  0  0  0  0
    4.5316   -1.7416   -1.9824 H   0  0  0  0  0  0  0  0  0  0  0  0
    6.8501   -2.2736   -1.3325 H   0  0  0  0  0  0  0  0  0  0  0  0
    7.6502   -1.6263    0.9429 H   0  0  0  0  0  0  0  0  0  0  0  0
    4.0094    0.0250    1.9185 H   0  0  0  0  0  0  0  0  0  0  0  0
   -2.4202    2.4409    1.6835 H   0  0  0  0  0  0  0  0  0  0  0  0
   -3.6223    1.1782    1.6211 H   0  0  0  0  0  0  0  0  0  0  0  0
   -3.8841    1.5000   -0.8305 H   0  0  0  0  0  0  0  0  0  0  0  0
   -2.6316    3.3327   -2.0314 H   0  0  0  0  0  0  0  0  0  0  0  0
   -1.7131    3.7306   -0.5118 H   0  0  0  0  0  0  0  0  0  0  0  0
   -3.8709    4.2295    0.6701 H   0  0  0  0  0  0  0  0  0  0  0  0
   -4.7976    3.8341   -0.8447 H   0  0  0  0  0  0  0  0  0  0  0  0
   -4.8829   -2.4167    0.2167 H   0  0  0  0  0  0  0  0  0  0  0  0
   -3.2347   -4.3129    0.3239 H   0  0  0  0  0  0  0  0  0  0  0  0
   -0.8265   -3.6517    0.6293 H   0  0  0  0  0  0  0  0  0  0  0  0
  1  2  2  0
  2  3  1  0
  3  4  2  0
  4  5  1  0
  5  6  1  0
  6  7  1  0
  7  8  1  0
  8  9  2  0
  9 10  1  0
 10 11  2  0
 11 12  1  0
  6 13  2  0
  2 14  1  0
 14 15  1  0
 15 16  1  0
 16 17  1  0
 17 18  1  0
 14 19  1  0
 19 20  2  0
 20 21  1  0
 21 22  2  0
 22 23  1  0
 23 24  2  0
 13  3  1  0
 18 16  1  0
 24 19  1  0
 12  7  2  0
  4 25  1  0
  8 26  1  0
  9 27  1  0
 10 28  1  0
 12 29  1  0
 15 30  1  0
 15 31  1  0
 16 32  1  0
 17 33  1  0
 17 34  1  0
 18 35  1  0
 18 36  1  0
 21 37  1  0
 22 38  1  0
 23 39  1  0
M  END
$$$$
OCNT-2311889
     RDKit          3D

 38 40  0  0  0  0  0  0  0  0999 V2000
   -0.6421   -1.9088    2.4814 C   0  0  0  0  0  0  0  0  0  0  0  0
   -0.6391   -0.4423    2.0404 C   0  0  0  0  0  0  0  0  0  0  0  0
    0.5528   -0.1257    1.2753 N   0  0  0  0  0  0  0  0  0  0  0  0
    1.7739    0.0887    1.8606 C   0  0  0  0  0  0  0  0  0  0  0  0
    1.9423    0.0801    3.0774 O   0  0  0  0  0  0  0  0  0  0  0  0
    2.9111    0.3375    0.9166 C   0  0  0  0  0  0  0  0  0  0  0  0
    4.1361    0.5897    1.4350 C   0  0  0  0  0  0  0  0  0  0  0  0
    5.2966    0.8409    0.5891 C   0  0  0  0  0  0  0  0  0  0  0  0
    5.1439    0.8198   -0.7455 C   0  0  0  0  0  0  0  0  0  0  0  0
    3.8836    0.5589   -1.2712 N   0  0  0  0  0  0  0  0  0  0  0  0
    3.4537    0.4779   -2.5654 C   0  0  0  0  0  0  0  0  0  0  0  0
    2.1680    0.2067   -2.5979 N   0  0  0  0  0  0  0  0  0  0  0  0
    1.7273    0.1030   -1.2981 N   0  0  0  0  0  0  0  0  0  0  0  0
    2.7568    0.3159   -0.5013 C   0  0  0  0  0  0  0  0  0  0  0  0
   -1.8743   -0.0800    1.2359 C   0  0  0  0  0  0  0  0  0  0  0  0
   -2.6666    1.0098    1.6229 C   0  0  0  0  0  0  0  0  0  0  0  0
   -3.7988    1.3617    0.8868 C   0  0  0  0  0  0  0  0  0  0  0  0
   -4.1479    0.6412   -0.2567 C   0  0  0  0  0  0  0  0  0  0  0  0
   -3.3558   -0.4278   -0.6740 C   0  0  0  0  0  0  0  0  0  0  0  0
   -3.5972   -1.2082   -1.7703 O   0  0  0  0  0  0  0  0  0  0  0  0
   -4.2610   -0.5570   -2.8407 C   0  0  0  0  0  0  0  0  0  0  0  0
   -4.1248   -1.3425   -3.9399 F   0  0  0  0  0  0  0  0  0  0  0  0
   -5.5896   -0.5013   -2.5718 F   0  0  0  0  0  0  0  0  0  0  0  0
   -2.2355   -0.7917    0.0791 C   0  0  0  0  0  0  0  0  0  0  0  0
    0.2053   -2.1183    3.1432 H   0  0  0  0  0  0  0  0  0  0  0  0
   -0.5591   -2.5933    1.6301 H   0  0  0  0  0  0  0  0  0  0  0  0
   -1.5612   -2.1537    3.0250 H   0  0  0  0  0  0  0  0  0  0  0  0
   -0.6150    0.1682    2.9525 H   0  0  0  0  0  0  0  0  0  0  0  0
    0.4852   -0.1380    0.2601 H   0  0  0  0  0  0  0  0  0  0  0  0
    4.2968    0.6135    2.5112 H   0  0  0  0  0  0  0  0  0  0  0  0
    6.2550    1.0383    1.0593 H   0  0  0  0  0  0  0  0  0  0  0  0
    5.9558    0.9960   -1.4400 H   0  0  0  0  0  0  0  0  0  0  0  0
    4.0986    0.6202   -3.4200 H   0  0  0  0  0  0  0  0  0  0  0  0
   -2.4094    1.5906    2.5067 H   0  0  0  0  0  0  0  0  0  0  0  0
   -4.4151    2.1973    1.2101 H   0  0  0  0  0  0  0  0  0  0  0  0
   -5.0535    0.9253   -0.7843 H   0  0  0  0  0  0  0  0  0  0  0  0
   -3.8657    0.4400   -3.0664 H   0  0  0  0  0  0  0  0  0  0  0  0
   -1.6311   -1.6326   -0.2565 H   0  0  0  0  0  0  0  0  0  0  0  0
  1  2  1  0
  2  3  1  0
  3  4  1  0
  4  5  2  0
  4  6  1  0
  6  7  2  0
  7  8  1  0
  8  9  2  0
  9 10  1  0
 10 11  1  0
 11 12  2  0
 12 13  1  0
 13 14  2  0
  2 15  1  0
 15 16  2  0
 16 17  1  0
 17 18  2  0
 18 19  1  0
 19 20  1  0
 20 21  1  0
 21 22  1  0
 21 23  1  0
 19 24  2  0
 14  6  1  0
 24 15  1  0
 14 10  1  0
  1 25  1  0
  1 26  1  0
  1 27  1  0
  2 28  1  0
  3 29  1  0
  7 30  1  0
  8 31  1  0
  9 32  1  0
 11 33  1  0
 16 34  1  0
 17 35  1  0
 18 36  1  0
 21 37  1  0
 24 38  1  0
M  END
$$$$
OCNT-2311892
     RDKit          3D

 34 36  0  0  0  0  0  0  0  0999 V2000
   -1.1377   -1.6655    1.9598 C   0  0  0  0  0  0  0  0  0  0  0  0
   -1.3427   -1.3497    0.4807 C   0  0  0  0  0  0  0  0  0  0  0  0
   -1.6780    0.0322    0.3105 O   0  0  0  0  0  0  0  0  0  0  0  0
   -2.9871    0.4182    0.3692 C   0  0  0  0  0  0  0  0  0  0  0  0
   -4.0782   -0.3882    0.6965 C   0  0  0  0  0  0  0  0  0  0  0  0
   -5.3697    0.1499    0.7208 C   0  0  0  0  0  0  0  0  0  0  0  0
   -5.5770    1.4954    0.4213 C   0  0  0  0  0  0  0  0  0  0  0  0
   -4.4882    2.3002    0.0995 C   0  0  0  0  0  0  0  0  0  0  0  0
   -4.7585    4.1270   -0.3045 Br  0  0  0  0  0  0  0  0  0  0  0  0
   -3.1997    1.7684    0.0738 C   0  0  0  0  0  0  0  0  0  0  0  0
   -0.0748   -1.5806   -0.2748 C   0  0  0  0  0  0  0  0  0  0  0  0
    0.2283   -2.5548   -1.1070 N   0  0  0  0  0  0  0  0  0  0  0  0
    1.5238   -2.3219   -1.5182 N   0  0  0  0  0  0  0  0  0  0  0  0
    1.9300   -1.2235   -0.9097 C   0  0  0  0  0  0  0  0  0  0  0  0
    3.3298   -0.6019   -1.0928 C   0  0  0  0  0  0  0  0  0  0  0  0
    3.8057    0.5366   -0.4866 C   0  0  0  0  0  0  0  0  0  0  0  0
    5.0797    0.6916   -0.9518 N   0  0  0  0  0  0  0  0  0  0  0  0
    6.0060    1.7455   -0.6151 C   0  0  0  0  0  0  0  0  0  0  0  0
    5.4588   -0.2722   -1.8144 N   0  0  0  0  0  0  0  0  0  0  0  0
    4.3820   -1.0612   -1.8993 C   0  0  0  0  0  0  0  0  0  0  0  0
    0.9603   -0.7019   -0.0886 O   0  0  0  0  0  0  0  0  0  0  0  0
   -0.3836   -1.0053    2.4044 H   0  0  0  0  0  0  0  0  0  0  0  0
   -2.0593   -1.5113    2.5295 H   0  0  0  0  0  0  0  0  0  0  0  0
   -0.8135   -2.7015    2.1045 H   0  0  0  0  0  0  0  0  0  0  0  0
   -2.1015   -2.0061    0.0392 H   0  0  0  0  0  0  0  0  0  0  0  0
   -3.9696   -1.4383    0.9459 H   0  0  0  0  0  0  0  0  0  0  0  0
   -6.2162   -0.4836    0.9757 H   0  0  0  0  0  0  0  0  0  0  0  0
   -6.5839    1.9037    0.4427 H   0  0  0  0  0  0  0  0  0  0  0  0
   -2.3510    2.3993   -0.1786 H   0  0  0  0  0  0  0  0  0  0  0  0
    3.3573    1.2283    0.2125 H   0  0  0  0  0  0  0  0  0  0  0  0
    5.5343    2.4316    0.0926 H   0  0  0  0  0  0  0  0  0  0  0  0
    6.8924    1.2936   -0.1630 H   0  0  0  0  0  0  0  0  0  0  0  0
    6.2699    2.2780   -1.5322 H   0  0  0  0  0  0  0  0  0  0  0  0
    4.4120   -1.9322   -2.5419 H   0  0  0  0  0  0  0  0  0  0  0  0
  1  2  1  0
  2  3  1  0
  3  4  1  0
  4  5  2  0
  5  6  1  0
  6  7  2  0
  7  8  1  0
  8  9  1  0
  8 10  2  0
  2 11  1  0
 11 12  2  0
 12 13  1  0
 13 14  2  0
 14 15  1  0
 15 16  2  0
 16 17  1  0
 17 18  1  0
 17 19  1  0
 19 20  2  0
 14 21  1  0
 10  4  1  0
 21 11  1  0
 20 15  1  0
  1 22  1  0
  1 23  1  0
  1 24  1  0
  2 25  1  0
  5 26  1  0
  6 27  1  0
  7 28  1  0
 10 29  1  0
 16 30  1  0
 18 31  1  0
 18 32  1  0
 18 33  1  0
 20 34  1  0
M  END
$$$$
OCNT-2311897
     RDKit          3D

 49 50  0  0  0  0  0  0  0  0999 V2000
    7.0432   -2.7204   -1.8282 C   0  0  0  0  0  0  0  0  0  0  0  0
    5.9218   -2.3599   -1.0299 O   0  0  0  0  0  0  0  0  0  0  0  0
    5.6419   -1.0266   -0.9396 C   0  0  0  0  0  0  0  0  0  0  0  0
    6.3052    0.0154   -1.5762 C   0  0  0  0  0  0  0  0  0  0  0  0
    5.9786    1.3249   -1.4394 N   0  0  0  0  0  0  0  0  0  0  0  0
    4.9387    1.6074   -0.6252 C   0  0  0  0  0  0  0  0  0  0  0  0
    4.1988    0.6456    0.0572 C   0  0  0  0  0  0  0  0  0  0  0  0
    3.0359    1.0302    0.9301 C   0  0  0  0  0  0  0  0  0  0  0  0
    1.7929    1.3564    0.1055 C   0  0  0  0  0  0  0  0  0  0  0  0
    0.6323    1.7343    0.9911 C   0  0  0  0  0  0  0  0  0  0  0  0
    0.6230    1.6689    2.2117 O   0  0  0  0  0  0  0  0  0  0  0  0
   -0.4091    2.1502    0.2154 O   0  0  0  0  0  0  0  0  0  0  0  0
   -1.6031    2.5366    0.9112 C   0  0  0  0  0  0  0  0  0  0  0  0
   -2.5105    1.3341    1.2013 C   0  0  0  0  0  0  0  0  0  0  0  0
   -3.2806    0.6831   -0.0003 C   0  0  0  0  0  0  0  0  0  0  0  0
   -2.2752    0.2059   -1.0726 C   0  0  0  0  0  0  0  0  0  0  0  0
   -4.2171    1.7441   -0.6276 C   0  0  0  0  0  0  0  0  0  0  0  0
   -4.1429   -0.5303    0.4436 C   0  0  0  0  0  0  0  0  0  0  0  0
   -4.9161   -1.2343   -0.5025 C   0  0  0  0  0  0  0  0  0  0  0  0
   -5.7007   -2.3335   -0.1400 C   0  0  0  0  0  0  0  0  0  0  0  0
   -5.7359   -2.7588    1.1817 C   0  0  0  0  0  0  0  0  0  0  0  0
   -4.9873   -2.0843    2.1375 C   0  0  0  0  0  0  0  0  0  0  0  0
   -4.2019   -0.9839    1.7733 C   0  0  0  0  0  0  0  0  0  0  0  0
    4.5680   -0.6932   -0.1155 C   0  0  0  0  0  0  0  0  0  0  0  0
    6.8786   -2.4566   -2.8780 H   0  0  0  0  0  0  0  0  0  0  0  0
    7.1595   -3.8070   -1.7707 H   0  0  0  0  0  0  0  0  0  0  0  0
    7.9643   -2.2664   -1.4459 H   0  0  0  0  0  0  0  0  0  0  0  0
    7.1463   -0.1514   -2.2399 H   0  0  0  0  0  0  0  0  0  0  0  0
    4.7087    2.6674   -0.5367 H   0  0  0  0  0  0  0  0  0  0  0  0
    3.3211    1.8915    1.5499 H   0  0  0  0  0  0  0  0  0  0  0  0
    2.8191    0.2180    1.6366 H   0  0  0  0  0  0  0  0  0  0  0  0
    1.9993    2.1978   -0.5650 H   0  0  0  0  0  0  0  0  0  0  0  0
    1.4962    0.4914   -0.4974 H   0  0  0  0  0  0  0  0  0  0  0  0
   -2.1091    3.2900    0.3020 H   0  0  0  0  0  0  0  0  0  0  0  0
   -1.3421    3.0412    1.8504 H   0  0  0  0  0  0  0  0  0  0  0  0
   -3.2473    1.6687    1.9439 H   0  0  0  0  0  0  0  0  0  0  0  0
   -1.8934    0.5626    1.6803 H   0  0  0  0  0  0  0  0  0  0  0  0
   -1.7279    1.0428   -1.5168 H   0  0  0  0  0  0  0  0  0  0  0  0
   -1.5479   -0.4939   -0.6460 H   0  0  0  0  0  0  0  0  0  0  0  0
   -2.7639   -0.3052   -1.9082 H   0  0  0  0  0  0  0  0  0  0  0  0
   -4.9342    2.1205    0.1112 H   0  0  0  0  0  0  0  0  0  0  0  0
   -3.6593    2.5990   -1.0224 H   0  0  0  0  0  0  0  0  0  0  0  0
   -4.7952    1.3458   -1.4688 H   0  0  0  0  0  0  0  0  0  0  0  0
   -4.9186   -0.9364   -1.5486 H   0  0  0  0  0  0  0  0  0  0  0  0
   -6.2830   -2.8541   -0.8941 H   0  0  0  0  0  0  0  0  0  0  0  0
   -6.3438   -3.6116    1.4664 H   0  0  0  0  0  0  0  0  0  0  0  0
   -5.0103   -2.4117    3.1738 H   0  0  0  0  0  0  0  0  0  0  0  0
   -3.6409   -0.5008    2.5672 H   0  0  0  0  0  0  0  0  0  0  0  0
    4.0239   -1.4868    0.3942 H   0  0  0  0  0  0  0  0  0  0  0  0
  1  2  1  0
  2  3  1  0
  3  4  1  0
  4  5  2  0
  5  6  1  0
  6  7  2  0
  7  8  1  0
  8  9  1  0
  9 10  1  0
 10 11  2  0
 10 12  1  0
 12 13  1  0
 13 14  1  0
 14 15  1  0
 15 16  1  0
 15 17  1  0
 15 18  1  0
 18 19  2  0
 19 20  1  0
 20 21  2  0
 21 22  1  0
 22 23  2  0
  7 24  1  0
 24  3  2  0
 23 18  1  0
  1 25  1  0
  1 26  1  0
  1 27  1  0
  4 28  1  0
  6 29  1  0
  8 30  1  0
  8 31  1  0
  9 32  1  0
  9 33  1  0
 13 34  1  0
 13 35  1  0
 14 36  1  0
 14 37  1  0
 16 38  1  0
 16 39  1  0
 16 40  1  0
 17 41  1  0
 17 42  1  0
 17 43  1  0
 19 44  1  0
 20 45  1  0
 21 46  1  0
 22 47  1  0
 23 48  1  0
 24 49  1  0
M  END
$$$$
OCNT-2311901
     RDKit          3D

 37 39  0  0  0  0  0  0  0  0999 V2000
    4.1765    2.6387    1.6650 C   0  0  0  0  0  0  0  0  0  0  0  0
    3.2209    1.8383    0.8711 C   0  0  0  0  0  0  0  0  0  0  0  0
    2.1991    2.2596    0.0531 C   0  0  0  0  0  0  0  0  0  0  0  0
    1.6350    1.1125   -0.4277 N   0  0  0  0  0  0  0  0  0  0  0  0
    2.2919    0.0331    0.1168 C   0  0  0  0  0  0  0  0  0  0  0  0
    2.0031   -1.3714   -0.2166 C   0  0  0  0  0  0  0  0  0  0  0  0
    3.0973   -2.2598   -0.1435 C   0  0  0  0  0  0  0  0  0  0  0  0
    3.0095   -3.5761   -0.5974 C   0  0  0  0  0  0  0  0  0  0  0  0
    1.8223   -4.0327   -1.1506 C   0  0  0  0  0  0  0  0  0  0  0  0
    0.7173   -3.1837   -1.2131 C   0  0  0  0  0  0  0  0  0  0  0  0
    0.7764   -1.8691   -0.7103 C   0  0  0  0  0  0  0  0  0  0  0  0
   -0.4479   -1.1534   -0.7689 N   0  0  0  0  0  0  0  0  0  0  0  0
   -0.9692   -0.4179    0.2846 C   0  0  0  0  0  0  0  0  0  0  0  0
   -0.4279   -0.2500    1.3685 O   0  0  0  0  0  0  0  0  0  0  0  0
   -2.2979    0.1464    0.0150 C   0  0  0  0  0  0  0  0  0  0  0  0
   -2.9845    0.1996   -1.1888 C   0  0  0  0  0  0  0  0  0  0  0  0
   -4.1886    0.8266   -0.9815 N   0  0  0  0  0  0  0  0  0  0  0  0
   -4.2986    1.1954    0.3361 C   0  0  0  0  0  0  0  0  0  0  0  0
   -5.5009    1.9001    0.8441 C   0  0  0  0  0  0  0  0  0  0  0  0
   -5.1918    3.0942    1.4021 F   0  0  0  0  0  0  0  0  0  0  0  0
   -6.1574    1.1713    1.7776 F   0  0  0  0  0  0  0  0  0  0  0  0
   -6.3845    2.1474   -0.1583 F   0  0  0  0  0  0  0  0  0  0  0  0
   -3.1410    0.7903    0.9716 C   0  0  0  0  0  0  0  0  0  0  0  0
    3.2860    0.4654    0.8771 N   0  0  0  0  0  0  0  0  0  0  0  0
    5.1928    2.5049    1.2818 H   0  0  0  0  0  0  0  0  0  0  0  0
    4.1581    2.3246    2.7132 H   0  0  0  0  0  0  0  0  0  0  0  0
    3.9326    3.7049    1.6243 H   0  0  0  0  0  0  0  0  0  0  0  0
    1.8342    3.2400   -0.2155 H   0  0  0  0  0  0  0  0  0  0  0  0
    0.8590    1.0485   -1.0679 H   0  0  0  0  0  0  0  0  0  0  0  0
    4.0499   -1.9046    0.2508 H   0  0  0  0  0  0  0  0  0  0  0  0
    3.8751   -4.2301   -0.5319 H   0  0  0  0  0  0  0  0  0  0  0  0
    1.7500   -5.0532   -1.5176 H   0  0  0  0  0  0  0  0  0  0  0  0
   -0.2086   -3.5829   -1.6206 H   0  0  0  0  0  0  0  0  0  0  0  0
   -1.1616   -1.5597   -1.3594 H   0  0  0  0  0  0  0  0  0  0  0  0
   -2.7254   -0.1384   -2.1836 H   0  0  0  0  0  0  0  0  0  0  0  0
   -4.8909    1.0044   -1.6921 H   0  0  0  0  0  0  0  0  0  0  0  0
   -2.9104    0.9367    2.0221 H   0  0  0  0  0  0  0  0  0  0  0  0
  1  2  1  0
  2  3  2  0
  3  4  1  0
  4  5  1  0
  5  6  1  0
  6  7  2  0
  7  8  1  0
  8  9  2  0
  9 10  1  0
 10 11  2  0
 11 12  1  0
 12 13  1  0
 13 14  2  0
 13 15  1  0
 15 16  2  0
 16 17  1  0
 17 18  1  0
 18 19  1  0
 19 20  1  0
 19 21  1  0
 19 22  1  0
 18 23  2  0
  5 24  2  0
 24  2  1  0
 11  6  1  0
 23 15  1  0
  1 25  1  0
  1 26  1  0
  1 27  1  0
  3 28  1  0
  4 29  1  0
  7 30  1  0
  8 31  1  0
  9 32  1  0
 10 33  1  0
 12 34  1  0
 16 35  1  0
 17 36  1  0
 23 37  1  0
M  END
$$$$
OCNT-2311905
     RDKit          3D

 43 46  0  0  0  0  0  0  0  0999 V2000
   -3.4571    2.5697   -2.0531 C   0  0  0  0  0  0  0  0  0  0  0  0
   -2.6569    2.5696   -0.9123 C   0  0  0  0  0  0  0  0  0  0  0  0
   -2.5623    1.4211   -0.1256 C   0  0  0  0  0  0  0  0  0  0  0  0
   -3.2664    0.2603   -0.4750 C   0  0  0  0  0  0  0  0  0  0  0  0
   -3.1481   -0.9891    0.3697 C   0  0  0  0  0  0  0  0  0  0  0  0
   -2.2934   -2.1029   -0.2860 C   0  0  0  0  0  0  0  0  0  0  0  0
   -0.8037   -1.6892   -0.4603 C   0  0  0  0  0  0  0  0  0  0  0  0
   -0.0963   -1.6611    0.8330 N   0  0  0  0  0  0  0  0  0  0  0  0
    1.1321   -1.0519    0.9106 C   0  0  0  0  0  0  0  0  0  0  0  0
    2.1176   -1.4583    1.6874 N   0  0  0  0  0  0  0  0  0  0  0  0
    3.2444   -0.6678    1.6136 N   0  0  0  0  0  0  0  0  0  0  0  0
    3.1025    0.3438    0.7797 C   0  0  0  0  0  0  0  0  0  0  0  0
    4.1222    1.3694    0.4984 C   0  0  0  0  0  0  0  0  0  0  0  0
    4.1542    2.1271   -0.6731 C   0  0  0  0  0  0  0  0  0  0  0  0
    5.1658    3.0722   -0.8424 C   0  0  0  0  0  0  0  0  0  0  0  0
    6.1189    3.2377    0.1538 C   0  0  0  0  0  0  0  0  0  0  0  0
    6.0234    2.4463    1.2839 C   0  0  0  0  0  0  0  0  0  0  0  0
    5.0549    1.5249    1.4740 N   0  0  0  0  0  0  0  0  0  0  0  0
    1.5502    0.3839    0.0383 S   0  0  0  0  0  0  0  0  0  0  0  0
   -0.2338   -2.9087    1.6108 C   0  0  0  0  0  0  0  0  0  0  0  0
   -1.7123   -3.3339    1.7324 C   0  0  0  0  0  0  0  0  0  0  0  0
   -2.4348   -3.3931    0.4450 N   0  0  0  0  0  0  0  0  0  0  0  0
   -4.0713    0.2723   -1.6220 C   0  0  0  0  0  0  0  0  0  0  0  0
   -4.1647    1.4222   -2.4074 C   0  0  0  0  0  0  0  0  0  0  0  0
   -3.5341    3.4660   -2.6629 H   0  0  0  0  0  0  0  0  0  0  0  0
   -2.1090    3.4654   -0.6318 H   0  0  0  0  0  0  0  0  0  0  0  0
   -1.9333    1.4359    0.7626 H   0  0  0  0  0  0  0  0  0  0  0  0
   -4.1644   -1.3642    0.5532 H   0  0  0  0  0  0  0  0  0  0  0  0
   -2.7506   -0.7193    1.3559 H   0  0  0  0  0  0  0  0  0  0  0  0
   -2.6958   -2.2814   -1.2917 H   0  0  0  0  0  0  0  0  0  0  0  0
   -0.3077   -2.4189   -1.1150 H   0  0  0  0  0  0  0  0  0  0  0  0
   -0.7597   -0.7270   -0.9785 H   0  0  0  0  0  0  0  0  0  0  0  0
    3.4209    1.9930   -1.4610 H   0  0  0  0  0  0  0  0  0  0  0  0
    5.2095    3.6716   -1.7478 H   0  0  0  0  0  0  0  0  0  0  0  0
    6.9185    3.9629    0.0519 H   0  0  0  0  0  0  0  0  0  0  0  0
    6.7442    2.5314    2.0924 H   0  0  0  0  0  0  0  0  0  0  0  0
    0.3383   -3.7092    1.1238 H   0  0  0  0  0  0  0  0  0  0  0  0
    0.1609   -2.7813    2.6266 H   0  0  0  0  0  0  0  0  0  0  0  0
   -1.7591   -4.3248    2.1986 H   0  0  0  0  0  0  0  0  0  0  0  0
   -2.2378   -2.6556    2.4145 H   0  0  0  0  0  0  0  0  0  0  0  0
   -1.9957   -4.1207   -0.1209 H   0  0  0  0  0  0  0  0  0  0  0  0
   -4.6358   -0.6131   -1.9065 H   0  0  0  0  0  0  0  0  0  0  0  0
   -4.7943    1.4246   -3.2934 H   0  0  0  0  0  0  0  0  0  0  0  0
  1  2  2  0
  2  3  1  0
  3  4  2  0
  4  5  1  0
  5  6  1  0
  6  7  1  0
  7  8  1  0
  8  9  1  0
  9 10  2  0
 10 11  1  0
 11 12  2  0
 12 13  1  0
 13 14  2  0
 14 15  1  0
 15 16  2  0
 16 17  1  0
 17 18  2  0
 12 19  1  0
  8 20  1  0
 20 21  1  0
 21 22  1  0
  4 23  1  0
 23 24  2  0
 24  1  1  0
 22  6  1  0
 19  9  1  0
 18 13  1  0
  1 25  1  0
  2 26  1  0
  3 27  1  0
  5 28  1  0
  5 29  1  0
  6 30  1  0
  7 31  1  0
  7 32  1  0
 14 33  1  0
 15 34  1  0
 16 35  1  0
 17 36  1  0
 20 37  1  0
 20 38  1  0
 21 39  1  0
 21 40  1  0
 22 41  1  0
 23 42  1  0
 24 43  1  0
M  END
$$$$
OCNT-2311907
     RDKit          3D

 38 40  0  0  0  0  0  0  0  0999 V2000
    5.1991   -2.1908    1.0575 C   0  0  0  0  0  0  0  0  0  0  0  0
    4.1257   -1.2278    1.0006 N   0  0  0  0  0  0  0  0  0  0  0  0
    2.7905   -1.4134    1.3728 C   0  0  0  0  0  0  0  0  0  0  0  0
    2.0542   -0.3490    0.9761 C   0  0  0  0  0  0  0  0  0  0  0  0
    0.6185   -0.0499    1.1778 C   0  0  0  0  0  0  0  0  0  0  0  0
   -0.1706   -0.4408    0.0087 N   0  0  0  0  0  0  0  0  0  0  0  0
   -1.5743   -0.0485    0.1665 C   0  0  0  0  0  0  0  0  0  0  0  0
   -2.3831   -0.4466   -1.0751 C   0  0  0  0  0  0  0  0  0  0  0  0
   -3.8369   -0.0619   -0.9404 C   0  0  0  0  0  0  0  0  0  0  0  0
   -4.2706    1.2147   -1.3251 C   0  0  0  0  0  0  0  0  0  0  0  0
   -5.6105    1.5808   -1.1840 C   0  0  0  0  0  0  0  0  0  0  0  0
   -6.5300    0.6768   -0.6532 C   0  0  0  0  0  0  0  0  0  0  0  0
   -6.1032   -0.5912   -0.2646 C   0  0  0  0  0  0  0  0  0  0  0  0
   -7.3468   -1.8174    0.4603 Br  0  0  0  0  0  0  0  0  0  0  0  0
   -4.7657   -0.9641   -0.4029 C   0  0  0  0  0  0  0  0  0  0  0  0
    2.9369    0.5231    0.3424 N   0  0  0  0  0  0  0  0  0  0  0  0
    2.9104    1.7357   -0.2457 N   0  0  0  0  0  0  0  0  0  0  0  0
    4.1782    1.9033   -0.6577 C   0  0  0  0  0  0  0  0  0  0  0  0
    5.0301    0.8251   -0.3172 C   0  0  0  0  0  0  0  0  0  0  0  0
    6.4141    0.6748   -0.5864 C   0  0  0  0  0  0  0  0  0  0  0  0
    7.5466    0.5482   -0.8068 N   0  0  0  0  0  0  0  0  0  0  0  0
    4.2046   -0.0342    0.3441 C   0  0  0  0  0  0  0  0  0  0  0  0
    5.3450   -2.6627    0.0802 H   0  0  0  0  0  0  0  0  0  0  0  0
    6.1381   -1.7160    1.3610 H   0  0  0  0  0  0  0  0  0  0  0  0
    4.9792   -2.9788    1.7859 H   0  0  0  0  0  0  0  0  0  0  0  0
    2.4815   -2.3047    1.8997 H   0  0  0  0  0  0  0  0  0  0  0  0
    0.2547   -0.5881    2.0622 H   0  0  0  0  0  0  0  0  0  0  0  0
    0.4969    1.0204    1.3859 H   0  0  0  0  0  0  0  0  0  0  0  0
   -0.1102   -1.4506   -0.1151 H   0  0  0  0  0  0  0  0  0  0  0  0
   -2.0010   -0.5291    1.0559 H   0  0  0  0  0  0  0  0  0  0  0  0
   -1.6430    1.0369    0.3115 H   0  0  0  0  0  0  0  0  0  0  0  0
   -2.3094   -1.5285   -1.2469 H   0  0  0  0  0  0  0  0  0  0  0  0
   -1.9642    0.0299   -1.9712 H   0  0  0  0  0  0  0  0  0  0  0  0
   -3.5640    1.9323   -1.7386 H   0  0  0  0  0  0  0  0  0  0  0  0
   -5.9366    2.5723   -1.4880 H   0  0  0  0  0  0  0  0  0  0  0  0
   -7.5709    0.9696   -0.5468 H   0  0  0  0  0  0  0  0  0  0  0  0
   -4.4442   -1.9560   -0.0945 H   0  0  0  0  0  0  0  0  0  0  0  0
    4.4307    2.8129   -1.1891 H   0  0  0  0  0  0  0  0  0  0  0  0
  1  2  1  0
  2  3  1  0
  3  4  2  0
  4  5  1  0
  5  6  1  0
  6  7  1  0
  7  8  1  0
  8  9  1  0
  9 10  2  0
 10 11  1  0
 11 12  2  0
 12 13  1  0
 13 14  1  0
 13 15  2  0
  4 16  1  0
 16 17  1  0
 17 18  2  0
 18 19  1  0
 19 20  1  0
 20 21  3  0
 19 22  2  0
 22  2  1  0
 15  9  1  0
 22 16  1  0
  1 23  1  0
  1 24  1  0
  1 25  1  0
  3 26  1  0
  5 27  1  0
  5 28  1  0
  6 29  1  0
  7 30  1  0
  7 31  1  0
  8 32  1  0
  8 33  1  0
 10 34  1  0
 11 35  1  0
 12 36  1  0
 15 37  1  0
 18 38  1  0
M  END
$$$$
OCNT-2311908
     RDKit          3D

 35 37  0  0  0  0  0  0  0  0999 V2000
   -0.1027   -1.5711    0.7269 C   0  0  0  0  0  0  0  0  0  0  0  0
   -0.5226   -0.2802    0.1738 N   0  0  0  0  0  0  0  0  0  0  0  0
    0.3552    0.8092    0.1237 C   0  0  0  0  0  0  0  0  0  0  0  0
    0.0557    2.0000    0.1029 O   0  0  0  0  0  0  0  0  0  0  0  0
    1.8118    0.5206    0.1030 C   0  0  0  0  0  0  0  0  0  0  0  0
    2.3535   -0.3441   -0.8531 C   0  0  0  0  0  0  0  0  0  0  0  0
    3.7280   -0.5747   -0.8697 C   0  0  0  0  0  0  0  0  0  0  0  0
    4.5608    0.0609    0.0581 C   0  0  0  0  0  0  0  0  0  0  0  0
    4.0237    0.9359    1.0064 C   0  0  0  0  0  0  0  0  0  0  0  0
    4.7274    1.6276    1.9517 O   0  0  0  0  0  0  0  0  0  0  0  0
    6.0706    1.2299    2.1683 C   0  0  0  0  0  0  0  0  0  0  0  0
    6.8289    1.6164    1.1133 F   0  0  0  0  0  0  0  0  0  0  0  0
    6.5277    1.9141    3.2472 F   0  0  0  0  0  0  0  0  0  0  0  0
    2.6471    1.1757    1.0140 C   0  0  0  0  0  0  0  0  0  0  0  0
   -1.8640   -0.1574   -0.2139 C   0  0  0  0  0  0  0  0  0  0  0  0
   -2.7329   -1.1351   -0.0600 N   0  0  0  0  0  0  0  0  0  0  0  0
   -3.9708   -0.7653   -0.5563 C   0  0  0  0  0  0  0  0  0  0  0  0
   -5.1408   -1.5514   -0.5356 C   0  0  0  0  0  0  0  0  0  0  0  0
   -6.3270   -1.0468   -1.0792 C   0  0  0  0  0  0  0  0  0  0  0  0
   -6.3588    0.2254   -1.6418 C   0  0  0  0  0  0  0  0  0  0  0  0
   -5.2106    1.0229   -1.6763 C   0  0  0  0  0  0  0  0  0  0  0  0
   -4.0263    0.5053   -1.1263 C   0  0  0  0  0  0  0  0  0  0  0  0
   -2.4703    1.2227   -1.0219 S   0  0  0  0  0  0  0  0  0  0  0  0
   -0.8636   -1.9466    1.4194 H   0  0  0  0  0  0  0  0  0  0  0  0
    0.0266   -2.2814   -0.0953 H   0  0  0  0  0  0  0  0  0  0  0  0
    0.8289   -1.4907    1.2925 H   0  0  0  0  0  0  0  0  0  0  0  0
    1.7172   -0.8188   -1.5961 H   0  0  0  0  0  0  0  0  0  0  0  0
    4.1581   -1.2357   -1.6193 H   0  0  0  0  0  0  0  0  0  0  0  0
    5.6288   -0.1264   -0.0134 H   0  0  0  0  0  0  0  0  0  0  0  0
    6.1812    0.1566    2.3580 H   0  0  0  0  0  0  0  0  0  0  0  0
    2.2221    1.8777    1.7293 H   0  0  0  0  0  0  0  0  0  0  0  0
   -5.1120   -2.5430   -0.0954 H   0  0  0  0  0  0  0  0  0  0  0  0
   -7.2285   -1.6548   -1.0600 H   0  0  0  0  0  0  0  0  0  0  0  0
   -7.2877    0.6069   -2.0609 H   0  0  0  0  0  0  0  0  0  0  0  0
   -5.2348    2.0157   -2.1154 H   0  0  0  0  0  0  0  0  0  0  0  0
  1  2  1  0
  2  3  1  0
  3  4  2  0
  3  5  1  0
  5  6  2  0
  6  7  1  0
  7  8  2  0
  8  9  1  0
  9 10  1  0
 10 11  1  0
 11 12  1  0
 11 13  1  0
  9 14  2  0
  2 15  1  0
 15 16  2  0
 16 17  1  0
 17 18  2  0
 18 19  1  0
 19 20  2  0
 20 21  1  0
 21 22  2  0
 22 23  1  0
 14  5  1  0
 23 15  1  0
 22 17  1  0
  1 24  1  0
  1 25  1  0
  1 26  1  0
  6 27  1  0
  7 28  1  0
  8 29  1  0
 11 30  1  0
 14 31  1  0
 18 32  1  0
 19 33  1  0
 20 34  1  0
 21 35  1  0
M  END
$$$$
OCNT-2311913
     RDKit          3D

 40 42  0  0  0  0  0  0  0  0999 V2000
   -4.7731    3.3729   -0.5712 C   0  0  0  0  0  0  0  0  0  0  0  0
   -5.1371    1.9998   -0.6609 O   0  0  0  0  0  0  0  0  0  0  0  0
   -4.1529    1.0813   -0.4236 C   0  0  0  0  0  0  0  0  0  0  0  0
   -4.5768   -0.2482   -0.4579 C   0  0  0  0  0  0  0  0  0  0  0  0
   -3.6783   -1.2897   -0.2243 C   0  0  0  0  0  0  0  0  0  0  0  0
   -2.3406   -1.0047    0.0596 C   0  0  0  0  0  0  0  0  0  0  0  0
   -1.4721   -2.0419    0.2766 O   0  0  0  0  0  0  0  0  0  0  0  0
   -1.6694   -2.6280    1.5660 C   0  0  0  0  0  0  0  0  0  0  0  0
   -1.7193   -1.6888    2.5313 F   0  0  0  0  0  0  0  0  0  0  0  0
   -2.8001   -3.3635    1.5872 F   0  0  0  0  0  0  0  0  0  0  0  0
   -0.6272   -3.4483    1.8189 F   0  0  0  0  0  0  0  0  0  0  0  0
   -1.8873    0.3244    0.0511 C   0  0  0  0  0  0  0  0  0  0  0  0
   -0.4629    0.7213    0.2895 C   0  0  0  0  0  0  0  0  0  0  0  0
   -0.2484    1.8389    0.7444 O   0  0  0  0  0  0  0  0  0  0  0  0
    0.4867   -0.2186   -0.0654 N   0  0  0  0  0  0  0  0  0  0  0  0
    1.8944   -0.1323    0.0601 C   0  0  0  0  0  0  0  0  0  0  0  0
    2.5287    0.9907    0.6107 C   0  0  0  0  0  0  0  0  0  0  0  0
    3.9060    0.9944    0.7005 C   0  0  0  0  0  0  0  0  0  0  0  0
    4.6638   -0.0634    0.2701 C   0  0  0  0  0  0  0  0  0  0  0  0
    4.0869   -1.1872   -0.2748 C   0  0  0  0  0  0  0  0  0  0  0  0
    2.6831   -1.2342   -0.3867 C   0  0  0  0  0  0  0  0  0  0  0  0
    2.0668   -2.4744   -0.9805 C   0  0  0  0  0  0  0  0  0  0  0  0
    5.9957    0.1405    0.4486 O   0  0  0  0  0  0  0  0  0  0  0  0
    5.9894    1.4545    1.0446 C   0  0  0  0  0  0  0  0  0  0  0  0
    4.6662    2.0032    1.2069 O   0  0  0  0  0  0  0  0  0  0  0  0
   -2.8099    1.3634   -0.1728 C   0  0  0  0  0  0  0  0  0  0  0  0
   -4.0408    3.6364   -1.3415 H   0  0  0  0  0  0  0  0  0  0  0  0
   -5.6731    3.9690   -0.7498 H   0  0  0  0  0  0  0  0  0  0  0  0
   -4.4028    3.6196    0.4294 H   0  0  0  0  0  0  0  0  0  0  0  0
   -5.6207   -0.4732   -0.6677 H   0  0  0  0  0  0  0  0  0  0  0  0
   -4.0366   -2.3157   -0.2674 H   0  0  0  0  0  0  0  0  0  0  0  0
    0.1293   -1.0714   -0.4760 H   0  0  0  0  0  0  0  0  0  0  0  0
    1.9872    1.8561    0.9711 H   0  0  0  0  0  0  0  0  0  0  0  0
    4.7135   -2.0095   -0.6046 H   0  0  0  0  0  0  0  0  0  0  0  0
    1.4181   -2.9637   -0.2470 H   0  0  0  0  0  0  0  0  0  0  0  0
    1.4889   -2.2214   -1.8752 H   0  0  0  0  0  0  0  0  0  0  0  0
    2.8295   -3.2013   -1.2800 H   0  0  0  0  0  0  0  0  0  0  0  0
    6.4682    1.3952    2.0288 H   0  0  0  0  0  0  0  0  0  0  0  0
    6.5741    2.1301    0.4095 H   0  0  0  0  0  0  0  0  0  0  0  0
   -2.4471    2.3878   -0.1552 H   0  0  0  0  0  0  0  0  0  0  0  0
  1  2  1  0
  2  3  1  0
  3  4  1  0
  4  5  2  0
  5  6  1  0
  6  7  1  0
  7  8  1  0
  8  9  1  0
  8 10  1  0
  8 11  1  0
  6 12  2  0
 12 13  1  0
 13 14  2  0
 13 15  1  0
 15 16  1  0
 16 17  1  0
 17 18  2  0
 18 19  1  0
 19 20  2  0
 20 21  1  0
 21 22  1  0
 19 23  1  0
 23 24  1  0
 24 25  1  0
 12 26  1  0
 26  3  2  0
 21 16  2  0
 25 18  1  0
  1 27  1  0
  1 28  1  0
  1 29  1  0
  4 30  1  0
  5 31  1  0
 15 32  1  0
 17 33  1  0
 20 34  1  0
 22 35  1  0
 22 36  1  0
 22 37  1  0
 24 38  1  0
 24 39  1  0
 26 40  1  0
M  END
$$$$
OCNT-2311916
     RDKit          3D

 44 45  0  0  0  0  0  0  0  0999 V2000
   -2.9289   -1.7549    0.7463 C   0  0  0  0  0  0  0  0  0  0  0  0
   -2.4752   -1.7090   -0.3648 C   0  0  0  0  0  0  0  0  0  0  0  0
   -1.9138   -1.6416   -1.7191 C   0  0  0  0  0  0  0  0  0  0  0  0
   -1.2336   -0.3720   -1.9651 N   0  0  0  0  0  0  0  0  0  0  0  0
   -2.0354    0.7147   -2.5304 C   0  0  0  0  0  0  0  0  0  0  0  0
   -3.0114    1.3213   -1.5499 C   0  0  0  0  0  0  0  0  0  0  0  0
   -2.5545    2.1286   -0.4977 C   0  0  0  0  0  0  0  0  0  0  0  0
   -3.4533    2.6812    0.4156 C   0  0  0  0  0  0  0  0  0  0  0  0
   -4.8185    2.4349    0.2868 C   0  0  0  0  0  0  0  0  0  0  0  0
   -5.2861    1.6360   -0.7548 C   0  0  0  0  0  0  0  0  0  0  0  0
   -4.3883    1.0815   -1.6692 C   0  0  0  0  0  0  0  0  0  0  0  0
    0.0410   -0.0732   -1.4994 C   0  0  0  0  0  0  0  0  0  0  0  0
    0.5262    1.0610   -1.6077 O   0  0  0  0  0  0  0  0  0  0  0  0
    0.9024   -1.2007   -0.8869 C   0  0  0  0  0  0  0  0  0  0  0  0
    1.6028   -1.9812   -1.9940 C   0  0  0  0  0  0  0  0  0  0  0  0
    1.8826   -0.5673   -0.0089 N   0  0  0  0  0  0  0  0  0  0  0  0
    2.4961   -1.2372    1.0170 C   0  0  0  0  0  0  0  0  0  0  0  0
    2.3645   -2.4396    1.2163 O   0  0  0  0  0  0  0  0  0  0  0  0
    3.4177   -0.4473    1.8698 C   0  0  0  0  0  0  0  0  0  0  0  0
    4.6553   -1.0510    2.1541 C   0  0  0  0  0  0  0  0  0  0  0  0
    5.6010   -0.3942    2.9374 C   0  0  0  0  0  0  0  0  0  0  0  0
    5.3127    0.8677    3.4495 C   0  0  0  0  0  0  0  0  0  0  0  0
    4.0752    1.4693    3.1894 C   0  0  0  0  0  0  0  0  0  0  0  0
    3.8045    3.0317    3.8859 Cl  0  0  0  0  0  0  0  0  0  0  0  0
    3.1116    0.8155    2.4022 C   0  0  0  0  0  0  0  0  0  0  0  0
    1.5579    1.5483    2.1498 Cl  0  0  0  0  0  0  0  0  0  0  0  0
   -3.3290   -1.7758    1.7338 H   0  0  0  0  0  0  0  0  0  0  0  0
   -2.6990   -1.7745   -2.4716 H   0  0  0  0  0  0  0  0  0  0  0  0
   -1.2100   -2.4655   -1.8620 H   0  0  0  0  0  0  0  0  0  0  0  0
   -2.5633    0.3195   -3.4072 H   0  0  0  0  0  0  0  0  0  0  0  0
   -1.3869    1.5115   -2.9144 H   0  0  0  0  0  0  0  0  0  0  0  0
   -1.4906    2.3293   -0.3831 H   0  0  0  0  0  0  0  0  0  0  0  0
   -3.0850    3.3023    1.2279 H   0  0  0  0  0  0  0  0  0  0  0  0
   -5.5172    2.8650    0.9993 H   0  0  0  0  0  0  0  0  0  0  0  0
   -6.3510    1.4430   -0.8537 H   0  0  0  0  0  0  0  0  0  0  0  0
   -4.7723    0.4573   -2.4724 H   0  0  0  0  0  0  0  0  0  0  0  0
    0.2946   -1.8660   -0.2693 H   0  0  0  0  0  0  0  0  0  0  0  0
    2.2167   -2.7876   -1.5796 H   0  0  0  0  0  0  0  0  0  0  0  0
    0.8887   -2.4245   -2.6940 H   0  0  0  0  0  0  0  0  0  0  0  0
    2.2653   -1.3286   -2.5748 H   0  0  0  0  0  0  0  0  0  0  0  0
    1.9940    0.4382   -0.1191 H   0  0  0  0  0  0  0  0  0  0  0  0
    4.8811   -2.0406    1.7573 H   0  0  0  0  0  0  0  0  0  0  0  0
    6.5578   -0.8663    3.1490 H   0  0  0  0  0  0  0  0  0  0  0  0
    6.0538    1.3778    4.0615 H   0  0  0  0  0  0  0  0  0  0  0  0
  1  2  3  0
  2  3  1  0
  3  4  1  0
  4  5  1  0
  5  6  1  0
  6  7  2  0
  7  8  1  0
  8  9  2  0
  9 10  1  0
 10 11  2  0
  4 12  1  0
 12 13  2  0
 12 14  1  0
 14 15  1  0
 14 16  1  0
 16 17  1  0
 17 18  2  0
 17 19  1  0
 19 20  2  0
 20 21  1  0
 21 22  2  0
 22 23  1  0
 23 24  1  0
 23 25  2  0
 25 26  1  0
 11  6  1  0
 25 19  1  0
  1 27  1  0
  3 28  1  0
  3 29  1  0
  5 30  1  0
  5 31  1  0
  7 32  1  0
  8 33  1  0
  9 34  1  0
 10 35  1  0
 11 36  1  0
 14 37  1  0
 15 38  1  0
 15 39  1  0
 15 40  1  0
 16 41  1  0
 20 42  1  0
 21 43  1  0
 22 44  1  0
M  END
$$$$
OCNT-2311935
     RDKit          3D

 40 43  0  0  0  0  0  0  0  0999 V2000
   -2.0939   -2.7410   -1.8835 C   0  0  0  0  0  0  0  0  0  0  0  0
   -3.0083   -1.8120   -1.1373 C   0  0  0  0  0  0  0  0  0  0  0  0
   -4.3333   -1.9562   -1.3851 N   0  0  0  0  0  0  0  0  0  0  0  0
   -5.1859   -1.1445   -0.7181 C   0  0  0  0  0  0  0  0  0  0  0  0
   -4.8004   -0.1671    0.2007 C   0  0  0  0  0  0  0  0  0  0  0  0
   -5.7431    0.6409    0.8616 C   0  0  0  0  0  0  0  0  0  0  0  0
   -5.3332    1.6010    1.7850 C   0  0  0  0  0  0  0  0  0  0  0  0
   -3.9807    1.7590    2.0635 C   0  0  0  0  0  0  0  0  0  0  0  0
   -3.0358    0.9634    1.4113 C   0  0  0  0  0  0  0  0  0  0  0  0
   -3.4228   -0.0091    0.4566 C   0  0  0  0  0  0  0  0  0  0  0  0
   -2.5238   -0.8454   -0.2509 C   0  0  0  0  0  0  0  0  0  0  0  0
   -1.0637   -0.6797   -0.1050 C   0  0  0  0  0  0  0  0  0  0  0  0
   -0.4407   -1.5408    0.4967 O   0  0  0  0  0  0  0  0  0  0  0  0
   -0.5887    0.4651   -0.7147 N   0  0  0  0  0  0  0  0  0  0  0  0
    0.7438    0.7966   -0.6862 C   0  0  0  0  0  0  0  0  0  0  0  0
    1.7463    0.1722   -0.1192 N   0  0  0  0  0  0  0  0  0  0  0  0
    2.8308    0.9548   -0.4109 C   0  0  0  0  0  0  0  0  0  0  0  0
    4.1563    0.5885    0.0535 C   0  0  0  0  0  0  0  0  0  0  0  0
    5.3574    1.2344   -0.1322 C   0  0  0  0  0  0  0  0  0  0  0  0
    6.2892    0.4717    0.5073 N   0  0  0  0  0  0  0  0  0  0  0  0
    7.7054    0.7291    0.5999 C   0  0  0  0  0  0  0  0  0  0  0  0
    5.7772   -0.6262    1.0977 N   0  0  0  0  0  0  0  0  0  0  0  0
    4.4701   -0.5506    0.8162 C   0  0  0  0  0  0  0  0  0  0  0  0
    2.5544    2.0472   -1.1356 N   0  0  0  0  0  0  0  0  0  0  0  0
    1.2286    1.9214   -1.2976 N   0  0  0  0  0  0  0  0  0  0  0  0
   -2.6658   -3.3832   -2.5617 H   0  0  0  0  0  0  0  0  0  0  0  0
   -1.3780   -2.1751   -2.4876 H   0  0  0  0  0  0  0  0  0  0  0  0
   -1.5550   -3.3897   -1.1864 H   0  0  0  0  0  0  0  0  0  0  0  0
   -6.2347   -1.3141   -0.9518 H   0  0  0  0  0  0  0  0  0  0  0  0
   -6.8071    0.5205    0.6657 H   0  0  0  0  0  0  0  0  0  0  0  0
   -6.0704    2.2149    2.2969 H   0  0  0  0  0  0  0  0  0  0  0  0
   -3.6583    2.4921    2.7995 H   0  0  0  0  0  0  0  0  0  0  0  0
   -1.9882    1.0948    1.6803 H   0  0  0  0  0  0  0  0  0  0  0  0
   -1.2397    1.0708   -1.1956 H   0  0  0  0  0  0  0  0  0  0  0  0
    5.6093    2.1468   -0.6534 H   0  0  0  0  0  0  0  0  0  0  0  0
    7.9696    0.8276    1.6557 H   0  0  0  0  0  0  0  0  0  0  0  0
    7.9429    1.6538    0.0681 H   0  0  0  0  0  0  0  0  0  0  0  0
    8.2387   -0.1098    0.1459 H   0  0  0  0  0  0  0  0  0  0  0  0
    3.8026   -1.3243    1.1762 H   0  0  0  0  0  0  0  0  0  0  0  0
    0.7287    2.6246   -1.8257 H   0  0  0  0  0  0  0  0  0  0  0  0
  1  2  1  0
  2  3  2  0
  3  4  1  0
  4  5  2  0
  5  6  1  0
  6  7  2  0
  7  8  1  0
  8  9  2  0
  9 10  1  0
 10 11  2  0
 11 12  1  0
 12 13  2  0
 12 14  1  0
 14 15  1  0
 15 16  2  0
 16 17  1  0
 17 18  1  0
 18 19  2  0
 19 20  1  0
 20 21  1  0
 20 22  1  0
 22 23  2  0
 17 24  2  0
 24 25  1  0
 11  2  1  0
 25 15  1  0
 10  5  1  0
 23 18  1  0
  1 26  1  0
  1 27  1  0
  1 28  1  0
  4 29  1  0
  6 30  1  0
  7 31  1  0
  8 32  1  0
  9 33  1  0
 14 34  1  0
 19 35  1  0
 21 36  1  0
 21 37  1  0
 21 38  1  0
 23 39  1  0
 25 40  1  0
M  END
$$$$
OCNT-2311948
     RDKit          3D

 40 42  0  0  0  0  0  0  0  0999 V2000
    5.1949    1.4737   -1.8124 C   0  0  0  0  0  0  0  0  0  0  0  0
    5.0632    0.8087   -0.5156 N   0  0  0  0  0  0  0  0  0  0  0  0
    6.2712    0.1537   -0.0165 C   0  0  0  0  0  0  0  0  0  0  0  0
    3.8100    0.2989   -0.1554 C   0  0  0  0  0  0  0  0  0  0  0  0
    3.6558   -0.7227    0.7966 C   0  0  0  0  0  0  0  0  0  0  0  0
    2.3956   -1.2221    1.1650 C   0  0  0  0  0  0  0  0  0  0  0  0
    1.2258   -0.7069    0.6034 C   0  0  0  0  0  0  0  0  0  0  0  0
   -0.0640   -1.2438    0.9997 C   0  0  0  0  0  0  0  0  0  0  0  0
   -1.3109   -0.7659    0.6553 C   0  0  0  0  0  0  0  0  0  0  0  0
   -2.1789   -1.6141    1.2822 N   0  0  0  0  0  0  0  0  0  0  0  0
   -3.6350   -1.6490    1.2809 C   0  0  0  0  0  0  0  0  0  0  0  0
   -4.2842   -0.5086    0.5256 C   0  0  0  0  0  0  0  0  0  0  0  0
   -4.5738   -0.6754   -0.8427 C   0  0  0  0  0  0  0  0  0  0  0  0
   -5.1512    0.3581   -1.5825 C   0  0  0  0  0  0  0  0  0  0  0  0
   -5.4477    1.5732   -0.9713 C   0  0  0  0  0  0  0  0  0  0  0  0
   -5.1692    1.7573    0.3829 C   0  0  0  0  0  0  0  0  0  0  0  0
   -4.5868    0.7265    1.1364 C   0  0  0  0  0  0  0  0  0  0  0  0
   -4.3201    0.9674    2.5272 C   0  0  0  0  0  0  0  0  0  0  0  0
   -4.1090    1.1471    3.6538 N   0  0  0  0  0  0  0  0  0  0  0  0
   -1.5149   -2.5703    1.9613 N   0  0  0  0  0  0  0  0  0  0  0  0
   -0.2178   -2.3467    1.8038 N   0  0  0  0  0  0  0  0  0  0  0  0
    1.3520    0.3221   -0.3316 C   0  0  0  0  0  0  0  0  0  0  0  0
    2.6179    0.8126   -0.6951 C   0  0  0  0  0  0  0  0  0  0  0  0
    6.2363    1.7447   -2.0188 H   0  0  0  0  0  0  0  0  0  0  0  0
    4.6304    2.4117   -1.8352 H   0  0  0  0  0  0  0  0  0  0  0  0
    4.8590    0.8214   -2.6266 H   0  0  0  0  0  0  0  0  0  0  0  0
    6.3537   -0.8692   -0.4016 H   0  0  0  0  0  0  0  0  0  0  0  0
    6.2924    0.1388    1.0794 H   0  0  0  0  0  0  0  0  0  0  0  0
    7.1696    0.6994   -0.3255 H   0  0  0  0  0  0  0  0  0  0  0  0
    4.5162   -1.1725    1.2820 H   0  0  0  0  0  0  0  0  0  0  0  0
    2.3460   -2.0192    1.9056 H   0  0  0  0  0  0  0  0  0  0  0  0
   -1.6339    0.0679    0.0490 H   0  0  0  0  0  0  0  0  0  0  0  0
   -3.9250   -2.6095    0.8338 H   0  0  0  0  0  0  0  0  0  0  0  0
   -3.9652   -1.6737    2.3263 H   0  0  0  0  0  0  0  0  0  0  0  0
   -4.3468   -1.6156   -1.3457 H   0  0  0  0  0  0  0  0  0  0  0  0
   -5.3689    0.2145   -2.6392 H   0  0  0  0  0  0  0  0  0  0  0  0
   -5.8981    2.3773   -1.5497 H   0  0  0  0  0  0  0  0  0  0  0  0
   -5.4068    2.7135    0.8488 H   0  0  0  0  0  0  0  0  0  0  0  0
    0.4788    0.7689   -0.7985 H   0  0  0  0  0  0  0  0  0  0  0  0
    2.6390    1.6277   -1.4128 H   0  0  0  0  0  0  0  0  0  0  0  0
  1  2  1  0
  2  3  1  0
  2  4  1  0
  4  5  1  0
  5  6  2  0
  6  7  1  0
  7  8  1  0
  8  9  2  0
  9 10  1  0
 10 11  1  0
 11 12  1  0
 12 13  2  0
 13 14  1  0
 14 15  2  0
 15 16  1  0
 16 17  2  0
 17 18  1  0
 18 19  3  0
 10 20  1  0
 20 21  2  0
  7 22  2  0
 22 23  1  0
 23  4  2  0
 21  8  1  0
 17 12  1  0
  1 24  1  0
  1 25  1  0
  1 26  1  0
  3 27  1  0
  3 28  1  0
  3 29  1  0
  5 30  1  0
  6 31  1  0
  9 32  1  0
 11 33  1  0
 11 34  1  0
 13 35  1  0
 14 36  1  0
 15 37  1  0
 16 38  1  0
 22 39  1  0
 23 40  1  0
M  END
$$$$
OCNT-2311956
     RDKit          3D

 50 53  0  0  0  0  0  0  0  0999 V2000
    5.7905   -0.4052    2.9990 C   0  0  0  0  0  0  0  0  0  0  0  0
    5.3585    0.5895    1.9304 C   0  0  0  0  0  0  0  0  0  0  0  0
    5.8584    0.2249    0.5306 C   0  0  0  0  0  0  0  0  0  0  0  0
    5.2291   -1.0099   -0.0271 C   0  0  0  0  0  0  0  0  0  0  0  0
    5.9083   -2.1647   -0.0429 N   0  0  0  0  0  0  0  0  0  0  0  0
    5.0563   -3.0325   -0.6117 N   0  0  0  0  0  0  0  0  0  0  0  0
    3.8479   -2.4901   -0.9585 C   0  0  0  0  0  0  0  0  0  0  0  0
    2.7185   -3.0488   -1.5646 C   0  0  0  0  0  0  0  0  0  0  0  0
    1.6290   -2.1979   -1.7902 C   0  0  0  0  0  0  0  0  0  0  0  0
    1.6741   -0.8483   -1.4141 C   0  0  0  0  0  0  0  0  0  0  0  0
    0.5237    0.0676   -1.6457 C   0  0  0  0  0  0  0  0  0  0  0  0
    0.7151    1.2628   -1.8316 O   0  0  0  0  0  0  0  0  0  0  0  0
   -0.7318   -0.4982   -1.5874 N   0  0  0  0  0  0  0  0  0  0  0  0
   -1.9361    0.2819   -1.8225 C   0  0  0  0  0  0  0  0  0  0  0  0
   -2.1789    1.3750   -0.7704 C   0  0  0  0  0  0  0  0  0  0  0  0
   -3.5963    1.7195   -0.6483 N   0  0  0  0  0  0  0  0  0  0  0  0
   -4.1087    2.6930   -1.4987 C   0  0  0  0  0  0  0  0  0  0  0  0
   -3.4511    3.2518   -2.3760 O   0  0  0  0  0  0  0  0  0  0  0  0
   -5.5484    3.0946   -1.2102 C   0  0  0  0  0  0  0  0  0  0  0  0
   -6.4407    2.0971   -0.7563 O   0  0  0  0  0  0  0  0  0  0  0  0
   -5.8627    1.2088    0.1089 C   0  0  0  0  0  0  0  0  0  0  0  0
   -6.7619    0.4697    0.8831 C   0  0  0  0  0  0  0  0  0  0  0  0
   -6.2941   -0.4908    1.7743 C   0  0  0  0  0  0  0  0  0  0  0  0
   -4.9265   -0.7206    1.8801 C   0  0  0  0  0  0  0  0  0  0  0  0
   -4.0260    0.0070    1.0932 C   0  0  0  0  0  0  0  0  0  0  0  0
   -4.4794    0.9857    0.1961 C   0  0  0  0  0  0  0  0  0  0  0  0
    2.8301   -0.3096   -0.8245 C   0  0  0  0  0  0  0  0  0  0  0  0
    3.9305   -1.1530   -0.5888 C   0  0  0  0  0  0  0  0  0  0  0  0
    5.4719   -0.0570    3.9868 H   0  0  0  0  0  0  0  0  0  0  0  0
    6.8793   -0.5166    3.0146 H   0  0  0  0  0  0  0  0  0  0  0  0
    5.3440   -1.3904    2.8336 H   0  0  0  0  0  0  0  0  0  0  0  0
    5.7562    1.5764    2.1957 H   0  0  0  0  0  0  0  0  0  0  0  0
    4.2654    0.6750    1.9379 H   0  0  0  0  0  0  0  0  0  0  0  0
    5.6433    1.0607   -0.1474 H   0  0  0  0  0  0  0  0  0  0  0  0
    6.9506    0.1184    0.5447 H   0  0  0  0  0  0  0  0  0  0  0  0
    5.3633   -3.9898   -0.7378 H   0  0  0  0  0  0  0  0  0  0  0  0
    2.6869   -4.0922   -1.8622 H   0  0  0  0  0  0  0  0  0  0  0  0
    0.7559   -2.6037   -2.2952 H   0  0  0  0  0  0  0  0  0  0  0  0
   -0.8382   -1.4608   -1.2995 H   0  0  0  0  0  0  0  0  0  0  0  0
   -2.7634   -0.4359   -1.8418 H   0  0  0  0  0  0  0  0  0  0  0  0
   -1.8655    0.7312   -2.8198 H   0  0  0  0  0  0  0  0  0  0  0  0
   -1.7705    1.1033    0.2076 H   0  0  0  0  0  0  0  0  0  0  0  0
   -1.6250    2.2763   -1.0625 H   0  0  0  0  0  0  0  0  0  0  0  0
   -5.5313    3.9142   -0.4814 H   0  0  0  0  0  0  0  0  0  0  0  0
   -5.9682    3.4939   -2.1403 H   0  0  0  0  0  0  0  0  0  0  0  0
   -7.8302    0.6478    0.7884 H   0  0  0  0  0  0  0  0  0  0  0  0
   -6.9946   -1.0595    2.3804 H   0  0  0  0  0  0  0  0  0  0  0  0
   -4.5558   -1.4712    2.5745 H   0  0  0  0  0  0  0  0  0  0  0  0
   -2.9727   -0.2215    1.2137 H   0  0  0  0  0  0  0  0  0  0  0  0
    2.8711    0.7421   -0.5523 H   0  0  0  0  0  0  0  0  0  0  0  0
  1  2  1  0
  2  3  1  0
  3  4  1  0
  4  5  2  0
  5  6  1  0
  6  7  1  0
  7  8  2  0
  8  9  1  0
  9 10  2  0
 10 11  1  0
 11 12  2  0
 11 13  1  0
 13 14  1  0
 14 15  1  0
 15 16  1  0
 16 17  1  0
 17 18  2  0
 17 19  1  0
 19 20  1  0
 20 21  1  0
 21 22  2  0
 22 23  1  0
 23 24  2  0
 24 25  1  0
 25 26  2  0
 10 27  1  0
 27 28  2  0
 28  4  1  0
 28  7  1  0
 26 16  1  0
 26 21  1  0
  1 29  1  0
  1 30  1  0
  1 31  1  0
  2 32  1  0
  2 33  1  0
  3 34  1  0
  3 35  1  0
  6 36  1  0
  8 37  1  0
  9 38  1  0
 13 39  1  0
 14 40  1  0
 14 41  1  0
 15 42  1  0
 15 43  1  0
 19 44  1  0
 19 45  1  0
 22 46  1  0
 23 47  1  0
 24 48  1  0
 25 49  1  0
 27 50  1  0
M  END
$$$$
OCNT-2311967
     RDKit          3D

 43 45  0  0  0  0  0  0  0  0999 V2000
    3.4941    0.0361   -2.6075 O   0  0  0  0  0  0  0  0  0  0  0  0
    3.0919   -0.2890   -1.2716 C   0  0  1  0  0  0  0  0  0  0  0  0
    2.4408   -1.6850   -1.2430 C   0  0  0  0  0  0  0  0  0  0  0  0
    1.0893   -1.6430   -1.7207 O   0  0  0  0  0  0  0  0  0  0  0  0
    0.0966   -1.2834   -0.8538 C   0  0  0  0  0  0  0  0  0  0  0  0
   -1.1743   -1.2118   -1.4292 C   0  0  0  0  0  0  0  0  0  0  0  0
   -2.2930   -0.8531   -0.6686 C   0  0  0  0  0  0  0  0  0  0  0  0
   -2.1492   -0.5684    0.6865 C   0  0  0  0  0  0  0  0  0  0  0  0
   -3.1461   -0.1950    1.5437 O   0  0  0  0  0  0  0  0  0  0  0  0
   -4.5006   -0.4257    1.1440 C   0  0  0  0  0  0  0  0  0  0  0  0
   -5.0990    0.7198    0.3712 C   0  0  0  0  0  0  0  0  0  0  0  0
   -4.6623    2.0397    0.5152 C   0  0  0  0  0  0  0  0  0  0  0  0
   -5.2787    3.0562   -0.2090 C   0  0  0  0  0  0  0  0  0  0  0  0
   -6.3262    2.7205   -1.0496 C   0  0  0  0  0  0  0  0  0  0  0  0
   -6.7892    1.4620   -1.2042 N   0  0  0  0  0  0  0  0  0  0  0  0
   -6.1704    0.4957   -0.4888 C   0  0  0  0  0  0  0  0  0  0  0  0
   -0.8774   -0.6281    1.2607 C   0  0  0  0  0  0  0  0  0  0  0  0
    0.2412   -0.9877    0.4996 C   0  0  0  0  0  0  0  0  0  0  0  0
    4.3008   -0.2065   -0.3620 C   0  0  0  0  0  0  0  0  0  0  0  0
    5.4815   -0.9042   -0.6664 C   0  0  0  0  0  0  0  0  0  0  0  0
    6.5885   -0.8319    0.1820 C   0  0  0  0  0  0  0  0  0  0  0  0
    6.5221   -0.0638    1.3416 C   0  0  0  0  0  0  0  0  0  0  0  0
    7.8849    0.0259    2.3878 Cl  0  0  0  0  0  0  0  0  0  0  0  0
    5.3586    0.6337    1.6593 C   0  0  0  0  0  0  0  0  0  0  0  0
    4.2511    0.5630    0.8104 C   0  0  0  0  0  0  0  0  0  0  0  0
    4.0793    0.8108   -2.5480 H   0  0  0  0  0  0  0  0  0  0  0  0
    2.3619    0.4771   -0.9880 H   0  0  0  0  0  0  0  0  0  0  0  0
    2.9784   -2.3490   -1.9313 H   0  0  0  0  0  0  0  0  0  0  0  0
    2.4915   -2.1664   -0.2595 H   0  0  0  0  0  0  0  0  0  0  0  0
   -1.2953   -1.4301   -2.4883 H   0  0  0  0  0  0  0  0  0  0  0  0
   -3.2501   -0.7910   -1.1747 H   0  0  0  0  0  0  0  0  0  0  0  0
   -4.5968   -1.3794    0.6095 H   0  0  0  0  0  0  0  0  0  0  0  0
   -5.0800   -0.5350    2.0688 H   0  0  0  0  0  0  0  0  0  0  0  0
   -3.8398    2.2804    1.1849 H   0  0  0  0  0  0  0  0  0  0  0  0
   -4.9496    4.0852   -0.1183 H   0  0  0  0  0  0  0  0  0  0  0  0
   -6.8381    3.4781   -1.6360 H   0  0  0  0  0  0  0  0  0  0  0  0
   -6.5792   -0.5010   -0.6351 H   0  0  0  0  0  0  0  0  0  0  0  0
   -0.7551   -0.3985    2.3167 H   0  0  0  0  0  0  0  0  0  0  0  0
    1.1999   -1.0252    1.0034 H   0  0  0  0  0  0  0  0  0  0  0  0
    5.5439   -1.5058   -1.5726 H   0  0  0  0  0  0  0  0  0  0  0  0
    7.4961   -1.3750   -0.0681 H   0  0  0  0  0  0  0  0  0  0  0  0
    5.3078    1.2337    2.5641 H   0  0  0  0  0  0  0  0  0  0  0  0
    3.3502    1.1152    1.0725 H   0  0  0  0  0  0  0  0  0  0  0  0
  1  2  1  0
  2  3  1  0
  3  4  1  0
  4  5  1  0
  5  6  1  0
  6  7  2  0
  7  8  1  0
  8  9  1  0
  9 10  1  0
 10 11  1  0
 11 12  1  0
 12 13  2  0
 13 14  1  0
 14 15  2  0
 15 16  1  0
  8 17  2  0
 17 18  1  0
  2 19  1  0
 19 20  1  0
 20 21  2  0
 21 22  1  0
 22 23  1  0
 22 24  2  0
 24 25  1  0
 18  5  2  0
 25 19  2  0
 16 11  2  0
  1 26  1  0
  2 27  1  1
  3 28  1  0
  3 29  1  0
  6 30  1  0
  7 31  1  0
 10 32  1  0
 10 33  1  0
 12 34  1  0
 13 35  1  0
 14 36  1  0
 16 37  1  0
 17 38  1  0
 18 39  1  0
 20 40  1  0
 21 41  1  0
 24 42  1  0
 25 43  1  0
M  END
$$$$
OCNT-2311971
     RDKit          3D

 38 40  0  0  0  0  0  0  0  0999 V2000
   -2.1055    2.6672   -1.2478 C   0  0  0  0  0  0  0  0  0  0  0  0
   -1.4024    1.5158   -0.7974 O   0  0  0  0  0  0  0  0  0  0  0  0
   -2.1549    0.4857   -0.2786 C   0  0  0  0  0  0  0  0  0  0  0  0
   -3.5486    0.4949   -0.1540 C   0  0  0  0  0  0  0  0  0  0  0  0
   -4.2208   -0.6025    0.4026 C   0  0  0  0  0  0  0  0  0  0  0  0
   -5.7181   -0.6047    0.5042 C   0  0  0  0  0  0  0  0  0  0  0  0
   -3.4845   -1.7190    0.8101 C   0  0  0  0  0  0  0  0  0  0  0  0
   -2.0927   -1.7368    0.6890 C   0  0  0  0  0  0  0  0  0  0  0  0
   -1.4207   -0.6414    0.1472 C   0  0  0  0  0  0  0  0  0  0  0  0
   -0.0180   -0.5838   -0.0037 N   0  0  0  0  0  0  0  0  0  0  0  0
    0.9158   -1.5417    0.3233 C   0  0  0  0  0  0  0  0  0  0  0  0
    0.7167   -2.6653    0.7649 O   0  0  0  0  0  0  0  0  0  0  0  0
    2.3142   -1.1325    0.0424 C   0  0  0  0  0  0  0  0  0  0  0  0
    3.0220   -1.9301   -0.8686 C   0  0  0  0  0  0  0  0  0  0  0  0
    4.3226   -1.5916   -1.2250 C   0  0  0  0  0  0  0  0  0  0  0  0
    4.9188   -0.4609   -0.6692 C   0  0  0  0  0  0  0  0  0  0  0  0
    4.2277    0.3348    0.2639 C   0  0  0  0  0  0  0  0  0  0  0  0
    4.8153    1.4617    0.8447 C   0  0  0  0  0  0  0  0  0  0  0  0
    4.2180    2.2587    1.7590 N   0  0  0  0  0  0  0  0  0  0  0  0
    2.9726    1.9129    2.1332 C   0  0  0  0  0  0  0  0  0  0  0  0
    2.2909    0.8200    1.6215 C   0  0  0  0  0  0  0  0  0  0  0  0
    2.9098    0.0053    0.6481 C   0  0  0  0  0  0  0  0  0  0  0  0
   -2.7836    2.4191   -2.0708 H   0  0  0  0  0  0  0  0  0  0  0  0
   -1.3679    3.3801   -1.6288 H   0  0  0  0  0  0  0  0  0  0  0  0
   -2.6398    3.1509   -0.4235 H   0  0  0  0  0  0  0  0  0  0  0  0
   -4.1384    1.3449   -0.4812 H   0  0  0  0  0  0  0  0  0  0  0  0
   -6.0530   -1.2279    1.3401 H   0  0  0  0  0  0  0  0  0  0  0  0
   -6.0983    0.4068    0.6816 H   0  0  0  0  0  0  0  0  0  0  0  0
   -6.1551   -0.9908   -0.4218 H   0  0  0  0  0  0  0  0  0  0  0  0
   -3.9873   -2.5890    1.2278 H   0  0  0  0  0  0  0  0  0  0  0  0
   -1.5613   -2.6220    1.0237 H   0  0  0  0  0  0  0  0  0  0  0  0
    0.3079    0.2807   -0.4278 H   0  0  0  0  0  0  0  0  0  0  0  0
    2.5518   -2.8113   -1.3013 H   0  0  0  0  0  0  0  0  0  0  0  0
    4.8711   -2.2067   -1.9343 H   0  0  0  0  0  0  0  0  0  0  0  0
    5.9373   -0.2082   -0.9595 H   0  0  0  0  0  0  0  0  0  0  0  0
    5.8262    1.7657    0.5835 H   0  0  0  0  0  0  0  0  0  0  0  0
    2.5175    2.5537    2.8834 H   0  0  0  0  0  0  0  0  0  0  0  0
    1.2945    0.6073    1.9976 H   0  0  0  0  0  0  0  0  0  0  0  0
  1  2  1  0
  2  3  1  0
  3  4  1  0
  4  5  2  0
  5  6  1  0
  5  7  1  0
  7  8  2  0
  8  9  1  0
  9 10  1  0
 10 11  1  0
 11 12  2  0
 11 13  1  0
 13 14  2  0
 14 15  1  0
 15 16  2  0
 16 17  1  0
 17 18  2  0
 18 19  1  0
 19 20  2  0
 20 21  1  0
 21 22  2  0
  9  3  2  0
 22 13  1  0
 22 17  1  0
  1 23  1  0
  1 24  1  0
  1 25  1  0
  4 26  1  0
  6 27  1  0
  6 28  1  0
  6 29  1  0
  7 30  1  0
  8 31  1  0
 10 32  1  0
 14 33  1  0
 15 34  1  0
 16 35  1  0
 18 36  1  0
 20 37  1  0
 21 38  1  0
M  END
$$$$
OCNT-2311975
     RDKit          3D

 41 43  0  0  0  0  0  0  0  0999 V2000
    7.0976   -1.9841    1.3512 C   0  0  0  0  0  0  0  0  0  0  0  0
    6.4124   -2.4903   -0.2490 S   0  0  0  0  0  0  0  0  0  0  0  0
    5.2368   -1.1767   -0.5147 C   0  0  0  0  0  0  0  0  0  0  0  0
    3.9021   -1.5022   -0.7708 C   0  0  0  0  0  0  0  0  0  0  0  0
    2.9501   -0.4990   -0.9948 C   0  0  0  0  0  0  0  0  0  0  0  0
    3.3280    0.8423   -0.9746 C   0  0  0  0  0  0  0  0  0  0  0  0
    2.5128    1.9208   -1.1698 O   0  0  0  0  0  0  0  0  0  0  0  0
    1.1395    1.6954   -1.4792 C   0  0  0  0  0  0  0  0  0  0  0  0
    0.2972    1.5488   -0.2158 C   0  0  0  0  0  0  0  0  0  0  0  0
   -1.0729    1.3521   -0.5951 O   0  0  0  0  0  0  0  0  0  0  0  0
   -1.9214    1.1868    0.4522 C   0  0  0  0  0  0  0  0  0  0  0  0
   -1.6101    1.1932    1.6301 O   0  0  0  0  0  0  0  0  0  0  0  0
   -3.2906    0.9656   -0.0607 C   0  0  0  0  0  0  0  0  0  0  0  0
   -3.7181    1.7229   -1.1483 C   0  0  0  0  0  0  0  0  0  0  0  0
   -4.9478    1.6334   -1.7008 N   0  0  0  0  0  0  0  0  0  0  0  0
   -5.7939    0.7457   -1.1336 C   0  0  0  0  0  0  0  0  0  0  0  0
   -5.4819   -0.0662   -0.0398 C   0  0  0  0  0  0  0  0  0  0  0  0
   -6.4217   -0.9691    0.4892 C   0  0  0  0  0  0  0  0  0  0  0  0
   -6.0979   -1.7782    1.5759 C   0  0  0  0  0  0  0  0  0  0  0  0
   -4.8331   -1.6948    2.1438 C   0  0  0  0  0  0  0  0  0  0  0  0
   -3.8911   -0.8012    1.6267 C   0  0  0  0  0  0  0  0  0  0  0  0
   -4.1893    0.0396    0.5256 C   0  0  0  0  0  0  0  0  0  0  0  0
    4.6651    1.1663   -0.7314 C   0  0  0  0  0  0  0  0  0  0  0  0
    5.6162    0.1662   -0.5080 C   0  0  0  0  0  0  0  0  0  0  0  0
    6.2983   -1.8411    2.0837 H   0  0  0  0  0  0  0  0  0  0  0  0
    7.6745   -1.0608    1.2551 H   0  0  0  0  0  0  0  0  0  0  0  0
    7.7657   -2.7689    1.7163 H   0  0  0  0  0  0  0  0  0  0  0  0
    3.5876   -2.5435   -0.7951 H   0  0  0  0  0  0  0  0  0  0  0  0
    1.9278   -0.8101   -1.1788 H   0  0  0  0  0  0  0  0  0  0  0  0
    0.7896    2.5809   -2.0244 H   0  0  0  0  0  0  0  0  0  0  0  0
    0.9920    0.8668   -2.1822 H   0  0  0  0  0  0  0  0  0  0  0  0
    0.6426    0.6973    0.3812 H   0  0  0  0  0  0  0  0  0  0  0  0
    0.3894    2.4546    0.3959 H   0  0  0  0  0  0  0  0  0  0  0  0
   -3.0700    2.4567   -1.6213 H   0  0  0  0  0  0  0  0  0  0  0  0
   -6.7740    0.7020   -1.6038 H   0  0  0  0  0  0  0  0  0  0  0  0
   -7.4167   -1.0482    0.0551 H   0  0  0  0  0  0  0  0  0  0  0  0
   -6.8317   -2.4720    1.9783 H   0  0  0  0  0  0  0  0  0  0  0  0
   -4.5737   -2.3226    2.9930 H   0  0  0  0  0  0  0  0  0  0  0  0
   -2.9134   -0.7705    2.1048 H   0  0  0  0  0  0  0  0  0  0  0  0
    4.9728    2.2094   -0.7225 H   0  0  0  0  0  0  0  0  0  0  0  0
    6.6511    0.4528   -0.3436 H   0  0  0  0  0  0  0  0  0  0  0  0
  1  2  1  0
  2  3  1  0
  3  4  1  0
  4  5  2  0
  5  6  1  0
  6  7  1  0
  7  8  1  0
  8  9  1  0
  9 10  1  0
 10 11  1  0
 11 12  2  0
 11 13  1  0
 13 14  1  0
 14 15  2  0
 15 16  1  0
 16 17  2  0
 17 18  1  0
 18 19  2  0
 19 20  1  0
 20 21  2  0
 21 22  1  0
  6 23  2  0
 23 24  1  0
 24  3  2  0
 22 13  2  0
 22 17  1  0
  1 25  1  0
  1 26  1  0
  1 27  1  0
  4 28  1  0
  5 29  1  0
  8 30  1  0
  8 31  1  0
  9 32  1  0
  9 33  1  0
 14 34  1  0
 16 35  1  0
 18 36  1  0
 19 37  1  0
 20 38  1  0
 21 39  1  0
 23 40  1  0
 24 41  1  0
M  END
$$$$
OCNT-2311984
     RDKit          3D

 44 46  0  0  0  0  0  0  0  0999 V2000
    7.2954   -0.7866    1.2704 C   0  0  0  0  0  0  0  0  0  0  0  0
    6.5363   -0.0902    0.1725 C   0  0  0  0  0  0  0  0  0  0  0  0
    7.2205    0.5095   -0.9094 C   0  0  0  0  0  0  0  0  0  0  0  0
    8.9496    0.4609   -1.0122 Cl  0  0  0  0  0  0  0  0  0  0  0  0
    6.5419    1.1661   -1.9382 C   0  0  0  0  0  0  0  0  0  0  0  0
    5.1504    1.2562   -1.9395 C   0  0  0  0  0  0  0  0  0  0  0  0
    4.4708    0.6601   -0.8749 C   0  0  0  0  0  0  0  0  0  0  0  0
    5.1194   -0.0001    0.1678 C   0  0  0  0  0  0  0  0  0  0  0  0
    4.0956   -0.4518    1.0504 C   0  0  0  0  0  0  0  0  0  0  0  0
    2.8601   -0.0978    0.5344 C   0  0  0  0  0  0  0  0  0  0  0  0
    1.5544   -0.3565    1.1157 C   0  0  0  0  0  0  0  0  0  0  0  0
    1.4132   -0.5712    2.3149 O   0  0  0  0  0  0  0  0  0  0  0  0
    0.5210   -0.3633    0.1960 N   0  0  0  0  0  0  0  0  0  0  0  0
   -0.8088   -0.5441    0.5277 C   0  0  0  0  0  0  0  0  0  0  0  0
   -1.8235   -0.6194   -0.3979 C   0  0  0  0  0  0  0  0  0  0  0  0
   -2.9761   -0.7940    0.3166 N   0  0  0  0  0  0  0  0  0  0  0  0
   -4.3193   -0.9387   -0.2178 C   0  0  0  0  0  0  0  0  0  0  0  0
   -5.1460    0.3355   -0.0111 C   0  0  0  0  0  0  0  0  0  0  0  0
   -6.4537    0.3074   -0.7037 N   0  0  0  0  0  0  0  0  0  0  0  0
   -7.0688    1.6384   -0.6544 C   0  0  0  0  0  0  0  0  0  0  0  0
   -7.3632   -0.6715   -0.0996 C   0  0  0  0  0  0  0  0  0  0  0  0
   -2.7800   -0.8326    1.6467 N   0  0  0  0  0  0  0  0  0  0  0  0
   -1.4568   -0.6837    1.7747 C   0  0  0  0  0  0  0  0  0  0  0  0
    3.1188    0.6046   -0.6200 N   0  0  0  0  0  0  0  0  0  0  0  0
    6.6241   -1.1975    2.0300 H   0  0  0  0  0  0  0  0  0  0  0  0
    7.9676   -0.0842    1.7736 H   0  0  0  0  0  0  0  0  0  0  0  0
    7.8763   -1.6202    0.8626 H   0  0  0  0  0  0  0  0  0  0  0  0
    7.1004    1.6193   -2.7545 H   0  0  0  0  0  0  0  0  0  0  0  0
    4.6273    1.7710   -2.7387 H   0  0  0  0  0  0  0  0  0  0  0  0
    4.2356   -0.9961    1.9771 H   0  0  0  0  0  0  0  0  0  0  0  0
    0.7325   -0.3378   -0.7890 H   0  0  0  0  0  0  0  0  0  0  0  0
   -1.8336   -0.5682   -1.4770 H   0  0  0  0  0  0  0  0  0  0  0  0
   -4.2255   -1.1738   -1.2843 H   0  0  0  0  0  0  0  0  0  0  0  0
   -4.7661   -1.8046    0.2826 H   0  0  0  0  0  0  0  0  0  0  0  0
   -5.2798    0.5312    1.0614 H   0  0  0  0  0  0  0  0  0  0  0  0
   -4.5604    1.1767   -0.4069 H   0  0  0  0  0  0  0  0  0  0  0  0
   -7.2525    1.9717    0.3735 H   0  0  0  0  0  0  0  0  0  0  0  0
   -6.4281    2.3772   -1.1486 H   0  0  0  0  0  0  0  0  0  0  0  0
   -8.0219    1.6424   -1.1952 H   0  0  0  0  0  0  0  0  0  0  0  0
   -8.3347   -0.6562   -0.6069 H   0  0  0  0  0  0  0  0  0  0  0  0
   -7.5301   -0.4788    0.9663 H   0  0  0  0  0  0  0  0  0  0  0  0
   -6.9791   -1.6899   -0.2137 H   0  0  0  0  0  0  0  0  0  0  0  0
   -1.0266   -0.6824    2.7685 H   0  0  0  0  0  0  0  0  0  0  0  0
    2.4230    1.0630   -1.1903 H   0  0  0  0  0  0  0  0  0  0  0  0
  1  2  1  0
  2  3  1  0
  3  4  1  0
  3  5  2  0
  5  6  1  0
  6  7  2  0
  7  8  1  0
  8  9  1  0
  9 10  2  0
 10 11  1  0
 11 12  2  0
 11 13  1  0
 13 14  1  0
 14 15  2  0
 15 16  1  0
 16 17  1  0
 17 18  1  0
 18 19  1  0
 19 20  1  0
 19 21  1  0
 16 22  1  0
 22 23  2  0
 10 24  1  0
  8  2  2  0
 23 14  1  0
 24  7  1  0
  1 25  1  0
  1 26  1  0
  1 27  1  0
  5 28  1  0
  6 29  1  0
  9 30  1  0
 13 31  1  0
 15 32  1  0
 17 33  1  0
 17 34  1  0
 18 35  1  0
 18 36  1  0
 20 37  1  0
 20 38  1  0
 20 39  1  0
 21 40  1  0
 21 41  1  0
 21 42  1  0
 23 43  1  0
 24 44  1  0
M  END
$$$$
OCNT-2311985
     RDKit          3D

 36 38  0  0  0  0  0  0  0  0999 V2000
   -5.7484   -2.2316    0.5016 C   0  0  0  0  0  0  0  0  0  0  0  0
   -4.7639   -1.6700   -0.3679 O   0  0  0  0  0  0  0  0  0  0  0  0
   -4.0727   -0.6387    0.1790 C   0  0  0  0  0  0  0  0  0  0  0  0
   -4.2347   -0.1857    1.3008 O   0  0  0  0  0  0  0  0  0  0  0  0
   -3.0625   -0.1144   -0.7807 C   0  0  0  0  0  0  0  0  0  0  0  0
   -2.9692   -0.5776   -2.0990 C   0  0  0  0  0  0  0  0  0  0  0  0
   -2.0094   -0.0471   -2.9628 C   0  0  0  0  0  0  0  0  0  0  0  0
   -1.1376    0.9478   -2.5181 C   0  0  0  0  0  0  0  0  0  0  0  0
   -1.2142    1.4252   -1.2018 C   0  0  0  0  0  0  0  0  0  0  0  0
   -0.2669    2.4940   -0.7138 C   0  0  0  0  0  0  0  0  0  0  0  0
    0.7495    1.9497    0.1677 N   0  0  0  0  0  0  0  0  0  0  0  0
    1.7831    1.1145   -0.1491 C   0  0  0  0  0  0  0  0  0  0  0  0
    2.4555    0.9512    1.0423 C   0  0  0  0  0  0  0  0  0  0  0  0
    3.6353    0.1474    1.2858 C   0  0  0  0  0  0  0  0  0  0  0  0
    4.2366   -0.6395    0.2984 C   0  0  0  0  0  0  0  0  0  0  0  0
    5.3731   -1.3899    0.6015 C   0  0  0  0  0  0  0  0  0  0  0  0
    5.8782   -1.3314    1.8893 C   0  0  0  0  0  0  0  0  0  0  0  0
    5.3313   -0.5874    2.8717 N   0  0  0  0  0  0  0  0  0  0  0  0
    4.2253    0.1310    2.5480 C   0  0  0  0  0  0  0  0  0  0  0  0
    1.8296    1.6954    2.0111 N   0  0  0  0  0  0  0  0  0  0  0  0
    0.7901    2.3085    1.4622 N   0  0  0  0  0  0  0  0  0  0  0  0
   -2.1829    0.8853   -0.3385 C   0  0  0  0  0  0  0  0  0  0  0  0
   -6.5028   -1.4823    0.7613 H   0  0  0  0  0  0  0  0  0  0  0  0
   -6.2420   -3.0499   -0.0299 H   0  0  0  0  0  0  0  0  0  0  0  0
   -5.2777   -2.6378    1.4024 H   0  0  0  0  0  0  0  0  0  0  0  0
   -3.6398   -1.3497   -2.4688 H   0  0  0  0  0  0  0  0  0  0  0  0
   -1.9436   -0.4105   -3.9860 H   0  0  0  0  0  0  0  0  0  0  0  0
   -0.3988    1.3466   -3.2110 H   0  0  0  0  0  0  0  0  0  0  0  0
    0.2566    2.9770   -1.5469 H   0  0  0  0  0  0  0  0  0  0  0  0
   -0.8181    3.2746   -0.1767 H   0  0  0  0  0  0  0  0  0  0  0  0
    1.9280    0.7271   -1.1456 H   0  0  0  0  0  0  0  0  0  0  0  0
    3.8356   -0.6847   -0.7094 H   0  0  0  0  0  0  0  0  0  0  0  0
    5.8523   -2.0068   -0.1506 H   0  0  0  0  0  0  0  0  0  0  0  0
    6.7606   -1.8978    2.1730 H   0  0  0  0  0  0  0  0  0  0  0  0
    3.8161    0.7147    3.3701 H   0  0  0  0  0  0  0  0  0  0  0  0
   -2.2515    1.2423    0.6904 H   0  0  0  0  0  0  0  0  0  0  0  0
  1  2  1  0
  2  3  1  0
  3  4  2  0
  3  5  1  0
  5  6  1  0
  6  7  2  0
  7  8  1  0
  8  9  2  0
  9 10  1  0
 10 11  1  0
 11 12  1  0
 12 13  2  0
 13 14  1  0
 14 15  1  0
 15 16  2  0
 16 17  1  0
 17 18  2  0
 18 19  1  0
 13 20  1  0
 20 21  2  0
  9 22  1  0
 22  5  2  0
 21 11  1  0
 19 14  2  0
  1 23  1  0
  1 24  1  0
  1 25  1  0
  6 26  1  0
  7 27  1  0
  8 28  1  0
 10 29  1  0
 10 30  1  0
 12 31  1  0
 15 32  1  0
 16 33  1  0
 17 34  1  0
 19 35  1  0
 22 36  1  0
M  END
$$$$
OCNT-2311998
     RDKit          3D

 38 40  0  0  0  0  0  0  0  0999 V2000
   -2.8916   -2.1770    0.7310 C   0  0  0  0  0  0  0  0  0  0  0  0
   -2.0859   -0.9592    0.2712 C   0  0  0  0  0  0  0  0  0  0  0  0
   -0.9284   -0.7060    1.2468 C   0  0  0  0  0  0  0  0  0  0  0  0
   -0.9401    0.1575    2.1193 O   0  0  0  0  0  0  0  0  0  0  0  0
    0.1319   -1.5784    1.0812 N   0  0  0  0  0  0  0  0  0  0  0  0
    1.3639   -1.4193    1.8209 C   0  0  0  0  0  0  0  0  0  0  0  0
    2.3874   -0.6827    0.9921 C   0  0  0  0  0  0  0  0  0  0  0  0
    2.3534    0.7213    0.9241 C   0  0  0  0  0  0  0  0  0  0  0  0
    3.2701    1.4427    0.1439 C   0  0  0  0  0  0  0  0  0  0  0  0
    4.2362    0.7327   -0.5876 C   0  0  0  0  0  0  0  0  0  0  0  0
    5.3003    1.0722   -1.4641 C   0  0  0  0  0  0  0  0  0  0  0  0
    5.8749   -0.1151   -1.8562 C   0  0  0  0  0  0  0  0  0  0  0  0
    5.2373   -1.1687   -1.2820 O   0  0  0  0  0  0  0  0  0  0  0  0
    4.2412   -0.6544   -0.5083 C   0  0  0  0  0  0  0  0  0  0  0  0
    3.3463   -1.4003    0.2564 C   0  0  0  0  0  0  0  0  0  0  0  0
   -2.9710    0.2579    0.0438 C   0  0  0  0  0  0  0  0  0  0  0  0
   -3.0043    0.8720   -1.2192 C   0  0  0  0  0  0  0  0  0  0  0  0
   -3.8171    1.9848   -1.4511 C   0  0  0  0  0  0  0  0  0  0  0  0
   -4.6015    2.4952   -0.4202 C   0  0  0  0  0  0  0  0  0  0  0  0
   -5.6994    4.0018   -0.7334 Br  0  0  0  0  0  0  0  0  0  0  0  0
   -4.5793    1.9050    0.8402 C   0  0  0  0  0  0  0  0  0  0  0  0
   -3.7675    0.7915    1.0700 C   0  0  0  0  0  0  0  0  0  0  0  0
   -3.7235   -2.3803    0.0478 H   0  0  0  0  0  0  0  0  0  0  0  0
   -3.3057   -2.0338    1.7353 H   0  0  0  0  0  0  0  0  0  0  0  0
   -2.2613   -3.0722    0.7684 H   0  0  0  0  0  0  0  0  0  0  0  0
   -1.6316   -1.2206   -0.6950 H   0  0  0  0  0  0  0  0  0  0  0  0
    0.1671   -2.1516    0.2497 H   0  0  0  0  0  0  0  0  0  0  0  0
    1.1895   -0.8942    2.7667 H   0  0  0  0  0  0  0  0  0  0  0  0
    1.7253   -2.4233    2.0696 H   0  0  0  0  0  0  0  0  0  0  0  0
    1.5957    1.2700    1.4854 H   0  0  0  0  0  0  0  0  0  0  0  0
    3.2252    2.5271    0.1087 H   0  0  0  0  0  0  0  0  0  0  0  0
    5.6090    2.0610   -1.7711 H   0  0  0  0  0  0  0  0  0  0  0  0
    6.7012   -0.3685   -2.5056 H   0  0  0  0  0  0  0  0  0  0  0  0
    3.4034   -2.4821    0.2728 H   0  0  0  0  0  0  0  0  0  0  0  0
   -2.3966    0.4903   -2.0369 H   0  0  0  0  0  0  0  0  0  0  0  0
   -3.8280    2.4450   -2.4354 H   0  0  0  0  0  0  0  0  0  0  0  0
   -5.1806    2.3045    1.6522 H   0  0  0  0  0  0  0  0  0  0  0  0
   -3.7459    0.3552    2.0671 H   0  0  0  0  0  0  0  0  0  0  0  0
  1  2  1  0
  2  3  1  0
  3  4  2  0
  3  5  1  0
  5  6  1  0
  6  7  1  0
  7  8  2  0
  8  9  1  0
  9 10  2  0
 10 11  1  0
 11 12  2  0
 12 13  1  0
 13 14  1  0
 14 15  2  0
  2 16  1  0
 16 17  1  0
 17 18  2  0
 18 19  1  0
 19 20  1  0
 19 21  2  0
 21 22  1  0
 15  7  1  0
 22 16  2  0
 14 10  1  0
  1 23  1  0
  1 24  1  0
  1 25  1  0
  2 26  1  0
  5 27  1  0
  6 28  1  0
  6 29  1  0
  8 30  1  0
  9 31  1  0
 11 32  1  0
 12 33  1  0
 15 34  1  0
 17 35  1  0
 18 36  1  0
 21 37  1  0
 22 38  1  0
M  END
$$$$
OCNT-2312004
     RDKit          3D

 44 48  0  0  0  0  0  0  0  0999 V2000
   -2.6024    2.3727    2.3711 O   0  0  0  0  0  0  0  0  0  0  0  0
   -2.1980    0.9950    2.1958 S   0  0  0  0  0  0  0  0  0  0  0  0
   -2.9265   -0.0818    2.8338 O   0  0  0  0  0  0  0  0  0  0  0  0
   -0.5863    0.7984    2.6888 N   0  0  0  0  0  0  0  0  0  0  0  0
    0.4064    1.5801    2.0320 C   0  0  0  0  0  0  0  0  0  0  0  0
    0.4632    2.9625    2.2295 C   0  0  0  0  0  0  0  0  0  0  0  0
    1.4016    3.7482    1.5404 C   0  0  0  0  0  0  0  0  0  0  0  0
    2.2920    3.1633    0.6394 C   0  0  0  0  0  0  0  0  0  0  0  0
    2.2291    1.7922    0.4563 C   0  0  0  0  0  0  0  0  0  0  0  0
    1.3012    1.0050    1.1447 C   0  0  0  0  0  0  0  0  0  0  0  0
    1.4552   -0.4153    0.7030 C   0  0  0  0  0  0  0  0  0  0  0  0
    2.7246   -0.4471   -0.0494 N   0  0  0  0  0  0  0  0  0  0  0  0
    2.8349   -1.5439   -1.0118 C   0  0  0  0  0  0  0  0  0  0  0  0
    2.1569   -1.4975   -2.3532 C   0  0  0  0  0  0  0  0  0  0  0  0
    3.6571   -1.4477   -2.2662 C   0  0  0  0  0  0  0  0  0  0  0  0
    3.0253    0.9315   -0.4758 C   0  0  0  0  0  0  0  0  0  0  0  0
   -2.2718    0.6311    0.4466 C   0  0  0  0  0  0  0  0  0  0  0  0
   -2.4002   -0.5401   -0.2772 C   0  0  0  0  0  0  0  0  0  0  0  0
   -2.5594   -1.9490    0.3655 C   0  0  0  0  0  0  0  0  0  0  0  0
   -3.4193   -2.9929   -0.3026 C   0  0  0  0  0  0  0  0  0  0  0  0
   -3.8943   -2.3282    0.9529 C   0  0  0  0  0  0  0  0  0  0  0  0
   -2.3216   -0.3447   -1.6839 C   0  0  0  0  0  0  0  0  0  0  0  0
   -2.1662    0.9845   -2.0030 C   0  0  0  0  0  0  0  0  0  0  0  0
   -2.0979    1.9741   -0.6120 S   0  0  0  0  0  0  0  0  0  0  0  0
   -0.3737   -0.1875    2.8237 H   0  0  0  0  0  0  0  0  0  0  0  0
   -0.2251    3.4465    2.9196 H   0  0  0  0  0  0  0  0  0  0  0  0
    1.4245    4.8228    1.7066 H   0  0  0  0  0  0  0  0  0  0  0  0
    3.0085    3.7714    0.0963 H   0  0  0  0  0  0  0  0  0  0  0  0
    1.5100   -1.0955    1.5584 H   0  0  0  0  0  0  0  0  0  0  0  0
    0.6082   -0.6886    0.0654 H   0  0  0  0  0  0  0  0  0  0  0  0
    2.8533   -2.5209   -0.5278 H   0  0  0  0  0  0  0  0  0  0  0  0
    1.6307   -0.5987   -2.6496 H   0  0  0  0  0  0  0  0  0  0  0  0
    1.7008   -2.4106   -2.7187 H   0  0  0  0  0  0  0  0  0  0  0  0
    4.1537   -0.5190   -2.5158 H   0  0  0  0  0  0  0  0  0  0  0  0
    4.2129   -2.3283   -2.5696 H   0  0  0  0  0  0  0  0  0  0  0  0
    4.0968    1.1324   -0.3821 H   0  0  0  0  0  0  0  0  0  0  0  0
    2.6938    1.1403   -1.4983 H   0  0  0  0  0  0  0  0  0  0  0  0
   -1.6746   -2.3086    0.8823 H   0  0  0  0  0  0  0  0  0  0  0  0
   -3.1020   -4.0275   -0.2378 H   0  0  0  0  0  0  0  0  0  0  0  0
   -3.9450   -2.7518   -1.2189 H   0  0  0  0  0  0  0  0  0  0  0  0
   -4.7150   -1.6230    0.8799 H   0  0  0  0  0  0  0  0  0  0  0  0
   -3.8931   -2.9000    1.8742 H   0  0  0  0  0  0  0  0  0  0  0  0
   -2.3807   -1.1294   -2.4282 H   0  0  0  0  0  0  0  0  0  0  0  0
   -2.0876    1.4256   -2.9875 H   0  0  0  0  0  0  0  0  0  0  0  0
  1  2  2  0
  2  3  2  0
  2  4  1  0
  4  5  1  0
  5  6  1  0
  6  7  2  0
  7  8  1  0
  8  9  2  0
  9 10  1  0
 10 11  1  0
 11 12  1  0
 12 13  1  0
 13 14  1  0
 14 15  1  0
 12 16  1  0
  2 17  1  0
 17 18  2  0
 18 19  1  0
 19 20  1  0
 20 21  1  0
 18 22  1  0
 22 23  2  0
 23 24  1  0
 10  5  2  0
 15 13  1  0
 24 17  1  0
 16  9  1  0
 21 19  1  0
  4 25  1  0
  6 26  1  0
  7 27  1  0
  8 28  1  0
 11 29  1  0
 11 30  1  0
 13 31  1  0
 14 32  1  0
 14 33  1  0
 15 34  1  0
 15 35  1  0
 16 36  1  0
 16 37  1  0
 19 38  1  0
 20 39  1  0
 20 40  1  0
 21 41  1  0
 21 42  1  0
 22 43  1  0
 23 44  1  0
M  END
$$$$
OCNT-2312009
     RDKit          3D

 38 41  0  0  0  0  0  0  0  0999 V2000
   -6.4209   -0.6378   -1.8862 C   0  0  0  0  0  0  0  0  0  0  0  0
   -5.1245   -0.5315   -1.1383 C   0  0  0  0  0  0  0  0  0  0  0  0
   -4.7514   -1.5362   -0.2374 C   0  0  0  0  0  0  0  0  0  0  0  0
   -3.5530   -1.4463    0.4786 C   0  0  0  0  0  0  0  0  0  0  0  0
   -2.7127   -0.3396    0.3034 C   0  0  0  0  0  0  0  0  0  0  0  0
   -1.5020   -0.2070    1.0415 N   0  0  0  0  0  0  0  0  0  0  0  0
   -0.9914   -1.0580    1.9983 C   0  0  0  0  0  0  0  0  0  0  0  0
    0.1625   -0.4890    2.4749 C   0  0  0  0  0  0  0  0  0  0  0  0
    0.3096    0.7076    1.7444 C   0  0  0  0  0  0  0  0  0  0  0  0
    1.3792    1.7379    1.8732 C   0  0  0  0  0  0  0  0  0  0  0  0
    2.6706    1.1884    1.5145 N   0  0  0  0  0  0  0  0  0  0  0  0
    3.2370    1.1212    0.2753 C   0  0  0  0  0  0  0  0  0  0  0  0
    4.4649    0.5583    0.5163 C   0  0  0  0  0  0  0  0  0  0  0  0
    5.5603    0.2261   -0.5238 C   0  0  0  0  0  0  0  0  0  0  0  0
    5.3798   -1.0016   -1.3805 C   0  0  0  0  0  0  0  0  0  0  0  0
    5.3208    0.3610   -2.0045 C   0  0  0  0  0  0  0  0  0  0  0  0
    4.6121    0.3203    1.8539 N   0  0  0  0  0  0  0  0  0  0  0  0
    3.5051    0.7201    2.4640 N   0  0  0  0  0  0  0  0  0  0  0  0
   -0.6920    0.8741    0.8714 N   0  0  0  0  0  0  0  0  0  0  0  0
   -3.0829    0.6655   -0.6024 C   0  0  0  0  0  0  0  0  0  0  0  0
   -4.2814    0.5698   -1.3142 C   0  0  0  0  0  0  0  0  0  0  0  0
   -6.4626   -1.5791   -2.4440 H   0  0  0  0  0  0  0  0  0  0  0  0
   -7.2625   -0.5970   -1.1864 H   0  0  0  0  0  0  0  0  0  0  0  0
   -6.5386    0.1803   -2.6033 H   0  0  0  0  0  0  0  0  0  0  0  0
   -5.3977   -2.3988   -0.0875 H   0  0  0  0  0  0  0  0  0  0  0  0
   -3.3128   -2.2541    1.1645 H   0  0  0  0  0  0  0  0  0  0  0  0
   -1.4838   -1.9769    2.2750 H   0  0  0  0  0  0  0  0  0  0  0  0
    0.8082   -0.8798    3.2484 H   0  0  0  0  0  0  0  0  0  0  0  0
    1.4377    2.1123    2.9009 H   0  0  0  0  0  0  0  0  0  0  0  0
    1.1958    2.5953    1.2135 H   0  0  0  0  0  0  0  0  0  0  0  0
    2.7321    1.4542   -0.6201 H   0  0  0  0  0  0  0  0  0  0  0  0
    6.5657    0.4313   -0.1696 H   0  0  0  0  0  0  0  0  0  0  0  0
    6.2550   -1.6142   -1.5654 H   0  0  0  0  0  0  0  0  0  0  0  0
    4.4572   -1.5639   -1.2950 H   0  0  0  0  0  0  0  0  0  0  0  0
    6.1575    0.6743   -2.6191 H   0  0  0  0  0  0  0  0  0  0  0  0
    4.3605    0.7085   -2.3624 H   0  0  0  0  0  0  0  0  0  0  0  0
   -2.4513    1.5380   -0.7609 H   0  0  0  0  0  0  0  0  0  0  0  0
   -4.5502    1.3663   -2.0053 H   0  0  0  0  0  0  0  0  0  0  0  0
  1  2  1  0
  2  3  1  0
  3  4  2  0
  4  5  1  0
  5  6  1  0
  6  7  1  0
  7  8  2  0
  8  9  1  0
  9 10  1  0
 10 11  1  0
 11 12  1  0
 12 13  2  0
 13 14  1  0
 14 15  1  0
 15 16  1  0
 13 17  1  0
 17 18  2  0
  9 19  2  0
  5 20  2  0
 20 21  1  0
 21  2  2  0
 19  6  1  0
 18 11  1  0
 16 14  1  0
  1 22  1  0
  1 23  1  0
  1 24  1  0
  3 25  1  0
  4 26  1  0
  7 27  1  0
  8 28  1  0
 10 29  1  0
 10 30  1  0
 12 31  1  0
 14 32  1  0
 15 33  1  0
 15 34  1  0
 16 35  1  0
 16 36  1  0
 20 37  1  0
 21 38  1  0
M  END
$$$$
OCNT-2312011
     RDKit          3D

 39 41  0  0  0  0  0  0  0  0999 V2000
    4.1397   -1.1161    0.9869 C   0  0  0  0  0  0  0  0  0  0  0  0
    3.6039   -1.3399   -0.3109 O   0  0  0  0  0  0  0  0  0  0  0  0
    2.6192   -0.3721   -0.6855 C   0  0  0  0  0  0  0  0  0  0  0  0
    1.2648   -0.6197   -0.0054 C   0  0  0  0  0  0  0  0  0  0  0  0
    0.1840    0.2357   -0.5739 N   0  0  0  0  0  0  0  0  0  0  0  0
   -1.1605   -0.3676   -0.3217 C   0  0  0  0  0  0  0  0  0  0  0  0
   -1.5634   -1.4725   -1.2516 C   0  0  0  0  0  0  0  0  0  0  0  0
   -1.0952   -1.6701   -2.5400 C   0  0  0  0  0  0  0  0  0  0  0  0
   -1.8478   -3.0507   -3.2067 S   0  0  0  0  0  0  0  0  0  0  0  0
   -2.7787   -3.3942   -1.8800 N   0  0  0  0  0  0  0  0  0  0  0  0
   -2.5233   -2.4857   -0.9429 C   0  0  0  0  0  0  0  0  0  0  0  0
   -3.1703   -2.5441    0.2488 O   0  0  0  0  0  0  0  0  0  0  0  0
   -4.0804   -3.6308    0.3810 C   0  0  0  0  0  0  0  0  0  0  0  0
    0.2963    1.6356   -0.3885 C   0  0  0  0  0  0  0  0  0  0  0  0
    0.6609    2.4472   -1.3975 C   0  0  0  0  0  0  0  0  0  0  0  0
    0.7430    3.8967   -1.0893 C   0  0  0  0  0  0  0  0  0  0  0  0
    0.4984    4.4567    0.0556 N   0  0  0  0  0  0  0  0  0  0  0  0
    0.1261    3.6103    1.0618 C   0  0  0  0  0  0  0  0  0  0  0  0
   -0.2062    3.8524    2.3741 C   0  0  0  0  0  0  0  0  0  0  0  0
   -0.4980    2.5943    2.9166 C   0  0  0  0  0  0  0  0  0  0  0  0
   -0.3666    1.6040    2.0343 N   0  0  0  0  0  0  0  0  0  0  0  0
    0.0169    2.2239    0.8775 N   0  0  0  0  0  0  0  0  0  0  0  0
    3.3742   -1.2553    1.7547 H   0  0  0  0  0  0  0  0  0  0  0  0
    4.9335   -1.8483    1.1588 H   0  0  0  0  0  0  0  0  0  0  0  0
    4.5715   -0.1133    1.0593 H   0  0  0  0  0  0  0  0  0  0  0  0
    2.9961    0.6381   -0.4874 H   0  0  0  0  0  0  0  0  0  0  0  0
    2.4948   -0.4576   -1.7710 H   0  0  0  0  0  0  0  0  0  0  0  0
    1.3424   -0.4589    1.0761 H   0  0  0  0  0  0  0  0  0  0  0  0
    1.0156   -1.6809   -0.1324 H   0  0  0  0  0  0  0  0  0  0  0  0
   -1.9290    0.4125   -0.4172 H   0  0  0  0  0  0  0  0  0  0  0  0
   -1.2070   -0.7232    0.7161 H   0  0  0  0  0  0  0  0  0  0  0  0
   -0.3688   -1.0909   -3.0922 H   0  0  0  0  0  0  0  0  0  0  0  0
   -4.5284   -3.5691    1.3777 H   0  0  0  0  0  0  0  0  0  0  0  0
   -4.8924   -3.5621   -0.3513 H   0  0  0  0  0  0  0  0  0  0  0  0
   -3.5640   -4.5945    0.3096 H   0  0  0  0  0  0  0  0  0  0  0  0
    0.8870    2.1026   -2.3955 H   0  0  0  0  0  0  0  0  0  0  0  0
    1.0455    4.5358   -1.9358 H   0  0  0  0  0  0  0  0  0  0  0  0
   -0.2307    4.8162    2.8602 H   0  0  0  0  0  0  0  0  0  0  0  0
   -0.8031    2.3557    3.9276 H   0  0  0  0  0  0  0  0  0  0  0  0
  1  2  1  0
  2  3  1  0
  3  4  1  0
  4  5  1  0
  5  6  1  0
  6  7  1  0
  7  8  2  0
  8  9  1  0
  9 10  1  0
 10 11  2  0
 11 12  1  0
 12 13  1  0
  5 14  1  0
 14 15  2  0
 15 16  1  0
 16 17  2  0
 17 18  1  0
 18 19  2  0
 19 20  1  0
 20 21  2  0
 21 22  1  0
 11  7  1  0
 22 14  1  0
 22 18  1  0
  1 23  1  0
  1 24  1  0
  1 25  1  0
  3 26  1  0
  3 27  1  0
  4 28  1  0
  4 29  1  0
  6 30  1  0
  6 31  1  0
  8 32  1  0
 13 33  1  0
 13 34  1  0
 13 35  1  0
 15 36  1  0
 16 37  1  0
 19 38  1  0
 20 39  1  0
M  END
$$$$
OCNT-2312021
     RDKit          3D

 42 45  0  0  0  0  0  0  0  0999 V2000
    3.2053   -2.6233    0.5881 C   0  0  0  0  0  0  0  0  0  0  0  0
    2.3267   -2.1362   -0.4493 N   0  0  0  0  0  0  0  0  0  0  0  0
    2.4453   -2.3489   -1.7933 C   0  0  0  0  0  0  0  0  0  0  0  0
    1.4186   -1.6478   -2.3782 C   0  0  0  0  0  0  0  0  0  0  0  0
    0.7117   -1.0555   -1.2979 C   0  0  0  0  0  0  0  0  0  0  0  0
   -0.5143   -0.1704   -1.3814 C   0  0  0  0  0  0  0  0  0  0  0  0
   -0.4657    1.1883   -0.8171 N   0  0  0  0  0  0  0  0  0  0  0  0
   -0.5959    1.3199    0.6355 C   0  0  0  0  0  0  0  0  0  0  0  0
   -1.9999    0.9944    1.0537 C   0  0  0  0  0  0  0  0  0  0  0  0
   -2.3190    1.0886    2.5019 C   0  0  0  0  0  0  0  0  0  0  0  0
   -1.3367    1.3930    3.4157 F   0  0  0  0  0  0  0  0  0  0  0  0
   -3.4745    1.7069    2.9174 F   0  0  0  0  0  0  0  0  0  0  0  0
   -2.3647   -0.2317    1.8487 C   0  0  0  0  0  0  0  0  0  0  0  0
   -1.5340   -1.4095    2.1890 C   0  0  0  0  0  0  0  0  0  0  0  0
   -2.8710   -2.0727    2.5831 C   0  0  0  0  0  0  0  0  0  0  0  0
   -3.5764   -1.0627    1.6580 C   0  0  0  0  0  0  0  0  0  0  0  0
    0.5178    1.9843   -1.4069 C   0  0  0  0  0  0  0  0  0  0  0  0
    0.7977    1.8008   -2.7171 N   0  0  0  0  0  0  0  0  0  0  0  0
    1.7391    2.5928   -3.2835 C   0  0  0  0  0  0  0  0  0  0  0  0
    2.3962    3.5793   -2.6028 C   0  0  0  0  0  0  0  0  0  0  0  0
    3.3196    4.3541   -3.1756 F   0  0  0  0  0  0  0  0  0  0  0  0
    2.0414    3.7248   -1.2902 C   0  0  0  0  0  0  0  0  0  0  0  0
    1.1142    2.9492   -0.6811 N   0  0  0  0  0  0  0  0  0  0  0  0
    1.2595   -1.3889   -0.1158 N   0  0  0  0  0  0  0  0  0  0  0  0
    3.8561   -3.3983    0.1721 H   0  0  0  0  0  0  0  0  0  0  0  0
    3.8036   -1.7846    0.9525 H   0  0  0  0  0  0  0  0  0  0  0  0
    2.5940   -3.0450    1.3933 H   0  0  0  0  0  0  0  0  0  0  0  0
    3.2459   -2.9332   -2.2179 H   0  0  0  0  0  0  0  0  0  0  0  0
    1.2227   -1.5432   -3.4377 H   0  0  0  0  0  0  0  0  0  0  0  0
   -1.3357   -0.7214   -0.9037 H   0  0  0  0  0  0  0  0  0  0  0  0
   -0.8302   -0.1088   -2.4316 H   0  0  0  0  0  0  0  0  0  0  0  0
    0.1419    0.7049    1.1618 H   0  0  0  0  0  0  0  0  0  0  0  0
   -0.4352    2.3572    0.9591 H   0  0  0  0  0  0  0  0  0  0  0  0
   -2.7373    1.4249    0.3877 H   0  0  0  0  0  0  0  0  0  0  0  0
   -1.0511   -1.8936    1.3315 H   0  0  0  0  0  0  0  0  0  0  0  0
   -0.8171   -1.3153    3.0093 H   0  0  0  0  0  0  0  0  0  0  0  0
   -2.9798   -3.1287    2.3048 H   0  0  0  0  0  0  0  0  0  0  0  0
   -3.1246   -1.9596    3.6450 H   0  0  0  0  0  0  0  0  0  0  0  0
   -3.7189   -1.4083    0.6258 H   0  0  0  0  0  0  0  0  0  0  0  0
   -4.5225   -0.6660    2.0409 H   0  0  0  0  0  0  0  0  0  0  0  0
    1.9421    2.4101   -4.3325 H   0  0  0  0  0  0  0  0  0  0  0  0
    2.5054    4.4801   -0.6611 H   0  0  0  0  0  0  0  0  0  0  0  0
  1  2  1  0
  2  3  1  0
  3  4  2  0
  4  5  1  0
  5  6  1  0
  6  7  1  0
  7  8  1  0
  8  9  1  0
  9 10  1  0
 10 11  1  0
 10 12  1  0
 10 13  1  0
 13 14  1  0
 14 15  1  0
 15 16  1  0
  7 17  1  0
 17 18  2  0
 18 19  1  0
 19 20  2  0
 20 21  1  0
 20 22  1  0
 22 23  2  0
  5 24  2  0
 24  2  1  0
 13  9  1  0
 23 17  1  0
 16 13  1  0
  1 25  1  0
  1 26  1  0
  1 27  1  0
  3 28  1  0
  4 29  1  0
  6 30  1  0
  6 31  1  0
  8 32  1  0
  8 33  1  0
  9 34  1  0
 14 35  1  0
 14 36  1  0
 15 37  1  0
 15 38  1  0
 16 39  1  0
 16 40  1  0
 19 41  1  0
 22 42  1  0
M  END
$$$$
OCNT-2312027
     RDKit          3D

 53 56  0  0  0  0  0  0  0  0999 V2000
   -2.8755    2.2482    0.5093 C   0  0  0  0  0  0  0  0  0  0  0  0
   -3.6957    1.3642    1.2741 O   0  0  0  0  0  0  0  0  0  0  0  0
   -4.6245    0.7227    0.4885 C   0  0  0  0  0  0  0  0  0  0  0  0
   -5.5862    1.4480   -0.2278 C   0  0  0  0  0  0  0  0  0  0  0  0
   -6.5234    0.7903   -1.0219 C   0  0  0  0  0  0  0  0  0  0  0  0
   -6.5353   -0.6041   -1.1168 C   0  0  0  0  0  0  0  0  0  0  0  0
   -5.5853   -1.3157   -0.3740 C   0  0  0  0  0  0  0  0  0  0  0  0
   -4.6378   -0.6906    0.4391 C   0  0  0  0  0  0  0  0  0  0  0  0
   -3.8478   -1.7268    1.0451 C   0  0  0  0  0  0  0  0  0  0  0  0
   -2.7187   -1.5451    2.0138 C   0  0  0  0  0  0  0  0  0  0  0  0
   -1.3654   -1.1449    1.4289 C   0  0  0  0  0  0  0  0  0  0  0  0
   -0.4024   -1.0255    2.1898 O   0  0  0  0  0  0  0  0  0  0  0  0
   -1.3174   -0.9434    0.0715 N   0  0  0  0  0  0  0  0  0  0  0  0
   -0.2367   -0.5559   -0.7223 C   0  0  0  0  0  0  0  0  0  0  0  0
    1.0598   -0.3701   -0.2530 C   0  0  0  0  0  0  0  0  0  0  0  0
    2.0874    0.0227   -1.1244 C   0  0  0  0  0  0  0  0  0  0  0  0
    3.3891    0.2258   -0.6902 N   0  0  0  0  0  0  0  0  0  0  0  0
    4.5323    0.1355   -1.6160 C   0  0  0  0  0  0  0  0  0  0  0  0
    5.8074   -0.3658   -0.8963 C   0  0  0  0  0  0  0  0  0  0  0  0
    6.2214    0.4056    0.2930 N   0  0  0  0  0  0  0  0  0  0  0  0
    7.2652    1.3766   -0.0223 C   0  0  0  0  0  0  0  0  0  0  0  0
    5.0657    1.0723    0.9323 C   0  0  0  0  0  0  0  0  0  0  0  0
    3.7200    0.3338    0.7436 C   0  0  0  0  0  0  0  0  0  0  0  0
    1.7224    0.2153   -2.4590 C   0  0  0  0  0  0  0  0  0  0  0  0
    0.4093    0.0095   -2.8501 C   0  0  0  0  0  0  0  0  0  0  0  0
   -0.5736   -0.3725   -2.0137 N   0  0  0  0  0  0  0  0  0  0  0  0
   -4.3372   -2.9308    0.5751 C   0  0  0  0  0  0  0  0  0  0  0  0
   -5.3791   -2.6715   -0.2728 N   0  0  0  0  0  0  0  0  0  0  0  0
   -1.9593    2.4303    1.0791 H   0  0  0  0  0  0  0  0  0  0  0  0
   -2.5923    1.8171   -0.4580 H   0  0  0  0  0  0  0  0  0  0  0  0
   -3.3810    3.2085    0.3661 H   0  0  0  0  0  0  0  0  0  0  0  0
   -5.6140    2.5318   -0.1610 H   0  0  0  0  0  0  0  0  0  0  0  0
   -7.2595    1.3701   -1.5743 H   0  0  0  0  0  0  0  0  0  0  0  0
   -7.2658   -1.1111   -1.7389 H   0  0  0  0  0  0  0  0  0  0  0  0
   -2.9955   -0.7865    2.7555 H   0  0  0  0  0  0  0  0  0  0  0  0
   -2.5626   -2.4850    2.5587 H   0  0  0  0  0  0  0  0  0  0  0  0
   -2.1663   -1.0270   -0.4722 H   0  0  0  0  0  0  0  0  0  0  0  0
    1.2853   -0.5547    0.7881 H   0  0  0  0  0  0  0  0  0  0  0  0
    4.3233   -0.5693   -2.4299 H   0  0  0  0  0  0  0  0  0  0  0  0
    4.7166    1.1215   -2.0588 H   0  0  0  0  0  0  0  0  0  0  0  0
    5.6164   -1.3922   -0.5549 H   0  0  0  0  0  0  0  0  0  0  0  0
    6.6281   -0.4487   -1.6198 H   0  0  0  0  0  0  0  0  0  0  0  0
    7.5658    1.9253    0.8775 H   0  0  0  0  0  0  0  0  0  0  0  0
    6.9426    2.1012   -0.7788 H   0  0  0  0  0  0  0  0  0  0  0  0
    8.1623    0.8677   -0.3930 H   0  0  0  0  0  0  0  0  0  0  0  0
    5.2716    1.1749    2.0039 H   0  0  0  0  0  0  0  0  0  0  0  0
    4.9414    2.0873    0.5292 H   0  0  0  0  0  0  0  0  0  0  0  0
    3.7692   -0.6658    1.1926 H   0  0  0  0  0  0  0  0  0  0  0  0
    2.9543    0.9131    1.2740 H   0  0  0  0  0  0  0  0  0  0  0  0
    2.4381    0.5468   -3.2021 H   0  0  0  0  0  0  0  0  0  0  0  0
    0.1073    0.1588   -3.8826 H   0  0  0  0  0  0  0  0  0  0  0  0
   -4.0362   -3.9503    0.7798 H   0  0  0  0  0  0  0  0  0  0  0  0
   -5.9280   -3.3716   -0.7531 H   0  0  0  0  0  0  0  0  0  0  0  0
  1  2  1  0
  2  3  1  0
  3  4  1  0
  4  5  2  0
  5  6  1  0
  6  7  2  0
  7  8  1  0
  8  9  1  0
  9 10  1  0
 10 11  1  0
 11 12  2  0
 11 13  1  0
 13 14  1  0
 14 15  2  0
 15 16  1  0
 16 17  1  0
 17 18  1  0
 18 19  1  0
 19 20  1  0
 20 21  1  0
 20 22  1  0
 22 23  1  0
 16 24  2  0
 24 25  1  0
 25 26  2  0
  9 27  2  0
 27 28  1  0
  8  3  2  0
 26 14  1  0
 28  7  1  0
 23 17  1  0
  1 29  1  0
  1 30  1  0
  1 31  1  0
  4 32  1  0
  5 33  1  0
  6 34  1  0
 10 35  1  0
 10 36  1  0
 13 37  1  0
 15 38  1  0
 18 39  1  0
 18 40  1  0
 19 41  1  0
 19 42  1  0
 21 43  1  0
 21 44  1  0
 21 45  1  0
 22 46  1  0
 22 47  1  0
 23 48  1  0
 23 49  1  0
 24 50  1  0
 25 51  1  0
 27 52  1  0
 28 53  1  0
M  END
$$$$
OCNT-2312033
     RDKit          3D

  0  0  0  0  0  0  0  0  0  0999 V3000
M  V30 BEGIN CTAB
M  V30 COUNTS 44 46 0 0 0
M  V30 BEGIN ATOM
M  V30 1 C 6.930768 0.165702 1.234930 0
M  V30 2 O 5.625308 -0.147565 1.703902 0
M  V30 3 C 4.652120 -0.000602 0.779327 0
M  V30 4 N 4.919893 0.430007 -0.453333 0
M  V30 5 N 3.708698 0.436160 -1.045136 0
M  V30 6 C 3.609026 0.850362 -2.424332 0
M  V30 7 C 2.682780 0.029499 -0.219781 0
M  V30 8 N 1.359081 -0.024103 -0.624128 0
M  V30 9 C 0.348613 -0.541907 0.165430 0
M  V30 10 O 0.479768 -1.078407 1.257025 0
M  V30 11 N -0.877429 -0.379035 -0.457952 0
M  V30 12 C -2.106079 -0.801797 0.215063 0 CFG=1
M  V30 13 C -2.733755 0.393881 0.897186 0
M  V30 14 C -2.212792 0.868910 2.112033 0
M  V30 15 C -2.780133 1.975581 2.744486 0
M  V30 16 C -3.874328 2.618637 2.171603 0
M  V30 17 C -4.397736 2.156254 0.964703 0
M  V30 18 C -3.825960 1.055150 0.324777 0
M  V30 19 O -4.424706 0.674533 -0.844586 0
M  V30 20 C -3.723396 -0.303611 -1.614935 0
M  V30 21 C -3.131570 -1.414990 -0.755752 0 CFG=1
M  V30 22 C -2.565762 -2.537506 -1.622022 0
M  V30 23 O -2.112197 -3.623201 -0.827610 0
M  V30 24 C 3.289578 -0.261823 0.984100 0
M  V30 25 H 7.006912 1.218189 0.939703 0
M  V30 26 H 7.629359 0.003321 2.061662 0
M  V30 27 H 7.229953 -0.496057 0.414372 0
M  V30 28 H 4.599365 1.120852 -2.800090 0
M  V30 29 H 3.207167 0.017223 -3.006159 0
M  V30 30 H 2.944190 1.715993 -2.477498 0
M  V30 31 H 1.124250 0.184255 -1.581769 0
M  V30 32 H -0.951437 0.486104 -0.971761 0
M  V30 33 H -1.865184 -1.557862 0.973085 0
M  V30 34 H -1.359372 0.372309 2.573001 0
M  V30 35 H -2.368453 2.331585 3.685676 0
M  V30 36 H -4.321487 3.477401 2.665111 0
M  V30 37 H -5.254796 2.655698 0.520552 0
M  V30 38 H -4.451448 -0.724569 -2.317767 0
M  V30 39 H -2.961476 0.204357 -2.218944 0
M  V30 40 H -3.940460 -1.836154 -0.139773 0
M  V30 41 H -1.728023 -2.192622 -2.236530 0
M  V30 42 H -3.331237 -2.922635 -2.304646 0
M  V30 43 H -2.869978 -3.982374 -0.334661 0
M  V30 44 H 2.822365 -0.615142 1.891444 0
M  V30 END ATOM
M  V30 BEGIN BOND
M  V30 1 1 1 2
M  V30 2 1 2 3
M  V30 3 2 3 4
M  V30 4 1 4 5
M  V30 5 1 5 6
M  V30 6 1 5 7
M  V30 7 1 7 8
M  V30 8 1 8 9
M  V30 9 2 9 10
M  V30 10 1 9 11
M  V30 11 1 11 12
M  V30 12 1 12 13
M  V30 13 2 13 14
M  V30 14 1 14 15
M  V30 15 2 15 16
M  V30 16 1 16 17
M  V30 17 2 17 18
M  V30 18 1 18 19
M  V30 19 1 19 20
M  V30 20 1 20 21
M  V30 21 1 21 22
M  V30 22 1 22 23
M  V30 23 2 7 24
M  V30 24 1 24 3
M  V30 25 1 21 12
M  V30 26 1 18 13
M  V30 27 1 1 25
M  V30 28 1 1 26
M  V30 29 1 1 27
M  V30 30 1 6 28
M  V30 31 1 6 29
M  V30 32 1 6 30
M  V30 33 1 8 31
M  V30 34 1 11 32
M  V30 35 1 12 33 CFG=1
M  V30 36 1 14 34
M  V30 37 1 15 35
M  V30 38 1 16 36
M  V30 39 1 17 37
M  V30 40 1 20 38
M  V30 41 1 20 39
M  V30 42 1 21 40 CFG=1
M  V30 43 1 22 41
M  V30 44 1 22 42
M  V30 45 1 23 43
M  V30 46 1 24 44
M  V30 END BOND
M  V30 BEGIN COLLECTION
M  V30 MDLV30/STERAC1 ATOMS=(2 12 21)
M  V30 END COLLECTION
M  V30 END CTAB
M  END
>  <_CXSMILES_Data>  (534) 
|&1:11,20|

$$$$
OCNT-2312041
     RDKit          3D

 49 51  0  0  0  0  0  0  0  0999 V2000
    5.7949   -3.5090   -0.3958 C   0  0  0  0  0  0  0  0  0  0  0  0
    5.0790   -2.2030   -0.2680 C   0  0  0  0  0  0  0  0  0  0  0  0
    3.7543   -2.0542   -0.4298 C   0  0  0  0  0  0  0  0  0  0  0  0
    3.0362   -0.7386   -0.3017 C   0  0  0  0  0  0  0  0  0  0  0  0
    2.0280   -0.7661    0.8505 C   0  0  0  0  0  0  0  0  0  0  0  0
    1.3705    0.5996    1.0792 C   0  0  0  0  0  0  0  0  0  0  0  0
    0.5458    1.0070   -0.0672 N   0  0  0  0  0  0  0  0  0  0  0  0
    0.8970    2.2775   -0.7152 C   0  0  0  0  0  0  0  0  0  0  0  0
    0.2917    3.5242   -0.1530 C   0  0  0  0  0  0  0  0  0  0  0  0
   -0.6414    4.3682   -0.7281 C   0  0  0  0  0  0  0  0  0  0  0  0
   -0.8659    5.3691    0.1735 N   0  0  0  0  0  0  0  0  0  0  0  0
   -0.1405    5.2456    1.2966 N   0  0  0  0  0  0  0  0  0  0  0  0
    0.5508    4.1191    1.1030 C   0  0  0  0  0  0  0  0  0  0  0  0
   -0.7580    0.5182   -0.1149 C   0  0  0  0  0  0  0  0  0  0  0  0
   -1.6525    0.8956   -1.0886 C   0  0  0  0  0  0  0  0  0  0  0  0
   -2.9123    0.3469   -1.0195 C   0  0  0  0  0  0  0  0  0  0  0  0
   -3.9348    0.7452   -2.0364 C   0  0  0  0  0  0  0  0  0  0  0  0
   -5.1503    0.1259   -1.9211 N   0  0  0  0  0  0  0  0  0  0  0  0
   -3.7107    1.5738   -2.9110 O   0  0  0  0  0  0  0  0  0  0  0  0
   -3.3152   -0.5398   -0.0850 N   0  0  0  0  0  0  0  0  0  0  0  0
   -2.3864   -0.8909    0.8124 C   0  0  0  0  0  0  0  0  0  0  0  0
   -2.7281   -1.8995    1.8840 C   0  0  0  0  0  0  0  0  0  0  0  0
   -2.5693   -3.3778    1.5887 C   0  0  0  0  0  0  0  0  0  0  0  0
   -3.9425   -2.7977    1.7810 C   0  0  0  0  0  0  0  0  0  0  0  0
   -1.1356   -0.3857    0.8116 N   0  0  0  0  0  0  0  0  0  0  0  0
    6.3007   -3.7493    0.5449 H   0  0  0  0  0  0  0  0  0  0  0  0
    6.5498   -3.4440   -1.1864 H   0  0  0  0  0  0  0  0  0  0  0  0
    5.1160   -4.3331   -0.6389 H   0  0  0  0  0  0  0  0  0  0  0  0
    5.6944   -1.3384   -0.0259 H   0  0  0  0  0  0  0  0  0  0  0  0
    3.1393   -2.9178   -0.6752 H   0  0  0  0  0  0  0  0  0  0  0  0
    2.5232   -0.5340   -1.2491 H   0  0  0  0  0  0  0  0  0  0  0  0
    3.7534    0.0767   -0.1457 H   0  0  0  0  0  0  0  0  0  0  0  0
    1.2698   -1.5351    0.6583 H   0  0  0  0  0  0  0  0  0  0  0  0
    2.5413   -1.0567    1.7764 H   0  0  0  0  0  0  0  0  0  0  0  0
    0.7854    0.5905    2.0079 H   0  0  0  0  0  0  0  0  0  0  0  0
    2.1669    1.3343    1.2579 H   0  0  0  0  0  0  0  0  0  0  0  0
    0.6783    2.2151   -1.7891 H   0  0  0  0  0  0  0  0  0  0  0  0
    1.9891    2.3971   -0.6880 H   0  0  0  0  0  0  0  0  0  0  0  0
   -1.1560    4.3455   -1.6789 H   0  0  0  0  0  0  0  0  0  0  0  0
   -1.4944    6.1625    0.0889 H   0  0  0  0  0  0  0  0  0  0  0  0
    1.2199    3.7772    1.8836 H   0  0  0  0  0  0  0  0  0  0  0  0
   -1.4114    1.5868   -1.8822 H   0  0  0  0  0  0  0  0  0  0  0  0
   -5.9038    0.3897   -2.5422 H   0  0  0  0  0  0  0  0  0  0  0  0
   -5.3207   -0.5040   -1.1475 H   0  0  0  0  0  0  0  0  0  0  0  0
   -2.4543   -1.5846    2.8886 H   0  0  0  0  0  0  0  0  0  0  0  0
   -2.1596   -4.0059    2.3722 H   0  0  0  0  0  0  0  0  0  0  0  0
   -2.2756   -3.6773    0.5842 H   0  0  0  0  0  0  0  0  0  0  0  0
   -4.4726   -3.0320    2.6982 H   0  0  0  0  0  0  0  0  0  0  0  0
   -4.5839   -2.7168    0.9091 H   0  0  0  0  0  0  0  0  0  0  0  0
  1  2  1  0
  2  3  2  0
  3  4  1  0
  4  5  1  0
  5  6  1  0
  6  7  1  0
  7  8  1  0
  8  9  1  0
  9 10  2  0
 10 11  1  0
 11 12  1  0
 12 13  2  0
  7 14  1  0
 14 15  1  0
 15 16  2  0
 16 17  1  0
 17 18  1  0
 17 19  2  0
 16 20  1  0
 20 21  2  0
 21 22  1  0
 22 23  1  0
 23 24  1  0
 21 25  1  0
 13  9  1  0
 25 14  2  0
 24 22  1  0
  1 26  1  0
  1 27  1  0
  1 28  1  0
  2 29  1  0
  3 30  1  0
  4 31  1  0
  4 32  1  0
  5 33  1  0
  5 34  1  0
  6 35  1  0
  6 36  1  0
  8 37  1  0
  8 38  1  0
 10 39  1  0
 11 40  1  0
 13 41  1  0
 15 42  1  0
 18 43  1  0
 18 44  1  0
 22 45  1  0
 23 46  1  0
 23 47  1  0
 24 48  1  0
 24 49  1  0
M  END
$$$$
OCNT-2312044
     RDKit          3D

 39 41  0  0  0  0  0  0  0  0999 V2000
   -4.0187   -3.2354   -2.4938 N   0  0  0  0  0  0  0  0  0  0  0  0
   -3.7507   -2.3770   -1.7575 C   0  0  0  0  0  0  0  0  0  0  0  0
   -3.4715   -1.3060   -0.8411 C   0  0  0  0  0  0  0  0  0  0  0  0
   -4.5030   -0.6129   -0.2277 C   0  0  0  0  0  0  0  0  0  0  0  0
   -4.1728    0.4184    0.6525 C   0  0  0  0  0  0  0  0  0  0  0  0
   -5.2375    1.1920    1.3801 C   0  0  0  0  0  0  0  0  0  0  0  0
   -6.4167    1.2321    0.7008 F   0  0  0  0  0  0  0  0  0  0  0  0
   -4.8925    2.4890    1.6050 F   0  0  0  0  0  0  0  0  0  0  0  0
   -5.5224    0.6577    2.5973 F   0  0  0  0  0  0  0  0  0  0  0  0
   -2.8179    0.6907    0.8772 C   0  0  0  0  0  0  0  0  0  0  0  0
   -1.8324   -0.0449    0.2181 C   0  0  0  0  0  0  0  0  0  0  0  0
   -0.4737    0.2595    0.4736 N   0  0  0  0  0  0  0  0  0  0  0  0
   -0.1091    1.5286   -0.1778 C   0  0  0  0  0  0  0  0  0  0  0  0
    1.2830    2.0221    0.2147 C   0  0  0  0  0  0  0  0  0  0  0  0
    2.4028    1.2326   -0.4649 C   0  0  0  0  0  0  0  0  0  0  0  0
    2.8232   -0.0057    0.1967 N   0  0  0  0  0  0  0  0  0  0  0  0
    3.6372   -0.8536   -0.6928 C   0  0  0  0  0  0  0  0  0  0  0  0
    5.0795   -0.4961   -0.9328 C   0  0  0  0  0  0  0  0  0  0  0  0
    4.7358   -1.6952   -0.1011 C   0  0  0  0  0  0  0  0  0  0  0  0
    1.7627   -0.7560    0.8869 C   0  0  0  0  0  0  0  0  0  0  0  0
    0.4089   -0.8872    0.1628 C   0  0  0  0  0  0  0  0  0  0  0  0
   -2.1602   -1.0380   -0.6324 N   0  0  0  0  0  0  0  0  0  0  0  0
   -5.5410   -0.8696   -0.4255 H   0  0  0  0  0  0  0  0  0  0  0  0
   -2.5248    1.4655    1.5828 H   0  0  0  0  0  0  0  0  0  0  0  0
   -0.1851    1.4363   -1.2699 H   0  0  0  0  0  0  0  0  0  0  0  0
   -0.8117    2.3175    0.1208 H   0  0  0  0  0  0  0  0  0  0  0  0
    1.4096    2.0394    1.3037 H   0  0  0  0  0  0  0  0  0  0  0  0
    1.3675    3.0646   -0.1191 H   0  0  0  0  0  0  0  0  0  0  0  0
    2.1149    1.0334   -1.5059 H   0  0  0  0  0  0  0  0  0  0  0  0
    3.2838    1.8851   -0.5151 H   0  0  0  0  0  0  0  0  0  0  0  0
    3.1023   -1.2852   -1.5377 H   0  0  0  0  0  0  0  0  0  0  0  0
    5.4836   -0.6627   -1.9240 H   0  0  0  0  0  0  0  0  0  0  0  0
    5.4910    0.3673   -0.4232 H   0  0  0  0  0  0  0  0  0  0  0  0
    4.9132   -1.6356    0.9665 H   0  0  0  0  0  0  0  0  0  0  0  0
    4.9059   -2.6767   -0.5266 H   0  0  0  0  0  0  0  0  0  0  0  0
    2.1328   -1.7668    1.1049 H   0  0  0  0  0  0  0  0  0  0  0  0
    1.6062   -0.3007    1.8735 H   0  0  0  0  0  0  0  0  0  0  0  0
   -0.0467   -1.8117    0.5447 H   0  0  0  0  0  0  0  0  0  0  0  0
    0.5446   -1.0146   -0.9192 H   0  0  0  0  0  0  0  0  0  0  0  0
  1  2  3  0
  2  3  1  0
  3  4  1  0
  4  5  2  0
  5  6  1  0
  6  7  1  0
  6  8  1  0
  6  9  1  0
  5 10  1  0
 10 11  2  0
 11 12  1  0
 12 13  1  0
 13 14  1  0
 14 15  1  0
 15 16  1  0
 16 17  1  0
 17 18  1  0
 18 19  1  0
 16 20  1  0
 20 21  1  0
 11 22  1  0
 22  3  2  0
 21 12  1  0
 19 17  1  0
  4 23  1  0
 10 24  1  0
 13 25  1  0
 13 26  1  0
 14 27  1  0
 14 28  1  0
 15 29  1  0
 15 30  1  0
 17 31  1  0
 18 32  1  0
 18 33  1  0
 19 34  1  0
 19 35  1  0
 20 36  1  0
 20 37  1  0
 21 38  1  0
 21 39  1  0
M  END
$$$$
OCNT-2312047
     RDKit          3D

 35 37  0  0  0  0  0  0  0  0999 V2000
   -0.3998   -2.7675    0.0926 C   0  0  0  0  0  0  0  0  0  0  0  0
   -0.6075   -1.3326   -0.4051 C   0  0  0  0  0  0  0  0  0  0  0  0
   -1.9822   -0.7670   -0.0684 C   0  0  0  0  0  0  0  0  0  0  0  0
   -2.5555   -0.9062    1.2048 C   0  0  0  0  0  0  0  0  0  0  0  0
   -3.8108   -0.3647    1.4856 C   0  0  0  0  0  0  0  0  0  0  0  0
   -4.5095    0.3334    0.5023 C   0  0  0  0  0  0  0  0  0  0  0  0
   -3.9546    0.5087   -0.7721 C   0  0  0  0  0  0  0  0  0  0  0  0
   -4.7121    1.2525   -1.8451 C   0  0  0  0  0  0  0  0  0  0  0  0
   -5.4476    0.4185   -2.6306 F   0  0  0  0  0  0  0  0  0  0  0  0
   -3.8968    1.9414   -2.6919 F   0  0  0  0  0  0  0  0  0  0  0  0
   -5.5890    2.1690   -1.3477 F   0  0  0  0  0  0  0  0  0  0  0  0
   -2.6937   -0.0489   -1.0468 C   0  0  0  0  0  0  0  0  0  0  0  0
    0.4969   -0.4355    0.0532 C   0  0  0  0  0  0  0  0  0  0  0  0
    1.3356    0.2849   -0.6594 N   0  0  0  0  0  0  0  0  0  0  0  0
    2.1221    0.8624    0.3084 C   0  0  0  0  0  0  0  0  0  0  0  0
    3.2247    1.7982   -0.0055 C   0  0  0  0  0  0  0  0  0  0  0  0
    4.4998    1.1119    0.0324 N   0  0  0  0  0  0  0  0  0  0  0  0
    5.2357    0.7562    1.1271 C   0  0  0  0  0  0  0  0  0  0  0  0
    6.3762    0.2092    0.5925 C   0  0  0  0  0  0  0  0  0  0  0  0
    6.3144    0.2675   -0.7703 N   0  0  0  0  0  0  0  0  0  0  0  0
    5.1640    0.8360   -1.1063 N   0  0  0  0  0  0  0  0  0  0  0  0
    1.7783    0.5496    1.5671 N   0  0  0  0  0  0  0  0  0  0  0  0
    0.7037   -0.3247    1.3997 O   0  0  0  0  0  0  0  0  0  0  0  0
    0.5523   -3.1684   -0.2744 H   0  0  0  0  0  0  0  0  0  0  0  0
   -0.3742   -2.8326    1.1860 H   0  0  0  0  0  0  0  0  0  0  0  0
   -1.2007   -3.4250   -0.2637 H   0  0  0  0  0  0  0  0  0  0  0  0
   -0.5372   -1.3891   -1.5008 H   0  0  0  0  0  0  0  0  0  0  0  0
   -2.0309   -1.4319    2.0000 H   0  0  0  0  0  0  0  0  0  0  0  0
   -4.2434   -0.4852    2.4764 H   0  0  0  0  0  0  0  0  0  0  0  0
   -5.4890    0.7481    0.7369 H   0  0  0  0  0  0  0  0  0  0  0  0
   -2.2623    0.0859   -2.0399 H   0  0  0  0  0  0  0  0  0  0  0  0
    3.2711    2.6186    0.7190 H   0  0  0  0  0  0  0  0  0  0  0  0
    3.0980    2.2352   -1.0019 H   0  0  0  0  0  0  0  0  0  0  0  0
    4.8949    0.9059    2.1410 H   0  0  0  0  0  0  0  0  0  0  0  0
    7.2288   -0.2137    1.1037 H   0  0  0  0  0  0  0  0  0  0  0  0
  1  2  1  0
  2  3  1  0
  3  4  2  0
  4  5  1  0
  5  6  2  0
  6  7  1  0
  7  8  1  0
  8  9  1  0
  8 10  1  0
  8 11  1  0
  7 12  2  0
  2 13  1  0
 13 14  2  0
 14 15  1  0
 15 16  1  0
 16 17  1  0
 17 18  1  0
 18 19  2  0
 19 20  1  0
 20 21  2  0
 15 22  2  0
 22 23  1  0
 12  3  1  0
 23 13  1  0
 21 17  1  0
  1 24  1  0
  1 25  1  0
  1 26  1  0
  2 27  1  0
  4 28  1  0
  5 29  1  0
  6 30  1  0
 12 31  1  0
 16 32  1  0
 16 33  1  0
 18 34  1  0
 19 35  1  0
M  END
$$$$
OCNT-2312058
     RDKit          3D

 39 41  0  0  0  0  0  0  0  0999 V2000
   -6.6655    0.9056   -1.7809 C   0  0  0  0  0  0  0  0  0  0  0  0
   -5.8753    0.0641   -0.8215 C   0  0  0  0  0  0  0  0  0  0  0  0
   -6.5109   -0.9056   -0.0425 C   0  0  0  0  0  0  0  0  0  0  0  0
   -5.7882   -1.7205    0.8362 C   0  0  0  0  0  0  0  0  0  0  0  0
   -4.3970   -1.5496    0.9101 C   0  0  0  0  0  0  0  0  0  0  0  0
   -3.2506   -2.3879    1.8830 S   0  0  0  0  0  0  0  0  0  0  0  0
   -1.9864   -1.4469    1.2054 C   0  0  0  0  0  0  0  0  0  0  0  0
   -0.5708   -1.6671    1.6490 C   0  0  0  0  0  0  0  0  0  0  0  0
    0.3118   -0.9300    0.7720 N   0  0  0  0  0  0  0  0  0  0  0  0
    1.6752   -0.9576    0.9618 C   0  0  0  0  0  0  0  0  0  0  0  0
    2.1823   -1.6607    1.8329 O   0  0  0  0  0  0  0  0  0  0  0  0
    2.4654   -0.0873    0.0743 C   0  0  0  0  0  0  0  0  0  0  0  0
    2.0121    0.5330   -1.0788 C   0  0  0  0  0  0  0  0  0  0  0  0
    3.2628    1.4493   -1.8093 S   0  0  0  0  0  0  0  0  0  0  0  0
    4.3366    0.9607   -0.5616 C   0  0  0  0  0  0  0  0  0  0  0  0
    5.7684    1.4299   -0.5560 C   0  0  0  0  0  0  0  0  0  0  0  0
    6.7211    0.2395   -0.6698 C   0  0  0  0  0  0  0  0  0  0  0  0
    6.0617    2.2362    0.7096 C   0  0  0  0  0  0  0  0  0  0  0  0
    3.8108    0.1698    0.3483 N   0  0  0  0  0  0  0  0  0  0  0  0
   -2.3549   -0.5502    0.3097 N   0  0  0  0  0  0  0  0  0  0  0  0
   -3.7293   -0.6007    0.1348 C   0  0  0  0  0  0  0  0  0  0  0  0
   -4.4807    0.2085   -0.7428 C   0  0  0  0  0  0  0  0  0  0  0  0
   -7.6805    1.0757   -1.4069 H   0  0  0  0  0  0  0  0  0  0  0  0
   -6.2002    1.8880   -1.9133 H   0  0  0  0  0  0  0  0  0  0  0  0
   -6.7251    0.4078   -2.7536 H   0  0  0  0  0  0  0  0  0  0  0  0
   -7.5898   -1.0376   -0.1105 H   0  0  0  0  0  0  0  0  0  0  0  0
   -6.2931   -2.4670    1.4419 H   0  0  0  0  0  0  0  0  0  0  0  0
   -0.4267   -1.3017    2.6716 H   0  0  0  0  0  0  0  0  0  0  0  0
   -0.2960   -2.7266    1.6073 H   0  0  0  0  0  0  0  0  0  0  0  0
   -0.1247   -0.2323    0.1828 H   0  0  0  0  0  0  0  0  0  0  0  0
    1.0350    0.4926   -1.5367 H   0  0  0  0  0  0  0  0  0  0  0  0
    5.9486    2.0854   -1.4178 H   0  0  0  0  0  0  0  0  0  0  0  0
    6.5252   -0.3327   -1.5836 H   0  0  0  0  0  0  0  0  0  0  0  0
    6.6151   -0.4452    0.1794 H   0  0  0  0  0  0  0  0  0  0  0  0
    7.7623    0.5778   -0.7020 H   0  0  0  0  0  0  0  0  0  0  0  0
    5.3913    3.0995    0.7879 H   0  0  0  0  0  0  0  0  0  0  0  0
    5.9302    1.6310    1.6139 H   0  0  0  0  0  0  0  0  0  0  0  0
    7.0911    2.6101    0.7014 H   0  0  0  0  0  0  0  0  0  0  0  0
   -3.9615    0.9431   -1.3512 H   0  0  0  0  0  0  0  0  0  0  0  0
  1  2  1  0
  2  3  2  0
  3  4  1  0
  4  5  2  0
  5  6  1  0
  6  7  1  0
  7  8  1  0
  8  9  1  0
  9 10  1  0
 10 11  2  0
 10 12  1  0
 12 13  2  0
 13 14  1  0
 14 15  1  0
 15 16  1  0
 16 17  1  0
 16 18  1  0
 15 19  2  0
  7 20  2  0
 20 21  1  0
 21 22  2  0
 22  2  1  0
 21  5  1  0
 19 12  1  0
  1 23  1  0
  1 24  1  0
  1 25  1  0
  3 26  1  0
  4 27  1  0
  8 28  1  0
  8 29  1  0
  9 30  1  0
 13 31  1  0
 16 32  1  0
 17 33  1  0
 17 34  1  0
 17 35  1  0
 18 36  1  0
 18 37  1  0
 18 38  1  0
 22 39  1  0
M  END
$$$$
OCNT-2312066
     RDKit          3D

 39 41  0  0  0  0  0  0  0  0999 V2000
   -7.4691    1.2160    0.4608 C   0  0  0  0  0  0  0  0  0  0  0  0
   -6.0778    0.8287    0.2945 N   0  0  0  0  0  0  0  0  0  0  0  0
   -5.0495    1.6259   -0.2471 C   0  0  0  0  0  0  0  0  0  0  0  0
   -5.1649    2.7728   -0.6338 O   0  0  0  0  0  0  0  0  0  0  0  0
   -3.7979    0.8450   -0.2698 C   0  0  0  0  0  0  0  0  0  0  0  0
   -2.5639    1.2826   -0.7253 C   0  0  0  0  0  0  0  0  0  0  0  0
   -1.4829    0.3913   -0.6668 C   0  0  0  0  0  0  0  0  0  0  0  0
   -1.6473   -0.9153   -0.1496 C   0  0  0  0  0  0  0  0  0  0  0  0
   -0.5147   -1.8804   -0.0875 C   0  0  0  0  0  0  0  0  0  0  0  0
   -0.7371   -3.0848   -0.1018 O   0  0  0  0  0  0  0  0  0  0  0  0
    0.7476   -1.3424    0.0199 N   0  0  0  0  0  0  0  0  0  0  0  0
    1.8846   -2.2114    0.2085 C   0  0  0  0  0  0  0  0  0  0  0  0
    3.1213   -1.4371    0.0987 C   0  0  0  0  0  0  0  0  0  0  0  0
    4.1355   -0.7996    0.0077 C   0  0  0  0  0  0  0  0  0  0  0  0
    5.3415   -0.0389   -0.1034 C   0  0  0  0  0  0  0  0  0  0  0  0
    6.0039    0.0467   -1.3329 C   0  0  0  0  0  0  0  0  0  0  0  0
    7.1818    0.7904   -1.4467 C   0  0  0  0  0  0  0  0  0  0  0  0
    7.6963    1.4484   -0.3307 C   0  0  0  0  0  0  0  0  0  0  0  0
    7.0301    1.3564    0.8870 C   0  0  0  0  0  0  0  0  0  0  0  0
    7.5265    1.9902    1.9577 F   0  0  0  0  0  0  0  0  0  0  0  0
    5.8578    0.6192    1.0128 C   0  0  0  0  0  0  0  0  0  0  0  0
   -2.9056   -1.3479    0.2925 C   0  0  0  0  0  0  0  0  0  0  0  0
   -3.9506   -0.4447    0.2216 C   0  0  0  0  0  0  0  0  0  0  0  0
   -5.5957   -0.7244    0.7136 S   0  0  0  0  0  0  0  0  0  0  0  0
   -6.1962   -1.6685   -0.1971 O   0  0  0  0  0  0  0  0  0  0  0  0
   -5.6277   -0.8585    2.1500 O   0  0  0  0  0  0  0  0  0  0  0  0
   -7.5337    2.1228    1.0691 H   0  0  0  0  0  0  0  0  0  0  0  0
   -7.9225    1.4081   -0.5158 H   0  0  0  0  0  0  0  0  0  0  0  0
   -8.0510    0.4358    0.9602 H   0  0  0  0  0  0  0  0  0  0  0  0
   -2.4413    2.2859   -1.1257 H   0  0  0  0  0  0  0  0  0  0  0  0
   -0.5200    0.7172   -1.0554 H   0  0  0  0  0  0  0  0  0  0  0  0
    0.8525   -0.3791    0.3054 H   0  0  0  0  0  0  0  0  0  0  0  0
    1.8513   -3.0107   -0.5395 H   0  0  0  0  0  0  0  0  0  0  0  0
    1.7976   -2.6713    1.1986 H   0  0  0  0  0  0  0  0  0  0  0  0
    5.6079   -0.4658   -2.2072 H   0  0  0  0  0  0  0  0  0  0  0  0
    7.6954    0.8545   -2.4027 H   0  0  0  0  0  0  0  0  0  0  0  0
    8.6102    2.0301   -0.4005 H   0  0  0  0  0  0  0  0  0  0  0  0
    5.3640    0.5665    1.9777 H   0  0  0  0  0  0  0  0  0  0  0  0
   -3.0563   -2.3537    0.6771 H   0  0  0  0  0  0  0  0  0  0  0  0
  1  2  1  0
  2  3  1  0
  3  4  2  0
  3  5  1  0
  5  6  1  0
  6  7  2  0
  7  8  1  0
  8  9  1  0
  9 10  2  0
  9 11  1  0
 11 12  1  0
 12 13  1  0
 13 14  3  0
 14 15  1  0
 15 16  2  0
 16 17  1  0
 17 18  2  0
 18 19  1  0
 19 20  1  0
 19 21  2  0
  8 22  2  0
 22 23  1  0
 23 24  1  0
 24 25  2  0
 24 26  2  0
 24  2  1  0
 23  5  2  0
 21 15  1  0
  1 27  1  0
  1 28  1  0
  1 29  1  0
  6 30  1  0
  7 31  1  0
 11 32  1  0
 12 33  1  0
 12 34  1  0
 16 35  1  0
 17 36  1  0
 18 37  1  0
 21 38  1  0
 22 39  1  0
M  END
$$$$
OCNT-2312071
     RDKit          3D

  0  0  0  0  0  0  0  0  0  0999 V3000
M  V30 BEGIN CTAB
M  V30 COUNTS 39 42 0 0 0
M  V30 BEGIN ATOM
M  V30 1 C -2.587973 -1.564324 2.838273 0
M  V30 2 C -2.752043 -0.984346 1.493631 0
M  V30 3 C -1.887148 -0.592391 0.497028 0
M  V30 4 C -0.432880 -0.657218 0.514648 0
M  V30 5 O 0.211066 -1.097319 1.461668 0
M  V30 6 N 0.128300 -0.171392 -0.648645 0
M  V30 7 C 1.533128 -0.171428 -0.889825 0 CFG=1
M  V30 8 C 2.169134 0.880818 -1.751505 0
M  V30 9 C 2.424050 0.880073 -0.269113 0 CFG=2
M  V30 10 C 3.795434 0.448754 0.275155 0
M  V30 11 C 5.024641 0.923417 -0.101448 0
M  V30 12 N 5.920418 0.245350 0.674934 0
M  V30 13 C 7.356386 0.379697 0.661560 0
M  V30 14 N 5.345772 -0.626893 1.528190 0
M  V30 15 C 4.037552 -0.493609 1.284765 0
M  V30 16 N -2.617701 -0.106019 -0.577922 0
M  V30 17 C -3.882277 -0.219075 -0.204112 0
M  V30 18 C -5.008290 0.165061 -1.012038 0
M  V30 19 C -6.344274 0.065555 -0.669124 0
M  V30 20 C -7.211277 0.533665 -1.700015 0
M  V30 21 C -6.509585 0.977073 -2.798028 0
M  V30 22 S -4.819714 0.827477 -2.581974 0
M  V30 23 O -4.025372 -0.751633 1.058583 0
M  V30 24 H -1.975428 -0.910307 3.466346 0
M  V30 25 H -2.099777 -2.541801 2.776567 0
M  V30 26 H -3.554750 -1.699358 3.333506 0
M  V30 27 H -0.519466 0.129624 -1.372339 0
M  V30 28 H 1.937140 -1.177870 -0.981480 0
M  V30 29 H 2.966007 0.569110 -2.416891 0
M  V30 30 H 1.547630 1.673325 -2.150816 0
M  V30 31 H 1.940651 1.657885 0.313918 0
M  V30 32 H 5.330989 1.660702 -0.829113 0
M  V30 33 H 7.790620 -0.590380 0.407393 0
M  V30 34 H 7.645439 1.124329 -0.084040 0
M  V30 35 H 7.682317 0.699526 1.654340 0
M  V30 36 H 3.326180 -1.085065 1.848157 0
M  V30 37 H -6.686409 -0.327465 0.281451 0
M  V30 38 H -8.292791 0.544006 -1.638129 0
M  V30 39 H -6.905699 1.382443 -3.719142 0
M  V30 END ATOM
M  V30 BEGIN BOND
M  V30 1 1 1 2
M  V30 2 2 2 3
M  V30 3 1 3 4
M  V30 4 2 4 5
M  V30 5 1 4 6
M  V30 6 1 6 7
M  V30 7 1 7 8
M  V30 8 1 8 9
M  V30 9 1 9 10
M  V30 10 2 10 11
M  V30 11 1 11 12
M  V30 12 1 12 13
M  V30 13 1 12 14
M  V30 14 2 14 15
M  V30 15 1 3 16
M  V30 16 2 16 17
M  V30 17 1 17 18
M  V30 18 2 18 19
M  V30 19 1 19 20
M  V30 20 2 20 21
M  V30 21 1 21 22
M  V30 22 1 17 23
M  V30 23 1 23 2
M  V30 24 1 9 7
M  V30 25 1 15 10
M  V30 26 1 22 18
M  V30 27 1 1 24
M  V30 28 1 1 25
M  V30 29 1 1 26
M  V30 30 1 6 27
M  V30 31 1 7 28 CFG=3
M  V30 32 1 8 29
M  V30 33 1 8 30
M  V30 34 1 9 31 CFG=1
M  V30 35 1 11 32
M  V30 36 1 13 33
M  V30 37 1 13 34
M  V30 38 1 13 35
M  V30 39 1 15 36
M  V30 40 1 19 37
M  V30 41 1 20 38
M  V30 42 1 21 39
M  V30 END BOND
M  V30 BEGIN COLLECTION
M  V30 MDLV30/STERAC1 ATOMS=(2 7 9)
M  V30 END COLLECTION
M  V30 END CTAB
M  END
>  <_CXSMILES_Data>  (540) 
|&1:6,8|

$$$$
OCNT-2312074
     RDKit          3D

 42 44  0  0  0  0  0  0  0  0999 V2000
   -5.0861    0.3777   -2.7940 C   0  0  0  0  0  0  0  0  0  0  0  0
   -4.6281   -0.3075   -1.6283 O   0  0  0  0  0  0  0  0  0  0  0  0
   -3.5352    0.2653   -1.0422 C   0  0  0  0  0  0  0  0  0  0  0  0
   -2.9837    1.2882   -1.4384 O   0  0  0  0  0  0  0  0  0  0  0  0
   -3.1120   -0.5274    0.2051 C   0  0  0  0  0  0  0  0  0  0  0  0
   -1.7384   -0.2149    0.5706 N   0  0  0  0  0  0  0  0  0  0  0  0
   -0.7026   -0.8609   -0.0780 C   0  0  0  0  0  0  0  0  0  0  0  0
   -0.9127   -1.8166   -0.8221 O   0  0  0  0  0  0  0  0  0  0  0  0
    0.6422   -0.3078    0.1818 C   0  0  0  0  0  0  0  0  0  0  0  0
    1.7065   -0.7099   -0.5235 N   0  0  0  0  0  0  0  0  0  0  0  0
    2.7841   -0.0447   -0.0302 N   0  0  0  0  0  0  0  0  0  0  0  0
    4.0726   -0.3482   -0.5803 C   0  0  0  0  0  0  0  0  0  0  0  0
    4.1423   -1.1943   -1.7077 C   0  0  0  0  0  0  0  0  0  0  0  0
    5.3696   -1.5275   -2.2907 C   0  0  0  0  0  0  0  0  0  0  0  0
    6.5481   -1.0258   -1.7520 C   0  0  0  0  0  0  0  0  0  0  0  0
    6.4848   -0.2033   -0.6355 C   0  0  0  0  0  0  0  0  0  0  0  0
    7.6207    0.2710   -0.1060 F   0  0  0  0  0  0  0  0  0  0  0  0
    5.2676    0.1377   -0.0444 C   0  0  0  0  0  0  0  0  0  0  0  0
    2.3918    0.8470    0.9647 C   0  0  0  0  0  0  0  0  0  0  0  0
    3.2487    1.8224    1.6817 C   0  0  0  0  0  0  0  0  0  0  0  0
    1.0324    0.6620    1.1306 C   0  0  0  0  0  0  0  0  0  0  0  0
   -4.0060   -0.1822    1.3695 C   0  0  0  0  0  0  0  0  0  0  0  0
   -4.8170   -1.0420    2.0889 C   0  0  0  0  0  0  0  0  0  0  0  0
   -5.5290   -0.3808    3.1305 C   0  0  0  0  0  0  0  0  0  0  0  0
   -5.2386    0.9632    3.1806 C   0  0  0  0  0  0  0  0  0  0  0  0
   -4.1124    1.4220    1.9810 S   0  0  0  0  0  0  0  0  0  0  0  0
   -5.9488   -0.1657   -3.1893 H   0  0  0  0  0  0  0  0  0  0  0  0
   -4.3059    0.3939   -3.5615 H   0  0  0  0  0  0  0  0  0  0  0  0
   -5.4035    1.3940   -2.5406 H   0  0  0  0  0  0  0  0  0  0  0  0
   -3.1812   -1.5964   -0.0294 H   0  0  0  0  0  0  0  0  0  0  0  0
   -1.5742    0.7327    0.8793 H   0  0  0  0  0  0  0  0  0  0  0  0
    3.2364   -1.6046   -2.1553 H   0  0  0  0  0  0  0  0  0  0  0  0
    5.3969   -2.1780   -3.1613 H   0  0  0  0  0  0  0  0  0  0  0  0
    7.5104   -1.2734   -2.1877 H   0  0  0  0  0  0  0  0  0  0  0  0
    5.3248    0.7575    0.8367 H   0  0  0  0  0  0  0  0  0  0  0  0
    2.6324    2.5212    2.2592 H   0  0  0  0  0  0  0  0  0  0  0  0
    3.9070    1.3169    2.3942 H   0  0  0  0  0  0  0  0  0  0  0  0
    3.8372    2.4265    0.9850 H   0  0  0  0  0  0  0  0  0  0  0  0
    0.4089    1.1824    1.8442 H   0  0  0  0  0  0  0  0  0  0  0  0
   -4.8975   -2.1024    1.8768 H   0  0  0  0  0  0  0  0  0  0  0  0
   -6.2188   -0.8674    3.8096 H   0  0  0  0  0  0  0  0  0  0  0  0
   -5.6333    1.7002    3.8668 H   0  0  0  0  0  0  0  0  0  0  0  0
  1  2  1  0
  2  3  1  0
  3  4  2  0
  3  5  1  0
  5  6  1  0
  6  7  1  0
  7  8  2  0
  7  9  1  0
  9 10  2  0
 10 11  1  0
 11 12  1  0
 12 13  2  0
 13 14  1  0
 14 15  2  0
 15 16  1  0
 16 17  1  0
 16 18  2  0
 11 19  1  0
 19 20  1  0
 19 21  2  0
  5 22  1  0
 22 23  2  0
 23 24  1  0
 24 25  2  0
 25 26  1  0
 21  9  1  0
 26 22  1  0
 18 12  1  0
  1 27  1  0
  1 28  1  0
  1 29  1  0
  5 30  1  0
  6 31  1  0
 13 32  1  0
 14 33  1  0
 15 34  1  0
 18 35  1  0
 20 36  1  0
 20 37  1  0
 20 38  1  0
 21 39  1  0
 23 40  1  0
 24 41  1  0
 25 42  1  0
M  END
$$$$
OCNT-2312078
     RDKit          3D

 38 40  0  0  0  0  0  0  0  0999 V2000
    6.7238   -0.4229   -0.8541 C   0  0  0  0  0  0  0  0  0  0  0  0
    5.6851    0.3133   -1.4881 O   0  0  0  0  0  0  0  0  0  0  0  0
    4.4773    0.3577   -0.8502 C   0  0  0  0  0  0  0  0  0  0  0  0
    4.1648   -0.2571    0.3613 C   0  0  0  0  0  0  0  0  0  0  0  0
    2.8792   -0.1306    0.9077 C   0  0  0  0  0  0  0  0  0  0  0  0
    1.8773    0.6112    0.2582 C   0  0  0  0  0  0  0  0  0  0  0  0
    0.5297    0.7351    0.8422 C   0  0  0  0  0  0  0  0  0  0  0  0
    0.3500    1.1127    2.1727 C   0  0  0  0  0  0  0  0  0  0  0  0
   -0.9375    1.2154    2.6624 C   0  0  0  0  0  0  0  0  0  0  0  0
   -2.0437    0.9597    1.9341 N   0  0  0  0  0  0  0  0  0  0  0  0
   -1.8979    0.5787    0.6472 C   0  0  0  0  0  0  0  0  0  0  0  0
   -3.0375    0.3353   -0.1110 N   0  0  0  0  0  0  0  0  0  0  0  0
   -3.0481   -0.7962   -1.0532 C   0  0  0  0  0  0  0  0  0  0  0  0
   -4.2823   -1.6866   -0.8259 C   0  0  0  0  0  0  0  0  0  0  0  0
   -5.5292   -0.9869   -0.9383 O   0  0  0  0  0  0  0  0  0  0  0  0
   -5.4661    0.3649   -0.4535 C   0  0  0  0  0  0  0  0  0  0  0  0
   -4.3246    0.6192    0.5433 C   0  0  0  0  0  0  0  0  0  0  0  0
   -0.6236    0.4774    0.0836 C   0  0  0  0  0  0  0  0  0  0  0  0
    2.2195    1.2161   -0.9598 C   0  0  0  0  0  0  0  0  0  0  0  0
    1.3136    1.9442   -1.6315 F   0  0  0  0  0  0  0  0  0  0  0  0
    3.4954    1.0955   -1.5083 C   0  0  0  0  0  0  0  0  0  0  0  0
    6.4583   -1.4814   -0.7639 H   0  0  0  0  0  0  0  0  0  0  0  0
    7.6148   -0.3556   -1.4857 H   0  0  0  0  0  0  0  0  0  0  0  0
    6.9734    0.0072    0.1215 H   0  0  0  0  0  0  0  0  0  0  0  0
    4.8940   -0.8461    0.9085 H   0  0  0  0  0  0  0  0  0  0  0  0
    2.6627   -0.6347    1.8483 H   0  0  0  0  0  0  0  0  0  0  0  0
    1.1905    1.3463    2.8173 H   0  0  0  0  0  0  0  0  0  0  0  0
   -1.1229    1.5195    3.6884 H   0  0  0  0  0  0  0  0  0  0  0  0
   -2.1561   -1.4268   -0.9662 H   0  0  0  0  0  0  0  0  0  0  0  0
   -3.0773   -0.3861   -2.0692 H   0  0  0  0  0  0  0  0  0  0  0  0
   -4.2963   -2.4997   -1.5588 H   0  0  0  0  0  0  0  0  0  0  0  0
   -4.2438   -2.1477    0.1683 H   0  0  0  0  0  0  0  0  0  0  0  0
   -6.4312    0.5920    0.0106 H   0  0  0  0  0  0  0  0  0  0  0  0
   -5.3599    1.0193   -1.3266 H   0  0  0  0  0  0  0  0  0  0  0  0
   -4.4566   -0.0297    1.4185 H   0  0  0  0  0  0  0  0  0  0  0  0
   -4.3675    1.6655    0.8684 H   0  0  0  0  0  0  0  0  0  0  0  0
   -0.5230    0.2159   -0.9655 H   0  0  0  0  0  0  0  0  0  0  0  0
    3.7153    1.5845   -2.4525 H   0  0  0  0  0  0  0  0  0  0  0  0
  1  2  1  0
  2  3  1  0
  3  4  1  0
  4  5  2  0
  5  6  1  0
  6  7  1  0
  7  8  2  0
  8  9  1  0
  9 10  2  0
 10 11  1  0
 11 12  1  0
 12 13  1  0
 13 14  1  0
 14 15  1  0
 15 16  1  0
 16 17  1  0
 11 18  2  0
  6 19  2  0
 19 20  1  0
 19 21  1  0
 21  3  2  0
 18  7  1  0
 17 12  1  0
  1 22  1  0
  1 23  1  0
  1 24  1  0
  4 25  1  0
  5 26  1  0
  8 27  1  0
  9 28  1  0
 13 29  1  0
 13 30  1  0
 14 31  1  0
 14 32  1  0
 16 33  1  0
 16 34  1  0
 17 35  1  0
 17 36  1  0
 18 37  1  0
 21 38  1  0
M  END
$$$$
OCNT-2312083
     RDKit          3D

 41 44  0  0  0  0  0  0  0  0999 V2000
    6.4726   -1.4225    1.0078 C   0  0  0  0  0  0  0  0  0  0  0  0
    5.6162   -0.5656    0.2247 N   0  0  0  0  0  0  0  0  0  0  0  0
    4.6882    0.3185    0.6902 C   0  0  0  0  0  0  0  0  0  0  0  0
    4.1070    0.8973   -0.4218 C   0  0  0  0  0  0  0  0  0  0  0  0
    3.0319    1.9225   -0.4774 C   0  0  0  0  0  0  0  0  0  0  0  0
    1.7493    1.3559   -0.1010 N   0  0  0  0  0  0  0  0  0  0  0  0
    0.9668    0.4969   -0.8169 C   0  0  0  0  0  0  0  0  0  0  0  0
   -0.1419    0.3182   -0.0191 C   0  0  0  0  0  0  0  0  0  0  0  0
   -1.2841   -0.5287   -0.3189 C   0  0  0  0  0  0  0  0  0  0  0  0
   -1.0458   -1.8087   -0.8500 C   0  0  0  0  0  0  0  0  0  0  0  0
   -2.0995   -2.6713   -1.1402 C   0  0  0  0  0  0  0  0  0  0  0  0
   -3.4077   -2.2694   -0.8962 C   0  0  0  0  0  0  0  0  0  0  0  0
   -3.6795   -1.0024   -0.3572 C   0  0  0  0  0  0  0  0  0  0  0  0
   -2.6165   -0.1092   -0.0837 C   0  0  0  0  0  0  0  0  0  0  0  0
   -2.9118    1.2620    0.4944 C   0  0  0  0  0  0  0  0  0  0  0  0
   -4.3661    1.7045    0.3432 C   0  0  0  0  0  0  0  0  0  0  0  0
   -5.3044    0.5883    0.7710 C   0  0  0  0  0  0  0  0  0  0  0  0
   -5.1252   -0.6190   -0.1421 C   0  0  0  0  0  0  0  0  0  0  0  0
   -0.0021    1.0692    1.1193 N   0  0  0  0  0  0  0  0  0  0  0  0
    1.1573    1.7115    1.0545 N   0  0  0  0  0  0  0  0  0  0  0  0
    4.7777    0.2918   -1.5085 C   0  0  0  0  0  0  0  0  0  0  0  0
    5.6930   -0.5961   -1.1175 N   0  0  0  0  0  0  0  0  0  0  0  0
    6.2730   -1.2634    2.0704 H   0  0  0  0  0  0  0  0  0  0  0  0
    7.5117   -1.1712    0.7813 H   0  0  0  0  0  0  0  0  0  0  0  0
    6.2599   -2.4603    0.7394 H   0  0  0  0  0  0  0  0  0  0  0  0
    4.5082    0.4548    1.7487 H   0  0  0  0  0  0  0  0  0  0  0  0
    3.2527    2.7554    0.1996 H   0  0  0  0  0  0  0  0  0  0  0  0
    2.9180    2.3300   -1.4881 H   0  0  0  0  0  0  0  0  0  0  0  0
    1.2541    0.1047   -1.7807 H   0  0  0  0  0  0  0  0  0  0  0  0
   -0.0288   -2.1531   -1.0258 H   0  0  0  0  0  0  0  0  0  0  0  0
   -1.8995   -3.6584   -1.5481 H   0  0  0  0  0  0  0  0  0  0  0  0
   -4.2234   -2.9522   -1.1254 H   0  0  0  0  0  0  0  0  0  0  0  0
   -2.6596    1.2421    1.5620 H   0  0  0  0  0  0  0  0  0  0  0  0
   -2.2861    2.0199    0.0090 H   0  0  0  0  0  0  0  0  0  0  0  0
   -4.5422    2.6005    0.9490 H   0  0  0  0  0  0  0  0  0  0  0  0
   -4.5677    1.9774   -0.7005 H   0  0  0  0  0  0  0  0  0  0  0  0
   -6.3447    0.9301    0.7310 H   0  0  0  0  0  0  0  0  0  0  0  0
   -5.0966    0.3079    1.8113 H   0  0  0  0  0  0  0  0  0  0  0  0
   -5.6749   -1.4659    0.2861 H   0  0  0  0  0  0  0  0  0  0  0  0
   -5.5666   -0.4006   -1.1227 H   0  0  0  0  0  0  0  0  0  0  0  0
    4.6372    0.4590   -2.5693 H   0  0  0  0  0  0  0  0  0  0  0  0
  1  2  1  0
  2  3  1  0
  3  4  2  0
  4  5  1  0
  5  6  1  0
  6  7  1  0
  7  8  2  0
  8  9  1  0
  9 10  1  0
 10 11  2  0
 11 12  1  0
 12 13  2  0
 13 14  1  0
 14 15  1  0
 15 16  1  0
 16 17  1  0
 17 18  1  0
  8 19  1  0
 19 20  2  0
  4 21  1  0
 21 22  2  0
 22  2  1  0
 20  6  1  0
 14  9  2  0
 18 13  1  0
  1 23  1  0
  1 24  1  0
  1 25  1  0
  3 26  1  0
  5 27  1  0
  5 28  1  0
  7 29  1  0
 10 30  1  0
 11 31  1  0
 12 32  1  0
 15 33  1  0
 15 34  1  0
 16 35  1  0
 16 36  1  0
 17 37  1  0
 17 38  1  0
 18 39  1  0
 18 40  1  0
 21 41  1  0
M  END
$$$$
OCNT-2312085
     RDKit          3D

  0  0  0  0  0  0  0  0  0  0999 V3000
M  V30 BEGIN CTAB
M  V30 COUNTS 34 36 0 0 0
M  V30 BEGIN ATOM
M  V30 1 C 2.391604 2.044279 -1.768336 0
M  V30 2 O 2.127050 0.715673 -1.319683 0
M  V30 3 C 3.051672 0.239658 -0.451445 0
M  V30 4 O 4.101193 0.771774 -0.130254 0
M  V30 5 C 2.666625 -1.124607 -0.029309 0
M  V30 6 C 3.652034 -2.117160 -0.164683 0
M  V30 7 C 3.366329 -3.441472 0.167145 0
M  V30 8 C 2.100075 -3.772622 0.640777 0
M  V30 9 Cl 1.743013 -5.405050 1.050690 0
M  V30 10 C 1.119641 -2.791034 0.797636 0
M  V30 11 C 1.392292 -1.450141 0.472130 0
M  V30 12 C 0.377413 -0.445025 0.715387 0
M  V30 13 C -0.968648 -0.556961 0.448568 0
M  V30 14 N -1.472244 0.658711 0.817121 0
M  V30 15 C -2.894030 1.021873 0.832714 0 CFG=1
M  V30 16 C -3.156757 2.500294 0.453117 0
M  V30 17 C -4.390409 2.001219 -0.322679 0
M  V30 18 C -3.660600 0.643472 -0.459056 0 CFG=1
M  V30 19 F -2.924828 0.503081 -1.587298 0
M  V30 20 N -0.520977 1.435313 1.363916 0
M  V30 21 N 0.627789 0.776682 1.280545 0
M  V30 22 H 1.557410 2.360736 -2.400546 0
M  V30 23 H 3.308744 2.069014 -2.364897 0
M  V30 24 H 2.461950 2.732197 -0.919675 0
M  V30 25 H 4.641767 -1.856195 -0.536730 0
M  V30 26 H 4.132787 -4.204309 0.054762 0
M  V30 27 H 0.149211 -3.073625 1.200004 0
M  V30 28 H -1.576882 -1.338855 0.020370 0
M  V30 29 H -3.396169 0.704559 1.755155 0
M  V30 30 H -2.400491 2.962870 -0.192909 0
M  V30 31 H -3.369231 3.173771 1.287763 0
M  V30 32 H -5.306487 1.954196 0.277046 0
M  V30 33 H -4.601177 2.522502 -1.259608 0
M  V30 34 H -4.329670 -0.214816 -0.327168 0
M  V30 END ATOM
M  V30 BEGIN BOND
M  V30 1 1 1 2
M  V30 2 1 2 3
M  V30 3 2 3 4
M  V30 4 1 3 5
M  V30 5 1 5 6
M  V30 6 2 6 7
M  V30 7 1 7 8
M  V30 8 1 8 9
M  V30 9 2 8 10
M  V30 10 1 10 11
M  V30 11 1 11 12
M  V30 12 2 12 13
M  V30 13 1 13 14
M  V30 14 1 14 15
M  V30 15 1 15 16
M  V30 16 1 16 17
M  V30 17 1 17 18
M  V30 18 1 18 19
M  V30 19 1 14 20
M  V30 20 2 20 21
M  V30 21 2 11 5
M  V30 22 1 21 12
M  V30 23 1 18 15
M  V30 24 1 1 22
M  V30 25 1 1 23
M  V30 26 1 1 24
M  V30 27 1 6 25
M  V30 28 1 7 26
M  V30 29 1 10 27
M  V30 30 1 13 28
M  V30 31 1 15 29 CFG=1
M  V30 32 1 16 30
M  V30 33 1 16 31
M  V30 34 1 17 32
M  V30 35 1 17 33
M  V30 36 1 18 34 CFG=1
M  V30 END BOND
M  V30 BEGIN COLLECTION
M  V30 MDLV30/STERAC1 ATOMS=(2 15 18)
M  V30 END COLLECTION
M  V30 END CTAB
M  END
>  <_CXSMILES_Data>  (544) 
|&1:14,17|

$$$$
OCNT-2312089
     RDKit          3D

 45 49  0  0  0  0  0  0  0  0999 V2000
   -0.1828   -3.6592    1.9350 C   0  0  0  0  0  0  0  0  0  0  0  0
   -0.9404   -2.4883    1.4148 C   0  0  0  0  0  0  0  0  0  0  0  0
   -0.4978   -1.2274    1.0635 C   0  0  0  0  0  0  0  0  0  0  0  0
    0.8740   -0.7234    1.1200 C   0  0  0  0  0  0  0  0  0  0  0  0
    1.3365    0.5324    0.8016 C   0  0  0  0  0  0  0  0  0  0  0  0
    2.6766    0.4507    1.0244 N   0  0  0  0  0  0  0  0  0  0  0  0
    3.6708    1.4866    0.8526 C   0  0  0  0  0  0  0  0  0  0  0  0
    4.7130    1.2110   -0.2465 C   0  0  0  0  0  0  0  0  0  0  0  0
    4.1134    0.9502   -1.6339 C   0  0  0  0  0  0  0  0  0  0  0  0
    4.6751   -0.3964   -2.0542 C   0  0  0  0  0  0  0  0  0  0  0  0
    5.9602   -0.5020   -1.2630 C   0  0  0  0  0  0  0  0  0  0  0  0
    5.6111    0.0699    0.0405 N   0  0  0  0  0  0  0  0  0  0  0  0
    3.0273   -0.7707    1.4715 N   0  0  0  0  0  0  0  0  0  0  0  0
    1.9229   -1.5051    1.5242 N   0  0  0  0  0  0  0  0  0  0  0  0
   -1.4815   -0.3617    0.6078 N   0  0  0  0  0  0  0  0  0  0  0  0
   -2.6628   -0.9499    0.6146 C   0  0  0  0  0  0  0  0  0  0  0  0
   -3.9097   -0.2860    0.1762 C   0  0  0  0  0  0  0  0  0  0  0  0
   -5.1949   -0.8651    0.3278 C   0  0  0  0  0  0  0  0  0  0  0  0
   -6.3535   -0.2018   -0.1008 C   0  0  0  0  0  0  0  0  0  0  0  0
   -6.2073    1.0390   -0.6762 C   0  0  0  0  0  0  0  0  0  0  0  0
   -7.2129    1.8226   -1.1469 O   0  0  0  0  0  0  0  0  0  0  0  0
   -6.4685    2.9667   -1.6148 C   0  0  0  0  0  0  0  0  0  0  0  0
   -5.0445    2.8433   -1.4176 O   0  0  0  0  0  0  0  0  0  0  0  0
   -4.9729    1.6190   -0.8295 C   0  0  0  0  0  0  0  0  0  0  0  0
   -3.8168    0.9888   -0.4166 C   0  0  0  0  0  0  0  0  0  0  0  0
   -2.6329   -2.5828    1.1644 S   0  0  0  0  0  0  0  0  0  0  0  0
    0.3192   -3.4027    2.8737 H   0  0  0  0  0  0  0  0  0  0  0  0
    0.5744   -3.9760    1.2103 H   0  0  0  0  0  0  0  0  0  0  0  0
   -0.8316   -4.5191    2.1323 H   0  0  0  0  0  0  0  0  0  0  0  0
    0.8381    1.4230    0.4495 H   0  0  0  0  0  0  0  0  0  0  0  0
    4.1610    1.6215    1.8243 H   0  0  0  0  0  0  0  0  0  0  0  0
    3.1376    2.4174    0.6255 H   0  0  0  0  0  0  0  0  0  0  0  0
    5.3471    2.1051   -0.3123 H   0  0  0  0  0  0  0  0  0  0  0  0
    4.4586    1.7232   -2.3316 H   0  0  0  0  0  0  0  0  0  0  0  0
    3.0202    0.9485   -1.6623 H   0  0  0  0  0  0  0  0  0  0  0  0
    3.9820   -1.1966   -1.7665 H   0  0  0  0  0  0  0  0  0  0  0  0
    4.8393   -0.4581   -3.1340 H   0  0  0  0  0  0  0  0  0  0  0  0
    6.3072   -1.5352   -1.1702 H   0  0  0  0  0  0  0  0  0  0  0  0
    6.7588    0.0888   -1.7258 H   0  0  0  0  0  0  0  0  0  0  0  0
    5.0792   -0.6390    0.5632 H   0  0  0  0  0  0  0  0  0  0  0  0
   -5.3184   -1.8431    0.7874 H   0  0  0  0  0  0  0  0  0  0  0  0
   -7.3336   -0.6501    0.0181 H   0  0  0  0  0  0  0  0  0  0  0  0
   -6.8207    3.8565   -1.0804 H   0  0  0  0  0  0  0  0  0  0  0  0
   -6.6642    3.0986   -2.6851 H   0  0  0  0  0  0  0  0  0  0  0  0
   -2.8560    1.4767   -0.5526 H   0  0  0  0  0  0  0  0  0  0  0  0
  1  2  1  0
  2  3  2  0
  3  4  1  0
  4  5  2  0
  5  6  1  0
  6  7  1  0
  7  8  1  0
  8  9  1  0
  9 10  1  0
 10 11  1  0
 11 12  1  0
  6 13  1  0
 13 14  2  0
  3 15  1  0
 15 16  2  0
 16 17  1  0
 17 18  1  0
 18 19  2  0
 19 20  1  0
 20 21  1  0
 21 22  1  0
 22 23  1  0
 23 24  1  0
 24 25  1  0
 16 26  1  0
 26  2  1  0
 14  4  1  0
 25 17  2  0
 12  8  1  0
 24 20  2  0
  1 27  1  0
  1 28  1  0
  1 29  1  0
  5 30  1  0
  7 31  1  0
  7 32  1  0
  8 33  1  0
  9 34  1  0
  9 35  1  0
 10 36  1  0
 10 37  1  0
 11 38  1  0
 11 39  1  0
 12 40  1  0
 18 41  1  0
 19 42  1  0
 22 43  1  0
 22 44  1  0
 25 45  1  0
M  END
$$$$
OCNT-2312096
     RDKit          3D

 55 60  0  0  0  0  0  0  0  0999 V2000
    1.3010    4.4155    0.9353 C   0  0  0  0  0  0  0  0  0  0  0  0
    2.2351    3.2716    0.8652 C   0  0  0  0  0  0  0  0  0  0  0  0
    2.0414    2.0691    0.2164 C   0  0  0  0  0  0  0  0  0  0  0  0
    0.9822    1.6105   -0.5095 N   0  0  0  0  0  0  0  0  0  0  0  0
    1.0348    0.3954   -1.0057 C   0  0  0  0  0  0  0  0  0  0  0  0
   -0.0617   -0.0775   -1.7250 N   0  0  0  0  0  0  0  0  0  0  0  0
   -0.4973   -1.4816   -1.6872 C   0  0  0  0  0  0  0  0  0  0  0  0
   -1.5734   -1.6889   -0.6073 C   0  0  0  0  0  0  0  0  0  0  0  0
   -2.7299   -0.7818   -0.7965 N   0  0  0  0  0  0  0  0  0  0  0  0
   -3.9869   -1.1711   -0.3066 C   0  0  0  0  0  0  0  0  0  0  0  0
   -4.1127   -2.4118    0.1434 N   0  0  0  0  0  0  0  0  0  0  0  0
   -5.3209   -2.8629    0.6386 C   0  0  0  0  0  0  0  0  0  0  0  0
   -6.4323   -2.1152    0.7020 C   0  0  0  0  0  0  0  0  0  0  0  0
   -6.3492   -0.8222    0.2411 N   0  0  0  0  0  0  0  0  0  0  0  0
   -7.2500    0.1954    0.1514 C   0  0  0  0  0  0  0  0  0  0  0  0
   -6.6710    1.2535   -0.3746 N   0  0  0  0  0  0  0  0  0  0  0  0
   -5.3555    0.9242   -0.6372 N   0  0  0  0  0  0  0  0  0  0  0  0
   -5.1780   -0.3240   -0.2599 C   0  0  0  0  0  0  0  0  0  0  0  0
   -2.3669    0.6501   -0.9897 C   0  0  0  0  0  0  0  0  0  0  0  0
   -2.0721    1.3121    0.3572 C   0  0  0  0  0  0  0  0  0  0  0  0
   -1.2056    0.8178   -2.0076 C   0  0  0  0  0  0  0  0  0  0  0  0
    2.2604   -0.4676   -0.8322 C   0  0  0  0  0  0  0  0  0  0  0  0
    3.2939    0.0190   -0.1200 C   0  0  0  0  0  0  0  0  0  0  0  0
    4.4938   -0.8209    0.0640 C   0  0  0  0  0  0  0  0  0  0  0  0
    5.2192   -1.2894   -1.0424 C   0  0  0  0  0  0  0  0  0  0  0  0
    6.3441   -2.0981   -0.8634 C   0  0  0  0  0  0  0  0  0  0  0  0
    6.7567   -2.4449    0.4216 C   0  0  0  0  0  0  0  0  0  0  0  0
    6.0486   -1.9809    1.5284 C   0  0  0  0  0  0  0  0  0  0  0  0
    4.9232   -1.1728    1.3510 C   0  0  0  0  0  0  0  0  0  0  0  0
    3.1907    1.3038    0.4306 N   0  0  0  0  0  0  0  0  0  0  0  0
    4.0942    1.9831    1.1927 N   0  0  0  0  0  0  0  0  0  0  0  0
    3.5126    3.1548    1.4408 C   0  0  0  0  0  0  0  0  0  0  0  0
    1.0233    4.7494   -0.0699 H   0  0  0  0  0  0  0  0  0  0  0  0
    0.3879    4.1320    1.4691 H   0  0  0  0  0  0  0  0  0  0  0  0
    1.7517    5.2636    1.4607 H   0  0  0  0  0  0  0  0  0  0  0  0
    0.3291   -2.1744   -1.5109 H   0  0  0  0  0  0  0  0  0  0  0  0
   -0.9118   -1.7452   -2.6687 H   0  0  0  0  0  0  0  0  0  0  0  0
   -1.8817   -2.7388   -0.6670 H   0  0  0  0  0  0  0  0  0  0  0  0
   -1.1471   -1.5278    0.3899 H   0  0  0  0  0  0  0  0  0  0  0  0
   -5.3295   -3.8927    0.9880 H   0  0  0  0  0  0  0  0  0  0  0  0
   -7.3771   -2.4702    1.0898 H   0  0  0  0  0  0  0  0  0  0  0  0
   -8.2790    0.1202    0.4701 H   0  0  0  0  0  0  0  0  0  0  0  0
   -3.2032    1.1816   -1.4511 H   0  0  0  0  0  0  0  0  0  0  0  0
   -1.7970    2.3631    0.2213 H   0  0  0  0  0  0  0  0  0  0  0  0
   -2.9509    1.2832    1.0097 H   0  0  0  0  0  0  0  0  0  0  0  0
   -1.2610    0.8117    0.8945 H   0  0  0  0  0  0  0  0  0  0  0  0
   -1.5838    0.5571   -3.0055 H   0  0  0  0  0  0  0  0  0  0  0  0
   -0.8975    1.8677   -2.0797 H   0  0  0  0  0  0  0  0  0  0  0  0
    2.2870   -1.4392   -1.3025 H   0  0  0  0  0  0  0  0  0  0  0  0
    4.9223   -1.0173   -2.0528 H   0  0  0  0  0  0  0  0  0  0  0  0
    6.9024   -2.4505   -1.7268 H   0  0  0  0  0  0  0  0  0  0  0  0
    7.6356   -3.0689    0.5615 H   0  0  0  0  0  0  0  0  0  0  0  0
    6.3752   -2.2402    2.5322 H   0  0  0  0  0  0  0  0  0  0  0  0
    4.3894   -0.8113    2.2277 H   0  0  0  0  0  0  0  0  0  0  0  0
    4.0472    3.8827    2.0379 H   0  0  0  0  0  0  0  0  0  0  0  0
  1  2  1  0
  2  3  2  0
  3  4  1  0
  4  5  2  0
  5  6  1  0
  6  7  1  0
  7  8  1  0
  8  9  1  0
  9 10  1  0
 10 11  2  0
 11 12  1  0
 12 13  2  0
 13 14  1  0
 14 15  1  0
 15 16  2  0
 16 17  1  0
 17 18  2  0
  9 19  1  0
 19 20  1  0
 19 21  1  0
  5 22  1  0
 22 23  2  0
 23 24  1  0
 24 25  2  0
 25 26  1  0
 26 27  2  0
 27 28  1  0
 28 29  2  0
 23 30  1  0
 30 31  1  0
 31 32  2  0
 32  2  1  0
 30  3  1  0
 21  6  1  0
 29 24  1  0
 18 10  1  0
 18 14  1  0
  1 33  1  0
  1 34  1  0
  1 35  1  0
  7 36  1  0
  7 37  1  0
  8 38  1  0
  8 39  1  0
 12 40  1  0
 13 41  1  0
 15 42  1  0
 19 43  1  0
 20 44  1  0
 20 45  1  0
 20 46  1  0
 21 47  1  0
 21 48  1  0
 22 49  1  0
 25 50  1  0
 26 51  1  0
 27 52  1  0
 28 53  1  0
 29 54  1  0
 32 55  1  0
M  END
$$$$
OCNT-2312101
     RDKit          3D

 34 35  0  0  0  0  0  0  0  0999 V2000
   -3.3345    2.1080    0.1256 C   0  0  0  0  0  0  0  0  0  0  0  0
   -2.3643    0.9823    0.4750 C   0  0  0  0  0  0  0  0  0  0  0  0
   -1.2694    0.9195   -0.4863 N   0  0  0  0  0  0  0  0  0  0  0  0
   -0.1843    1.7564   -0.4302 C   0  0  0  0  0  0  0  0  0  0  0  0
   -0.0555    2.6433    0.4107 O   0  0  0  0  0  0  0  0  0  0  0  0
    0.9008    1.4550   -1.4598 C   0  0  0  0  0  0  0  0  0  0  0  0
    1.7445    0.3624   -0.9754 N   0  0  0  0  0  0  0  0  0  0  0  0
    2.8323    0.6521   -0.1660 C   0  0  0  0  0  0  0  0  0  0  0  0
    3.6147   -0.3156    0.3400 C   0  0  0  0  0  0  0  0  0  0  0  0
    4.8026   -0.0440    1.2193 C   0  0  0  0  0  0  0  0  0  0  0  0
    5.9450   -0.5373    0.6762 F   0  0  0  0  0  0  0  0  0  0  0  0
    4.6657   -0.6229    2.4386 F   0  0  0  0  0  0  0  0  0  0  0  0
    5.0089    1.2804    1.4306 F   0  0  0  0  0  0  0  0  0  0  0  0
    3.3028   -1.7005    0.0285 C   0  0  0  0  0  0  0  0  0  0  0  0
    2.2463   -2.0224   -0.7308 C   0  0  0  0  0  0  0  0  0  0  0  0
    1.8687   -3.6617   -1.0896 Cl  0  0  0  0  0  0  0  0  0  0  0  0
    1.3589   -0.9471   -1.2826 C   0  0  0  0  0  0  0  0  0  0  0  0
    0.3595   -1.2083   -1.9492 O   0  0  0  0  0  0  0  0  0  0  0  0
   -3.0615   -0.3517    0.5023 C   0  0  0  0  0  0  0  0  0  0  0  0
   -3.1188   -1.1700   -0.5629 N   0  0  0  0  0  0  0  0  0  0  0  0
   -3.7875   -2.2197   -0.0613 N   0  0  0  0  0  0  0  0  0  0  0  0
   -4.1176   -2.0164    1.2403 C   0  0  0  0  0  0  0  0  0  0  0  0
   -3.6716   -0.8459    1.6302 N   0  0  0  0  0  0  0  0  0  0  0  0
   -4.1590    2.1534    0.8457 H   0  0  0  0  0  0  0  0  0  0  0  0
   -2.8302    3.0799    0.1283 H   0  0  0  0  0  0  0  0  0  0  0  0
   -3.7688    1.9646   -0.8708 H   0  0  0  0  0  0  0  0  0  0  0  0
   -1.9336    1.1752    1.4652 H   0  0  0  0  0  0  0  0  0  0  0  0
   -1.2600    0.1096   -1.1088 H   0  0  0  0  0  0  0  0  0  0  0  0
    1.5029    2.3551   -1.6285 H   0  0  0  0  0  0  0  0  0  0  0  0
    0.4354    1.1890   -2.4156 H   0  0  0  0  0  0  0  0  0  0  0  0
    3.0175    1.7046    0.0463 H   0  0  0  0  0  0  0  0  0  0  0  0
    3.9501   -2.4740    0.4352 H   0  0  0  0  0  0  0  0  0  0  0  0
   -3.9766   -3.0194   -0.6551 H   0  0  0  0  0  0  0  0  0  0  0  0
   -4.6634   -2.7343    1.8354 H   0  0  0  0  0  0  0  0  0  0  0  0
  1  2  1  0
  2  3  1  0
  3  4  1  0
  4  5  2  0
  4  6  1  0
  6  7  1  0
  7  8  1  0
  8  9  2  0
  9 10  1  0
 10 11  1  0
 10 12  1  0
 10 13  1  0
  9 14  1  0
 14 15  2  0
 15 16  1  0
 15 17  1  0
 17 18  2  0
  2 19  1  0
 19 20  2  0
 20 21  1  0
 21 22  1  0
 22 23  2  0
 17  7  1  0
 23 19  1  0
  1 24  1  0
  1 25  1  0
  1 26  1  0
  2 27  1  0
  3 28  1  0
  6 29  1  0
  6 30  1  0
  8 31  1  0
 14 32  1  0
 21 33  1  0
 22 34  1  0
M  END
$$$$
OCNT-2312103
     RDKit          3D

 38 40  0  0  0  0  0  0  0  0999 V2000
   -3.3467    2.5232   -0.7544 O   0  0  0  0  0  0  0  0  0  0  0  0
   -3.5448    1.3483   -0.4659 C   0  0  0  0  0  0  0  0  0  0  0  0
   -2.6446    0.6021    0.2721 N   0  0  0  0  0  0  0  0  0  0  0  0
   -1.4623    1.2437    0.8270 C   0  0  0  0  0  0  0  0  0  0  0  0
   -0.4024    0.2166    1.2519 C   0  0  0  0  0  0  0  0  0  0  0  0
    0.7549    0.8786    1.8544 N   0  0  0  0  0  0  0  0  0  0  0  0
    1.7634   -0.0671    2.3417 C   0  0  0  0  0  0  0  0  0  0  0  0
    2.5303   -0.7565    1.2355 C   0  0  0  0  0  0  0  0  0  0  0  0
    2.2350   -2.1003    0.9180 C   0  0  0  0  0  0  0  0  0  0  0  0
    2.9040   -2.7768   -0.1007 C   0  0  0  0  0  0  0  0  0  0  0  0
    3.8963   -2.1447   -0.8495 C   0  0  0  0  0  0  0  0  0  0  0  0
    4.1924   -0.8145   -0.5362 C   0  0  0  0  0  0  0  0  0  0  0  0
    3.5419   -0.1113    0.4793 C   0  0  0  0  0  0  0  0  0  0  0  0
    4.1114    1.1966    0.5007 C   0  0  0  0  0  0  0  0  0  0  0  0
    5.0709    1.2596   -0.4827 C   0  0  0  0  0  0  0  0  0  0  0  0
    5.1119    0.0404   -1.1026 N   0  0  0  0  0  0  0  0  0  0  0  0
   -4.7436    0.6432   -0.8390 C   0  0  0  0  0  0  0  0  0  0  0  0
   -5.9741    1.1511   -1.2114 C   0  0  0  0  0  0  0  0  0  0  0  0
   -6.7752    0.0275   -1.4762 C   0  0  0  0  0  0  0  0  0  0  0  0
   -6.1096   -1.1165   -1.3071 N   0  0  0  0  0  0  0  0  0  0  0  0
   -4.8759   -0.7135   -0.9614 N   0  0  0  0  0  0  0  0  0  0  0  0
   -3.0319   -0.1559    0.8159 H   0  0  0  0  0  0  0  0  0  0  0  0
   -1.0470    1.9316    0.0810 H   0  0  0  0  0  0  0  0  0  0  0  0
   -1.7910    1.8402    1.6863 H   0  0  0  0  0  0  0  0  0  0  0  0
   -0.8517   -0.4788    1.9716 H   0  0  0  0  0  0  0  0  0  0  0  0
   -0.1092   -0.3661    0.3710 H   0  0  0  0  0  0  0  0  0  0  0  0
    1.1948    1.4885    1.1634 H   0  0  0  0  0  0  0  0  0  0  0  0
    1.3091   -0.7995    3.0206 H   0  0  0  0  0  0  0  0  0  0  0  0
    2.4809    0.4894    2.9572 H   0  0  0  0  0  0  0  0  0  0  0  0
    1.4656   -2.6288    1.4779 H   0  0  0  0  0  0  0  0  0  0  0  0
    2.6497   -3.8122   -0.3159 H   0  0  0  0  0  0  0  0  0  0  0  0
    4.4162   -2.6718   -1.6427 H   0  0  0  0  0  0  0  0  0  0  0  0
    3.8462    2.0051    1.1695 H   0  0  0  0  0  0  0  0  0  0  0  0
    5.7261    2.0629   -0.7917 H   0  0  0  0  0  0  0  0  0  0  0  0
    5.7270   -0.2054   -1.8658 H   0  0  0  0  0  0  0  0  0  0  0  0
   -6.2463    2.1962   -1.2701 H   0  0  0  0  0  0  0  0  0  0  0  0
   -7.8124   -0.0053   -1.7852 H   0  0  0  0  0  0  0  0  0  0  0  0
   -4.1593   -1.4201   -0.8379 H   0  0  0  0  0  0  0  0  0  0  0  0
  1  2  2  0
  2  3  1  0
  3  4  1  0
  4  5  1  0
  5  6  1  0
  6  7  1  0
  7  8  1  0
  8  9  1  0
  9 10  2  0
 10 11  1  0
 11 12  2  0
 12 13  1  0
 13 14  1  0
 14 15  2  0
 15 16  1  0
  2 17  1  0
 17 18  2  0
 18 19  1  0
 19 20  2  0
 20 21  1  0
 13  8  2  0
 21 17  1  0
 16 12  1  0
  3 22  1  0
  4 23  1  0
  4 24  1  0
  5 25  1  0
  5 26  1  0
  6 27  1  0
  7 28  1  0
  7 29  1  0
  9 30  1  0
 10 31  1  0
 11 32  1  0
 14 33  1  0
 15 34  1  0
 16 35  1  0
 18 36  1  0
 19 37  1  0
 21 38  1  0
M  END
$$$$
OCNT-2312104
     RDKit          3D

 52 56  0  0  0  0  0  0  0  0999 V2000
   -0.7270   -0.4226   -2.7468 O   0  0  0  0  0  0  0  0  0  0  0  0
   -0.7901   -1.1837   -1.7851 C   0  0  0  0  0  0  0  0  0  0  0  0
    0.1693   -2.1415   -1.5484 N   0  0  0  0  0  0  0  0  0  0  0  0
    1.3707   -2.2315   -2.3432 C   0  0  0  0  0  0  0  0  0  0  0  0
    2.5194   -1.5353   -1.6601 C   0  0  0  0  0  0  0  0  0  0  0  0
    2.6796   -0.1499   -1.7828 C   0  0  0  0  0  0  0  0  0  0  0  0
    3.7303    0.5052   -1.1334 C   0  0  0  0  0  0  0  0  0  0  0  0
    4.6448   -0.2034   -0.3387 C   0  0  0  0  0  0  0  0  0  0  0  0
    5.7503    0.4870    0.3437 C   0  0  0  0  0  0  0  0  0  0  0  0
    6.6425    1.3011   -0.3639 C   0  0  0  0  0  0  0  0  0  0  0  0
    7.6704    1.9295    0.3221 C   0  0  0  0  0  0  0  0  0  0  0  0
    7.8703    1.8093    1.6505 N   0  0  0  0  0  0  0  0  0  0  0  0
    7.0025    1.0246    2.3213 C   0  0  0  0  0  0  0  0  0  0  0  0
    5.9471    0.3534    1.7232 C   0  0  0  0  0  0  0  0  0  0  0  0
    4.4705   -1.5910   -0.2138 C   0  0  0  0  0  0  0  0  0  0  0  0
    3.4207   -2.2499   -0.8627 C   0  0  0  0  0  0  0  0  0  0  0  0
   -1.8616   -1.1398   -0.8029 C   0  0  0  0  0  0  0  0  0  0  0  0
   -2.2179   -2.0604    0.1805 C   0  0  0  0  0  0  0  0  0  0  0  0
   -3.3620   -1.5811    0.8676 C   0  0  0  0  0  0  0  0  0  0  0  0
   -3.6912   -0.3829    0.2882 C   0  0  0  0  0  0  0  0  0  0  0  0
   -2.7771   -0.1130   -0.6949 N   0  0  0  0  0  0  0  0  0  0  0  0
   -2.8506    1.1043   -1.4883 C   0  0  0  0  0  0  0  0  0  0  0  0
   -3.7701    2.1459   -0.8327 C   0  0  0  0  0  0  0  0  0  0  0  0
   -5.0703    1.5931   -0.4082 N   0  0  0  0  0  0  0  0  0  0  0  0
   -4.8533    0.5743    0.6359 C   0  0  0  0  0  0  0  0  0  0  0  0
   -4.8455    1.2377    2.0295 C   0  0  0  0  0  0  0  0  0  0  0  0
   -6.3748    1.0317    2.0897 C   0  0  0  0  0  0  0  0  0  0  0  0
   -6.2192   -0.0519    1.0006 C   0  0  0  0  0  0  0  0  0  0  0  0
    0.1737   -2.5983   -0.6499 H   0  0  0  0  0  0  0  0  0  0  0  0
    1.5949   -3.2963   -2.4722 H   0  0  0  0  0  0  0  0  0  0  0  0
    1.2119   -1.8127   -3.3433 H   0  0  0  0  0  0  0  0  0  0  0  0
    1.9788    0.4295   -2.3826 H   0  0  0  0  0  0  0  0  0  0  0  0
    3.8196    1.5844   -1.2423 H   0  0  0  0  0  0  0  0  0  0  0  0
    6.5502    1.4376   -1.4366 H   0  0  0  0  0  0  0  0  0  0  0  0
    8.3823    2.5642   -0.1979 H   0  0  0  0  0  0  0  0  0  0  0  0
    7.1800    0.9464    3.3901 H   0  0  0  0  0  0  0  0  0  0  0  0
    5.2829   -0.2529    2.3304 H   0  0  0  0  0  0  0  0  0  0  0  0
    5.1650   -2.1763    0.3860 H   0  0  0  0  0  0  0  0  0  0  0  0
    3.3180   -3.3260   -0.7426 H   0  0  0  0  0  0  0  0  0  0  0  0
   -1.7239   -3.0024    0.3783 H   0  0  0  0  0  0  0  0  0  0  0  0
   -3.8825   -2.0693    1.6813 H   0  0  0  0  0  0  0  0  0  0  0  0
   -3.2286    0.8158   -2.4753 H   0  0  0  0  0  0  0  0  0  0  0  0
   -1.8412    1.5162   -1.5812 H   0  0  0  0  0  0  0  0  0  0  0  0
   -3.9520    2.9583   -1.5453 H   0  0  0  0  0  0  0  0  0  0  0  0
   -3.2640    2.6031    0.0270 H   0  0  0  0  0  0  0  0  0  0  0  0
   -5.5352    1.2027   -1.2283 H   0  0  0  0  0  0  0  0  0  0  0  0
   -4.5146    2.2786    2.0969 H   0  0  0  0  0  0  0  0  0  0  0  0
   -4.3120    0.6651    2.7988 H   0  0  0  0  0  0  0  0  0  0  0  0
   -6.7671    0.6848    3.0492 H   0  0  0  0  0  0  0  0  0  0  0  0
   -6.9522    1.9051    1.7660 H   0  0  0  0  0  0  0  0  0  0  0  0
   -6.1667   -1.0629    1.4228 H   0  0  0  0  0  0  0  0  0  0  0  0
   -6.9956   -0.0541    0.2286 H   0  0  0  0  0  0  0  0  0  0  0  0
  1  2  2  0
  2  3  1  0
  3  4  1  0
  4  5  1  0
  5  6  1  0
  6  7  2  0
  7  8  1  0
  8  9  1  0
  9 10  2  0
 10 11  1  0
 11 12  2  0
 12 13  1  0
 13 14  2  0
  8 15  2  0
 15 16  1  0
  2 17  1  0
 17 18  2  0
 18 19  1  0
 19 20  2  0
 20 21  1  0
 21 22  1  0
 22 23  1  0
 23 24  1  0
 24 25  1  0
 25 26  1  0
 26 27  1  0
 27 28  1  0
 16  5  2  0
 21 17  1  0
 28 25  1  0
 14  9  1  0
 25 20  1  0
  3 29  1  0
  4 30  1  0
  4 31  1  0
  6 32  1  0
  7 33  1  0
 10 34  1  0
 11 35  1  0
 13 36  1  0
 14 37  1  0
 15 38  1  0
 16 39  1  0
 18 40  1  0
 19 41  1  0
 22 42  1  0
 22 43  1  0
 23 44  1  0
 23 45  1  0
 24 46  1  0
 26 47  1  0
 26 48  1  0
 27 49  1  0
 27 50  1  0
 28 51  1  0
 28 52  1  0
M  END
$$$$
OCNT-2312106
     RDKit          3D

 39 41  0  0  0  0  0  0  0  0999 V2000
   -4.4348    2.2354    0.0885 C   0  0  0  0  0  0  0  0  0  0  0  0
   -4.3680    0.8183   -0.4575 C   0  0  0  0  0  0  0  0  0  0  0  0
   -4.1224   -0.1765    0.6282 C   0  0  0  0  0  0  0  0  0  0  0  0
   -5.0711   -0.8129    1.2884 N   0  0  0  0  0  0  0  0  0  0  0  0
   -4.4334   -1.5996    2.2083 C   0  0  0  0  0  0  0  0  0  0  0  0
   -3.0730   -1.4545    2.1064 C   0  0  0  0  0  0  0  0  0  0  0  0
   -2.8817   -0.5624    1.0842 N   0  0  0  0  0  0  0  0  0  0  0  0
   -1.5814   -0.1133    0.6252 C   0  0  0  0  0  0  0  0  0  0  0  0
   -0.8200   -1.1702   -0.2018 C   0  0  0  0  0  0  0  0  0  0  0  0
   -1.5325   -1.5045   -1.5124 C   0  0  0  0  0  0  0  0  0  0  0  0
    0.5439   -0.7287   -0.4990 N   0  0  0  0  0  0  0  0  0  0  0  0
    1.5442   -0.7239    0.4670 C   0  0  0  0  0  0  0  0  0  0  0  0
    1.2906   -1.1004    1.6113 O   0  0  0  0  0  0  0  0  0  0  0  0
    2.8622   -0.2416    0.0385 C   0  0  0  0  0  0  0  0  0  0  0  0
    3.8859   -0.1482    0.8627 N   0  0  0  0  0  0  0  0  0  0  0  0
    5.0015    0.3328    0.1940 C   0  0  0  0  0  0  0  0  0  0  0  0
    6.2722    0.5622    0.7389 C   0  0  0  0  0  0  0  0  0  0  0  0
    7.2847    1.0392   -0.0290 N   0  0  0  0  0  0  0  0  0  0  0  0
    7.0523    1.2910   -1.3332 C   0  0  0  0  0  0  0  0  0  0  0  0
    5.8366    1.0991   -1.9673 C   0  0  0  0  0  0  0  0  0  0  0  0
    4.8067    0.6083   -1.1602 C   0  0  0  0  0  0  0  0  0  0  0  0
    3.1765    0.2464   -1.5784 S   0  0  0  0  0  0  0  0  0  0  0  0
   -5.2329    2.3350    0.8323 H   0  0  0  0  0  0  0  0  0  0  0  0
   -3.4935    2.5242    0.5678 H   0  0  0  0  0  0  0  0  0  0  0  0
   -4.6350    2.9445   -0.7210 H   0  0  0  0  0  0  0  0  0  0  0  0
   -5.3201    0.5794   -0.9463 H   0  0  0  0  0  0  0  0  0  0  0  0
   -3.5992    0.7510   -1.2336 H   0  0  0  0  0  0  0  0  0  0  0  0
   -4.9872   -2.2246    2.8965 H   0  0  0  0  0  0  0  0  0  0  0  0
   -2.2533   -1.8973    2.6563 H   0  0  0  0  0  0  0  0  0  0  0  0
   -1.0175    0.1604    1.5253 H   0  0  0  0  0  0  0  0  0  0  0  0
   -1.7035    0.8114    0.0520 H   0  0  0  0  0  0  0  0  0  0  0  0
   -0.7361   -2.0934    0.3856 H   0  0  0  0  0  0  0  0  0  0  0  0
   -0.9582   -2.2412   -2.0855 H   0  0  0  0  0  0  0  0  0  0  0  0
   -2.5262   -1.9263   -1.3346 H   0  0  0  0  0  0  0  0  0  0  0  0
   -1.6420   -0.6145   -2.1419 H   0  0  0  0  0  0  0  0  0  0  0  0
    0.7612   -0.3612   -1.4177 H   0  0  0  0  0  0  0  0  0  0  0  0
    6.4959    0.3708    1.7818 H   0  0  0  0  0  0  0  0  0  0  0  0
    7.9097    1.6699   -1.8848 H   0  0  0  0  0  0  0  0  0  0  0  0
    5.6987    1.3160   -3.0188 H   0  0  0  0  0  0  0  0  0  0  0  0
  1  2  1  0
  2  3  1  0
  3  4  2  0
  4  5  1  0
  5  6  2  0
  6  7  1  0
  7  8  1  0
  8  9  1  0
  9 10  1  0
  9 11  1  0
 11 12  1  0
 12 13  2  0
 12 14  1  0
 14 15  2  0
 15 16  1  0
 16 17  2  0
 17 18  1  0
 18 19  2  0
 19 20  1  0
 20 21  2  0
 21 22  1  0
  7  3  1  0
 22 14  1  0
 21 16  1  0
  1 23  1  0
  1 24  1  0
  1 25  1  0
  2 26  1  0
  2 27  1  0
  5 28  1  0
  6 29  1  0
  8 30  1  0
  8 31  1  0
  9 32  1  0
 10 33  1  0
 10 34  1  0
 10 35  1  0
 11 36  1  0
 17 37  1  0
 19 38  1  0
 20 39  1  0
M  END
$$$$
OCNT-2312113
     RDKit          3D

 40 42  0  0  0  0  0  0  0  0999 V2000
    5.0532    2.4443   -0.2531 C   0  0  0  0  0  0  0  0  0  0  0  0
    3.9521    1.4275   -0.3655 C   0  0  0  0  0  0  0  0  0  0  0  0
    3.2371    1.3120   -1.5641 C   0  0  0  0  0  0  0  0  0  0  0  0
    2.2076    0.3744   -1.6926 C   0  0  0  0  0  0  0  0  0  0  0  0
    1.8602   -0.4759   -0.6305 C   0  0  0  0  0  0  0  0  0  0  0  0
    0.7972   -1.4034   -0.8147 N   0  0  0  0  0  0  0  0  0  0  0  0
    0.9818   -2.4783   -1.6497 C   0  0  0  0  0  0  0  0  0  0  0  0
    0.5519   -3.6297   -1.2399 N   0  0  0  0  0  0  0  0  0  0  0  0
    0.0165   -3.3577    0.0037 C   0  0  0  0  0  0  0  0  0  0  0  0
   -0.6338   -4.1425    0.6784 O   0  0  0  0  0  0  0  0  0  0  0  0
    0.2706   -2.0239    0.3407 N   0  0  0  0  0  0  0  0  0  0  0  0
   -0.6737   -1.2835    1.1598 C   0  0  0  0  0  0  0  0  0  0  0  0
   -1.9777   -0.9512    0.4244 C   0  0  0  0  0  0  0  0  0  0  0  0
   -3.0087   -0.2535    1.3311 C   0  0  0  0  0  0  0  0  0  0  0  0
   -4.3155   -0.0018    0.5827 C   0  0  0  0  0  0  0  0  0  0  0  0
   -4.1600    1.3874   -0.0251 C   0  0  0  0  0  0  0  0  0  0  0  0
   -2.9652    1.9931    0.5803 N   0  0  0  0  0  0  0  0  0  0  0  0
   -2.6273    1.1641    1.7406 C   0  0  0  0  0  0  0  0  0  0  0  0
    2.5799   -0.3574    0.5670 C   0  0  0  0  0  0  0  0  0  0  0  0
    3.6110    0.5809    0.6982 C   0  0  0  0  0  0  0  0  0  0  0  0
    4.4428    0.6553    2.2113 Cl  0  0  0  0  0  0  0  0  0  0  0  0
    5.1720    3.0107   -1.1830 H   0  0  0  0  0  0  0  0  0  0  0  0
    6.0084    1.9515   -0.0456 H   0  0  0  0  0  0  0  0  0  0  0  0
    4.8297    3.1630    0.5418 H   0  0  0  0  0  0  0  0  0  0  0  0
    3.4729    1.9554   -2.4101 H   0  0  0  0  0  0  0  0  0  0  0  0
    1.6639    0.3225   -2.6344 H   0  0  0  0  0  0  0  0  0  0  0  0
    1.5107   -2.2995   -2.5992 H   0  0  0  0  0  0  0  0  0  0  0  0
   -0.1766   -0.3740    1.5086 H   0  0  0  0  0  0  0  0  0  0  0  0
   -0.8971   -1.8941    2.0425 H   0  0  0  0  0  0  0  0  0  0  0  0
   -2.4191   -1.8816    0.0443 H   0  0  0  0  0  0  0  0  0  0  0  0
   -1.7581   -0.3394   -0.4590 H   0  0  0  0  0  0  0  0  0  0  0  0
   -3.1905   -0.8800    2.2122 H   0  0  0  0  0  0  0  0  0  0  0  0
   -5.1476    0.0074    1.2981 H   0  0  0  0  0  0  0  0  0  0  0  0
   -4.5350   -0.7632   -0.1724 H   0  0  0  0  0  0  0  0  0  0  0  0
   -4.0367    1.3278   -1.1119 H   0  0  0  0  0  0  0  0  0  0  0  0
   -5.0435    2.0019    0.1762 H   0  0  0  0  0  0  0  0  0  0  0  0
   -2.2018    1.9510   -0.0948 H   0  0  0  0  0  0  0  0  0  0  0  0
   -3.2309    1.4881    2.5974 H   0  0  0  0  0  0  0  0  0  0  0  0
   -1.5771    1.2800    2.0193 H   0  0  0  0  0  0  0  0  0  0  0  0
    2.3565   -1.0079    1.4091 H   0  0  0  0  0  0  0  0  0  0  0  0
  1  2  1  0
  2  3  1  0
  3  4  2  0
  4  5  1  0
  5  6  1  0
  6  7  1  0
  7  8  2  0
  8  9  1  0
  9 10  2  0
  9 11  1  0
 11 12  1  0
 12 13  1  0
 13 14  1  0
 14 15  1  0
 15 16  1  0
 16 17  1  0
 17 18  1  0
  5 19  2  0
 19 20  1  0
 20 21  1  0
 20  2  2  0
 11  6  1  0
 18 14  1  0
  1 22  1  0
  1 23  1  0
  1 24  1  0
  3 25  1  0
  4 26  1  0
  7 27  1  0
 12 28  1  0
 12 29  1  0
 13 30  1  0
 13 31  1  0
 14 32  1  0
 15 33  1  0
 15 34  1  0
 16 35  1  0
 16 36  1  0
 17 37  1  0
 18 38  1  0
 18 39  1  0
 19 40  1  0
M  END
$$$$
OCNT-2312122
     RDKit          3D

 41 44  0  0  0  0  0  0  0  0999 V2000
   -4.2542    2.1735   -1.5939 C   0  0  0  0  0  0  0  0  0  0  0  0
   -3.5404    1.0227   -1.1631 O   0  0  0  0  0  0  0  0  0  0  0  0
   -4.0086    0.3462   -0.0642 C   0  0  0  0  0  0  0  0  0  0  0  0
   -5.1265    0.7593    0.6775 C   0  0  0  0  0  0  0  0  0  0  0  0
   -5.5781    0.0141    1.7698 C   0  0  0  0  0  0  0  0  0  0  0  0
   -4.9219   -1.1545    2.1343 C   0  0  0  0  0  0  0  0  0  0  0  0
   -3.8075   -1.5748    1.4095 C   0  0  0  0  0  0  0  0  0  0  0  0
   -3.3290   -0.8331    0.3125 C   0  0  0  0  0  0  0  0  0  0  0  0
   -2.1532   -1.3437   -0.3774 C   0  0  0  0  0  0  0  0  0  0  0  0
   -1.1719   -0.6230   -1.0197 C   0  0  0  0  0  0  0  0  0  0  0  0
   -0.2896   -1.5700   -1.4522 N   0  0  0  0  0  0  0  0  0  0  0  0
    0.8951   -1.3829   -2.2621 C   0  0  0  0  0  0  0  0  0  0  0  0
    1.9484   -0.6943   -1.4837 C   0  0  0  0  0  0  0  0  0  0  0  0
    2.2237    0.6024   -1.4297 N   0  0  0  0  0  0  0  0  0  0  0  0
    3.2834    0.6636   -0.5710 C   0  0  0  0  0  0  0  0  0  0  0  0
    3.6127   -0.5953   -0.1451 C   0  0  0  0  0  0  0  0  0  0  0  0
    4.6962   -0.9934    0.7692 C   0  0  0  0  0  0  0  0  0  0  0  0
    5.2118    0.2731    1.4922 C   0  0  0  0  0  0  0  0  0  0  0  0
    5.3317    1.4985    0.5522 C   0  0  0  0  0  0  0  0  0  0  0  0
    3.9879    1.8822   -0.1142 C   0  0  0  0  0  0  0  0  0  0  0  0
    2.7798   -1.4914   -0.7266 O   0  0  0  0  0  0  0  0  0  0  0  0
   -0.6951   -2.8077   -1.1112 N   0  0  0  0  0  0  0  0  0  0  0  0
   -1.8285   -2.6793   -0.4340 N   0  0  0  0  0  0  0  0  0  0  0  0
   -5.2829    1.9211   -1.8715 H   0  0  0  0  0  0  0  0  0  0  0  0
   -3.7551    2.5598   -2.4879 H   0  0  0  0  0  0  0  0  0  0  0  0
   -4.2282    2.9610   -0.8338 H   0  0  0  0  0  0  0  0  0  0  0  0
   -5.6768    1.6606    0.4284 H   0  0  0  0  0  0  0  0  0  0  0  0
   -6.4472    0.3466    2.3320 H   0  0  0  0  0  0  0  0  0  0  0  0
   -5.2726   -1.7406    2.9797 H   0  0  0  0  0  0  0  0  0  0  0  0
   -3.3020   -2.4919    1.7096 H   0  0  0  0  0  0  0  0  0  0  0  0
   -1.0228    0.4331   -1.1911 H   0  0  0  0  0  0  0  0  0  0  0  0
    0.6028   -0.7888   -3.1343 H   0  0  0  0  0  0  0  0  0  0  0  0
    1.2378   -2.3615   -2.6144 H   0  0  0  0  0  0  0  0  0  0  0  0
    5.5113   -1.4442    0.1922 H   0  0  0  0  0  0  0  0  0  0  0  0
    4.3508   -1.7306    1.5007 H   0  0  0  0  0  0  0  0  0  0  0  0
    4.5226    0.5277    2.3082 H   0  0  0  0  0  0  0  0  0  0  0  0
    6.1834    0.0591    1.9518 H   0  0  0  0  0  0  0  0  0  0  0  0
    5.7184    2.3588    1.1103 H   0  0  0  0  0  0  0  0  0  0  0  0
    6.0680    1.2675   -0.2288 H   0  0  0  0  0  0  0  0  0  0  0  0
    3.3576    2.4063    0.6135 H   0  0  0  0  0  0  0  0  0  0  0  0
    4.1687    2.5639   -0.9517 H   0  0  0  0  0  0  0  0  0  0  0  0
  1  2  1  0
  2  3  1  0
  3  4  2  0
  4  5  1  0
  5  6  2  0
  6  7  1  0
  7  8  2  0
  8  9  1  0
  9 10  2  0
 10 11  1  0
 11 12  1  0
 12 13  1  0
 13 14  2  0
 14 15  1  0
 15 16  2  0
 16 17  1  0
 17 18  1  0
 18 19  1  0
 19 20  1  0
 16 21  1  0
 11 22  1  0
 22 23  2  0
  8  3  1  0
 23  9  1  0
 21 13  1  0
 20 15  1  0
  1 24  1  0
  1 25  1  0
  1 26  1  0
  4 27  1  0
  5 28  1  0
  6 29  1  0
  7 30  1  0
 10 31  1  0
 12 32  1  0
 12 33  1  0
 17 34  1  0
 17 35  1  0
 18 36  1  0
 18 37  1  0
 19 38  1  0
 19 39  1  0
 20 40  1  0
 20 41  1  0
M  END
$$$$
OCNT-2312131
     RDKit          3D

 37 38  0  0  0  0  0  0  0  0999 V2000
    6.0435    1.9074   -0.4197 C   0  0  0  0  0  0  0  0  0  0  0  0
    5.1113    0.7255   -0.2444 C   0  0  0  0  0  0  0  0  0  0  0  0
    3.9597    1.1638    0.4799 O   0  0  0  0  0  0  0  0  0  0  0  0
    3.0853    0.0589    0.6491 N   0  0  0  0  0  0  0  0  0  0  0  0
    1.9906    0.0867   -0.2125 C   0  0  0  0  0  0  0  0  0  0  0  0
    1.9043    0.8424   -1.1765 O   0  0  0  0  0  0  0  0  0  0  0  0
    0.9553   -0.9753    0.1210 C   0  0  0  0  0  0  0  0  0  0  0  0
    1.4248   -2.3543   -0.3753 C   0  0  0  0  0  0  0  0  0  0  0  0
    0.5635   -3.4947    0.1520 C   0  0  0  0  0  0  0  0  0  0  0  0
   -0.3484   -0.5666   -0.3644 N   0  0  0  0  0  0  0  0  0  0  0  0
   -0.8048   -0.8805   -1.5891 N   0  0  0  0  0  0  0  0  0  0  0  0
   -2.0574   -0.4510   -1.6044 N   0  0  0  0  0  0  0  0  0  0  0  0
   -2.3162    0.0787   -0.3615 C   0  0  0  0  0  0  0  0  0  0  0  0
   -3.6072    0.6498    0.0012 C   0  0  0  0  0  0  0  0  0  0  0  0
   -4.6557    0.6860   -0.9316 C   0  0  0  0  0  0  0  0  0  0  0  0
   -5.8971    1.2321   -0.5882 C   0  0  0  0  0  0  0  0  0  0  0  0
   -6.0979    1.7458    0.6908 C   0  0  0  0  0  0  0  0  0  0  0  0
   -7.6244    2.4165    1.1137 Cl  0  0  0  0  0  0  0  0  0  0  0  0
   -5.0689    1.7198    1.6292 C   0  0  0  0  0  0  0  0  0  0  0  0
   -3.8279    1.1737    1.2849 C   0  0  0  0  0  0  0  0  0  0  0  0
   -1.2606   -0.0175    0.4679 N   0  0  0  0  0  0  0  0  0  0  0  0
    6.3352    2.3165    0.5532 H   0  0  0  0  0  0  0  0  0  0  0  0
    5.5443    2.7136   -0.9674 H   0  0  0  0  0  0  0  0  0  0  0  0
    6.9453    1.6158   -0.9653 H   0  0  0  0  0  0  0  0  0  0  0  0
    4.8108    0.3394   -1.2249 H   0  0  0  0  0  0  0  0  0  0  0  0
    5.6160   -0.0693    0.3164 H   0  0  0  0  0  0  0  0  0  0  0  0
    2.9332   -0.1826    1.6233 H   0  0  0  0  0  0  0  0  0  0  0  0
    0.8655   -1.0143    1.2159 H   0  0  0  0  0  0  0  0  0  0  0  0
    2.4585   -2.5320   -0.0535 H   0  0  0  0  0  0  0  0  0  0  0  0
    1.4397   -2.3861   -1.4717 H   0  0  0  0  0  0  0  0  0  0  0  0
    0.5563   -3.5051    1.2466 H   0  0  0  0  0  0  0  0  0  0  0  0
   -0.4700   -3.4153   -0.1979 H   0  0  0  0  0  0  0  0  0  0  0  0
    0.9602   -4.4551   -0.1922 H   0  0  0  0  0  0  0  0  0  0  0  0
   -4.5153    0.2903   -1.9364 H   0  0  0  0  0  0  0  0  0  0  0  0
   -6.6977    1.2529   -1.3230 H   0  0  0  0  0  0  0  0  0  0  0  0
   -5.2220    2.1221    2.6270 H   0  0  0  0  0  0  0  0  0  0  0  0
   -3.0320    1.1623    2.0275 H   0  0  0  0  0  0  0  0  0  0  0  0
  1  2  1  0
  2  3  1  0
  3  4  1  0
  4  5  1  0
  5  6  2  0
  5  7  1  0
  7  8  1  0
  8  9  1  0
  7 10  1  0
 10 11  1  0
 11 12  2  0
 12 13  1  0
 13 14  1  0
 14 15  1  0
 15 16  2  0
 16 17  1  0
 17 18  1  0
 17 19  2  0
 19 20  1  0
 13 21  2  0
 21 10  1  0
 20 14  2  0
  1 22  1  0
  1 23  1  0
  1 24  1  0
  2 25  1  0
  2 26  1  0
  4 27  1  0
  7 28  1  0
  8 29  1  0
  8 30  1  0
  9 31  1  0
  9 32  1  0
  9 33  1  0
 15 34  1  0
 16 35  1  0
 19 36  1  0
 20 37  1  0
M  END
$$$$
OCNT-2312136
     RDKit          3D

 40 42  0  0  0  0  0  0  0  0999 V2000
   -1.9682   -1.2886   -1.4357 C   0  0  0  0  0  0  0  0  0  0  0  0
   -2.2024    0.1171   -0.8375 C   0  0  0  0  0  0  0  0  0  0  0  0
   -1.9052    1.1582   -1.9415 C   0  0  0  0  0  0  0  0  0  0  0  0
   -1.3340    0.3746    0.3346 N   0  0  0  0  0  0  0  0  0  0  0  0
    0.1086    0.1966    0.1474 C   0  0  0  0  0  0  0  0  0  0  0  0
    0.8512    0.4587    1.4629 C   0  0  0  0  0  0  0  0  0  0  0  0
    2.3143    0.2831    1.2816 C   0  0  0  0  0  0  0  0  0  0  0  0
    3.1942    1.1480    0.8128 N   0  0  0  0  0  0  0  0  0  0  0  0
    4.3809    0.4602    0.8607 C   0  0  0  0  0  0  0  0  0  0  0  0
    5.6793    0.8405    0.5000 C   0  0  0  0  0  0  0  0  0  0  0  0
    6.7013   -0.1036    0.6676 C   0  0  0  0  0  0  0  0  0  0  0  0
    8.4732    0.3665    0.1927 Br  0  0  0  0  0  0  0  0  0  0  0  0
    6.4472   -1.3846    1.1762 C   0  0  0  0  0  0  0  0  0  0  0  0
    5.1519   -1.7744    1.5397 C   0  0  0  0  0  0  0  0  0  0  0  0
    4.1641   -0.8142    1.3605 C   0  0  0  0  0  0  0  0  0  0  0  0
    2.8332   -0.9360    1.6322 O   0  0  0  0  0  0  0  0  0  0  0  0
   -3.6613    0.1777   -0.3378 C   0  0  0  0  0  0  0  0  0  0  0  0
   -4.0579   -0.6255    0.7470 C   0  0  0  0  0  0  0  0  0  0  0  0
   -5.3685   -0.5750    1.1974 C   0  0  0  0  0  0  0  0  0  0  0  0
   -6.3175    0.2110    0.6527 N   0  0  0  0  0  0  0  0  0  0  0  0
   -5.9318    0.9805   -0.3847 C   0  0  0  0  0  0  0  0  0  0  0  0
   -4.6432    1.0001   -0.9052 C   0  0  0  0  0  0  0  0  0  0  0  0
   -2.7247   -1.5227   -2.1951 H   0  0  0  0  0  0  0  0  0  0  0  0
   -2.0210   -2.0749   -0.6736 H   0  0  0  0  0  0  0  0  0  0  0  0
   -0.9904   -1.3682   -1.9237 H   0  0  0  0  0  0  0  0  0  0  0  0
   -2.0484    2.1836   -1.5804 H   0  0  0  0  0  0  0  0  0  0  0  0
   -2.5554    1.0143   -2.8128 H   0  0  0  0  0  0  0  0  0  0  0  0
   -0.8786    1.0798   -2.3156 H   0  0  0  0  0  0  0  0  0  0  0  0
   -1.5244    1.3197    0.6710 H   0  0  0  0  0  0  0  0  0  0  0  0
    0.3313   -0.8262   -0.1764 H   0  0  0  0  0  0  0  0  0  0  0  0
    0.4899    0.8810   -0.6181 H   0  0  0  0  0  0  0  0  0  0  0  0
    0.6570    1.4811    1.8093 H   0  0  0  0  0  0  0  0  0  0  0  0
    0.4892   -0.2199    2.2449 H   0  0  0  0  0  0  0  0  0  0  0  0
    5.8689    1.8326    0.1076 H   0  0  0  0  0  0  0  0  0  0  0  0
    7.2623   -2.0962    1.2952 H   0  0  0  0  0  0  0  0  0  0  0  0
    4.9294   -2.7574    1.9352 H   0  0  0  0  0  0  0  0  0  0  0  0
   -3.3478   -1.2793    1.2450 H   0  0  0  0  0  0  0  0  0  0  0  0
   -5.6941   -1.1847    2.0351 H   0  0  0  0  0  0  0  0  0  0  0  0
   -6.7117    1.6078   -0.8073 H   0  0  0  0  0  0  0  0  0  0  0  0
   -4.4411    1.6584   -1.7416 H   0  0  0  0  0  0  0  0  0  0  0  0
  1  2  1  0
  2  3  1  0
  2  4  1  0
  4  5  1  0
  5  6  1  0
  6  7  1  0
  7  8  2  0
  8  9  1  0
  9 10  2  0
 10 11  1  0
 11 12  1  0
 11 13  2  0
 13 14  1  0
 14 15  2  0
 15 16  1  0
  2 17  1  0
 17 18  2  0
 18 19  1  0
 19 20  2  0
 20 21  1  0
 21 22  2  0
 16  7  1  0
 22 17  1  0
 15  9  1  0
  1 23  1  0
  1 24  1  0
  1 25  1  0
  3 26  1  0
  3 27  1  0
  3 28  1  0
  4 29  1  0
  5 30  1  0
  5 31  1  0
  6 32  1  0
  6 33  1  0
 10 34  1  0
 13 35  1  0
 14 36  1  0
 18 37  1  0
 19 38  1  0
 21 39  1  0
 22 40  1  0
M  END
$$$$
OCNT-2312140
     RDKit          3D

 37 40  0  0  0  0  0  0  0  0999 V2000
    5.6763    1.7078    1.1271 C   0  0  0  0  0  0  0  0  0  0  0  0
    5.1775    0.5206    0.3594 C   0  0  0  0  0  0  0  0  0  0  0  0
    3.8014    0.2820    0.2112 C   0  0  0  0  0  0  0  0  0  0  0  0
    3.3486   -0.8505   -0.4867 C   0  0  0  0  0  0  0  0  0  0  0  0
    1.9605   -1.1027   -0.6521 N   0  0  0  0  0  0  0  0  0  0  0  0
    0.8886   -0.3616   -0.2094 C   0  0  0  0  0  0  0  0  0  0  0  0
   -0.2162   -1.0555   -0.6419 C   0  0  0  0  0  0  0  0  0  0  0  0
   -1.7045   -0.6576   -0.4120 C   0  0  0  0  0  0  0  0  0  0  0  0
   -2.1284    0.4658    0.2693 C   0  0  0  0  0  0  0  0  0  0  0  0
   -3.5554    0.5624    0.3170 C   0  0  0  0  0  0  0  0  0  0  0  0
   -4.1422   -0.5009   -0.3416 C   0  0  0  0  0  0  0  0  0  0  0  0
   -5.6208   -0.7005   -0.4422 C   0  0  0  0  0  0  0  0  0  0  0  0
   -6.3417    0.5818    0.0279 C   0  0  0  0  0  0  0  0  0  0  0  0
   -5.7302    1.1800    1.2335 N   0  0  0  0  0  0  0  0  0  0  0  0
   -4.3637    1.6559    0.9511 C   0  0  0  0  0  0  0  0  0  0  0  0
   -3.0145   -1.5884   -0.9916 S   0  0  0  0  0  0  0  0  0  0  0  0
    0.1839   -2.1696   -1.3178 N   0  0  0  0  0  0  0  0  0  0  0  0
    1.5098   -2.1928   -1.3207 N   0  0  0  0  0  0  0  0  0  0  0  0
    4.2817   -1.7501   -1.0281 C   0  0  0  0  0  0  0  0  0  0  0  0
    5.6491   -1.5209   -0.8692 C   0  0  0  0  0  0  0  0  0  0  0  0
    6.0842   -0.3967   -0.1770 C   0  0  0  0  0  0  0  0  0  0  0  0
    7.4014   -0.1988   -0.0264 F   0  0  0  0  0  0  0  0  0  0  0  0
    5.9345    1.4118    2.1485 H   0  0  0  0  0  0  0  0  0  0  0  0
    6.5602    2.1381    0.6448 H   0  0  0  0  0  0  0  0  0  0  0  0
    4.9173    2.4958    1.1734 H   0  0  0  0  0  0  0  0  0  0  0  0
    3.1082    0.9944    0.6492 H   0  0  0  0  0  0  0  0  0  0  0  0
    0.9925    0.5532    0.3487 H   0  0  0  0  0  0  0  0  0  0  0  0
   -1.4595    1.1917    0.7138 H   0  0  0  0  0  0  0  0  0  0  0  0
   -5.9125   -1.5396    0.2013 H   0  0  0  0  0  0  0  0  0  0  0  0
   -5.9209   -0.9376   -1.4687 H   0  0  0  0  0  0  0  0  0  0  0  0
   -7.3902    0.3452    0.2411 H   0  0  0  0  0  0  0  0  0  0  0  0
   -6.3510    1.3265   -0.7786 H   0  0  0  0  0  0  0  0  0  0  0  0
   -5.6657    0.4594    1.9532 H   0  0  0  0  0  0  0  0  0  0  0  0
   -3.8984    1.9764    1.8896 H   0  0  0  0  0  0  0  0  0  0  0  0
   -4.4003    2.5266    0.2863 H   0  0  0  0  0  0  0  0  0  0  0  0
    3.9629   -2.6373   -1.5737 H   0  0  0  0  0  0  0  0  0  0  0  0
    6.3773   -2.2141   -1.2791 H   0  0  0  0  0  0  0  0  0  0  0  0
  1  2  1  0
  2  3  1  0
  3  4  2  0
  4  5  1  0
  5  6  1  0
  6  7  2  0
  7  8  1  0
  8  9  2  0
  9 10  1  0
 10 11  2  0
 11 12  1  0
 12 13  1  0
 13 14  1  0
 14 15  1  0
 11 16  1  0
  7 17  1  0
 17 18  2  0
  4 19  1  0
 19 20  2  0
 20 21  1  0
 21 22  1  0
 21  2  2  0
 18  5  1  0
 16  8  1  0
 15 10  1  0
  1 23  1  0
  1 24  1  0
  1 25  1  0
  3 26  1  0
  6 27  1  0
  9 28  1  0
 12 29  1  0
 12 30  1  0
 13 31  1  0
 13 32  1  0
 14 33  1  0
 15 34  1  0
 15 35  1  0
 19 36  1  0
 20 37  1  0
M  END
$$$$
OCNT-2312144
     RDKit          3D

 52 55  0  0  0  0  0  0  0  0999 V2000
    7.7254   -0.5301   -1.2056 C   0  0  0  0  0  0  0  0  0  0  0  0
    6.3082   -0.7182   -1.0155 N   0  0  0  0  0  0  0  0  0  0  0  0
    5.6486   -0.8688    0.1691 C   0  0  0  0  0  0  0  0  0  0  0  0
    4.3122   -1.0127   -0.1453 C   0  0  0  0  0  0  0  0  0  0  0  0
    3.1636   -1.2144    0.7833 C   0  0  0  0  0  0  0  0  0  0  0  0
    2.7364    0.0769    1.5029 C   0  0  0  0  0  0  0  0  0  0  0  0
    1.6973   -0.2042    2.5965 C   0  0  0  0  0  0  0  0  0  0  0  0
    0.3727   -0.2372    1.8461 C   0  0  0  0  0  0  0  0  0  0  0  0
    0.5805    0.6290    0.6977 N   0  0  0  0  0  0  0  0  0  0  0  0
   -0.3688    1.1566   -0.1417 C   0  0  0  0  0  0  0  0  0  0  0  0
   -0.1030    1.9953   -0.9968 O   0  0  0  0  0  0  0  0  0  0  0  0
   -1.6349    0.6818    0.0572 N   0  0  0  0  0  0  0  0  0  0  0  0
   -2.7510    1.0932   -0.7827 C   0  0  0  0  0  0  0  0  0  0  0  0
   -2.6784    0.4862   -2.1944 C   0  0  0  0  0  0  0  0  0  0  0  0
   -2.5944   -1.0384   -2.2341 C   0  0  0  0  0  0  0  0  0  0  0  0
   -3.5695   -1.7226   -1.2912 C   0  0  0  0  0  0  0  0  0  0  0  0
   -4.8368   -1.0728   -1.3252 O   0  0  0  0  0  0  0  0  0  0  0  0
   -4.9911   -0.1383   -0.3341 C   0  0  0  0  0  0  0  0  0  0  0  0
   -6.1969   -0.2031    0.3761 C   0  0  0  0  0  0  0  0  0  0  0  0
   -7.0999   -1.1513    0.0821 F   0  0  0  0  0  0  0  0  0  0  0  0
   -6.4788    0.6836    1.4089 C   0  0  0  0  0  0  0  0  0  0  0  0
   -5.5504    1.6630    1.7400 C   0  0  0  0  0  0  0  0  0  0  0  0
   -4.3548    1.7535    1.0231 C   0  0  0  0  0  0  0  0  0  0  0  0
   -4.0571    0.8680   -0.0377 C   0  0  0  0  0  0  0  0  0  0  0  0
    1.9726    1.0367    0.5868 C   0  0  0  0  0  0  0  0  0  0  0  0
    4.2848   -0.9376   -1.5574 C   0  0  0  0  0  0  0  0  0  0  0  0
    5.4970   -0.7595   -2.0859 N   0  0  0  0  0  0  0  0  0  0  0  0
    8.2249   -0.5219   -0.2337 H   0  0  0  0  0  0  0  0  0  0  0  0
    8.1045   -1.3557   -1.8132 H   0  0  0  0  0  0  0  0  0  0  0  0
    7.8814    0.4251   -1.7131 H   0  0  0  0  0  0  0  0  0  0  0  0
    6.1694   -0.8617    1.1163 H   0  0  0  0  0  0  0  0  0  0  0  0
    2.3216   -1.6516    0.2322 H   0  0  0  0  0  0  0  0  0  0  0  0
    3.4600   -1.9621    1.5309 H   0  0  0  0  0  0  0  0  0  0  0  0
    3.6196    0.5680    1.9285 H   0  0  0  0  0  0  0  0  0  0  0  0
    1.8826   -1.1226    3.1611 H   0  0  0  0  0  0  0  0  0  0  0  0
    1.6904    0.6304    3.3092 H   0  0  0  0  0  0  0  0  0  0  0  0
    0.1451   -1.2424    1.4754 H   0  0  0  0  0  0  0  0  0  0  0  0
   -0.4623    0.1164    2.4585 H   0  0  0  0  0  0  0  0  0  0  0  0
   -1.7286   -0.1840    0.5590 H   0  0  0  0  0  0  0  0  0  0  0  0
   -2.6580    2.1791   -0.9295 H   0  0  0  0  0  0  0  0  0  0  0  0
   -3.5518    0.8153   -2.7733 H   0  0  0  0  0  0  0  0  0  0  0  0
   -1.8042    0.8825   -2.7261 H   0  0  0  0  0  0  0  0  0  0  0  0
   -2.8058   -1.3557   -3.2630 H   0  0  0  0  0  0  0  0  0  0  0  0
   -1.5759   -1.3766   -2.0100 H   0  0  0  0  0  0  0  0  0  0  0  0
   -3.7216   -2.7564   -1.6220 H   0  0  0  0  0  0  0  0  0  0  0  0
   -3.1728   -1.7926   -0.2697 H   0  0  0  0  0  0  0  0  0  0  0  0
   -7.4184    0.6008    1.9454 H   0  0  0  0  0  0  0  0  0  0  0  0
   -5.7575    2.3632    2.5454 H   0  0  0  0  0  0  0  0  0  0  0  0
   -3.6448    2.5385    1.2854 H   0  0  0  0  0  0  0  0  0  0  0  0
    2.0410    2.0653    0.9608 H   0  0  0  0  0  0  0  0  0  0  0  0
    2.2979    1.0291   -0.4573 H   0  0  0  0  0  0  0  0  0  0  0  0
    3.4301   -1.0036   -2.2194 H   0  0  0  0  0  0  0  0  0  0  0  0
  1  2  1  0
  2  3  1  0
  3  4  2  0
  4  5  1  0
  5  6  1  0
  6  7  1  0
  7  8  1  0
  8  9  1  0
  9 10  1  0
 10 11  2  0
 10 12  1  0
 12 13  1  0
 13 14  1  0
 14 15  1  0
 15 16  1  0
 16 17  1  0
 17 18  1  0
 18 19  2  0
 19 20  1  0
 19 21  1  0
 21 22  2  0
 22 23  1  0
 23 24  2  0
  9 25  1  0
  4 26  1  0
 26 27  2  0
 27  2  1  0
 25  6  1  0
 24 13  1  0
 24 18  1  0
  1 28  1  0
  1 29  1  0
  1 30  1  0
  3 31  1  0
  5 32  1  0
  5 33  1  0
  6 34  1  0
  7 35  1  0
  7 36  1  0
  8 37  1  0
  8 38  1  0
 12 39  1  0
 13 40  1  0
 14 41  1  0
 14 42  1  0
 15 43  1  0
 15 44  1  0
 16 45  1  0
 16 46  1  0
 21 47  1  0
 22 48  1  0
 23 49  1  0
 25 50  1  0
 25 51  1  0
 26 52  1  0
M  END
$$$$
OCNT-2312145
     RDKit          3D

 45 47  0  0  0  0  0  0  0  0999 V2000
    5.4572    1.3750    2.4862 C   0  0  0  0  0  0  0  0  0  0  0  0
    4.2097    1.4084    1.8041 O   0  0  0  0  0  0  0  0  0  0  0  0
    3.9444    0.3717    0.9518 C   0  0  0  0  0  0  0  0  0  0  0  0
    4.7767   -0.7159    0.6989 C   0  0  0  0  0  0  0  0  0  0  0  0
    4.3724   -1.7077   -0.1951 C   0  0  0  0  0  0  0  0  0  0  0  0
    3.1380   -1.6118   -0.8394 C   0  0  0  0  0  0  0  0  0  0  0  0
    2.2787   -0.5248   -0.6128 C   0  0  0  0  0  0  0  0  0  0  0  0
    0.9236   -0.4350   -1.3092 C   0  0  0  0  0  0  0  0  0  0  0  0
   -0.1783   -1.2552   -0.6890 C   0  0  0  0  0  0  0  0  0  0  0  0
   -0.4035   -2.3976   -1.0676 O   0  0  0  0  0  0  0  0  0  0  0  0
   -0.8743   -0.6126    0.3066 N   0  0  0  0  0  0  0  0  0  0  0  0
   -1.9772   -1.2444    1.0176 C   0  0  0  0  0  0  0  0  0  0  0  0
   -2.1888   -0.5582    2.3663 C   0  0  0  0  0  0  0  0  0  0  0  0
   -3.2721   -1.3266    0.1777 C   0  0  0  0  0  0  0  0  0  0  0  0
   -3.7943   -0.0057   -0.3239 C   0  0  0  0  0  0  0  0  0  0  0  0
   -4.6851    0.7681    0.4233 C   0  0  0  0  0  0  0  0  0  0  0  0
   -5.1215    1.9920   -0.0754 C   0  0  0  0  0  0  0  0  0  0  0  0
   -4.6494    2.4042   -1.3103 C   0  0  0  0  0  0  0  0  0  0  0  0
   -3.7914    1.6845   -2.0633 N   0  0  0  0  0  0  0  0  0  0  0  0
   -3.3932    0.4953   -1.5589 C   0  0  0  0  0  0  0  0  0  0  0  0
    0.5551    0.8698   -2.0138 C   0  0  0  0  0  0  0  0  0  0  0  0
    0.9248   -0.3237   -2.8333 C   0  0  0  0  0  0  0  0  0  0  0  0
    2.7088    0.4554    0.2996 C   0  0  0  0  0  0  0  0  0  0  0  0
    6.2947    1.4042    1.7810 H   0  0  0  0  0  0  0  0  0  0  0  0
    5.5236    0.5022    3.1443 H   0  0  0  0  0  0  0  0  0  0  0  0
    5.5190    2.2696    3.1133 H   0  0  0  0  0  0  0  0  0  0  0  0
    5.7413   -0.8258    1.1817 H   0  0  0  0  0  0  0  0  0  0  0  0
    5.0170   -2.5616   -0.3883 H   0  0  0  0  0  0  0  0  0  0  0  0
    2.8329   -2.4009   -1.5252 H   0  0  0  0  0  0  0  0  0  0  0  0
   -0.6814    0.3684    0.4650 H   0  0  0  0  0  0  0  0  0  0  0  0
   -1.6693   -2.2784    1.2233 H   0  0  0  0  0  0  0  0  0  0  0  0
   -3.0155   -1.0184    2.9168 H   0  0  0  0  0  0  0  0  0  0  0  0
   -2.3984    0.5103    2.2517 H   0  0  0  0  0  0  0  0  0  0  0  0
   -1.2863   -0.6431    2.9822 H   0  0  0  0  0  0  0  0  0  0  0  0
   -4.0570   -1.8220    0.7643 H   0  0  0  0  0  0  0  0  0  0  0  0
   -3.1042   -1.9821   -0.6872 H   0  0  0  0  0  0  0  0  0  0  0  0
   -5.0430    0.4249    1.3905 H   0  0  0  0  0  0  0  0  0  0  0  0
   -5.8138    2.6097    0.4854 H   0  0  0  0  0  0  0  0  0  0  0  0
   -4.9609    3.3511   -1.7413 H   0  0  0  0  0  0  0  0  0  0  0  0
   -2.7165   -0.0652   -2.1995 H   0  0  0  0  0  0  0  0  0  0  0  0
    1.2566    1.6968   -1.9956 H   0  0  0  0  0  0  0  0  0  0  0  0
   -0.4810    1.1871   -2.0287 H   0  0  0  0  0  0  0  0  0  0  0  0
    1.8756   -0.3069   -3.3539 H   0  0  0  0  0  0  0  0  0  0  0  0
    0.1388   -0.8330   -3.3807 H   0  0  0  0  0  0  0  0  0  0  0  0
    2.0673    1.3078    0.5111 H   0  0  0  0  0  0  0  0  0  0  0  0
  1  2  1  0
  2  3  1  0
  3  4  1  0
  4  5  2  0
  5  6  1  0
  6  7  2  0
  7  8  1  0
  8  9  1  0
  9 10  2  0
  9 11  1  0
 11 12  1  0
 12 13  1  0
 12 14  1  0
 14 15  1  0
 15 16  1  0
 16 17  2  0
 17 18  1  0
 18 19  2  0
 19 20  1  0
  8 21  1  0
 21 22  1  0
  7 23  1  0
 23  3  2  0
 22  8  1  0
 20 15  2  0
  1 24  1  0
  1 25  1  0
  1 26  1  0
  4 27  1  0
  5 28  1  0
  6 29  1  0
 11 30  1  0
 12 31  1  0
 13 32  1  0
 13 33  1  0
 13 34  1  0
 14 35  1  0
 14 36  1  0
 16 37  1  0
 17 38  1  0
 18 39  1  0
 20 40  1  0
 21 41  1  0
 21 42  1  0
 22 43  1  0
 22 44  1  0
 23 45  1  0
M  END
$$$$
OCNT-2312154
     RDKit          3D

 51 54  0  0  0  0  0  0  0  0999 V2000
    5.3807    1.3437    2.7393 C   0  0  0  0  0  0  0  0  0  0  0  0
    5.2323    0.8548    1.4056 O   0  0  0  0  0  0  0  0  0  0  0  0
    3.9388    0.6045    1.0546 C   0  0  0  0  0  0  0  0  0  0  0  0
    2.9651    0.7682    1.7800 O   0  0  0  0  0  0  0  0  0  0  0  0
    3.8832    0.1139   -0.2992 C   0  0  0  0  0  0  0  0  0  0  0  0
    2.7713   -0.2654   -1.0356 C   0  0  0  0  0  0  0  0  0  0  0  0
    1.4818   -0.2237   -0.5296 N   0  0  0  0  0  0  0  0  0  0  0  0
    0.3463   -0.5743   -1.2266 C   0  0  0  0  0  0  0  0  0  0  0  0
    0.2651   -0.9101   -2.4015 O   0  0  0  0  0  0  0  0  0  0  0  0
   -0.8991   -0.4576   -0.4510 C   0  0  0  0  0  0  0  0  0  0  0  0
   -1.9464    0.3050   -0.9828 C   0  0  0  0  0  0  0  0  0  0  0  0
   -3.1239    0.4633   -0.2541 C   0  0  0  0  0  0  0  0  0  0  0  0
   -4.2576    1.2704   -0.7598 C   0  0  0  0  0  0  0  0  0  0  0  0
   -5.5853    0.9027   -0.4697 C   0  0  0  0  0  0  0  0  0  0  0  0
   -6.6703    1.6483   -0.9405 C   0  0  0  0  0  0  0  0  0  0  0  0
   -6.4506    2.7852   -1.7116 C   0  0  0  0  0  0  0  0  0  0  0  0
   -5.1487    3.1780   -2.0071 C   0  0  0  0  0  0  0  0  0  0  0  0
   -4.0650    2.4298   -1.5346 C   0  0  0  0  0  0  0  0  0  0  0  0
   -3.3238   -0.1046    0.9617 N   0  0  0  0  0  0  0  0  0  0  0  0
   -2.2995   -0.8527    1.4148 C   0  0  0  0  0  0  0  0  0  0  0  0
   -1.0842   -1.0880    0.7880 C   0  0  0  0  0  0  0  0  0  0  0  0
   -0.4024   -1.9834    1.6612 C   0  0  0  0  0  0  0  0  0  0  0  0
    0.9164   -2.6432    1.4843 C   0  0  0  0  0  0  0  0  0  0  0  0
   -1.1131   -2.2399    2.7702 N   0  0  0  0  0  0  0  0  0  0  0  0
   -2.2540   -1.5417    2.5939 N   0  0  0  0  0  0  0  0  0  0  0  0
   -3.2860   -1.6008    3.5978 C   0  0  0  0  0  0  0  0  0  0  0  0
    3.2267   -0.6785   -2.3116 C   0  0  0  0  0  0  0  0  0  0  0  0
    4.5999   -0.5449   -2.3364 C   0  0  0  0  0  0  0  0  0  0  0  0
    5.5833   -0.8301   -3.4092 C   0  0  0  0  0  0  0  0  0  0  0  0
    4.9824   -0.0634   -1.1113 N   0  0  0  0  0  0  0  0  0  0  0  0
    4.8795    2.3103    2.8497 H   0  0  0  0  0  0  0  0  0  0  0  0
    6.4477    1.4826    2.9322 H   0  0  0  0  0  0  0  0  0  0  0  0
    4.9913    0.6192    3.4611 H   0  0  0  0  0  0  0  0  0  0  0  0
    1.3937    0.1226    0.4241 H   0  0  0  0  0  0  0  0  0  0  0  0
   -1.8291    0.7559   -1.9643 H   0  0  0  0  0  0  0  0  0  0  0  0
   -5.7818    0.0163    0.1318 H   0  0  0  0  0  0  0  0  0  0  0  0
   -7.6845    1.3387   -0.7013 H   0  0  0  0  0  0  0  0  0  0  0  0
   -7.2926    3.3667   -2.0774 H   0  0  0  0  0  0  0  0  0  0  0  0
   -4.9729    4.0706   -2.6022 H   0  0  0  0  0  0  0  0  0  0  0  0
   -3.0622    2.7797   -1.7692 H   0  0  0  0  0  0  0  0  0  0  0  0
    1.7235   -1.9702    1.7875 H   0  0  0  0  0  0  0  0  0  0  0  0
    0.9895   -3.5508    2.0933 H   0  0  0  0  0  0  0  0  0  0  0  0
    1.0721   -2.9376    0.4423 H   0  0  0  0  0  0  0  0  0  0  0  0
   -4.0031   -0.7915    3.4433 H   0  0  0  0  0  0  0  0  0  0  0  0
   -3.7859   -2.5687    3.5157 H   0  0  0  0  0  0  0  0  0  0  0  0
   -2.8231   -1.4935    4.5823 H   0  0  0  0  0  0  0  0  0  0  0  0
    2.6203   -1.0389   -3.1338 H   0  0  0  0  0  0  0  0  0  0  0  0
    5.0837   -1.1871   -4.3153 H   0  0  0  0  0  0  0  0  0  0  0  0
    6.1459    0.0733   -3.6656 H   0  0  0  0  0  0  0  0  0  0  0  0
    6.2913   -1.6001   -3.0863 H   0  0  0  0  0  0  0  0  0  0  0  0
    5.9332    0.1373   -0.8269 H   0  0  0  0  0  0  0  0  0  0  0  0
  1  2  1  0
  2  3  1  0
  3  4  2  0
  3  5  1  0
  5  6  2  0
  6  7  1  0
  7  8  1  0
  8  9  2  0
  8 10  1  0
 10 11  2  0
 11 12  1  0
 12 13  1  0
 13 14  2  0
 14 15  1  0
 15 16  2  0
 16 17  1  0
 17 18  2  0
 12 19  2  0
 19 20  1  0
 20 21  2  0
 21 22  1  0
 22 23  1  0
 22 24  2  0
 24 25  1  0
 25 26  1  0
  6 27  1  0
 27 28  2  0
 28 29  1  0
 28 30  1  0
 30  5  1  0
 21 10  1  0
 18 13  1  0
 25 20  1  0
  1 31  1  0
  1 32  1  0
  1 33  1  0
  7 34  1  0
 11 35  1  0
 14 36  1  0
 15 37  1  0
 16 38  1  0
 17 39  1  0
 18 40  1  0
 23 41  1  0
 23 42  1  0
 23 43  1  0
 26 44  1  0
 26 45  1  0
 26 46  1  0
 27 47  1  0
 29 48  1  0
 29 49  1  0
 29 50  1  0
 30 51  1  0
M  END
$$$$
OCNT-2312156
     RDKit          3D

 40 43  0  0  0  0  0  0  0  0999 V2000
   -0.1075    1.1046    0.0326 O   0  0  0  0  0  0  0  0  0  0  0  0
   -0.1363   -0.0183   -0.4562 C   0  0  0  0  0  0  0  0  0  0  0  0
    0.9537   -0.8346   -0.6468 N   0  0  0  0  0  0  0  0  0  0  0  0
    2.2256   -0.4645   -0.3186 C   0  0  0  0  0  0  0  0  0  0  0  0
    2.6714    0.6620    0.1732 N   0  0  0  0  0  0  0  0  0  0  0  0
    4.0411    0.5757    0.3404 C   0  0  0  0  0  0  0  0  0  0  0  0
    4.6029   -0.6259   -0.0307 C   0  0  0  0  0  0  0  0  0  0  0  0
    6.1115   -1.0123    0.0415 C   0  0  0  0  0  0  0  0  0  0  0  0
    7.0363   -0.3316    1.0155 C   0  0  0  0  0  0  0  0  0  0  0  0
    7.1481   -0.0385   -0.4540 C   0  0  0  0  0  0  0  0  0  0  0  0
    3.3920   -1.6810   -0.6104 S   0  0  0  0  0  0  0  0  0  0  0  0
   -1.3871   -0.6384   -0.8927 C   0  0  0  0  0  0  0  0  0  0  0  0
   -1.5831   -1.5563   -1.9209 C   0  0  0  0  0  0  0  0  0  0  0  0
   -2.9653   -1.8113   -2.0419 C   0  0  0  0  0  0  0  0  0  0  0  0
   -3.5974   -1.0503   -1.0907 C   0  0  0  0  0  0  0  0  0  0  0  0
   -2.6445   -0.3738   -0.3628 N   0  0  0  0  0  0  0  0  0  0  0  0
   -2.9366    0.5046    0.7676 C   0  0  0  0  0  0  0  0  0  0  0  0
   -3.9330   -0.0737    1.7952 C   0  0  0  0  0  0  0  0  0  0  0  0
   -4.8808    1.0741    2.1189 C   0  0  0  0  0  0  0  0  0  0  0  0
   -4.9600    1.8510    0.8170 C   0  0  0  0  0  0  0  0  0  0  0  0
   -3.5201    1.8553    0.3213 C   0  0  0  0  0  0  0  0  0  0  0  0
    0.8318   -1.7698   -0.9971 H   0  0  0  0  0  0  0  0  0  0  0  0
    4.5727    1.4312    0.7376 H   0  0  0  0  0  0  0  0  0  0  0  0
    6.3085   -2.0652   -0.1460 H   0  0  0  0  0  0  0  0  0  0  0  0
    6.6520    0.4455    1.6647 H   0  0  0  0  0  0  0  0  0  0  0  0
    7.8156   -0.9312    1.4734 H   0  0  0  0  0  0  0  0  0  0  0  0
    8.0015   -0.4395   -0.9893 H   0  0  0  0  0  0  0  0  0  0  0  0
    6.8309    0.9367   -0.8053 H   0  0  0  0  0  0  0  0  0  0  0  0
   -0.8138   -1.9655   -2.5632 H   0  0  0  0  0  0  0  0  0  0  0  0
   -3.4518   -2.4556   -2.7631 H   0  0  0  0  0  0  0  0  0  0  0  0
   -4.6521   -0.9399   -0.8747 H   0  0  0  0  0  0  0  0  0  0  0  0
   -1.9987    0.6745    1.3033 H   0  0  0  0  0  0  0  0  0  0  0  0
   -3.4178   -0.4242    2.6967 H   0  0  0  0  0  0  0  0  0  0  0  0
   -4.5014   -0.9254    1.4071 H   0  0  0  0  0  0  0  0  0  0  0  0
   -4.4547    1.7028    2.9102 H   0  0  0  0  0  0  0  0  0  0  0  0
   -5.8603    0.7209    2.4545 H   0  0  0  0  0  0  0  0  0  0  0  0
   -5.3535    2.8619    0.9583 H   0  0  0  0  0  0  0  0  0  0  0  0
   -5.6063    1.3293    0.1015 H   0  0  0  0  0  0  0  0  0  0  0  0
   -3.4636    2.0306   -0.7582 H   0  0  0  0  0  0  0  0  0  0  0  0
   -2.9699    2.6661    0.8146 H   0  0  0  0  0  0  0  0  0  0  0  0
  1  2  2  0
  2  3  1  0
  3  4  1  0
  4  5  2  0
  5  6  1  0
  6  7  2  0
  7  8  1  0
  8  9  1  0
  9 10  1  0
  7 11  1  0
  2 12  1  0
 12 13  2  0
 13 14  1  0
 14 15  2  0
 15 16  1  0
 16 17  1  0
 17 18  1  0
 18 19  1  0
 19 20  1  0
 20 21  1  0
 11  4  1  0
 16 12  1  0
 21 17  1  0
 10  8  1  0
  3 22  1  0
  6 23  1  0
  8 24  1  0
  9 25  1  0
  9 26  1  0
 10 27  1  0
 10 28  1  0
 13 29  1  0
 14 30  1  0
 15 31  1  0
 17 32  1  0
 18 33  1  0
 18 34  1  0
 19 35  1  0
 19 36  1  0
 20 37  1  0
 20 38  1  0
 21 39  1  0
 21 40  1  0
M  END
$$$$
OCNT-2312161
     RDKit          3D

 51 54  0  0  0  0  0  0  0  0999 V2000
   -0.8108    1.4394    2.5689 O   0  0  0  0  0  0  0  0  0  0  0  0
   -0.8835    0.9545    1.4333 C   0  0  0  0  0  0  0  0  0  0  0  0
    0.2824    0.5315    0.7741 N   0  0  0  0  0  0  0  0  0  0  0  0
    1.5118    0.5681    1.5698 C   0  0  0  0  0  0  0  0  0  0  0  0
    2.7664    0.7074    0.7124 C   0  0  0  0  0  0  0  0  0  0  0  0
    2.8215   -0.3627   -0.3857 C   0  0  0  0  0  0  0  0  0  0  0  0
    4.0405   -0.1872   -1.3049 C   0  0  0  0  0  0  0  0  0  0  0  0
    5.3012   -0.4537   -0.6474 N   0  0  0  0  0  0  0  0  0  0  0  0
    5.8924   -1.6602   -0.4396 C   0  0  0  0  0  0  0  0  0  0  0  0
    7.0378   -1.4854    0.1779 N   0  0  0  0  0  0  0  0  0  0  0  0
    7.1049   -0.1279    0.3188 C   0  0  0  0  0  0  0  0  0  0  0  0
    6.0648    0.5478   -0.1771 N   0  0  0  0  0  0  0  0  0  0  0  0
    1.5301   -0.2914   -1.2099 C   0  0  0  0  0  0  0  0  0  0  0  0
    0.2894   -0.4238   -0.3309 C   0  0  0  0  0  0  0  0  0  0  0  0
   -2.2641    0.8790    0.7090 C   0  0  0  0  0  0  0  0  0  0  0  0
   -2.7387   -0.5663    0.4791 C   0  0  0  0  0  0  0  0  0  0  0  0
   -3.3068   -1.0021   -0.7321 C   0  0  0  0  0  0  0  0  0  0  0  0
   -3.7312   -2.3256   -0.8985 C   0  0  0  0  0  0  0  0  0  0  0  0
   -3.6062   -3.2411    0.1426 C   0  0  0  0  0  0  0  0  0  0  0  0
   -3.0623   -2.8305    1.3543 C   0  0  0  0  0  0  0  0  0  0  0  0
   -2.6420   -1.5116    1.5144 C   0  0  0  0  0  0  0  0  0  0  0  0
   -2.1366   -1.1598    2.7039 F   0  0  0  0  0  0  0  0  0  0  0  0
   -2.2226    1.8131   -0.5316 C   0  0  0  0  0  0  0  0  0  0  0  0
   -3.6069    2.4546   -0.6750 C   0  0  0  0  0  0  0  0  0  0  0  0
   -4.3976    2.0585    0.5613 C   0  0  0  0  0  0  0  0  0  0  0  0
   -3.3438    1.6075    1.5614 C   0  0  0  0  0  0  0  0  0  0  0  0
    1.4850    1.4005    2.2816 H   0  0  0  0  0  0  0  0  0  0  0  0
    1.5490   -0.3592    2.1551 H   0  0  0  0  0  0  0  0  0  0  0  0
    3.6456    0.6399    1.3625 H   0  0  0  0  0  0  0  0  0  0  0  0
    2.7794    1.7052    0.2549 H   0  0  0  0  0  0  0  0  0  0  0  0
    2.8746   -1.3503    0.0928 H   0  0  0  0  0  0  0  0  0  0  0  0
    4.0848    0.8275   -1.7187 H   0  0  0  0  0  0  0  0  0  0  0  0
    3.9816   -0.8805   -2.1530 H   0  0  0  0  0  0  0  0  0  0  0  0
    5.4615   -2.6032   -0.7449 H   0  0  0  0  0  0  0  0  0  0  0  0
    7.9342    0.3802    0.7941 H   0  0  0  0  0  0  0  0  0  0  0  0
    1.4885    0.6657   -1.7464 H   0  0  0  0  0  0  0  0  0  0  0  0
    1.5214   -1.0838   -1.9676 H   0  0  0  0  0  0  0  0  0  0  0  0
   -0.5824   -0.2982   -0.9679 H   0  0  0  0  0  0  0  0  0  0  0  0
    0.2377   -1.4288    0.1048 H   0  0  0  0  0  0  0  0  0  0  0  0
   -3.4409   -0.3239   -1.5704 H   0  0  0  0  0  0  0  0  0  0  0  0
   -4.1690   -2.6383   -1.8441 H   0  0  0  0  0  0  0  0  0  0  0  0
   -3.9414   -4.2669    0.0136 H   0  0  0  0  0  0  0  0  0  0  0  0
   -2.9669   -3.5244    2.1838 H   0  0  0  0  0  0  0  0  0  0  0  0
   -1.9264    1.3179   -1.4607 H   0  0  0  0  0  0  0  0  0  0  0  0
   -1.4905    2.6176   -0.3769 H   0  0  0  0  0  0  0  0  0  0  0  0
   -4.1144    2.1195   -1.5856 H   0  0  0  0  0  0  0  0  0  0  0  0
   -3.5092    3.5441   -0.7416 H   0  0  0  0  0  0  0  0  0  0  0  0
   -5.0014    2.8863    0.9456 H   0  0  0  0  0  0  0  0  0  0  0  0
   -5.0818    1.2352    0.3264 H   0  0  0  0  0  0  0  0  0  0  0  0
   -2.9296    2.5005    2.0480 H   0  0  0  0  0  0  0  0  0  0  0  0
   -3.7797    0.9857    2.3509 H   0  0  0  0  0  0  0  0  0  0  0  0
  1  2  2  0
  2  3  1  0
  3  4  1  0
  4  5  1  0
  5  6  1  0
  6  7  1  0
  7  8  1  0
  8  9  1  0
  9 10  2  0
 10 11  1  0
 11 12  2  0
  6 13  1  0
 13 14  1  0
  2 15  1  0
 15 16  1  0
 16 17  2  0
 17 18  1  0
 18 19  2  0
 19 20  1  0
 20 21  2  0
 21 22  1  0
 15 23  1  0
 23 24  1  0
 24 25  1  0
 25 26  1  0
 14  3  1  0
 26 15  1  0
 12  8  1  0
 21 16  1  0
  4 27  1  0
  4 28  1  0
  5 29  1  0
  5 30  1  0
  6 31  1  0
  7 32  1  0
  7 33  1  0
  9 34  1  0
 11 35  1  0
 13 36  1  0
 13 37  1  0
 14 38  1  0
 14 39  1  0
 17 40  1  0
 18 41  1  0
 19 42  1  0
 20 43  1  0
 23 44  1  0
 23 45  1  0
 24 46  1  0
 24 47  1  0
 25 48  1  0
 25 49  1  0
 26 50  1  0
 26 51  1  0
M  END
$$$$
OCNT-2312174
     RDKit          3D

 42 45  0  0  0  0  0  0  0  0999 V2000
    7.0992   -1.1575    1.9673 C   0  0  0  0  0  0  0  0  0  0  0  0
    6.4490   -0.5107    0.7570 C   0  0  0  0  0  0  0  0  0  0  0  0
    4.9373   -0.4041    0.8912 C   0  0  0  0  0  0  0  0  0  0  0  0
    4.3406   -0.8003    1.8849 O   0  0  0  0  0  0  0  0  0  0  0  0
    4.3742    0.1858   -0.2302 N   0  0  0  0  0  0  0  0  0  0  0  0
    3.0093    0.4403   -0.4740 C   0  0  0  0  0  0  0  0  0  0  0  0
    2.6815    1.0718   -1.6784 C   0  0  0  0  0  0  0  0  0  0  0  0
    1.3488    1.3580   -1.9950 C   0  0  0  0  0  0  0  0  0  0  0  0
    0.3120    1.0011   -1.1267 C   0  0  0  0  0  0  0  0  0  0  0  0
   -1.0105    1.3564   -1.4779 N   0  0  0  0  0  0  0  0  0  0  0  0
   -2.1392    0.7787   -0.9390 C   0  0  0  0  0  0  0  0  0  0  0  0
   -3.0467    1.6023   -0.4712 N   0  0  0  0  0  0  0  0  0  0  0  0
   -4.2373    1.0969    0.0986 C   0  0  0  0  0  0  0  0  0  0  0  0
   -5.1696    2.0022    0.6063 C   0  0  0  0  0  0  0  0  0  0  0  0
   -6.3610    1.5500    1.1813 C   0  0  0  0  0  0  0  0  0  0  0  0
   -6.6324    0.1822    1.2540 C   0  0  0  0  0  0  0  0  0  0  0  0
   -5.7165   -0.7432    0.7531 C   0  0  0  0  0  0  0  0  0  0  0  0
   -4.5305   -0.2747    0.1826 C   0  0  0  0  0  0  0  0  0  0  0  0
   -3.5570   -1.1284   -0.3489 N   0  0  0  0  0  0  0  0  0  0  0  0
   -3.5146   -2.4912   -0.4559 C   0  0  0  0  0  0  0  0  0  0  0  0
   -2.4142   -2.8978   -1.0544 N   0  0  0  0  0  0  0  0  0  0  0  0
   -1.7172   -1.7486   -1.3397 C   0  0  0  0  0  0  0  0  0  0  0  0
   -2.4005   -0.6382   -0.8975 C   0  0  0  0  0  0  0  0  0  0  0  0
    0.6461    0.3912    0.0858 C   0  0  0  0  0  0  0  0  0  0  0  0
    1.9810    0.1062    0.4059 C   0  0  0  0  0  0  0  0  0  0  0  0
    8.1835   -1.2161    1.8317 H   0  0  0  0  0  0  0  0  0  0  0  0
    6.8988   -0.5809    2.8764 H   0  0  0  0  0  0  0  0  0  0  0  0
    6.7184   -2.1723    2.1228 H   0  0  0  0  0  0  0  0  0  0  0  0
    6.8577    0.4969    0.6199 H   0  0  0  0  0  0  0  0  0  0  0  0
    6.6779   -1.1012   -0.1373 H   0  0  0  0  0  0  0  0  0  0  0  0
    5.0149    0.4702   -0.9603 H   0  0  0  0  0  0  0  0  0  0  0  0
    3.4537    1.3537   -2.3893 H   0  0  0  0  0  0  0  0  0  0  0  0
    1.1221    1.8500   -2.9383 H   0  0  0  0  0  0  0  0  0  0  0  0
   -1.1041    2.3681   -1.4283 H   0  0  0  0  0  0  0  0  0  0  0  0
   -4.9643    3.0682    0.5533 H   0  0  0  0  0  0  0  0  0  0  0  0
   -7.0774    2.2681    1.5730 H   0  0  0  0  0  0  0  0  0  0  0  0
   -7.5619   -0.1608    1.7030 H   0  0  0  0  0  0  0  0  0  0  0  0
   -5.9498   -1.8009    0.8205 H   0  0  0  0  0  0  0  0  0  0  0  0
   -4.2984   -3.1418   -0.0944 H   0  0  0  0  0  0  0  0  0  0  0  0
   -0.7607   -1.7854   -1.8458 H   0  0  0  0  0  0  0  0  0  0  0  0
   -0.1199    0.1329    0.8133 H   0  0  0  0  0  0  0  0  0  0  0  0
    2.1776   -0.3770    1.3582 H   0  0  0  0  0  0  0  0  0  0  0  0
  1  2  1  0
  2  3  1  0
  3  4  2  0
  3  5  1  0
  5  6  1  0
  6  7  1  0
  7  8  2  0
  8  9  1  0
  9 10  1  0
 10 11  1  0
 11 12  2  0
 12 13  1  0
 13 14  2  0
 14 15  1  0
 15 16  2  0
 16 17  1  0
 17 18  2  0
 18 19  1  0
 19 20  1  0
 20 21  2  0
 21 22  1  0
 22 23  2  0
  9 24  2  0
 24 25  1  0
 25  6  2  0
 23 11  1  0
 18 13  1  0
 23 19  1  0
  1 26  1  0
  1 27  1  0
  1 28  1  0
  2 29  1  0
  2 30  1  0
  5 31  1  0
  7 32  1  0
  8 33  1  0
 10 34  1  0
 14 35  1  0
 15 36  1  0
 16 37  1  0
 17 38  1  0
 20 39  1  0
 22 40  1  0
 24 41  1  0
 25 42  1  0
M  END
$$$$
OCNT-2312189
     RDKit          3D

 44 48  0  0  0  0  0  0  0  0999 V2000
    8.1343   -0.2621    0.1787 C   0  0  0  0  0  0  0  0  0  0  0  0
    7.6151   -1.5233    0.4648 C   0  0  0  0  0  0  0  0  0  0  0  0
    6.2361   -1.7556    0.4532 C   0  0  0  0  0  0  0  0  0  0  0  0
    5.4016   -0.6747    0.1452 C   0  0  0  0  0  0  0  0  0  0  0  0
    4.0285   -0.6063    0.0570 N   0  0  0  0  0  0  0  0  0  0  0  0
    3.6243    0.6649   -0.2708 C   0  0  0  0  0  0  0  0  0  0  0  0
    2.2682    1.0737   -0.4367 C   0  0  0  0  0  0  0  0  0  0  0  0
    1.8829    2.2490   -0.8853 N   0  0  0  0  0  0  0  0  0  0  0  0
    0.5050    2.2581   -0.9229 N   0  0  0  0  0  0  0  0  0  0  0  0
    0.0720    1.1080   -0.4548 C   0  0  0  0  0  0  0  0  0  0  0  0
   -1.1997    0.6377   -0.3198 N   0  0  0  0  0  0  0  0  0  0  0  0
   -2.2448    1.5634   -0.8339 C   0  0  0  0  0  0  0  0  0  0  0  0
   -3.6197    0.8689   -0.9214 C   0  0  0  0  0  0  0  0  0  0  0  0
   -3.9844    0.2413    0.3618 N   0  0  0  0  0  0  0  0  0  0  0  0
   -5.2647   -0.3185    0.3664 C   0  0  0  0  0  0  0  0  0  0  0  0
   -5.5447   -1.2945    1.2496 N   0  0  0  0  0  0  0  0  0  0  0  0
   -6.7951   -1.7951    1.2604 C   0  0  0  0  0  0  0  0  0  0  0  0
   -7.7904   -1.3662    0.4231 C   0  0  0  0  0  0  0  0  0  0  0  0
   -7.4237   -0.3722   -0.4446 C   0  0  0  0  0  0  0  0  0  0  0  0
   -6.1865    0.1571   -0.4895 N   0  0  0  0  0  0  0  0  0  0  0  0
   -2.9518   -0.6428    0.9218 C   0  0  0  0  0  0  0  0  0  0  0  0
   -1.5832    0.0693    0.9940 C   0  0  0  0  0  0  0  0  0  0  0  0
    1.1576    0.3289   -0.1595 N   0  0  0  0  0  0  0  0  0  0  0  0
    4.7696    1.4255   -0.4091 C   0  0  0  0  0  0  0  0  0  0  0  0
    5.8930    0.5964   -0.1455 C   0  0  0  0  0  0  0  0  0  0  0  0
    7.2847    0.8068   -0.1287 C   0  0  0  0  0  0  0  0  0  0  0  0
    9.2099   -0.1041    0.1925 H   0  0  0  0  0  0  0  0  0  0  0  0
    8.2934   -2.3405    0.6999 H   0  0  0  0  0  0  0  0  0  0  0  0
    5.8378   -2.7400    0.6751 H   0  0  0  0  0  0  0  0  0  0  0  0
    3.4240   -1.3995    0.2040 H   0  0  0  0  0  0  0  0  0  0  0  0
   -2.3172    2.4374   -0.1726 H   0  0  0  0  0  0  0  0  0  0  0  0
   -1.9795    1.9201   -1.8373 H   0  0  0  0  0  0  0  0  0  0  0  0
   -4.3518    1.6323   -1.2122 H   0  0  0  0  0  0  0  0  0  0  0  0
   -3.5860    0.1060   -1.7108 H   0  0  0  0  0  0  0  0  0  0  0  0
   -6.9734   -2.5769    1.9923 H   0  0  0  0  0  0  0  0  0  0  0  0
   -8.7886   -1.7776    0.4471 H   0  0  0  0  0  0  0  0  0  0  0  0
   -8.1315    0.0478   -1.1528 H   0  0  0  0  0  0  0  0  0  0  0  0
   -2.8540   -1.5428    0.2999 H   0  0  0  0  0  0  0  0  0  0  0  0
   -3.2073   -0.9562    1.9417 H   0  0  0  0  0  0  0  0  0  0  0  0
   -1.6263    0.8741    1.7398 H   0  0  0  0  0  0  0  0  0  0  0  0
   -0.8406   -0.6607    1.3369 H   0  0  0  0  0  0  0  0  0  0  0  0
    1.1206   -0.6203    0.1639 H   0  0  0  0  0  0  0  0  0  0  0  0
    4.7906    2.4762   -0.6718 H   0  0  0  0  0  0  0  0  0  0  0  0
    7.6958    1.7868   -0.3522 H   0  0  0  0  0  0  0  0  0  0  0  0
  1  2  2  0
  2  3  1  0
  3  4  2  0
  4  5  1  0
  5  6  1  0
  6  7  1  0
  7  8  2  0
  8  9  1  0
  9 10  2  0
 10 11  1  0
 11 12  1  0
 12 13  1  0
 13 14  1  0
 14 15  1  0
 15 16  2  0
 16 17  1  0
 17 18  2  0
 18 19  1  0
 19 20  2  0
 14 21  1  0
 21 22  1  0
 10 23  1  0
  6 24  2  0
 24 25  1  0
 25 26  2  0
 26  1  1  0
 25  4  1  0
 23  7  1  0
 22 11  1  0
 20 15  1  0
  1 27  1  0
  2 28  1  0
  3 29  1  0
  5 30  1  0
 12 31  1  0
 12 32  1  0
 13 33  1  0
 13 34  1  0
 17 35  1  0
 18 36  1  0
 19 37  1  0
 21 38  1  0
 21 39  1  0
 22 40  1  0
 22 41  1  0
 23 42  1  0
 24 43  1  0
 26 44  1  0
M  END
$$$$
OCNT-2312191
     RDKit          3D

 54 56  0  0  0  0  0  0  0  0999 V2000
   -6.3761   -2.7118   -0.0508 C   0  0  0  0  0  0  0  0  0  0  0  0
   -5.1638   -3.5792    0.2608 C   0  0  0  0  0  0  0  0  0  0  0  0
   -3.9102   -2.7830    0.4353 C   0  0  0  0  0  0  0  0  0  0  0  0
   -3.7300   -1.8726    1.4486 C   0  0  0  0  0  0  0  0  0  0  0  0
   -2.6042   -1.1514    1.6226 N   0  0  0  0  0  0  0  0  0  0  0  0
   -1.5879   -1.3414    0.7629 C   0  0  0  0  0  0  0  0  0  0  0  0
   -0.3959   -0.6347    0.9575 N   0  0  0  0  0  0  0  0  0  0  0  0
   -0.5953    0.6660    1.6202 C   0  0  0  0  0  0  0  0  0  0  0  0
   -1.0967    1.8196    0.7851 C   0  0  0  0  0  0  0  0  0  0  0  0
   -0.2458    2.7204    0.2653 N   0  0  0  0  0  0  0  0  0  0  0  0
   -1.0384    3.5526   -0.4326 N   0  0  0  0  0  0  0  0  0  0  0  0
   -0.4468    4.6422   -1.1692 C   0  0  0  0  0  0  0  0  0  0  0  0
   -2.3610    3.2347   -0.3602 C   0  0  0  0  0  0  0  0  0  0  0  0
   -2.4351    2.1091    0.4252 C   0  0  0  0  0  0  0  0  0  0  0  0
    0.5219   -0.6753   -0.1958 C   0  0  0  0  0  0  0  0  0  0  0  0
    1.9480   -0.1772    0.1232 C   0  0  0  0  0  0  0  0  0  0  0  0
    2.6337   -1.0447    1.1894 C   0  0  0  0  0  0  0  0  0  0  0  0
    4.1559   -0.8897    1.1794 C   0  0  0  0  0  0  0  0  0  0  0  0
    4.5761    0.3884    0.4651 C   0  0  0  0  0  0  0  0  0  0  0  0
    4.0038    0.4440   -0.9692 C   0  0  0  0  0  0  0  0  0  0  0  0
    3.8351    1.8977   -1.4262 C   0  0  0  0  0  0  0  0  0  0  0  0
    4.9375   -0.2797   -1.9469 C   0  0  0  0  0  0  0  0  0  0  0  0
    2.7339   -0.2222   -1.0782 O   0  0  0  0  0  0  0  0  0  0  0  0
   -1.6757   -2.2231   -0.2463 N   0  0  0  0  0  0  0  0  0  0  0  0
   -2.8224   -2.9154   -0.3933 C   0  0  0  0  0  0  0  0  0  0  0  0
   -7.2573   -3.3403   -0.2129 H   0  0  0  0  0  0  0  0  0  0  0  0
   -6.2127   -2.1141   -0.9544 H   0  0  0  0  0  0  0  0  0  0  0  0
   -6.6012   -2.0244    0.7717 H   0  0  0  0  0  0  0  0  0  0  0  0
   -5.0356   -4.3076   -0.5498 H   0  0  0  0  0  0  0  0  0  0  0  0
   -5.3467   -4.1619    1.1724 H   0  0  0  0  0  0  0  0  0  0  0  0
   -4.5042   -1.6855    2.1874 H   0  0  0  0  0  0  0  0  0  0  0  0
   -1.2388    0.5703    2.5056 H   0  0  0  0  0  0  0  0  0  0  0  0
    0.3645    0.9678    2.0599 H   0  0  0  0  0  0  0  0  0  0  0  0
    0.2082    4.2217   -1.9368 H   0  0  0  0  0  0  0  0  0  0  0  0
   -1.2353    5.2368   -1.6367 H   0  0  0  0  0  0  0  0  0  0  0  0
    0.1246    5.2629   -0.4733 H   0  0  0  0  0  0  0  0  0  0  0  0
   -3.1205    3.8108   -0.8682 H   0  0  0  0  0  0  0  0  0  0  0  0
   -3.3226    1.5538    0.6943 H   0  0  0  0  0  0  0  0  0  0  0  0
    0.1142   -0.0917   -1.0324 H   0  0  0  0  0  0  0  0  0  0  0  0
    0.6318   -1.7009   -0.5752 H   0  0  0  0  0  0  0  0  0  0  0  0
    1.9001    0.8633    0.4597 H   0  0  0  0  0  0  0  0  0  0  0  0
    2.4011   -2.1051    1.0315 H   0  0  0  0  0  0  0  0  0  0  0  0
    2.2388   -0.7879    2.1793 H   0  0  0  0  0  0  0  0  0  0  0  0
    4.6052   -1.7545    0.6767 H   0  0  0  0  0  0  0  0  0  0  0  0
    4.5380   -0.8963    2.2066 H   0  0  0  0  0  0  0  0  0  0  0  0
    4.2030    1.2389    1.0516 H   0  0  0  0  0  0  0  0  0  0  0  0
    5.6674    0.4864    0.4559 H   0  0  0  0  0  0  0  0  0  0  0  0
    3.1303    2.4366   -0.7847 H   0  0  0  0  0  0  0  0  0  0  0  0
    4.7885    2.4359   -1.4158 H   0  0  0  0  0  0  0  0  0  0  0  0
    3.4211    1.9410   -2.4398 H   0  0  0  0  0  0  0  0  0  0  0  0
    5.9374    0.1667   -1.9589 H   0  0  0  0  0  0  0  0  0  0  0  0
    5.0330   -1.3403   -1.6874 H   0  0  0  0  0  0  0  0  0  0  0  0
    4.5335   -0.2503   -2.9655 H   0  0  0  0  0  0  0  0  0  0  0  0
   -2.8263   -3.6050   -1.2330 H   0  0  0  0  0  0  0  0  0  0  0  0
  1  2  1  0
  2  3  1  0
  3  4  2  0
  4  5  1  0
  5  6  2  0
  6  7  1  0
  7  8  1  0
  8  9  1  0
  9 10  2  0
 10 11  1  0
 11 12  1  0
 11 13  1  0
 13 14  2  0
  7 15  1  0
 15 16  1  0
 16 17  1  0
 17 18  1  0
 18 19  1  0
 19 20  1  0
 20 21  1  0
 20 22  1  0
 20 23  1  0
  6 24  1  0
 24 25  2  0
 25  3  1  0
 14  9  1  0
 23 16  1  0
  1 26  1  0
  1 27  1  0
  1 28  1  0
  2 29  1  0
  2 30  1  0
  4 31  1  0
  8 32  1  0
  8 33  1  0
 12 34  1  0
 12 35  1  0
 12 36  1  0
 13 37  1  0
 14 38  1  0
 15 39  1  0
 15 40  1  0
 16 41  1  0
 17 42  1  0
 17 43  1  0
 18 44  1  0
 18 45  1  0
 19 46  1  0
 19 47  1  0
 21 48  1  0
 21 49  1  0
 21 50  1  0
 22 51  1  0
 22 52  1  0
 22 53  1  0
 25 54  1  0
M  END
$$$$
OCNT-2312197
     RDKit          3D

 30 33  0  0  0  0  0  0  0  0999 V2000
   -0.2026   -2.0027   -2.0618 O   0  0  0  0  0  0  0  0  0  0  0  0
   -0.0562   -0.9952   -1.3813 C   0  0  0  0  0  0  0  0  0  0  0  0
   -1.0787   -0.1270   -1.1071 N   0  0  0  0  0  0  0  0  0  0  0  0
   -0.9642    0.9445   -0.2578 C   0  0  0  0  0  0  0  0  0  0  0  0
   -2.2175    1.7675   -0.0421 C   0  0  0  0  0  0  0  0  0  0  0  0
   -3.3853    0.9152    0.3232 C   0  0  0  0  0  0  0  0  0  0  0  0
   -3.9302    0.0895   -0.5851 N   0  0  0  0  0  0  0  0  0  0  0  0
   -4.9406   -0.5013    0.0791 N   0  0  0  0  0  0  0  0  0  0  0  0
   -5.0482   -0.0914    1.3746 C   0  0  0  0  0  0  0  0  0  0  0  0
   -4.0509    0.8327    1.5674 C   0  0  0  0  0  0  0  0  0  0  0  0
    0.1534    1.2817    0.3054 N   0  0  0  0  0  0  0  0  0  0  0  0
    1.2885    0.4954    0.0453 C   0  0  0  0  0  0  0  0  0  0  0  0
    2.5024    0.8611    0.6363 C   0  0  0  0  0  0  0  0  0  0  0  0
    3.6130    0.0818    0.3805 C   0  0  0  0  0  0  0  0  0  0  0  0
    3.5523   -1.0307   -0.4305 C   0  0  0  0  0  0  0  0  0  0  0  0
    2.3787   -1.4265   -1.0318 C   0  0  0  0  0  0  0  0  0  0  0  0
    1.2435   -0.6449   -0.7836 C   0  0  0  0  0  0  0  0  0  0  0  0
    4.7545   -1.6541   -0.5486 O   0  0  0  0  0  0  0  0  0  0  0  0
    5.5628   -0.8044    0.2780 C   0  0  0  0  0  0  0  0  0  0  0  0
    6.5794   -0.3134   -0.4720 F   0  0  0  0  0  0  0  0  0  0  0  0
    6.1064   -1.5552    1.2669 F   0  0  0  0  0  0  0  0  0  0  0  0
    4.8623    0.2969    0.8739 O   0  0  0  0  0  0  0  0  0  0  0  0
   -2.0058   -0.3852   -1.4400 H   0  0  0  0  0  0  0  0  0  0  0  0
   -2.0288    2.5100    0.7418 H   0  0  0  0  0  0  0  0  0  0  0  0
   -2.4293    2.3151   -0.9682 H   0  0  0  0  0  0  0  0  0  0  0  0
   -5.5151   -1.1775   -0.4146 H   0  0  0  0  0  0  0  0  0  0  0  0
   -5.8113   -0.4851    2.0306 H   0  0  0  0  0  0  0  0  0  0  0  0
   -3.8314    1.3735    2.4778 H   0  0  0  0  0  0  0  0  0  0  0  0
    2.5641    1.7334    1.2780 H   0  0  0  0  0  0  0  0  0  0  0  0
    2.3347   -2.3039   -1.6686 H   0  0  0  0  0  0  0  0  0  0  0  0
  1  2  2  0
  2  3  1  0
  3  4  1  0
  4  5  1  0
  5  6  1  0
  6  7  2  0
  7  8  1  0
  8  9  1  0
  9 10  2  0
  4 11  2  0
 11 12  1  0
 12 13  2  0
 13 14  1  0
 14 15  2  0
 15 16  1  0
 16 17  2  0
 15 18  1  0
 18 19  1  0
 19 20  1  0
 19 21  1  0
 19 22  1  0
 17  2  1  0
 10  6  1  0
 17 12  1  0
 22 14  1  0
  3 23  1  0
  5 24  1  0
  5 25  1  0
  8 26  1  0
  9 27  1  0
 10 28  1  0
 13 29  1  0
 16 30  1  0
M  END
$$$$
OCNT-2312208
     RDKit          3D

 36 39  0  0  0  0  0  0  0  0999 V2000
   -4.4126    1.0359   -0.2582 C   0  0  0  0  0  0  0  0  0  0  0  0
   -4.3265    0.1633    0.8892 N   0  0  0  0  0  0  0  0  0  0  0  0
   -4.7997    0.4633    2.1372 C   0  0  0  0  0  0  0  0  0  0  0  0
   -4.5017   -0.6314    2.9097 C   0  0  0  0  0  0  0  0  0  0  0  0
   -3.8609   -1.5860    2.1667 N   0  0  0  0  0  0  0  0  0  0  0  0
   -3.7583   -1.0908    0.9456 C   0  0  0  0  0  0  0  0  0  0  0  0
   -3.1266   -1.7892   -0.2106 C   0  0  0  0  0  0  0  0  0  0  0  0
   -1.8664   -1.1671   -0.5638 N   0  0  0  0  0  0  0  0  0  0  0  0
   -0.6800   -1.2198    0.1096 C   0  0  0  0  0  0  0  0  0  0  0  0
    0.1748   -0.4623   -0.6598 C   0  0  0  0  0  0  0  0  0  0  0  0
    1.5752   -0.1723   -0.4008 C   0  0  0  0  0  0  0  0  0  0  0  0
    2.2099   -0.5770    0.7807 C   0  0  0  0  0  0  0  0  0  0  0  0
    3.5593   -0.2825    1.0029 C   0  0  0  0  0  0  0  0  0  0  0  0
    4.3013    0.4254    0.0436 C   0  0  0  0  0  0  0  0  0  0  0  0
    5.6508    0.7476    0.2109 C   0  0  0  0  0  0  0  0  0  0  0  0
    6.3955    1.4278   -0.6915 N   0  0  0  0  0  0  0  0  0  0  0  0
    5.7678    1.8100   -1.8223 C   0  0  0  0  0  0  0  0  0  0  0  0
    4.4345    1.5457   -2.0939 C   0  0  0  0  0  0  0  0  0  0  0  0
    3.6799    0.8407   -1.1484 C   0  0  0  0  0  0  0  0  0  0  0  0
    2.3221    0.5369   -1.3562 C   0  0  0  0  0  0  0  0  0  0  0  0
   -0.5106    0.0017   -1.7576 N   0  0  0  0  0  0  0  0  0  0  0  0
   -1.7587   -0.4410   -1.6920 N   0  0  0  0  0  0  0  0  0  0  0  0
   -5.1871    1.7871   -0.0809 H   0  0  0  0  0  0  0  0  0  0  0  0
   -4.6793    0.4480   -1.1390 H   0  0  0  0  0  0  0  0  0  0  0  0
   -3.4452    1.5255   -0.3900 H   0  0  0  0  0  0  0  0  0  0  0  0
   -5.2904    1.3986    2.3684 H   0  0  0  0  0  0  0  0  0  0  0  0
   -4.7140   -0.7821    3.9604 H   0  0  0  0  0  0  0  0  0  0  0  0
   -3.7804   -1.7866   -1.0888 H   0  0  0  0  0  0  0  0  0  0  0  0
   -2.9089   -2.8331    0.0412 H   0  0  0  0  0  0  0  0  0  0  0  0
   -0.5723   -1.7603    1.0384 H   0  0  0  0  0  0  0  0  0  0  0  0
    1.6694   -1.1227    1.5498 H   0  0  0  0  0  0  0  0  0  0  0  0
    4.0263   -0.6082    1.9299 H   0  0  0  0  0  0  0  0  0  0  0  0
    6.1908    0.4569    1.1084 H   0  0  0  0  0  0  0  0  0  0  0  0
    6.3842    2.3543   -2.5323 H   0  0  0  0  0  0  0  0  0  0  0  0
    3.9974    1.8855   -3.0270 H   0  0  0  0  0  0  0  0  0  0  0  0
    1.8403    0.8577   -2.2794 H   0  0  0  0  0  0  0  0  0  0  0  0
  1  2  1  0
  2  3  1  0
  3  4  2  0
  4  5  1  0
  5  6  2  0
  6  7  1  0
  7  8  1  0
  8  9  1  0
  9 10  2  0
 10 11  1  0
 11 12  1  0
 12 13  2  0
 13 14  1  0
 14 15  2  0
 15 16  1  0
 16 17  2  0
 17 18  1  0
 18 19  2  0
 19 20  1  0
 10 21  1  0
 21 22  2  0
  6  2  1  0
 22  8  1  0
 20 11  2  0
 19 14  1  0
  1 23  1  0
  1 24  1  0
  1 25  1  0
  3 26  1  0
  4 27  1  0
  7 28  1  0
  7 29  1  0
  9 30  1  0
 12 31  1  0
 13 32  1  0
 15 33  1  0
 17 34  1  0
 18 35  1  0
 20 36  1  0
M  END
$$$$
OCNT-2312209
     RDKit          3D

 38 40  0  0  0  0  0  0  0  0999 V2000
   -2.6186    0.1493   -2.9398 O   0  0  0  0  0  0  0  0  0  0  0  0
   -3.0862    0.3112   -1.8173 C   0  0  0  0  0  0  0  0  0  0  0  0
   -2.3798    0.0275   -0.6645 N   0  0  0  0  0  0  0  0  0  0  0  0
   -0.9799   -0.3524   -0.7369 C   0  0  0  0  0  0  0  0  0  0  0  0
   -0.5014   -1.0166    0.5585 C   0  0  0  0  0  0  0  0  0  0  0  0
   -0.3470   -0.0328    1.7194 C   0  0  0  0  0  0  0  0  0  0  0  0
    1.0266    0.5978    1.4941 C   0  0  0  0  0  0  0  0  0  0  0  0
    1.7799   -0.4358    0.7899 N   0  0  0  0  0  0  0  0  0  0  0  0
    3.1466   -0.4136    0.6319 C   0  0  0  0  0  0  0  0  0  0  0  0
    3.9090    0.7256    0.9485 C   0  0  0  0  0  0  0  0  0  0  0  0
    5.2993    0.7576    0.7863 C   0  0  0  0  0  0  0  0  0  0  0  0
    5.9549   -0.3597    0.2980 C   0  0  0  0  0  0  0  0  0  0  0  0
    7.2845   -0.3348    0.1412 F   0  0  0  0  0  0  0  0  0  0  0  0
    5.2451   -1.5021   -0.0308 C   0  0  0  0  0  0  0  0  0  0  0  0
    3.8549   -1.5226    0.1351 C   0  0  0  0  0  0  0  0  0  0  0  0
    0.9263   -1.5580    0.4041 C   0  0  0  0  0  0  0  0  0  0  0  0
   -4.4329    0.8495   -1.6025 C   0  0  0  0  0  0  0  0  0  0  0  0
   -5.1619    1.4102   -2.6390 C   0  0  0  0  0  0  0  0  0  0  0  0
   -6.6999    1.9760   -2.1560 S   0  0  0  0  0  0  0  0  0  0  0  0
   -6.4408    1.4619   -0.5493 C   0  0  0  0  0  0  0  0  0  0  0  0
   -5.2034    0.8769   -0.3870 C   0  0  0  0  0  0  0  0  0  0  0  0
   -2.7146    0.4479    0.1893 H   0  0  0  0  0  0  0  0  0  0  0  0
   -0.8611   -1.0459   -1.5779 H   0  0  0  0  0  0  0  0  0  0  0  0
   -0.4068    0.5503   -0.9763 H   0  0  0  0  0  0  0  0  0  0  0  0
   -1.1933   -1.8255    0.8213 H   0  0  0  0  0  0  0  0  0  0  0  0
   -1.1396    0.7177    1.7835 H   0  0  0  0  0  0  0  0  0  0  0  0
   -0.3398   -0.5889    2.6657 H   0  0  0  0  0  0  0  0  0  0  0  0
    1.4762    0.8665    2.4563 H   0  0  0  0  0  0  0  0  0  0  0  0
    0.9431    1.4960    0.8720 H   0  0  0  0  0  0  0  0  0  0  0  0
    3.4286    1.6255    1.3217 H   0  0  0  0  0  0  0  0  0  0  0  0
    5.8650    1.6489    1.0358 H   0  0  0  0  0  0  0  0  0  0  0  0
    5.7692   -2.3714   -0.4135 H   0  0  0  0  0  0  0  0  0  0  0  0
    3.3347   -2.4388   -0.1289 H   0  0  0  0  0  0  0  0  0  0  0  0
    1.0862   -2.3949    1.0946 H   0  0  0  0  0  0  0  0  0  0  0  0
    1.1182   -1.9001   -0.6187 H   0  0  0  0  0  0  0  0  0  0  0  0
   -4.8507    1.5179   -3.6707 H   0  0  0  0  0  0  0  0  0  0  0  0
   -7.2099    1.6060    0.1975 H   0  0  0  0  0  0  0  0  0  0  0  0
   -4.8807    0.4739    0.5646 H   0  0  0  0  0  0  0  0  0  0  0  0
  1  2  2  0
  2  3  1  0
  3  4  1  0
  4  5  1  0
  5  6  1  0
  6  7  1  0
  7  8  1  0
  8  9  1  0
  9 10  1  0
 10 11  2  0
 11 12  1  0
 12 13  1  0
 12 14  2  0
 14 15  1  0
  8 16  1  0
  2 17  1  0
 17 18  2  0
 18 19  1  0
 19 20  1  0
 20 21  2  0
 16  5  1  0
 21 17  1  0
 15  9  2  0
  3 22  1  0
  4 23  1  0
  4 24  1  0
  5 25  1  0
  6 26  1  0
  6 27  1  0
  7 28  1  0
  7 29  1  0
 10 30  1  0
 11 31  1  0
 14 32  1  0
 15 33  1  0
 16 34  1  0
 16 35  1  0
 18 36  1  0
 20 37  1  0
 21 38  1  0
M  END
$$$$
OCNT-2312210
     RDKit          3D

 45 48  0  0  0  0  0  0  0  0999 V2000
   -7.5424   -2.1808   -0.8716 O   0  0  0  0  0  0  0  0  0  0  0  0
   -6.6786   -1.4185   -0.4435 C   0  0  0  0  0  0  0  0  0  0  0  0
   -7.0152   -0.0809    0.1748 C   0  0  0  0  0  0  0  0  0  0  0  0
   -6.0269    0.3126    1.2604 C   0  0  0  0  0  0  0  0  0  0  0  0
   -4.6096    0.1204    0.8011 C   0  0  0  0  0  0  0  0  0  0  0  0
   -3.5638    0.8878    1.3276 C   0  0  0  0  0  0  0  0  0  0  0  0
   -2.2361    0.6372    0.9637 C   0  0  0  0  0  0  0  0  0  0  0  0
   -1.3259    1.4741    1.5463 O   0  0  0  0  0  0  0  0  0  0  0  0
    0.0614    1.2570    1.2926 C   0  0  0  0  0  0  0  0  0  0  0  0
    0.5121    1.9700    0.0188 C   0  0  0  0  0  0  0  0  0  0  0  0
    1.9262    1.8267   -0.1896 O   0  0  0  0  0  0  0  0  0  0  0  0
    2.3148    0.6432   -0.7305 C   0  0  0  0  0  0  0  0  0  0  0  0
    1.5795   -0.2876   -1.0113 O   0  0  0  0  0  0  0  0  0  0  0  0
    3.7926    0.6424   -0.8933 C   0  0  0  0  0  0  0  0  0  0  0  0
    4.4028    1.8175   -1.3684 C   0  0  0  0  0  0  0  0  0  0  0  0
    5.7793    1.8680   -1.5604 C   0  0  0  0  0  0  0  0  0  0  0  0
    6.5555    0.7465   -1.2826 C   0  0  0  0  0  0  0  0  0  0  0  0
    5.9649   -0.4383   -0.8089 C   0  0  0  0  0  0  0  0  0  0  0  0
    6.7364   -1.5680   -0.5237 C   0  0  0  0  0  0  0  0  0  0  0  0
    6.2480   -2.7394   -0.0607 N   0  0  0  0  0  0  0  0  0  0  0  0
    4.9181   -2.7977    0.1305 C   0  0  0  0  0  0  0  0  0  0  0  0
    4.0571   -1.7393   -0.1173 C   0  0  0  0  0  0  0  0  0  0  0  0
    4.5680   -0.5156   -0.6056 C   0  0  0  0  0  0  0  0  0  0  0  0
   -1.9571   -0.4018    0.0748 C   0  0  0  0  0  0  0  0  0  0  0  0
   -2.9951   -1.1826   -0.4462 C   0  0  0  0  0  0  0  0  0  0  0  0
   -4.3140   -0.9134   -0.0896 C   0  0  0  0  0  0  0  0  0  0  0  0
   -5.3478   -1.6984   -0.6063 N   0  0  0  0  0  0  0  0  0  0  0  0
   -8.0255   -0.1262    0.5952 H   0  0  0  0  0  0  0  0  0  0  0  0
   -7.0167    0.6615   -0.6327 H   0  0  0  0  0  0  0  0  0  0  0  0
   -6.2013    1.3570    1.5436 H   0  0  0  0  0  0  0  0  0  0  0  0
   -6.1844   -0.3062    2.1525 H   0  0  0  0  0  0  0  0  0  0  0  0
   -3.7765    1.6836    2.0385 H   0  0  0  0  0  0  0  0  0  0  0  0
    0.6077    1.6933    2.1381 H   0  0  0  0  0  0  0  0  0  0  0  0
    0.3300    0.1948    1.3159 H   0  0  0  0  0  0  0  0  0  0  0  0
    0.3038    3.0423    0.1085 H   0  0  0  0  0  0  0  0  0  0  0  0
   -0.0440    1.6363   -0.8652 H   0  0  0  0  0  0  0  0  0  0  0  0
    3.8053    2.6973   -1.5994 H   0  0  0  0  0  0  0  0  0  0  0  0
    6.2470    2.7781   -1.9288 H   0  0  0  0  0  0  0  0  0  0  0  0
    7.6318    0.8008   -1.4384 H   0  0  0  0  0  0  0  0  0  0  0  0
    7.8149   -1.5624   -0.6639 H   0  0  0  0  0  0  0  0  0  0  0  0
    4.5426   -3.7475    0.5014 H   0  0  0  0  0  0  0  0  0  0  0  0
    2.9985   -1.8865    0.0714 H   0  0  0  0  0  0  0  0  0  0  0  0
   -0.9457   -0.6374   -0.2410 H   0  0  0  0  0  0  0  0  0  0  0  0
   -2.7561   -1.9878   -1.1356 H   0  0  0  0  0  0  0  0  0  0  0  0
   -5.1355   -2.5321   -1.1389 H   0  0  0  0  0  0  0  0  0  0  0  0
  1  2  2  0
  2  3  1  0
  3  4  1  0
  4  5  1  0
  5  6  1  0
  6  7  2  0
  7  8  1  0
  8  9  1  0
  9 10  1  0
 10 11  1  0
 11 12  1  0
 12 13  2  0
 12 14  1  0
 14 15  2  0
 15 16  1  0
 16 17  2  0
 17 18  1  0
 18 19  2  0
 19 20  1  0
 20 21  2  0
 21 22  1  0
 22 23  2  0
  7 24  1  0
 24 25  2  0
 25 26  1  0
 26 27  1  0
 27  2  1  0
 26  5  2  0
 23 14  1  0
 23 18  1  0
  3 28  1  0
  3 29  1  0
  4 30  1  0
  4 31  1  0
  6 32  1  0
  9 33  1  0
  9 34  1  0
 10 35  1  0
 10 36  1  0
 15 37  1  0
 16 38  1  0
 17 39  1  0
 19 40  1  0
 21 41  1  0
 22 42  1  0
 24 43  1  0
 25 44  1  0
 27 45  1  0
M  END
$$$$
OCNT-2312211
     RDKit          3D

 33 35  0  0  0  0  0  0  0  0999 V2000
    6.2700    0.8905    0.8312 F   0  0  0  0  0  0  0  0  0  0  0  0
    5.6519   -0.0477    1.5803 C   0  0  0  0  0  0  0  0  0  0  0  0
    6.1497   -1.2659    1.2784 F   0  0  0  0  0  0  0  0  0  0  0  0
    5.9245    0.2067    2.8793 F   0  0  0  0  0  0  0  0  0  0  0  0
    4.2477   -0.0078    1.3941 O   0  0  0  0  0  0  0  0  0  0  0  0
    3.7629   -0.2413    0.1387 C   0  0  0  0  0  0  0  0  0  0  0  0
    4.5156   -0.5198   -1.0020 C   0  0  0  0  0  0  0  0  0  0  0  0
    3.8788   -0.7384   -2.2260 C   0  0  0  0  0  0  0  0  0  0  0  0
    2.4872   -0.6800   -2.3174 C   0  0  0  0  0  0  0  0  0  0  0  0
    1.7133   -0.4016   -1.1838 C   0  0  0  0  0  0  0  0  0  0  0  0
    0.2580   -0.3365   -1.2608 C   0  0  0  0  0  0  0  0  0  0  0  0
   -0.4450   -0.5326   -2.3832 N   0  0  0  0  0  0  0  0  0  0  0  0
   -1.7631   -0.3758   -1.9797 O   0  0  0  0  0  0  0  0  0  0  0  0
   -1.7628   -0.0920   -0.6276 C   0  0  0  0  0  0  0  0  0  0  0  0
   -2.9480    0.1398    0.1466 C   0  0  0  0  0  0  0  0  0  0  0  0
   -4.1447    0.1254   -0.4792 C   0  0  0  0  0  0  0  0  0  0  0  0
   -5.4259    0.3842    0.2609 C   0  0  0  0  0  0  0  0  0  0  0  0
   -5.1666    0.9923    1.6365 C   0  0  0  0  0  0  0  0  0  0  0  0
   -4.1449    0.2527    2.3027 O   0  0  0  0  0  0  0  0  0  0  0  0
   -2.8778    0.3904    1.6423 C   0  0  0  0  0  0  0  0  0  0  0  0
   -0.5254   -0.0597   -0.1635 N   0  0  0  0  0  0  0  0  0  0  0  0
    2.3669   -0.1844    0.0390 C   0  0  0  0  0  0  0  0  0  0  0  0
    5.6004   -0.5764   -0.9835 H   0  0  0  0  0  0  0  0  0  0  0  0
    4.4694   -0.9558   -3.1133 H   0  0  0  0  0  0  0  0  0  0  0  0
    2.0147   -0.8544   -3.2826 H   0  0  0  0  0  0  0  0  0  0  0  0
   -4.2364   -0.0769   -1.5437 H   0  0  0  0  0  0  0  0  0  0  0  0
   -5.9504   -0.5724    0.3692 H   0  0  0  0  0  0  0  0  0  0  0  0
   -6.0690    1.0533   -0.3203 H   0  0  0  0  0  0  0  0  0  0  0  0
   -6.0756    0.9434    2.2444 H   0  0  0  0  0  0  0  0  0  0  0  0
   -4.8721    2.0467    1.5648 H   0  0  0  0  0  0  0  0  0  0  0  0
   -2.2027   -0.3328    2.1125 H   0  0  0  0  0  0  0  0  0  0  0  0
   -2.4836    1.3942    1.8400 H   0  0  0  0  0  0  0  0  0  0  0  0
    1.7833    0.0327    0.9329 H   0  0  0  0  0  0  0  0  0  0  0  0
  1  2  1  0
  2  3  1  0
  2  4  1  0
  2  5  1  0
  5  6  1  0
  6  7  1  0
  7  8  2  0
  8  9  1  0
  9 10  2  0
 10 11  1  0
 11 12  2  0
 12 13  1  0
 13 14  1  0
 14 15  1  0
 15 16  2  0
 16 17  1  0
 17 18  1  0
 18 19  1  0
 19 20  1  0
 14 21  2  0
 10 22  1  0
 22  6  2  0
 21 11  1  0
 20 15  1  0
  7 23  1  0
  8 24  1  0
  9 25  1  0
 16 26  1  0
 17 27  1  0
 17 28  1  0
 18 29  1  0
 18 30  1  0
 20 31  1  0
 20 32  1  0
 22 33  1  0
M  END
$$$$
OCNT-2312217
     RDKit          3D

 51 54  0  0  0  0  0  0  0  0999 V2000
    5.3306   -0.4821   -1.3579 C   0  0  0  0  0  0  0  0  0  0  0  0
    4.0379   -1.0976   -1.8971 C   0  0  0  0  0  0  0  0  0  0  0  0
    3.8591   -2.5244   -1.3727 C   0  0  0  0  0  0  0  0  0  0  0  0
    2.8528   -0.2465   -1.5207 C   0  0  0  0  0  0  0  0  0  0  0  0
    2.4664   -0.0200   -0.2831 N   0  0  0  0  0  0  0  0  0  0  0  0
    1.3203    0.7680   -0.2671 C   0  0  0  0  0  0  0  0  0  0  0  0
    0.6853    1.1067    1.0598 C   0  0  0  0  0  0  0  0  0  0  0  0
   -0.7155    0.6887    1.2621 N   0  0  0  0  0  0  0  0  0  0  0  0
   -0.9601   -0.4266    2.1859 C   0  0  0  0  0  0  0  0  0  0  0  0
   -0.5306   -1.8063    1.6353 C   0  0  0  0  0  0  0  0  0  0  0  0
    0.8380   -1.8192    1.5813 F   0  0  0  0  0  0  0  0  0  0  0  0
   -1.0550   -2.0972    0.2329 C   0  0  0  0  0  0  0  0  0  0  0  0
   -0.5631   -3.4617   -0.2440 C   0  0  0  0  0  0  0  0  0  0  0  0
   -0.4487   -4.4388    0.7906 O   0  0  0  0  0  0  0  0  0  0  0  0
   -1.3196   -4.2105    1.8854 C   0  0  0  0  0  0  0  0  0  0  0  0
   -0.9487   -2.9207    2.6097 C   0  0  0  0  0  0  0  0  0  0  0  0
   -1.7033    1.5267    0.8284 C   0  0  0  0  0  0  0  0  0  0  0  0
   -1.4844    2.6837    0.2363 N   0  0  0  0  0  0  0  0  0  0  0  0
   -2.6900    3.2868   -0.0872 C   0  0  0  0  0  0  0  0  0  0  0  0
   -2.6651    4.6864   -0.7908 C   0  0  0  0  0  0  0  0  0  0  0  0
   -3.6645    5.0030   -1.8737 C   0  0  0  0  0  0  0  0  0  0  0  0
   -3.7666    5.6835   -0.5369 C   0  0  0  0  0  0  0  0  0  0  0  0
   -3.8332    2.6657    0.2004 N   0  0  0  0  0  0  0  0  0  0  0  0
   -3.4154    1.2308    0.9263 S   0  0  0  0  0  0  0  0  0  0  0  0
    0.8867    1.1641   -1.5199 C   0  0  0  0  0  0  0  0  0  0  0  0
    1.8954    0.5066   -2.7358 S   0  0  0  0  0  0  0  0  0  0  0  0
    5.3232   -0.4192   -0.2631 H   0  0  0  0  0  0  0  0  0  0  0  0
    6.1986   -1.0814   -1.6546 H   0  0  0  0  0  0  0  0  0  0  0  0
    5.4731    0.5330   -1.7480 H   0  0  0  0  0  0  0  0  0  0  0  0
    4.1238   -1.1532   -2.9902 H   0  0  0  0  0  0  0  0  0  0  0  0
    2.9391   -2.9740   -1.7651 H   0  0  0  0  0  0  0  0  0  0  0  0
    3.8000   -2.5493   -0.2785 H   0  0  0  0  0  0  0  0  0  0  0  0
    4.6992   -3.1578   -1.6784 H   0  0  0  0  0  0  0  0  0  0  0  0
    1.3087    0.6636    1.8488 H   0  0  0  0  0  0  0  0  0  0  0  0
    0.7851    2.1896    1.2203 H   0  0  0  0  0  0  0  0  0  0  0  0
   -0.4072   -0.2298    3.1147 H   0  0  0  0  0  0  0  0  0  0  0  0
   -2.0139   -0.4774    2.4807 H   0  0  0  0  0  0  0  0  0  0  0  0
   -0.7388   -1.3453   -0.4956 H   0  0  0  0  0  0  0  0  0  0  0  0
   -2.1526   -2.0859    0.2436 H   0  0  0  0  0  0  0  0  0  0  0  0
    0.4303   -3.3639   -0.6965 H   0  0  0  0  0  0  0  0  0  0  0  0
   -1.2308   -3.8527   -1.0202 H   0  0  0  0  0  0  0  0  0  0  0  0
   -1.2400   -5.0592    2.5728 H   0  0  0  0  0  0  0  0  0  0  0  0
   -2.3564   -4.1837    1.5274 H   0  0  0  0  0  0  0  0  0  0  0  0
   -1.7978   -2.6259    3.2379 H   0  0  0  0  0  0  0  0  0  0  0  0
   -0.1058   -3.1219    3.2837 H   0  0  0  0  0  0  0  0  0  0  0  0
   -1.6626    5.0838   -0.9147 H   0  0  0  0  0  0  0  0  0  0  0  0
   -4.4157    4.2611   -2.1218 H   0  0  0  0  0  0  0  0  0  0  0  0
   -3.3227    5.5880   -2.7191 H   0  0  0  0  0  0  0  0  0  0  0  0
   -4.5860    5.4002    0.1143 H   0  0  0  0  0  0  0  0  0  0  0  0
   -3.4945    6.7305   -0.4751 H   0  0  0  0  0  0  0  0  0  0  0  0
    0.0353    1.7818   -1.7707 H   0  0  0  0  0  0  0  0  0  0  0  0
  1  2  1  0
  2  3  1  0
  2  4  1  0
  4  5  2  0
  5  6  1  0
  6  7  1  0
  7  8  1  0
  8  9  1  0
  9 10  1  0
 10 11  1  0
 10 12  1  0
 12 13  1  0
 13 14  1  0
 14 15  1  0
 15 16  1  0
  8 17  1  0
 17 18  2  0
 18 19  1  0
 19 20  1  0
 20 21  1  0
 21 22  1  0
 19 23  2  0
 23 24  1  0
  6 25  2  0
 25 26  1  0
 26  4  1  0
 16 10  1  0
 24 17  1  0
 22 20  1  0
  1 27  1  0
  1 28  1  0
  1 29  1  0
  2 30  1  0
  3 31  1  0
  3 32  1  0
  3 33  1  0
  7 34  1  0
  7 35  1  0
  9 36  1  0
  9 37  1  0
 12 38  1  0
 12 39  1  0
 13 40  1  0
 13 41  1  0
 15 42  1  0
 15 43  1  0
 16 44  1  0
 16 45  1  0
 20 46  1  0
 21 47  1  0
 21 48  1  0
 22 49  1  0
 22 50  1  0
 25 51  1  0
M  END
$$$$
OCNT-2312222
     RDKit          3D

 40 43  0  0  0  0  0  0  0  0999 V2000
   -0.4568   -0.7773   -2.2292 C   0  0  0  0  0  0  0  0  0  0  0  0
   -0.7902   -1.4626   -0.8870 C   0  0  0  0  0  0  0  0  0  0  0  0
   -2.2026   -2.0743   -1.0065 C   0  0  0  0  0  0  0  0  0  0  0  0
    0.2082   -2.6309   -0.6458 C   0  0  0  0  0  0  0  0  0  0  0  0
    1.5454   -2.1606   -0.1975 C   0  0  0  0  0  0  0  0  0  0  0  0
    2.6798   -2.8181   -0.2387 N   0  0  0  0  0  0  0  0  0  0  0  0
    3.6525   -2.0026    0.2895 N   0  0  0  0  0  0  0  0  0  0  0  0
    3.1012   -0.8546    0.6403 C   0  0  0  0  0  0  0  0  0  0  0  0
    3.9160    0.3466    1.2392 C   0  0  0  0  0  0  0  0  0  0  0  0
    5.2358    0.2478    1.4525 N   0  0  0  0  0  0  0  0  0  0  0  0
    5.6333    1.4626    1.9751 O   0  0  0  0  0  0  0  0  0  0  0  0
    4.5602    2.2811    2.0685 C   0  0  0  0  0  0  0  0  0  0  0  0
    3.4448    1.6260    1.6141 C   0  0  0  0  0  0  0  0  0  0  0  0
    1.7603   -0.9344    0.3735 N   0  0  0  0  0  0  0  0  0  0  0  0
    0.7301    0.0607    0.5560 C   0  0  0  0  0  0  0  0  0  0  0  0
   -0.6980   -0.4962    0.3473 C   0  0  0  0  0  0  0  0  0  0  0  0
   -1.7375    0.6165    0.4010 C   0  0  0  0  0  0  0  0  0  0  0  0
   -1.6514    1.7703   -0.3926 C   0  0  0  0  0  0  0  0  0  0  0  0
   -2.6228    2.7709   -0.3084 C   0  0  0  0  0  0  0  0  0  0  0  0
   -3.6942    2.6347    0.5697 C   0  0  0  0  0  0  0  0  0  0  0  0
   -3.7972    1.4965    1.3635 C   0  0  0  0  0  0  0  0  0  0  0  0
   -2.8275    0.4954    1.2800 C   0  0  0  0  0  0  0  0  0  0  0  0
   -0.4297   -1.5110   -3.0437 H   0  0  0  0  0  0  0  0  0  0  0  0
    0.5160   -0.2769   -2.2135 H   0  0  0  0  0  0  0  0  0  0  0  0
   -1.2131   -0.0351   -2.5022 H   0  0  0  0  0  0  0  0  0  0  0  0
   -2.2337   -2.8386   -1.7918 H   0  0  0  0  0  0  0  0  0  0  0  0
   -2.9524   -1.3175   -1.2607 H   0  0  0  0  0  0  0  0  0  0  0  0
   -2.5096   -2.5513   -0.0691 H   0  0  0  0  0  0  0  0  0  0  0  0
   -0.1827   -3.3005    0.1319 H   0  0  0  0  0  0  0  0  0  0  0  0
    0.3178   -3.2376   -1.5531 H   0  0  0  0  0  0  0  0  0  0  0  0
    4.7559    3.2664    2.4649 H   0  0  0  0  0  0  0  0  0  0  0  0
    2.4513    2.0385    1.5673 H   0  0  0  0  0  0  0  0  0  0  0  0
    0.8159    0.4421    1.5795 H   0  0  0  0  0  0  0  0  0  0  0  0
    0.9643    0.8734   -0.1394 H   0  0  0  0  0  0  0  0  0  0  0  0
   -0.8849   -1.1292    1.2305 H   0  0  0  0  0  0  0  0  0  0  0  0
   -0.8361    1.9107   -1.0978 H   0  0  0  0  0  0  0  0  0  0  0  0
   -2.5455    3.6571   -0.9337 H   0  0  0  0  0  0  0  0  0  0  0  0
   -4.4506    3.4128    0.6321 H   0  0  0  0  0  0  0  0  0  0  0  0
   -4.6353    1.3853    2.0471 H   0  0  0  0  0  0  0  0  0  0  0  0
   -2.9368   -0.3859    1.9095 H   0  0  0  0  0  0  0  0  0  0  0  0
  1  2  1  0
  2  3  1  0
  2  4  1  0
  4  5  1  0
  5  6  2  0
  6  7  1  0
  7  8  2  0
  8  9  1  0
  9 10  2  0
 10 11  1  0
 11 12  1  0
 12 13  2  0
  8 14  1  0
 14 15  1  0
 15 16  1  0
 16 17  1  0
 17 18  2  0
 18 19  1  0
 19 20  2  0
 20 21  1  0
 21 22  2  0
 16  2  1  0
 22 17  1  0
 14  5  1  0
 13  9  1  0
  1 23  1  0
  1 24  1  0
  1 25  1  0
  3 26  1  0
  3 27  1  0
  3 28  1  0
  4 29  1  0
  4 30  1  0
 12 31  1  0
 13 32  1  0
 15 33  1  0
 15 34  1  0
 16 35  1  0
 18 36  1  0
 19 37  1  0
 20 38  1  0
 21 39  1  0
 22 40  1  0
M  END
$$$$
OCNT-2312226
     RDKit          3D

 47 50  0  0  0  0  0  0  0  0999 V2000
   -1.8883    2.5483    0.6002 C   0  0  0  0  0  0  0  0  0  0  0  0
   -2.0475    1.7601   -0.7177 C   0  0  0  0  0  0  0  0  0  0  0  0
   -3.4851    1.9882   -1.2328 C   0  0  0  0  0  0  0  0  0  0  0  0
   -1.0711    2.3431   -1.7820 C   0  0  0  0  0  0  0  0  0  0  0  0
    0.3324    1.8954   -1.5836 C   0  0  0  0  0  0  0  0  0  0  0  0
    1.4305    2.4318   -2.0655 N   0  0  0  0  0  0  0  0  0  0  0  0
    2.4924    1.6645   -1.6494 N   0  0  0  0  0  0  0  0  0  0  0  0
    2.0258    0.6711   -0.9205 C   0  0  0  0  0  0  0  0  0  0  0  0
    2.8136   -0.3965   -0.2492 C   0  0  0  0  0  0  0  0  0  0  0  0
    4.3159   -0.2049   -0.4453 C   0  0  0  0  0  0  0  0  0  0  0  0
    5.0737   -1.2382    0.2322 N   0  0  0  0  0  0  0  0  0  0  0  0
    5.4435   -2.4453   -0.2896 C   0  0  0  0  0  0  0  0  0  0  0  0
    6.1140   -3.0790    0.7307 C   0  0  0  0  0  0  0  0  0  0  0  0
    6.1586   -2.2869    1.8492 N   0  0  0  0  0  0  0  0  0  0  0  0
    5.5372   -1.1785    1.5147 C   0  0  0  0  0  0  0  0  0  0  0  0
    0.6637    0.7811   -0.8659 N   0  0  0  0  0  0  0  0  0  0  0  0
   -0.2783   -0.0395   -0.1379 C   0  0  0  0  0  0  0  0  0  0  0  0
   -1.7404    0.2245   -0.5652 C   0  0  0  0  0  0  0  0  0  0  0  0
   -2.7218   -0.5657    0.2913 C   0  0  0  0  0  0  0  0  0  0  0  0
   -2.6969   -0.5343    1.6937 C   0  0  0  0  0  0  0  0  0  0  0  0
   -3.6120   -1.2784    2.4426 C   0  0  0  0  0  0  0  0  0  0  0  0
   -4.5656   -2.0650    1.8025 C   0  0  0  0  0  0  0  0  0  0  0  0
   -4.6068   -2.1073    0.4123 C   0  0  0  0  0  0  0  0  0  0  0  0
   -3.6930   -1.3640   -0.3373 C   0  0  0  0  0  0  0  0  0  0  0  0
   -2.0221    3.6231    0.4285 H   0  0  0  0  0  0  0  0  0  0  0  0
   -2.6390    2.2540    1.3400 H   0  0  0  0  0  0  0  0  0  0  0  0
   -0.9003    2.4149    1.0506 H   0  0  0  0  0  0  0  0  0  0  0  0
   -4.2342    1.6846   -0.4939 H   0  0  0  0  0  0  0  0  0  0  0  0
   -3.6588    3.0477   -1.4541 H   0  0  0  0  0  0  0  0  0  0  0  0
   -3.6711    1.4237   -2.1534 H   0  0  0  0  0  0  0  0  0  0  0  0
   -1.1105    3.4393   -1.7824 H   0  0  0  0  0  0  0  0  0  0  0  0
   -1.3793    2.0192   -2.7850 H   0  0  0  0  0  0  0  0  0  0  0  0
    2.5774   -0.4008    0.8223 H   0  0  0  0  0  0  0  0  0  0  0  0
    2.5102   -1.3732   -0.6465 H   0  0  0  0  0  0  0  0  0  0  0  0
    4.5883   -0.2398   -1.5072 H   0  0  0  0  0  0  0  0  0  0  0  0
    4.6511    0.7620   -0.0507 H   0  0  0  0  0  0  0  0  0  0  0  0
    5.2122   -2.7456   -1.3020 H   0  0  0  0  0  0  0  0  0  0  0  0
    6.5671   -4.0619    0.7197 H   0  0  0  0  0  0  0  0  0  0  0  0
    5.3939   -0.3188    2.1567 H   0  0  0  0  0  0  0  0  0  0  0  0
   -0.0171   -1.0888   -0.3194 H   0  0  0  0  0  0  0  0  0  0  0  0
   -0.1069    0.1718    0.9230 H   0  0  0  0  0  0  0  0  0  0  0  0
   -1.8181   -0.1946   -1.5820 H   0  0  0  0  0  0  0  0  0  0  0  0
   -1.9739    0.0735    2.2318 H   0  0  0  0  0  0  0  0  0  0  0  0
   -3.5821   -1.2414    3.5289 H   0  0  0  0  0  0  0  0  0  0  0  0
   -5.2776   -2.6421    2.3868 H   0  0  0  0  0  0  0  0  0  0  0  0
   -5.3524   -2.7183   -0.0904 H   0  0  0  0  0  0  0  0  0  0  0  0
   -3.7513   -1.4134   -1.4230 H   0  0  0  0  0  0  0  0  0  0  0  0
  1  2  1  0
  2  3  1  0
  2  4  1  0
  4  5  1  0
  5  6  2  0
  6  7  1  0
  7  8  2  0
  8  9  1  0
  9 10  1  0
 10 11  1  0
 11 12  1  0
 12 13  2  0
 13 14  1  0
 14 15  2  0
  8 16  1  0
 16 17  1  0
 17 18  1  0
 18 19  1  0
 19 20  2  0
 20 21  1  0
 21 22  2  0
 22 23  1  0
 23 24  2  0
 18  2  1  0
 24 19  1  0
 16  5  1  0
 15 11  1  0
  1 25  1  0
  1 26  1  0
  1 27  1  0
  3 28  1  0
  3 29  1  0
  3 30  1  0
  4 31  1  0
  4 32  1  0
  9 33  1  0
  9 34  1  0
 10 35  1  0
 10 36  1  0
 12 37  1  0
 13 38  1  0
 15 39  1  0
 17 40  1  0
 17 41  1  0
 18 42  1  0
 20 43  1  0
 21 44  1  0
 22 45  1  0
 23 46  1  0
 24 47  1  0
M  END
$$$$
OCNT-2312233
     RDKit          3D

 36 39  0  0  0  0  0  0  0  0999 V2000
    5.9325   -0.0405   -2.3548 O   0  0  0  0  0  0  0  0  0  0  0  0
    5.2596    0.9461   -1.5355 S   0  0  0  0  0  0  0  0  0  0  0  0
    5.2716    2.3573   -1.8564 O   0  0  0  0  0  0  0  0  0  0  0  0
    5.8024    0.7448    0.1526 C   0  0  0  0  0  0  0  0  0  0  0  0
    4.7160   -0.0871    0.8161 C   0  0  0  0  0  0  0  0  0  0  0  0
    3.3932    0.4186    0.2277 C   0  0  0  0  0  0  0  0  0  0  0  0
    2.3033   -0.4452    0.6501 N   0  0  0  0  0  0  0  0  0  0  0  0
    1.0388   -0.0103    0.5106 C   0  0  0  0  0  0  0  0  0  0  0  0
    0.5636    1.1875    0.2636 N   0  0  0  0  0  0  0  0  0  0  0  0
   -0.8075    1.0540    0.2034 N   0  0  0  0  0  0  0  0  0  0  0  0
   -1.0758   -0.2205    0.4188 C   0  0  0  0  0  0  0  0  0  0  0  0
   -2.5074   -0.8297    0.4429 C   0  0  0  0  0  0  0  0  0  0  0  0
   -2.7746   -2.1625    0.6672 C   0  0  0  0  0  0  0  0  0  0  0  0
   -4.1337   -2.3261    0.6153 N   0  0  0  0  0  0  0  0  0  0  0  0
   -4.7500   -1.1208    0.3604 C   0  0  0  0  0  0  0  0  0  0  0  0
   -6.1100   -0.8171    0.2235 C   0  0  0  0  0  0  0  0  0  0  0  0
   -6.4546    0.5123   -0.0372 C   0  0  0  0  0  0  0  0  0  0  0  0
   -5.4772    1.4970   -0.1558 C   0  0  0  0  0  0  0  0  0  0  0  0
   -4.1217    1.1774   -0.0162 C   0  0  0  0  0  0  0  0  0  0  0  0
   -3.7452   -0.1560    0.2470 C   0  0  0  0  0  0  0  0  0  0  0  0
    0.0684   -0.9578    0.6163 O   0  0  0  0  0  0  0  0  0  0  0  0
    3.5751    0.4193   -1.2874 C   0  0  0  0  0  0  0  0  0  0  0  0
    5.8699    1.7384    0.6052 H   0  0  0  0  0  0  0  0  0  0  0  0
    6.7785    0.2561    0.1737 H   0  0  0  0  0  0  0  0  0  0  0  0
    4.8598   -1.1492    0.5790 H   0  0  0  0  0  0  0  0  0  0  0  0
    4.7460    0.0114    1.9062 H   0  0  0  0  0  0  0  0  0  0  0  0
    3.2319    1.4455    0.5848 H   0  0  0  0  0  0  0  0  0  0  0  0
    2.4416   -1.4486    0.5873 H   0  0  0  0  0  0  0  0  0  0  0  0
   -2.1210   -3.0028    0.8589 H   0  0  0  0  0  0  0  0  0  0  0  0
   -4.6232   -3.2012    0.7443 H   0  0  0  0  0  0  0  0  0  0  0  0
   -6.8758   -1.5805    0.3150 H   0  0  0  0  0  0  0  0  0  0  0  0
   -7.5026    0.7814   -0.1491 H   0  0  0  0  0  0  0  0  0  0  0  0
   -5.7660    2.5255   -0.3588 H   0  0  0  0  0  0  0  0  0  0  0  0
   -3.3686    1.9558   -0.1110 H   0  0  0  0  0  0  0  0  0  0  0  0
    2.8960    1.1100   -1.7929 H   0  0  0  0  0  0  0  0  0  0  0  0
    3.4667   -0.5825   -1.7151 H   0  0  0  0  0  0  0  0  0  0  0  0
  1  2  2  0
  2  3  2  0
  2  4  1  0
  4  5  1  0
  5  6  1  0
  6  7  1  0
  7  8  1  0
  8  9  2  0
  9 10  1  0
 10 11  2  0
 11 12  1  0
 12 13  2  0
 13 14  1  0
 14 15  1  0
 15 16  2  0
 16 17  1  0
 17 18  2  0
 18 19  1  0
 19 20  2  0
 11 21  1  0
  6 22  1  0
 22  2  1  0
 21  8  1  0
 20 12  1  0
 20 15  1  0
  4 23  1  0
  4 24  1  0
  5 25  1  0
  5 26  1  0
  6 27  1  0
  7 28  1  0
 13 29  1  0
 14 30  1  0
 16 31  1  0
 17 32  1  0
 18 33  1  0
 19 34  1  0
 22 35  1  0
 22 36  1  0
M  END
$$$$
OCNT-2312244
     RDKit          3D

 44 46  0  0  0  0  0  0  0  0999 V2000
    8.2490    0.9834    2.6164 N   0  0  0  0  0  0  0  0  0  0  0  0
    7.4749    0.7630    1.7810 C   0  0  0  0  0  0  0  0  0  0  0  0
    6.5298    0.4867    0.7492 C   0  0  0  0  0  0  0  0  0  0  0  0
    6.6146    1.1358   -0.4637 C   0  0  0  0  0  0  0  0  0  0  0  0
    5.7390    0.8976   -1.4541 N   0  0  0  0  0  0  0  0  0  0  0  0
    4.7279   -0.0090   -1.2507 N   0  0  0  0  0  0  0  0  0  0  0  0
    4.6032   -0.6761   -0.0840 C   0  0  0  0  0  0  0  0  0  0  0  0
    3.5704   -1.6030    0.1491 N   0  0  0  0  0  0  0  0  0  0  0  0
    2.6061   -1.7614   -0.9366 C   0  0  0  0  0  0  0  0  0  0  0  0
    1.5120   -0.7230   -0.8466 C   0  0  0  0  0  0  0  0  0  0  0  0
    1.4203    0.3019   -1.7974 C   0  0  0  0  0  0  0  0  0  0  0  0
    0.4109    1.2604   -1.7107 C   0  0  0  0  0  0  0  0  0  0  0  0
   -0.5170    1.2060   -0.6717 C   0  0  0  0  0  0  0  0  0  0  0  0
   -0.4475    0.1916    0.2925 C   0  0  0  0  0  0  0  0  0  0  0  0
   -1.4328    0.1519    1.4349 C   0  0  0  0  0  0  0  0  0  0  0  0
   -2.7764    0.3199    0.9824 O   0  0  0  0  0  0  0  0  0  0  0  0
   -3.3292   -0.8818    0.4353 C   0  0  0  0  0  0  0  0  0  0  0  0
   -4.7781   -0.6647   -0.0275 C   0  0  0  0  0  0  0  0  0  0  0  0
   -4.9788    0.5619   -0.9072 C   0  0  0  0  0  0  0  0  0  0  0  0
   -5.4611    1.6127    0.0607 C   0  0  0  0  0  0  0  0  0  0  0  0
   -6.2506    0.7938    1.0550 C   0  0  0  0  0  0  0  0  0  0  0  0
   -5.6338   -0.4975    1.1225 O   0  0  0  0  0  0  0  0  0  0  0  0
    0.5766   -0.7627    0.2010 C   0  0  0  0  0  0  0  0  0  0  0  0
    5.5067   -0.4386    0.9416 C   0  0  0  0  0  0  0  0  0  0  0  0
    7.3823    1.8683   -0.6876 H   0  0  0  0  0  0  0  0  0  0  0  0
    3.9794   -2.4929    0.4166 H   0  0  0  0  0  0  0  0  0  0  0  0
    3.0804   -1.7764   -1.9261 H   0  0  0  0  0  0  0  0  0  0  0  0
    2.1333   -2.7469   -0.8329 H   0  0  0  0  0  0  0  0  0  0  0  0
    2.1485    0.3691   -2.6036 H   0  0  0  0  0  0  0  0  0  0  0  0
    0.3539    2.0561   -2.4488 H   0  0  0  0  0  0  0  0  0  0  0  0
   -1.2982    1.9612   -0.6096 H   0  0  0  0  0  0  0  0  0  0  0  0
   -1.2063    0.9847    2.1102 H   0  0  0  0  0  0  0  0  0  0  0  0
   -1.3455   -0.7708    2.0209 H   0  0  0  0  0  0  0  0  0  0  0  0
   -3.3071   -1.6621    1.2049 H   0  0  0  0  0  0  0  0  0  0  0  0
   -2.7260   -1.2029   -0.4210 H   0  0  0  0  0  0  0  0  0  0  0  0
   -5.1086   -1.5691   -0.5507 H   0  0  0  0  0  0  0  0  0  0  0  0
   -5.7722    0.3569   -1.6367 H   0  0  0  0  0  0  0  0  0  0  0  0
   -4.0867    0.8576   -1.4668 H   0  0  0  0  0  0  0  0  0  0  0  0
   -4.6105    2.0917    0.5573 H   0  0  0  0  0  0  0  0  0  0  0  0
   -6.0582    2.3981   -0.4106 H   0  0  0  0  0  0  0  0  0  0  0  0
   -7.2830    0.6527    0.7171 H   0  0  0  0  0  0  0  0  0  0  0  0
   -6.2703    1.2454    2.0508 H   0  0  0  0  0  0  0  0  0  0  0  0
    0.6588   -1.5432    0.9551 H   0  0  0  0  0  0  0  0  0  0  0  0
    5.3997   -0.9568    1.8900 H   0  0  0  0  0  0  0  0  0  0  0  0
  1  2  3  0
  2  3  1  0
  3  4  2  0
  4  5  1  0
  5  6  2  0
  6  7  1  0
  7  8  1  0
  8  9  1  0
  9 10  1  0
 10 11  2  0
 11 12  1  0
 12 13  2  0
 13 14  1  0
 14 15  1  0
 15 16  1  0
 16 17  1  0
 17 18  1  0
 18 19  1  0
 19 20  1  0
 20 21  1  0
 21 22  1  0
 14 23  2  0
  7 24  2  0
 24  3  1  0
 23 10  1  0
 22 18  1  0
  4 25  1  0
  8 26  1  0
  9 27  1  0
  9 28  1  0
 11 29  1  0
 12 30  1  0
 13 31  1  0
 15 32  1  0
 15 33  1  0
 17 34  1  0
 17 35  1  0
 18 36  1  0
 19 37  1  0
 19 38  1  0
 20 39  1  0
 20 40  1  0
 21 41  1  0
 21 42  1  0
 23 43  1  0
 24 44  1  0
M  END
$$$$
OCNT-2312277
     RDKit          3D

 48 52  0  0  0  0  0  0  0  0999 V2000
   -1.5380   -0.5157   -1.5142 O   0  0  0  0  0  0  0  0  0  0  0  0
   -1.6081   -0.1234   -0.3462 C   0  0  0  0  0  0  0  0  0  0  0  0
   -2.9455    0.1021    0.2621 C   0  0  0  0  0  0  0  0  0  0  0  0
   -3.1778    0.3363    1.5750 N   0  0  0  0  0  0  0  0  0  0  0  0
   -4.5135    0.4650    1.6816 N   0  0  0  0  0  0  0  0  0  0  0  0
   -5.1482    0.3333    0.4947 C   0  0  0  0  0  0  0  0  0  0  0  0
   -4.1818    0.0688   -0.4433 C   0  0  0  0  0  0  0  0  0  0  0  0
   -4.5183   -0.1555   -1.8742 C   0  0  0  0  0  0  0  0  0  0  0  0
   -5.9464   -0.3509   -2.0659 O   0  0  0  0  0  0  0  0  0  0  0  0
   -6.7459    0.5974   -1.3292 C   0  0  0  0  0  0  0  0  0  0  0  0
   -6.5957    0.4087    0.1988 C   0  0  0  0  0  0  0  0  0  0  0  0
   -0.4381    0.1058    0.3955 N   0  0  0  0  0  0  0  0  0  0  0  0
   -0.3974    0.8090    1.6770 C   0  0  0  0  0  0  0  0  0  0  0  0
    0.9993    1.3124    2.0296 C   0  0  0  0  0  0  0  0  0  0  0  0
    2.0266    0.1832    2.0281 C   0  0  0  0  0  0  0  0  0  0  0  0
    1.8327   -0.8024    0.8582 C   0  0  0  0  0  0  0  0  0  0  0  0
    3.1413   -1.2423    0.2513 C   0  0  0  0  0  0  0  0  0  0  0  0
    3.6227   -2.5385    0.2413 C   0  0  0  0  0  0  0  0  0  0  0  0
    4.8272   -2.5505   -0.4061 N   0  0  0  0  0  0  0  0  0  0  0  0
    5.1560   -1.2831   -0.8231 C   0  0  0  0  0  0  0  0  0  0  0  0
    6.2849   -0.8302   -1.5172 C   0  0  0  0  0  0  0  0  0  0  0  0
    6.3602    0.5327   -1.8154 C   0  0  0  0  0  0  0  0  0  0  0  0
    5.3460    1.4055   -1.4325 C   0  0  0  0  0  0  0  0  0  0  0  0
    4.2245    0.9352   -0.7391 C   0  0  0  0  0  0  0  0  0  0  0  0
    4.1195   -0.4370   -0.4259 C   0  0  0  0  0  0  0  0  0  0  0  0
    0.8469   -0.2726   -0.1983 C   0  0  0  0  0  0  0  0  0  0  0  0
   -4.9103    0.6404    2.5994 H   0  0  0  0  0  0  0  0  0  0  0  0
   -4.2092    0.7022   -2.4813 H   0  0  0  0  0  0  0  0  0  0  0  0
   -4.0235   -1.0514   -2.2601 H   0  0  0  0  0  0  0  0  0  0  0  0
   -6.4606    1.6119   -1.6349 H   0  0  0  0  0  0  0  0  0  0  0  0
   -7.7914    0.4464   -1.6164 H   0  0  0  0  0  0  0  0  0  0  0  0
   -7.0815    1.2298    0.7344 H   0  0  0  0  0  0  0  0  0  0  0  0
   -7.0674   -0.5339    0.4991 H   0  0  0  0  0  0  0  0  0  0  0  0
   -1.0759    1.6670    1.6393 H   0  0  0  0  0  0  0  0  0  0  0  0
   -0.7410    0.1120    2.4495 H   0  0  0  0  0  0  0  0  0  0  0  0
    0.9861    1.8005    3.0106 H   0  0  0  0  0  0  0  0  0  0  0  0
    1.3043    2.0756    1.3023 H   0  0  0  0  0  0  0  0  0  0  0  0
    1.9420   -0.3771    2.9689 H   0  0  0  0  0  0  0  0  0  0  0  0
    3.0310    0.6223    2.0410 H   0  0  0  0  0  0  0  0  0  0  0  0
    1.3609   -1.6984    1.2911 H   0  0  0  0  0  0  0  0  0  0  0  0
    3.2039   -3.4544    0.6373 H   0  0  0  0  0  0  0  0  0  0  0  0
    5.3976   -3.3699   -0.5611 H   0  0  0  0  0  0  0  0  0  0  0  0
    7.0768   -1.5087   -1.8167 H   0  0  0  0  0  0  0  0  0  0  0  0
    7.2238    0.9154   -2.3543 H   0  0  0  0  0  0  0  0  0  0  0  0
    5.4233    2.4628   -1.6732 H   0  0  0  0  0  0  0  0  0  0  0  0
    3.4454    1.6317   -0.4457 H   0  0  0  0  0  0  0  0  0  0  0  0
    1.2369    0.6170   -0.7066 H   0  0  0  0  0  0  0  0  0  0  0  0
    0.6958   -1.0343   -0.9725 H   0  0  0  0  0  0  0  0  0  0  0  0
  1  2  2  0
  2  3  1  0
  3  4  2  0
  4  5  1  0
  5  6  1  0
  6  7  2  0
  7  8  1  0
  8  9  1  0
  9 10  1  0
 10 11  1  0
  2 12  1  0
 12 13  1  0
 13 14  1  0
 14 15  1  0
 15 16  1  0
 16 17  1  0
 17 18  2  0
 18 19  1  0
 19 20  1  0
 20 21  2  0
 21 22  1  0
 22 23  2  0
 23 24  1  0
 24 25  2  0
 16 26  1  0
  7  3  1  0
 26 12  1  0
 11  6  1  0
 25 17  1  0
 25 20  1  0
  5 27  1  0
  8 28  1  0
  8 29  1  0
 10 30  1  0
 10 31  1  0
 11 32  1  0
 11 33  1  0
 13 34  1  0
 13 35  1  0
 14 36  1  0
 14 37  1  0
 15 38  1  0
 15 39  1  0
 16 40  1  0
 18 41  1  0
 19 42  1  0
 21 43  1  0
 22 44  1  0
 23 45  1  0
 24 46  1  0
 26 47  1  0
 26 48  1  0
M  END
$$$$
OCNT-2312278
     RDKit          3D

 38 41  0  0  0  0  0  0  0  0999 V2000
   -3.1883    3.1249    2.0312 C   0  0  0  0  0  0  0  0  0  0  0  0
   -2.3513    2.2001    1.3075 N   0  0  0  0  0  0  0  0  0  0  0  0
   -1.0126    2.0211    1.4529 C   0  0  0  0  0  0  0  0  0  0  0  0
   -0.6436    1.0642    0.5301 C   0  0  0  0  0  0  0  0  0  0  0  0
    0.8524    0.6387    0.3652 C   0  0  0  0  0  0  0  0  0  0  0  0
    1.7410    0.9432    1.2956 N   0  0  0  0  0  0  0  0  0  0  0  0
    2.9072    0.3296    0.9289 C   0  0  0  0  0  0  0  0  0  0  0  0
    4.1359    0.2827    1.5991 C   0  0  0  0  0  0  0  0  0  0  0  0
    5.1803   -0.4162    0.9976 C   0  0  0  0  0  0  0  0  0  0  0  0
    6.3660   -0.4791    1.6193 F   0  0  0  0  0  0  0  0  0  0  0  0
    5.0295   -1.0500   -0.2331 C   0  0  0  0  0  0  0  0  0  0  0  0
    3.8105   -1.0053   -0.9174 C   0  0  0  0  0  0  0  0  0  0  0  0
    2.7643   -0.3067   -0.2992 C   0  0  0  0  0  0  0  0  0  0  0  0
    1.4664   -0.0236   -0.6741 N   0  0  0  0  0  0  0  0  0  0  0  0
    0.9768   -0.1704   -2.0216 C   0  0  0  0  0  0  0  0  0  0  0  0
   -1.8676    0.6556   -0.0501 C   0  0  0  0  0  0  0  0  0  0  0  0
   -2.1033   -0.5726   -0.9803 C   0  0  0  0  0  0  0  0  0  0  0  0
   -1.7164   -1.9445   -0.3584 C   0  0  0  0  0  0  0  0  0  0  0  0
   -2.9400   -2.5349   -1.0869 C   0  0  0  0  0  0  0  0  0  0  0  0
   -3.5584   -1.1244   -1.0188 C   0  0  0  0  0  0  0  0  0  0  0  0
   -2.8993    1.3929    0.3846 N   0  0  0  0  0  0  0  0  0  0  0  0
   -2.5774    3.6947    2.7357 H   0  0  0  0  0  0  0  0  0  0  0  0
   -3.9466    2.5533    2.5721 H   0  0  0  0  0  0  0  0  0  0  0  0
   -3.6566    3.8014    1.3119 H   0  0  0  0  0  0  0  0  0  0  0  0
   -0.4238    2.5928    2.1570 H   0  0  0  0  0  0  0  0  0  0  0  0
    4.2693    0.7723    2.5553 H   0  0  0  0  0  0  0  0  0  0  0  0
    5.8763   -1.5804   -0.6602 H   0  0  0  0  0  0  0  0  0  0  0  0
    3.6908   -1.4940   -1.8783 H   0  0  0  0  0  0  0  0  0  0  0  0
    1.8066   -0.0474   -2.7236 H   0  0  0  0  0  0  0  0  0  0  0  0
    0.5512   -1.1679   -2.1341 H   0  0  0  0  0  0  0  0  0  0  0  0
    0.2452    0.6113   -2.2329 H   0  0  0  0  0  0  0  0  0  0  0  0
   -1.7220   -0.4118   -1.9943 H   0  0  0  0  0  0  0  0  0  0  0  0
   -1.7949   -1.9942    0.7348 H   0  0  0  0  0  0  0  0  0  0  0  0
   -0.7536   -2.3646   -0.6573 H   0  0  0  0  0  0  0  0  0  0  0  0
   -2.7262   -2.8762   -2.1063 H   0  0  0  0  0  0  0  0  0  0  0  0
   -3.4805   -3.3197   -0.5524 H   0  0  0  0  0  0  0  0  0  0  0  0
   -4.1536   -0.9635   -0.1118 H   0  0  0  0  0  0  0  0  0  0  0  0
   -4.1536   -0.8313   -1.8879 H   0  0  0  0  0  0  0  0  0  0  0  0
  1  2  1  0
  2  3  1  0
  3  4  2  0
  4  5  1  0
  5  6  2  0
  6  7  1  0
  7  8  2  0
  8  9  1  0
  9 10  1  0
  9 11  2  0
 11 12  1  0
 12 13  2  0
 13 14  1  0
 14 15  1  0
  4 16  1  0
 16 17  1  0
 17 18  1  0
 18 19  1  0
 19 20  1  0
 16 21  2  0
 21  2  1  0
 14  5  1  0
 20 17  1  0
 13  7  1  0
  1 22  1  0
  1 23  1  0
  1 24  1  0
  3 25  1  0
  8 26  1  0
 11 27  1  0
 12 28  1  0
 15 29  1  0
 15 30  1  0
 15 31  1  0
 17 32  1  0
 18 33  1  0
 18 34  1  0
 19 35  1  0
 19 36  1  0
 20 37  1  0
 20 38  1  0
M  END
$$$$
OCNT-2312285
     RDKit          3D

 38 41  0  0  0  0  0  0  0  0999 V2000
    5.6122   -2.3960   -0.4328 C   0  0  0  0  0  0  0  0  0  0  0  0
    4.9251   -1.2111   -0.4657 C   0  0  0  0  0  0  0  0  0  0  0  0
    3.7853   -1.4917   -1.2560 C   0  0  0  0  0  0  0  0  0  0  0  0
    2.6341   -0.4880   -1.6316 C   0  0  0  0  0  0  0  0  0  0  0  0
    1.6031   -0.8301   -2.3748 N   0  0  0  0  0  0  0  0  0  0  0  0
    0.7270    0.2197   -2.5615 N   0  0  0  0  0  0  0  0  0  0  0  0
    1.1003    1.3180   -1.9394 C   0  0  0  0  0  0  0  0  0  0  0  0
    0.3572    2.4544   -1.9796 N   0  0  0  0  0  0  0  0  0  0  0  0
    0.3022    3.3733   -0.8464 C   0  0  0  0  0  0  0  0  0  0  0  0
   -0.2032    2.7450    0.4417 C   0  0  0  0  0  0  0  0  0  0  0  0
   -1.3139    1.9015    0.4451 C   0  0  0  0  0  0  0  0  0  0  0  0
   -1.7166    1.3348    1.6484 C   0  0  0  0  0  0  0  0  0  0  0  0
   -2.7694    0.4654    1.7842 O   0  0  0  0  0  0  0  0  0  0  0  0
   -3.1578   -0.3229    0.6374 C   0  0  0  0  0  0  0  0  0  0  0  0
   -2.1395   -1.3726    0.1138 C   0  0  0  0  0  0  0  0  0  0  0  0
   -3.3303   -2.3188   -0.1195 C   0  0  0  0  0  0  0  0  0  0  0  0
   -4.0842   -1.5242    0.9622 C   0  0  0  0  0  0  0  0  0  0  0  0
   -1.0453    1.6575    2.8193 C   0  0  0  0  0  0  0  0  0  0  0  0
    0.0320    2.5171    2.7349 C   0  0  0  0  0  0  0  0  0  0  0  0
    0.4692    3.0607    1.5784 N   0  0  0  0  0  0  0  0  0  0  0  0
    2.6031    1.1466   -1.1133 S   0  0  0  0  0  0  0  0  0  0  0  0
    3.7887   -2.7663   -1.6700 N   0  0  0  0  0  0  0  0  0  0  0  0
    4.9404   -3.3289   -1.1489 O   0  0  0  0  0  0  0  0  0  0  0  0
    6.5331   -2.7293    0.0225 H   0  0  0  0  0  0  0  0  0  0  0  0
    5.2076   -0.2853    0.0108 H   0  0  0  0  0  0  0  0  0  0  0  0
   -0.5361    2.3295   -2.4453 H   0  0  0  0  0  0  0  0  0  0  0  0
   -0.3731    4.1985   -1.1027 H   0  0  0  0  0  0  0  0  0  0  0  0
    1.2879    3.8251   -0.6811 H   0  0  0  0  0  0  0  0  0  0  0  0
   -1.8344    1.6894   -0.4798 H   0  0  0  0  0  0  0  0  0  0  0  0
   -3.5941    0.3021   -0.1546 H   0  0  0  0  0  0  0  0  0  0  0  0
   -1.4302   -1.7266    0.8707 H   0  0  0  0  0  0  0  0  0  0  0  0
   -1.5877   -1.0918   -0.7874 H   0  0  0  0  0  0  0  0  0  0  0  0
   -3.1507   -3.3734    0.1021 H   0  0  0  0  0  0  0  0  0  0  0  0
   -3.7726   -2.2322   -1.1189 H   0  0  0  0  0  0  0  0  0  0  0  0
   -3.9614   -1.9232    1.9759 H   0  0  0  0  0  0  0  0  0  0  0  0
   -5.1488   -1.3666    0.7689 H   0  0  0  0  0  0  0  0  0  0  0  0
   -1.3513    1.2405    3.7716 H   0  0  0  0  0  0  0  0  0  0  0  0
    0.5923    2.7983    3.6216 H   0  0  0  0  0  0  0  0  0  0  0  0
  1  2  2  0
  2  3  1  0
  3  4  1  0
  4  5  2  0
  5  6  1  0
  6  7  2  0
  7  8  1  0
  8  9  1  0
  9 10  1  0
 10 11  2  0
 11 12  1  0
 12 13  1  0
 13 14  1  0
 14 15  1  0
 15 16  1  0
 16 17  1  0
 12 18  2  0
 18 19  1  0
 19 20  2  0
  7 21  1  0
  3 22  2  0
 22 23  1  0
 23  1  1  0
 21  4  1  0
 20 10  1  0
 17 14  1  0
  1 24  1  0
  2 25  1  0
  8 26  1  0
  9 27  1  0
  9 28  1  0
 11 29  1  0
 14 30  1  0
 15 31  1  0
 15 32  1  0
 16 33  1  0
 16 34  1  0
 17 35  1  0
 17 36  1  0
 18 37  1  0
 19 38  1  0
M  END
$$$$
OCNT-2312288
     RDKit          3D

 41 44  0  0  0  0  0  0  0  0999 V2000
    4.4289   -3.5656    2.3888 C   0  0  0  0  0  0  0  0  0  0  0  0
    5.2232   -2.6012    1.7721 C   0  0  0  0  0  0  0  0  0  0  0  0
    4.8122   -2.0202    0.5720 C   0  0  0  0  0  0  0  0  0  0  0  0
    3.5988   -2.3985   -0.0234 C   0  0  0  0  0  0  0  0  0  0  0  0
    3.1538   -1.7665   -1.3185 C   0  0  0  0  0  0  0  0  0  0  0  0
    2.7691   -0.3792   -1.1336 N   0  0  0  0  0  0  0  0  0  0  0  0
    1.6652    0.1122   -0.5003 C   0  0  0  0  0  0  0  0  0  0  0  0
    1.7590    1.4776   -0.6737 C   0  0  0  0  0  0  0  0  0  0  0  0
    0.8680    2.5703   -0.2168 C   0  0  0  0  0  0  0  0  0  0  0  0
   -0.4958    2.3541   -0.6658 N   0  0  0  0  0  0  0  0  0  0  0  0
   -0.9535    2.5304   -1.9394 C   0  0  0  0  0  0  0  0  0  0  0  0
   -2.2370    2.2651   -2.0243 N   0  0  0  0  0  0  0  0  0  0  0  0
   -2.6335    1.9108   -0.7510 C   0  0  0  0  0  0  0  0  0  0  0  0
   -4.0014    1.5368   -0.4187 C   0  0  0  0  0  0  0  0  0  0  0  0
   -4.3994    1.2398    0.8929 C   0  0  0  0  0  0  0  0  0  0  0  0
   -5.7224    0.8827    1.1742 C   0  0  0  0  0  0  0  0  0  0  0  0
   -6.6632    0.8181    0.1489 C   0  0  0  0  0  0  0  0  0  0  0  0
   -6.2840    1.1114   -1.1584 C   0  0  0  0  0  0  0  0  0  0  0  0
   -4.9623    1.4686   -1.4386 C   0  0  0  0  0  0  0  0  0  0  0  0
   -1.5563    1.9668    0.1101 C   0  0  0  0  0  0  0  0  0  0  0  0
    2.8969    1.7574   -1.3869 N   0  0  0  0  0  0  0  0  0  0  0  0
    3.5044    0.6133   -1.6677 N   0  0  0  0  0  0  0  0  0  0  0  0
    2.8076   -3.3704    0.6068 C   0  0  0  0  0  0  0  0  0  0  0  0
    3.2223   -3.9500    1.8071 C   0  0  0  0  0  0  0  0  0  0  0  0
    4.7511   -4.0179    3.3233 H   0  0  0  0  0  0  0  0  0  0  0  0
    6.1643   -2.3004    2.2261 H   0  0  0  0  0  0  0  0  0  0  0  0
    5.4435   -1.2648    0.1057 H   0  0  0  0  0  0  0  0  0  0  0  0
    3.9594   -1.8122   -2.0605 H   0  0  0  0  0  0  0  0  0  0  0  0
    2.2864   -2.2849   -1.7431 H   0  0  0  0  0  0  0  0  0  0  0  0
    0.9392   -0.5205   -0.0106 H   0  0  0  0  0  0  0  0  0  0  0  0
    0.8633    2.6313    0.8768 H   0  0  0  0  0  0  0  0  0  0  0  0
    1.1891    3.5412   -0.6100 H   0  0  0  0  0  0  0  0  0  0  0  0
   -0.3171    2.8425   -2.7583 H   0  0  0  0  0  0  0  0  0  0  0  0
   -3.6924    1.2840    1.7156 H   0  0  0  0  0  0  0  0  0  0  0  0
   -6.0172    0.6566    2.1956 H   0  0  0  0  0  0  0  0  0  0  0  0
   -7.6911    0.5417    0.3680 H   0  0  0  0  0  0  0  0  0  0  0  0
   -7.0130    1.0655   -1.9630 H   0  0  0  0  0  0  0  0  0  0  0  0
   -4.6809    1.6964   -2.4655 H   0  0  0  0  0  0  0  0  0  0  0  0
   -1.4518    1.7673    1.1666 H   0  0  0  0  0  0  0  0  0  0  0  0
    1.8623   -3.6863    0.1700 H   0  0  0  0  0  0  0  0  0  0  0  0
    2.6044   -4.7034    2.2894 H   0  0  0  0  0  0  0  0  0  0  0  0
  1  2  2  0
  2  3  1  0
  3  4  2  0
  4  5  1  0
  5  6  1  0
  6  7  1  0
  7  8  2  0
  8  9  1  0
  9 10  1  0
 10 11  1  0
 11 12  2  0
 12 13  1  0
 13 14  1  0
 14 15  2  0
 15 16  1  0
 16 17  2  0
 17 18  1  0
 18 19  2  0
 13 20  2  0
  8 21  1  0
 21 22  2  0
  4 23  1  0
 23 24  2  0
 24  1  1  0
 22  6  1  0
 20 10  1  0
 19 14  1  0
  1 25  1  0
  2 26  1  0
  3 27  1  0
  5 28  1  0
  5 29  1  0
  7 30  1  0
  9 31  1  0
  9 32  1  0
 11 33  1  0
 15 34  1  0
 16 35  1  0
 17 36  1  0
 18 37  1  0
 19 38  1  0
 20 39  1  0
 23 40  1  0
 24 41  1  0
M  END
$$$$
OCNT-2312293
     RDKit          3D

 40 43  0  0  0  0  0  0  0  0999 V2000
    0.4476   -3.2954    0.5916 O   0  0  0  0  0  0  0  0  0  0  0  0
    0.5414   -2.0798    0.3965 C   0  0  0  0  0  0  0  0  0  0  0  0
    1.7334   -1.4210    0.1660 N   0  0  0  0  0  0  0  0  0  0  0  0
    2.9910   -1.9988    0.1135 C   0  0  0  0  0  0  0  0  0  0  0  0
    3.3525   -3.3129    0.2692 C   0  0  0  0  0  0  0  0  0  0  0  0
    4.7077   -3.3549    0.1246 N   0  0  0  0  0  0  0  0  0  0  0  0
    5.2666   -2.1548   -0.1144 N   0  0  0  0  0  0  0  0  0  0  0  0
    4.2182   -1.3181   -0.1238 C   0  0  0  0  0  0  0  0  0  0  0  0
    4.3235    0.2416   -0.3697 C   0  0  0  0  0  0  0  0  0  0  0  0
    3.2421    1.0042   -0.3620 N   0  0  0  0  0  0  0  0  0  0  0  0
    3.6029    2.3147   -0.6080 C   0  0  0  0  0  0  0  0  0  0  0  0
    4.9501    2.5369   -0.7938 C   0  0  0  0  0  0  0  0  0  0  0  0
    5.8052    1.0568   -0.6600 S   0  0  0  0  0  0  0  0  0  0  0  0
   -0.7011   -1.1547    0.4007 C   0  0  2  0  0  0  0  0  0  0  0  0
   -0.9095   -0.1522   -0.7556 C   0  0  0  0  0  0  0  0  0  0  0  0
   -1.5039    0.8707    0.2796 C   0  0  1  0  0  0  0  0  0  0  0  0
   -0.9692    2.2070    0.1071 O   0  0  0  0  0  0  0  0  0  0  0  0
   -3.1135    0.9184    0.3507 C   0  0  0  0  0  0  0  0  0  0  0  0
   -3.8517    0.7026    1.5328 C   0  0  0  0  0  0  0  0  0  0  0  0
   -5.2501    0.7637    1.5607 C   0  0  0  0  0  0  0  0  0  0  0  0
   -5.9591    1.0549    0.4001 C   0  0  0  0  0  0  0  0  0  0  0  0
   -5.2650    1.2889   -0.7798 C   0  0  0  0  0  0  0  0  0  0  0  0
   -6.1275    1.6628   -2.2206 Cl  0  0  0  0  0  0  0  0  0  0  0  0
   -3.8701    1.2260   -0.8024 C   0  0  0  0  0  0  0  0  0  0  0  0
   -0.7256    0.0503    1.3661 C   0  0  0  0  0  0  0  0  0  0  0  0
    1.7298   -0.4122    0.0159 H   0  0  0  0  0  0  0  0  0  0  0  0
    2.7806   -4.2091    0.4651 H   0  0  0  0  0  0  0  0  0  0  0  0
    5.3141   -4.1671    0.1768 H   0  0  0  0  0  0  0  0  0  0  0  0
    2.8348    3.0787   -0.6420 H   0  0  0  0  0  0  0  0  0  0  0  0
    5.4589    3.4681   -0.9965 H   0  0  0  0  0  0  0  0  0  0  0  0
   -1.6072   -1.7677    0.5361 H   0  0  0  0  0  0  0  0  0  0  0  0
   -1.5898   -0.5035   -1.5378 H   0  0  0  0  0  0  0  0  0  0  0  0
    0.0045    0.2020   -1.2462 H   0  0  0  0  0  0  0  0  0  0  0  0
   -1.3818    2.7290    0.8173 H   0  0  0  0  0  0  0  0  0  0  0  0
   -3.3361    0.4821    2.4652 H   0  0  0  0  0  0  0  0  0  0  0  0
   -5.7827    0.5847    2.4919 H   0  0  0  0  0  0  0  0  0  0  0  0
   -7.0442    1.1020    0.4232 H   0  0  0  0  0  0  0  0  0  0  0  0
   -3.3440    1.4252   -1.7354 H   0  0  0  0  0  0  0  0  0  0  0  0
   -1.2323   -0.1399    2.3153 H   0  0  0  0  0  0  0  0  0  0  0  0
    0.2594    0.4710    1.6043 H   0  0  0  0  0  0  0  0  0  0  0  0
  1  2  2  0
  2  3  1  0
  3  4  1  0
  4  5  2  0
  5  6  1  0
  6  7  1  0
  7  8  2  0
  8  9  1  0
  9 10  2  0
 10 11  1  0
 11 12  2  0
 12 13  1  0
  2 14  1  0
 14 15  1  0
 15 16  1  0
 16 17  1  6
 16 18  1  0
 18 19  2  0
 19 20  1  0
 20 21  2  0
 21 22  1  0
 22 23  1  0
 22 24  2  0
 16 25  1  0
  8  4  1  0
 13  9  1  0
 25 14  1  0
 24 18  1  0
  3 26  1  0
  5 27  1  0
  6 28  1  0
 11 29  1  0
 12 30  1  0
 14 31  1  1
 15 32  1  0
 15 33  1  0
 17 34  1  0
 19 35  1  0
 20 36  1  0
 21 37  1  0
 24 38  1  0
 25 39  1  0
 25 40  1  0
M  END
$$$$
OCNT-2312299
     RDKit          3D

 44 46  0  0  0  0  0  0  0  0999 V2000
    5.1734    4.3367    2.2425 N   0  0  0  0  0  0  0  0  0  0  0  0
    4.3626    3.3992    1.7248 C   0  0  0  0  0  0  0  0  0  0  0  0
    3.1509    3.1904    2.1617 N   0  0  0  0  0  0  0  0  0  0  0  0
    2.5309    2.1572    1.4498 C   0  0  0  0  0  0  0  0  0  0  0  0
    1.1589    1.7613    1.8121 C   0  0  0  0  0  0  0  0  0  0  0  0
    0.3518    2.5571    2.2859 O   0  0  0  0  0  0  0  0  0  0  0  0
    0.8438    0.4241    1.6352 N   0  0  0  0  0  0  0  0  0  0  0  0
   -0.4084   -0.1262    2.1103 C   0  0  0  0  0  0  0  0  0  0  0  0
   -1.5933    0.1714    1.1969 C   0  0  0  0  0  0  0  0  0  0  0  0
   -1.4575   -0.4974   -0.1681 C   0  0  0  0  0  0  0  0  0  0  0  0
   -2.6136   -0.2513   -0.9701 O   0  0  0  0  0  0  0  0  0  0  0  0
   -3.6530   -1.1363   -0.9207 C   0  0  0  0  0  0  0  0  0  0  0  0
   -3.7853   -2.2105   -0.0377 C   0  0  0  0  0  0  0  0  0  0  0  0
   -4.9140   -3.0342   -0.1004 C   0  0  0  0  0  0  0  0  0  0  0  0
   -5.9046   -2.7783   -1.0410 C   0  0  0  0  0  0  0  0  0  0  0  0
   -6.9829   -3.5705   -1.0963 F   0  0  0  0  0  0  0  0  0  0  0  0
   -5.7915   -1.7110   -1.9207 C   0  0  0  0  0  0  0  0  0  0  0  0
   -4.6648   -0.8899   -1.8567 C   0  0  0  0  0  0  0  0  0  0  0  0
    3.3239    1.6212    0.4398 C   0  0  0  0  0  0  0  0  0  0  0  0
    3.0533    0.5989   -0.5682 C   0  0  0  0  0  0  0  0  0  0  0  0
    2.0914    0.8273   -1.5604 C   0  0  0  0  0  0  0  0  0  0  0  0
    1.8138   -0.1545   -2.5139 C   0  0  0  0  0  0  0  0  0  0  0  0
    2.4926   -1.3712   -2.4812 C   0  0  0  0  0  0  0  0  0  0  0  0
    3.4536   -1.6072   -1.4996 C   0  0  0  0  0  0  0  0  0  0  0  0
    3.7348   -0.6261   -0.5467 C   0  0  0  0  0  0  0  0  0  0  0  0
    4.8544    2.4087    0.4232 S   0  0  0  0  0  0  0  0  0  0  0  0
    4.6944    5.0429    2.7923 H   0  0  0  0  0  0  0  0  0  0  0  0
    5.8847    4.7187    1.6314 H   0  0  0  0  0  0  0  0  0  0  0  0
    1.5829   -0.2173    1.3816 H   0  0  0  0  0  0  0  0  0  0  0  0
   -0.2692   -1.2077    2.2145 H   0  0  0  0  0  0  0  0  0  0  0  0
   -0.6053    0.2801    3.1089 H   0  0  0  0  0  0  0  0  0  0  0  0
   -1.7183    1.2519    1.0565 H   0  0  0  0  0  0  0  0  0  0  0  0
   -2.5122   -0.1703    1.6870 H   0  0  0  0  0  0  0  0  0  0  0  0
   -0.6207   -0.0397   -0.7036 H   0  0  0  0  0  0  0  0  0  0  0  0
   -1.2189   -1.5650   -0.1002 H   0  0  0  0  0  0  0  0  0  0  0  0
   -3.0390   -2.4306    0.7171 H   0  0  0  0  0  0  0  0  0  0  0  0
   -5.0277   -3.8708    0.5816 H   0  0  0  0  0  0  0  0  0  0  0  0
   -6.5756   -1.5223   -2.6462 H   0  0  0  0  0  0  0  0  0  0  0  0
   -4.5715   -0.0499   -2.5412 H   0  0  0  0  0  0  0  0  0  0  0  0
    1.5520    1.7721   -1.6014 H   0  0  0  0  0  0  0  0  0  0  0  0
    1.0667    0.0315   -3.2821 H   0  0  0  0  0  0  0  0  0  0  0  0
    2.2768   -2.1334   -3.2263 H   0  0  0  0  0  0  0  0  0  0  0  0
    3.9888   -2.5536   -1.4803 H   0  0  0  0  0  0  0  0  0  0  0  0
    4.4909   -0.8254    0.2103 H   0  0  0  0  0  0  0  0  0  0  0  0
  1  2  1  0
  2  3  2  0
  3  4  1  0
  4  5  1  0
  5  6  2  0
  5  7  1  0
  7  8  1  0
  8  9  1  0
  9 10  1  0
 10 11  1  0
 11 12  1  0
 12 13  1  0
 13 14  2  0
 14 15  1  0
 15 16  1  0
 15 17  2  0
 17 18  1  0
  4 19  2  0
 19 20  1  0
 20 21  2  0
 21 22  1  0
 22 23  2  0
 23 24  1  0
 24 25  2  0
 19 26  1  0
 26  2  1  0
 18 12  2  0
 25 20  1  0
  1 27  1  0
  1 28  1  0
  7 29  1  0
  8 30  1  0
  8 31  1  0
  9 32  1  0
  9 33  1  0
 10 34  1  0
 10 35  1  0
 13 36  1  0
 14 37  1  0
 17 38  1  0
 18 39  1  0
 21 40  1  0
 22 41  1  0
 23 42  1  0
 24 43  1  0
 25 44  1  0
M  END
$$$$
OCNT-2312303
     RDKit          3D

 42 44  0  0  0  0  0  0  0  0999 V2000
   -5.5422    2.1230    0.9487 C   0  0  0  0  0  0  0  0  0  0  0  0
   -4.9473    0.8247    0.6694 N   0  0  0  0  0  0  0  0  0  0  0  0
   -5.7859   -0.2871    0.6095 C   0  0  0  0  0  0  0  0  0  0  0  0
   -6.9953   -0.2446    0.8404 O   0  0  0  0  0  0  0  0  0  0  0  0
   -5.1551   -1.5719    0.1269 C   0  0  0  0  0  0  0  0  0  0  0  0
   -3.7763   -1.7620    0.7170 C   0  0  0  0  0  0  0  0  0  0  0  0
   -2.9376   -0.5447    0.4557 C   0  0  0  0  0  0  0  0  0  0  0  0
   -1.5452   -0.6722    0.2924 C   0  0  0  0  0  0  0  0  0  0  0  0
   -0.7281    0.4441    0.0954 C   0  0  0  0  0  0  0  0  0  0  0  0
    0.6630    0.3802   -0.0103 N   0  0  0  0  0  0  0  0  0  0  0  0
    1.2997   -0.8593   -0.4342 C   0  0  0  0  0  0  0  0  0  0  0  0
    2.7795   -0.6158   -0.6223 C   0  0  0  0  0  0  0  0  0  0  0  0
    3.6130   -0.4288    0.4896 C   0  0  0  0  0  0  0  0  0  0  0  0
    4.9828   -0.1942    0.3284 C   0  0  0  0  0  0  0  0  0  0  0  0
    5.5356   -0.1307   -0.9507 C   0  0  0  0  0  0  0  0  0  0  0  0
    6.8512    0.0883   -1.2484 O   0  0  0  0  0  0  0  0  0  0  0  0
    7.6559    0.6073   -0.2037 C   0  0  0  0  0  0  0  0  0  0  0  0
    7.9116   -0.3758    0.6944 F   0  0  0  0  0  0  0  0  0  0  0  0
    8.8502    0.9544   -0.7478 F   0  0  0  0  0  0  0  0  0  0  0  0
    4.7095   -0.3218   -2.0613 C   0  0  0  0  0  0  0  0  0  0  0  0
    3.3413   -0.5556   -1.9027 C   0  0  0  0  0  0  0  0  0  0  0  0
   -1.3358    1.7029    0.1550 C   0  0  0  0  0  0  0  0  0  0  0  0
   -2.7183    1.8442    0.3332 C   0  0  0  0  0  0  0  0  0  0  0  0
   -3.5377    0.7212    0.4735 C   0  0  0  0  0  0  0  0  0  0  0  0
   -6.6039    2.0409    1.1976 H   0  0  0  0  0  0  0  0  0  0  0  0
   -5.4533    2.7580    0.0617 H   0  0  0  0  0  0  0  0  0  0  0  0
   -5.0338    2.5852    1.8010 H   0  0  0  0  0  0  0  0  0  0  0  0
   -5.1180   -1.5363   -0.9686 H   0  0  0  0  0  0  0  0  0  0  0  0
   -5.7962   -2.4121    0.4157 H   0  0  0  0  0  0  0  0  0  0  0  0
   -3.8379   -1.9178    1.8010 H   0  0  0  0  0  0  0  0  0  0  0  0
   -3.3159   -2.6530    0.2749 H   0  0  0  0  0  0  0  0  0  0  0  0
   -1.1127   -1.6678    0.3338 H   0  0  0  0  0  0  0  0  0  0  0  0
    1.0472    1.1910   -0.4898 H   0  0  0  0  0  0  0  0  0  0  0  0
    1.1715   -1.6469    0.3183 H   0  0  0  0  0  0  0  0  0  0  0  0
    0.8598   -1.2183   -1.3730 H   0  0  0  0  0  0  0  0  0  0  0  0
    3.1914   -0.4673    1.4932 H   0  0  0  0  0  0  0  0  0  0  0  0
    5.5849   -0.0858    1.2256 H   0  0  0  0  0  0  0  0  0  0  0  0
    7.2239    1.4860    0.2880 H   0  0  0  0  0  0  0  0  0  0  0  0
    5.1342   -0.2848   -3.0623 H   0  0  0  0  0  0  0  0  0  0  0  0
    2.7218   -0.6924   -2.7864 H   0  0  0  0  0  0  0  0  0  0  0  0
   -0.7301    2.6021    0.0664 H   0  0  0  0  0  0  0  0  0  0  0  0
   -3.1215    2.8516    0.3551 H   0  0  0  0  0  0  0  0  0  0  0  0
  1  2  1  0
  2  3  1  0
  3  4  2  0
  3  5  1  0
  5  6  1  0
  6  7  1  0
  7  8  1  0
  8  9  2  0
  9 10  1  0
 10 11  1  0
 11 12  1  0
 12 13  1  0
 13 14  2  0
 14 15  1  0
 15 16  1  0
 16 17  1  0
 17 18  1  0
 17 19  1  0
 15 20  2  0
 20 21  1  0
  9 22  1  0
 22 23  2  0
 23 24  1  0
 24  2  1  0
 24  7  2  0
 21 12  2  0
  1 25  1  0
  1 26  1  0
  1 27  1  0
  5 28  1  0
  5 29  1  0
  6 30  1  0
  6 31  1  0
  8 32  1  0
 10 33  1  0
 11 34  1  0
 11 35  1  0
 13 36  1  0
 14 37  1  0
 17 38  1  0
 20 39  1  0
 21 40  1  0
 22 41  1  0
 23 42  1  0
M  END
$$$$
OCNT-2312308
     RDKit          3D

 42 45  0  0  0  0  0  0  0  0999 V2000
   -1.7728   -0.6296    1.7357 O   0  0  0  0  0  0  0  0  0  0  0  0
   -2.7767   -0.1568    1.2247 C   0  0  0  0  0  0  0  0  0  0  0  0
   -2.8190    0.9572    0.4541 O   0  0  0  0  0  0  0  0  0  0  0  0
   -1.5270    1.4847    0.1378 C   0  0  0  0  0  0  0  0  0  0  0  0
   -0.8438    0.6567   -0.9532 C   0  0  0  0  0  0  0  0  0  0  0  0
   -1.4903    0.3413   -1.9590 O   0  0  0  0  0  0  0  0  0  0  0  0
    0.4762    0.2898   -0.7478 N   0  0  0  0  0  0  0  0  0  0  0  0
    1.1343   -0.4156   -1.7348 N   0  0  0  0  0  0  0  0  0  0  0  0
    2.2850   -0.7769   -1.2553 C   0  0  0  0  0  0  0  0  0  0  0  0
    3.2834   -1.5026   -2.0086 C   0  0  0  0  0  0  0  0  0  0  0  0
    4.5017   -1.9978   -1.5785 C   0  0  0  0  0  0  0  0  0  0  0  0
    5.2258   -2.6540   -2.6172 C   0  0  0  0  0  0  0  0  0  0  0  0
    4.5358   -2.6461   -3.8071 C   0  0  0  0  0  0  0  0  0  0  0  0
    3.0313   -1.8486   -3.6689 S   0  0  0  0  0  0  0  0  0  0  0  0
    2.5052   -0.4332    0.1912 C   0  0  0  0  0  0  0  0  0  0  0  0
    1.3084    0.4675    0.4444 C   0  0  0  0  0  0  0  0  0  0  0  0
    1.7192    1.8959    0.6057 C   0  0  0  0  0  0  0  0  0  0  0  0
    1.7091    2.7606    1.6825 C   0  0  0  0  0  0  0  0  0  0  0  0
    2.2286    3.9915    1.2136 C   0  0  0  0  0  0  0  0  0  0  0  0
    2.5290    3.8001   -0.1139 C   0  0  0  0  0  0  0  0  0  0  0  0
    2.2315    2.5305   -0.4882 O   0  0  0  0  0  0  0  0  0  0  0  0
   -4.1376   -0.7159    1.4066 C   0  0  0  0  0  0  0  0  0  0  0  0
   -4.3375   -1.6480    2.4252 C   0  0  0  0  0  0  0  0  0  0  0  0
   -5.6083   -2.1655    2.5896 C   0  0  0  0  0  0  0  0  0  0  0  0
   -6.6609   -1.8230    1.8172 N   0  0  0  0  0  0  0  0  0  0  0  0
   -6.4359   -0.9307    0.8290 C   0  0  0  0  0  0  0  0  0  0  0  0
   -5.2047   -0.3512    0.5847 C   0  0  0  0  0  0  0  0  0  0  0  0
   -1.6735    2.4914   -0.2676 H   0  0  0  0  0  0  0  0  0  0  0  0
   -0.9436    1.5971    1.0516 H   0  0  0  0  0  0  0  0  0  0  0  0
    4.8720   -1.8956   -0.5659 H   0  0  0  0  0  0  0  0  0  0  0  0
    6.2027   -3.1073   -2.4981 H   0  0  0  0  0  0  0  0  0  0  0  0
    4.8407   -3.0653   -4.7557 H   0  0  0  0  0  0  0  0  0  0  0  0
    3.4765    0.0411    0.3571 H   0  0  0  0  0  0  0  0  0  0  0  0
    2.4423   -1.3546    0.7798 H   0  0  0  0  0  0  0  0  0  0  0  0
    0.7561    0.1361    1.3294 H   0  0  0  0  0  0  0  0  0  0  0  0
    1.3686    2.5322    2.6833 H   0  0  0  0  0  0  0  0  0  0  0  0
    2.3670    4.9063    1.7724 H   0  0  0  0  0  0  0  0  0  0  0  0
    2.9398    4.4318   -0.8900 H   0  0  0  0  0  0  0  0  0  0  0  0
   -3.5272   -1.9634    3.0738 H   0  0  0  0  0  0  0  0  0  0  0  0
   -5.8223   -2.8941    3.3671 H   0  0  0  0  0  0  0  0  0  0  0  0
   -7.3006   -0.6892    0.2172 H   0  0  0  0  0  0  0  0  0  0  0  0
   -5.0885    0.3531   -0.2321 H   0  0  0  0  0  0  0  0  0  0  0  0
  1  2  2  0
  2  3  1  0
  3  4  1  0
  4  5  1  0
  5  6  2  0
  5  7  1  0
  7  8  1  0
  8  9  2  0
  9 10  1  0
 10 11  2  0
 11 12  1  0
 12 13  2  0
 13 14  1  0
  9 15  1  0
 15 16  1  0
 16 17  1  0
 17 18  2  0
 18 19  1  0
 19 20  2  0
 20 21  1  0
  2 22  1  0
 22 23  2  0
 23 24  1  0
 24 25  2  0
 25 26  1  0
 26 27  2  0
 16  7  1  0
 21 17  1  0
 27 22  1  0
 14 10  1  0
  4 28  1  0
  4 29  1  0
 11 30  1  0
 12 31  1  0
 13 32  1  0
 15 33  1  0
 15 34  1  0
 16 35  1  0
 18 36  1  0
 19 37  1  0
 20 38  1  0
 23 39  1  0
 24 40  1  0
 26 41  1  0
 27 42  1  0
M  END
$$$$
OCNT-2312312
     RDKit          3D

 47 50  0  0  0  0  0  0  0  0999 V2000
    4.1468    0.7882    2.7651 N   0  0  0  0  0  0  0  0  0  0  0  0
    3.4336    1.4547    1.7993 C   0  0  0  0  0  0  0  0  0  0  0  0
    3.3922    2.6813    1.8219 O   0  0  0  0  0  0  0  0  0  0  0  0
    2.7707    0.5610    0.7257 C   0  0  0  0  0  0  0  0  0  0  0  0
    3.8613   -0.1143   -0.1302 C   0  0  0  0  0  0  0  0  0  0  0  0
    4.8868    0.6829   -0.6814 C   0  0  0  0  0  0  0  0  0  0  0  0
    5.8988    0.1260   -1.4666 C   0  0  0  0  0  0  0  0  0  0  0  0
    5.9034   -1.2407   -1.7269 C   0  0  0  0  0  0  0  0  0  0  0  0
    4.8938   -2.0453   -1.2069 C   0  0  0  0  0  0  0  0  0  0  0  0
    3.8761   -1.4873   -0.4230 C   0  0  0  0  0  0  0  0  0  0  0  0
    1.7676   -0.3761    1.4458 C   0  0  0  0  0  0  0  0  0  0  0  0
    0.5324   -0.3745    0.5614 C   0  0  0  0  0  0  0  0  0  0  0  0
    0.4656    1.0317    0.1643 N   0  0  0  0  0  0  0  0  0  0  0  0
   -0.4834    1.2813   -0.9265 C   0  0  0  0  0  0  0  0  0  0  0  0
   -1.8846    1.1525   -0.4317 C   0  0  0  0  0  0  0  0  0  0  0  0
   -2.5317    1.8891    0.5344 C   0  0  0  0  0  0  0  0  0  0  0  0
   -3.8022    1.4177    0.6510 O   0  0  0  0  0  0  0  0  0  0  0  0
   -3.8724    0.4016   -0.2674 C   0  0  0  0  0  0  0  0  0  0  0  0
   -5.1516   -0.2961   -0.3805 C   0  0  0  0  0  0  0  0  0  0  0  0
   -5.2881   -1.3510   -1.2986 C   0  0  0  0  0  0  0  0  0  0  0  0
   -6.5011   -2.0345   -1.4309 C   0  0  0  0  0  0  0  0  0  0  0  0
   -7.5902   -1.6679   -0.6450 C   0  0  0  0  0  0  0  0  0  0  0  0
   -9.0832   -2.5071   -0.8052 Cl  0  0  0  0  0  0  0  0  0  0  0  0
   -7.4775   -0.6222    0.2697 C   0  0  0  0  0  0  0  0  0  0  0  0
   -6.2629    0.0595    0.4015 C   0  0  0  0  0  0  0  0  0  0  0  0
   -2.7514    0.2026   -0.9368 N   0  0  0  0  0  0  0  0  0  0  0  0
    1.8467    1.3859   -0.2157 C   0  0  0  0  0  0  0  0  0  0  0  0
    4.6964    1.3849    3.3690 H   0  0  0  0  0  0  0  0  0  0  0  0
    4.5464   -0.1163    2.5423 H   0  0  0  0  0  0  0  0  0  0  0  0
    4.9103    1.7582   -0.5017 H   0  0  0  0  0  0  0  0  0  0  0  0
    6.6797    0.7615   -1.8774 H   0  0  0  0  0  0  0  0  0  0  0  0
    6.6924   -1.6775   -2.3359 H   0  0  0  0  0  0  0  0  0  0  0  0
    4.8936   -3.1147   -1.4176 H   0  0  0  0  0  0  0  0  0  0  0  0
    3.1007   -2.1599   -0.0652 H   0  0  0  0  0  0  0  0  0  0  0  0
    2.1369   -1.3852    1.6443 H   0  0  0  0  0  0  0  0  0  0  0  0
    1.4863    0.0360    2.4268 H   0  0  0  0  0  0  0  0  0  0  0  0
   -0.3535   -0.6973    1.1197 H   0  0  0  0  0  0  0  0  0  0  0  0
    0.6716   -1.0431   -0.2981 H   0  0  0  0  0  0  0  0  0  0  0  0
   -0.3554    2.3055   -1.3014 H   0  0  0  0  0  0  0  0  0  0  0  0
   -0.3121    0.6035   -1.7731 H   0  0  0  0  0  0  0  0  0  0  0  0
   -2.2510    2.7075    1.1815 H   0  0  0  0  0  0  0  0  0  0  0  0
   -4.4412   -1.6440   -1.9190 H   0  0  0  0  0  0  0  0  0  0  0  0
   -6.5863   -2.8452   -2.1497 H   0  0  0  0  0  0  0  0  0  0  0  0
   -8.3267   -0.3319    0.8828 H   0  0  0  0  0  0  0  0  0  0  0  0
   -6.1941    0.8750    1.1205 H   0  0  0  0  0  0  0  0  0  0  0  0
    1.9889    2.4688   -0.1342 H   0  0  0  0  0  0  0  0  0  0  0  0
    2.0217    1.1151   -1.2671 H   0  0  0  0  0  0  0  0  0  0  0  0
  1  2  1  0
  2  3  2  0
  2  4  1  0
  4  5  1  0
  5  6  2  0
  6  7  1  0
  7  8  2  0
  8  9  1  0
  9 10  2  0
  4 11  1  0
 11 12  1  0
 12 13  1  0
 13 14  1  0
 14 15  1  0
 15 16  2  0
 16 17  1  0
 17 18  1  0
 18 19  1  0
 19 20  1  0
 20 21  2  0
 21 22  1  0
 22 23  1  0
 22 24  2  0
 24 25  1  0
 18 26  2  0
 13 27  1  0
 27  4  1  0
 10  5  1  0
 26 15  1  0
 25 19  2  0
  1 28  1  0
  1 29  1  0
  6 30  1  0
  7 31  1  0
  8 32  1  0
  9 33  1  0
 10 34  1  0
 11 35  1  0
 11 36  1  0
 12 37  1  0
 12 38  1  0
 14 39  1  0
 14 40  1  0
 16 41  1  0
 20 42  1  0
 21 43  1  0
 24 44  1  0
 25 45  1  0
 27 46  1  0
 27 47  1  0
M  END
$$$$
OCNT-2312316
     RDKit          3D

 44 47  0  0  0  0  0  0  0  0999 V2000
   -2.4940   -1.5571    2.8111 C   0  0  0  0  0  0  0  0  0  0  0  0
   -2.6697   -0.8449    1.5031 C   0  0  0  0  0  0  0  0  0  0  0  0
   -3.9186   -0.7613    0.8993 C   0  0  0  0  0  0  0  0  0  0  0  0
   -4.0686   -0.1239   -0.3419 C   0  0  0  0  0  0  0  0  0  0  0  0
   -5.4406   -0.0473   -0.9622 C   0  0  0  0  0  0  0  0  0  0  0  0
   -2.9688    0.4323   -1.0080 C   0  0  0  0  0  0  0  0  0  0  0  0
   -3.1753    1.0303   -2.1956 N   0  0  0  0  0  0  0  0  0  0  0  0
   -2.1226    1.5640   -2.8459 C   0  0  0  0  0  0  0  0  0  0  0  0
   -0.8293    1.5386   -2.3669 C   0  0  0  0  0  0  0  0  0  0  0  0
    0.2099    2.1386   -3.1465 C   0  0  0  0  0  0  0  0  0  0  0  0
    1.0349    2.6333   -3.7980 N   0  0  0  0  0  0  0  0  0  0  0  0
   -0.5773    0.9223   -1.1284 C   0  0  0  0  0  0  0  0  0  0  0  0
    0.7435    0.9222   -0.6693 N   0  0  0  0  0  0  0  0  0  0  0  0
    1.0876    1.7881    0.4576 C   0  0  0  0  0  0  0  0  0  0  0  0
    2.5222    1.3730    0.7770 C   0  0  0  0  0  0  0  0  0  0  0  0
    2.4848   -0.1476    0.5907 C   0  0  0  0  0  0  0  0  0  0  0  0
    1.9747   -0.7295    1.7969 O   0  0  0  0  0  0  0  0  0  0  0  0
    3.8163   -0.7727    0.3361 C   0  0  0  0  0  0  0  0  0  0  0  0
    4.4511   -1.8717    0.8835 C   0  0  0  0  0  0  0  0  0  0  0  0
    5.6810   -1.9601    0.2104 C   0  0  0  0  0  0  0  0  0  0  0  0
    5.8245   -1.0006   -0.7033 N   0  0  0  0  0  0  0  0  0  0  0  0
    4.6782   -0.3080   -0.6277 N   0  0  0  0  0  0  0  0  0  0  0  0
    1.4712   -0.3596   -0.5693 C   0  0  0  0  0  0  0  0  0  0  0  0
   -1.6801    0.3477   -0.4196 C   0  0  0  0  0  0  0  0  0  0  0  0
   -1.5673   -0.3034    0.8355 C   0  0  0  0  0  0  0  0  0  0  0  0
   -3.4050   -1.4966    3.4157 H   0  0  0  0  0  0  0  0  0  0  0  0
   -2.2566   -2.6107    2.6345 H   0  0  0  0  0  0  0  0  0  0  0  0
   -1.6863   -1.1045    3.3960 H   0  0  0  0  0  0  0  0  0  0  0  0
   -4.7864   -1.1943    1.3933 H   0  0  0  0  0  0  0  0  0  0  0  0
   -5.4517   -0.5692   -1.9247 H   0  0  0  0  0  0  0  0  0  0  0  0
   -6.1979   -0.5150   -0.3241 H   0  0  0  0  0  0  0  0  0  0  0  0
   -5.7338    0.9975   -1.1088 H   0  0  0  0  0  0  0  0  0  0  0  0
   -2.3677    2.0280   -3.7985 H   0  0  0  0  0  0  0  0  0  0  0  0
    1.0380    2.8460    0.1787 H   0  0  0  0  0  0  0  0  0  0  0  0
    0.4402    1.6269    1.3258 H   0  0  0  0  0  0  0  0  0  0  0  0
    3.2018    1.8577    0.0659 H   0  0  0  0  0  0  0  0  0  0  0  0
    2.8055    1.6814    1.7888 H   0  0  0  0  0  0  0  0  0  0  0  0
    2.6377   -0.5696    2.4911 H   0  0  0  0  0  0  0  0  0  0  0  0
    4.0743   -2.5258    1.6576 H   0  0  0  0  0  0  0  0  0  0  0  0
    6.4755   -2.6833    0.3446 H   0  0  0  0  0  0  0  0  0  0  0  0
    4.5521    0.4722   -1.2668 H   0  0  0  0  0  0  0  0  0  0  0  0
    1.9744   -0.5316   -1.5277 H   0  0  0  0  0  0  0  0  0  0  0  0
    0.8134   -1.2126   -0.3713 H   0  0  0  0  0  0  0  0  0  0  0  0
   -0.5951   -0.3991    1.3116 H   0  0  0  0  0  0  0  0  0  0  0  0
  1  2  1  0
  2  3  2  0
  3  4  1  0
  4  5  1  0
  4  6  2  0
  6  7  1  0
  7  8  2  0
  8  9  1  0
  9 10  1  0
 10 11  3  0
  9 12  2  0
 12 13  1  0
 13 14  1  0
 14 15  1  0
 15 16  1  0
 16 17  1  0
 16 18  1  0
 18 19  2  0
 19 20  1  0
 20 21  2  0
 21 22  1  0
 16 23  1  0
 12 24  1  0
 24 25  2  0
 25  2  1  0
 24  6  1  0
 23 13  1  0
 22 18  1  0
  1 26  1  0
  1 27  1  0
  1 28  1  0
  3 29  1  0
  5 30  1  0
  5 31  1  0
  5 32  1  0
  8 33  1  0
 14 34  1  0
 14 35  1  0
 15 36  1  0
 15 37  1  0
 17 38  1  0
 19 39  1  0
 20 40  1  0
 22 41  1  0
 23 42  1  0
 23 43  1  0
 25 44  1  0
M  END
$$$$
OCNT-2312317
     RDKit          3D

 38 41  0  0  0  0  0  0  0  0999 V2000
    0.5087    1.9176   -0.8989 O   0  0  0  0  0  0  0  0  0  0  0  0
   -0.3213    1.2763   -0.2605 C   0  0  0  0  0  0  0  0  0  0  0  0
   -0.1708    1.0067    1.0760 N   0  0  0  0  0  0  0  0  0  0  0  0
    1.0155    1.3476    1.8348 C   0  0  0  0  0  0  0  0  0  0  0  0
    1.8208    0.0907    2.0662 C   0  0  0  0  0  0  0  0  0  0  0  0
    1.6331   -0.6790    3.1070 N   0  0  0  0  0  0  0  0  0  0  0  0
    2.5052   -1.7111    2.9101 N   0  0  0  0  0  0  0  0  0  0  0  0
    3.1819   -1.5606    1.7041 C   0  0  0  0  0  0  0  0  0  0  0  0
    3.9655   -2.3647    1.2265 O   0  0  0  0  0  0  0  0  0  0  0  0
    2.7554   -0.3549    1.1954 N   0  0  0  0  0  0  0  0  0  0  0  0
    3.1307    0.1931   -0.0635 C   0  0  0  0  0  0  0  0  0  0  0  0
    4.5667    0.2380   -0.5248 C   0  0  0  0  0  0  0  0  0  0  0  0
    3.8616    1.5087   -0.1671 C   0  0  0  0  0  0  0  0  0  0  0  0
   -1.5520    0.7565   -0.9410 C   0  0  0  0  0  0  0  0  0  0  0  0
   -1.7493    1.1785   -2.2721 C   0  0  0  0  0  0  0  0  0  0  0  0
   -2.8578    0.7514   -2.9900 C   0  0  0  0  0  0  0  0  0  0  0  0
   -3.7639   -0.0994   -2.3787 C   0  0  0  0  0  0  0  0  0  0  0  0
   -4.8312   -0.5057   -3.0839 F   0  0  0  0  0  0  0  0  0  0  0  0
   -3.5875   -0.5360   -1.0575 C   0  0  0  0  0  0  0  0  0  0  0  0
   -4.5161   -1.4015   -0.4580 C   0  0  0  0  0  0  0  0  0  0  0  0
   -4.3312   -1.8300    0.8476 C   0  0  0  0  0  0  0  0  0  0  0  0
   -3.2167   -1.3763    1.5164 C   0  0  0  0  0  0  0  0  0  0  0  0
   -2.3032   -0.5398    0.9717 N   0  0  0  0  0  0  0  0  0  0  0  0
   -2.4667   -0.1099   -0.3085 C   0  0  0  0  0  0  0  0  0  0  0  0
   -0.8550    0.3847    1.5107 H   0  0  0  0  0  0  0  0  0  0  0  0
    1.6041    2.1076    1.3183 H   0  0  0  0  0  0  0  0  0  0  0  0
    0.6857    1.7461    2.7989 H   0  0  0  0  0  0  0  0  0  0  0  0
    2.5529   -2.5188    3.5163 H   0  0  0  0  0  0  0  0  0  0  0  0
    2.3968   -0.0221   -0.8371 H   0  0  0  0  0  0  0  0  0  0  0  0
    5.3389   -0.1240    0.1441 H   0  0  0  0  0  0  0  0  0  0  0  0
    4.7640    0.0381   -1.5716 H   0  0  0  0  0  0  0  0  0  0  0  0
    4.1664    2.0126    0.7423 H   0  0  0  0  0  0  0  0  0  0  0  0
    3.5653    2.1774   -0.9678 H   0  0  0  0  0  0  0  0  0  0  0  0
   -1.0337    1.8473   -2.7485 H   0  0  0  0  0  0  0  0  0  0  0  0
   -3.0197    1.0746   -4.0133 H   0  0  0  0  0  0  0  0  0  0  0  0
   -5.3880   -1.7434   -1.0133 H   0  0  0  0  0  0  0  0  0  0  0  0
   -5.0385   -2.4981    1.3265 H   0  0  0  0  0  0  0  0  0  0  0  0
   -3.0167   -1.6780    2.5414 H   0  0  0  0  0  0  0  0  0  0  0  0
  1  2  2  0
  2  3  1  0
  3  4  1  0
  4  5  1  0
  5  6  2  0
  6  7  1  0
  7  8  1  0
  8  9  2  0
  8 10  1  0
 10 11  1  0
 11 12  1  0
 12 13  1  0
  2 14  1  0
 14 15  1  0
 15 16  2  0
 16 17  1  0
 17 18  1  0
 17 19  2  0
 19 20  1  0
 20 21  2  0
 21 22  1  0
 22 23  2  0
 23 24  1  0
 10  5  1  0
 13 11  1  0
 24 14  2  0
 24 19  1  0
  3 25  1  0
  4 26  1  0
  4 27  1  0
  7 28  1  0
 11 29  1  0
 12 30  1  0
 12 31  1  0
 13 32  1  0
 13 33  1  0
 15 34  1  0
 16 35  1  0
 20 36  1  0
 21 37  1  0
 22 38  1  0
M  END
$$$$
OCNT-2312333
     RDKit          3D

  0  0  0  0  0  0  0  0  0  0999 V3000
M  V30 BEGIN CTAB
M  V30 COUNTS 45 48 0 0 0
M  V30 BEGIN ATOM
M  V30 1 C -4.233114 3.254614 -1.408883 0
M  V30 2 N -4.134191 1.902206 -0.917610 0
M  V30 3 C -2.995098 1.165732 -0.763078 0
M  V30 4 C -3.414297 -0.042589 -0.269042 0
M  V30 5 C -2.518621 -1.245682 0.069266 0 CFG=2
M  V30 6 C -2.757412 -2.056965 1.312014 0
M  V30 7 C -1.583117 -1.125865 1.251488 0 CFG=1
M  V30 8 N -0.242144 -1.615540 1.157485 0
M  V30 9 C 0.503294 -1.906138 2.283434 0
M  V30 10 O 0.053862 -1.923200 3.425154 0
M  V30 11 C 1.965964 -2.168740 1.993711 0
M  V30 12 C 2.792696 -0.886250 2.088930 0
M  V30 13 C 2.465190 0.121681 1.001710 0
M  V30 14 C 1.631989 1.202086 1.348126 0
M  V30 15 C 1.230632 2.128629 0.394013 0
M  V30 16 C 1.653005 1.990523 -0.924215 0
M  V30 17 C 2.489162 0.931335 -1.305128 0
M  V30 18 C 2.902116 0.811775 -2.642507 0
M  V30 19 C 3.734256 -0.229549 -3.047424 0
M  V30 20 C 4.168935 -1.162787 -2.117407 0
M  V30 21 C 3.766441 -1.057726 -0.783398 0
M  V30 22 C 2.915629 -0.018532 -0.341400 0
M  V30 23 C -4.809081 0.047018 -0.164509 0
M  V30 24 N -5.255497 1.244412 -0.557245 0
M  V30 25 H -4.660920 3.877166 -0.619259 0
M  V30 26 H -4.877559 3.254337 -2.290867 0
M  V30 27 H -3.237555 3.618989 -1.674246 0
M  V30 28 H -2.016680 1.552147 -1.011187 0
M  V30 29 H -2.164799 -1.791926 -0.799391 0
M  V30 30 H -3.567926 -1.786219 1.978405 0
M  V30 31 H -2.564004 -3.122154 1.270778 0
M  V30 32 H -1.654605 -0.223184 1.855303 0
M  V30 33 H 0.266554 -1.398165 0.304971 0
M  V30 34 H 2.322852 -2.897696 2.731584 0
M  V30 35 H 2.063969 -2.646286 1.012019 0
M  V30 36 H 2.639960 -0.426263 3.074305 0
M  V30 37 H 3.861534 -1.125327 2.049357 0
M  V30 38 H 1.276860 1.316908 2.372116 0
M  V30 39 H 0.585051 2.955184 0.677722 0
M  V30 40 H 1.326108 2.724410 -1.657499 0
M  V30 41 H 2.576578 1.536281 -3.386085 0
M  V30 42 H 4.045838 -0.306103 -4.086413 0
M  V30 43 H 4.825558 -1.972327 -2.425089 0
M  V30 44 H 4.140739 -1.805164 -0.088685 0
M  V30 45 H -5.518152 -0.695058 0.178690 0
M  V30 END ATOM
M  V30 BEGIN BOND
M  V30 1 1 1 2
M  V30 2 1 2 3
M  V30 3 2 3 4
M  V30 4 1 4 5
M  V30 5 1 5 6
M  V30 6 1 6 7
M  V30 7 1 7 8
M  V30 8 1 8 9
M  V30 9 2 9 10
M  V30 10 1 9 11
M  V30 11 1 11 12
M  V30 12 1 12 13
M  V30 13 2 13 14
M  V30 14 1 14 15
M  V30 15 2 15 16
M  V30 16 1 16 17
M  V30 17 2 17 18
M  V30 18 1 18 19
M  V30 19 2 19 20
M  V30 20 1 20 21
M  V30 21 2 21 22
M  V30 22 1 4 23
M  V30 23 2 23 24
M  V30 24 1 24 2
M  V30 25 1 7 5
M  V30 26 1 22 13
M  V30 27 1 22 17
M  V30 28 1 1 25
M  V30 29 1 1 26
M  V30 30 1 1 27
M  V30 31 1 3 28
M  V30 32 1 5 29 CFG=3
M  V30 33 1 6 30
M  V30 34 1 6 31
M  V30 35 1 7 32 CFG=1
M  V30 36 1 8 33
M  V30 37 1 11 34
M  V30 38 1 11 35
M  V30 39 1 12 36
M  V30 40 1 12 37
M  V30 41 1 14 38
M  V30 42 1 15 39
M  V30 43 1 16 40
M  V30 44 1 18 41
M  V30 45 1 19 42
M  V30 46 1 20 43
M  V30 47 1 21 44
M  V30 48 1 23 45
M  V30 END BOND
M  V30 BEGIN COLLECTION
M  V30 MDLV30/STERAC1 ATOMS=(2 5 7)
M  V30 END COLLECTION
M  V30 END CTAB
M  END
>  <_CXSMILES_Data>  (585) 
|&1:4,6|

$$$$
OCNT-2312337
     RDKit          3D

 38 40  0  0  0  0  0  0  0  0999 V2000
   -1.8289   -1.1957   -1.6406 O   0  0  0  0  0  0  0  0  0  0  0  0
   -1.9721   -1.1603   -0.4187 C   0  0  0  0  0  0  0  0  0  0  0  0
   -1.0108   -0.6176    0.4295 N   0  0  0  0  0  0  0  0  0  0  0  0
    0.2901   -0.2172   -0.0791 C   0  0  0  0  0  0  0  0  0  0  0  0
    1.0145    0.7198    0.8871 C   0  0  0  0  0  0  0  0  0  0  0  0
    2.3691    1.1133    0.3928 C   0  0  0  0  0  0  0  0  0  0  0  0
    2.6793    2.2583   -0.3152 C   0  0  0  0  0  0  0  0  0  0  0  0
    4.0205    2.2484   -0.5851 N   0  0  0  0  0  0  0  0  0  0  0  0
    4.6025    1.1155   -0.0652 C   0  0  0  0  0  0  0  0  0  0  0  0
    5.9326    0.6808   -0.0936 C   0  0  0  0  0  0  0  0  0  0  0  0
    7.1562    1.6078   -0.8657 Cl  0  0  0  0  0  0  0  0  0  0  0  0
    6.2470   -0.5316    0.5237 C   0  0  0  0  0  0  0  0  0  0  0  0
    5.2572   -1.2853    1.1506 C   0  0  0  0  0  0  0  0  0  0  0  0
    3.9291   -0.8407    1.1736 C   0  0  0  0  0  0  0  0  0  0  0  0
    3.5902    0.3821    0.5559 C   0  0  0  0  0  0  0  0  0  0  0  0
   -3.2346   -1.7043    0.3145 C   0  0  0  0  0  0  0  0  0  0  0  0
   -2.9969   -1.7243    1.6719 F   0  0  0  0  0  0  0  0  0  0  0  0
   -3.4313   -3.0223   -0.0054 F   0  0  0  0  0  0  0  0  0  0  0  0
   -4.4431   -0.8668   -0.0205 C   0  0  0  0  0  0  0  0  0  0  0  0
   -5.0735   -1.0064   -1.2518 C   0  0  0  0  0  0  0  0  0  0  0  0
   -6.1575   -0.2908   -1.6302 N   0  0  0  0  0  0  0  0  0  0  0  0
   -6.6366    0.6088   -0.7454 C   0  0  0  0  0  0  0  0  0  0  0  0
   -6.0813    0.8270    0.5038 C   0  0  0  0  0  0  0  0  0  0  0  0
   -4.9672    0.0771    0.8698 C   0  0  0  0  0  0  0  0  0  0  0  0
   -1.0864   -0.8831    1.4078 H   0  0  0  0  0  0  0  0  0  0  0  0
    0.1585    0.2634   -1.0559 H   0  0  0  0  0  0  0  0  0  0  0  0
    0.8680   -1.1343   -0.2434 H   0  0  0  0  0  0  0  0  0  0  0  0
    1.1083    0.2402    1.8697 H   0  0  0  0  0  0  0  0  0  0  0  0
    0.4059    1.6189    1.0495 H   0  0  0  0  0  0  0  0  0  0  0  0
    2.0581    3.0781   -0.6524 H   0  0  0  0  0  0  0  0  0  0  0  0
    4.5253    2.9623   -1.0940 H   0  0  0  0  0  0  0  0  0  0  0  0
    7.2719   -0.8944    0.5167 H   0  0  0  0  0  0  0  0  0  0  0  0
    5.5165   -2.2281    1.6266 H   0  0  0  0  0  0  0  0  0  0  0  0
    3.1683   -1.4394    1.6661 H   0  0  0  0  0  0  0  0  0  0  0  0
   -4.7164   -1.7167   -1.9955 H   0  0  0  0  0  0  0  0  0  0  0  0
   -7.5069    1.1672   -1.0783 H   0  0  0  0  0  0  0  0  0  0  0  0
   -6.5085    1.5625    1.1765 H   0  0  0  0  0  0  0  0  0  0  0  0
   -4.5173    0.2276    1.8487 H   0  0  0  0  0  0  0  0  0  0  0  0
  1  2  2  0
  2  3  1  0
  3  4  1  0
  4  5  1  0
  5  6  1  0
  6  7  2  0
  7  8  1  0
  8  9  1  0
  9 10  2  0
 10 11  1  0
 10 12  1  0
 12 13  2  0
 13 14  1  0
 14 15  2  0
  2 16  1  0
 16 17  1  0
 16 18  1  0
 16 19  1  0
 19 20  2  0
 20 21  1  0
 21 22  2  0
 22 23  1  0
 23 24  2  0
 15  6  1  0
 24 19  1  0
 15  9  1  0
  3 25  1  0
  4 26  1  0
  4 27  1  0
  5 28  1  0
  5 29  1  0
  7 30  1  0
  8 31  1  0
 12 32  1  0
 13 33  1  0
 14 34  1  0
 20 35  1  0
 22 36  1  0
 23 37  1  0
 24 38  1  0
M  END
$$$$
OCNT-2312338
     RDKit          3D

 54 57  0  0  0  0  0  0  0  0999 V2000
    0.8867   -0.5452   -1.7617 O   0  0  0  0  0  0  0  0  0  0  0  0
    0.4461    0.3541   -1.0521 C   0  0  0  0  0  0  0  0  0  0  0  0
    1.2601    1.1640   -0.2994 N   0  0  0  0  0  0  0  0  0  0  0  0
    2.7078    1.0190   -0.3402 C   0  0  0  0  0  0  0  0  0  0  0  0
    3.2615    0.1648    0.8208 C   0  0  0  0  0  0  0  0  0  0  0  0
    2.8365   -1.3058    0.7709 C   0  0  0  0  0  0  0  0  0  0  0  0
    3.6045   -2.0279   -0.3237 C   0  0  0  0  0  0  0  0  0  0  0  0
    5.0151   -2.0284   -0.0844 O   0  0  0  0  0  0  0  0  0  0  0  0
    5.5406   -0.8502    0.3723 C   0  0  0  0  0  0  0  0  0  0  0  0
    6.9346   -0.7833    0.3972 C   0  0  0  0  0  0  0  0  0  0  0  0
    7.5766    0.3602    0.8707 C   0  0  0  0  0  0  0  0  0  0  0  0
    6.8237    1.4380    1.3298 C   0  0  0  0  0  0  0  0  0  0  0  0
    5.4297    1.3720    1.3147 C   0  0  0  0  0  0  0  0  0  0  0  0
    4.7738    0.2265    0.8344 C   0  0  0  0  0  0  0  0  0  0  0  0
   -0.9132    0.6450   -0.9388 N   0  0  0  0  0  0  0  0  0  0  0  0
   -1.8053   -0.1979   -1.7330 C   0  0  0  0  0  0  0  0  0  0  0  0
   -3.1672    0.4516   -1.9608 C   0  0  0  0  0  0  0  0  0  0  0  0
   -3.8335    0.8997   -0.6492 C   0  0  0  0  0  0  0  0  0  0  0  0
   -4.3177   -0.2825    0.2200 C   0  0  0  0  0  0  0  0  0  0  0  0
   -5.3035   -1.2142   -0.4804 C   0  0  0  0  0  0  0  0  0  0  0  0
   -6.0134   -1.8729    0.6841 C   0  0  0  0  0  0  0  0  0  0  0  0
   -6.2190   -0.7686    1.6153 N   0  0  0  0  0  0  0  0  0  0  0  0
   -5.0784    0.1406    1.4850 C   0  0  0  0  0  0  0  0  0  0  0  0
   -2.8481    1.8189    0.0943 C   0  0  0  0  0  0  0  0  0  0  0  0
   -1.4804    1.1723    0.3056 C   0  0  0  0  0  0  0  0  0  0  0  0
    0.9235    2.1136   -0.2443 H   0  0  0  0  0  0  0  0  0  0  0  0
    3.0181    0.6344   -1.3180 H   0  0  0  0  0  0  0  0  0  0  0  0
    3.1057    2.0389   -0.2705 H   0  0  0  0  0  0  0  0  0  0  0  0
    2.8855    0.5784    1.7669 H   0  0  0  0  0  0  0  0  0  0  0  0
    3.0778   -1.7744    1.7350 H   0  0  0  0  0  0  0  0  0  0  0  0
    1.7575   -1.4143    0.6320 H   0  0  0  0  0  0  0  0  0  0  0  0
    3.4158   -1.6088   -1.3176 H   0  0  0  0  0  0  0  0  0  0  0  0
    3.2872   -3.0758   -0.3561 H   0  0  0  0  0  0  0  0  0  0  0  0
    7.5205   -1.6285    0.0459 H   0  0  0  0  0  0  0  0  0  0  0  0
    8.6621    0.4059    0.8850 H   0  0  0  0  0  0  0  0  0  0  0  0
    7.3225    2.3283    1.7040 H   0  0  0  0  0  0  0  0  0  0  0  0
    4.8569    2.2188    1.6858 H   0  0  0  0  0  0  0  0  0  0  0  0
   -1.9069   -1.1599   -1.2170 H   0  0  0  0  0  0  0  0  0  0  0  0
   -1.3447   -0.4031   -2.7066 H   0  0  0  0  0  0  0  0  0  0  0  0
   -3.8153   -0.2294   -2.5224 H   0  0  0  0  0  0  0  0  0  0  0  0
   -3.0288    1.3357   -2.5978 H   0  0  0  0  0  0  0  0  0  0  0  0
   -4.7142    1.5005   -0.9145 H   0  0  0  0  0  0  0  0  0  0  0  0
   -3.4599   -0.8914    0.5351 H   0  0  0  0  0  0  0  0  0  0  0  0
   -4.8018   -1.9486   -1.1179 H   0  0  0  0  0  0  0  0  0  0  0  0
   -6.0147   -0.6483   -1.0949 H   0  0  0  0  0  0  0  0  0  0  0  0
   -6.9608   -2.3298    0.3853 H   0  0  0  0  0  0  0  0  0  0  0  0
   -5.3802   -2.6430    1.1401 H   0  0  0  0  0  0  0  0  0  0  0  0
   -6.3155   -1.1081    2.5706 H   0  0  0  0  0  0  0  0  0  0  0  0
   -5.4541    1.1669    1.4221 H   0  0  0  0  0  0  0  0  0  0  0  0
   -4.4244    0.0730    2.3616 H   0  0  0  0  0  0  0  0  0  0  0  0
   -3.2570    2.1392    1.0585 H   0  0  0  0  0  0  0  0  0  0  0  0
   -2.7118    2.7322   -0.5004 H   0  0  0  0  0  0  0  0  0  0  0  0
   -0.8142    1.9102    0.7606 H   0  0  0  0  0  0  0  0  0  0  0  0
   -1.5460    0.3373    1.0131 H   0  0  0  0  0  0  0  0  0  0  0  0
  1  2  2  0
  2  3  1  0
  3  4  1  0
  4  5  1  0
  5  6  1  0
  6  7  1  0
  7  8  1  0
  8  9  1  0
  9 10  2  0
 10 11  1  0
 11 12  2  0
 12 13  1  0
 13 14  2  0
  2 15  1  0
 15 16  1  0
 16 17  1  0
 17 18  1  0
 18 19  1  0
 19 20  1  0
 20 21  1  0
 21 22  1  0
 22 23  1  0
 18 24  1  0
 24 25  1  0
 14  5  1  0
 25 15  1  0
 14  9  1  0
 23 19  1  0
  3 26  1  0
  4 27  1  0
  4 28  1  0
  5 29  1  0
  6 30  1  0
  6 31  1  0
  7 32  1  0
  7 33  1  0
 10 34  1  0
 11 35  1  0
 12 36  1  0
 13 37  1  0
 16 38  1  0
 16 39  1  0
 17 40  1  0
 17 41  1  0
 18 42  1  0
 19 43  1  0
 20 44  1  0
 20 45  1  0
 21 46  1  0
 21 47  1  0
 22 48  1  0
 23 49  1  0
 23 50  1  0
 24 51  1  0
 24 52  1  0
 25 53  1  0
 25 54  1  0
M  END
$$$$
OCNT-2312342
     RDKit          3D

 31 33  0  0  0  0  0  0  0  0999 V2000
   -1.3678   -1.8514    0.8744 O   0  0  0  0  0  0  0  0  0  0  0  0
   -1.1805   -0.7484    0.3720 C   0  0  0  0  0  0  0  0  0  0  0  0
   -2.1951    0.1721    0.1521 N   0  0  0  0  0  0  0  0  0  0  0  0
   -3.5852   -0.0551    0.2927 C   0  0  0  0  0  0  0  0  0  0  0  0
   -4.3900    1.0725    0.5050 C   0  0  0  0  0  0  0  0  0  0  0  0
   -3.8165    2.2853    0.5660 F   0  0  0  0  0  0  0  0  0  0  0  0
   -5.7673    0.9744    0.6678 C   0  0  0  0  0  0  0  0  0  0  0  0
   -6.3591   -0.2778    0.5992 C   0  0  0  0  0  0  0  0  0  0  0  0
   -7.6848   -0.3884    0.7486 F   0  0  0  0  0  0  0  0  0  0  0  0
   -5.6005   -1.4147    0.3557 C   0  0  0  0  0  0  0  0  0  0  0  0
   -4.2204   -1.2977    0.1939 C   0  0  0  0  0  0  0  0  0  0  0  0
   -3.5498   -2.4040   -0.1505 F   0  0  0  0  0  0  0  0  0  0  0  0
    0.1419   -0.2525    0.0259 C   0  0  0  0  0  0  0  0  0  0  0  0
    0.5269    0.7910   -0.7913 C   0  0  0  0  0  0  0  0  0  0  0  0
    1.8864    1.0080   -0.8987 N   0  0  0  0  0  0  0  0  0  0  0  0
    2.5500    0.1147   -0.1818 C   0  0  0  0  0  0  0  0  0  0  0  0
    4.0219    0.0527   -0.0774 C   0  0  0  0  0  0  0  0  0  0  0  0
    4.8180    0.9445   -0.7945 C   0  0  0  0  0  0  0  0  0  0  0  0
    6.2035    0.8624   -0.6746 C   0  0  0  0  0  0  0  0  0  0  0  0
    6.7572   -0.1039    0.1554 C   0  0  0  0  0  0  0  0  0  0  0  0
    5.8992   -0.9516    0.8346 C   0  0  0  0  0  0  0  0  0  0  0  0
    4.5528   -0.8948    0.7384 N   0  0  0  0  0  0  0  0  0  0  0  0
    1.5460   -1.0162    0.6487 S   0  0  0  0  0  0  0  0  0  0  0  0
   -1.9251    1.1483    0.1058 H   0  0  0  0  0  0  0  0  0  0  0  0
   -6.3679    1.8593    0.8440 H   0  0  0  0  0  0  0  0  0  0  0  0
   -6.0768   -2.3856    0.2719 H   0  0  0  0  0  0  0  0  0  0  0  0
   -0.1403    1.4360   -1.3503 H   0  0  0  0  0  0  0  0  0  0  0  0
    4.3671    1.6932   -1.4390 H   0  0  0  0  0  0  0  0  0  0  0  0
    6.8421    1.5471   -1.2254 H   0  0  0  0  0  0  0  0  0  0  0  0
    7.8315   -0.1953    0.2706 H   0  0  0  0  0  0  0  0  0  0  0  0
    6.2827   -1.7240    1.4956 H   0  0  0  0  0  0  0  0  0  0  0  0
  1  2  2  0
  2  3  1  0
  3  4  1  0
  4  5  2  0
  5  6  1  0
  5  7  1  0
  7  8  2  0
  8  9  1  0
  8 10  1  0
 10 11  2  0
 11 12  1  0
  2 13  1  0
 13 14  2  0
 14 15  1  0
 15 16  2  0
 16 17  1  0
 17 18  2  0
 18 19  1  0
 19 20  2  0
 20 21  1  0
 21 22  2  0
 16 23  1  0
 11  4  1  0
 23 13  1  0
 22 17  1  0
  3 24  1  0
  7 25  1  0
 10 26  1  0
 14 27  1  0
 18 28  1  0
 19 29  1  0
 20 30  1  0
 21 31  1  0
M  END
$$$$
OCNT-2312352
     RDKit          3D

 44 46  0  0  0  0  0  0  0  0999 V2000
   -0.2924   -1.3764   -1.4872 C   0  0  0  0  0  0  0  0  0  0  0  0
    0.0651    0.0574   -1.0436 C   0  0  0  0  0  0  0  0  0  0  0  0
   -0.4253    1.0318   -2.1341 C   0  0  0  0  0  0  0  0  0  0  0  0
   -0.6259    0.3811    0.3133 C   0  0  0  0  0  0  0  0  0  0  0  0
   -2.0789    0.2866    0.2864 N   0  0  0  0  0  0  0  0  0  0  0  0
   -2.8950    1.3888    0.1673 C   0  0  0  0  0  0  0  0  0  0  0  0
   -2.4605    2.5337    0.0890 O   0  0  0  0  0  0  0  0  0  0  0  0
   -4.3655    1.1562    0.1362 C   0  0  0  0  0  0  0  0  0  0  0  0
   -5.2125    2.2746    0.1511 C   0  0  0  0  0  0  0  0  0  0  0  0
   -6.5966    2.1033    0.1192 C   0  0  0  0  0  0  0  0  0  0  0  0
   -7.6273    3.4786    0.1411 Cl  0  0  0  0  0  0  0  0  0  0  0  0
   -7.1543    0.8249    0.0696 C   0  0  0  0  0  0  0  0  0  0  0  0
   -6.3191   -0.2898    0.0513 C   0  0  0  0  0  0  0  0  0  0  0  0
   -4.9350   -0.1194    0.0846 C   0  0  0  0  0  0  0  0  0  0  0  0
   -4.1697   -1.2194    0.0598 F   0  0  0  0  0  0  0  0  0  0  0  0
    1.5648    0.1544   -0.8569 C   0  0  0  0  0  0  0  0  0  0  0  0
    2.5043    0.9142   -1.5177 C   0  0  0  0  0  0  0  0  0  0  0  0
    3.7277    0.6453   -0.9877 O   0  0  0  0  0  0  0  0  0  0  0  0
    3.4785   -0.2749   -0.0066 C   0  0  0  0  0  0  0  0  0  0  0  0
    4.6254   -0.7437    0.7655 C   0  0  0  0  0  0  0  0  0  0  0  0
    4.4255   -1.6363    1.8299 C   0  0  0  0  0  0  0  0  0  0  0  0
    5.5019   -2.0905    2.5964 C   0  0  0  0  0  0  0  0  0  0  0  0
    6.7940   -1.6582    2.3066 C   0  0  0  0  0  0  0  0  0  0  0  0
    7.0114   -0.7773    1.2492 C   0  0  0  0  0  0  0  0  0  0  0  0
    5.9337   -0.3223    0.4845 C   0  0  0  0  0  0  0  0  0  0  0  0
    2.2028   -0.5968    0.1098 N   0  0  0  0  0  0  0  0  0  0  0  0
   -1.3658   -1.4828   -1.6801 H   0  0  0  0  0  0  0  0  0  0  0  0
    0.2379   -1.6500   -2.4096 H   0  0  0  0  0  0  0  0  0  0  0  0
   -0.0155   -2.1136   -0.7237 H   0  0  0  0  0  0  0  0  0  0  0  0
   -1.4979    0.9213   -2.3248 H   0  0  0  0  0  0  0  0  0  0  0  0
   -0.2420    2.0718   -1.8467 H   0  0  0  0  0  0  0  0  0  0  0  0
    0.0881    0.8564   -3.0871 H   0  0  0  0  0  0  0  0  0  0  0  0
   -0.2949   -0.3191    1.0895 H   0  0  0  0  0  0  0  0  0  0  0  0
   -0.3389    1.3860    0.6495 H   0  0  0  0  0  0  0  0  0  0  0  0
   -2.4906   -0.6381    0.3480 H   0  0  0  0  0  0  0  0  0  0  0  0
   -4.7900    3.2783    0.1887 H   0  0  0  0  0  0  0  0  0  0  0  0
   -8.2335    0.6931    0.0438 H   0  0  0  0  0  0  0  0  0  0  0  0
   -6.7376   -1.2916    0.0096 H   0  0  0  0  0  0  0  0  0  0  0  0
    2.4796    1.6322   -2.3235 H   0  0  0  0  0  0  0  0  0  0  0  0
    3.4187   -1.9769    2.0723 H   0  0  0  0  0  0  0  0  0  0  0  0
    5.3279   -2.7744    3.4239 H   0  0  0  0  0  0  0  0  0  0  0  0
    7.6318   -2.0086    2.9057 H   0  0  0  0  0  0  0  0  0  0  0  0
    8.0184   -0.4412    1.0215 H   0  0  0  0  0  0  0  0  0  0  0  0
    6.1269    0.3686   -0.3339 H   0  0  0  0  0  0  0  0  0  0  0  0
  1  2  1  0
  2  3  1  0
  2  4  1  0
  4  5  1  0
  5  6  1  0
  6  7  2  0
  6  8  1  0
  8  9  1  0
  9 10  2  0
 10 11  1  0
 10 12  1  0
 12 13  2  0
 13 14  1  0
 14 15  1  0
  2 16  1  0
 16 17  2  0
 17 18  1  0
 18 19  1  0
 19 20  1  0
 20 21  2  0
 21 22  1  0
 22 23  2  0
 23 24  1  0
 24 25  2  0
 19 26  2  0
 14  8  2  0
 26 16  1  0
 25 20  1  0
  1 27  1  0
  1 28  1  0
  1 29  1  0
  3 30  1  0
  3 31  1  0
  3 32  1  0
  4 33  1  0
  4 34  1  0
  5 35  1  0
  9 36  1  0
 12 37  1  0
 13 38  1  0
 17 39  1  0
 21 40  1  0
 22 41  1  0
 23 42  1  0
 24 43  1  0
 25 44  1  0
M  END
$$$$
OCNT-2312354
     RDKit          3D

 41 43  0  0  0  0  0  0  0  0999 V2000
   -8.0528   -2.3388    0.3566 C   0  0  0  0  0  0  0  0  0  0  0  0
   -7.3031   -1.1188   -0.0465 C   0  0  0  0  0  0  0  0  0  0  0  0
   -5.9934   -1.0481   -0.1380 N   0  0  0  0  0  0  0  0  0  0  0  0
   -5.6136    0.2221   -0.5358 C   0  0  0  0  0  0  0  0  0  0  0  0
   -4.0983    0.5969   -0.7282 C   0  0  0  0  0  0  0  0  0  0  0  0
   -3.6263    1.8307   -1.1225 C   0  0  0  0  0  0  0  0  0  0  0  0
   -2.2018    1.8584   -1.2025 C   0  0  0  0  0  0  0  0  0  0  0  0
   -1.6350    0.6459   -0.8657 C   0  0  0  0  0  0  0  0  0  0  0  0
   -0.1796    0.2845   -0.8247 C   0  0  0  0  0  0  0  0  0  0  0  0
    0.4271    0.5499    0.5554 C   0  0  0  0  0  0  0  0  0  0  0  0
    1.8381    0.2218    0.6084 N   0  0  0  0  0  0  0  0  0  0  0  0
    2.8083    1.0503    0.1065 C   0  0  0  0  0  0  0  0  0  0  0  0
    2.5463    2.1369   -0.4052 O   0  0  0  0  0  0  0  0  0  0  0  0
    4.2127    0.5496    0.2141 C   0  0  0  0  0  0  0  0  0  0  0  0
    5.1961    1.3603   -0.2193 C   0  0  0  0  0  0  0  0  0  0  0  0
    6.5803    0.9689   -0.1549 C   0  0  0  0  0  0  0  0  0  0  0  0
    6.9127   -0.2269    0.3402 C   0  0  0  0  0  0  0  0  0  0  0  0
    5.9465   -1.1051    0.7948 N   0  0  0  0  0  0  0  0  0  0  0  0
    6.3784   -2.3880    1.3298 C   0  0  0  0  0  0  0  0  0  0  0  0
    4.5826   -0.7930    0.7735 C   0  0  0  0  0  0  0  0  0  0  0  0
    3.7079   -1.5575    1.1836 O   0  0  0  0  0  0  0  0  0  0  0  0
   -2.8288   -0.5135   -0.4633 S   0  0  0  0  0  0  0  0  0  0  0  0
   -6.6547    1.1040   -0.7401 C   0  0  0  0  0  0  0  0  0  0  0  0
   -8.1506    0.3266   -0.4271 S   0  0  0  0  0  0  0  0  0  0  0  0
   -8.5996   -2.1673    1.2892 H   0  0  0  0  0  0  0  0  0  0  0  0
   -8.7652   -2.6349   -0.4200 H   0  0  0  0  0  0  0  0  0  0  0  0
   -7.3646   -3.1747    0.5179 H   0  0  0  0  0  0  0  0  0  0  0  0
   -4.2546    2.6828   -1.3455 H   0  0  0  0  0  0  0  0  0  0  0  0
   -1.6212    2.7273   -1.4917 H   0  0  0  0  0  0  0  0  0  0  0  0
   -0.0359   -0.7688   -1.0979 H   0  0  0  0  0  0  0  0  0  0  0  0
    0.3545    0.8660   -1.5870 H   0  0  0  0  0  0  0  0  0  0  0  0
    0.3058    1.6044    0.8312 H   0  0  0  0  0  0  0  0  0  0  0  0
   -0.0700   -0.0533    1.3230 H   0  0  0  0  0  0  0  0  0  0  0  0
    2.1174   -0.6861    0.9828 H   0  0  0  0  0  0  0  0  0  0  0  0
    4.9792    2.3427   -0.6320 H   0  0  0  0  0  0  0  0  0  0  0  0
    7.3347    1.6616   -0.5137 H   0  0  0  0  0  0  0  0  0  0  0  0
    7.9487   -0.5482    0.4013 H   0  0  0  0  0  0  0  0  0  0  0  0
    6.9965   -2.8990    0.5846 H   0  0  0  0  0  0  0  0  0  0  0  0
    6.9666   -2.2123    2.2359 H   0  0  0  0  0  0  0  0  0  0  0  0
    5.5316   -3.0322    1.5808 H   0  0  0  0  0  0  0  0  0  0  0  0
   -6.6228    2.1379   -1.0478 H   0  0  0  0  0  0  0  0  0  0  0  0
  1  2  1  0
  2  3  2  0
  3  4  1  0
  4  5  1  0
  5  6  2  0
  6  7  1  0
  7  8  2  0
  8  9  1  0
  9 10  1  0
 10 11  1  0
 11 12  1  0
 12 13  2  0
 12 14  1  0
 14 15  2  0
 15 16  1  0
 16 17  2  0
 17 18  1  0
 18 19  1  0
 18 20  1  0
 20 21  2  0
  8 22  1  0
  4 23  2  0
 23 24  1  0
 24  2  1  0
 22  5  1  0
 20 14  1  0
  1 25  1  0
  1 26  1  0
  1 27  1  0
  6 28  1  0
  7 29  1  0
  9 30  1  0
  9 31  1  0
 10 32  1  0
 10 33  1  0
 11 34  1  0
 15 35  1  0
 16 36  1  0
 17 37  1  0
 19 38  1  0
 19 39  1  0
 19 40  1  0
 23 41  1  0
M  END
$$$$
OCNT-2312355
     RDKit          3D

 40 42  0  0  0  0  0  0  0  0999 V2000
    1.0701   -2.1765    1.5982 C   0  0  0  0  0  0  0  0  0  0  0  0
    1.3818   -1.0456    0.6883 C   0  0  0  0  0  0  0  0  0  0  0  0
    2.4685   -0.2957    0.8965 N   0  0  0  0  0  0  0  0  0  0  0  0
    2.4455    0.6457   -0.0802 N   0  0  0  0  0  0  0  0  0  0  0  0
    3.4671    1.6345   -0.1660 C   0  0  0  0  0  0  0  0  0  0  0  0
    4.5042    1.6371    0.7800 C   0  0  0  0  0  0  0  0  0  0  0  0
    5.5170    2.5965    0.7149 C   0  0  0  0  0  0  0  0  0  0  0  0
    5.5027    3.5589   -0.2920 C   0  0  0  0  0  0  0  0  0  0  0  0
    4.4764    3.5642   -1.2352 C   0  0  0  0  0  0  0  0  0  0  0  0
    3.4591    2.6062   -1.1767 C   0  0  0  0  0  0  0  0  0  0  0  0
    1.3506    0.4814   -0.9008 C   0  0  0  0  0  0  0  0  0  0  0  0
    0.6390   -0.6066   -0.4365 C   0  0  0  0  0  0  0  0  0  0  0  0
   -0.6172   -1.1832   -0.9904 C   0  0  0  0  0  0  0  0  0  0  0  0
   -1.7009   -0.8242   -0.0881 N   0  0  0  0  0  0  0  0  0  0  0  0
   -3.0023   -1.3482   -0.5298 C   0  0  0  0  0  0  0  0  0  0  0  0
   -3.6092   -0.4904   -1.6448 C   0  0  0  0  0  0  0  0  0  0  0  0
   -3.9363   -1.4073    0.6544 C   0  0  0  0  0  0  0  0  0  0  0  0
   -3.8726   -0.7746    1.8820 C   0  0  0  0  0  0  0  0  0  0  0  0
   -4.9749   -1.1955    2.5701 N   0  0  0  0  0  0  0  0  0  0  0  0
   -5.6700   -2.0417    1.7563 C   0  0  0  0  0  0  0  0  0  0  0  0
   -5.0751   -2.1892    0.5959 N   0  0  0  0  0  0  0  0  0  0  0  0
    1.9116   -2.4013    2.2619 H   0  0  0  0  0  0  0  0  0  0  0  0
    0.2022   -1.9352    2.2201 H   0  0  0  0  0  0  0  0  0  0  0  0
    0.8451   -3.0820    1.0259 H   0  0  0  0  0  0  0  0  0  0  0  0
    4.5359    0.8948    1.5757 H   0  0  0  0  0  0  0  0  0  0  0  0
    6.3158    2.5899    1.4521 H   0  0  0  0  0  0  0  0  0  0  0  0
    6.2922    4.3045   -0.3415 H   0  0  0  0  0  0  0  0  0  0  0  0
    4.4690    4.3153   -2.0213 H   0  0  0  0  0  0  0  0  0  0  0  0
    2.6826    2.6474   -1.9333 H   0  0  0  0  0  0  0  0  0  0  0  0
    1.1586    1.1351   -1.7371 H   0  0  0  0  0  0  0  0  0  0  0  0
   -0.7864   -0.7918   -1.9996 H   0  0  0  0  0  0  0  0  0  0  0  0
   -0.5149   -2.2720   -1.0649 H   0  0  0  0  0  0  0  0  0  0  0  0
   -1.7578    0.1883   -0.0032 H   0  0  0  0  0  0  0  0  0  0  0  0
   -2.8840   -2.3783   -0.8909 H   0  0  0  0  0  0  0  0  0  0  0  0
   -4.5928   -0.8744   -1.9394 H   0  0  0  0  0  0  0  0  0  0  0  0
   -2.9796   -0.4860   -2.5399 H   0  0  0  0  0  0  0  0  0  0  0  0
   -3.7495    0.5481   -1.3223 H   0  0  0  0  0  0  0  0  0  0  0  0
   -3.1473   -0.0978    2.3108 H   0  0  0  0  0  0  0  0  0  0  0  0
   -5.2317   -0.9336    3.5115 H   0  0  0  0  0  0  0  0  0  0  0  0
   -6.5924   -2.5170    2.0616 H   0  0  0  0  0  0  0  0  0  0  0  0
  1  2  1  0
  2  3  2  0
  3  4  1  0
  4  5  1  0
  5  6  2  0
  6  7  1  0
  7  8  2  0
  8  9  1  0
  9 10  2  0
  4 11  1  0
 11 12  2  0
 12 13  1  0
 13 14  1  0
 14 15  1  0
 15 16  1  0
 15 17  1  0
 17 18  2  0
 18 19  1  0
 19 20  1  0
 20 21  2  0
 12  2  1  0
 21 17  1  0
 10  5  1  0
  1 22  1  0
  1 23  1  0
  1 24  1  0
  6 25  1  0
  7 26  1  0
  8 27  1  0
  9 28  1  0
 10 29  1  0
 11 30  1  0
 13 31  1  0
 13 32  1  0
 14 33  1  0
 15 34  1  0
 16 35  1  0
 16 36  1  0
 16 37  1  0
 18 38  1  0
 19 39  1  0
 20 40  1  0
M  END
$$$$
OCNT-2312358
     RDKit          3D

 48 51  0  0  0  0  0  0  0  0999 V2000
   -1.0270    2.5383   -1.7912 O   0  0  0  0  0  0  0  0  0  0  0  0
   -0.7765    1.5357   -1.1172 C   0  0  0  0  0  0  0  0  0  0  0  0
   -1.8822    0.6685   -0.6460 C   0  0  0  0  0  0  0  0  0  0  0  0
   -1.7534   -0.3746    0.1962 N   0  0  0  0  0  0  0  0  0  0  0  0
   -3.0064   -0.8354    0.3457 N   0  0  0  0  0  0  0  0  0  0  0  0
   -3.9632   -0.1504   -0.3546 C   0  0  0  0  0  0  0  0  0  0  0  0
   -5.3905   -0.4981   -0.3224 C   0  0  0  0  0  0  0  0  0  0  0  0
   -6.3077    0.2601   -1.0681 C   0  0  0  0  0  0  0  0  0  0  0  0
   -7.6730   -0.0423   -1.0607 C   0  0  0  0  0  0  0  0  0  0  0  0
   -8.1481   -1.1107   -0.3062 C   0  0  0  0  0  0  0  0  0  0  0  0
   -7.2605   -1.8799    0.4430 C   0  0  0  0  0  0  0  0  0  0  0  0
   -5.8954   -1.5747    0.4336 C   0  0  0  0  0  0  0  0  0  0  0  0
   -5.0412   -2.3499    1.1820 O   0  0  0  0  0  0  0  0  0  0  0  0
   -3.2521    0.8381   -1.0053 C   0  0  0  0  0  0  0  0  0  0  0  0
    0.5357    1.2203   -0.7917 N   0  0  0  0  0  0  0  0  0  0  0  0
    1.6314    2.0688   -1.2183 C   0  0  0  0  0  0  0  0  0  0  0  0
    2.8271    1.5868   -0.4080 C   0  0  0  0  0  0  0  0  0  0  0  0
    2.5688    0.0815   -0.2866 C   0  0  0  0  0  0  0  0  0  0  0  0
    2.9425   -0.5395   -1.5283 O   0  0  0  0  0  0  0  0  0  0  0  0
    3.2935   -0.6056    0.8854 C   0  0  0  0  0  0  0  0  0  0  0  0
    4.7795   -0.3251    0.9740 C   0  0  0  0  0  0  0  0  0  0  0  0
    5.6695   -0.8616    0.0308 C   0  0  0  0  0  0  0  0  0  0  0  0
    7.0374   -0.5985    0.1181 C   0  0  0  0  0  0  0  0  0  0  0  0
    7.5175    0.1987    1.1488 C   0  0  0  0  0  0  0  0  0  0  0  0
    8.8305    0.4505    1.2326 F   0  0  0  0  0  0  0  0  0  0  0  0
    6.6555    0.7392    2.0944 C   0  0  0  0  0  0  0  0  0  0  0  0
    5.2870    0.4780    2.0084 C   0  0  0  0  0  0  0  0  0  0  0  0
    1.0322    0.0252   -0.1198 C   0  0  0  0  0  0  0  0  0  0  0  0
   -3.1738   -1.6361    0.9483 H   0  0  0  0  0  0  0  0  0  0  0  0
   -5.9726    1.1022   -1.6689 H   0  0  0  0  0  0  0  0  0  0  0  0
   -8.3629    0.5605   -1.6467 H   0  0  0  0  0  0  0  0  0  0  0  0
   -9.2101   -1.3431   -0.3027 H   0  0  0  0  0  0  0  0  0  0  0  0
   -7.6499   -2.7095    1.0254 H   0  0  0  0  0  0  0  0  0  0  0  0
   -5.5681   -3.0329    1.6329 H   0  0  0  0  0  0  0  0  0  0  0  0
   -3.6401    1.6037   -1.6631 H   0  0  0  0  0  0  0  0  0  0  0  0
    1.4032    3.1247   -1.0439 H   0  0  0  0  0  0  0  0  0  0  0  0
    1.7824    1.9130   -2.2925 H   0  0  0  0  0  0  0  0  0  0  0  0
    3.7663    1.8329   -0.9129 H   0  0  0  0  0  0  0  0  0  0  0  0
    2.8155    2.0635    0.5798 H   0  0  0  0  0  0  0  0  0  0  0  0
    2.5452   -1.4270   -1.5541 H   0  0  0  0  0  0  0  0  0  0  0  0
    2.8273   -0.3068    1.8334 H   0  0  0  0  0  0  0  0  0  0  0  0
    3.1631   -1.6937    0.8144 H   0  0  0  0  0  0  0  0  0  0  0  0
    5.3013   -1.4810   -0.7842 H   0  0  0  0  0  0  0  0  0  0  0  0
    7.7276   -1.0073   -0.6125 H   0  0  0  0  0  0  0  0  0  0  0  0
    7.0533    1.3600    2.8905 H   0  0  0  0  0  0  0  0  0  0  0  0
    4.6208    0.9077    2.7532 H   0  0  0  0  0  0  0  0  0  0  0  0
    0.6060   -0.8687   -0.5842 H   0  0  0  0  0  0  0  0  0  0  0  0
    0.7344    0.0948    0.9316 H   0  0  0  0  0  0  0  0  0  0  0  0
  1  2  2  0
  2  3  1  0
  3  4  2  0
  4  5  1  0
  5  6  1  0
  6  7  1  0
  7  8  2  0
  8  9  1  0
  9 10  2  0
 10 11  1  0
 11 12  2  0
 12 13  1  0
  6 14  2  0
  2 15  1  0
 15 16  1  0
 16 17  1  0
 17 18  1  0
 18 19  1  0
 18 20  1  0
 20 21  1  0
 21 22  1  0
 22 23  2  0
 23 24  1  0
 24 25  1  0
 24 26  2  0
 26 27  1  0
 18 28  1  0
 14  3  1  0
 28 15  1  0
 12  7  1  0
 27 21  2  0
  5 29  1  0
  8 30  1  0
  9 31  1  0
 10 32  1  0
 11 33  1  0
 13 34  1  0
 14 35  1  0
 16 36  1  0
 16 37  1  0
 17 38  1  0
 17 39  1  0
 19 40  1  0
 20 41  1  0
 20 42  1  0
 22 43  1  0
 23 44  1  0
 26 45  1  0
 27 46  1  0
 28 47  1  0
 28 48  1  0
M  END
$$$$
OCNT-2312363
     RDKit          3D

 38 40  0  0  0  0  0  0  0  0999 V2000
    2.0232   -2.2552    1.5083 C   0  0  0  0  0  0  0  0  0  0  0  0
    2.1177   -1.5860    0.1342 C   0  0  0  0  0  0  0  0  0  0  0  0
    0.8370   -1.8998   -0.6552 C   0  0  0  0  0  0  0  0  0  0  0  0
    0.8498   -2.7280   -1.5614 O   0  0  0  0  0  0  0  0  0  0  0  0
   -0.2745   -1.1881   -0.2334 N   0  0  0  0  0  0  0  0  0  0  0  0
   -1.6139   -1.3490   -0.6724 C   0  0  0  0  0  0  0  0  0  0  0  0
   -2.0336   -2.5005   -1.3436 C   0  0  0  0  0  0  0  0  0  0  0  0
   -3.3258   -2.8090   -1.6262 N   0  0  0  0  0  0  0  0  0  0  0  0
   -4.2652   -1.9412   -1.2133 C   0  0  0  0  0  0  0  0  0  0  0  0
   -3.9714   -0.7584   -0.5645 C   0  0  0  0  0  0  0  0  0  0  0  0
   -2.6249   -0.4314   -0.3272 C   0  0  0  0  0  0  0  0  0  0  0  0
   -2.3683    0.8634    0.2034 N   0  0  0  0  0  0  0  0  0  0  0  0
   -1.2447    1.6510    0.0495 C   0  0  0  0  0  0  0  0  0  0  0  0
   -1.4512    2.8051    0.7662 C   0  0  0  0  0  0  0  0  0  0  0  0
   -2.7476    2.6692    1.2782 C   0  0  0  0  0  0  0  0  0  0  0  0
   -3.3199    1.5199    0.9198 N   0  0  0  0  0  0  0  0  0  0  0  0
    2.4337   -0.0932    0.1425 C   0  0  0  0  0  0  0  0  0  0  0  0
    2.4063    0.6938    1.3048 C   0  0  0  0  0  0  0  0  0  0  0  0
    2.6805    2.0636    1.2484 C   0  0  0  0  0  0  0  0  0  0  0  0
    2.9871    2.6687    0.0313 C   0  0  0  0  0  0  0  0  0  0  0  0
    3.0233    1.9005   -1.1278 C   0  0  0  0  0  0  0  0  0  0  0  0
    3.3974    2.6435   -2.6331 Cl  0  0  0  0  0  0  0  0  0  0  0  0
    2.7517    0.5326   -1.0779 C   0  0  0  0  0  0  0  0  0  0  0  0
    1.1960   -1.8567    2.1062 H   0  0  0  0  0  0  0  0  0  0  0  0
    2.9505   -2.1238    2.0762 H   0  0  0  0  0  0  0  0  0  0  0  0
    1.8483   -3.3316    1.3984 H   0  0  0  0  0  0  0  0  0  0  0  0
    2.9468   -2.0744   -0.3976 H   0  0  0  0  0  0  0  0  0  0  0  0
   -0.1048   -0.4779    0.4679 H   0  0  0  0  0  0  0  0  0  0  0  0
   -1.3431   -3.2792   -1.6523 H   0  0  0  0  0  0  0  0  0  0  0  0
   -5.2908   -2.2207   -1.4369 H   0  0  0  0  0  0  0  0  0  0  0  0
   -4.7823   -0.0872   -0.2952 H   0  0  0  0  0  0  0  0  0  0  0  0
   -0.4245    1.3629   -0.5912 H   0  0  0  0  0  0  0  0  0  0  0  0
   -0.7768    3.6441    0.8634 H   0  0  0  0  0  0  0  0  0  0  0  0
   -3.3107    3.3683    1.8839 H   0  0  0  0  0  0  0  0  0  0  0  0
    2.1771    0.2632    2.2771 H   0  0  0  0  0  0  0  0  0  0  0  0
    2.6595    2.6592    2.1585 H   0  0  0  0  0  0  0  0  0  0  0  0
    3.2018    3.7334   -0.0057 H   0  0  0  0  0  0  0  0  0  0  0  0
    2.7863   -0.0507   -1.9977 H   0  0  0  0  0  0  0  0  0  0  0  0
  1  2  1  0
  2  3  1  0
  3  4  2  0
  3  5  1  0
  5  6  1  0
  6  7  2  0
  7  8  1  0
  8  9  2  0
  9 10  1  0
 10 11  2  0
 11 12  1  0
 12 13  1  0
 13 14  2  0
 14 15  1  0
 15 16  2  0
  2 17  1  0
 17 18  2  0
 18 19  1  0
 19 20  2  0
 20 21  1  0
 21 22  1  0
 21 23  2  0
 11  6  1  0
 16 12  1  0
 23 17  1  0
  1 24  1  0
  1 25  1  0
  1 26  1  0
  2 27  1  0
  5 28  1  0
  7 29  1  0
  9 30  1  0
 10 31  1  0
 13 32  1  0
 14 33  1  0
 15 34  1  0
 18 35  1  0
 19 36  1  0
 20 37  1  0
 23 38  1  0
M  END
$$$$
OCNT-2312364
     RDKit          3D

 35 37  0  0  0  0  0  0  0  0999 V2000
    1.3895   -2.0804    0.7236 O   0  0  0  0  0  0  0  0  0  0  0  0
    1.1930   -0.6816    0.4683 C   0  0  1  0  0  0  0  0  0  0  0  0
    0.3377   -0.0608    1.5959 C   0  0  0  0  0  0  0  0  0  0  0  0
   -0.9971   -0.6579    1.6734 N   0  0  0  0  0  0  0  0  0  0  0  0
   -1.8859   -0.3554    0.6427 C   0  0  0  0  0  0  0  0  0  0  0  0
   -1.7564    0.7957   -0.0701 N   0  0  0  0  0  0  0  0  0  0  0  0
   -2.6382    1.0941   -1.0720 C   0  0  0  0  0  0  0  0  0  0  0  0
   -2.4262    2.4229   -1.8111 C   0  0  0  0  0  0  0  0  0  0  0  0
   -3.0275    2.4706   -3.0392 F   0  0  0  0  0  0  0  0  0  0  0  0
   -1.1074    2.7004   -2.0519 F   0  0  0  0  0  0  0  0  0  0  0  0
   -2.9105    3.5015   -1.1264 F   0  0  0  0  0  0  0  0  0  0  0  0
   -3.6896    0.3196   -1.4542 N   0  0  0  0  0  0  0  0  0  0  0  0
   -3.7675   -0.8049   -0.7327 C   0  0  0  0  0  0  0  0  0  0  0  0
   -2.9411   -1.2166    0.2956 C   0  0  0  0  0  0  0  0  0  0  0  0
   -3.3423   -2.4473    0.7772 N   0  0  0  0  0  0  0  0  0  0  0  0
   -4.4004   -2.7626    0.0607 C   0  0  0  0  0  0  0  0  0  0  0  0
   -4.6952   -1.7979   -0.8639 N   0  0  0  0  0  0  0  0  0  0  0  0
    2.5366    0.0084    0.3367 C   0  0  0  0  0  0  0  0  0  0  0  0
    2.7343    0.9709   -0.6658 C   0  0  0  0  0  0  0  0  0  0  0  0
    3.9621    1.6265   -0.7879 C   0  0  0  0  0  0  0  0  0  0  0  0
    4.9980    1.3283    0.0943 C   0  0  0  0  0  0  0  0  0  0  0  0
    6.5096    2.1357   -0.0575 Cl  0  0  0  0  0  0  0  0  0  0  0  0
    4.8163    0.3826    1.1005 C   0  0  0  0  0  0  0  0  0  0  0  0
    3.5890   -0.2727    1.2236 C   0  0  0  0  0  0  0  0  0  0  0  0
    2.0804   -2.3805    0.1079 H   0  0  0  0  0  0  0  0  0  0  0  0
    0.6647   -0.6229   -0.4902 H   0  0  0  0  0  0  0  0  0  0  0  0
    0.8229   -0.2497    2.5616 H   0  0  0  0  0  0  0  0  0  0  0  0
    0.2715    1.0295    1.4918 H   0  0  0  0  0  0  0  0  0  0  0  0
   -0.9871   -1.6642    1.8473 H   0  0  0  0  0  0  0  0  0  0  0  0
   -4.9886   -3.6656    0.1635 H   0  0  0  0  0  0  0  0  0  0  0  0
   -5.4541   -1.8057   -1.5287 H   0  0  0  0  0  0  0  0  0  0  0  0
    1.9308    1.2227   -1.3565 H   0  0  0  0  0  0  0  0  0  0  0  0
    4.1011    2.3695   -1.5689 H   0  0  0  0  0  0  0  0  0  0  0  0
    5.6220    0.1531    1.7928 H   0  0  0  0  0  0  0  0  0  0  0  0
    3.4555   -1.0053    2.0185 H   0  0  0  0  0  0  0  0  0  0  0  0
  1  2  1  0
  2  3  1  0
  3  4  1  0
  4  5  1  0
  5  6  1  0
  6  7  2  0
  7  8  1  0
  8  9  1  0
  8 10  1  0
  8 11  1  0
  7 12  1  0
 12 13  2  0
 13 14  1  0
 14 15  1  0
 15 16  2  0
 16 17  1  0
  2 18  1  0
 18 19  1  0
 19 20  2  0
 20 21  1  0
 21 22  1  0
 21 23  2  0
 23 24  1  0
 14  5  2  0
 24 18  2  0
 17 13  1  0
  1 25  1  0
  2 26  1  6
  3 27  1  0
  3 28  1  0
  4 29  1  0
 16 30  1  0
 17 31  1  0
 19 32  1  0
 20 33  1  0
 23 34  1  0
 24 35  1  0
M  END
$$$$
OCNT-2312373
     RDKit          3D

 42 45  0  0  0  0  0  0  0  0999 V2000
   -7.4546   -1.6830   -0.2687 C   0  0  0  0  0  0  0  0  0  0  0  0
   -7.4429   -0.2617   -0.3611 O   0  0  0  0  0  0  0  0  0  0  0  0
   -6.2117    0.2440   -0.7281 C   0  0  0  0  0  0  0  0  0  0  0  0
   -6.1111    1.6230   -0.7914 C   0  0  0  0  0  0  0  0  0  0  0  0
   -4.8914    2.1775   -1.1576 C   0  0  0  0  0  0  0  0  0  0  0  0
   -3.8210    1.3359   -1.4449 C   0  0  0  0  0  0  0  0  0  0  0  0
   -4.0000   -0.0462   -1.3535 C   0  0  0  0  0  0  0  0  0  0  0  0
   -2.8742   -0.9965   -1.6742 C   0  0  0  0  0  0  0  0  0  0  0  0
   -1.9617   -0.9655   -0.5060 C   0  0  0  0  0  0  0  0  0  0  0  0
   -1.9473   -1.9219    0.4344 N   0  0  0  0  0  0  0  0  0  0  0  0
   -0.9370   -1.5110    1.3016 O   0  0  0  0  0  0  0  0  0  0  0  0
   -0.4188   -0.3619    0.7783 C   0  0  0  0  0  0  0  0  0  0  0  0
    0.7027    0.2597    1.5223 C   0  0  0  0  0  0  0  0  0  0  0  0
    2.0462   -0.1772    1.0454 C   0  0  0  0  0  0  0  0  0  0  0  0
    3.1455    0.5237    1.3613 N   0  0  0  0  0  0  0  0  0  0  0  0
    4.1411   -0.1870    0.7582 N   0  0  0  0  0  0  0  0  0  0  0  0
    5.5010    0.2152    0.8190 C   0  0  0  0  0  0  0  0  0  0  0  0
    5.8600    1.3803    1.5122 C   0  0  0  0  0  0  0  0  0  0  0  0
    7.1987    1.7735    1.5676 C   0  0  0  0  0  0  0  0  0  0  0  0
    8.1799    1.0084    0.9362 C   0  0  0  0  0  0  0  0  0  0  0  0
    7.8271   -0.1523    0.2473 C   0  0  0  0  0  0  0  0  0  0  0  0
    6.4900   -0.5513    0.1854 C   0  0  0  0  0  0  0  0  0  0  0  0
    3.7436   -1.3071    0.0963 N   0  0  0  0  0  0  0  0  0  0  0  0
    2.4236   -1.2963    0.2814 C   0  0  0  0  0  0  0  0  0  0  0  0
   -0.9984    0.0065   -0.3432 N   0  0  0  0  0  0  0  0  0  0  0  0
   -5.1917   -0.5967   -1.0069 N   0  0  0  0  0  0  0  0  0  0  0  0
   -8.4584   -1.9879    0.0426 H   0  0  0  0  0  0  0  0  0  0  0  0
   -7.2537   -2.1460   -1.2413 H   0  0  0  0  0  0  0  0  0  0  0  0
   -6.7491   -2.0383    0.4907 H   0  0  0  0  0  0  0  0  0  0  0  0
   -6.9651    2.2485   -0.5589 H   0  0  0  0  0  0  0  0  0  0  0  0
   -4.7747    3.2555   -1.2168 H   0  0  0  0  0  0  0  0  0  0  0  0
   -2.8599    1.7549   -1.7293 H   0  0  0  0  0  0  0  0  0  0  0  0
   -2.3575   -0.6815   -2.5868 H   0  0  0  0  0  0  0  0  0  0  0  0
   -3.2630   -2.0065   -1.8461 H   0  0  0  0  0  0  0  0  0  0  0  0
    0.6105    0.0268    2.5904 H   0  0  0  0  0  0  0  0  0  0  0  0
    0.6203    1.3499    1.4283 H   0  0  0  0  0  0  0  0  0  0  0  0
    5.1100    1.9910    2.0113 H   0  0  0  0  0  0  0  0  0  0  0  0
    7.4773    2.6777    2.1034 H   0  0  0  0  0  0  0  0  0  0  0  0
    9.2216    1.3180    0.9799 H   0  0  0  0  0  0  0  0  0  0  0  0
    8.5933   -0.7476   -0.2422 H   0  0  0  0  0  0  0  0  0  0  0  0
    6.2344   -1.4596   -0.3573 H   0  0  0  0  0  0  0  0  0  0  0  0
    1.8164   -2.0866   -0.1409 H   0  0  0  0  0  0  0  0  0  0  0  0
  1  2  1  0
  2  3  1  0
  3  4  1  0
  4  5  2  0
  5  6  1  0
  6  7  2  0
  7  8  1  0
  8  9  1  0
  9 10  2  0
 10 11  1  0
 11 12  1  0
 12 13  1  0
 13 14  1  0
 14 15  2  0
 15 16  1  0
 16 17  1  0
 17 18  2  0
 18 19  1  0
 19 20  2  0
 20 21  1  0
 21 22  2  0
 16 23  1  0
 23 24  2  0
 12 25  2  0
  7 26  1  0
 26  3  2  0
 25  9  1  0
 24 14  1  0
 22 17  1  0
  1 27  1  0
  1 28  1  0
  1 29  1  0
  4 30  1  0
  5 31  1  0
  6 32  1  0
  8 33  1  0
  8 34  1  0
 13 35  1  0
 13 36  1  0
 18 37  1  0
 19 38  1  0
 20 39  1  0
 21 40  1  0
 22 41  1  0
 24 42  1  0
M  END
$$$$
OCNT-2312376
     RDKit          3D

 42 44  0  0  0  0  0  0  0  0999 V2000
    7.5580   -0.8531    1.9399 C   0  0  0  0  0  0  0  0  0  0  0  0
    6.2387   -0.6161    1.2748 C   0  0  0  0  0  0  0  0  0  0  0  0
    5.1758   -1.3065    1.7247 N   0  0  0  0  0  0  0  0  0  0  0  0
    3.9990   -1.0498    1.1148 C   0  0  0  0  0  0  0  0  0  0  0  0
    3.8371   -0.1221    0.1054 C   0  0  0  0  0  0  0  0  0  0  0  0
    2.5153    0.1043   -0.5091 C   0  0  0  0  0  0  0  0  0  0  0  0
    2.4107    0.2771   -1.7165 O   0  0  0  0  0  0  0  0  0  0  0  0
    1.4376    0.1177    0.3541 N   0  0  0  0  0  0  0  0  0  0  0  0
    0.0944    0.4073   -0.1246 C   0  0  0  0  0  0  0  0  0  0  0  0
   -0.5334   -0.7712   -0.8698 C   0  0  0  0  0  0  0  0  0  0  0  0
   -1.9191   -0.4586   -1.3278 C   0  0  0  0  0  0  0  0  0  0  0  0
   -2.3149   -0.1630   -2.6156 C   0  0  0  0  0  0  0  0  0  0  0  0
   -3.9982    0.1283   -2.6580 S   0  0  0  0  0  0  0  0  0  0  0  0
   -4.0990   -0.1522   -0.9578 C   0  0  0  0  0  0  0  0  0  0  0  0
   -5.3775   -0.0729   -0.2189 C   0  0  0  0  0  0  0  0  0  0  0  0
   -5.4003   -0.4529    1.1353 C   0  0  0  0  0  0  0  0  0  0  0  0
   -6.5776   -0.3987    1.8870 C   0  0  0  0  0  0  0  0  0  0  0  0
   -7.7587    0.0399    1.2969 C   0  0  0  0  0  0  0  0  0  0  0  0
   -7.7614    0.4239   -0.0411 C   0  0  0  0  0  0  0  0  0  0  0  0
   -6.5817    0.3688   -0.7925 C   0  0  0  0  0  0  0  0  0  0  0  0
   -2.9409   -0.4487   -0.3928 N   0  0  0  0  0  0  0  0  0  0  0  0
    4.9861    0.5408   -0.2937 C   0  0  0  0  0  0  0  0  0  0  0  0
    4.9876    1.5679   -1.3876 C   0  0  0  0  0  0  0  0  0  0  0  0
    6.1891    0.3050    0.2927 N   0  0  0  0  0  0  0  0  0  0  0  0
    7.6746   -0.1651    2.7822 H   0  0  0  0  0  0  0  0  0  0  0  0
    8.3790   -0.6909    1.2349 H   0  0  0  0  0  0  0  0  0  0  0  0
    7.6232   -1.8803    2.3113 H   0  0  0  0  0  0  0  0  0  0  0  0
    3.1695   -1.6523    1.4742 H   0  0  0  0  0  0  0  0  0  0  0  0
    1.5867    0.1339    1.3555 H   0  0  0  0  0  0  0  0  0  0  0  0
   -0.5060    0.6719    0.7533 H   0  0  0  0  0  0  0  0  0  0  0  0
    0.1422    1.2913   -0.7719 H   0  0  0  0  0  0  0  0  0  0  0  0
    0.0856   -1.0545   -1.7294 H   0  0  0  0  0  0  0  0  0  0  0  0
   -0.5625   -1.6494   -0.2124 H   0  0  0  0  0  0  0  0  0  0  0  0
   -1.7088   -0.1068   -3.5089 H   0  0  0  0  0  0  0  0  0  0  0  0
   -4.4868   -0.7999    1.6166 H   0  0  0  0  0  0  0  0  0  0  0  0
   -6.5679   -0.6997    2.9313 H   0  0  0  0  0  0  0  0  0  0  0  0
   -8.6757    0.0831    1.8789 H   0  0  0  0  0  0  0  0  0  0  0  0
   -8.6825    0.7688   -0.5046 H   0  0  0  0  0  0  0  0  0  0  0  0
   -6.6308    0.6829   -1.8318 H   0  0  0  0  0  0  0  0  0  0  0  0
    5.9562    2.0771   -1.4367 H   0  0  0  0  0  0  0  0  0  0  0  0
    4.2250    2.3314   -1.2048 H   0  0  0  0  0  0  0  0  0  0  0  0
    4.8120    1.0936   -2.3576 H   0  0  0  0  0  0  0  0  0  0  0  0
  1  2  1  0
  2  3  2  0
  3  4  1  0
  4  5  2  0
  5  6  1  0
  6  7  2  0
  6  8  1  0
  8  9  1  0
  9 10  1  0
 10 11  1  0
 11 12  2  0
 12 13  1  0
 13 14  1  0
 14 15  1  0
 15 16  2  0
 16 17  1  0
 17 18  2  0
 18 19  1  0
 19 20  2  0
 14 21  2  0
  5 22  1  0
 22 23  1  0
 22 24  2  0
 24  2  1  0
 21 11  1  0
 20 15  1  0
  1 25  1  0
  1 26  1  0
  1 27  1  0
  4 28  1  0
  8 29  1  0
  9 30  1  0
  9 31  1  0
 10 32  1  0
 10 33  1  0
 12 34  1  0
 16 35  1  0
 17 36  1  0
 18 37  1  0
 19 38  1  0
 20 39  1  0
 23 40  1  0
 23 41  1  0
 23 42  1  0
M  END
$$$$
OCNT-2312382
     RDKit          3D

 35 38  0  0  0  0  0  0  0  0999 V2000
    1.5825    1.9939   -0.9456 O   0  0  0  0  0  0  0  0  0  0  0  0
    0.8973    1.1891   -0.3189 C   0  0  0  0  0  0  0  0  0  0  0  0
   -0.1739    0.4807   -0.8237 N   0  0  0  0  0  0  0  0  0  0  0  0
   -0.5960    0.4499   -2.1402 C   0  0  0  0  0  0  0  0  0  0  0  0
   -0.1004    1.1595   -3.2043 C   0  0  0  0  0  0  0  0  0  0  0  0
   -0.7892    0.7338   -4.2943 N   0  0  0  0  0  0  0  0  0  0  0  0
   -1.7374   -0.1757   -4.0200 N   0  0  0  0  0  0  0  0  0  0  0  0
   -1.6410   -0.3657   -2.6874 C   0  0  0  0  0  0  0  0  0  0  0  0
   -2.5114   -1.3052   -1.9603 C   0  0  0  0  0  0  0  0  0  0  0  0
   -3.5363   -1.9899   -2.6096 C   0  0  0  0  0  0  0  0  0  0  0  0
   -4.3526   -2.8462   -1.8720 C   0  0  0  0  0  0  0  0  0  0  0  0
   -4.1273   -2.9919   -0.5081 C   0  0  0  0  0  0  0  0  0  0  0  0
   -3.0841   -2.2775    0.0634 C   0  0  0  0  0  0  0  0  0  0  0  0
   -2.2776   -1.4394   -0.6245 N   0  0  0  0  0  0  0  0  0  0  0  0
    1.1839    0.8486    1.0870 C   0  0  0  0  0  0  0  0  0  0  0  0
    0.3826    0.0239    1.7981 N   0  0  0  0  0  0  0  0  0  0  0  0
    0.9936   -0.0692    2.9881 N   0  0  0  0  0  0  0  0  0  0  0  0
    2.1670    0.6242    3.0845 C   0  0  0  0  0  0  0  0  0  0  0  0
    3.0961    0.7424    4.1249 C   0  0  0  0  0  0  0  0  0  0  0  0
    4.2214    1.5396    3.8874 C   0  0  0  0  0  0  0  0  0  0  0  0
    4.3982    2.1901    2.6683 C   0  0  0  0  0  0  0  0  0  0  0  0
    3.4489    2.0659    1.6466 C   0  0  0  0  0  0  0  0  0  0  0  0
    2.3145    1.2580    1.8582 C   0  0  0  0  0  0  0  0  0  0  0  0
   -0.6500   -0.1567   -0.1800 H   0  0  0  0  0  0  0  0  0  0  0  0
    0.6875    1.8951   -3.2910 H   0  0  0  0  0  0  0  0  0  0  0  0
   -0.6612    1.0153   -5.2623 H   0  0  0  0  0  0  0  0  0  0  0  0
   -3.7199   -1.8450   -3.6707 H   0  0  0  0  0  0  0  0  0  0  0  0
   -5.1737   -3.3683   -2.3585 H   0  0  0  0  0  0  0  0  0  0  0  0
   -4.7517   -3.6427    0.0949 H   0  0  0  0  0  0  0  0  0  0  0  0
   -2.8643   -2.3614    1.1264 H   0  0  0  0  0  0  0  0  0  0  0  0
    0.5728   -0.6606    3.6944 H   0  0  0  0  0  0  0  0  0  0  0  0
    2.9595    0.2411    5.0779 H   0  0  0  0  0  0  0  0  0  0  0  0
    4.9744    1.6478    4.6645 H   0  0  0  0  0  0  0  0  0  0  0  0
    5.2812    2.8027    2.5034 H   0  0  0  0  0  0  0  0  0  0  0  0
    3.5866    2.5939    0.7021 H   0  0  0  0  0  0  0  0  0  0  0  0
  1  2  2  0
  2  3  1  0
  3  4  1  0
  4  5  2  0
  5  6  1  0
  6  7  1  0
  7  8  2  0
  8  9  1  0
  9 10  2  0
 10 11  1  0
 11 12  2  0
 12 13  1  0
 13 14  2  0
  2 15  1  0
 15 16  2  0
 16 17  1  0
 17 18  1  0
 18 19  2  0
 19 20  1  0
 20 21  2  0
 21 22  1  0
 22 23  2  0
  8  4  1  0
 14  9  1  0
 23 15  1  0
 23 18  1  0
  3 24  1  0
  5 25  1  0
  6 26  1  0
 10 27  1  0
 11 28  1  0
 12 29  1  0
 13 30  1  0
 17 31  1  0
 19 32  1  0
 20 33  1  0
 21 34  1  0
 22 35  1  0
M  END
$$$$
OCNT-2312387
     RDKit          3D

 37 39  0  0  0  0  0  0  0  0999 V2000
   -3.8916   -2.5636   -0.8679 C   0  0  0  0  0  0  0  0  0  0  0  0
   -4.3429   -1.2279   -0.3440 C   0  0  0  0  0  0  0  0  0  0  0  0
   -3.4769   -0.1188   -0.2780 C   0  0  0  0  0  0  0  0  0  0  0  0
   -2.0609   -0.2232   -0.7256 C   0  0  0  0  0  0  0  0  0  0  0  0
   -1.8370   -0.6687   -1.8420 O   0  0  0  0  0  0  0  0  0  0  0  0
   -1.1587    0.1975    0.2213 N   0  0  0  0  0  0  0  0  0  0  0  0
    0.2058    0.2401    0.1031 C   0  0  0  0  0  0  0  0  0  0  0  0
    0.9548    0.6249    1.1140 N   0  0  0  0  0  0  0  0  0  0  0  0
    2.2797    0.5925    0.7336 C   0  0  0  0  0  0  0  0  0  0  0  0
    2.5085    0.1729   -0.5596 C   0  0  0  0  0  0  0  0  0  0  0  0
    3.8468    0.0685   -1.2081 C   0  0  0  0  0  0  0  0  0  0  0  0
    4.9565    0.0643   -0.1228 C   0  0  1  0  0  0  0  0  0  0  0  0
    6.2756    0.2523   -0.7338 N   0  0  0  0  0  0  0  0  0  0  0  0
    4.7098    1.1604    0.9395 C   0  0  0  0  0  0  0  0  0  0  0  0
    3.3747    0.9520    1.6784 C   0  0  0  0  0  0  0  0  0  0  0  0
    1.0346   -0.1754   -1.3303 S   0  0  0  0  0  0  0  0  0  0  0  0
   -3.9376    1.1198    0.1945 C   0  0  0  0  0  0  0  0  0  0  0  0
   -5.2609    1.2493    0.6074 C   0  0  0  0  0  0  0  0  0  0  0  0
   -5.8843    2.9160    1.2450 Br  0  0  0  0  0  0  0  0  0  0  0  0
   -6.1306    0.1636    0.5483 C   0  0  0  0  0  0  0  0  0  0  0  0
   -5.6750   -1.0669    0.0692 C   0  0  0  0  0  0  0  0  0  0  0  0
   -2.9323   -2.8516   -0.4261 H   0  0  0  0  0  0  0  0  0  0  0  0
   -4.6079   -3.3519   -0.6119 H   0  0  0  0  0  0  0  0  0  0  0  0
   -3.8005   -2.5315   -1.9580 H   0  0  0  0  0  0  0  0  0  0  0  0
   -1.4783    0.4757    1.1383 H   0  0  0  0  0  0  0  0  0  0  0  0
    3.9197   -0.8416   -1.8154 H   0  0  0  0  0  0  0  0  0  0  0  0
    3.9792    0.9268   -1.8798 H   0  0  0  0  0  0  0  0  0  0  0  0
    4.9519   -0.9112    0.3818 H   0  0  0  0  0  0  0  0  0  0  0  0
    6.9998    0.1962   -0.0180 H   0  0  0  0  0  0  0  0  0  0  0  0
    6.4642   -0.5057   -1.3897 H   0  0  0  0  0  0  0  0  0  0  0  0
    5.5231    1.1773    1.6755 H   0  0  0  0  0  0  0  0  0  0  0  0
    4.7020    2.1451    0.4521 H   0  0  0  0  0  0  0  0  0  0  0  0
    3.4861    0.1402    2.4071 H   0  0  0  0  0  0  0  0  0  0  0  0
    3.1147    1.8593    2.2343 H   0  0  0  0  0  0  0  0  0  0  0  0
   -3.2750    1.9816    0.2151 H   0  0  0  0  0  0  0  0  0  0  0  0
   -7.1664    0.2642    0.8637 H   0  0  0  0  0  0  0  0  0  0  0  0
   -6.3708   -1.9028    0.0183 H   0  0  0  0  0  0  0  0  0  0  0  0
  1  2  1  0
  2  3  2  0
  3  4  1  0
  4  5  2  0
  4  6  1  0
  6  7  1  0
  7  8  2  0
  8  9  1  0
  9 10  2  0
 10 11  1  0
 11 12  1  0
 12 13  1  0
 12 14  1  0
 14 15  1  0
 10 16  1  0
  3 17  1  0
 17 18  2  0
 18 19  1  0
 18 20  1  0
 20 21  2  0
 21  2  1  0
 16  7  1  0
 15  9  1  0
  1 22  1  0
  1 23  1  0
  1 24  1  0
  6 25  1  0
 11 26  1  0
 11 27  1  0
 12 28  1  1
 13 29  1  0
 13 30  1  0
 14 31  1  0
 14 32  1  0
 15 33  1  0
 15 34  1  0
 17 35  1  0
 20 36  1  0
 21 37  1  0
M  END
$$$$
OCNT-2312392
     RDKit          3D

 34 36  0  0  0  0  0  0  0  0999 V2000
   -3.1512    2.1375   -1.7530 O   0  0  0  0  0  0  0  0  0  0  0  0
   -3.2797    1.2104   -0.9607 C   0  0  0  0  0  0  0  0  0  0  0  0
   -4.5378    0.6993   -0.7262 N   0  0  0  0  0  0  0  0  0  0  0  0
   -4.8341   -0.3194    0.1631 C   0  0  0  0  0  0  0  0  0  0  0  0
   -6.2767   -0.7525    0.3053 C   0  0  0  0  0  0  0  0  0  0  0  0
   -7.0655    0.2788    0.7012 F   0  0  0  0  0  0  0  0  0  0  0  0
   -6.4425   -1.7501    1.2101 F   0  0  0  0  0  0  0  0  0  0  0  0
   -6.7780   -1.1979   -0.8746 F   0  0  0  0  0  0  0  0  0  0  0  0
   -3.8224   -0.8666    0.8566 C   0  0  0  0  0  0  0  0  0  0  0  0
   -2.4679   -0.4030    0.6663 C   0  0  0  0  0  0  0  0  0  0  0  0
   -2.1442    0.5835   -0.1969 C   0  0  0  0  0  0  0  0  0  0  0  0
   -0.7997    1.0394   -0.3977 C   0  0  0  0  0  0  0  0  0  0  0  0
   -0.3282    1.8126   -1.3873 N   0  0  0  0  0  0  0  0  0  0  0  0
    1.0288    1.9317   -1.1119 O   0  0  0  0  0  0  0  0  0  0  0  0
    1.2581    1.2086    0.0173 C   0  0  0  0  0  0  0  0  0  0  0  0
    2.6533    1.1624    0.5136 C   0  0  0  0  0  0  0  0  0  0  0  0
    3.2984   -0.1949    0.2565 C   0  0  0  0  0  0  0  0  0  0  0  0
    4.7069   -0.3110    0.8033 C   0  0  0  0  0  0  0  0  0  0  0  0
    5.2468   -1.4880    0.0193 C   0  0  0  0  0  0  0  0  0  0  0  0
    4.6085   -1.4537   -1.2643 O   0  0  0  0  0  0  0  0  0  0  0  0
    3.5242   -0.5144   -1.2137 C   0  0  0  0  0  0  0  0  0  0  0  0
    0.1797    0.6326    0.4938 N   0  0  0  0  0  0  0  0  0  0  0  0
   -5.2827    1.1414   -1.2574 H   0  0  0  0  0  0  0  0  0  0  0  0
   -3.9891   -1.6688    1.5716 H   0  0  0  0  0  0  0  0  0  0  0  0
   -1.6986   -0.8990    1.2544 H   0  0  0  0  0  0  0  0  0  0  0  0
    3.2433    1.9628    0.0508 H   0  0  0  0  0  0  0  0  0  0  0  0
    2.6455    1.3640    1.5916 H   0  0  0  0  0  0  0  0  0  0  0  0
    2.6871   -0.9931    0.7011 H   0  0  0  0  0  0  0  0  0  0  0  0
    5.2876    0.5896    0.5691 H   0  0  0  0  0  0  0  0  0  0  0  0
    4.7459   -0.4707    1.8845 H   0  0  0  0  0  0  0  0  0  0  0  0
    6.3323   -1.4474   -0.1065 H   0  0  0  0  0  0  0  0  0  0  0  0
    4.9850   -2.4377    0.4979 H   0  0  0  0  0  0  0  0  0  0  0  0
    3.8243    0.3688   -1.7885 H   0  0  0  0  0  0  0  0  0  0  0  0
    2.6425   -0.9554   -1.6882 H   0  0  0  0  0  0  0  0  0  0  0  0
  1  2  2  0
  2  3  1  0
  3  4  1  0
  4  5  1  0
  5  6  1  0
  5  7  1  0
  5  8  1  0
  4  9  2  0
  9 10  1  0
 10 11  2  0
 11 12  1  0
 12 13  2  0
 13 14  1  0
 14 15  1  0
 15 16  1  0
 16 17  1  0
 17 18  1  0
 18 19  1  0
 19 20  1  0
 20 21  1  0
 15 22  2  0
 11  2  1  0
 22 12  1  0
 21 17  1  0
  3 23  1  0
  9 24  1  0
 10 25  1  0
 16 26  1  0
 16 27  1  0
 17 28  1  0
 18 29  1  0
 18 30  1  0
 19 31  1  0
 19 32  1  0
 21 33  1  0
 21 34  1  0
M  END
$$$$
OCNT-2312404
     RDKit          3D

 45 48  0  0  0  0  0  0  0  0999 V2000
    2.5305    0.7465    1.9215 O   0  0  0  0  0  0  0  0  0  0  0  0
    2.7535    0.2883    0.8039 C   0  0  0  0  0  0  0  0  0  0  0  0
    1.7979   -0.0676   -0.1322 N   0  0  0  0  0  0  0  0  0  0  0  0
    0.3948    0.0136   -0.0018 C   0  0  0  0  0  0  0  0  0  0  0  0
   -0.3731   -0.4168   -1.0908 C   0  0  0  0  0  0  0  0  0  0  0  0
   -1.7741   -0.3722   -1.0496 C   0  0  0  0  0  0  0  0  0  0  0  0
   -2.4403    0.1044    0.0855 C   0  0  0  0  0  0  0  0  0  0  0  0
   -3.9034    0.1722    0.1813 C   0  0  0  0  0  0  0  0  0  0  0  0
   -4.5860    0.7755    1.1384 N   0  0  0  0  0  0  0  0  0  0  0  0
   -5.9212    0.5942    0.8501 C   0  0  0  0  0  0  0  0  0  0  0  0
   -7.0907    1.0117    1.5061 C   0  0  0  0  0  0  0  0  0  0  0  0
   -6.8919    1.9218    2.9359 Cl  0  0  0  0  0  0  0  0  0  0  0  0
   -8.3478    0.6858    0.9948 C   0  0  0  0  0  0  0  0  0  0  0  0
   -8.4459   -0.0631   -0.1795 C   0  0  0  0  0  0  0  0  0  0  0  0
   -7.3022   -0.4989   -0.8634 C   0  0  0  0  0  0  0  0  0  0  0  0
   -6.0624   -0.1493   -0.3175 C   0  0  0  0  0  0  0  0  0  0  0  0
   -4.7749   -0.4046   -0.7154 N   0  0  0  0  0  0  0  0  0  0  0  0
   -1.6637    0.5388    1.1680 C   0  0  0  0  0  0  0  0  0  0  0  0
   -0.2633    0.4927    1.1282 C   0  0  0  0  0  0  0  0  0  0  0  0
    4.1975    0.0893    0.3506 C   0  0  0  0  0  0  0  0  0  0  0  0
    4.4921   -1.3939    0.0728 C   0  0  0  0  0  0  0  0  0  0  0  0
    5.7979   -1.7192   -0.5194 N   0  0  0  0  0  0  0  0  0  0  0  0
    6.8787   -0.8627   -0.0102 C   0  0  0  0  0  0  0  0  0  0  0  0
    6.8733    0.5574   -0.6182 C   0  0  0  0  0  0  0  0  0  0  0  0
    5.7494    0.7593   -1.4866 O   0  0  0  0  0  0  0  0  0  0  0  0
    4.5293    1.0448   -0.7985 C   0  0  0  0  0  0  0  0  0  0  0  0
    2.1264   -0.4318   -1.0176 H   0  0  0  0  0  0  0  0  0  0  0  0
    0.1042   -0.7923   -1.9927 H   0  0  0  0  0  0  0  0  0  0  0  0
   -2.3185   -0.7072   -1.9269 H   0  0  0  0  0  0  0  0  0  0  0  0
   -9.2470    1.0130    1.5091 H   0  0  0  0  0  0  0  0  0  0  0  0
   -9.4300   -0.3140   -0.5717 H   0  0  0  0  0  0  0  0  0  0  0  0
   -7.3842   -1.0814   -1.7754 H   0  0  0  0  0  0  0  0  0  0  0  0
   -4.5120   -0.9415   -1.5263 H   0  0  0  0  0  0  0  0  0  0  0  0
   -2.1504    0.9217    2.0652 H   0  0  0  0  0  0  0  0  0  0  0  0
    0.2739    0.8440    2.0036 H   0  0  0  0  0  0  0  0  0  0  0  0
    4.8182    0.3841    1.2090 H   0  0  0  0  0  0  0  0  0  0  0  0
    4.4045   -1.9450    1.0183 H   0  0  0  0  0  0  0  0  0  0  0  0
    3.7284   -1.8301   -0.5808 H   0  0  0  0  0  0  0  0  0  0  0  0
    5.7425   -1.5310   -1.5255 H   0  0  0  0  0  0  0  0  0  0  0  0
    6.8682   -0.8167    1.0856 H   0  0  0  0  0  0  0  0  0  0  0  0
    7.8350   -1.3369   -0.2623 H   0  0  0  0  0  0  0  0  0  0  0  0
    7.7688    0.6831   -1.2362 H   0  0  0  0  0  0  0  0  0  0  0  0
    6.8984    1.3299    0.1590 H   0  0  0  0  0  0  0  0  0  0  0  0
    4.5751    2.0758   -0.4262 H   0  0  0  0  0  0  0  0  0  0  0  0
    3.7445    1.0354   -1.5621 H   0  0  0  0  0  0  0  0  0  0  0  0
  1  2  2  0
  2  3  1  0
  3  4  1  0
  4  5  1  0
  5  6  2  0
  6  7  1  0
  7  8  1  0
  8  9  2  0
  9 10  1  0
 10 11  2  0
 11 12  1  0
 11 13  1  0
 13 14  2  0
 14 15  1  0
 15 16  2  0
 16 17  1  0
  7 18  2  0
 18 19  1  0
  2 20  1  0
 20 21  1  0
 21 22  1  0
 22 23  1  0
 23 24  1  0
 24 25  1  0
 25 26  1  0
 19  4  2  0
 26 20  1  0
 17  8  1  0
 16 10  1  0
  3 27  1  0
  5 28  1  0
  6 29  1  0
 13 30  1  0
 14 31  1  0
 15 32  1  0
 17 33  1  0
 18 34  1  0
 19 35  1  0
 20 36  1  0
 21 37  1  0
 21 38  1  0
 22 39  1  0
 23 40  1  0
 23 41  1  0
 24 42  1  0
 24 43  1  0
 26 44  1  0
 26 45  1  0
M  END
$$$$
