OCNT-2314176
     RDKit          3D

 38 40  0  0  0  0  0  0  0  0999 V2000
    7.4603    0.3694   -0.9451 F   0  0  0  0  0  0  0  0  0  0  0  0
    6.5199    0.4627    0.0273 C   0  0  0  0  0  0  0  0  0  0  0  0
    6.0953   -0.7924    0.2866 F   0  0  0  0  0  0  0  0  0  0  0  0
    7.1345    0.9347    1.1337 F   0  0  0  0  0  0  0  0  0  0  0  0
    5.3901    1.3751   -0.4284 C   0  0  0  0  0  0  0  0  0  0  0  0
    4.4266    1.6442    0.5958 O   0  0  0  0  0  0  0  0  0  0  0  0
    3.3594    0.8057    0.7403 C   0  0  0  0  0  0  0  0  0  0  0  0
    2.4424    1.2073    1.7152 C   0  0  0  0  0  0  0  0  0  0  0  0
    1.2969    0.4523    1.9797 C   0  0  0  0  0  0  0  0  0  0  0  0
    1.0509   -0.7275    1.2687 C   0  0  0  0  0  0  0  0  0  0  0  0
   -0.1837   -1.5500    1.5405 C   0  0  0  0  0  0  0  0  0  0  0  0
   -1.1432   -1.4423    0.4572 N   0  0  0  0  0  0  0  0  0  0  0  0
   -1.9889   -0.4080    0.1813 C   0  0  0  0  0  0  0  0  0  0  0  0
   -2.7087   -0.8455   -0.9117 C   0  0  0  0  0  0  0  0  0  0  0  0
   -3.7761   -0.1789   -1.6956 C   0  0  0  0  0  0  0  0  0  0  0  0
   -4.8404    0.3004   -0.8321 N   0  0  0  0  0  0  0  0  0  0  0  0
   -5.8697   -0.4399   -0.3180 C   0  0  0  0  0  0  0  0  0  0  0  0
   -6.6169    0.4536    0.4132 C   0  0  0  0  0  0  0  0  0  0  0  0
   -6.0740    1.7114    0.3463 N   0  0  0  0  0  0  0  0  0  0  0  0
   -5.0111    1.5905   -0.4165 C   0  0  0  0  0  0  0  0  0  0  0  0
   -2.2728   -2.1005   -1.2555 N   0  0  0  0  0  0  0  0  0  0  0  0
   -1.3192   -2.4580   -0.4072 N   0  0  0  0  0  0  0  0  0  0  0  0
    1.9744   -1.1295    0.2932 C   0  0  0  0  0  0  0  0  0  0  0  0
    3.1205   -0.3691    0.0312 C   0  0  0  0  0  0  0  0  0  0  0  0
    5.8299    2.3461   -0.6839 H   0  0  0  0  0  0  0  0  0  0  0  0
    4.9219    1.0164   -1.3518 H   0  0  0  0  0  0  0  0  0  0  0  0
    2.6225    2.1213    2.2775 H   0  0  0  0  0  0  0  0  0  0  0  0
    0.6062    0.7972    2.7463 H   0  0  0  0  0  0  0  0  0  0  0  0
    0.0800   -2.6059    1.6717 H   0  0  0  0  0  0  0  0  0  0  0  0
   -0.6912   -1.2230    2.4553 H   0  0  0  0  0  0  0  0  0  0  0  0
   -2.0096    0.5029    0.7617 H   0  0  0  0  0  0  0  0  0  0  0  0
   -4.2286   -0.8660   -2.4192 H   0  0  0  0  0  0  0  0  0  0  0  0
   -3.3721    0.6764   -2.2478 H   0  0  0  0  0  0  0  0  0  0  0  0
   -5.9769   -1.5006   -0.5000 H   0  0  0  0  0  0  0  0  0  0  0  0
   -7.5165    0.2589    0.9827 H   0  0  0  0  0  0  0  0  0  0  0  0
   -4.3405    2.3947   -0.6908 H   0  0  0  0  0  0  0  0  0  0  0  0
    1.8073   -2.0441   -0.2758 H   0  0  0  0  0  0  0  0  0  0  0  0
    3.8010   -0.7399   -0.7275 H   0  0  0  0  0  0  0  0  0  0  0  0
  1  2  1  0
  2  3  1  0
  2  4  1  0
  2  5  1  0
  5  6  1  0
  6  7  1  0
  7  8  1  0
  8  9  2  0
  9 10  1  0
 10 11  1  0
 11 12  1  0
 12 13  1  0
 13 14  2  0
 14 15  1  0
 15 16  1  0
 16 17  1  0
 17 18  2  0
 18 19  1  0
 19 20  2  0
 14 21  1  0
 21 22  2  0
 10 23  2  0
 23 24  1  0
 24  7  2  0
 22 12  1  0
 20 16  1  0
  5 25  1  0
  5 26  1  0
  8 27  1  0
  9 28  1  0
 11 29  1  0
 11 30  1  0
 13 31  1  0
 15 32  1  0
 15 33  1  0
 17 34  1  0
 18 35  1  0
 20 36  1  0
 23 37  1  0
 24 38  1  0
M  END
$$$$
OCNT-2314178
     RDKit          3D

 46 49  0  0  0  0  0  0  0  0999 V2000
    3.8084   -0.5500   -2.4641 C   0  0  0  0  0  0  0  0  0  0  0  0
    3.1666   -0.1537   -1.2597 O   0  0  0  0  0  0  0  0  0  0  0  0
    3.8560   -0.3016   -0.0866 C   0  0  0  0  0  0  0  0  0  0  0  0
    5.2106   -0.6544   -0.0195 C   0  0  0  0  0  0  0  0  0  0  0  0
    5.8556   -0.7797    1.2119 C   0  0  0  0  0  0  0  0  0  0  0  0
    5.1546   -0.5508    2.3884 C   0  0  0  0  0  0  0  0  0  0  0  0
    3.8079   -0.1953    2.3333 C   0  0  0  0  0  0  0  0  0  0  0  0
    3.1355   -0.0635    1.1016 C   0  0  0  0  0  0  0  0  0  0  0  0
    1.6705    0.3221    1.1391 C   0  0  0  0  0  0  0  0  0  0  0  0
    1.3040    1.6327    0.4429 C   0  0  0  0  0  0  0  0  0  0  0  0
   -0.2205    1.5542    0.3107 C   0  0  0  0  0  0  0  0  0  0  0  0
   -0.5641    0.1257    0.4348 N   0  0  0  0  0  0  0  0  0  0  0  0
   -1.5475   -0.3285   -0.4486 C   0  0  0  0  0  0  0  0  0  0  0  0
   -1.2054   -1.2336   -1.3853 N   0  0  0  0  0  0  0  0  0  0  0  0
   -2.1473   -1.6146   -2.2596 C   0  0  0  0  0  0  0  0  0  0  0  0
   -3.4116   -1.1847   -2.3015 N   0  0  0  0  0  0  0  0  0  0  0  0
   -3.7464   -0.3142   -1.3354 C   0  0  0  0  0  0  0  0  0  0  0  0
   -2.8579    0.1326   -0.3614 C   0  0  0  0  0  0  0  0  0  0  0  0
   -3.3801    1.0739    0.6859 C   0  0  0  0  0  0  0  0  0  0  0  0
   -4.7731    0.6613    1.1758 C   0  0  0  0  0  0  0  0  0  0  0  0
   -5.7393    0.1993    0.0769 C   0  0  0  0  0  0  0  0  0  0  0  0
   -5.1498    0.2298   -1.3300 C   0  0  0  0  0  0  0  0  0  0  0  0
    0.6823   -0.6599    0.4933 C   0  0  0  0  0  0  0  0  0  0  0  0
    4.6572    0.1036   -2.6894 H   0  0  0  0  0  0  0  0  0  0  0  0
    4.1147   -1.6006   -2.4251 H   0  0  0  0  0  0  0  0  0  0  0  0
    3.0841   -0.4453   -3.2777 H   0  0  0  0  0  0  0  0  0  0  0  0
    5.7983   -0.8344   -0.9135 H   0  0  0  0  0  0  0  0  0  0  0  0
    6.9065   -1.0544    1.2493 H   0  0  0  0  0  0  0  0  0  0  0  0
    5.6533   -0.6474    3.3492 H   0  0  0  0  0  0  0  0  0  0  0  0
    3.2801   -0.0209    3.2692 H   0  0  0  0  0  0  0  0  0  0  0  0
    1.3696    0.4304    2.1927 H   0  0  0  0  0  0  0  0  0  0  0  0
    1.6206    2.5121    1.0135 H   0  0  0  0  0  0  0  0  0  0  0  0
    1.7487    1.7188   -0.5537 H   0  0  0  0  0  0  0  0  0  0  0  0
   -0.6877    2.1132    1.1285 H   0  0  0  0  0  0  0  0  0  0  0  0
   -0.5390    1.9989   -0.6400 H   0  0  0  0  0  0  0  0  0  0  0  0
   -1.8498   -2.3379   -3.0103 H   0  0  0  0  0  0  0  0  0  0  0  0
   -2.7231    1.1090    1.5608 H   0  0  0  0  0  0  0  0  0  0  0  0
   -3.4160    2.0848    0.2618 H   0  0  0  0  0  0  0  0  0  0  0  0
   -4.6617   -0.1616    1.8951 H   0  0  0  0  0  0  0  0  0  0  0  0
   -5.2189    1.4892    1.7402 H   0  0  0  0  0  0  0  0  0  0  0  0
   -6.6535    0.8042    0.1039 H   0  0  0  0  0  0  0  0  0  0  0  0
   -6.0533   -0.8275    0.3080 H   0  0  0  0  0  0  0  0  0  0  0  0
   -5.1243    1.2601   -1.7056 H   0  0  0  0  0  0  0  0  0  0  0  0
   -5.7875   -0.3458   -2.0107 H   0  0  0  0  0  0  0  0  0  0  0  0
    0.5512   -1.5556    1.1107 H   0  0  0  0  0  0  0  0  0  0  0  0
    1.0214   -0.9710   -0.4996 H   0  0  0  0  0  0  0  0  0  0  0  0
  1  2  1  0
  2  3  1  0
  3  4  2  0
  4  5  1  0
  5  6  2  0
  6  7  1  0
  7  8  2  0
  8  9  1  0
  9 10  1  0
 10 11  1  0
 11 12  1  0
 12 13  1  0
 13 14  1  0
 14 15  2  0
 15 16  1  0
 16 17  2  0
 17 18  1  0
 18 19  1  0
 19 20  1  0
 20 21  1  0
 21 22  1  0
 12 23  1  0
  8  3  1  0
 23  9  1  0
 18 13  2  0
 22 17  1  0
  1 24  1  0
  1 25  1  0
  1 26  1  0
  4 27  1  0
  5 28  1  0
  6 29  1  0
  7 30  1  0
  9 31  1  0
 10 32  1  0
 10 33  1  0
 11 34  1  0
 11 35  1  0
 15 36  1  0
 19 37  1  0
 19 38  1  0
 20 39  1  0
 20 40  1  0
 21 41  1  0
 21 42  1  0
 22 43  1  0
 22 44  1  0
 23 45  1  0
 23 46  1  0
M  END
$$$$
OCNT-2314182
     RDKit          3D

 41 43  0  0  0  0  0  0  0  0999 V2000
    6.2853   -1.4663   -0.1446 C   0  0  0  0  0  0  0  0  0  0  0  0
    6.2818   -0.3407    0.7243 O   0  0  0  0  0  0  0  0  0  0  0  0
    5.1125    0.3632    0.8209 C   0  0  0  0  0  0  0  0  0  0  0  0
    5.1637    1.4606    1.6816 C   0  0  0  0  0  0  0  0  0  0  0  0
    4.0423    2.2655    1.8705 C   0  0  0  0  0  0  0  0  0  0  0  0
    2.8571    1.9745    1.1950 C   0  0  0  0  0  0  0  0  0  0  0  0
    2.7758    0.8764    0.3239 C   0  0  0  0  0  0  0  0  0  0  0  0
    1.5245    0.5689   -0.3882 C   0  0  0  0  0  0  0  0  0  0  0  0
    0.8956    1.5310   -1.1942 C   0  0  0  0  0  0  0  0  0  0  0  0
   -0.2925    1.2406   -1.8733 C   0  0  0  0  0  0  0  0  0  0  0  0
   -0.8793   -0.0256   -1.7672 C   0  0  0  0  0  0  0  0  0  0  0  0
   -2.1708   -0.3412   -2.4757 C   0  0  0  0  0  0  0  0  0  0  0  0
   -3.2971   -0.1579   -1.5958 N   0  0  0  0  0  0  0  0  0  0  0  0
   -3.8858   -1.1980   -0.9118 C   0  0  0  0  0  0  0  0  0  0  0  0
   -3.6092   -2.3803   -1.0789 O   0  0  0  0  0  0  0  0  0  0  0  0
   -4.9136   -0.7739    0.0917 C   0  0  0  0  0  0  0  0  0  0  0  0
   -5.5767   -1.7315    0.8283 C   0  0  0  0  0  0  0  0  0  0  0  0
   -6.4955   -1.2450    1.7229 C   0  0  0  0  0  0  0  0  0  0  0  0
   -6.7478    0.0677    1.8871 N   0  0  0  0  0  0  0  0  0  0  0  0
   -6.0414    0.9098    1.1170 C   0  0  0  0  0  0  0  0  0  0  0  0
   -5.1209    0.5628    0.2102 N   0  0  0  0  0  0  0  0  0  0  0  0
   -0.2647   -0.9880   -0.9568 C   0  0  0  0  0  0  0  0  0  0  0  0
    0.9229   -0.6945   -0.2798 C   0  0  0  0  0  0  0  0  0  0  0  0
    3.9216    0.0763    0.1479 C   0  0  0  0  0  0  0  0  0  0  0  0
    6.0931   -1.1665   -1.1801 H   0  0  0  0  0  0  0  0  0  0  0  0
    7.2833   -1.9135   -0.1079 H   0  0  0  0  0  0  0  0  0  0  0  0
    5.5687   -2.2245    0.1883 H   0  0  0  0  0  0  0  0  0  0  0  0
    6.0867    1.6886    2.2091 H   0  0  0  0  0  0  0  0  0  0  0  0
    4.0909    3.1159    2.5452 H   0  0  0  0  0  0  0  0  0  0  0  0
    1.9865    2.6056    1.3620 H   0  0  0  0  0  0  0  0  0  0  0  0
    1.3370    2.5194   -1.3070 H   0  0  0  0  0  0  0  0  0  0  0  0
   -0.7527    2.0116   -2.4871 H   0  0  0  0  0  0  0  0  0  0  0  0
   -2.1489   -1.3652   -2.8655 H   0  0  0  0  0  0  0  0  0  0  0  0
   -2.3115    0.3289   -3.3308 H   0  0  0  0  0  0  0  0  0  0  0  0
   -3.5346    0.7775   -1.2804 H   0  0  0  0  0  0  0  0  0  0  0  0
   -5.3866   -2.7895    0.7108 H   0  0  0  0  0  0  0  0  0  0  0  0
   -7.0744   -1.9131    2.3545 H   0  0  0  0  0  0  0  0  0  0  0  0
   -6.2374    1.9692    1.2438 H   0  0  0  0  0  0  0  0  0  0  0  0
   -0.7156   -1.9729   -0.8430 H   0  0  0  0  0  0  0  0  0  0  0  0
    1.3697   -1.4611    0.3502 H   0  0  0  0  0  0  0  0  0  0  0  0
    3.8581   -0.7650   -0.5355 H   0  0  0  0  0  0  0  0  0  0  0  0
  1  2  1  0
  2  3  1  0
  3  4  1  0
  4  5  2  0
  5  6  1  0
  6  7  2  0
  7  8  1  0
  8  9  1  0
  9 10  2  0
 10 11  1  0
 11 12  1  0
 12 13  1  0
 13 14  1  0
 14 15  2  0
 14 16  1  0
 16 17  1  0
 17 18  2  0
 18 19  1  0
 19 20  2  0
 20 21  1  0
 11 22  2  0
 22 23  1  0
  7 24  1  0
 24  3  2  0
 23  8  2  0
 21 16  2  0
  1 25  1  0
  1 26  1  0
  1 27  1  0
  4 28  1  0
  5 29  1  0
  6 30  1  0
  9 31  1  0
 10 32  1  0
 12 33  1  0
 12 34  1  0
 13 35  1  0
 17 36  1  0
 18 37  1  0
 20 38  1  0
 22 39  1  0
 23 40  1  0
 24 41  1  0
M  END
$$$$
OCNT-2314210
     RDKit          3D

 34 36  0  0  0  0  0  0  0  0999 V2000
   -3.0896   -2.8106    0.4044 C   0  0  0  0  0  0  0  0  0  0  0  0
   -2.5945   -1.4236    0.1266 C   0  0  0  0  0  0  0  0  0  0  0  0
   -1.2516   -1.2507    0.1135 N   0  0  0  0  0  0  0  0  0  0  0  0
   -0.7283   -0.0290   -0.1575 C   0  0  0  0  0  0  0  0  0  0  0  0
    0.6558    0.1598   -0.1734 N   0  0  0  0  0  0  0  0  0  0  0  0
    1.4196   -0.8380    0.5614 C   0  0  0  0  0  0  0  0  0  0  0  0
    2.8918   -0.5462    0.4085 C   0  0  0  0  0  0  0  0  0  0  0  0
    3.4890   -0.5182   -0.8620 C   0  0  0  0  0  0  0  0  0  0  0  0
    4.8525   -0.2607   -0.9886 C   0  0  0  0  0  0  0  0  0  0  0  0
    5.3916   -0.2366   -2.2161 F   0  0  0  0  0  0  0  0  0  0  0  0
    5.6397   -0.0332    0.1393 C   0  0  0  0  0  0  0  0  0  0  0  0
    7.3240    0.2854   -0.0145 Cl  0  0  0  0  0  0  0  0  0  0  0  0
    5.0622   -0.0637    1.4062 C   0  0  0  0  0  0  0  0  0  0  0  0
    3.6985   -0.3210    1.5287 C   0  0  0  0  0  0  0  0  0  0  0  0
    3.1606   -0.3476    2.7558 F   0  0  0  0  0  0  0  0  0  0  0  0
   -1.6274    1.0079   -0.4322 C   0  0  0  0  0  0  0  0  0  0  0  0
   -1.5813    2.3759   -0.7726 C   0  0  0  0  0  0  0  0  0  0  0  0
   -2.7952    2.9179   -0.9237 N   0  0  0  0  0  0  0  0  0  0  0  0
   -3.6282    1.8757   -0.6926 N   0  0  0  0  0  0  0  0  0  0  0  0
   -5.0529    2.0748   -0.7787 C   0  0  0  0  0  0  0  0  0  0  0  0
   -2.9768    0.7096   -0.3936 C   0  0  0  0  0  0  0  0  0  0  0  0
   -3.5268   -0.4846   -0.1212 N   0  0  0  0  0  0  0  0  0  0  0  0
   -4.0722   -2.7806    0.8850 H   0  0  0  0  0  0  0  0  0  0  0  0
   -3.1721   -3.3662   -0.5342 H   0  0  0  0  0  0  0  0  0  0  0  0
   -2.3999   -3.3399    1.0690 H   0  0  0  0  0  0  0  0  0  0  0  0
    0.9066    1.1169    0.0476 H   0  0  0  0  0  0  0  0  0  0  0  0
    1.1319   -0.8268    1.6197 H   0  0  0  0  0  0  0  0  0  0  0  0
    1.2395   -1.8491    0.1740 H   0  0  0  0  0  0  0  0  0  0  0  0
    2.8954   -0.6927   -1.7567 H   0  0  0  0  0  0  0  0  0  0  0  0
    5.6556    0.1083    2.2986 H   0  0  0  0  0  0  0  0  0  0  0  0
   -0.7107    3.0019   -0.9174 H   0  0  0  0  0  0  0  0  0  0  0  0
   -5.3378    2.8387   -0.0509 H   0  0  0  0  0  0  0  0  0  0  0  0
   -5.2930    2.4047   -1.7927 H   0  0  0  0  0  0  0  0  0  0  0  0
   -5.5761    1.1415   -0.5594 H   0  0  0  0  0  0  0  0  0  0  0  0
  1  2  1  0
  2  3  2  0
  3  4  1  0
  4  5  1  0
  5  6  1  0
  6  7  1  0
  7  8  2  0
  8  9  1  0
  9 10  1  0
  9 11  2  0
 11 12  1  0
 11 13  1  0
 13 14  2  0
 14 15  1  0
  4 16  2  0
 16 17  1  0
 17 18  2  0
 18 19  1  0
 19 20  1  0
 19 21  1  0
 21 22  2  0
 22  2  1  0
 14  7  1  0
 21 16  1  0
  1 23  1  0
  1 24  1  0
  1 25  1  0
  5 26  1  0
  6 27  1  0
  6 28  1  0
  8 29  1  0
 13 30  1  0
 17 31  1  0
 20 32  1  0
 20 33  1  0
 20 34  1  0
M  END
$$$$
OCNT-2314213
     RDKit          3D

 59 61  0  0  0  0  0  0  0  0999 V2000
   -4.0814   -2.6936    2.0569 C   0  0  0  0  0  0  0  0  0  0  0  0
   -3.3175   -1.6668    1.2266 C   0  0  0  0  0  0  0  0  0  0  0  0
   -1.9378   -1.4002    1.8394 C   0  0  0  0  0  0  0  0  0  0  0  0
   -1.1470   -0.4624    1.0624 N   0  0  0  0  0  0  0  0  0  0  0  0
   -0.5379   -0.8202   -0.1183 C   0  0  0  0  0  0  0  0  0  0  0  0
   -0.4909   -1.9692   -0.5390 O   0  0  0  0  0  0  0  0  0  0  0  0
    0.0829    0.2912   -0.8897 C   0  0  0  0  0  0  0  0  0  0  0  0
   -0.6439    1.4862   -1.0381 C   0  0  0  0  0  0  0  0  0  0  0  0
   -0.1303    2.5335   -1.7995 C   0  0  0  0  0  0  0  0  0  0  0  0
    1.0983    2.3874   -2.4335 C   0  0  0  0  0  0  0  0  0  0  0  0
    1.8202    1.1989   -2.3019 C   0  0  0  0  0  0  0  0  0  0  0  0
    1.3417    0.1358   -1.5097 C   0  0  0  0  0  0  0  0  0  0  0  0
    2.1281   -1.1566   -1.3914 C   0  0  0  0  0  0  0  0  0  0  0  0
    3.5685   -0.9443   -1.3294 N   0  0  0  0  0  0  0  0  0  0  0  0
    4.3122   -0.5591   -0.2498 C   0  0  0  0  0  0  0  0  0  0  0  0
    5.6029   -0.5245   -0.7296 C   0  0  0  0  0  0  0  0  0  0  0  0
    6.8095   -0.1697   -0.0014 C   0  0  0  0  0  0  0  0  0  0  0  0
    6.7739    0.2449    1.3394 C   0  0  0  0  0  0  0  0  0  0  0  0
    7.9508    0.5801    2.0165 C   0  0  0  0  0  0  0  0  0  0  0  0
    9.1778    0.5055    1.3609 C   0  0  0  0  0  0  0  0  0  0  0  0
    9.2233    0.0960    0.0307 C   0  0  0  0  0  0  0  0  0  0  0  0
   10.7393    0.0043   -0.7790 Cl  0  0  0  0  0  0  0  0  0  0  0  0
    8.0522   -0.2395   -0.6494 C   0  0  0  0  0  0  0  0  0  0  0  0
    5.5937   -0.8919   -2.0532 N   0  0  0  0  0  0  0  0  0  0  0  0
    4.3438   -1.1564   -2.4075 N   0  0  0  0  0  0  0  0  0  0  0  0
   -4.1196   -0.3824    1.1408 C   0  0  0  0  0  0  0  0  0  0  0  0
   -3.8389    0.6561    1.7239 O   0  0  0  0  0  0  0  0  0  0  0  0
   -5.1793   -0.5602    0.3057 O   0  0  0  0  0  0  0  0  0  0  0  0
   -6.0932    0.5286    0.0154 C   0  0  0  0  0  0  0  0  0  0  0  0
   -6.8221    0.9949    1.2799 C   0  0  0  0  0  0  0  0  0  0  0  0
   -5.3731    1.6824   -0.6914 C   0  0  0  0  0  0  0  0  0  0  0  0
   -7.1236   -0.0742   -0.9512 C   0  0  0  0  0  0  0  0  0  0  0  0
   -4.2683   -2.3236    3.0715 H   0  0  0  0  0  0  0  0  0  0  0  0
   -5.0540   -2.9202    1.6066 H   0  0  0  0  0  0  0  0  0  0  0  0
   -3.5200   -3.6308    2.1319 H   0  0  0  0  0  0  0  0  0  0  0  0
   -3.1846   -2.0440    0.2049 H   0  0  0  0  0  0  0  0  0  0  0  0
   -1.3735   -2.3376    1.9129 H   0  0  0  0  0  0  0  0  0  0  0  0
   -2.0250   -0.9818    2.8487 H   0  0  0  0  0  0  0  0  0  0  0  0
   -1.1916    0.5130    1.3367 H   0  0  0  0  0  0  0  0  0  0  0  0
   -1.6300    1.5999   -0.5927 H   0  0  0  0  0  0  0  0  0  0  0  0
   -0.6976    3.4534   -1.9174 H   0  0  0  0  0  0  0  0  0  0  0  0
    1.4942    3.1946   -3.0462 H   0  0  0  0  0  0  0  0  0  0  0  0
    2.7669    1.1151   -2.8364 H   0  0  0  0  0  0  0  0  0  0  0  0
    1.8965   -1.6953   -0.4674 H   0  0  0  0  0  0  0  0  0  0  0  0
    1.9134   -1.8088   -2.2449 H   0  0  0  0  0  0  0  0  0  0  0  0
    3.8665   -0.3533    0.7109 H   0  0  0  0  0  0  0  0  0  0  0  0
    5.8331    0.3155    1.8789 H   0  0  0  0  0  0  0  0  0  0  0  0
    7.9084    0.8997    3.0549 H   0  0  0  0  0  0  0  0  0  0  0  0
   10.0908    0.7667    1.8891 H   0  0  0  0  0  0  0  0  0  0  0  0
    8.1099   -0.5577   -1.6889 H   0  0  0  0  0  0  0  0  0  0  0  0
   -6.1487    1.5050    1.9753 H   0  0  0  0  0  0  0  0  0  0  0  0
   -7.6332    1.6915    1.0382 H   0  0  0  0  0  0  0  0  0  0  0  0
   -7.2457    0.1408    1.8206 H   0  0  0  0  0  0  0  0  0  0  0  0
   -6.0848    2.4298   -1.0600 H   0  0  0  0  0  0  0  0  0  0  0  0
   -4.7854    1.3123   -1.5391 H   0  0  0  0  0  0  0  0  0  0  0  0
   -4.6731    2.1968   -0.0259 H   0  0  0  0  0  0  0  0  0  0  0  0
   -7.6328   -0.9303   -0.4933 H   0  0  0  0  0  0  0  0  0  0  0  0
   -6.6344   -0.4530   -1.8557 H   0  0  0  0  0  0  0  0  0  0  0  0
   -7.8802    0.6597   -1.2488 H   0  0  0  0  0  0  0  0  0  0  0  0
  1  2  1  0
  2  3  1  0
  3  4  1  0
  4  5  1  0
  5  6  2  0
  5  7  1  0
  7  8  2  0
  8  9  1  0
  9 10  2  0
 10 11  1  0
 11 12  2  0
 12 13  1  0
 13 14  1  0
 14 15  1  0
 15 16  2  0
 16 17  1  0
 17 18  2  0
 18 19  1  0
 19 20  2  0
 20 21  1  0
 21 22  1  0
 21 23  2  0
 16 24  1  0
 24 25  2  0
  2 26  1  0
 26 27  2  0
 26 28  1  0
 28 29  1  0
 29 30  1  0
 29 31  1  0
 29 32  1  0
 12  7  1  0
 25 14  1  0
 23 17  1  0
  1 33  1  0
  1 34  1  0
  1 35  1  0
  2 36  1  0
  3 37  1  0
  3 38  1  0
  4 39  1  0
  8 40  1  0
  9 41  1  0
 10 42  1  0
 11 43  1  0
 13 44  1  0
 13 45  1  0
 15 46  1  0
 18 47  1  0
 19 48  1  0
 20 49  1  0
 23 50  1  0
 30 51  1  0
 30 52  1  0
 30 53  1  0
 31 54  1  0
 31 55  1  0
 31 56  1  0
 32 57  1  0
 32 58  1  0
 32 59  1  0
M  END
$$$$
OCNT-2314219
     RDKit          3D

 36 38  0  0  0  0  0  0  0  0999 V2000
   -4.1178   -0.5269   -1.1799 C   0  0  0  0  0  0  0  0  0  0  0  0
   -3.5657    0.4759   -0.1981 C   0  0  0  0  0  0  0  0  0  0  0  0
   -4.4371    1.1835    0.6587 C   0  0  0  0  0  0  0  0  0  0  0  0
   -6.3244    0.9285    0.6271 Br  0  0  0  0  0  0  0  0  0  0  0  0
   -3.9508    2.1231    1.5733 C   0  0  0  0  0  0  0  0  0  0  0  0
   -2.5884    2.3851    1.6450 C   0  0  0  0  0  0  0  0  0  0  0  0
   -1.7130    1.7168    0.7949 C   0  0  0  0  0  0  0  0  0  0  0  0
   -2.1820    0.7718   -0.1388 C   0  0  0  0  0  0  0  0  0  0  0  0
   -1.1469    0.1025   -1.0210 C   0  0  0  0  0  0  0  0  0  0  0  0
   -0.6150   -1.1927   -0.3962 C   0  0  0  0  0  0  0  0  0  0  0  0
    0.4085   -1.7882   -1.2476 N   0  0  0  0  0  0  0  0  0  0  0  0
    1.7459   -1.6487   -0.8802 C   0  0  0  0  0  0  0  0  0  0  0  0
    2.5559   -2.6851   -1.2274 N   0  0  0  0  0  0  0  0  0  0  0  0
    3.8712   -2.6239   -0.9251 C   0  0  0  0  0  0  0  0  0  0  0  0
    4.5339   -1.6394   -0.2907 N   0  0  0  0  0  0  0  0  0  0  0  0
    3.6977   -0.6389    0.0346 C   0  0  0  0  0  0  0  0  0  0  0  0
    2.3377   -0.5606   -0.2125 C   0  0  0  0  0  0  0  0  0  0  0  0
    1.8575    0.6266    0.2861 N   0  0  0  0  0  0  0  0  0  0  0  0
    2.8711    1.2882    0.8361 N   0  0  0  0  0  0  0  0  0  0  0  0
    3.9768    0.5306    0.6793 N   0  0  0  0  0  0  0  0  0  0  0  0
    5.2448    0.9914    1.1719 C   0  0  0  0  0  0  0  0  0  0  0  0
   -4.6016   -0.0075   -2.0131 H   0  0  0  0  0  0  0  0  0  0  0  0
   -3.3518   -1.1869   -1.5925 H   0  0  0  0  0  0  0  0  0  0  0  0
   -4.8389   -1.1929   -0.6950 H   0  0  0  0  0  0  0  0  0  0  0  0
   -4.6292    2.6594    2.2319 H   0  0  0  0  0  0  0  0  0  0  0  0
   -2.2071    3.1142    2.3549 H   0  0  0  0  0  0  0  0  0  0  0  0
   -0.6477    1.9412    0.8586 H   0  0  0  0  0  0  0  0  0  0  0  0
   -0.3233    0.8044   -1.2034 H   0  0  0  0  0  0  0  0  0  0  0  0
   -1.5569   -0.0863   -2.0203 H   0  0  0  0  0  0  0  0  0  0  0  0
   -1.4380   -1.9129   -0.3086 H   0  0  0  0  0  0  0  0  0  0  0  0
   -0.2594   -1.0329    0.6295 H   0  0  0  0  0  0  0  0  0  0  0  0
    0.2570   -2.7657   -1.4835 H   0  0  0  0  0  0  0  0  0  0  0  0
    4.4666   -3.4791   -1.2330 H   0  0  0  0  0  0  0  0  0  0  0  0
    6.0207    0.2548    0.9515 H   0  0  0  0  0  0  0  0  0  0  0  0
    5.1656    1.1328    2.2528 H   0  0  0  0  0  0  0  0  0  0  0  0
    5.4839    1.9379    0.6806 H   0  0  0  0  0  0  0  0  0  0  0  0
  1  2  1  0
  2  3  2  0
  3  4  1  0
  3  5  1  0
  5  6  2  0
  6  7  1  0
  7  8  2  0
  8  9  1  0
  9 10  1  0
 10 11  1  0
 11 12  1  0
 12 13  1  0
 13 14  2  0
 14 15  1  0
 15 16  2  0
 16 17  1  0
 17 18  1  0
 18 19  2  0
 19 20  1  0
 20 21  1  0
  8  2  1  0
 17 12  2  0
 20 16  1  0
  1 22  1  0
  1 23  1  0
  1 24  1  0
  5 25  1  0
  6 26  1  0
  7 27  1  0
  9 28  1  0
  9 29  1  0
 10 30  1  0
 10 31  1  0
 11 32  1  0
 14 33  1  0
 21 34  1  0
 21 35  1  0
 21 36  1  0
M  END
$$$$
OCNT-2314223
     RDKit          3D

 38 40  0  0  0  0  0  0  0  0999 V2000
   -0.2241    0.6646    2.6613 C   0  0  0  0  0  0  0  0  0  0  0  0
   -0.9780    0.2035    1.5191 N   0  0  0  0  0  0  0  0  0  0  0  0
   -2.3246    0.2098    1.6398 N   0  0  0  0  0  0  0  0  0  0  0  0
   -2.7964   -0.0404    0.4115 C   0  0  0  0  0  0  0  0  0  0  0  0
   -4.2378   -0.0939    0.1422 C   0  0  0  0  0  0  0  0  0  0  0  0
   -4.7335   -0.2923   -1.1492 C   0  0  0  0  0  0  0  0  0  0  0  0
   -6.1071   -0.3322   -1.3356 C   0  0  0  0  0  0  0  0  0  0  0  0
   -7.0067   -0.1905   -0.3413 N   0  0  0  0  0  0  0  0  0  0  0  0
   -6.5106   -0.0000    0.8987 C   0  0  0  0  0  0  0  0  0  0  0  0
   -5.1573    0.0551    1.1857 C   0  0  0  0  0  0  0  0  0  0  0  0
   -1.7178   -0.2226   -0.4911 C   0  0  0  0  0  0  0  0  0  0  0  0
   -0.5562   -0.1120    0.2475 C   0  0  0  0  0  0  0  0  0  0  0  0
    0.7257   -0.2599   -0.2603 N   0  0  0  0  0  0  0  0  0  0  0  0
    1.8695   -0.5121    0.4766 C   0  0  0  0  0  0  0  0  0  0  0  0
    1.9277   -0.6864    1.6868 O   0  0  0  0  0  0  0  0  0  0  0  0
    3.1098   -0.5982   -0.4085 C   0  0  0  0  0  0  0  0  0  0  0  0
    3.4164    0.7442   -1.1050 C   0  0  0  0  0  0  0  0  0  0  0  0
    4.8338    1.1223   -0.6843 C   0  0  0  0  0  0  0  0  0  0  0  0
    5.4655   -0.2132   -0.3720 C   0  0  0  0  0  0  0  0  0  0  0  0
    5.7728   -0.8587   -1.5214 F   0  0  0  0  0  0  0  0  0  0  0  0
    6.5913   -0.0903    0.3486 F   0  0  0  0  0  0  0  0  0  0  0  0
    4.3834   -0.9624    0.3672 C   0  0  0  0  0  0  0  0  0  0  0  0
    0.6122    1.2792    2.3224 H   0  0  0  0  0  0  0  0  0  0  0  0
    0.1000   -0.2043    3.2373 H   0  0  0  0  0  0  0  0  0  0  0  0
   -0.8706    1.2881    3.2871 H   0  0  0  0  0  0  0  0  0  0  0  0
   -4.0837   -0.4138   -2.0068 H   0  0  0  0  0  0  0  0  0  0  0  0
   -6.5327   -0.4841   -2.3235 H   0  0  0  0  0  0  0  0  0  0  0  0
   -7.2522    0.1111    1.6845 H   0  0  0  0  0  0  0  0  0  0  0  0
   -4.8286    0.2108    2.2087 H   0  0  0  0  0  0  0  0  0  0  0  0
   -1.7784   -0.4443   -1.5460 H   0  0  0  0  0  0  0  0  0  0  0  0
    0.7870   -0.3900   -1.2642 H   0  0  0  0  0  0  0  0  0  0  0  0
    2.9229   -1.3685   -1.1687 H   0  0  0  0  0  0  0  0  0  0  0  0
    2.7125    1.5446   -0.8547 H   0  0  0  0  0  0  0  0  0  0  0  0
    3.3784    0.6034   -2.1922 H   0  0  0  0  0  0  0  0  0  0  0  0
    5.3611    1.6581   -1.4787 H   0  0  0  0  0  0  0  0  0  0  0  0
    4.8170    1.7591    0.2074 H   0  0  0  0  0  0  0  0  0  0  0  0
    4.5571   -2.0432    0.3557 H   0  0  0  0  0  0  0  0  0  0  0  0
    4.3522   -0.6405    1.4140 H   0  0  0  0  0  0  0  0  0  0  0  0
  1  2  1  0
  2  3  1  0
  3  4  2  0
  4  5  1  0
  5  6  2  0
  6  7  1  0
  7  8  2  0
  8  9  1  0
  9 10  2  0
  4 11  1  0
 11 12  2  0
 12 13  1  0
 13 14  1  0
 14 15  2  0
 14 16  1  0
 16 17  1  0
 17 18  1  0
 18 19  1  0
 19 20  1  0
 19 21  1  0
 19 22  1  0
 12  2  1  0
 22 16  1  0
 10  5  1  0
  1 23  1  0
  1 24  1  0
  1 25  1  0
  6 26  1  0
  7 27  1  0
  9 28  1  0
 10 29  1  0
 11 30  1  0
 13 31  1  0
 16 32  1  0
 17 33  1  0
 17 34  1  0
 18 35  1  0
 18 36  1  0
 22 37  1  0
 22 38  1  0
M  END
$$$$
OCNT-2314226
     RDKit          3D

 48 50  0  0  0  0  0  0  0  0999 V2000
   -5.5498    1.3923   -0.1714 C   0  0  0  0  0  0  0  0  0  0  0  0
   -4.0085    1.3954   -0.0545 C   0  0  0  0  0  0  0  0  0  0  0  0
   -3.6450    2.2805    1.1572 C   0  0  0  0  0  0  0  0  0  0  0  0
   -3.4556    2.0439   -1.3423 C   0  0  0  0  0  0  0  0  0  0  0  0
   -3.3958   -0.0050    0.1253 C   0  0  0  0  0  0  0  0  0  0  0  0
   -4.1719   -1.1675    0.1815 C   0  0  0  0  0  0  0  0  0  0  0  0
   -3.5751   -2.4190    0.3467 C   0  0  0  0  0  0  0  0  0  0  0  0
   -2.1905   -2.5469    0.4642 C   0  0  0  0  0  0  0  0  0  0  0  0
   -1.7666   -3.8351    0.6075 O   0  0  0  0  0  0  0  0  0  0  0  0
   -1.3721   -1.4154    0.4131 C   0  0  0  0  0  0  0  0  0  0  0  0
    0.0434   -1.3707    0.4871 N   0  0  0  0  0  0  0  0  0  0  0  0
    0.9368   -2.3826    0.7554 C   0  0  0  0  0  0  0  0  0  0  0  0
    0.6589   -3.5323    1.0716 O   0  0  0  0  0  0  0  0  0  0  0  0
    2.3664   -1.9861    0.6772 C   0  0  0  0  0  0  0  0  0  0  0  0
    3.2431   -2.4335    1.6687 C   0  0  0  0  0  0  0  0  0  0  0  0
    4.5844   -2.0576    1.6273 C   0  0  0  0  0  0  0  0  0  0  0  0
    5.0539   -1.2520    0.5878 C   0  0  0  0  0  0  0  0  0  0  0  0
    4.1928   -0.8264   -0.4358 C   0  0  0  0  0  0  0  0  0  0  0  0
    4.7177    0.0327   -1.5606 C   0  0  0  0  0  0  0  0  0  0  0  0
    4.5051    1.4415   -1.2907 N   0  0  0  0  0  0  0  0  0  0  0  0
    3.4635    2.2156   -1.7000 C   0  0  0  0  0  0  0  0  0  0  0  0
    3.6279    3.4414   -1.2597 N   0  0  0  0  0  0  0  0  0  0  0  0
    4.8185    3.3699   -0.5919 C   0  0  0  0  0  0  0  0  0  0  0  0
    5.4007    2.1674   -0.5923 N   0  0  0  0  0  0  0  0  0  0  0  0
    2.8395   -1.1968   -0.3813 C   0  0  0  0  0  0  0  0  0  0  0  0
   -1.9962   -0.1609    0.2418 C   0  0  0  0  0  0  0  0  0  0  0  0
   -6.0219    0.9777    0.7269 H   0  0  0  0  0  0  0  0  0  0  0  0
   -5.9385    2.4099   -0.2985 H   0  0  0  0  0  0  0  0  0  0  0  0
   -5.8878    0.8084   -1.0356 H   0  0  0  0  0  0  0  0  0  0  0  0
   -4.1005    3.2742    1.0717 H   0  0  0  0  0  0  0  0  0  0  0  0
   -2.5641    2.4313    1.2518 H   0  0  0  0  0  0  0  0  0  0  0  0
   -3.9977    1.8315    2.0934 H   0  0  0  0  0  0  0  0  0  0  0  0
   -3.9056    3.0289   -1.5132 H   0  0  0  0  0  0  0  0  0  0  0  0
   -3.6697    1.4225   -2.2200 H   0  0  0  0  0  0  0  0  0  0  0  0
   -2.3709    2.1911   -1.3005 H   0  0  0  0  0  0  0  0  0  0  0  0
   -5.2546   -1.1394    0.0993 H   0  0  0  0  0  0  0  0  0  0  0  0
   -4.1975   -3.3106    0.3849 H   0  0  0  0  0  0  0  0  0  0  0  0
   -0.8118   -3.8319    0.8280 H   0  0  0  0  0  0  0  0  0  0  0  0
    0.4428   -0.4434    0.4088 H   0  0  0  0  0  0  0  0  0  0  0  0
    2.8811   -3.0646    2.4780 H   0  0  0  0  0  0  0  0  0  0  0  0
    5.2658   -2.3900    2.4074 H   0  0  0  0  0  0  0  0  0  0  0  0
    6.1031   -0.9574    0.5816 H   0  0  0  0  0  0  0  0  0  0  0  0
    5.7915   -0.1240   -1.7172 H   0  0  0  0  0  0  0  0  0  0  0  0
    4.2141   -0.2139   -2.5028 H   0  0  0  0  0  0  0  0  0  0  0  0
    2.6379    1.8507   -2.2947 H   0  0  0  0  0  0  0  0  0  0  0  0
    5.2732    4.2178   -0.0951 H   0  0  0  0  0  0  0  0  0  0  0  0
    2.1601   -0.8929   -1.1747 H   0  0  0  0  0  0  0  0  0  0  0  0
   -1.3746    0.7315    0.2008 H   0  0  0  0  0  0  0  0  0  0  0  0
  1  2  1  0
  2  3  1  0
  2  4  1  0
  2  5  1  0
  5  6  1  0
  6  7  2  0
  7  8  1  0
  8  9  1  0
  8 10  2  0
 10 11  1  0
 11 12  1  0
 12 13  2  0
 12 14  1  0
 14 15  1  0
 15 16  2  0
 16 17  1  0
 17 18  2  0
 18 19  1  0
 19 20  1  0
 20 21  1  0
 21 22  2  0
 22 23  1  0
 23 24  2  0
 18 25  1  0
 10 26  1  0
 26  5  2  0
 25 14  2  0
 24 20  1  0
  1 27  1  0
  1 28  1  0
  1 29  1  0
  3 30  1  0
  3 31  1  0
  3 32  1  0
  4 33  1  0
  4 34  1  0
  4 35  1  0
  6 36  1  0
  7 37  1  0
  9 38  1  0
 11 39  1  0
 15 40  1  0
 16 41  1  0
 17 42  1  0
 19 43  1  0
 19 44  1  0
 21 45  1  0
 23 46  1  0
 25 47  1  0
 26 48  1  0
M  END
$$$$
OCNT-2314233
     RDKit          3D

 48 50  0  0  0  0  0  0  0  0999 V2000
   -4.3995    2.0299    2.1240 C   0  0  0  0  0  0  0  0  0  0  0  0
   -3.6989    0.8979    1.6238 O   0  0  0  0  0  0  0  0  0  0  0  0
   -4.4051    0.0084    0.8548 C   0  0  0  0  0  0  0  0  0  0  0  0
   -5.7928    0.0493    0.6744 C   0  0  0  0  0  0  0  0  0  0  0  0
   -6.4306   -0.8882   -0.1408 C   0  0  0  0  0  0  0  0  0  0  0  0
   -5.6886   -1.8720   -0.7841 C   0  0  0  0  0  0  0  0  0  0  0  0
   -4.3072   -1.9250   -0.6069 C   0  0  0  0  0  0  0  0  0  0  0  0
   -3.6465   -1.0001    0.2241 C   0  0  0  0  0  0  0  0  0  0  0  0
   -2.1326   -1.0480    0.3842 C   0  0  0  0  0  0  0  0  0  0  0  0
   -1.4446   -0.1234   -0.6531 C   0  0  0  0  0  0  0  0  0  0  0  0
    0.0139   -0.0847   -0.4822 N   0  0  0  0  0  0  0  0  0  0  0  0
    0.7150    0.9639   -1.0659 C   0  0  0  0  0  0  0  0  0  0  0  0
    0.1906    1.8109   -1.7850 O   0  0  0  0  0  0  0  0  0  0  0  0
    2.1699    1.0786   -0.8155 C   0  0  0  0  0  0  0  0  0  0  0  0
    3.0328    1.2014   -1.9074 C   0  0  0  0  0  0  0  0  0  0  0  0
    4.4066    1.3319   -1.6958 C   0  0  0  0  0  0  0  0  0  0  0  0
    4.9245    1.3598   -0.3926 C   0  0  0  0  0  0  0  0  0  0  0  0
    6.4093    1.4865   -0.1666 C   0  0  0  0  0  0  0  0  0  0  0  0
    7.1023    0.1344   -0.1448 C   0  0  0  0  0  0  0  0  0  0  0  0
    8.4310    0.3272    0.0774 F   0  0  0  0  0  0  0  0  0  0  0  0
    4.0474    1.2557    0.6971 C   0  0  0  0  0  0  0  0  0  0  0  0
    2.6728    1.1253    0.4882 C   0  0  0  0  0  0  0  0  0  0  0  0
    0.6256   -1.2834    0.1007 C   0  0  0  0  0  0  0  0  0  0  0  0
   -0.2382   -2.5389   -0.1153 C   0  0  0  0  0  0  0  0  0  0  0  0
   -1.6212   -2.4455    0.3683 N   0  0  0  0  0  0  0  0  0  0  0  0
   -4.8460    2.6128    1.3116 H   0  0  0  0  0  0  0  0  0  0  0  0
   -3.6747    2.6717    2.6339 H   0  0  0  0  0  0  0  0  0  0  0  0
   -5.1531    1.7307    2.8596 H   0  0  0  0  0  0  0  0  0  0  0  0
   -6.4104    0.8004    1.1553 H   0  0  0  0  0  0  0  0  0  0  0  0
   -7.5082   -0.8463   -0.2759 H   0  0  0  0  0  0  0  0  0  0  0  0
   -6.1816   -2.5984   -1.4247 H   0  0  0  0  0  0  0  0  0  0  0  0
   -3.7394   -2.6975   -1.1226 H   0  0  0  0  0  0  0  0  0  0  0  0
   -1.8757   -0.6673    1.3824 H   0  0  0  0  0  0  0  0  0  0  0  0
   -1.8334    0.8998   -0.5825 H   0  0  0  0  0  0  0  0  0  0  0  0
   -1.6426   -0.4708   -1.6758 H   0  0  0  0  0  0  0  0  0  0  0  0
    2.6336    1.2009   -2.9193 H   0  0  0  0  0  0  0  0  0  0  0  0
    5.0676    1.4242   -2.5555 H   0  0  0  0  0  0  0  0  0  0  0  0
    6.8558    2.1179   -0.9449 H   0  0  0  0  0  0  0  0  0  0  0  0
    6.6041    2.0153    0.7747 H   0  0  0  0  0  0  0  0  0  0  0  0
    6.7177   -0.5065    0.6548 H   0  0  0  0  0  0  0  0  0  0  0  0
    6.9936   -0.3939   -1.0971 H   0  0  0  0  0  0  0  0  0  0  0  0
    4.4282    1.2912    1.7160 H   0  0  0  0  0  0  0  0  0  0  0  0
    1.9985    1.0799    1.3392 H   0  0  0  0  0  0  0  0  0  0  0  0
    0.7453   -1.0974    1.1742 H   0  0  0  0  0  0  0  0  0  0  0  0
    1.6173   -1.4487   -0.3316 H   0  0  0  0  0  0  0  0  0  0  0  0
    0.2456   -3.4025    0.3545 H   0  0  0  0  0  0  0  0  0  0  0  0
   -0.2785   -2.7546   -1.1903 H   0  0  0  0  0  0  0  0  0  0  0  0
   -1.6994   -2.8133    1.3153 H   0  0  0  0  0  0  0  0  0  0  0  0
  1  2  1  0
  2  3  1  0
  3  4  2  0
  4  5  1  0
  5  6  2  0
  6  7  1  0
  7  8  2  0
  8  9  1  0
  9 10  1  0
 10 11  1  0
 11 12  1  0
 12 13  2  0
 12 14  1  0
 14 15  1  0
 15 16  2  0
 16 17  1  0
 17 18  1  0
 18 19  1  0
 19 20  1  0
 17 21  2  0
 21 22  1  0
 11 23  1  0
 23 24  1  0
 24 25  1  0
  8  3  1  0
 25  9  1  0
 22 14  2  0
  1 26  1  0
  1 27  1  0
  1 28  1  0
  4 29  1  0
  5 30  1  0
  6 31  1  0
  7 32  1  0
  9 33  1  0
 10 34  1  0
 10 35  1  0
 15 36  1  0
 16 37  1  0
 18 38  1  0
 18 39  1  0
 19 40  1  0
 19 41  1  0
 21 42  1  0
 22 43  1  0
 23 44  1  0
 23 45  1  0
 24 46  1  0
 24 47  1  0
 25 48  1  0
M  END
$$$$
OCNT-2314235
     RDKit          3D

 46 49  0  0  0  0  0  0  0  0999 V2000
   -2.7873    0.6616   -2.1230 C   0  0  0  0  0  0  0  0  0  0  0  0
   -2.7608   -0.7860   -1.6580 C   0  0  0  0  0  0  0  0  0  0  0  0
   -3.5060   -0.9908   -0.3766 C   0  0  0  0  0  0  0  0  0  0  0  0
   -4.7917   -1.4956   -0.2648 C   0  0  0  0  0  0  0  0  0  0  0  0
   -5.1386   -1.4981    1.0602 N   0  0  0  0  0  0  0  0  0  0  0  0
   -4.1111   -0.9994    1.8094 C   0  0  0  0  0  0  0  0  0  0  0  0
   -4.1560   -0.8497    3.1405 N   0  0  0  0  0  0  0  0  0  0  0  0
   -3.0151   -0.3214    3.6061 C   0  0  0  0  0  0  0  0  0  0  0  0
   -1.9109    0.0178    2.9130 N   0  0  0  0  0  0  0  0  0  0  0  0
   -1.8884   -0.1770    1.5663 C   0  0  0  0  0  0  0  0  0  0  0  0
   -0.7273    0.1234    0.8275 N   0  0  0  0  0  0  0  0  0  0  0  0
    0.0928   -1.0847    0.6749 C   0  0  0  0  0  0  0  0  0  0  0  0
    1.1785   -0.8220   -0.3742 C   0  0  0  0  0  0  0  0  0  0  0  0
    1.8963    0.5016   -0.1922 C   0  0  0  0  0  0  0  0  0  0  0  0
    3.0823    0.7976   -0.9046 C   0  0  0  0  0  0  0  0  0  0  0  0
    3.7193   -0.1889   -1.8616 C   0  0  0  0  0  0  0  0  0  0  0  0
    4.5030   -1.2890   -1.1733 C   0  0  0  0  0  0  0  0  0  0  0  0
    5.5918   -0.8897   -0.4493 N   0  0  0  0  0  0  0  0  0  0  0  0
    4.2273   -2.4804   -1.2783 O   0  0  0  0  0  0  0  0  0  0  0  0
    3.6952    2.0524   -0.7270 C   0  0  0  0  0  0  0  0  0  0  0  0
    3.1458    3.0030    0.1293 C   0  0  0  0  0  0  0  0  0  0  0  0
    1.9663    2.7210    0.8124 C   0  0  0  0  0  0  0  0  0  0  0  0
    1.3208    1.4844    0.6465 C   0  0  0  0  0  0  0  0  0  0  0  0
    0.0405    1.2221    1.4268 C   0  0  0  0  0  0  0  0  0  0  0  0
   -3.0575   -0.6920    0.9595 C   0  0  0  0  0  0  0  0  0  0  0  0
   -3.8162    0.9998   -2.2943 H   0  0  0  0  0  0  0  0  0  0  0  0
   -2.3348    1.3290   -1.3810 H   0  0  0  0  0  0  0  0  0  0  0  0
   -2.2301    0.7691   -3.0587 H   0  0  0  0  0  0  0  0  0  0  0  0
   -3.2019   -1.4183   -2.4398 H   0  0  0  0  0  0  0  0  0  0  0  0
   -1.7253   -1.1202   -1.5518 H   0  0  0  0  0  0  0  0  0  0  0  0
   -5.4879   -1.8419   -1.0175 H   0  0  0  0  0  0  0  0  0  0  0  0
   -6.0194   -1.8015    1.4486 H   0  0  0  0  0  0  0  0  0  0  0  0
   -2.9733   -0.1465    4.6766 H   0  0  0  0  0  0  0  0  0  0  0  0
   -0.5018   -1.9453    0.3434 H   0  0  0  0  0  0  0  0  0  0  0  0
    0.5546   -1.3619    1.6329 H   0  0  0  0  0  0  0  0  0  0  0  0
    0.7221   -0.8213   -1.3711 H   0  0  0  0  0  0  0  0  0  0  0  0
    1.8899   -1.6500   -0.3256 H   0  0  0  0  0  0  0  0  0  0  0  0
    2.9479   -0.6439   -2.4928 H   0  0  0  0  0  0  0  0  0  0  0  0
    4.3974    0.3282   -2.5532 H   0  0  0  0  0  0  0  0  0  0  0  0
    6.0366   -1.6237    0.0891 H   0  0  0  0  0  0  0  0  0  0  0  0
    5.6055    0.0374   -0.0433 H   0  0  0  0  0  0  0  0  0  0  0  0
    4.5984    2.3061   -1.2777 H   0  0  0  0  0  0  0  0  0  0  0  0
    3.6255    3.9720    0.2469 H   0  0  0  0  0  0  0  0  0  0  0  0
    1.5407    3.4763    1.4700 H   0  0  0  0  0  0  0  0  0  0  0  0
    0.3335    1.0028    2.4629 H   0  0  0  0  0  0  0  0  0  0  0  0
   -0.5708    2.1335    1.4161 H   0  0  0  0  0  0  0  0  0  0  0  0
  1  2  1  0
  2  3  1  0
  3  4  2  0
  4  5  1  0
  5  6  1  0
  6  7  2  0
  7  8  1  0
  8  9  2  0
  9 10  1  0
 10 11  1  0
 11 12  1  0
 12 13  1  0
 13 14  1  0
 14 15  2  0
 15 16  1  0
 16 17  1  0
 17 18  1  0
 17 19  2  0
 15 20  1  0
 20 21  2  0
 21 22  1  0
 22 23  2  0
 23 24  1  0
 10 25  2  0
 25  3  1  0
 25  6  1  0
 24 11  1  0
 23 14  1  0
  1 26  1  0
  1 27  1  0
  1 28  1  0
  2 29  1  0
  2 30  1  0
  4 31  1  0
  5 32  1  0
  8 33  1  0
 12 34  1  0
 12 35  1  0
 13 36  1  0
 13 37  1  0
 16 38  1  0
 16 39  1  0
 18 40  1  0
 18 41  1  0
 20 42  1  0
 21 43  1  0
 22 44  1  0
 24 45  1  0
 24 46  1  0
M  END
$$$$
OCNT-2314237
     RDKit          3D

 42 45  0  0  0  0  0  0  0  0999 V2000
    6.2437    0.4626   -1.5397 C   0  0  0  0  0  0  0  0  0  0  0  0
    6.5084    1.2084   -0.3955 C   0  0  0  0  0  0  0  0  0  0  0  0
    5.6760    1.1222    0.7250 C   0  0  0  0  0  0  0  0  0  0  0  0
    4.5655    0.2636    0.6642 C   0  0  0  0  0  0  0  0  0  0  0  0
    3.3740   -0.0570    1.8632 S   0  0  0  0  0  0  0  0  0  0  0  0
    2.5782   -1.1422    0.7896 C   0  0  0  0  0  0  0  0  0  0  0  0
    1.3275   -1.8680    1.2332 C   0  0  0  0  0  0  0  0  0  0  0  0
    0.0477   -1.3294    0.7392 N   0  0  0  0  0  0  0  0  0  0  0  0
   -0.2166    0.0484    1.1294 C   0  0  0  0  0  0  0  0  0  0  0  0
   -1.7000    0.3869    0.9255 C   0  0  0  0  0  0  0  0  0  0  0  0
   -2.3258   -0.3001   -0.3072 C   0  0  0  0  0  0  0  0  0  0  0  0
   -3.4179    0.5603   -0.9637 C   0  0  0  0  0  0  0  0  0  0  0  0
   -4.6126    0.7574   -0.0948 C   0  0  0  0  0  0  0  0  0  0  0  0
   -4.9798    1.8624    0.6438 C   0  0  0  0  0  0  0  0  0  0  0  0
   -6.1534    1.5143    1.2523 N   0  0  0  0  0  0  0  0  0  0  0  0
   -6.4550    0.2404    0.8664 C   0  0  0  0  0  0  0  0  0  0  0  0
   -5.5465   -0.2422    0.0514 N   0  0  0  0  0  0  0  0  0  0  0  0
   -1.2286   -0.6534   -1.3165 C   0  0  0  0  0  0  0  0  0  0  0  0
   -0.1639   -1.5690   -0.6930 C   0  0  0  0  0  0  0  0  0  0  0  0
    3.1548   -1.2947   -0.3855 N   0  0  0  0  0  0  0  0  0  0  0  0
    4.2803   -0.4936   -0.4727 C   0  0  0  0  0  0  0  0  0  0  0  0
    5.1355   -0.3895   -1.5885 C   0  0  0  0  0  0  0  0  0  0  0  0
    6.9004    0.5394   -2.4031 H   0  0  0  0  0  0  0  0  0  0  0  0
    7.3742    1.8670   -0.3700 H   0  0  0  0  0  0  0  0  0  0  0  0
    5.8842    1.7037    1.6178 H   0  0  0  0  0  0  0  0  0  0  0  0
    1.4147   -2.9180    0.9237 H   0  0  0  0  0  0  0  0  0  0  0  0
    1.2866   -1.9034    2.3298 H   0  0  0  0  0  0  0  0  0  0  0  0
    0.4036    0.7469    0.5530 H   0  0  0  0  0  0  0  0  0  0  0  0
    0.0202    0.2098    2.1882 H   0  0  0  0  0  0  0  0  0  0  0  0
   -1.7905    1.4778    0.8542 H   0  0  0  0  0  0  0  0  0  0  0  0
   -2.2687    0.0863    1.8152 H   0  0  0  0  0  0  0  0  0  0  0  0
   -2.7833   -1.2424    0.0280 H   0  0  0  0  0  0  0  0  0  0  0  0
   -3.7520    0.0792   -1.8921 H   0  0  0  0  0  0  0  0  0  0  0  0
   -3.0060    1.5350   -1.2545 H   0  0  0  0  0  0  0  0  0  0  0  0
   -4.5203    2.8300    0.7848 H   0  0  0  0  0  0  0  0  0  0  0  0
   -6.7034    2.0900    1.8743 H   0  0  0  0  0  0  0  0  0  0  0  0
   -7.3408   -0.2784    1.2074 H   0  0  0  0  0  0  0  0  0  0  0  0
   -0.7516    0.2691   -1.6737 H   0  0  0  0  0  0  0  0  0  0  0  0
   -1.6578   -1.1482   -2.1959 H   0  0  0  0  0  0  0  0  0  0  0  0
    0.7525   -1.4450   -1.2796 H   0  0  0  0  0  0  0  0  0  0  0  0
   -0.4784   -2.6124   -0.8170 H   0  0  0  0  0  0  0  0  0  0  0  0
    4.9246   -0.9742   -2.4783 H   0  0  0  0  0  0  0  0  0  0  0  0
  1  2  2  0
  2  3  1  0
  3  4  2  0
  4  5  1  0
  5  6  1  0
  6  7  1  0
  7  8  1  0
  8  9  1  0
  9 10  1  0
 10 11  1  0
 11 12  1  0
 12 13  1  0
 13 14  2  0
 14 15  1  0
 15 16  1  0
 16 17  2  0
 11 18  1  0
 18 19  1  0
  6 20  2  0
 20 21  1  0
 21 22  2  0
 22  1  1  0
 21  4  1  0
 19  8  1  0
 17 13  1  0
  1 23  1  0
  2 24  1  0
  3 25  1  0
  7 26  1  0
  7 27  1  0
  9 28  1  0
  9 29  1  0
 10 30  1  0
 10 31  1  0
 11 32  1  0
 12 33  1  0
 12 34  1  0
 14 35  1  0
 15 36  1  0
 16 37  1  0
 18 38  1  0
 18 39  1  0
 19 40  1  0
 19 41  1  0
 22 42  1  0
M  END
$$$$
OCNT-2314242
     RDKit          3D

 43 46  0  0  0  0  0  0  0  0999 V2000
   -2.3928    2.1613   -1.0571 C   0  0  0  0  0  0  0  0  0  0  0  0
   -2.6367    1.4017    0.2459 C   0  0  0  0  0  0  0  0  0  0  0  0
   -1.8777    2.0247    1.4189 C   0  0  0  0  0  0  0  0  0  0  0  0
   -2.4503   -0.0396    0.0884 N   0  0  0  0  0  0  0  0  0  0  0  0
   -3.4945   -0.9340   -0.0894 C   0  0  0  0  0  0  0  0  0  0  0  0
   -4.8848   -0.7860   -0.2070 C   0  0  0  0  0  0  0  0  0  0  0  0
   -5.6454   -1.9502   -0.3721 C   0  0  0  0  0  0  0  0  0  0  0  0
   -5.0432   -3.2071   -0.4182 C   0  0  0  0  0  0  0  0  0  0  0  0
   -3.6551   -3.3355   -0.3030 C   0  0  0  0  0  0  0  0  0  0  0  0
   -2.8783   -2.1787   -0.1397 C   0  0  0  0  0  0  0  0  0  0  0  0
   -1.5234   -2.0594   -0.0161 N   0  0  0  0  0  0  0  0  0  0  0  0
   -1.2712   -0.7681    0.0910 C   0  0  0  0  0  0  0  0  0  0  0  0
    0.0803   -0.2308    0.2142 C   0  0  0  0  0  0  0  0  0  0  0  0
    0.7351    0.3202   -0.8942 C   0  0  0  0  0  0  0  0  0  0  0  0
    2.0320    0.8240   -0.7689 C   0  0  0  0  0  0  0  0  0  0  0  0
    2.6898    0.7433    0.4599 C   0  0  0  0  0  0  0  0  0  0  0  0
    3.9405    1.2812    0.6394 O   0  0  0  0  0  0  0  0  0  0  0  0
    4.9877    0.6891   -0.0549 C   0  0  0  0  0  0  0  0  0  0  0  0
    6.2041    1.3591   -0.0498 C   0  0  0  0  0  0  0  0  0  0  0  0
    7.3098    0.8777   -0.6711 N   0  0  0  0  0  0  0  0  0  0  0  0
    7.1429   -0.3132   -1.2905 C   0  0  0  0  0  0  0  0  0  0  0  0
    5.9321   -0.9878   -1.2904 C   0  0  0  0  0  0  0  0  0  0  0  0
    4.8297   -0.5050   -0.6738 N   0  0  0  0  0  0  0  0  0  0  0  0
    2.0510    0.1894    1.5685 C   0  0  0  0  0  0  0  0  0  0  0  0
    0.7540   -0.3124    1.4407 C   0  0  0  0  0  0  0  0  0  0  0  0
   -1.3369    2.1643   -1.3384 H   0  0  0  0  0  0  0  0  0  0  0  0
   -2.7089    3.2053   -0.9566 H   0  0  0  0  0  0  0  0  0  0  0  0
   -2.9579    1.7180   -1.8842 H   0  0  0  0  0  0  0  0  0  0  0  0
   -3.6967    1.5354    0.4938 H   0  0  0  0  0  0  0  0  0  0  0  0
   -2.2845    3.0169    1.6452 H   0  0  0  0  0  0  0  0  0  0  0  0
   -1.9689    1.4123    2.3222 H   0  0  0  0  0  0  0  0  0  0  0  0
   -0.8161    2.1640    1.1988 H   0  0  0  0  0  0  0  0  0  0  0  0
   -5.3686    0.1839   -0.1757 H   0  0  0  0  0  0  0  0  0  0  0  0
   -6.7266   -1.8721   -0.4662 H   0  0  0  0  0  0  0  0  0  0  0  0
   -5.6543   -4.0970   -0.5468 H   0  0  0  0  0  0  0  0  0  0  0  0
   -3.1756   -4.3072   -0.3413 H   0  0  0  0  0  0  0  0  0  0  0  0
    0.2435    0.3463   -1.8637 H   0  0  0  0  0  0  0  0  0  0  0  0
    2.5300    1.2569   -1.6314 H   0  0  0  0  0  0  0  0  0  0  0  0
    6.3223    2.3088    0.4589 H   0  0  0  0  0  0  0  0  0  0  0  0
    8.0160   -0.7167   -1.7907 H   0  0  0  0  0  0  0  0  0  0  0  0
    5.8156   -1.9433   -1.7894 H   0  0  0  0  0  0  0  0  0  0  0  0
    2.5642    0.1322    2.5239 H   0  0  0  0  0  0  0  0  0  0  0  0
    0.2679   -0.7721    2.2985 H   0  0  0  0  0  0  0  0  0  0  0  0
  1  2  1  0
  2  3  1  0
  2  4  1  0
  4  5  1  0
  5  6  2  0
  6  7  1  0
  7  8  2  0
  8  9  1  0
  9 10  2  0
 10 11  1  0
 11 12  2  0
 12 13  1  0
 13 14  1  0
 14 15  2  0
 15 16  1  0
 16 17  1  0
 17 18  1  0
 18 19  2  0
 19 20  1  0
 20 21  2  0
 21 22  1  0
 22 23  2  0
 16 24  2  0
 24 25  1  0
 12  4  1  0
 25 13  2  0
 10  5  1  0
 23 18  1  0
  1 26  1  0
  1 27  1  0
  1 28  1  0
  2 29  1  0
  3 30  1  0
  3 31  1  0
  3 32  1  0
  6 33  1  0
  7 34  1  0
  8 35  1  0
  9 36  1  0
 14 37  1  0
 15 38  1  0
 19 39  1  0
 21 40  1  0
 22 41  1  0
 24 42  1  0
 25 43  1  0
M  END
$$$$
OCNT-2314243
     RDKit          3D

 49 52  0  0  0  0  0  0  0  0999 V2000
    6.7232    1.3559    0.3631 C   0  0  0  0  0  0  0  0  0  0  0  0
    5.4789    0.6509    0.7275 C   0  0  0  0  0  0  0  0  0  0  0  0
    4.7885    0.9278    1.8400 N   0  0  0  0  0  0  0  0  0  0  0  0
    3.7618    0.0686    1.7376 N   0  0  0  0  0  0  0  0  0  0  0  0
    3.8538   -0.6860    0.6043 C   0  0  0  0  0  0  0  0  0  0  0  0
    2.8494   -1.7296    0.2574 C   0  0  0  0  0  0  0  0  0  0  0  0
    1.4612   -1.2162    0.2972 N   0  0  0  0  0  0  0  0  0  0  0  0
    0.5490   -2.3855    0.3071 C   0  0  0  0  0  0  0  0  0  0  0  0
   -0.9032   -2.0253    0.2621 C   0  0  0  0  0  0  0  0  0  0  0  0
   -1.5287   -0.7828    0.2600 C   0  0  0  0  0  0  0  0  0  0  0  0
   -0.8495    0.5301    0.4842 C   0  0  0  0  0  0  0  0  0  0  0  0
    0.2717    0.8556   -0.5409 C   0  0  0  0  0  0  0  0  0  0  0  0
   -0.3277    1.3789   -1.8604 C   0  0  0  0  0  0  0  0  0  0  0  0
    1.1281    1.9908    0.0654 C   0  0  0  0  0  0  0  0  0  0  0  0
    1.1855   -0.3621   -0.8805 C   0  0  0  0  0  0  0  0  0  0  0  0
   -2.9007   -1.0239    0.1699 N   0  0  0  0  0  0  0  0  0  0  0  0
   -4.0122   -0.1408    0.0058 C   0  0  0  0  0  0  0  0  0  0  0  0
   -5.2952   -0.5957    0.3613 C   0  0  0  0  0  0  0  0  0  0  0  0
   -6.4131    0.2294    0.2147 C   0  0  0  0  0  0  0  0  0  0  0  0
   -6.2672    1.5118   -0.3048 C   0  0  0  0  0  0  0  0  0  0  0  0
   -5.0068    1.9627   -0.6891 C   0  0  0  0  0  0  0  0  0  0  0  0
   -3.8851    1.1385   -0.5418 C   0  0  0  0  0  0  0  0  0  0  0  0
   -3.1547   -2.3605    0.2610 N   0  0  0  0  0  0  0  0  0  0  0  0
   -1.9643   -2.9454    0.2561 C   0  0  0  0  0  0  0  0  0  0  0  0
    4.9365   -0.3341   -0.0576 N   0  0  0  0  0  0  0  0  0  0  0  0
    7.3619    0.7175   -0.2579 H   0  0  0  0  0  0  0  0  0  0  0  0
    7.2928    1.6383    1.2554 H   0  0  0  0  0  0  0  0  0  0  0  0
    6.4912    2.2647   -0.2028 H   0  0  0  0  0  0  0  0  0  0  0  0
    3.0305    0.0616    2.4395 H   0  0  0  0  0  0  0  0  0  0  0  0
    3.0815   -2.1658   -0.7230 H   0  0  0  0  0  0  0  0  0  0  0  0
    2.9701   -2.5331    0.9966 H   0  0  0  0  0  0  0  0  0  0  0  0
    0.7183   -2.9572    1.2290 H   0  0  0  0  0  0  0  0  0  0  0  0
    0.7687   -3.0531   -0.5377 H   0  0  0  0  0  0  0  0  0  0  0  0
   -1.5425    1.3682    0.5760 H   0  0  0  0  0  0  0  0  0  0  0  0
   -0.3996    0.4653    1.4871 H   0  0  0  0  0  0  0  0  0  0  0  0
   -0.9040    2.2965   -1.7005 H   0  0  0  0  0  0  0  0  0  0  0  0
   -0.9907    0.6378   -2.3199 H   0  0  0  0  0  0  0  0  0  0  0  0
    0.4609    1.6121   -2.5853 H   0  0  0  0  0  0  0  0  0  0  0  0
    1.5687    1.6939    1.0217 H   0  0  0  0  0  0  0  0  0  0  0  0
    0.5217    2.8854    0.2489 H   0  0  0  0  0  0  0  0  0  0  0  0
    1.9447    2.2783   -0.6063 H   0  0  0  0  0  0  0  0  0  0  0  0
    0.7578   -0.9581   -1.6997 H   0  0  0  0  0  0  0  0  0  0  0  0
    2.1174    0.0368   -1.3049 H   0  0  0  0  0  0  0  0  0  0  0  0
   -5.4385   -1.5945    0.7713 H   0  0  0  0  0  0  0  0  0  0  0  0
   -7.3955   -0.1343    0.5044 H   0  0  0  0  0  0  0  0  0  0  0  0
   -7.1363    2.1534   -0.4238 H   0  0  0  0  0  0  0  0  0  0  0  0
   -4.8967    2.9545   -1.1213 H   0  0  0  0  0  0  0  0  0  0  0  0
   -2.9440    1.5120   -0.9194 H   0  0  0  0  0  0  0  0  0  0  0  0
   -1.9177   -4.0271    0.2731 H   0  0  0  0  0  0  0  0  0  0  0  0
  1  2  1  0
  2  3  2  0
  3  4  1  0
  4  5  1  0
  5  6  1  0
  6  7  1  0
  7  8  1  0
  8  9  1  0
  9 10  2  0
 10 11  1  0
 11 12  1  0
 12 13  1  0
 12 14  1  0
 12 15  1  0
 10 16  1  0
 16 17  1  0
 17 18  2  0
 18 19  1  0
 19 20  2  0
 20 21  1  0
 21 22  2  0
 16 23  1  0
 23 24  2  0
  5 25  2  0
 25  2  1  0
 15  7  1  0
 22 17  1  0
 24  9  1  0
  1 26  1  0
  1 27  1  0
  1 28  1  0
  4 29  1  0
  6 30  1  0
  6 31  1  0
  8 32  1  0
  8 33  1  0
 11 34  1  0
 11 35  1  0
 13 36  1  0
 13 37  1  0
 13 38  1  0
 14 39  1  0
 14 40  1  0
 14 41  1  0
 15 42  1  0
 15 43  1  0
 18 44  1  0
 19 45  1  0
 20 46  1  0
 21 47  1  0
 22 48  1  0
 24 49  1  0
M  END
$$$$
OCNT-2314254
     RDKit          3D

 42 45  0  0  0  0  0  0  0  0999 V2000
   -1.7287   -2.0554    2.2644 O   0  0  0  0  0  0  0  0  0  0  0  0
   -1.6162   -1.1299    1.4656 C   0  0  0  0  0  0  0  0  0  0  0  0
   -0.4220   -0.4966    1.2343 N   0  0  0  0  0  0  0  0  0  0  0  0
    0.8197   -0.9796    1.8039 C   0  0  0  0  0  0  0  0  0  0  0  0
    1.9718    0.0068    1.5463 C   0  0  0  0  0  0  0  0  0  0  0  0
    2.0544    0.4620    0.1381 N   0  0  0  0  0  0  0  0  0  0  0  0
    2.3825   -0.6262   -0.8177 C   0  0  0  0  0  0  0  0  0  0  0  0
    3.7750   -1.2728   -0.6362 C   0  0  0  0  0  0  0  0  0  0  0  0
    4.7788   -0.2092   -0.3288 C   0  0  0  0  0  0  0  0  0  0  0  0
    4.4432    1.0925   -0.0092 C   0  0  0  0  0  0  0  0  0  0  0  0
    5.6119    1.8657    0.2704 C   0  0  0  0  0  0  0  0  0  0  0  0
    6.7679    1.1224    0.1557 C   0  0  0  0  0  0  0  0  0  0  0  0
    6.4500   -0.5008   -0.2879 S   0  0  0  0  0  0  0  0  0  0  0  0
    3.0209    1.5800   -0.0027 C   0  0  0  0  0  0  0  0  0  0  0  0
   -2.7336   -0.6440    0.6883 C   0  0  0  0  0  0  0  0  0  0  0  0
   -2.8606    0.3904   -0.2241 C   0  0  0  0  0  0  0  0  0  0  0  0
   -4.2048    0.4162   -0.6916 C   0  0  0  0  0  0  0  0  0  0  0  0
   -4.9088    1.2225   -1.6064 C   0  0  0  0  0  0  0  0  0  0  0  0
   -6.2654    0.9678   -1.8398 C   0  0  0  0  0  0  0  0  0  0  0  0
   -6.9181   -0.0697   -1.1770 C   0  0  0  0  0  0  0  0  0  0  0  0
   -6.2390   -0.8820   -0.2637 C   0  0  0  0  0  0  0  0  0  0  0  0
   -4.8834   -0.6128   -0.0436 C   0  0  0  0  0  0  0  0  0  0  0  0
   -3.9776   -1.2306    0.7837 N   0  0  0  0  0  0  0  0  0  0  0  0
   -0.3300    0.1118    0.4311 H   0  0  0  0  0  0  0  0  0  0  0  0
    0.6796   -1.1256    2.8808 H   0  0  0  0  0  0  0  0  0  0  0  0
    1.0317   -1.9606    1.3648 H   0  0  0  0  0  0  0  0  0  0  0  0
    2.9105   -0.4318    1.9029 H   0  0  0  0  0  0  0  0  0  0  0  0
    1.7770    0.8862    2.1747 H   0  0  0  0  0  0  0  0  0  0  0  0
    1.6127   -1.4058   -0.7974 H   0  0  0  0  0  0  0  0  0  0  0  0
    2.3227   -0.2040   -1.8308 H   0  0  0  0  0  0  0  0  0  0  0  0
    4.0467   -1.8172   -1.5475 H   0  0  0  0  0  0  0  0  0  0  0  0
    3.7439   -1.9927    0.1902 H   0  0  0  0  0  0  0  0  0  0  0  0
    5.6082    2.9152    0.5392 H   0  0  0  0  0  0  0  0  0  0  0  0
    7.7861    1.4522    0.3098 H   0  0  0  0  0  0  0  0  0  0  0  0
    2.8690    2.3278    0.7848 H   0  0  0  0  0  0  0  0  0  0  0  0
    2.8246    2.0914   -0.9537 H   0  0  0  0  0  0  0  0  0  0  0  0
   -2.0781    1.0707   -0.5319 H   0  0  0  0  0  0  0  0  0  0  0  0
   -4.4081    2.0335   -2.1265 H   0  0  0  0  0  0  0  0  0  0  0  0
   -6.8138    1.5873   -2.5451 H   0  0  0  0  0  0  0  0  0  0  0  0
   -7.9728   -0.2513   -1.3714 H   0  0  0  0  0  0  0  0  0  0  0  0
   -6.7498   -1.6884    0.2523 H   0  0  0  0  0  0  0  0  0  0  0  0
   -4.1778   -2.0152    1.3901 H   0  0  0  0  0  0  0  0  0  0  0  0
  1  2  2  0
  2  3  1  0
  3  4  1  0
  4  5  1  0
  5  6  1  0
  6  7  1  0
  7  8  1  0
  8  9  1  0
  9 10  2  0
 10 11  1  0
 11 12  2  0
 12 13  1  0
 10 14  1  0
  2 15  1  0
 15 16  2  0
 16 17  1  0
 17 18  2  0
 18 19  1  0
 19 20  2  0
 20 21  1  0
 21 22  2  0
 22 23  1  0
 14  6  1  0
 23 15  1  0
 13  9  1  0
 22 17  1  0
  3 24  1  0
  4 25  1  0
  4 26  1  0
  5 27  1  0
  5 28  1  0
  7 29  1  0
  7 30  1  0
  8 31  1  0
  8 32  1  0
 11 33  1  0
 12 34  1  0
 14 35  1  0
 14 36  1  0
 16 37  1  0
 18 38  1  0
 19 39  1  0
 20 40  1  0
 21 41  1  0
 23 42  1  0
M  END
$$$$
OCNT-2314255
     RDKit          3D

 48 51  0  0  0  0  0  0  0  0999 V2000
    0.4884    1.2234    2.7460 O   0  0  0  0  0  0  0  0  0  0  0  0
    0.2551    1.0446    1.5581 C   0  0  0  0  0  0  0  0  0  0  0  0
   -0.9737    0.7216    1.0574 N   0  0  0  0  0  0  0  0  0  0  0  0
   -2.1217    0.7088    1.9338 C   0  0  0  0  0  0  0  0  0  0  0  0
   -3.3314    0.4193    1.1115 C   0  0  0  0  0  0  0  0  0  0  0  0
   -4.4849   -0.2495    1.4671 C   0  0  0  0  0  0  0  0  0  0  0  0
   -5.2653   -0.2276    0.3501 N   0  0  0  0  0  0  0  0  0  0  0  0
   -6.6080   -0.7550    0.2181 C   0  0  0  0  0  0  0  0  0  0  0  0
   -7.0452   -0.8748   -1.2421 C   0  0  0  0  0  0  0  0  0  0  0  0
   -6.6707    0.3848   -2.0263 C   0  0  0  0  0  0  0  0  0  0  0  0
   -5.1570    0.6116   -2.0061 C   0  0  0  0  0  0  0  0  0  0  0  0
   -4.5893    0.4410   -0.6385 C   0  0  0  0  0  0  0  0  0  0  0  0
   -3.4125    0.8428   -0.2068 N   0  0  0  0  0  0  0  0  0  0  0  0
    1.1991    1.1249    0.5660 N   0  0  0  0  0  0  0  0  0  0  0  0
    2.6106    1.4045    0.8616 C   0  0  0  0  0  0  0  0  0  0  0  0
    3.4099    0.2003    1.4128 C   0  0  0  0  0  0  0  0  0  0  0  0
    4.6043    0.6844    0.5432 C   0  0  0  0  0  0  0  0  0  0  0  0
    5.5885   -0.3879   -0.0905 C   0  0  0  0  0  0  0  0  0  0  0  0
    5.1317   -1.5237   -0.7912 C   0  0  0  0  0  0  0  0  0  0  0  0
    6.0083   -2.4615   -1.3473 C   0  0  0  0  0  0  0  0  0  0  0  0
    7.3824   -2.2897   -1.2189 C   0  0  0  0  0  0  0  0  0  0  0  0
    7.8682   -1.1819   -0.5352 C   0  0  0  0  0  0  0  0  0  0  0  0
    9.5665   -0.9568   -0.3699 Cl  0  0  0  0  0  0  0  0  0  0  0  0
    6.9878   -0.2487    0.0185 C   0  0  0  0  0  0  0  0  0  0  0  0
    3.5427    1.3588   -0.3716 C   0  0  0  0  0  0  0  0  0  0  0  0
   -1.1898    1.0451    0.1230 H   0  0  0  0  0  0  0  0  0  0  0  0
   -1.9662   -0.0493    2.7083 H   0  0  0  0  0  0  0  0  0  0  0  0
   -2.2145    1.6897    2.4121 H   0  0  0  0  0  0  0  0  0  0  0  0
   -4.7966   -0.7141    2.3921 H   0  0  0  0  0  0  0  0  0  0  0  0
   -7.2665   -0.0663    0.7597 H   0  0  0  0  0  0  0  0  0  0  0  0
   -6.6402   -1.7323    0.7108 H   0  0  0  0  0  0  0  0  0  0  0  0
   -6.5594   -1.7444   -1.7025 H   0  0  0  0  0  0  0  0  0  0  0  0
   -8.1261   -1.0458   -1.2915 H   0  0  0  0  0  0  0  0  0  0  0  0
   -7.0173    0.3014   -3.0623 H   0  0  0  0  0  0  0  0  0  0  0  0
   -7.1808    1.2506   -1.5849 H   0  0  0  0  0  0  0  0  0  0  0  0
   -4.9287    1.6141   -2.3841 H   0  0  0  0  0  0  0  0  0  0  0  0
   -4.6700   -0.1075   -2.6757 H   0  0  0  0  0  0  0  0  0  0  0  0
    0.9313    0.6886   -0.3051 H   0  0  0  0  0  0  0  0  0  0  0  0
    2.7337    2.3211    1.4528 H   0  0  0  0  0  0  0  0  0  0  0  0
    3.5853    0.2120    2.4926 H   0  0  0  0  0  0  0  0  0  0  0  0
    3.0024   -0.7794    1.1370 H   0  0  0  0  0  0  0  0  0  0  0  0
    5.1776    1.4533    1.0874 H   0  0  0  0  0  0  0  0  0  0  0  0
    4.0607   -1.6842   -0.9068 H   0  0  0  0  0  0  0  0  0  0  0  0
    5.6143   -3.3242   -1.8786 H   0  0  0  0  0  0  0  0  0  0  0  0
    8.0638   -3.0175   -1.6499 H   0  0  0  0  0  0  0  0  0  0  0  0
    7.3923    0.6108    0.5501 H   0  0  0  0  0  0  0  0  0  0  0  0
    3.1819    0.7311   -1.1951 H   0  0  0  0  0  0  0  0  0  0  0  0
    3.8289    2.3337   -0.7770 H   0  0  0  0  0  0  0  0  0  0  0  0
  1  2  2  0
  2  3  1  0
  3  4  1  0
  4  5  1  0
  5  6  2  0
  6  7  1  0
  7  8  1  0
  8  9  1  0
  9 10  1  0
 10 11  1  0
 11 12  1  0
 12 13  2  0
  2 14  1  0
 14 15  1  0
 15 16  1  0
 16 17  1  0
 17 18  1  0
 18 19  2  0
 19 20  1  0
 20 21  2  0
 21 22  1  0
 22 23  1  0
 22 24  2  0
 17 25  1  0
 13  5  1  0
 25 15  1  0
 12  7  1  0
 24 18  1  0
  3 26  1  0
  4 27  1  0
  4 28  1  0
  6 29  1  0
  8 30  1  0
  8 31  1  0
  9 32  1  0
  9 33  1  0
 10 34  1  0
 10 35  1  0
 11 36  1  0
 11 37  1  0
 14 38  1  0
 15 39  1  0
 16 40  1  0
 16 41  1  0
 17 42  1  0
 19 43  1  0
 20 44  1  0
 21 45  1  0
 24 46  1  0
 25 47  1  0
 25 48  1  0
M  END
$$$$
OCNT-2314261
     RDKit          3D

 42 44  0  0  0  0  0  0  0  0999 V2000
    1.9589   -0.7793    2.6187 O   0  0  0  0  0  0  0  0  0  0  0  0
    1.5138   -0.6606    1.4814 C   0  0  0  0  0  0  0  0  0  0  0  0
    0.1367   -0.0439    1.1962 C   0  0  0  0  0  0  0  0  0  0  0  0
    0.1423    0.6018   -0.1309 N   0  0  0  0  0  0  0  0  0  0  0  0
   -1.1679    1.0656   -0.6301 C   0  0  0  0  0  0  0  0  0  0  0  0
   -1.6027    2.4369   -0.0751 C   0  0  0  0  0  0  0  0  0  0  0  0
   -2.0919    2.4859    1.3684 C   0  0  0  0  0  0  0  0  0  0  0  0
   -3.0538    1.3634    1.7176 C   0  0  0  0  0  0  0  0  0  0  0  0
   -3.9199    1.1073    0.6144 O   0  0  0  0  0  0  0  0  0  0  0  0
   -3.5024    0.0366   -0.1362 C   0  0  0  0  0  0  0  0  0  0  0  0
   -4.4353   -0.9924   -0.3547 C   0  0  0  0  0  0  0  0  0  0  0  0
   -6.1819   -0.9238    0.3923 Br  0  0  0  0  0  0  0  0  0  0  0  0
   -4.0978   -2.1109   -1.1171 C   0  0  0  0  0  0  0  0  0  0  0  0
   -2.8303   -2.2036   -1.6803 C   0  0  0  0  0  0  0  0  0  0  0  0
   -1.9090   -1.1737   -1.4881 C   0  0  0  0  0  0  0  0  0  0  0  0
   -2.2222   -0.0309   -0.7181 C   0  0  0  0  0  0  0  0  0  0  0  0
    2.1648   -1.0935    0.3481 N   0  0  0  0  0  0  0  0  0  0  0  0
    3.5165   -1.5879    0.3636 C   0  0  0  0  0  0  0  0  0  0  0  0
    4.4600   -0.4494    0.1413 C   0  0  0  0  0  0  0  0  0  0  0  0
    4.6599    0.1317   -1.2363 C   0  0  0  0  0  0  0  0  0  0  0  0
    5.7601   -0.6650   -0.5903 C   0  0  0  0  0  0  0  0  0  0  0  0
   -0.0577    0.6864    1.9839 H   0  0  0  0  0  0  0  0  0  0  0  0
   -0.5886   -0.8606    1.2580 H   0  0  0  0  0  0  0  0  0  0  0  0
    0.7821    1.3972   -0.0944 H   0  0  0  0  0  0  0  0  0  0  0  0
   -0.9628    1.2958   -1.6875 H   0  0  0  0  0  0  0  0  0  0  0  0
   -2.4043    2.8255   -0.7198 H   0  0  0  0  0  0  0  0  0  0  0  0
   -0.7790    3.1549   -0.1847 H   0  0  0  0  0  0  0  0  0  0  0  0
   -1.2571    2.5024    2.0757 H   0  0  0  0  0  0  0  0  0  0  0  0
   -2.6097    3.4448    1.5025 H   0  0  0  0  0  0  0  0  0  0  0  0
   -2.5303    0.4587    2.0506 H   0  0  0  0  0  0  0  0  0  0  0  0
   -3.6789    1.6738    2.5627 H   0  0  0  0  0  0  0  0  0  0  0  0
   -4.8155   -2.9110   -1.2774 H   0  0  0  0  0  0  0  0  0  0  0  0
   -2.5604   -3.0711   -2.2773 H   0  0  0  0  0  0  0  0  0  0  0  0
   -0.9275   -1.2574   -1.9536 H   0  0  0  0  0  0  0  0  0  0  0  0
    1.7544   -0.7830   -0.5275 H   0  0  0  0  0  0  0  0  0  0  0  0
    3.5950   -2.3385   -0.4298 H   0  0  0  0  0  0  0  0  0  0  0  0
    3.7296   -2.0726    1.3218 H   0  0  0  0  0  0  0  0  0  0  0  0
    4.4730    0.2305    0.9872 H   0  0  0  0  0  0  0  0  0  0  0  0
    4.7914    1.2048   -1.3177 H   0  0  0  0  0  0  0  0  0  0  0  0
    4.1362   -0.3160   -2.0730 H   0  0  0  0  0  0  0  0  0  0  0  0
    6.6342   -0.1302   -0.2353 H   0  0  0  0  0  0  0  0  0  0  0  0
    5.9778   -1.6485   -0.9911 H   0  0  0  0  0  0  0  0  0  0  0  0
  1  2  2  0
  2  3  1  0
  3  4  1  0
  4  5  1  0
  5  6  1  0
  6  7  1  0
  7  8  1  0
  8  9  1  0
  9 10  1  0
 10 11  2  0
 11 12  1  0
 11 13  1  0
 13 14  2  0
 14 15  1  0
 15 16  2  0
  2 17  1  0
 17 18  1  0
 18 19  1  0
 19 20  1  0
 20 21  1  0
 16  5  1  0
 21 19  1  0
 16 10  1  0
  3 22  1  0
  3 23  1  0
  4 24  1  0
  5 25  1  0
  6 26  1  0
  6 27  1  0
  7 28  1  0
  7 29  1  0
  8 30  1  0
  8 31  1  0
 13 32  1  0
 14 33  1  0
 15 34  1  0
 17 35  1  0
 18 36  1  0
 18 37  1  0
 19 38  1  0
 20 39  1  0
 20 40  1  0
 21 41  1  0
 21 42  1  0
M  END
$$$$
OCNT-2314262
     RDKit          3D

 50 53  0  0  0  0  0  0  0  0999 V2000
   -1.7640   -3.8855    1.7193 C   0  0  0  0  0  0  0  0  0  0  0  0
   -1.4029   -2.4687    1.9776 C   0  0  0  0  0  0  0  0  0  0  0  0
   -0.9012   -2.0066    3.1050 N   0  0  0  0  0  0  0  0  0  0  0  0
   -0.6880   -0.6728    2.9016 C   0  0  0  0  0  0  0  0  0  0  0  0
   -1.0575   -0.2985    1.6276 C   0  0  0  0  0  0  0  0  0  0  0  0
   -1.0146    1.0328    0.9691 C   0  0  0  0  0  0  0  0  0  0  0  0
   -0.0948    1.0516   -0.1672 N   0  0  0  0  0  0  0  0  0  0  0  0
    1.3105    0.7250    0.0702 C   0  0  0  0  0  0  0  0  0  0  0  0
    1.6671   -0.6398   -0.4432 C   0  0  0  0  0  0  0  0  0  0  0  0
    1.9056   -1.8034    0.4960 C   0  0  0  0  0  0  0  0  0  0  0  0
    3.0509   -1.1754   -0.2298 C   0  0  0  0  0  0  0  0  0  0  0  0
    3.9079   -1.8361   -1.2443 C   0  0  0  0  0  0  0  0  0  0  0  0
    5.0463   -1.6205   -0.2319 C   0  0  0  0  0  0  0  0  0  0  0  0
    4.2094   -0.4924    0.3957 C   0  0  0  0  0  0  0  0  0  0  0  0
   -0.4206    1.5555   -1.4314 C   0  0  0  0  0  0  0  0  0  0  0  0
    0.3460    1.4738   -2.3889 O   0  0  0  0  0  0  0  0  0  0  0  0
   -1.7271    2.1849   -1.6037 C   0  0  0  0  0  0  0  0  0  0  0  0
   -2.1695    3.3643   -1.0132 C   0  0  0  0  0  0  0  0  0  0  0  0
   -1.4990    4.3073   -0.0802 C   0  0  0  0  0  0  0  0  0  0  0  0
   -3.4453    3.6056   -1.4664 N   0  0  0  0  0  0  0  0  0  0  0  0
   -3.8124    2.6352   -2.3591 C   0  0  0  0  0  0  0  0  0  0  0  0
   -2.7613    1.7570   -2.4845 C   0  0  0  0  0  0  0  0  0  0  0  0
   -1.5434   -1.4543    1.0563 N   0  0  0  0  0  0  0  0  0  0  0  0
   -2.0880   -1.5768   -0.2760 C   0  0  0  0  0  0  0  0  0  0  0  0
   -1.4297   -4.5221    2.5448 H   0  0  0  0  0  0  0  0  0  0  0  0
   -2.8486   -3.9951    1.6257 H   0  0  0  0  0  0  0  0  0  0  0  0
   -1.2889   -4.2485    0.8021 H   0  0  0  0  0  0  0  0  0  0  0  0
   -0.2716   -0.0486    3.6822 H   0  0  0  0  0  0  0  0  0  0  0  0
   -2.0342    1.2951    0.6790 H   0  0  0  0  0  0  0  0  0  0  0  0
   -0.6744    1.8008    1.6737 H   0  0  0  0  0  0  0  0  0  0  0  0
    1.5354    0.8331    1.1380 H   0  0  0  0  0  0  0  0  0  0  0  0
    1.9266    1.4664   -0.4538 H   0  0  0  0  0  0  0  0  0  0  0  0
    1.2234   -0.8448   -1.4125 H   0  0  0  0  0  0  0  0  0  0  0  0
    1.5663   -2.7831    0.1801 H   0  0  0  0  0  0  0  0  0  0  0  0
    1.8284   -1.6402    1.5646 H   0  0  0  0  0  0  0  0  0  0  0  0
    3.6945   -2.8812   -1.4835 H   0  0  0  0  0  0  0  0  0  0  0  0
    4.0163   -1.2687   -2.1749 H   0  0  0  0  0  0  0  0  0  0  0  0
    6.0057   -1.3139   -0.6587 H   0  0  0  0  0  0  0  0  0  0  0  0
    5.2155   -2.4737    0.4367 H   0  0  0  0  0  0  0  0  0  0  0  0
    4.2400   -0.4476    1.4870 H   0  0  0  0  0  0  0  0  0  0  0  0
    4.4204    0.5026   -0.0119 H   0  0  0  0  0  0  0  0  0  0  0  0
   -1.9483    4.2410    0.9157 H   0  0  0  0  0  0  0  0  0  0  0  0
   -0.4316    4.0870    0.0117 H   0  0  0  0  0  0  0  0  0  0  0  0
   -1.5965    5.3378   -0.4354 H   0  0  0  0  0  0  0  0  0  0  0  0
   -4.0156    4.4007   -1.2075 H   0  0  0  0  0  0  0  0  0  0  0  0
   -4.7792    2.6653   -2.8445 H   0  0  0  0  0  0  0  0  0  0  0  0
   -2.7307    0.8949   -3.1389 H   0  0  0  0  0  0  0  0  0  0  0  0
   -1.2615   -1.5730   -0.9892 H   0  0  0  0  0  0  0  0  0  0  0  0
   -2.7640   -0.7393   -0.4614 H   0  0  0  0  0  0  0  0  0  0  0  0
   -2.6519   -2.5069   -0.3677 H   0  0  0  0  0  0  0  0  0  0  0  0
  1  2  1  0
  2  3  2  0
  3  4  1  0
  4  5  2  0
  5  6  1  0
  6  7  1  0
  7  8  1  0
  8  9  1  0
  9 10  1  0
 10 11  1  0
 11 12  1  0
 12 13  1  0
 13 14  1  0
  7 15  1  0
 15 16  2  0
 15 17  1  0
 17 18  2  0
 18 19  1  0
 18 20  1  0
 20 21  1  0
 21 22  2  0
  5 23  1  0
 23 24  1  0
 23  2  1  0
 11  9  1  0
 22 17  1  0
 14 11  1  0
  1 25  1  0
  1 26  1  0
  1 27  1  0
  4 28  1  0
  6 29  1  0
  6 30  1  0
  8 31  1  0
  8 32  1  0
  9 33  1  0
 10 34  1  0
 10 35  1  0
 12 36  1  0
 12 37  1  0
 13 38  1  0
 13 39  1  0
 14 40  1  0
 14 41  1  0
 19 42  1  0
 19 43  1  0
 19 44  1  0
 20 45  1  0
 21 46  1  0
 22 47  1  0
 24 48  1  0
 24 49  1  0
 24 50  1  0
M  END
$$$$
OCNT-2314263
     RDKit          3D

 33 35  0  0  0  0  0  0  0  0999 V2000
    6.9415   -2.2112   -0.1511 Cl  0  0  0  0  0  0  0  0  0  0  0  0
    5.4921   -1.3006    0.0210 C   0  0  0  0  0  0  0  0  0  0  0  0
    4.8833   -0.7530   -1.1037 C   0  0  0  0  0  0  0  0  0  0  0  0
    3.7079   -0.0137   -0.9615 C   0  0  0  0  0  0  0  0  0  0  0  0
    3.1306    0.1931    0.3068 C   0  0  0  0  0  0  0  0  0  0  0  0
    1.8505    0.9949    0.3905 C   0  0  0  0  0  0  0  0  0  0  0  0
    0.7412    0.1748   -0.0784 N   0  0  0  0  0  0  0  0  0  0  0  0
   -0.5632    0.6799   -0.0270 C   0  0  0  0  0  0  0  0  0  0  0  0
   -0.8683    2.0433   -0.0269 C   0  0  0  0  0  0  0  0  0  0  0  0
   -2.1940    2.4847   -0.0464 C   0  0  0  0  0  0  0  0  0  0  0  0
   -3.2425    1.5658   -0.0985 C   0  0  0  0  0  0  0  0  0  0  0  0
   -2.9750    0.1934   -0.1472 C   0  0  0  0  0  0  0  0  0  0  0  0
   -4.0349   -0.8136   -0.2242 C   0  0  0  0  0  0  0  0  0  0  0  0
   -3.8961   -2.1223   -0.0993 N   0  0  0  0  0  0  0  0  0  0  0  0
   -5.1295   -2.7145   -0.2416 N   0  0  0  0  0  0  0  0  0  0  0  0
   -6.0000   -1.7604   -0.4577 C   0  0  0  0  0  0  0  0  0  0  0  0
   -5.3642   -0.5582   -0.4562 N   0  0  0  0  0  0  0  0  0  0  0  0
   -1.6328   -0.2257   -0.1214 C   0  0  0  0  0  0  0  0  0  0  0  0
    3.7554   -0.3813    1.4256 C   0  0  0  0  0  0  0  0  0  0  0  0
    3.1106   -0.2216    3.0204 Cl  0  0  0  0  0  0  0  0  0  0  0  0
    4.9338   -1.1212    1.2835 C   0  0  0  0  0  0  0  0  0  0  0  0
    5.3116   -0.9012   -2.0918 H   0  0  0  0  0  0  0  0  0  0  0  0
    3.2276    0.3977   -1.8490 H   0  0  0  0  0  0  0  0  0  0  0  0
    1.6647    1.3599    1.4056 H   0  0  0  0  0  0  0  0  0  0  0  0
    1.9703    1.8821   -0.2444 H   0  0  0  0  0  0  0  0  0  0  0  0
    0.7803   -0.7737    0.2920 H   0  0  0  0  0  0  0  0  0  0  0  0
   -0.0844    2.7941   -0.0114 H   0  0  0  0  0  0  0  0  0  0  0  0
   -2.4056    3.5511   -0.0268 H   0  0  0  0  0  0  0  0  0  0  0  0
   -4.2575    1.9497   -0.1018 H   0  0  0  0  0  0  0  0  0  0  0  0
   -7.0614   -1.8817   -0.6174 H   0  0  0  0  0  0  0  0  0  0  0  0
   -5.7858    0.3432   -0.6121 H   0  0  0  0  0  0  0  0  0  0  0  0
   -1.4184   -1.2931   -0.1774 H   0  0  0  0  0  0  0  0  0  0  0  0
    5.4122   -1.5607    2.1550 H   0  0  0  0  0  0  0  0  0  0  0  0
  1  2  1  0
  2  3  1  0
  3  4  2  0
  4  5  1  0
  5  6  1  0
  6  7  1  0
  7  8  1  0
  8  9  2  0
  9 10  1  0
 10 11  2  0
 11 12  1  0
 12 13  1  0
 13 14  2  0
 14 15  1  0
 15 16  2  0
 16 17  1  0
 12 18  2  0
  5 19  2  0
 19 20  1  0
 19 21  1  0
 21  2  2  0
 18  8  1  0
 17 13  1  0
  3 22  1  0
  4 23  1  0
  6 24  1  0
  6 25  1  0
  7 26  1  0
  9 27  1  0
 10 28  1  0
 11 29  1  0
 16 30  1  0
 17 31  1  0
 18 32  1  0
 21 33  1  0
M  END
$$$$
OCNT-2314266
     RDKit          3D

 41 44  0  0  0  0  0  0  0  0999 V2000
    5.8391   -1.5112    0.9503 C   0  0  0  0  0  0  0  0  0  0  0  0
    5.3175   -0.2293    0.3782 C   0  0  0  0  0  0  0  0  0  0  0  0
    6.0965    0.8499    0.1605 C   0  0  0  0  0  0  0  0  0  0  0  0
    5.5127    2.0552   -0.4007 C   0  0  0  0  0  0  0  0  0  0  0  0
    4.2058    2.1265   -0.7109 C   0  0  0  0  0  0  0  0  0  0  0  0
    3.3727    0.9967   -0.4836 C   0  0  0  0  0  0  0  0  0  0  0  0
    2.0418    0.7273   -0.6831 C   0  0  0  0  0  0  0  0  0  0  0  0
    1.8547   -0.6099   -0.2400 C   0  0  0  0  0  0  0  0  0  0  0  0
    0.6043   -1.4111   -0.2347 C   0  0  0  0  0  0  0  0  0  0  0  0
    0.6301   -2.6372   -0.2278 O   0  0  0  0  0  0  0  0  0  0  0  0
   -0.5476   -0.6306   -0.2230 N   0  0  0  0  0  0  0  0  0  0  0  0
   -1.9002   -1.0569   -0.2567 C   0  0  0  0  0  0  0  0  0  0  0  0
   -2.2482   -2.4084   -0.3743 C   0  0  0  0  0  0  0  0  0  0  0  0
   -3.5836   -2.8150   -0.3773 C   0  0  0  0  0  0  0  0  0  0  0  0
   -4.5988   -1.8766   -0.2556 C   0  0  0  0  0  0  0  0  0  0  0  0
   -4.2864   -0.5183   -0.1374 C   0  0  0  0  0  0  0  0  0  0  0  0
   -2.9358   -0.0903   -0.1697 C   0  0  0  0  0  0  0  0  0  0  0  0
   -2.6349    1.3924   -0.0446 C   0  0  0  0  0  0  0  0  0  0  0  0
   -3.7649    2.2838   -0.3340 N   0  0  0  0  0  0  0  0  0  0  0  0
   -4.9343    1.8560    0.4371 C   0  0  0  0  0  0  0  0  0  0  0  0
   -5.4151    0.4795   -0.0238 C   0  0  0  0  0  0  0  0  0  0  0  0
    3.0131   -1.1291    0.2008 N   0  0  0  0  0  0  0  0  0  0  0  0
    3.9479   -0.1569    0.0541 N   0  0  0  0  0  0  0  0  0  0  0  0
    5.6856   -2.3379    0.2487 H   0  0  0  0  0  0  0  0  0  0  0  0
    6.9122   -1.4536    1.1623 H   0  0  0  0  0  0  0  0  0  0  0  0
    5.3298   -1.7502    1.8899 H   0  0  0  0  0  0  0  0  0  0  0  0
    7.1572    0.8515    0.3897 H   0  0  0  0  0  0  0  0  0  0  0  0
    6.1694    2.9045   -0.5659 H   0  0  0  0  0  0  0  0  0  0  0  0
    3.7834    3.0335   -1.1320 H   0  0  0  0  0  0  0  0  0  0  0  0
    1.3137    1.4002   -1.1122 H   0  0  0  0  0  0  0  0  0  0  0  0
   -0.3932    0.3563   -0.0953 H   0  0  0  0  0  0  0  0  0  0  0  0
   -1.5000   -3.1896   -0.4639 H   0  0  0  0  0  0  0  0  0  0  0  0
   -3.8239   -3.8714   -0.4682 H   0  0  0  0  0  0  0  0  0  0  0  0
   -5.6346   -2.2084   -0.2526 H   0  0  0  0  0  0  0  0  0  0  0  0
   -2.2624    1.5942    0.9671 H   0  0  0  0  0  0  0  0  0  0  0  0
   -1.8437    1.6684   -0.7503 H   0  0  0  0  0  0  0  0  0  0  0  0
   -3.9841    2.2042   -1.3277 H   0  0  0  0  0  0  0  0  0  0  0  0
   -5.7407    2.5858    0.3048 H   0  0  0  0  0  0  0  0  0  0  0  0
   -4.6946    1.8459    1.5081 H   0  0  0  0  0  0  0  0  0  0  0  0
   -6.1679    0.1124    0.6838 H   0  0  0  0  0  0  0  0  0  0  0  0
   -5.8926    0.5677   -1.0080 H   0  0  0  0  0  0  0  0  0  0  0  0
  1  2  1  0
  2  3  2  0
  3  4  1  0
  4  5  2  0
  5  6  1  0
  6  7  2  0
  7  8  1  0
  8  9  1  0
  9 10  2  0
  9 11  1  0
 11 12  1  0
 12 13  1  0
 13 14  2  0
 14 15  1  0
 15 16  2  0
 16 17  1  0
 17 18  1  0
 18 19  1  0
 19 20  1  0
 20 21  1  0
  8 22  2  0
 22 23  1  0
 23  2  1  0
 23  6  1  0
 17 12  2  0
 21 16  1  0
  1 24  1  0
  1 25  1  0
  1 26  1  0
  3 27  1  0
  4 28  1  0
  5 29  1  0
  7 30  1  0
 11 31  1  0
 13 32  1  0
 14 33  1  0
 15 34  1  0
 18 35  1  0
 18 36  1  0
 19 37  1  0
 20 38  1  0
 20 39  1  0
 21 40  1  0
 21 41  1  0
M  END
$$$$
OCNT-2314267
     RDKit          3D

 43 46  0  0  0  0  0  0  0  0999 V2000
    5.2199    0.5465   -2.4866 C   0  0  0  0  0  0  0  0  0  0  0  0
    4.9331    0.5543   -1.0135 C   0  0  0  0  0  0  0  0  0  0  0  0
    3.6296    0.2760   -0.5640 C   0  0  0  0  0  0  0  0  0  0  0  0
    3.3083    0.2739    0.8046 C   0  0  0  0  0  0  0  0  0  0  0  0
    1.9454   -0.0193    1.2376 C   0  0  0  0  0  0  0  0  0  0  0  0
    1.5364    0.0204    2.5176 N   0  0  0  0  0  0  0  0  0  0  0  0
    0.1850   -0.3045    2.4464 O   0  0  0  0  0  0  0  0  0  0  0  0
   -0.0922   -0.5275    1.1307 C   0  0  0  0  0  0  0  0  0  0  0  0
   -1.4885   -0.9328    0.8098 C   0  0  0  0  0  0  0  0  0  0  0  0
   -1.5765   -2.4369    0.5270 C   0  0  0  0  0  0  0  0  0  0  0  0
   -2.7733   -2.5364   -0.4012 C   0  0  0  0  0  0  0  0  0  0  0  0
   -2.5985   -1.3291   -1.3112 C   0  0  0  0  0  0  0  0  0  0  0  0
   -1.9610   -0.3159   -0.4540 N   0  0  0  0  0  0  0  0  0  0  0  0
   -2.5604    1.2475   -0.4330 S   0  0  0  0  0  0  0  0  0  0  0  0
   -2.6470    1.6959   -1.8074 O   0  0  0  0  0  0  0  0  0  0  0  0
   -1.8603    2.0099    0.5754 O   0  0  0  0  0  0  0  0  0  0  0  0
   -4.2705    1.1941    0.0908 C   0  0  0  0  0  0  0  0  0  0  0  0
   -5.4477    1.3514   -0.6193 C   0  0  0  0  0  0  0  0  0  0  0  0
   -6.6033    1.2229    0.2033 C   0  0  0  0  0  0  0  0  0  0  0  0
   -6.2718    0.9747    1.5163 C   0  0  0  0  0  0  0  0  0  0  0  0
   -4.5788    0.8994    1.7471 S   0  0  0  0  0  0  0  0  0  0  0  0
    0.9568   -0.3895    0.3499 N   0  0  0  0  0  0  0  0  0  0  0  0
    4.3179    0.5587    1.7328 C   0  0  0  0  0  0  0  0  0  0  0  0
    5.6160    0.8367    1.3010 C   0  0  0  0  0  0  0  0  0  0  0  0
    5.9160    0.8353   -0.0590 C   0  0  0  0  0  0  0  0  0  0  0  0
    7.2099    1.1227   -0.3880 O   0  0  0  0  0  0  0  0  0  0  0  0
    4.3345    0.2728   -3.0703 H   0  0  0  0  0  0  0  0  0  0  0  0
    6.0033   -0.1829   -2.7165 H   0  0  0  0  0  0  0  0  0  0  0  0
    5.5392    1.5408   -2.8147 H   0  0  0  0  0  0  0  0  0  0  0  0
    2.8470    0.0611   -1.2915 H   0  0  0  0  0  0  0  0  0  0  0  0
   -2.1629   -0.6873    1.6344 H   0  0  0  0  0  0  0  0  0  0  0  0
   -1.7058   -3.0238    1.4419 H   0  0  0  0  0  0  0  0  0  0  0  0
   -0.6788   -2.8082    0.0156 H   0  0  0  0  0  0  0  0  0  0  0  0
   -3.7027   -2.4454    0.1738 H   0  0  0  0  0  0  0  0  0  0  0  0
   -2.8039   -3.4779   -0.9565 H   0  0  0  0  0  0  0  0  0  0  0  0
   -3.5581   -1.0086   -1.7246 H   0  0  0  0  0  0  0  0  0  0  0  0
   -1.9223   -1.5584   -2.1419 H   0  0  0  0  0  0  0  0  0  0  0  0
   -5.4650    1.5576   -1.6838 H   0  0  0  0  0  0  0  0  0  0  0  0
   -7.6243    1.3160   -0.1480 H   0  0  0  0  0  0  0  0  0  0  0  0
   -6.9422    0.8409    2.3550 H   0  0  0  0  0  0  0  0  0  0  0  0
    4.1052    0.5690    2.7997 H   0  0  0  0  0  0  0  0  0  0  0  0
    6.3938    1.0584    2.0270 H   0  0  0  0  0  0  0  0  0  0  0  0
    7.2983    1.1475   -1.3530 H   0  0  0  0  0  0  0  0  0  0  0  0
  1  2  1  0
  2  3  1  0
  3  4  2  0
  4  5  1  0
  5  6  2  0
  6  7  1  0
  7  8  1  0
  8  9  1  0
  9 10  1  0
 10 11  1  0
 11 12  1  0
 12 13  1  0
 13 14  1  0
 14 15  2  0
 14 16  2  0
 14 17  1  0
 17 18  2  0
 18 19  1  0
 19 20  2  0
 20 21  1  0
  8 22  2  0
  4 23  1  0
 23 24  2  0
 24 25  1  0
 25 26  1  0
 25  2  2  0
 22  5  1  0
 13  9  1  0
 21 17  1  0
  1 27  1  0
  1 28  1  0
  1 29  1  0
  3 30  1  0
  9 31  1  0
 10 32  1  0
 10 33  1  0
 11 34  1  0
 11 35  1  0
 12 36  1  0
 12 37  1  0
 18 38  1  0
 19 39  1  0
 20 40  1  0
 23 41  1  0
 24 42  1  0
 26 43  1  0
M  END
$$$$
OCNT-2314271
     RDKit          3D

 47 49  0  0  0  0  0  0  0  0999 V2000
    0.2208    0.3738   -2.6920 C   0  0  0  0  0  0  0  0  0  0  0  0
   -0.4053    0.9729   -1.5069 N   0  0  0  0  0  0  0  0  0  0  0  0
   -1.7334    1.5250   -1.8245 C   0  0  0  0  0  0  0  0  0  0  0  0
   -2.7278    0.4755   -2.1904 C   0  0  0  0  0  0  0  0  0  0  0  0
   -3.3402    0.3362   -3.4253 C   0  0  0  0  0  0  0  0  0  0  0  0
   -4.1321   -0.8039   -3.3239 C   0  0  0  0  0  0  0  0  0  0  0  0
   -4.0554   -1.3617   -2.1229 N   0  0  0  0  0  0  0  0  0  0  0  0
   -3.2171   -0.5620   -1.3906 N   0  0  0  0  0  0  0  0  0  0  0  0
   -3.0122   -0.9075   -0.0107 C   0  0  0  0  0  0  0  0  0  0  0  0
   -3.5443   -2.1279    0.4610 C   0  0  0  0  0  0  0  0  0  0  0  0
   -3.3813   -2.5233    1.7920 C   0  0  0  0  0  0  0  0  0  0  0  0
   -2.6900   -1.7007    2.6661 C   0  0  0  0  0  0  0  0  0  0  0  0
   -2.5308   -2.0725    3.9427 F   0  0  0  0  0  0  0  0  0  0  0  0
   -2.1653   -0.4916    2.2330 C   0  0  0  0  0  0  0  0  0  0  0  0
   -2.3288   -0.0931    0.8992 C   0  0  0  0  0  0  0  0  0  0  0  0
    0.4510    2.0388   -0.9435 C   0  0  0  0  0  0  0  0  0  0  0  0
    1.7789    1.5649   -0.3066 C   0  0  0  0  0  0  0  0  0  0  0  0
    2.4516    2.7323    0.1919 O   0  0  0  0  0  0  0  0  0  0  0  0
    1.5399    0.5682    0.8415 C   0  0  0  0  0  0  0  0  0  0  0  0
    2.8300   -0.0204    1.3697 C   0  0  0  0  0  0  0  0  0  0  0  0
    3.4085    0.4717    2.5476 C   0  0  0  0  0  0  0  0  0  0  0  0
    4.6093   -0.0594    3.0199 C   0  0  0  0  0  0  0  0  0  0  0  0
    5.2418   -1.0858    2.3208 C   0  0  0  0  0  0  0  0  0  0  0  0
    4.6738   -1.5833    1.1495 C   0  0  0  0  0  0  0  0  0  0  0  0
    3.4733   -1.0535    0.6748 C   0  0  0  0  0  0  0  0  0  0  0  0
   -0.3874   -0.4415   -3.0976 H   0  0  0  0  0  0  0  0  0  0  0  0
    0.3856    1.1095   -3.4874 H   0  0  0  0  0  0  0  0  0  0  0  0
    1.1828   -0.0836   -2.4404 H   0  0  0  0  0  0  0  0  0  0  0  0
   -2.1432    2.1084   -0.9915 H   0  0  0  0  0  0  0  0  0  0  0  0
   -1.6425    2.2451   -2.6505 H   0  0  0  0  0  0  0  0  0  0  0  0
   -3.2028    0.9712   -4.2893 H   0  0  0  0  0  0  0  0  0  0  0  0
   -4.7607   -1.2622   -4.0764 H   0  0  0  0  0  0  0  0  0  0  0  0
   -4.0891   -2.7957   -0.2053 H   0  0  0  0  0  0  0  0  0  0  0  0
   -3.7898   -3.4651    2.1432 H   0  0  0  0  0  0  0  0  0  0  0  0
   -1.6314    0.1409    2.9357 H   0  0  0  0  0  0  0  0  0  0  0  0
   -1.9121    0.8656    0.6329 H   0  0  0  0  0  0  0  0  0  0  0  0
    0.6693    2.8018   -1.7040 H   0  0  0  0  0  0  0  0  0  0  0  0
   -0.1024    2.5710   -0.1567 H   0  0  0  0  0  0  0  0  0  0  0  0
    2.4288    1.1329   -1.0753 H   0  0  0  0  0  0  0  0  0  0  0  0
    3.3133    2.4310    0.5347 H   0  0  0  0  0  0  0  0  0  0  0  0
    1.0109    1.0668    1.6639 H   0  0  0  0  0  0  0  0  0  0  0  0
    0.9014   -0.2611    0.5150 H   0  0  0  0  0  0  0  0  0  0  0  0
    2.9261    1.2718    3.1055 H   0  0  0  0  0  0  0  0  0  0  0  0
    5.0500    0.3252    3.9362 H   0  0  0  0  0  0  0  0  0  0  0  0
    6.1751   -1.5014    2.6915 H   0  0  0  0  0  0  0  0  0  0  0  0
    5.1643   -2.3877    0.6073 H   0  0  0  0  0  0  0  0  0  0  0  0
    3.0390   -1.4557   -0.2381 H   0  0  0  0  0  0  0  0  0  0  0  0
  1  2  1  0
  2  3  1  0
  3  4  1  0
  4  5  2  0
  5  6  1  0
  6  7  2  0
  7  8  1  0
  8  9  1  0
  9 10  1  0
 10 11  2  0
 11 12  1  0
 12 13  1  0
 12 14  2  0
 14 15  1  0
  2 16  1  0
 16 17  1  0
 17 18  1  0
 17 19  1  0
 19 20  1  0
 20 21  2  0
 21 22  1  0
 22 23  2  0
 23 24  1  0
 24 25  2  0
  8  4  1  0
 15  9  2  0
 25 20  1  0
  1 26  1  0
  1 27  1  0
  1 28  1  0
  3 29  1  0
  3 30  1  0
  5 31  1  0
  6 32  1  0
 10 33  1  0
 11 34  1  0
 14 35  1  0
 15 36  1  0
 16 37  1  0
 16 38  1  0
 17 39  1  0
 18 40  1  0
 19 41  1  0
 19 42  1  0
 21 43  1  0
 22 44  1  0
 23 45  1  0
 24 46  1  0
 25 47  1  0
M  END
$$$$
OCNT-2314275
     RDKit          3D

 43 45  0  0  0  0  0  0  0  0999 V2000
   -2.1788   -2.7563    0.3723 C   0  0  0  0  0  0  0  0  0  0  0  0
   -2.2759   -1.7912   -0.7232 N   0  0  0  0  0  0  0  0  0  0  0  0
   -2.5018   -2.4978   -1.9869 C   0  0  0  0  0  0  0  0  0  0  0  0
   -1.0733   -0.9377   -0.8259 C   0  0  0  0  0  0  0  0  0  0  0  0
   -0.8437    0.0332    0.3689 C   0  0  0  0  0  0  0  0  0  0  0  0
    0.3983    0.9195    0.1132 C   0  0  0  0  0  0  0  0  0  0  0  0
    1.6246    0.1201    0.0894 N   0  0  0  0  0  0  0  0  0  0  0  0
    2.8880    0.5876   -0.2831 C   0  0  0  0  0  0  0  0  0  0  0  0
    3.1186    1.7772   -0.8697 C   0  0  0  0  0  0  0  0  0  0  0  0
    4.5332    2.1083   -1.1815 C   0  0  0  0  0  0  0  0  0  0  0  0
    5.5707    1.3706   -0.9482 N   0  0  0  0  0  0  0  0  0  0  0  0
    5.3211    0.1646   -0.3640 C   0  0  0  0  0  0  0  0  0  0  0  0
    6.1845   -0.7717   -0.0233 N   0  0  0  0  0  0  0  0  0  0  0  0
    5.4484   -1.7948    0.5055 C   0  0  0  0  0  0  0  0  0  0  0  0
    4.1097   -1.4904    0.5010 C   0  0  0  0  0  0  0  0  0  0  0  0
    4.0185   -0.2288   -0.0427 N   0  0  0  0  0  0  0  0  0  0  0  0
   -2.0378    0.9295    0.6864 C   0  0  0  0  0  0  0  0  0  0  0  0
   -2.4643    1.0655    2.0183 C   0  0  0  0  0  0  0  0  0  0  0  0
   -3.5400    1.8960    2.3422 C   0  0  0  0  0  0  0  0  0  0  0  0
   -4.1969    2.6007    1.3376 C   0  0  0  0  0  0  0  0  0  0  0  0
   -5.5207    3.6248    1.7359 Cl  0  0  0  0  0  0  0  0  0  0  0  0
   -3.7864    2.4831    0.0127 C   0  0  0  0  0  0  0  0  0  0  0  0
   -2.7099    1.6532   -0.3116 C   0  0  0  0  0  0  0  0  0  0  0  0
   -3.0729   -3.3895    0.4074 H   0  0  0  0  0  0  0  0  0  0  0  0
   -2.1296   -2.2531    1.3427 H   0  0  0  0  0  0  0  0  0  0  0  0
   -1.3026   -3.4070    0.2727 H   0  0  0  0  0  0  0  0  0  0  0  0
   -1.6692   -3.1632   -2.2426 H   0  0  0  0  0  0  0  0  0  0  0  0
   -2.6403   -1.7853   -2.8078 H   0  0  0  0  0  0  0  0  0  0  0  0
   -3.4192   -3.0950   -1.9366 H   0  0  0  0  0  0  0  0  0  0  0  0
   -1.1499   -0.3378   -1.7425 H   0  0  0  0  0  0  0  0  0  0  0  0
   -0.1861   -1.5725   -0.9548 H   0  0  0  0  0  0  0  0  0  0  0  0
   -0.6322   -0.5801    1.2552 H   0  0  0  0  0  0  0  0  0  0  0  0
    0.2787    1.4563   -0.8359 H   0  0  0  0  0  0  0  0  0  0  0  0
    0.4929    1.6720    0.9063 H   0  0  0  0  0  0  0  0  0  0  0  0
    1.6713   -0.5576    0.8494 H   0  0  0  0  0  0  0  0  0  0  0  0
    2.3607    2.5036   -1.1200 H   0  0  0  0  0  0  0  0  0  0  0  0
    4.6836    3.0922   -1.6568 H   0  0  0  0  0  0  0  0  0  0  0  0
    5.9230   -2.7020    0.8568 H   0  0  0  0  0  0  0  0  0  0  0  0
    3.2463   -2.0536    0.8174 H   0  0  0  0  0  0  0  0  0  0  0  0
   -1.9657    0.5199    2.8167 H   0  0  0  0  0  0  0  0  0  0  0  0
   -3.8605    1.9853    3.3766 H   0  0  0  0  0  0  0  0  0  0  0  0
   -4.3014    3.0291   -0.7732 H   0  0  0  0  0  0  0  0  0  0  0  0
   -2.4131    1.5726   -1.3545 H   0  0  0  0  0  0  0  0  0  0  0  0
  1  2  1  0
  2  3  1  0
  2  4  1  0
  4  5  1  0
  5  6  1  0
  6  7  1  0
  7  8  1  0
  8  9  2  0
  9 10  1  0
 10 11  2  0
 11 12  1  0
 12 13  2  0
 13 14  1  0
 14 15  2  0
 15 16  1  0
  5 17  1  0
 17 18  1  0
 18 19  2  0
 19 20  1  0
 20 21  1  0
 20 22  2  0
 22 23  1  0
 16  8  1  0
 23 17  2  0
 16 12  1  0
  1 24  1  0
  1 25  1  0
  1 26  1  0
  3 27  1  0
  3 28  1  0
  3 29  1  0
  4 30  1  0
  4 31  1  0
  5 32  1  0
  6 33  1  0
  6 34  1  0
  7 35  1  0
  9 36  1  0
 10 37  1  0
 14 38  1  0
 15 39  1  0
 18 40  1  0
 19 41  1  0
 22 42  1  0
 23 43  1  0
M  END
$$$$
OCNT-2314296
     RDKit          3D

 45 48  0  0  0  0  0  0  0  0999 V2000
   -6.5468   -1.4955    0.8382 C   0  0  0  0  0  0  0  0  0  0  0  0
   -5.1085   -1.3876    0.8010 N   0  0  0  0  0  0  0  0  0  0  0  0
   -4.2186   -2.0502    1.5821 C   0  0  0  0  0  0  0  0  0  0  0  0
   -2.9576   -1.6324    1.1920 C   0  0  0  0  0  0  0  0  0  0  0  0
   -1.7238   -2.1423    1.7763 C   0  0  0  0  0  0  0  0  0  0  0  0
   -1.7100   -2.6839    2.8771 O   0  0  0  0  0  0  0  0  0  0  0  0
   -0.6035   -2.0305    0.9882 N   0  0  0  0  0  0  0  0  0  0  0  0
    0.7190   -2.3196    1.4912 C   0  0  0  0  0  0  0  0  0  0  0  0
    1.5226   -1.0636    1.4416 C   0  0  0  0  0  0  0  0  0  0  0  0
    1.6518   -0.1660    2.3976 N   0  0  0  0  0  0  0  0  0  0  0  0
    2.4974    0.7903    1.8989 C   0  0  0  0  0  0  0  0  0  0  0  0
    2.8691    0.5054    0.6005 C   0  0  0  0  0  0  0  0  0  0  0  0
    3.7283    1.2070   -0.3432 C   0  0  0  0  0  0  0  0  0  0  0  0
    3.3729    1.3195   -1.6941 C   0  0  0  0  0  0  0  0  0  0  0  0
    4.2013    1.9978   -2.5918 C   0  0  0  0  0  0  0  0  0  0  0  0
    5.3925    2.5685   -2.1486 C   0  0  0  0  0  0  0  0  0  0  0  0
    5.7537    2.4674   -0.8069 C   0  0  0  0  0  0  0  0  0  0  0  0
    4.9238    1.7929    0.0921 C   0  0  0  0  0  0  0  0  0  0  0  0
    2.2374   -0.6863    0.3303 N   0  0  0  0  0  0  0  0  0  0  0  0
   -3.2167   -0.6549    0.1776 C   0  0  0  0  0  0  0  0  0  0  0  0
   -2.2787    0.1889   -0.5561 C   0  0  0  0  0  0  0  0  0  0  0  0
   -1.3340    0.9657    0.1162 C   0  0  0  0  0  0  0  0  0  0  0  0
   -0.4402    1.7053   -0.6384 C   0  0  0  0  0  0  0  0  0  0  0  0
   -0.4259    1.7137   -1.9897 N   0  0  0  0  0  0  0  0  0  0  0  0
   -1.3789    0.9903   -2.6149 C   0  0  0  0  0  0  0  0  0  0  0  0
   -2.3156    0.2194   -1.9510 C   0  0  0  0  0  0  0  0  0  0  0  0
   -4.5312   -0.5650   -0.0867 N   0  0  0  0  0  0  0  0  0  0  0  0
   -6.9611   -0.5075    1.0539 H   0  0  0  0  0  0  0  0  0  0  0  0
   -6.8389   -2.2012    1.6197 H   0  0  0  0  0  0  0  0  0  0  0  0
   -6.8907   -1.8533   -0.1355 H   0  0  0  0  0  0  0  0  0  0  0  0
   -4.5261   -2.7618    2.3369 H   0  0  0  0  0  0  0  0  0  0  0  0
   -0.6840   -1.6403    0.0629 H   0  0  0  0  0  0  0  0  0  0  0  0
    1.1568   -3.0878    0.8458 H   0  0  0  0  0  0  0  0  0  0  0  0
    0.6835   -2.7061    2.5141 H   0  0  0  0  0  0  0  0  0  0  0  0
    2.7842    1.6466    2.4962 H   0  0  0  0  0  0  0  0  0  0  0  0
    2.4337    0.9110   -2.0606 H   0  0  0  0  0  0  0  0  0  0  0  0
    3.9084    2.0904   -3.6345 H   0  0  0  0  0  0  0  0  0  0  0  0
    6.0348    3.0990   -2.8470 H   0  0  0  0  0  0  0  0  0  0  0  0
    6.6805    2.9154   -0.4579 H   0  0  0  0  0  0  0  0  0  0  0  0
    5.2259    1.7212    1.1346 H   0  0  0  0  0  0  0  0  0  0  0  0
    2.3051   -1.2017   -0.5357 H   0  0  0  0  0  0  0  0  0  0  0  0
   -1.2806    0.9963    1.2005 H   0  0  0  0  0  0  0  0  0  0  0  0
    0.3162    2.3223   -0.1600 H   0  0  0  0  0  0  0  0  0  0  0  0
   -1.3687    1.0472   -3.6997 H   0  0  0  0  0  0  0  0  0  0  0  0
   -3.0590   -0.3439   -2.5059 H   0  0  0  0  0  0  0  0  0  0  0  0
  1  2  1  0
  2  3  1  0
  3  4  2  0
  4  5  1  0
  5  6  2  0
  5  7  1  0
  7  8  1  0
  8  9  1  0
  9 10  2  0
 10 11  1  0
 11 12  2  0
 12 13  1  0
 13 14  2  0
 14 15  1  0
 15 16  2  0
 16 17  1  0
 17 18  2  0
 12 19  1  0
  4 20  1  0
 20 21  1  0
 21 22  2  0
 22 23  1  0
 23 24  2  0
 24 25  1  0
 25 26  2  0
 20 27  2  0
 27  2  1  0
 19  9  1  0
 26 21  1  0
 18 13  1  0
  1 28  1  0
  1 29  1  0
  1 30  1  0
  3 31  1  0
  7 32  1  0
  8 33  1  0
  8 34  1  0
 11 35  1  0
 14 36  1  0
 15 37  1  0
 16 38  1  0
 17 39  1  0
 18 40  1  0
 19 41  1  0
 22 42  1  0
 23 43  1  0
 25 44  1  0
 26 45  1  0
M  END
$$$$
OCNT-2314324
     RDKit          3D

 50 52  0  0  0  0  0  0  0  0999 V2000
    8.9759    1.3438   -0.5862 C   0  0  0  0  0  0  0  0  0  0  0  0
    8.4015    0.8685    0.7398 C   0  0  0  0  0  0  0  0  0  0  0  0
    6.9092    0.8235    0.7129 C   0  0  0  0  0  0  0  0  0  0  0  0
    5.9994    1.8231    0.9997 C   0  0  0  0  0  0  0  0  0  0  0  0
    4.6694    1.4724    0.8872 N   0  0  0  0  0  0  0  0  0  0  0  0
    4.5819    0.2237    0.5149 C   0  0  0  0  0  0  0  0  0  0  0  0
    3.4757   -0.5463    0.2883 N   0  0  0  0  0  0  0  0  0  0  0  0
    2.2001   -0.0391    0.3526 C   0  0  0  0  0  0  0  0  0  0  0  0
    1.8569    1.1196    0.5455 O   0  0  0  0  0  0  0  0  0  0  0  0
    1.1285   -1.0445    0.1247 C   0  0  0  0  0  0  0  0  0  0  0  0
    1.1995   -2.3280    0.6865 C   0  0  0  0  0  0  0  0  0  0  0  0
    0.1617   -3.2404    0.4797 C   0  0  0  0  0  0  0  0  0  0  0  0
   -0.9519   -2.8710   -0.2751 C   0  0  0  0  0  0  0  0  0  0  0  0
   -1.0269   -1.5822   -0.8145 C   0  0  0  0  0  0  0  0  0  0  0  0
   -2.4456   -1.1353   -1.7850 S   0  0  0  0  0  0  0  0  0  0  0  0
   -2.1714    0.1147   -2.4601 O   0  0  0  0  0  0  0  0  0  0  0  0
   -2.8458   -2.3146   -2.5233 O   0  0  0  0  0  0  0  0  0  0  0  0
   -3.6272   -0.8316   -0.5950 N   0  0  0  0  0  0  0  0  0  0  0  0
   -3.3943    0.3770    0.2681 C   0  0  0  0  0  0  0  0  0  0  0  0
   -4.3323    1.5286   -0.1324 C   0  0  0  0  0  0  0  0  0  0  0  0
   -4.0589    2.7763    0.6958 C   0  0  0  0  0  0  0  0  0  0  0  0
   -5.7196    1.1897    0.0436 O   0  0  0  0  0  0  0  0  0  0  0  0
   -6.0030   -0.2064   -0.1555 C   0  0  0  0  0  0  0  0  0  0  0  0
   -7.4403   -0.3146   -0.6455 C   0  0  0  0  0  0  0  0  0  0  0  0
   -5.0264   -0.8735   -1.1389 C   0  0  0  0  0  0  0  0  0  0  0  0
    0.0120   -0.6676   -0.6289 C   0  0  0  0  0  0  0  0  0  0  0  0
    6.0580   -0.6065    0.2894 S   0  0  0  0  0  0  0  0  0  0  0  0
   10.0688    1.3798   -0.5349 H   0  0  0  0  0  0  0  0  0  0  0  0
    8.6151    2.3468   -0.8385 H   0  0  0  0  0  0  0  0  0  0  0  0
    8.6968    0.6711   -1.4040 H   0  0  0  0  0  0  0  0  0  0  0  0
    8.8129   -0.1179    0.9838 H   0  0  0  0  0  0  0  0  0  0  0  0
    8.7286    1.5472    1.5368 H   0  0  0  0  0  0  0  0  0  0  0  0
    6.2514    2.8335    1.2989 H   0  0  0  0  0  0  0  0  0  0  0  0
    3.6474   -1.4984    0.0052 H   0  0  0  0  0  0  0  0  0  0  0  0
    2.0392   -2.6194    1.3129 H   0  0  0  0  0  0  0  0  0  0  0  0
    0.2139   -4.2356    0.9166 H   0  0  0  0  0  0  0  0  0  0  0  0
   -1.7601   -3.5831   -0.4344 H   0  0  0  0  0  0  0  0  0  0  0  0
   -3.5845    0.0684    1.3039 H   0  0  0  0  0  0  0  0  0  0  0  0
   -2.3524    0.7051    0.2214 H   0  0  0  0  0  0  0  0  0  0  0  0
   -4.1896    1.7771   -1.1912 H   0  0  0  0  0  0  0  0  0  0  0  0
   -3.0276    3.1197    0.5703 H   0  0  0  0  0  0  0  0  0  0  0  0
   -4.7348    3.5864    0.4018 H   0  0  0  0  0  0  0  0  0  0  0  0
   -4.2393    2.5863    1.7596 H   0  0  0  0  0  0  0  0  0  0  0  0
   -5.9309   -0.6940    0.8250 H   0  0  0  0  0  0  0  0  0  0  0  0
   -7.7396   -1.3587   -0.7775 H   0  0  0  0  0  0  0  0  0  0  0  0
   -7.5680    0.2111   -1.5983 H   0  0  0  0  0  0  0  0  0  0  0  0
   -8.1244    0.1575    0.0677 H   0  0  0  0  0  0  0  0  0  0  0  0
   -5.3068   -1.9222   -1.2895 H   0  0  0  0  0  0  0  0  0  0  0  0
   -5.0606   -0.3530   -2.1042 H   0  0  0  0  0  0  0  0  0  0  0  0
   -0.0416    0.3329   -1.0558 H   0  0  0  0  0  0  0  0  0  0  0  0
  1  2  1  0
  2  3  1  0
  3  4  2  0
  4  5  1  0
  5  6  2  0
  6  7  1  0
  7  8  1  0
  8  9  2  0
  8 10  1  0
 10 11  1  0
 11 12  2  0
 12 13  1  0
 13 14  2  0
 14 15  1  0
 15 16  2  0
 15 17  2  0
 15 18  1  0
 18 19  1  0
 19 20  1  0
 20 21  1  0
 20 22  1  0
 22 23  1  0
 23 24  1  0
 23 25  1  0
 14 26  1  0
  6 27  1  0
 27  3  1  0
 26 10  2  0
 25 18  1  0
  1 28  1  0
  1 29  1  0
  1 30  1  0
  2 31  1  0
  2 32  1  0
  4 33  1  0
  7 34  1  0
 11 35  1  0
 12 36  1  0
 13 37  1  0
 19 38  1  0
 19 39  1  0
 20 40  1  0
 21 41  1  0
 21 42  1  0
 21 43  1  0
 23 44  1  0
 24 45  1  0
 24 46  1  0
 24 47  1  0
 25 48  1  0
 25 49  1  0
 26 50  1  0
M  END
$$$$
OCNT-2314329
     RDKit          3D

 46 48  0  0  0  0  0  0  0  0999 V2000
   -4.8023   -0.5947   -0.9846 C   0  0  0  0  0  0  0  0  0  0  0  0
   -3.7033   -1.5772   -0.5727 C   0  0  0  0  0  0  0  0  0  0  0  0
   -3.9116   -2.9159   -1.2809 C   0  0  0  0  0  0  0  0  0  0  0  0
   -2.3203   -0.9678   -0.8679 C   0  0  0  0  0  0  0  0  0  0  0  0
   -1.1587   -1.8306   -0.3552 C   0  0  0  0  0  0  0  0  0  0  0  0
    0.1430   -1.1535   -0.4226 N   0  0  0  0  0  0  0  0  0  0  0  0
    0.6220   -0.5299    0.8130 C   0  0  0  0  0  0  0  0  0  0  0  0
   -0.0259    0.8044    1.1038 C   0  0  0  0  0  0  0  0  0  0  0  0
    0.3813    1.9666    0.4356 C   0  0  0  0  0  0  0  0  0  0  0  0
   -0.2390    3.1917    0.6957 C   0  0  0  0  0  0  0  0  0  0  0  0
   -1.2760    3.2735    1.6278 C   0  0  0  0  0  0  0  0  0  0  0  0
   -2.0017    4.8187    1.8930 Cl  0  0  0  0  0  0  0  0  0  0  0  0
   -1.6889    2.1233    2.3056 C   0  0  0  0  0  0  0  0  0  0  0  0
   -2.9644    2.1404    3.4709 Cl  0  0  0  0  0  0  0  0  0  0  0  0
   -1.0640    0.8976    2.0454 C   0  0  0  0  0  0  0  0  0  0  0  0
    0.7305   -1.0485   -1.6944 C   0  0  0  0  0  0  0  0  0  0  0  0
    0.1647   -1.5267   -2.6812 O   0  0  0  0  0  0  0  0  0  0  0  0
    2.0190   -0.3532   -1.8886 C   0  0  0  0  0  0  0  0  0  0  0  0
    2.4045    0.1189   -3.1356 C   0  0  0  0  0  0  0  0  0  0  0  0
    3.9378    0.8706   -3.0599 S   0  0  0  0  0  0  0  0  0  0  0  0
    4.0284    0.4843   -1.3955 C   0  0  0  0  0  0  0  0  0  0  0  0
    5.1587    0.8127   -0.5885 C   0  0  0  0  0  0  0  0  0  0  0  0
    6.2110    1.5312   -0.9208 N   0  0  0  0  0  0  0  0  0  0  0  0
    7.0528    1.5777    0.1713 N   0  0  0  0  0  0  0  0  0  0  0  0
    6.4934    0.8856    1.1361 C   0  0  0  0  0  0  0  0  0  0  0  0
    5.2993    0.3965    0.7075 N   0  0  0  0  0  0  0  0  0  0  0  0
    2.9816   -0.1468   -0.8979 N   0  0  0  0  0  0  0  0  0  0  0  0
   -4.6928    0.3555   -0.4507 H   0  0  0  0  0  0  0  0  0  0  0  0
   -5.7931   -0.9964   -0.7483 H   0  0  0  0  0  0  0  0  0  0  0  0
   -4.7682   -0.3861   -2.0593 H   0  0  0  0  0  0  0  0  0  0  0  0
   -3.7917   -1.7423    0.5090 H   0  0  0  0  0  0  0  0  0  0  0  0
   -4.9226   -3.2978   -1.1010 H   0  0  0  0  0  0  0  0  0  0  0  0
   -3.7755   -2.8174   -2.3629 H   0  0  0  0  0  0  0  0  0  0  0  0
   -3.2103   -3.6722   -0.9149 H   0  0  0  0  0  0  0  0  0  0  0  0
   -2.2141   -0.8014   -1.9472 H   0  0  0  0  0  0  0  0  0  0  0  0
   -2.2732    0.0263   -0.4098 H   0  0  0  0  0  0  0  0  0  0  0  0
   -1.0896   -2.7461   -0.9544 H   0  0  0  0  0  0  0  0  0  0  0  0
   -1.3406   -2.1473    0.6781 H   0  0  0  0  0  0  0  0  0  0  0  0
    1.7020   -0.4102    0.8308 H   0  0  0  0  0  0  0  0  0  0  0  0
    0.4234   -1.2283    1.6361 H   0  0  0  0  0  0  0  0  0  0  0  0
    1.1857    1.9330   -0.2957 H   0  0  0  0  0  0  0  0  0  0  0  0
    0.0904    4.0805    0.1621 H   0  0  0  0  0  0  0  0  0  0  0  0
   -1.3976    0.0072    2.5738 H   0  0  0  0  0  0  0  0  0  0  0  0
    1.8557    0.0562   -4.0658 H   0  0  0  0  0  0  0  0  0  0  0  0
    6.8981    0.7137    2.1241 H   0  0  0  0  0  0  0  0  0  0  0  0
    4.6422   -0.1756    1.2161 H   0  0  0  0  0  0  0  0  0  0  0  0
  1  2  1  0
  2  3  1  0
  2  4  1  0
  4  5  1  0
  5  6  1  0
  6  7  1  0
  7  8  1  0
  8  9  1  0
  9 10  2  0
 10 11  1  0
 11 12  1  0
 11 13  2  0
 13 14  1  0
 13 15  1  0
  6 16  1  0
 16 17  2  0
 16 18  1  0
 18 19  2  0
 19 20  1  0
 20 21  1  0
 21 22  1  0
 22 23  2  0
 23 24  1  0
 24 25  2  0
 25 26  1  0
 21 27  2  0
 15  8  2  0
 27 18  1  0
 26 22  1  0
  1 28  1  0
  1 29  1  0
  1 30  1  0
  2 31  1  0
  3 32  1  0
  3 33  1  0
  3 34  1  0
  4 35  1  0
  4 36  1  0
  5 37  1  0
  5 38  1  0
  7 39  1  0
  7 40  1  0
  9 41  1  0
 10 42  1  0
 15 43  1  0
 19 44  1  0
 25 45  1  0
 26 46  1  0
M  END
$$$$
OCNT-2314338
     RDKit          3D

 46 47  0  0  0  0  0  0  0  0999 V2000
   -8.4025    3.9009   -1.1564 N   0  0  0  0  0  0  0  0  0  0  0  0
   -7.7770    2.9304   -1.0243 C   0  0  0  0  0  0  0  0  0  0  0  0
   -7.0021    1.7421   -0.8239 C   0  0  0  0  0  0  0  0  0  0  0  0
   -6.0579    1.6913    0.2110 C   0  0  0  0  0  0  0  0  0  0  0  0
   -5.3051    0.5295    0.4276 C   0  0  0  0  0  0  0  0  0  0  0  0
   -5.4764   -0.5914   -0.4022 C   0  0  0  0  0  0  0  0  0  0  0  0
   -4.7214   -1.8801   -0.1926 C   0  0  0  0  0  0  0  0  0  0  0  0
   -3.4236   -1.7159    0.4358 N   0  0  0  0  0  0  0  0  0  0  0  0
   -2.3467   -1.3113   -0.3129 C   0  0  0  0  0  0  0  0  0  0  0  0
   -2.3993   -0.9685   -1.4852 O   0  0  0  0  0  0  0  0  0  0  0  0
   -1.1963   -1.3347    0.4241 N   0  0  0  0  0  0  0  0  0  0  0  0
    0.0836   -0.9483   -0.1424 C   0  0  0  0  0  0  0  0  0  0  0  0
    1.1547   -0.7922    0.9438 C   0  0  0  0  0  0  0  0  0  0  0  0
    1.3194   -2.0336    1.6485 O   0  0  0  0  0  0  0  0  0  0  0  0
    2.4968   -0.3568    0.3471 C   0  0  0  0  0  0  0  0  0  0  0  0
    3.4088   -0.1882    1.4446 O   0  0  0  0  0  0  0  0  0  0  0  0
    4.6820    0.2133    1.1482 C   0  0  0  0  0  0  0  0  0  0  0  0
    5.5431    0.2795    2.2465 C   0  0  0  0  0  0  0  0  0  0  0  0
    6.8645    0.6934    2.0894 C   0  0  0  0  0  0  0  0  0  0  0  0
    7.3403    1.0480    0.8282 C   0  0  0  0  0  0  0  0  0  0  0  0
    6.4946    0.9847   -0.2855 C   0  0  0  0  0  0  0  0  0  0  0  0
    6.9998    1.3406   -1.6623 C   0  0  0  0  0  0  0  0  0  0  0  0
    7.2355    0.2352   -2.4248 F   0  0  0  0  0  0  0  0  0  0  0  0
    8.1652    2.0478   -1.6533 F   0  0  0  0  0  0  0  0  0  0  0  0
    6.1100    2.0989   -2.3652 F   0  0  0  0  0  0  0  0  0  0  0  0
    5.1633    0.5510   -0.1178 C   0  0  0  0  0  0  0  0  0  0  0  0
   -6.4368   -0.5252   -1.4201 C   0  0  0  0  0  0  0  0  0  0  0  0
   -6.6611   -1.5940   -2.2030 F   0  0  0  0  0  0  0  0  0  0  0  0
   -7.1940    0.6253   -1.6405 C   0  0  0  0  0  0  0  0  0  0  0  0
   -5.9023    2.5584    0.8586 H   0  0  0  0  0  0  0  0  0  0  0  0
   -4.5825    0.5156    1.2470 H   0  0  0  0  0  0  0  0  0  0  0  0
   -4.5742   -2.4017   -1.1468 H   0  0  0  0  0  0  0  0  0  0  0  0
   -5.3160   -2.5217    0.4662 H   0  0  0  0  0  0  0  0  0  0  0  0
   -3.1829   -2.4195    1.1198 H   0  0  0  0  0  0  0  0  0  0  0  0
   -1.2634   -1.4233    1.4315 H   0  0  0  0  0  0  0  0  0  0  0  0
   -0.0485   -0.0040   -0.6890 H   0  0  0  0  0  0  0  0  0  0  0  0
    0.3595   -1.7288   -0.8631 H   0  0  0  0  0  0  0  0  0  0  0  0
    0.8240   -0.0580    1.6900 H   0  0  0  0  0  0  0  0  0  0  0  0
    2.1004   -1.9067    2.2182 H   0  0  0  0  0  0  0  0  0  0  0  0
    2.8824   -1.1431   -0.3194 H   0  0  0  0  0  0  0  0  0  0  0  0
    2.3677    0.5862   -0.2003 H   0  0  0  0  0  0  0  0  0  0  0  0
    5.1787    0.0175    3.2379 H   0  0  0  0  0  0  0  0  0  0  0  0
    7.5197    0.7505    2.9569 H   0  0  0  0  0  0  0  0  0  0  0  0
    8.3735    1.3805    0.7229 H   0  0  0  0  0  0  0  0  0  0  0  0
    4.5270    0.5015   -0.9947 H   0  0  0  0  0  0  0  0  0  0  0  0
   -7.9244    0.6248   -2.4493 H   0  0  0  0  0  0  0  0  0  0  0  0
  1  2  3  0
  2  3  1  0
  3  4  1  0
  4  5  2  0
  5  6  1  0
  6  7  1  0
  7  8  1  0
  8  9  1  0
  9 10  2  0
  9 11  1  0
 11 12  1  0
 12 13  1  0
 13 14  1  0
 13 15  1  0
 15 16  1  0
 16 17  1  0
 17 18  1  0
 18 19  2  0
 19 20  1  0
 20 21  2  0
 21 22  1  0
 22 23  1  0
 22 24  1  0
 22 25  1  0
 21 26  1  0
  6 27  2  0
 27 28  1  0
 27 29  1  0
 29  3  2  0
 26 17  2  0
  4 30  1  0
  5 31  1  0
  7 32  1  0
  7 33  1  0
  8 34  1  0
 11 35  1  0
 12 36  1  0
 12 37  1  0
 13 38  1  0
 14 39  1  0
 15 40  1  0
 15 41  1  0
 18 42  1  0
 19 43  1  0
 20 44  1  0
 26 45  1  0
 29 46  1  0
M  END
$$$$
OCNT-2314342
     RDKit          3D

 43 44  0  0  0  0  0  0  0  0999 V2000
   -2.9605    1.3879   -1.6478 C   0  0  0  0  0  0  0  0  0  0  0  0
   -2.1326    1.2654   -0.3453 C   0  0  0  0  0  0  0  0  0  0  0  0
   -0.9422    2.2433   -0.4538 C   0  0  0  0  0  0  0  0  0  0  0  0
   -3.0294    1.8036    0.7998 C   0  0  0  0  0  0  0  0  0  0  0  0
   -1.6473   -0.2353   -0.1051 C   0  0  0  0  0  0  0  0  0  0  0  0
   -0.6056   -0.7126   -1.1834 C   0  0  0  0  0  0  0  0  0  0  0  0
    0.7695   -0.3112   -0.9453 N   0  0  0  0  0  0  0  0  0  0  0  0
    1.6975   -1.1638   -0.3894 C   0  0  0  0  0  0  0  0  0  0  0  0
    1.4153   -2.2869    0.0174 O   0  0  0  0  0  0  0  0  0  0  0  0
    3.0814   -0.6447   -0.2100 C   0  0  0  0  0  0  0  0  0  0  0  0
    3.7263   -1.0505    0.9735 C   0  0  0  0  0  0  0  0  0  0  0  0
    5.0184   -0.6214    1.2667 C   0  0  0  0  0  0  0  0  0  0  0  0
    5.6837    0.2149    0.3765 C   0  0  0  0  0  0  0  0  0  0  0  0
    5.0615    0.6148   -0.8124 C   0  0  0  0  0  0  0  0  0  0  0  0
    6.0752    1.7503   -1.9577 Br  0  0  0  0  0  0  0  0  0  0  0  0
    3.7572    0.1854   -1.1212 C   0  0  0  0  0  0  0  0  0  0  0  0
    3.0298    0.6490   -2.6290 Cl  0  0  0  0  0  0  0  0  0  0  0  0
   -2.8135   -1.2541   -0.1308 C   0  0  0  0  0  0  0  0  0  0  0  0
   -2.3470   -2.4220    0.7397 C   0  0  0  0  0  0  0  0  0  0  0  0
   -1.1869   -1.9547    1.5074 N   0  0  0  0  0  0  0  0  0  0  0  0
   -1.1398   -0.4979    1.3282 C   0  0  0  0  0  0  0  0  0  0  0  0
   -2.3879    1.0996   -2.5335 H   0  0  0  0  0  0  0  0  0  0  0  0
   -3.8632    0.7696   -1.6124 H   0  0  0  0  0  0  0  0  0  0  0  0
   -3.2869    2.4227   -1.8082 H   0  0  0  0  0  0  0  0  0  0  0  0
   -1.2862    3.2848   -0.4571 H   0  0  0  0  0  0  0  0  0  0  0  0
   -0.3851    2.1042   -1.3848 H   0  0  0  0  0  0  0  0  0  0  0  0
   -0.2523    2.1318    0.3888 H   0  0  0  0  0  0  0  0  0  0  0  0
   -3.4302    2.7939    0.5500 H   0  0  0  0  0  0  0  0  0  0  0  0
   -2.4691    1.9275    1.7322 H   0  0  0  0  0  0  0  0  0  0  0  0
   -3.8891    1.1583    0.9973 H   0  0  0  0  0  0  0  0  0  0  0  0
   -0.6178   -1.8047   -1.2816 H   0  0  0  0  0  0  0  0  0  0  0  0
   -0.8685   -0.3370   -2.1760 H   0  0  0  0  0  0  0  0  0  0  0  0
    1.0891    0.5653   -1.3388 H   0  0  0  0  0  0  0  0  0  0  0  0
    3.2121   -1.7057    1.6771 H   0  0  0  0  0  0  0  0  0  0  0  0
    5.5030   -0.9406    2.1869 H   0  0  0  0  0  0  0  0  0  0  0  0
    6.6930    0.5455    0.6138 H   0  0  0  0  0  0  0  0  0  0  0  0
   -3.0627   -1.5845   -1.1454 H   0  0  0  0  0  0  0  0  0  0  0  0
   -3.7261   -0.8402    0.3089 H   0  0  0  0  0  0  0  0  0  0  0  0
   -2.0662   -3.2834    0.1240 H   0  0  0  0  0  0  0  0  0  0  0  0
   -3.1463   -2.7450    1.4146 H   0  0  0  0  0  0  0  0  0  0  0  0
   -0.3343   -2.3498    1.0837 H   0  0  0  0  0  0  0  0  0  0  0  0
   -0.1381   -0.1037    1.5210 H   0  0  0  0  0  0  0  0  0  0  0  0
   -1.7984   -0.0681    2.0888 H   0  0  0  0  0  0  0  0  0  0  0  0
  1  2  1  0
  2  3  1  0
  2  4  1  0
  2  5  1  0
  5  6  1  0
  6  7  1  0
  7  8  1  0
  8  9  2  0
  8 10  1  0
 10 11  2  0
 11 12  1  0
 12 13  2  0
 13 14  1  0
 14 15  1  0
 14 16  2  0
 16 17  1  0
  5 18  1  0
 18 19  1  0
 19 20  1  0
 20 21  1  0
 21  5  1  0
 16 10  1  0
  1 22  1  0
  1 23  1  0
  1 24  1  0
  3 25  1  0
  3 26  1  0
  3 27  1  0
  4 28  1  0
  4 29  1  0
  4 30  1  0
  6 31  1  0
  6 32  1  0
  7 33  1  0
 11 34  1  0
 12 35  1  0
 13 36  1  0
 18 37  1  0
 18 38  1  0
 19 39  1  0
 19 40  1  0
 20 41  1  0
 21 42  1  0
 21 43  1  0
M  END
$$$$
OCNT-2314356
     RDKit          3D

 41 44  0  0  0  0  0  0  0  0999 V2000
    0.0066   -1.8060   -2.3559 O   0  0  0  0  0  0  0  0  0  0  0  0
    0.0109   -0.8564   -1.5795 C   0  0  0  0  0  0  0  0  0  0  0  0
   -1.1047   -0.1030   -1.2928 N   0  0  0  0  0  0  0  0  0  0  0  0
   -2.3600   -0.3294   -1.9595 C   0  0  0  0  0  0  0  0  0  0  0  0
   -3.3978    0.5174   -1.3085 C   0  0  0  0  0  0  0  0  0  0  0  0
   -3.7664    1.7979   -1.6782 C   0  0  0  0  0  0  0  0  0  0  0  0
   -4.7495    2.2282   -0.8293 N   0  0  0  0  0  0  0  0  0  0  0  0
   -5.0353    1.2554    0.1000 C   0  0  0  0  0  0  0  0  0  0  0  0
   -5.9601    1.2594    1.1528 C   0  0  0  0  0  0  0  0  0  0  0  0
   -6.0316    0.1155    1.9516 C   0  0  0  0  0  0  0  0  0  0  0  0
   -5.2089   -0.9743    1.6981 C   0  0  0  0  0  0  0  0  0  0  0  0
   -5.2993   -2.0569    2.4831 F   0  0  0  0  0  0  0  0  0  0  0  0
   -4.2909   -0.9719    0.6485 C   0  0  0  0  0  0  0  0  0  0  0  0
   -4.2011    0.1690   -0.1740 C   0  0  0  0  0  0  0  0  0  0  0  0
    1.2597   -0.4384   -0.8803 C   0  0  0  0  0  0  0  0  0  0  0  0
    2.4400   -1.1408   -1.0527 C   0  0  0  0  0  0  0  0  0  0  0  0
    3.5786   -0.7040   -0.3736 C   0  0  0  0  0  0  0  0  0  0  0  0
    3.4664    0.4351    0.4245 C   0  0  0  0  0  0  0  0  0  0  0  0
    4.6299    0.9622    1.2183 C   0  0  0  0  0  0  0  0  0  0  0  0
    5.9778    0.4559    0.7091 C   0  0  0  0  0  0  0  0  0  0  0  0
    5.9311   -1.0531    0.4954 C   0  0  0  0  0  0  0  0  0  0  0  0
    4.8911   -1.4149   -0.5650 C   0  0  0  0  0  0  0  0  0  0  0  0
    2.2902    1.0921    0.5703 N   0  0  0  0  0  0  0  0  0  0  0  0
    1.1755    0.6561   -0.0878 N   0  0  0  0  0  0  0  0  0  0  0  0
   -0.9950    0.7095   -0.6929 H   0  0  0  0  0  0  0  0  0  0  0  0
   -2.6123   -1.3939   -1.9053 H   0  0  0  0  0  0  0  0  0  0  0  0
   -2.2391   -0.0671   -3.0164 H   0  0  0  0  0  0  0  0  0  0  0  0
   -3.4092    2.4367   -2.4755 H   0  0  0  0  0  0  0  0  0  0  0  0
   -5.2019    3.1312   -0.8715 H   0  0  0  0  0  0  0  0  0  0  0  0
   -6.5984    2.1152    1.3470 H   0  0  0  0  0  0  0  0  0  0  0  0
   -6.7317    0.0697    2.7805 H   0  0  0  0  0  0  0  0  0  0  0  0
   -3.6613   -1.8393    0.4818 H   0  0  0  0  0  0  0  0  0  0  0  0
    2.4697   -2.0092   -1.7037 H   0  0  0  0  0  0  0  0  0  0  0  0
    4.6235    2.0581    1.2000 H   0  0  0  0  0  0  0  0  0  0  0  0
    4.4944    0.6508    2.2614 H   0  0  0  0  0  0  0  0  0  0  0  0
    6.7633    0.7117    1.4289 H   0  0  0  0  0  0  0  0  0  0  0  0
    6.2318    0.9528   -0.2358 H   0  0  0  0  0  0  0  0  0  0  0  0
    6.9153   -1.4228    0.1870 H   0  0  0  0  0  0  0  0  0  0  0  0
    5.6842   -1.5488    1.4429 H   0  0  0  0  0  0  0  0  0  0  0  0
    4.7344   -2.5001   -0.5506 H   0  0  0  0  0  0  0  0  0  0  0  0
    5.2798   -1.1496   -1.5562 H   0  0  0  0  0  0  0  0  0  0  0  0
  1  2  2  0
  2  3  1  0
  3  4  1  0
  4  5  1  0
  5  6  2  0
  6  7  1  0
  7  8  1  0
  8  9  2  0
  9 10  1  0
 10 11  2  0
 11 12  1  0
 11 13  1  0
 13 14  2  0
  2 15  1  0
 15 16  2  0
 16 17  1  0
 17 18  2  0
 18 19  1  0
 19 20  1  0
 20 21  1  0
 21 22  1  0
 18 23  1  0
 23 24  2  0
 14  5  1  0
 24 15  1  0
 14  8  1  0
 22 17  1  0
  3 25  1  0
  4 26  1  0
  4 27  1  0
  6 28  1  0
  7 29  1  0
  9 30  1  0
 10 31  1  0
 13 32  1  0
 16 33  1  0
 19 34  1  0
 19 35  1  0
 20 36  1  0
 20 37  1  0
 21 38  1  0
 21 39  1  0
 22 40  1  0
 22 41  1  0
M  END
$$$$
OCNT-2314360
     RDKit          3D

 52 55  0  0  0  0  0  0  0  0999 V2000
    7.1014   -0.1274    0.5307 C   0  0  0  0  0  0  0  0  0  0  0  0
    6.2363    0.7222   -0.3249 C   0  0  0  0  0  0  0  0  0  0  0  0
    6.7697    1.6981   -1.0710 N   0  0  0  0  0  0  0  0  0  0  0  0
    5.7122    2.2414   -1.6977 N   0  0  0  0  0  0  0  0  0  0  0  0
    4.5112    1.6683   -1.3738 C   0  0  0  0  0  0  0  0  0  0  0  0
    3.2066    1.9467   -1.7955 C   0  0  0  0  0  0  0  0  0  0  0  0
    2.1850    1.1539   -1.2613 C   0  0  0  0  0  0  0  0  0  0  0  0
    2.4712    0.1294   -0.3496 C   0  0  0  0  0  0  0  0  0  0  0  0
    1.3827   -0.7127    0.2017 C   0  0  0  0  0  0  0  0  0  0  0  0
    1.5233   -1.9251    0.2969 O   0  0  0  0  0  0  0  0  0  0  0  0
    0.2539   -0.0340    0.5932 N   0  0  0  0  0  0  0  0  0  0  0  0
   -0.8849   -0.6838    1.2212 C   0  0  0  0  0  0  0  0  0  0  0  0
   -1.9200   -1.2604    0.2279 C   0  0  0  0  0  0  0  0  0  0  0  0
   -2.4050   -0.1886   -0.8042 C   0  0  0  0  0  0  0  0  0  0  0  0
   -3.0517    1.0664   -0.2559 C   0  0  0  0  0  0  0  0  0  0  0  0
   -4.4261    1.0916    0.0309 C   0  0  0  0  0  0  0  0  0  0  0  0
   -5.0291    2.2507    0.5240 C   0  0  0  0  0  0  0  0  0  0  0  0
   -4.2605    3.3889    0.7261 C   0  0  0  0  0  0  0  0  0  0  0  0
   -4.8378    4.4999    1.1974 F   0  0  0  0  0  0  0  0  0  0  0  0
   -2.9029    3.3944    0.4336 C   0  0  0  0  0  0  0  0  0  0  0  0
   -2.3011    2.2374   -0.0644 C   0  0  0  0  0  0  0  0  0  0  0  0
   -3.0854   -1.8962    1.0198 C   0  0  0  0  0  0  0  0  0  0  0  0
   -3.7624   -2.8580    0.0453 C   0  0  0  0  0  0  0  0  0  0  0  0
   -2.6928   -3.2453   -0.9773 C   0  0  0  0  0  0  0  0  0  0  0  0
   -1.4185   -2.5103   -0.5459 C   0  0  0  0  0  0  0  0  0  0  0  0
   -0.6928   -3.4069    0.2923 O   0  0  0  0  0  0  0  0  0  0  0  0
    3.7897   -0.1456    0.0440 C   0  0  0  0  0  0  0  0  0  0  0  0
    4.8239    0.6537   -0.4749 C   0  0  0  0  0  0  0  0  0  0  0  0
    6.8150   -0.0241    1.5828 H   0  0  0  0  0  0  0  0  0  0  0  0
    7.0048   -1.1807    0.2494 H   0  0  0  0  0  0  0  0  0  0  0  0
    8.1553    0.1521    0.4389 H   0  0  0  0  0  0  0  0  0  0  0  0
    5.8791    3.0079   -2.3381 H   0  0  0  0  0  0  0  0  0  0  0  0
    2.9916    2.7355   -2.5116 H   0  0  0  0  0  0  0  0  0  0  0  0
    1.1630    1.3259   -1.5898 H   0  0  0  0  0  0  0  0  0  0  0  0
    0.3130    0.9717    0.6723 H   0  0  0  0  0  0  0  0  0  0  0  0
   -0.5058   -1.4594    1.8993 H   0  0  0  0  0  0  0  0  0  0  0  0
   -1.3578    0.0727    1.8594 H   0  0  0  0  0  0  0  0  0  0  0  0
   -1.5555    0.1110   -1.4333 H   0  0  0  0  0  0  0  0  0  0  0  0
   -3.1160   -0.6287   -1.5153 H   0  0  0  0  0  0  0  0  0  0  0  0
   -5.0418    0.2101   -0.1367 H   0  0  0  0  0  0  0  0  0  0  0  0
   -6.0916    2.2720    0.7461 H   0  0  0  0  0  0  0  0  0  0  0  0
   -2.3252    4.3008    0.5874 H   0  0  0  0  0  0  0  0  0  0  0  0
   -1.2456    2.2658   -0.3178 H   0  0  0  0  0  0  0  0  0  0  0  0
   -3.7861   -1.1735    1.4412 H   0  0  0  0  0  0  0  0  0  0  0  0
   -2.6969   -2.4765    1.8674 H   0  0  0  0  0  0  0  0  0  0  0  0
   -4.1579   -3.7348    0.5672 H   0  0  0  0  0  0  0  0  0  0  0  0
   -4.6041   -2.3729   -0.4604 H   0  0  0  0  0  0  0  0  0  0  0  0
   -2.5581   -4.3324   -1.0069 H   0  0  0  0  0  0  0  0  0  0  0  0
   -3.0083   -2.9209   -1.9747 H   0  0  0  0  0  0  0  0  0  0  0  0
   -0.7941   -2.2646   -1.4103 H   0  0  0  0  0  0  0  0  0  0  0  0
    0.2230   -3.0512    0.3599 H   0  0  0  0  0  0  0  0  0  0  0  0
    4.0039   -0.9547    0.7397 H   0  0  0  0  0  0  0  0  0  0  0  0
  1  2  1  0
  2  3  2  0
  3  4  1  0
  4  5  1  0
  5  6  2  0
  6  7  1  0
  7  8  2  0
  8  9  1  0
  9 10  2  0
  9 11  1  0
 11 12  1  0
 12 13  1  0
 13 14  1  0
 14 15  1  0
 15 16  1  0
 16 17  2  0
 17 18  1  0
 18 19  1  0
 18 20  2  0
 20 21  1  0
 13 22  1  0
 22 23  1  0
 23 24  1  0
 24 25  1  0
 25 26  1  0
  8 27  1  0
 27 28  2  0
 28  2  1  0
 28  5  1  0
 25 13  1  0
 21 15  2  0
  1 29  1  0
  1 30  1  0
  1 31  1  0
  4 32  1  0
  6 33  1  0
  7 34  1  0
 11 35  1  0
 12 36  1  0
 12 37  1  0
 14 38  1  0
 14 39  1  0
 16 40  1  0
 17 41  1  0
 20 42  1  0
 21 43  1  0
 22 44  1  0
 22 45  1  0
 23 46  1  0
 23 47  1  0
 24 48  1  0
 24 49  1  0
 25 50  1  0
 26 51  1  0
 27 52  1  0
M  END
$$$$
OCNT-2314371
     RDKit          3D

 44 47  0  0  0  0  0  0  0  0999 V2000
    5.3234   -2.0529    0.5619 C   0  0  0  0  0  0  0  0  0  0  0  0
    4.7495   -0.6871    0.4940 C   0  0  0  0  0  0  0  0  0  0  0  0
    5.5532    0.3862    0.5202 N   0  0  0  0  0  0  0  0  0  0  0  0
    4.6973    1.4312    0.4582 N   0  0  0  0  0  0  0  0  0  0  0  0
    5.2160    2.7753    0.4807 C   0  0  0  0  0  0  0  0  0  0  0  0
    3.3823    1.0635    0.3700 C   0  0  0  0  0  0  0  0  0  0  0  0
    2.3096    1.8813    0.2895 N   0  0  0  0  0  0  0  0  0  0  0  0
    1.1371    1.2010    0.2266 C   0  0  0  0  0  0  0  0  0  0  0  0
    1.0037   -0.1840    0.2044 C   0  0  0  0  0  0  0  0  0  0  0  0
   -0.3265   -0.8186    0.1313 C   0  0  0  0  0  0  0  0  0  0  0  0
   -0.5632   -1.7503    0.8950 O   0  0  0  0  0  0  0  0  0  0  0  0
   -1.2380   -0.3381   -0.7982 N   0  0  0  0  0  0  0  0  0  0  0  0
   -0.8785    0.2823   -2.0690 C   0  0  0  0  0  0  0  0  0  0  0  0
   -1.8880   -0.2781   -3.0600 C   0  0  0  0  0  0  0  0  0  0  0  0
   -3.1420   -0.4305   -2.2112 C   0  0  0  0  0  0  0  0  0  0  0  0
   -2.5876   -0.9033   -0.8579 C   0  0  0  0  0  0  0  0  0  0  0  0
   -3.4618   -0.4718    0.3009 C   0  0  0  0  0  0  0  0  0  0  0  0
   -4.1559   -1.4340    1.0533 C   0  0  0  0  0  0  0  0  0  0  0  0
   -4.9730   -1.0556    2.1232 C   0  0  0  0  0  0  0  0  0  0  0  0
   -5.1065    0.2906    2.4548 C   0  0  0  0  0  0  0  0  0  0  0  0
   -4.4190    1.2458    1.7173 C   0  0  0  0  0  0  0  0  0  0  0  0
   -4.5443    2.5414    2.0354 F   0  0  0  0  0  0  0  0  0  0  0  0
   -3.6031    0.8805    0.6513 C   0  0  0  0  0  0  0  0  0  0  0  0
    2.1446   -0.9853    0.3114 C   0  0  0  0  0  0  0  0  0  0  0  0
    3.3806   -0.3258    0.3891 C   0  0  0  0  0  0  0  0  0  0  0  0
    6.3809   -2.0313    0.8454 H   0  0  0  0  0  0  0  0  0  0  0  0
    5.2408   -2.5473   -0.4113 H   0  0  0  0  0  0  0  0  0  0  0  0
    4.7898   -2.6571    1.3026 H   0  0  0  0  0  0  0  0  0  0  0  0
    4.4076    3.4838    0.6796 H   0  0  0  0  0  0  0  0  0  0  0  0
    5.6680    2.9824   -0.4935 H   0  0  0  0  0  0  0  0  0  0  0  0
    5.9669    2.8470    1.2729 H   0  0  0  0  0  0  0  0  0  0  0  0
    0.2570    1.8402    0.2024 H   0  0  0  0  0  0  0  0  0  0  0  0
   -1.0037    1.3647   -1.9583 H   0  0  0  0  0  0  0  0  0  0  0  0
    0.1504    0.0583   -2.3634 H   0  0  0  0  0  0  0  0  0  0  0  0
   -2.0339    0.3720   -3.9271 H   0  0  0  0  0  0  0  0  0  0  0  0
   -1.5603   -1.2621   -3.4168 H   0  0  0  0  0  0  0  0  0  0  0  0
   -3.6474    0.5402   -2.1369 H   0  0  0  0  0  0  0  0  0  0  0  0
   -3.8557   -1.1427   -2.6373 H   0  0  0  0  0  0  0  0  0  0  0  0
   -2.4800   -1.9961   -0.8716 H   0  0  0  0  0  0  0  0  0  0  0  0
   -4.0512   -2.4922    0.8194 H   0  0  0  0  0  0  0  0  0  0  0  0
   -5.4970   -1.8133    2.7003 H   0  0  0  0  0  0  0  0  0  0  0  0
   -5.7341    0.5996    3.2841 H   0  0  0  0  0  0  0  0  0  0  0  0
   -3.0792    1.6582    0.1045 H   0  0  0  0  0  0  0  0  0  0  0  0
    2.0713   -2.0679    0.3331 H   0  0  0  0  0  0  0  0  0  0  0  0
  1  2  1  0
  2  3  2  0
  3  4  1  0
  4  5  1  0
  4  6  1  0
  6  7  1  0
  7  8  2  0
  8  9  1  0
  9 10  1  0
 10 11  2  0
 10 12  1  0
 12 13  1  0
 13 14  1  0
 14 15  1  0
 15 16  1  0
 16 17  1  0
 17 18  2  0
 18 19  1  0
 19 20  2  0
 20 21  1  0
 21 22  1  0
 21 23  2  0
  9 24  2  0
 24 25  1  0
 25  2  1  0
 25  6  2  0
 16 12  1  0
 23 17  1  0
  1 26  1  0
  1 27  1  0
  1 28  1  0
  5 29  1  0
  5 30  1  0
  5 31  1  0
  8 32  1  0
 13 33  1  0
 13 34  1  0
 14 35  1  0
 14 36  1  0
 15 37  1  0
 15 38  1  0
 16 39  1  0
 18 40  1  0
 19 41  1  0
 20 42  1  0
 23 43  1  0
 24 44  1  0
M  END
$$$$
OCNT-2314377
     RDKit          3D

 47 51  0  0  0  0  0  0  0  0999 V2000
    0.2338    0.6225   -1.3502 O   0  0  0  0  0  0  0  0  0  0  0  0
    0.1747    0.1131   -0.2372 C   0  0  0  0  0  0  0  0  0  0  0  0
    1.2557   -0.1291    0.5822 N   0  0  0  0  0  0  0  0  0  0  0  0
    2.6111    0.1025    0.2784 C   0  0  0  0  0  0  0  0  0  0  0  0
    3.5751   -0.1131    1.2425 C   0  0  0  0  0  0  0  0  0  0  0  0
    4.9001    0.0681    1.0563 N   0  0  0  0  0  0  0  0  0  0  0  0
    5.2973    0.4844   -0.1637 C   0  0  0  0  0  0  0  0  0  0  0  0
    6.7690    0.7059   -0.4077 C   0  0  0  0  0  0  0  0  0  0  0  0
    7.7652   -0.3939   -0.1134 C   0  0  0  0  0  0  0  0  0  0  0  0
    7.4703   -0.0194   -1.5347 C   0  0  0  0  0  0  0  0  0  0  0  0
    4.4341    0.7247   -1.1713 N   0  0  0  0  0  0  0  0  0  0  0  0
    3.1150    0.5297   -0.9307 C   0  0  0  0  0  0  0  0  0  0  0  0
   -1.0225   -0.2673    0.3329 N   0  0  0  0  0  0  0  0  0  0  0  0
   -1.2861   -1.4069    1.2145 C   0  0  0  0  0  0  0  0  0  0  0  0
   -2.6506   -1.4599    0.5988 C   0  0  0  0  0  0  0  0  0  0  0  0
   -3.8576   -1.3508    1.5079 C   0  0  0  0  0  0  0  0  0  0  0  0
   -4.5589   -2.3517    0.5565 C   0  0  0  0  0  0  0  0  0  0  0  0
   -3.1557   -2.7862    0.0654 C   0  0  0  0  0  0  0  0  0  0  0  0
   -2.3079   -0.3760   -0.4012 C   0  0  0  0  0  0  0  0  0  0  0  0
   -3.1969    0.9372   -0.5016 C   0  0  0  0  0  0  0  0  0  0  0  0
   -2.9688    2.0870    0.2824 C   0  0  0  0  0  0  0  0  0  0  0  0
   -3.7722    3.2273    0.1832 C   0  0  0  0  0  0  0  0  0  0  0  0
   -4.8360    3.2532   -0.7113 C   0  0  0  0  0  0  0  0  0  0  0  0
   -5.0923    2.1418   -1.5054 C   0  0  0  0  0  0  0  0  0  0  0  0
   -4.2829    1.0067   -1.3995 C   0  0  0  0  0  0  0  0  0  0  0  0
    1.0309   -0.4133    1.5239 H   0  0  0  0  0  0  0  0  0  0  0  0
    3.3133   -0.4525    2.2402 H   0  0  0  0  0  0  0  0  0  0  0  0
    7.1040    1.7202   -0.2119 H   0  0  0  0  0  0  0  0  0  0  0  0
    7.3900   -1.3434    0.2518 H   0  0  0  0  0  0  0  0  0  0  0  0
    8.7222   -0.1055    0.3047 H   0  0  0  0  0  0  0  0  0  0  0  0
    8.2245    0.5258   -2.0893 H   0  0  0  0  0  0  0  0  0  0  0  0
    6.8924   -0.7117   -2.1371 H   0  0  0  0  0  0  0  0  0  0  0  0
    2.4830    0.7391   -1.7874 H   0  0  0  0  0  0  0  0  0  0  0  0
   -1.2404   -1.1358    2.2726 H   0  0  0  0  0  0  0  0  0  0  0  0
   -0.6377   -2.2653    1.0150 H   0  0  0  0  0  0  0  0  0  0  0  0
   -3.6994   -1.7597    2.5135 H   0  0  0  0  0  0  0  0  0  0  0  0
   -4.3470   -0.3801    1.6100 H   0  0  0  0  0  0  0  0  0  0  0  0
   -5.1670   -1.8717   -0.2185 H   0  0  0  0  0  0  0  0  0  0  0  0
   -5.1527   -3.1301    1.0423 H   0  0  0  0  0  0  0  0  0  0  0  0
   -3.0720   -2.9574   -1.0112 H   0  0  0  0  0  0  0  0  0  0  0  0
   -2.7664   -3.6647    0.5932 H   0  0  0  0  0  0  0  0  0  0  0  0
   -2.1154   -0.7813   -1.4069 H   0  0  0  0  0  0  0  0  0  0  0  0
   -2.1391    2.0974    0.9864 H   0  0  0  0  0  0  0  0  0  0  0  0
   -3.5596    4.0950    0.8020 H   0  0  0  0  0  0  0  0  0  0  0  0
   -5.4590    4.1394   -0.7935 H   0  0  0  0  0  0  0  0  0  0  0  0
   -5.9179    2.1559   -2.2118 H   0  0  0  0  0  0  0  0  0  0  0  0
   -4.4997    0.1501   -2.0358 H   0  0  0  0  0  0  0  0  0  0  0  0
  1  2  2  0
  2  3  1  0
  3  4  1  0
  4  5  2  0
  5  6  1  0
  6  7  2  0
  7  8  1  0
  8  9  1  0
  9 10  1  0
  7 11  1  0
 11 12  2  0
  2 13  1  0
 13 14  1  0
 14 15  1  0
 15 16  1  0
 16 17  1  0
 17 18  1  0
 15 19  1  0
 19 20  1  0
 20 21  2  0
 21 22  1  0
 22 23  2  0
 23 24  1  0
 24 25  2  0
 12  4  1  0
 19 13  1  0
 25 20  1  0
 10  8  1  0
 18 15  1  0
  3 26  1  0
  5 27  1  0
  8 28  1  0
  9 29  1  0
  9 30  1  0
 10 31  1  0
 10 32  1  0
 12 33  1  0
 14 34  1  0
 14 35  1  0
 16 36  1  0
 16 37  1  0
 17 38  1  0
 17 39  1  0
 18 40  1  0
 18 41  1  0
 19 42  1  0
 21 43  1  0
 22 44  1  0
 23 45  1  0
 24 46  1  0
 25 47  1  0
M  END
$$$$
OCNT-2314380
     RDKit          3D

 46 49  0  0  0  0  0  0  0  0999 V2000
    6.5259    1.1290    0.4852 C   0  0  0  0  0  0  0  0  0  0  0  0
    5.1302    0.8360    0.3973 O   0  0  0  0  0  0  0  0  0  0  0  0
    4.8451   -0.3713   -0.1742 C   0  0  0  0  0  0  0  0  0  0  0  0
    5.7068   -1.1475   -0.5832 O   0  0  0  0  0  0  0  0  0  0  0  0
    3.3750   -0.6283   -0.2402 C   0  0  0  0  0  0  0  0  0  0  0  0
    2.5767   -1.8065    0.3969 C   0  0  0  0  0  0  0  0  0  0  0  0
    1.4693   -0.9867   -0.3385 C   0  0  0  0  0  0  0  0  0  0  0  0
    0.0117   -1.3079   -0.4332 C   0  0  0  0  0  0  0  0  0  0  0  0
   -0.4113   -2.3700   -0.8928 O   0  0  0  0  0  0  0  0  0  0  0  0
   -0.8267   -0.3182    0.0344 N   0  0  0  0  0  0  0  0  0  0  0  0
   -2.2687   -0.4297   -0.0326 C   0  0  0  0  0  0  0  0  0  0  0  0
   -2.7487    0.6004   -1.0457 C   0  0  0  0  0  0  0  0  0  0  0  0
   -2.4008    0.2965   -2.5337 C   0  0  0  0  0  0  0  0  0  0  0  0
   -3.7645    0.9102   -2.9050 C   0  0  0  0  0  0  0  0  0  0  0  0
   -4.2394    0.5237   -1.4909 C   0  0  0  0  0  0  0  0  0  0  0  0
   -2.8905    0.0162    1.2927 C   0  0  0  0  0  0  0  0  0  0  0  0
   -2.4117    1.2870    2.0544 C   0  0  0  0  0  0  0  0  0  0  0  0
   -1.6069    0.3791    2.9998 C   0  0  0  0  0  0  0  0  0  0  0  0
   -2.4850   -0.8007    2.5510 C   0  0  0  0  0  0  0  0  0  0  0  0
    2.1922    0.2681    0.2409 C   0  0  0  0  0  0  0  0  0  0  0  0
    2.5008   -0.8858   -1.5059 C   0  0  0  0  0  0  0  0  0  0  0  0
    7.0337    0.3899    1.1126 H   0  0  0  0  0  0  0  0  0  0  0  0
    6.9737    1.1665   -0.5127 H   0  0  0  0  0  0  0  0  0  0  0  0
    6.6363    2.1122    0.9509 H   0  0  0  0  0  0  0  0  0  0  0  0
    2.5263   -1.8397    1.4907 H   0  0  0  0  0  0  0  0  0  0  0  0
    2.7860   -2.8124    0.0172 H   0  0  0  0  0  0  0  0  0  0  0  0
   -0.4220    0.5618    0.3246 H   0  0  0  0  0  0  0  0  0  0  0  0
   -2.5836   -1.4449   -0.2959 H   0  0  0  0  0  0  0  0  0  0  0  0
   -2.4608    1.6301   -0.7822 H   0  0  0  0  0  0  0  0  0  0  0  0
   -2.3223   -0.7699   -2.7765 H   0  0  0  0  0  0  0  0  0  0  0  0
   -1.5249    0.8157   -2.9316 H   0  0  0  0  0  0  0  0  0  0  0  0
   -3.7295    1.9918   -3.0793 H   0  0  0  0  0  0  0  0  0  0  0  0
   -4.2931    0.4315   -3.7328 H   0  0  0  0  0  0  0  0  0  0  0  0
   -4.9154    1.2359   -1.0105 H   0  0  0  0  0  0  0  0  0  0  0  0
   -4.6800   -0.4788   -1.4353 H   0  0  0  0  0  0  0  0  0  0  0  0
   -3.9860    0.0079    1.1867 H   0  0  0  0  0  0  0  0  0  0  0  0
   -1.8208    2.0136    1.4911 H   0  0  0  0  0  0  0  0  0  0  0  0
   -3.2276    1.8206    2.5567 H   0  0  0  0  0  0  0  0  0  0  0  0
   -1.6697    0.6338    4.0613 H   0  0  0  0  0  0  0  0  0  0  0  0
   -0.5508    0.2759    2.7288 H   0  0  0  0  0  0  0  0  0  0  0  0
   -3.3242   -0.9989    3.2283 H   0  0  0  0  0  0  0  0  0  0  0  0
   -1.9525   -1.7396    2.3749 H   0  0  0  0  0  0  0  0  0  0  0  0
    2.1041    0.4392    1.3194 H   0  0  0  0  0  0  0  0  0  0  0  0
    2.0418    1.2169   -0.2856 H   0  0  0  0  0  0  0  0  0  0  0  0
    2.3794   -0.0512   -2.2050 H   0  0  0  0  0  0  0  0  0  0  0  0
    2.7025   -1.8013   -2.0725 H   0  0  0  0  0  0  0  0  0  0  0  0
  1  2  1  0
  2  3  1  0
  3  4  2  0
  3  5  1  0
  5  6  1  0
  6  7  1  0
  7  8  1  0
  8  9  2  0
  8 10  1  0
 10 11  1  0
 11 12  1  0
 12 13  1  0
 13 14  1  0
 14 15  1  0
 11 16  1  0
 16 17  1  0
 17 18  1  0
 18 19  1  0
  7 20  1  0
  7 21  1  0
 20  5  1  0
 21  5  1  0
 15 12  1  0
 19 16  1  0
  1 22  1  0
  1 23  1  0
  1 24  1  0
  6 25  1  0
  6 26  1  0
 10 27  1  0
 11 28  1  0
 12 29  1  0
 13 30  1  0
 13 31  1  0
 14 32  1  0
 14 33  1  0
 15 34  1  0
 15 35  1  0
 16 36  1  0
 17 37  1  0
 17 38  1  0
 18 39  1  0
 18 40  1  0
 19 41  1  0
 19 42  1  0
 20 43  1  0
 20 44  1  0
 21 45  1  0
 21 46  1  0
M  END
$$$$
OCNT-2314381
     RDKit          3D

 46 49  0  0  0  0  0  0  0  0999 V2000
    4.3391   -3.1197    0.8191 C   0  0  0  0  0  0  0  0  0  0  0  0
    3.6882   -2.0295    0.1348 N   0  0  0  0  0  0  0  0  0  0  0  0
    2.3569   -1.9044   -0.1356 C   0  0  0  0  0  0  0  0  0  0  0  0
    2.2065   -0.7039   -0.8034 C   0  0  0  0  0  0  0  0  0  0  0  0
    0.9575   -0.0736   -1.3362 C   0  0  0  0  0  0  0  0  0  0  0  0
    0.2166    0.8249   -0.4428 N   0  0  0  0  0  0  0  0  0  0  0  0
   -0.3603    0.2794    0.7984 C   0  0  0  0  0  0  0  0  0  0  0  0
   -1.2798   -0.9356    0.5854 C   0  0  0  0  0  0  0  0  0  0  0  0
   -1.6976   -1.5609    1.9385 C   0  0  0  0  0  0  0  0  0  0  0  0
   -3.0150   -2.3033    1.6831 C   0  0  0  0  0  0  0  0  0  0  0  0
   -3.6150   -1.4513    0.6098 C   0  0  0  0  0  0  0  0  0  0  0  0
   -4.9380   -1.4160    0.2006 C   0  0  0  0  0  0  0  0  0  0  0  0
   -5.2851   -0.5594   -0.8449 C   0  0  0  0  0  0  0  0  0  0  0  0
   -4.3119    0.2350   -1.4687 C   0  0  0  0  0  0  0  0  0  0  0  0
   -2.9776    0.1823   -1.0577 C   0  0  0  0  0  0  0  0  0  0  0  0
   -2.6375   -0.6620   -0.0126 C   0  0  0  0  0  0  0  0  0  0  0  0
    0.7941    2.0901   -0.3048 C   0  0  0  0  0  0  0  0  0  0  0  0
    0.5791    2.7963    0.8188 N   0  0  0  0  0  0  0  0  0  0  0  0
    1.1154    4.0253    0.9265 C   0  0  0  0  0  0  0  0  0  0  0  0
    1.8679    4.6024   -0.0566 C   0  0  0  0  0  0  0  0  0  0  0  0
    2.0363    3.8247   -1.1744 C   0  0  0  0  0  0  0  0  0  0  0  0
    2.8017    4.3079   -2.2887 C   0  0  0  0  0  0  0  0  0  0  0  0
    3.4291    4.7336   -3.1693 N   0  0  0  0  0  0  0  0  0  0  0  0
    1.5174    2.5867   -1.3179 N   0  0  0  0  0  0  0  0  0  0  0  0
    3.5226   -0.1941   -0.8838 C   0  0  0  0  0  0  0  0  0  0  0  0
    4.4229   -0.9972   -0.3122 N   0  0  0  0  0  0  0  0  0  0  0  0
    3.5932   -3.8632    1.1107 H   0  0  0  0  0  0  0  0  0  0  0  0
    4.8360   -2.7216    1.7073 H   0  0  0  0  0  0  0  0  0  0  0  0
    5.0672   -3.5683    0.1388 H   0  0  0  0  0  0  0  0  0  0  0  0
    1.6424   -2.6599    0.1586 H   0  0  0  0  0  0  0  0  0  0  0  0
    0.2843   -0.8798   -1.6539 H   0  0  0  0  0  0  0  0  0  0  0  0
    1.1888    0.4243   -2.2885 H   0  0  0  0  0  0  0  0  0  0  0  0
   -0.9600    1.0461    1.3081 H   0  0  0  0  0  0  0  0  0  0  0  0
    0.4538    0.0004    1.4805 H   0  0  0  0  0  0  0  0  0  0  0  0
   -0.7936   -1.7143   -0.0118 H   0  0  0  0  0  0  0  0  0  0  0  0
   -0.9248   -2.2233    2.3427 H   0  0  0  0  0  0  0  0  0  0  0  0
   -1.8705   -0.7723    2.6847 H   0  0  0  0  0  0  0  0  0  0  0  0
   -3.6329   -2.3409    2.5846 H   0  0  0  0  0  0  0  0  0  0  0  0
   -2.8355   -3.3155    1.3065 H   0  0  0  0  0  0  0  0  0  0  0  0
   -5.6898   -2.0356    0.6785 H   0  0  0  0  0  0  0  0  0  0  0  0
   -6.3173   -0.5085   -1.1822 H   0  0  0  0  0  0  0  0  0  0  0  0
   -4.5976    0.8953   -2.2839 H   0  0  0  0  0  0  0  0  0  0  0  0
   -2.2320    0.7952   -1.5545 H   0  0  0  0  0  0  0  0  0  0  0  0
    0.9076    4.5411    1.8594 H   0  0  0  0  0  0  0  0  0  0  0  0
    2.2902    5.5923    0.0455 H   0  0  0  0  0  0  0  0  0  0  0  0
    3.8569    0.7310   -1.3366 H   0  0  0  0  0  0  0  0  0  0  0  0
  1  2  1  0
  2  3  1  0
  3  4  2  0
  4  5  1  0
  5  6  1  0
  6  7  1  0
  7  8  1  0
  8  9  1  0
  9 10  1  0
 10 11  1  0
 11 12  2  0
 12 13  1  0
 13 14  2  0
 14 15  1  0
 15 16  2  0
  6 17  1  0
 17 18  2  0
 18 19  1  0
 19 20  2  0
 20 21  1  0
 21 22  1  0
 22 23  3  0
 21 24  2  0
  4 25  1  0
 25 26  2  0
 26  2  1  0
 16  8  1  0
 24 17  1  0
 16 11  1  0
  1 27  1  0
  1 28  1  0
  1 29  1  0
  3 30  1  0
  5 31  1  0
  5 32  1  0
  7 33  1  0
  7 34  1  0
  8 35  1  0
  9 36  1  0
  9 37  1  0
 10 38  1  0
 10 39  1  0
 12 40  1  0
 13 41  1  0
 14 42  1  0
 15 43  1  0
 19 44  1  0
 20 45  1  0
 25 46  1  0
M  END
$$$$
OCNT-2314395
     RDKit          3D

 43 46  0  0  0  0  0  0  0  0999 V2000
   -2.2201    2.1440    0.4696 C   0  0  0  0  0  0  0  0  0  0  0  0
   -2.8187    0.8892    0.0864 N   0  0  0  0  0  0  0  0  0  0  0  0
   -4.1343    0.7063   -0.2701 C   0  0  0  0  0  0  0  0  0  0  0  0
   -5.2175    1.5693   -0.4353 C   0  0  0  0  0  0  0  0  0  0  0  0
   -6.4037    0.9470   -0.8032 C   0  0  0  0  0  0  0  0  0  0  0  0
   -6.5598   -0.3829   -0.9994 N   0  0  0  0  0  0  0  0  0  0  0  0
   -5.4852   -1.1993   -0.8291 C   0  0  0  0  0  0  0  0  0  0  0  0
   -4.2455   -0.6685   -0.4611 C   0  0  0  0  0  0  0  0  0  0  0  0
   -3.0414   -1.2930   -0.2401 N   0  0  0  0  0  0  0  0  0  0  0  0
   -2.1922   -0.3377    0.0619 C   0  0  0  0  0  0  0  0  0  0  0  0
   -0.8635   -0.4684    0.3360 N   0  0  0  0  0  0  0  0  0  0  0  0
   -0.4921   -1.7417    1.0076 C   0  0  0  0  0  0  0  0  0  0  0  0
    0.3973   -2.6130    0.1156 C   0  0  0  0  0  0  0  0  0  0  0  0
    1.6303   -1.9645   -0.2288 O   0  0  0  0  0  0  0  0  0  0  0  0
    1.4848   -0.5646   -0.5545 C   0  0  0  0  0  0  0  0  0  0  0  0
    2.1287    0.2963    0.5520 C   0  0  0  0  0  0  0  0  0  0  0  0
    3.6315    0.4088    0.4045 C   0  0  0  0  0  0  0  0  0  0  0  0
    4.2184    1.6076   -0.0238 C   0  0  0  0  0  0  0  0  0  0  0  0
    5.6041    1.7072   -0.1628 C   0  0  0  0  0  0  0  0  0  0  0  0
    6.4157    0.6111    0.1231 C   0  0  0  0  0  0  0  0  0  0  0  0
    5.8428   -0.5857    0.5480 C   0  0  0  0  0  0  0  0  0  0  0  0
    4.4580   -0.6868    0.6885 C   0  0  0  0  0  0  0  0  0  0  0  0
    0.0188   -0.1495   -0.8156 C   0  0  0  0  0  0  0  0  0  0  0  0
   -1.8419    2.6309   -0.4326 H   0  0  0  0  0  0  0  0  0  0  0  0
   -2.9728    2.7734    0.9509 H   0  0  0  0  0  0  0  0  0  0  0  0
   -1.4073    1.9677    1.1783 H   0  0  0  0  0  0  0  0  0  0  0  0
   -5.1521    2.6390   -0.2913 H   0  0  0  0  0  0  0  0  0  0  0  0
   -7.3059    1.5348   -0.9566 H   0  0  0  0  0  0  0  0  0  0  0  0
   -5.6391   -2.2581   -0.9923 H   0  0  0  0  0  0  0  0  0  0  0  0
    0.0594   -1.4771    1.9172 H   0  0  0  0  0  0  0  0  0  0  0  0
   -1.3686   -2.3155    1.3326 H   0  0  0  0  0  0  0  0  0  0  0  0
    0.6548   -3.5402    0.6375 H   0  0  0  0  0  0  0  0  0  0  0  0
   -0.1194   -2.8924   -0.8099 H   0  0  0  0  0  0  0  0  0  0  0  0
    2.0364   -0.4117   -1.4907 H   0  0  0  0  0  0  0  0  0  0  0  0
    1.9186   -0.1150    1.5464 H   0  0  0  0  0  0  0  0  0  0  0  0
    1.7045    1.3080    0.5356 H   0  0  0  0  0  0  0  0  0  0  0  0
    3.6029    2.4744   -0.2513 H   0  0  0  0  0  0  0  0  0  0  0  0
    6.0512    2.6406   -0.4944 H   0  0  0  0  0  0  0  0  0  0  0  0
    7.4940    0.6885    0.0138 H   0  0  0  0  0  0  0  0  0  0  0  0
    6.4730   -1.4432    0.7684 H   0  0  0  0  0  0  0  0  0  0  0  0
    4.0236   -1.6297    1.0152 H   0  0  0  0  0  0  0  0  0  0  0  0
   -0.0272    0.9229   -1.0393 H   0  0  0  0  0  0  0  0  0  0  0  0
   -0.3406   -0.6832   -1.7068 H   0  0  0  0  0  0  0  0  0  0  0  0
  1  2  1  0
  2  3  1  0
  3  4  2  0
  4  5  1  0
  5  6  2  0
  6  7  1  0
  7  8  2  0
  8  9  1  0
  9 10  2  0
 10 11  1  0
 11 12  1  0
 12 13  1  0
 13 14  1  0
 14 15  1  0
 15 16  1  0
 16 17  1  0
 17 18  2  0
 18 19  1  0
 19 20  2  0
 20 21  1  0
 21 22  2  0
 15 23  1  0
 10  2  1  0
 23 11  1  0
  8  3  1  0
 22 17  1  0
  1 24  1  0
  1 25  1  0
  1 26  1  0
  4 27  1  0
  5 28  1  0
  7 29  1  0
 12 30  1  0
 12 31  1  0
 13 32  1  0
 13 33  1  0
 15 34  1  0
 16 35  1  0
 16 36  1  0
 18 37  1  0
 19 38  1  0
 20 39  1  0
 21 40  1  0
 22 41  1  0
 23 42  1  0
 23 43  1  0
M  END
$$$$
OCNT-2314397
     RDKit          3D

 43 47  0  0  0  0  0  0  0  0999 V2000
   -3.3820    0.0852   -2.1306 C   0  0  0  0  0  0  0  0  0  0  0  0
   -3.5368   -0.0847   -0.6174 C   0  0  0  0  0  0  0  0  0  0  0  0
   -3.0608   -1.4904   -0.1653 C   0  0  0  0  0  0  0  0  0  0  0  0
   -3.3782   -1.7693    1.3157 C   0  0  0  0  0  0  0  0  0  0  0  0
   -3.1114   -0.5761    2.1627 C   0  0  0  0  0  0  0  0  0  0  0  0
   -3.1006   -0.6178    3.4964 N   0  0  0  0  0  0  0  0  0  0  0  0
   -2.8525    0.6555    3.8512 N   0  0  0  0  0  0  0  0  0  0  0  0
   -2.7415    1.5074    2.7881 C   0  0  0  0  0  0  0  0  0  0  0  0
   -2.8989    0.7300    1.6634 C   0  0  0  0  0  0  0  0  0  0  0  0
   -2.8664    1.0669    0.2041 C   0  0  0  0  0  0  0  0  0  0  0  0
   -1.4683    1.3668   -0.2374 C   0  0  0  0  0  0  0  0  0  0  0  0
   -0.4424    0.5680   -0.4396 N   0  0  0  0  0  0  0  0  0  0  0  0
    0.5457    1.4476   -0.8167 C   0  0  0  0  0  0  0  0  0  0  0  0
    1.9367    1.0147   -1.1486 C   0  0  0  0  0  0  0  0  0  0  0  0
    1.9263   -0.1584   -2.1279 C   0  0  0  0  0  0  0  0  0  0  0  0
    3.2569   -0.4669   -2.5694 O   0  0  0  0  0  0  0  0  0  0  0  0
    4.1297   -0.5163   -1.5129 C   0  0  0  0  0  0  0  0  0  0  0  0
    5.3642   -1.1182   -1.7482 C   0  0  0  0  0  0  0  0  0  0  0  0
    6.2945   -1.2242   -0.7129 C   0  0  0  0  0  0  0  0  0  0  0  0
    5.9896   -0.7260    0.5549 C   0  0  0  0  0  0  0  0  0  0  0  0
    4.7584   -0.1107    0.7869 C   0  0  0  0  0  0  0  0  0  0  0  0
    3.8352    0.0080   -0.2502 C   0  0  0  0  0  0  0  0  0  0  0  0
    2.6576    0.6447    0.0451 O   0  0  0  0  0  0  0  0  0  0  0  0
    0.1526    2.7279   -0.8901 N   0  0  0  0  0  0  0  0  0  0  0  0
   -1.1841    2.6784   -0.4960 O   0  0  0  0  0  0  0  0  0  0  0  0
   -4.0026   -0.6450   -2.6613 H   0  0  0  0  0  0  0  0  0  0  0  0
   -3.7022    1.0840   -2.4448 H   0  0  0  0  0  0  0  0  0  0  0  0
   -2.3482   -0.0654   -2.4572 H   0  0  0  0  0  0  0  0  0  0  0  0
   -4.6162   -0.0387   -0.4069 H   0  0  0  0  0  0  0  0  0  0  0  0
   -3.5353   -2.2661   -0.7787 H   0  0  0  0  0  0  0  0  0  0  0  0
   -1.9805   -1.5866   -0.3280 H   0  0  0  0  0  0  0  0  0  0  0  0
   -2.7929   -2.6287    1.6611 H   0  0  0  0  0  0  0  0  0  0  0  0
   -4.4382   -2.0354    1.4106 H   0  0  0  0  0  0  0  0  0  0  0  0
   -2.7776    0.8722    4.8396 H   0  0  0  0  0  0  0  0  0  0  0  0
   -2.5500    2.5616    2.9295 H   0  0  0  0  0  0  0  0  0  0  0  0
   -3.4738    1.9699    0.0503 H   0  0  0  0  0  0  0  0  0  0  0  0
    2.4747    1.8621   -1.5978 H   0  0  0  0  0  0  0  0  0  0  0  0
    1.3378    0.0834   -3.0203 H   0  0  0  0  0  0  0  0  0  0  0  0
    1.4940   -1.0640   -1.6814 H   0  0  0  0  0  0  0  0  0  0  0  0
    5.5970   -1.5146   -2.7326 H   0  0  0  0  0  0  0  0  0  0  0  0
    7.2549   -1.7003   -0.8936 H   0  0  0  0  0  0  0  0  0  0  0  0
    6.7124   -0.8139    1.3621 H   0  0  0  0  0  0  0  0  0  0  0  0
    4.5233    0.2837    1.7717 H   0  0  0  0  0  0  0  0  0  0  0  0
  1  2  1  0
  2  3  1  0
  3  4  1  0
  4  5  1  0
  5  6  2  0
  6  7  1  0
  7  8  1  0
  8  9  2  0
  9 10  1  0
 10 11  1  0
 11 12  2  0
 12 13  1  0
 13 14  1  0
 14 15  1  0
 15 16  1  0
 16 17  1  0
 17 18  2  0
 18 19  1  0
 19 20  2  0
 20 21  1  0
 21 22  2  0
 22 23  1  0
 13 24  2  0
 24 25  1  0
 10  2  1  0
 25 11  1  0
  9  5  1  0
 23 14  1  0
 22 17  1  0
  1 26  1  0
  1 27  1  0
  1 28  1  0
  2 29  1  0
  3 30  1  0
  3 31  1  0
  4 32  1  0
  4 33  1  0
  7 34  1  0
  8 35  1  0
 10 36  1  0
 14 37  1  0
 15 38  1  0
 15 39  1  0
 18 40  1  0
 19 41  1  0
 20 42  1  0
 21 43  1  0
M  END
$$$$
OCNT-2314412
     RDKit          3D

 41 44  0  0  0  0  0  0  0  0999 V2000
    4.9571    2.5442    2.0302 C   0  0  0  0  0  0  0  0  0  0  0  0
    5.9119    1.5019    1.8633 O   0  0  0  0  0  0  0  0  0  0  0  0
    5.3779    0.3613    1.2854 C   0  0  0  0  0  0  0  0  0  0  0  0
    6.2773   -0.6930    1.1260 C   0  0  0  0  0  0  0  0  0  0  0  0
    5.8405   -1.8906    0.5512 C   0  0  0  0  0  0  0  0  0  0  0  0
    4.4986   -1.9539    0.1654 C   0  0  0  0  0  0  0  0  0  0  0  0
    3.7658   -2.9580   -0.4179 N   0  0  0  0  0  0  0  0  0  0  0  0
    2.5435   -2.4695   -0.5505 C   0  0  0  0  0  0  0  0  0  0  0  0
    1.3655   -3.1571   -1.1565 C   0  0  0  0  0  0  0  0  0  0  0  0
   -0.0174   -3.3405    0.0064 S   0  0  0  0  0  0  0  0  0  0  0  0
   -0.9497   -1.8969   -0.4199 C   0  0  0  0  0  0  0  0  0  0  0  0
   -2.2731   -2.0551   -0.5789 N   0  0  0  0  0  0  0  0  0  0  0  0
   -2.9847   -0.9447   -0.8739 C   0  0  0  0  0  0  0  0  0  0  0  0
   -2.4261    0.3082   -1.0001 C   0  0  0  0  0  0  0  0  0  0  0  0
   -3.0793    1.4637   -1.3218 O   0  0  0  0  0  0  0  0  0  0  0  0
   -4.3981    1.5676   -0.9513 C   0  0  0  0  0  0  0  0  0  0  0  0
   -4.7795    1.5633    0.3923 C   0  0  0  0  0  0  0  0  0  0  0  0
   -6.1270    1.7008    0.7255 C   0  0  0  0  0  0  0  0  0  0  0  0
   -7.0823    1.8584   -0.2799 C   0  0  0  0  0  0  0  0  0  0  0  0
   -6.6923    1.8878   -1.6198 C   0  0  0  0  0  0  0  0  0  0  0  0
   -5.3460    1.7504   -1.9573 C   0  0  0  0  0  0  0  0  0  0  0  0
   -1.0597    0.3524   -0.8338 C   0  0  0  0  0  0  0  0  0  0  0  0
   -0.2951   -0.7244   -0.5385 N   0  0  0  0  0  0  0  0  0  0  0  0
    2.4795   -1.1761   -0.0815 N   0  0  0  0  0  0  0  0  0  0  0  0
    3.7125   -0.8309    0.3812 C   0  0  0  0  0  0  0  0  0  0  0  0
    4.0706    0.3463    0.9244 N   0  0  0  0  0  0  0  0  0  0  0  0
    4.5664    2.8833    1.0645 H   0  0  0  0  0  0  0  0  0  0  0  0
    4.1452    2.2365    2.6983 H   0  0  0  0  0  0  0  0  0  0  0  0
    5.4679    3.3918    2.4974 H   0  0  0  0  0  0  0  0  0  0  0  0
    7.3076   -0.5825    1.4472 H   0  0  0  0  0  0  0  0  0  0  0  0
    6.5036   -2.7347    0.4090 H   0  0  0  0  0  0  0  0  0  0  0  0
    1.0501   -2.6456   -2.0725 H   0  0  0  0  0  0  0  0  0  0  0  0
    1.6683   -4.1674   -1.4534 H   0  0  0  0  0  0  0  0  0  0  0  0
   -4.0479   -1.1177   -1.0138 H   0  0  0  0  0  0  0  0  0  0  0  0
   -4.0384    1.4591    1.1798 H   0  0  0  0  0  0  0  0  0  0  0  0
   -6.4332    1.6921    1.7687 H   0  0  0  0  0  0  0  0  0  0  0  0
   -8.1321    1.9682   -0.0180 H   0  0  0  0  0  0  0  0  0  0  0  0
   -7.4378    2.0230   -2.3995 H   0  0  0  0  0  0  0  0  0  0  0  0
   -5.0408    1.7830   -2.9995 H   0  0  0  0  0  0  0  0  0  0  0  0
   -0.5204    1.2911   -0.9324 H   0  0  0  0  0  0  0  0  0  0  0  0
    1.6510   -0.5957   -0.0638 H   0  0  0  0  0  0  0  0  0  0  0  0
  1  2  1  0
  2  3  1  0
  3  4  2  0
  4  5  1  0
  5  6  2  0
  6  7  1  0
  7  8  2  0
  8  9  1  0
  9 10  1  0
 10 11  1  0
 11 12  2  0
 12 13  1  0
 13 14  2  0
 14 15  1  0
 15 16  1  0
 16 17  2  0
 17 18  1  0
 18 19  2  0
 19 20  1  0
 20 21  2  0
 14 22  1  0
 22 23  2  0
  8 24  1  0
 24 25  1  0
 25 26  2  0
 26  3  1  0
 25  6  1  0
 23 11  1  0
 21 16  1  0
  1 27  1  0
  1 28  1  0
  1 29  1  0
  4 30  1  0
  5 31  1  0
  9 32  1  0
  9 33  1  0
 13 34  1  0
 17 35  1  0
 18 36  1  0
 19 37  1  0
 20 38  1  0
 21 39  1  0
 22 40  1  0
 24 41  1  0
M  END
$$$$
OCNT-2314426
     RDKit          3D

 50 53  0  0  0  0  0  0  0  0999 V2000
    1.7160   -1.9921   -0.2752 O   0  0  0  0  0  0  0  0  0  0  0  0
    1.5112   -0.8617    0.1511 C   0  0  0  0  0  0  0  0  0  0  0  0
    0.4039   -0.5159    0.9018 N   0  0  0  0  0  0  0  0  0  0  0  0
   -0.5332   -1.5319    1.3436 C   0  0  0  0  0  0  0  0  0  0  0  0
   -1.9087   -0.9418    1.6109 C   0  0  0  0  0  0  0  0  0  0  0  0
   -2.8897   -1.9500    2.2021 C   0  0  0  0  0  0  0  0  0  0  0  0
   -4.2481   -1.3033    1.9371 C   0  0  0  0  0  0  0  0  0  0  0  0
   -4.0455   -0.5487    0.7020 N   0  0  0  0  0  0  0  0  0  0  0  0
   -5.0643   -0.0354   -0.0648 C   0  0  0  0  0  0  0  0  0  0  0  0
   -4.8318    0.5079   -1.3397 C   0  0  0  0  0  0  0  0  0  0  0  0
   -5.8657    1.0364   -2.1242 C   0  0  0  0  0  0  0  0  0  0  0  0
   -7.1671    1.0340   -1.6418 C   0  0  0  0  0  0  0  0  0  0  0  0
   -8.4410    1.6830   -2.5969 Cl  0  0  0  0  0  0  0  0  0  0  0  0
   -7.4378    0.5086   -0.3860 C   0  0  0  0  0  0  0  0  0  0  0  0
   -6.3945   -0.0176    0.3876 C   0  0  0  0  0  0  0  0  0  0  0  0
   -2.6305   -0.4956    0.3342 C   0  0  0  0  0  0  0  0  0  0  0  0
    2.5004    0.2225   -0.1006 C   0  0  0  0  0  0  0  0  0  0  0  0
    2.1270    1.5670   -0.1556 C   0  0  0  0  0  0  0  0  0  0  0  0
    3.0954    2.5398   -0.3876 C   0  0  0  0  0  0  0  0  0  0  0  0
    4.4297    2.1685   -0.5801 C   0  0  0  0  0  0  0  0  0  0  0  0
    4.8458    0.8209   -0.5667 C   0  0  0  0  0  0  0  0  0  0  0  0
    6.3738    0.4062   -0.7918 C   0  0  0  0  0  0  0  0  0  0  0  0
    7.0998    0.4557    0.4717 O   0  0  0  0  0  0  0  0  0  0  0  0
    6.6518   -0.8765   -1.6376 C   0  0  0  0  0  0  0  0  0  0  0  0
    7.6929   -0.1877   -2.3830 O   0  0  0  0  0  0  0  0  0  0  0  0
    7.1230    1.0868   -1.9798 C   0  0  0  0  0  0  0  0  0  0  0  0
    3.8411   -0.1360   -0.3111 C   0  0  0  0  0  0  0  0  0  0  0  0
    0.4753    0.3230    1.4638 H   0  0  0  0  0  0  0  0  0  0  0  0
   -0.1193   -1.9643    2.2618 H   0  0  0  0  0  0  0  0  0  0  0  0
   -0.5859   -2.3348    0.5992 H   0  0  0  0  0  0  0  0  0  0  0  0
   -1.8253   -0.0851    2.2945 H   0  0  0  0  0  0  0  0  0  0  0  0
   -2.7203   -2.1339    3.2672 H   0  0  0  0  0  0  0  0  0  0  0  0
   -2.8242   -2.9105    1.6755 H   0  0  0  0  0  0  0  0  0  0  0  0
   -4.5156   -0.6224    2.7533 H   0  0  0  0  0  0  0  0  0  0  0  0
   -5.0190   -2.0755    1.8404 H   0  0  0  0  0  0  0  0  0  0  0  0
   -3.8296    0.5218   -1.7590 H   0  0  0  0  0  0  0  0  0  0  0  0
   -5.6406    1.4432   -3.1060 H   0  0  0  0  0  0  0  0  0  0  0  0
   -8.4511    0.5041    0.0046 H   0  0  0  0  0  0  0  0  0  0  0  0
   -6.6477   -0.4079    1.3692 H   0  0  0  0  0  0  0  0  0  0  0  0
   -2.3131    0.5156    0.0556 H   0  0  0  0  0  0  0  0  0  0  0  0
   -2.4350   -1.1795   -0.5004 H   0  0  0  0  0  0  0  0  0  0  0  0
    1.0910    1.8709   -0.0396 H   0  0  0  0  0  0  0  0  0  0  0  0
    2.8164    3.5902   -0.4216 H   0  0  0  0  0  0  0  0  0  0  0  0
    5.1698    2.9513   -0.7429 H   0  0  0  0  0  0  0  0  0  0  0  0
    8.0022    0.1683    0.2414 H   0  0  0  0  0  0  0  0  0  0  0  0
    5.8492   -1.2157   -2.3006 H   0  0  0  0  0  0  0  0  0  0  0  0
    7.0526   -1.7273   -1.0794 H   0  0  0  0  0  0  0  0  0  0  0  0
    7.8997    1.8022   -1.6946 H   0  0  0  0  0  0  0  0  0  0  0  0
    6.5023    1.5135   -2.7746 H   0  0  0  0  0  0  0  0  0  0  0  0
    4.1142   -1.1903   -0.2638 H   0  0  0  0  0  0  0  0  0  0  0  0
  1  2  2  0
  2  3  1  0
  3  4  1  0
  4  5  1  0
  5  6  1  0
  6  7  1  0
  7  8  1  0
  8  9  1  0
  9 10  1  0
 10 11  2  0
 11 12  1  0
 12 13  1  0
 12 14  2  0
 14 15  1  0
  8 16  1  0
  2 17  1  0
 17 18  1  0
 18 19  2  0
 19 20  1  0
 20 21  2  0
 21 22  1  0
 22 23  1  0
 22 24  1  0
 24 25  1  0
 25 26  1  0
 21 27  1  0
 16  5  1  0
 27 17  2  0
 15  9  2  0
 26 22  1  0
  3 28  1  0
  4 29  1  0
  4 30  1  0
  5 31  1  0
  6 32  1  0
  6 33  1  0
  7 34  1  0
  7 35  1  0
 10 36  1  0
 11 37  1  0
 14 38  1  0
 15 39  1  0
 16 40  1  0
 16 41  1  0
 18 42  1  0
 19 43  1  0
 20 44  1  0
 23 45  1  0
 24 46  1  0
 24 47  1  0
 26 48  1  0
 26 49  1  0
 27 50  1  0
M  END
$$$$
OCNT-2314434
     RDKit          3D

 59 62  0  0  0  0  0  0  0  0999 V2000
    3.2307    1.3932    1.0339 O   0  0  0  0  0  0  0  0  0  0  0  0
    3.1747    0.2458    0.5916 C   0  0  0  0  0  0  0  0  0  0  0  0
    4.1111   -0.8419    1.1009 C   0  0  0  0  0  0  0  0  0  0  0  0
    5.1607   -0.3215    2.0845 C   0  0  0  0  0  0  0  0  0  0  0  0
    6.3313    0.3092    1.4066 C   0  0  0  0  0  0  0  0  0  0  0  0
    7.5325   -0.2734    1.0591 C   0  0  0  0  0  0  0  0  0  0  0  0
    8.2794    0.7061    0.4729 N   0  0  0  0  0  0  0  0  0  0  0  0
    7.6485    1.8869    0.4008 N   0  0  0  0  0  0  0  0  0  0  0  0
    6.4660    1.6497    0.9745 C   0  0  0  0  0  0  0  0  0  0  0  0
    2.2276   -0.1359   -0.3640 N   0  0  0  0  0  0  0  0  0  0  0  0
    2.3250   -1.3854   -1.1229 C   0  0  0  0  0  0  0  0  0  0  0  0
    0.9733   -1.8353   -1.7014 C   0  0  0  0  0  0  0  0  0  0  0  0
    0.0066   -2.2289   -0.5645 C   0  0  0  0  0  0  0  0  0  0  0  0
   -1.2118   -1.3134   -0.4404 C   0  0  0  0  0  0  0  0  0  0  0  0
   -0.8867    0.1052   -0.5858 N   0  0  0  0  0  0  0  0  0  0  0  0
   -1.5537    1.1472    0.0482 C   0  0  0  0  0  0  0  0  0  0  0  0
   -1.3049    2.3279   -0.2104 O   0  0  0  0  0  0  0  0  0  0  0  0
   -2.6288    0.8225    1.0715 C   0  0  0  0  0  0  0  0  0  0  0  0
   -3.9641    0.4073    0.4352 C   0  0  0  0  0  0  0  0  0  0  0  0
   -4.6206    1.5826   -0.3102 C   0  0  0  0  0  0  0  0  0  0  0  0
   -5.9842    1.2009   -0.8823 C   0  0  0  0  0  0  0  0  0  0  0  0
   -6.9131    0.6507    0.1944 C   0  0  0  0  0  0  0  0  0  0  0  0
   -6.2746   -0.5160    0.9404 C   0  0  0  0  0  0  0  0  0  0  0  0
   -4.9119   -0.1382    1.5158 C   0  0  0  0  0  0  0  0  0  0  0  0
    0.1105    0.4728   -1.6149 C   0  0  0  0  0  0  0  0  0  0  0  0
    0.3946   -0.7046   -2.5498 C   0  0  0  0  0  0  0  0  0  0  0  0
    1.4393    0.9482   -0.9772 C   0  0  0  0  0  0  0  0  0  0  0  0
    3.4880   -1.5817    1.6179 H   0  0  0  0  0  0  0  0  0  0  0  0
    4.6086   -1.3258    0.2534 H   0  0  0  0  0  0  0  0  0  0  0  0
    5.5265   -1.1698    2.6782 H   0  0  0  0  0  0  0  0  0  0  0  0
    4.7207    0.3832    2.8003 H   0  0  0  0  0  0  0  0  0  0  0  0
    7.9170   -1.2756    1.1810 H   0  0  0  0  0  0  0  0  0  0  0  0
    9.2202    0.6416    0.0993 H   0  0  0  0  0  0  0  0  0  0  0  0
    5.7454    2.4557    1.0541 H   0  0  0  0  0  0  0  0  0  0  0  0
    2.7300   -2.1863   -0.4979 H   0  0  0  0  0  0  0  0  0  0  0  0
    3.0460   -1.2125   -1.9314 H   0  0  0  0  0  0  0  0  0  0  0  0
    1.1502   -2.7126   -2.3355 H   0  0  0  0  0  0  0  0  0  0  0  0
   -0.3480   -3.2537   -0.7314 H   0  0  0  0  0  0  0  0  0  0  0  0
    0.5327   -2.2532    0.3981 H   0  0  0  0  0  0  0  0  0  0  0  0
   -1.7098   -1.5149    0.5098 H   0  0  0  0  0  0  0  0  0  0  0  0
   -1.9345   -1.5527   -1.2296 H   0  0  0  0  0  0  0  0  0  0  0  0
   -2.2501    0.0568    1.7565 H   0  0  0  0  0  0  0  0  0  0  0  0
   -2.7722    1.7151    1.6948 H   0  0  0  0  0  0  0  0  0  0  0  0
   -3.7907   -0.3915   -0.2953 H   0  0  0  0  0  0  0  0  0  0  0  0
   -3.9762    1.9192   -1.1305 H   0  0  0  0  0  0  0  0  0  0  0  0
   -4.7417    2.4350    0.3703 H   0  0  0  0  0  0  0  0  0  0  0  0
   -5.8511    0.4489   -1.6697 H   0  0  0  0  0  0  0  0  0  0  0  0
   -6.4442    2.0774   -1.3525 H   0  0  0  0  0  0  0  0  0  0  0  0
   -7.8556    0.3269   -0.2613 H   0  0  0  0  0  0  0  0  0  0  0  0
   -7.1593    1.4482    0.9061 H   0  0  0  0  0  0  0  0  0  0  0  0
   -6.9378   -0.8426    1.7491 H   0  0  0  0  0  0  0  0  0  0  0  0
   -6.1591   -1.3672    0.2587 H   0  0  0  0  0  0  0  0  0  0  0  0
   -4.4664   -1.0203    1.9916 H   0  0  0  0  0  0  0  0  0  0  0  0
   -5.0492    0.6130    2.3040 H   0  0  0  0  0  0  0  0  0  0  0  0
   -0.3053    1.2996   -2.2042 H   0  0  0  0  0  0  0  0  0  0  0  0
    1.1022   -0.4101   -3.3345 H   0  0  0  0  0  0  0  0  0  0  0  0
   -0.5208   -1.0323   -3.0571 H   0  0  0  0  0  0  0  0  0  0  0  0
    2.0771    1.3910   -1.7528 H   0  0  0  0  0  0  0  0  0  0  0  0
    1.2499    1.7297   -0.2339 H   0  0  0  0  0  0  0  0  0  0  0  0
  1  2  2  0
  2  3  1  0
  3  4  1  0
  4  5  1  0
  5  6  2  0
  6  7  1  0
  7  8  1  0
  8  9  2  0
  2 10  1  0
 10 11  1  0
 11 12  1  0
 12 13  1  0
 13 14  1  0
 14 15  1  0
 15 16  1  0
 16 17  2  0
 16 18  1  0
 18 19  1  0
 19 20  1  0
 20 21  1  0
 21 22  1  0
 22 23  1  0
 23 24  1  0
 15 25  1  0
 25 26  1  0
 25 27  1  0
  9  5  1  0
 27 10  1  0
 26 12  1  0
 24 19  1  0
  3 28  1  0
  3 29  1  0
  4 30  1  0
  4 31  1  0
  6 32  1  0
  7 33  1  0
  9 34  1  0
 11 35  1  0
 11 36  1  0
 12 37  1  0
 13 38  1  0
 13 39  1  0
 14 40  1  0
 14 41  1  0
 18 42  1  0
 18 43  1  0
 19 44  1  0
 20 45  1  0
 20 46  1  0
 21 47  1  0
 21 48  1  0
 22 49  1  0
 22 50  1  0
 23 51  1  0
 23 52  1  0
 24 53  1  0
 24 54  1  0
 25 55  1  0
 26 56  1  0
 26 57  1  0
 27 58  1  0
 27 59  1  0
M  END
$$$$
OCNT-2314445
     RDKit          3D

 47 49  0  0  0  0  0  0  0  0999 V2000
    3.8588    1.6530    1.8206 C   0  0  0  0  0  0  0  0  0  0  0  0
    2.9527    1.0252    0.9220 O   0  0  0  0  0  0  0  0  0  0  0  0
    3.3527   -0.1685    0.3697 C   0  0  0  0  0  0  0  0  0  0  0  0
    4.6013   -0.7615    0.5505 C   0  0  0  0  0  0  0  0  0  0  0  0
    4.8728   -1.9863   -0.0588 C   0  0  0  0  0  0  0  0  0  0  0  0
    3.8896   -2.5815   -0.8394 C   0  0  0  0  0  0  0  0  0  0  0  0
    4.1416   -3.9037   -1.5013 C   0  0  0  0  0  0  0  0  0  0  0  0
    2.6815   -2.0127   -1.0411 N   0  0  0  0  0  0  0  0  0  0  0  0
    2.4166   -0.8344   -0.4399 C   0  0  0  0  0  0  0  0  0  0  0  0
    1.1815   -0.1943   -0.6281 N   0  0  0  0  0  0  0  0  0  0  0  0
    0.0600   -0.7303   -1.2070 C   0  0  0  0  0  0  0  0  0  0  0  0
   -0.0683   -1.9052   -1.5409 O   0  0  0  0  0  0  0  0  0  0  0  0
   -0.9844    0.1965   -1.3924 N   0  0  0  0  0  0  0  0  0  0  0  0
   -0.7814    1.6476   -1.4076 C   0  0  0  0  0  0  0  0  0  0  0  0
   -1.0142    2.3221   -0.0515 C   0  0  0  0  0  0  0  0  0  0  0  0
   -2.4850    2.5661    0.3008 C   0  0  0  0  0  0  0  0  0  0  0  0
   -3.2025    1.3459    0.8346 C   0  0  0  0  0  0  0  0  0  0  0  0
   -3.3661    1.2177    2.2275 C   0  0  0  0  0  0  0  0  0  0  0  0
   -4.0084    0.1080    2.7797 C   0  0  0  0  0  0  0  0  0  0  0  0
   -4.4933   -0.8944    1.9490 C   0  0  0  0  0  0  0  0  0  0  0  0
   -4.3361   -0.7871    0.5668 C   0  0  0  0  0  0  0  0  0  0  0  0
   -3.6974    0.3289   -0.0061 C   0  0  0  0  0  0  0  0  0  0  0  0
   -3.5190    0.3657   -1.5075 C   0  0  0  0  0  0  0  0  0  0  0  0
   -2.2311   -0.3285   -1.9635 C   0  0  0  0  0  0  0  0  0  0  0  0
    4.7685    1.9737    1.3040 H   0  0  0  0  0  0  0  0  0  0  0  0
    4.0929    1.0023    2.6706 H   0  0  0  0  0  0  0  0  0  0  0  0
    3.3685    2.5478    2.2154 H   0  0  0  0  0  0  0  0  0  0  0  0
    5.3787   -0.3055    1.1514 H   0  0  0  0  0  0  0  0  0  0  0  0
    5.8372   -2.4661    0.0766 H   0  0  0  0  0  0  0  0  0  0  0  0
    3.2572   -4.2359   -2.0557 H   0  0  0  0  0  0  0  0  0  0  0  0
    4.9769   -3.8235   -2.2062 H   0  0  0  0  0  0  0  0  0  0  0  0
    4.3759   -4.6641   -0.7485 H   0  0  0  0  0  0  0  0  0  0  0  0
    1.0797    0.6519   -0.0979 H   0  0  0  0  0  0  0  0  0  0  0  0
    0.2506    1.8451   -1.7213 H   0  0  0  0  0  0  0  0  0  0  0  0
   -1.4084    2.0963   -2.1865 H   0  0  0  0  0  0  0  0  0  0  0  0
   -0.5292    3.3064   -0.0991 H   0  0  0  0  0  0  0  0  0  0  0  0
   -0.5205    1.7689    0.7545 H   0  0  0  0  0  0  0  0  0  0  0  0
   -2.5213    3.3505    1.0708 H   0  0  0  0  0  0  0  0  0  0  0  0
   -3.0300    2.9959   -0.5483 H   0  0  0  0  0  0  0  0  0  0  0  0
   -2.9863    1.9859    2.8977 H   0  0  0  0  0  0  0  0  0  0  0  0
   -4.1224    0.0230    3.8581 H   0  0  0  0  0  0  0  0  0  0  0  0
   -4.9844   -1.7658    2.3747 H   0  0  0  0  0  0  0  0  0  0  0  0
   -4.7060   -1.5917   -0.0666 H   0  0  0  0  0  0  0  0  0  0  0  0
   -4.3741   -0.1355   -1.9807 H   0  0  0  0  0  0  0  0  0  0  0  0
   -3.5683    1.3926   -1.8800 H   0  0  0  0  0  0  0  0  0  0  0  0
   -2.1401   -0.2421   -3.0537 H   0  0  0  0  0  0  0  0  0  0  0  0
   -2.3169   -1.3986   -1.7393 H   0  0  0  0  0  0  0  0  0  0  0  0
  1  2  1  0
  2  3  1  0
  3  4  2  0
  4  5  1  0
  5  6  2  0
  6  7  1  0
  6  8  1  0
  8  9  2  0
  9 10  1  0
 10 11  1  0
 11 12  2  0
 11 13  1  0
 13 14  1  0
 14 15  1  0
 15 16  1  0
 16 17  1  0
 17 18  2  0
 18 19  1  0
 19 20  2  0
 20 21  1  0
 21 22  2  0
 22 23  1  0
 23 24  1  0
  9  3  1  0
 24 13  1  0
 22 17  1  0
  1 25  1  0
  1 26  1  0
  1 27  1  0
  4 28  1  0
  5 29  1  0
  7 30  1  0
  7 31  1  0
  7 32  1  0
 10 33  1  0
 14 34  1  0
 14 35  1  0
 15 36  1  0
 15 37  1  0
 16 38  1  0
 16 39  1  0
 18 40  1  0
 19 41  1  0
 20 42  1  0
 21 43  1  0
 23 44  1  0
 23 45  1  0
 24 46  1  0
 24 47  1  0
M  END
$$$$
OCNT-2314459
     RDKit          3D

 42 43  0  0  0  0  0  0  0  0999 V2000
    4.1998    2.0103    0.6775 C   0  0  0  0  0  0  0  0  0  0  0  0
    3.1579    1.6459   -0.3168 C   0  0  0  0  0  0  0  0  0  0  0  0
    2.6726    2.5878   -1.1372 N   0  0  0  0  0  0  0  0  0  0  0  0
    1.7533    1.9520   -1.8815 N   0  0  0  0  0  0  0  0  0  0  0  0
    1.0210    2.7096   -2.8721 C   0  0  0  0  0  0  0  0  0  0  0  0
    1.6205    0.6220   -1.5729 C   0  0  0  0  0  0  0  0  0  0  0  0
    0.6476   -0.2883   -2.2470 C   0  0  0  0  0  0  0  0  0  0  0  0
   -0.3330   -0.7993   -1.3018 N   0  0  0  0  0  0  0  0  0  0  0  0
   -0.5512   -2.1156   -1.0168 C   0  0  0  0  0  0  0  0  0  0  0  0
   -1.4083   -2.2510   -0.0318 N   0  0  0  0  0  0  0  0  0  0  0  0
   -1.8302   -0.9755    0.2854 C   0  0  0  0  0  0  0  0  0  0  0  0
   -2.8608   -0.7623    1.3730 C   0  0  0  0  0  0  0  0  0  0  0  0
   -4.2204   -1.3213    0.9124 C   0  0  0  0  0  0  0  0  0  0  0  0
   -2.4270   -1.4944    2.6590 C   0  0  0  0  0  0  0  0  0  0  0  0
   -3.0383    0.7314    1.7118 C   0  0  0  0  0  0  0  0  0  0  0  0
   -1.1771   -0.0607   -0.5169 C   0  0  0  0  0  0  0  0  0  0  0  0
    2.5454    0.3957   -0.5592 C   0  0  0  0  0  0  0  0  0  0  0  0
    2.8483   -1.0718    0.2856 S   0  0  0  0  0  0  0  0  0  0  0  0
    1.7083   -1.2063    1.5029 N   0  0  0  0  0  0  0  0  0  0  0  0
    4.1357   -0.9269    0.9188 O   0  0  0  0  0  0  0  0  0  0  0  0
    2.5758   -2.1144   -0.6754 O   0  0  0  0  0  0  0  0  0  0  0  0
    3.9016    1.6968    1.6828 H   0  0  0  0  0  0  0  0  0  0  0  0
    5.1534    1.5365    0.4247 H   0  0  0  0  0  0  0  0  0  0  0  0
    4.3621    3.0931    0.7060 H   0  0  0  0  0  0  0  0  0  0  0  0
    1.3458    3.7530   -2.8497 H   0  0  0  0  0  0  0  0  0  0  0  0
    1.2276    2.2791   -3.8557 H   0  0  0  0  0  0  0  0  0  0  0  0
   -0.0440    2.6492   -2.6353 H   0  0  0  0  0  0  0  0  0  0  0  0
    0.0780    0.2076   -3.0390 H   0  0  0  0  0  0  0  0  0  0  0  0
    1.1681   -1.1372   -2.7020 H   0  0  0  0  0  0  0  0  0  0  0  0
   -0.0366   -2.9243   -1.5215 H   0  0  0  0  0  0  0  0  0  0  0  0
   -4.9874   -1.1856    1.6832 H   0  0  0  0  0  0  0  0  0  0  0  0
   -4.5672   -0.8174    0.0019 H   0  0  0  0  0  0  0  0  0  0  0  0
   -4.1592   -2.3935    0.6900 H   0  0  0  0  0  0  0  0  0  0  0  0
   -2.3373   -2.5749    2.4967 H   0  0  0  0  0  0  0  0  0  0  0  0
   -3.1521   -1.3425    3.4670 H   0  0  0  0  0  0  0  0  0  0  0  0
   -1.4520   -1.1344    3.0101 H   0  0  0  0  0  0  0  0  0  0  0  0
   -3.3815    1.3031    0.8412 H   0  0  0  0  0  0  0  0  0  0  0  0
   -2.0966    1.1785    2.0517 H   0  0  0  0  0  0  0  0  0  0  0  0
   -3.7782    0.8723    2.5083 H   0  0  0  0  0  0  0  0  0  0  0  0
   -1.2214    1.0185   -0.5672 H   0  0  0  0  0  0  0  0  0  0  0  0
    0.8401   -1.6375    1.1654 H   0  0  0  0  0  0  0  0  0  0  0  0
    2.0970   -1.7071    2.3025 H   0  0  0  0  0  0  0  0  0  0  0  0
  1  2  1  0
  2  3  2  0
  3  4  1  0
  4  5  1  0
  4  6  1  0
  6  7  1  0
  7  8  1  0
  8  9  1  0
  9 10  2  0
 10 11  1  0
 11 12  1  0
 12 13  1  0
 12 14  1  0
 12 15  1  0
 11 16  2  0
  6 17  2  0
 17 18  1  0
 18 19  1  0
 18 20  2  0
 18 21  2  0
 17  2  1  0
 16  8  1  0
  1 22  1  0
  1 23  1  0
  1 24  1  0
  5 25  1  0
  5 26  1  0
  5 27  1  0
  7 28  1  0
  7 29  1  0
  9 30  1  0
 13 31  1  0
 13 32  1  0
 13 33  1  0
 14 34  1  0
 14 35  1  0
 14 36  1  0
 15 37  1  0
 15 38  1  0
 15 39  1  0
 16 40  1  0
 19 41  1  0
 19 42  1  0
M  END
$$$$
OCNT-2314462
     RDKit          3D

 34 36  0  0  0  0  0  0  0  0999 V2000
    3.4215    2.5055   -0.3624 C   0  0  0  0  0  0  0  0  0  0  0  0
    2.6848    1.1988   -0.3244 C   0  0  0  0  0  0  0  0  0  0  0  0
    2.1248    0.7331    0.8714 C   0  0  0  0  0  0  0  0  0  0  0  0
    1.4655   -0.5022    0.8980 C   0  0  0  0  0  0  0  0  0  0  0  0
    0.7298   -1.0716    2.4138 S   0  0  0  0  0  0  0  0  0  0  0  0
    1.3638   -0.3515    3.4990 O   0  0  0  0  0  0  0  0  0  0  0  0
    0.7038   -2.5174    2.3865 O   0  0  0  0  0  0  0  0  0  0  0  0
   -0.8432   -0.4708    2.3212 N   0  0  0  0  0  0  0  0  0  0  0  0
   -1.6468   -0.8008    1.1984 C   0  0  0  0  0  0  0  0  0  0  0  0
   -2.1379   -2.0996    1.0366 C   0  0  0  0  0  0  0  0  0  0  0  0
   -2.8810   -2.4495   -0.0884 C   0  0  0  0  0  0  0  0  0  0  0  0
   -3.1425   -1.5084   -1.0898 C   0  0  0  0  0  0  0  0  0  0  0  0
   -2.6433   -0.1981   -0.9563 C   0  0  0  0  0  0  0  0  0  0  0  0
   -1.9056    0.1314    0.1836 C   0  0  0  0  0  0  0  0  0  0  0  0
   -1.5252    1.4487    0.0436 N   0  0  0  0  0  0  0  0  0  0  0  0
   -2.0065    1.9629   -1.1303 C   0  0  0  0  0  0  0  0  0  0  0  0
   -2.7054    0.9662   -1.7703 C   0  0  0  0  0  0  0  0  0  0  0  0
    1.3961   -1.3047   -0.2431 C   0  0  0  0  0  0  0  0  0  0  0  0
    1.9597   -0.8408   -1.4267 C   0  0  0  0  0  0  0  0  0  0  0  0
    1.8518   -1.8978   -2.9901 Br  0  0  0  0  0  0  0  0  0  0  0  0
    2.6025    0.3986   -1.4729 C   0  0  0  0  0  0  0  0  0  0  0  0
    4.4792    2.3454   -0.1322 H   0  0  0  0  0  0  0  0  0  0  0  0
    3.0033    3.2104    0.3638 H   0  0  0  0  0  0  0  0  0  0  0  0
    3.3397    2.9709   -1.3503 H   0  0  0  0  0  0  0  0  0  0  0  0
    2.2070    1.3300    1.7783 H   0  0  0  0  0  0  0  0  0  0  0  0
   -0.9537    0.4433    2.7512 H   0  0  0  0  0  0  0  0  0  0  0  0
   -1.9424   -2.8522    1.7982 H   0  0  0  0  0  0  0  0  0  0  0  0
   -3.2573   -3.4646   -0.1920 H   0  0  0  0  0  0  0  0  0  0  0  0
   -3.7183   -1.7908   -1.9669 H   0  0  0  0  0  0  0  0  0  0  0  0
   -0.9586    1.9570    0.7070 H   0  0  0  0  0  0  0  0  0  0  0  0
   -1.8069    2.9883   -1.4117 H   0  0  0  0  0  0  0  0  0  0  0  0
   -3.2021    1.0582   -2.7276 H   0  0  0  0  0  0  0  0  0  0  0  0
    0.8964   -2.2701   -0.2104 H   0  0  0  0  0  0  0  0  0  0  0  0
    3.0471    0.7421   -2.4050 H   0  0  0  0  0  0  0  0  0  0  0  0
  1  2  1  0
  2  3  2  0
  3  4  1  0
  4  5  1  0
  5  6  2  0
  5  7  2  0
  5  8  1  0
  8  9  1  0
  9 10  1  0
 10 11  2  0
 11 12  1  0
 12 13  2  0
 13 14  1  0
 14 15  1  0
 15 16  1  0
 16 17  2  0
  4 18  2  0
 18 19  1  0
 19 20  1  0
 19 21  2  0
 21  2  1  0
 14  9  2  0
 17 13  1  0
  1 22  1  0
  1 23  1  0
  1 24  1  0
  3 25  1  0
  8 26  1  0
 10 27  1  0
 11 28  1  0
 12 29  1  0
 15 30  1  0
 16 31  1  0
 17 32  1  0
 18 33  1  0
 21 34  1  0
M  END
$$$$
OCNT-2314467
     RDKit          3D

 39 41  0  0  0  0  0  0  0  0999 V2000
    0.1763   -2.4803    2.2057 C   0  0  0  0  0  0  0  0  0  0  0  0
   -0.0111   -1.0160    2.0380 C   0  0  0  0  0  0  0  0  0  0  0  0
   -1.2066   -0.3312    1.8939 C   0  0  0  0  0  0  0  0  0  0  0  0
   -2.6158   -0.8460    1.8645 C   0  0  0  0  0  0  0  0  0  0  0  0
   -3.2018   -0.8950    0.4760 C   0  0  0  0  0  0  0  0  0  0  0  0
   -2.9467   -1.9719   -0.3770 C   0  0  0  0  0  0  0  0  0  0  0  0
   -2.2048   -3.0026    0.0533 F   0  0  0  0  0  0  0  0  0  0  0  0
   -3.4498   -2.0101   -1.6772 C   0  0  0  0  0  0  0  0  0  0  0  0
   -4.2288   -0.9552   -2.1492 C   0  0  0  0  0  0  0  0  0  0  0  0
   -4.5024    0.1266   -1.3110 C   0  0  0  0  0  0  0  0  0  0  0  0
   -3.9917    0.1477   -0.0137 C   0  0  0  0  0  0  0  0  0  0  0  0
   -4.2743    1.1976    0.7711 F   0  0  0  0  0  0  0  0  0  0  0  0
   -0.8867    1.3533    1.7813 S   0  0  0  0  0  0  0  0  0  0  0  0
    0.8017    1.0480    1.8818 C   0  0  0  0  0  0  0  0  0  0  0  0
    1.6771    2.0767    1.8147 N   0  0  0  0  0  0  0  0  0  0  0  0
    3.0444    1.8022    1.4049 C   0  0  0  0  0  0  0  0  0  0  0  0
    3.2745    1.7314   -0.0682 C   0  0  0  0  0  0  0  0  0  0  0  0
    2.8325    0.7673   -0.9538 C   0  0  0  0  0  0  0  0  0  0  0  0
    3.2946    1.1304   -2.1829 N   0  0  0  0  0  0  0  0  0  0  0  0
    3.1098    0.4175   -3.4239 C   0  0  0  0  0  0  0  0  0  0  0  0
    4.0020    2.2762   -2.1706 N   0  0  0  0  0  0  0  0  0  0  0  0
    4.0005    2.6310   -0.8831 C   0  0  0  0  0  0  0  0  0  0  0  0
    1.1216   -0.2178    2.0158 N   0  0  0  0  0  0  0  0  0  0  0  0
   -0.5148   -2.8803    2.9540 H   0  0  0  0  0  0  0  0  0  0  0  0
    1.1959   -2.7048    2.5401 H   0  0  0  0  0  0  0  0  0  0  0  0
    0.0088   -2.9992    1.2565 H   0  0  0  0  0  0  0  0  0  0  0  0
   -2.6559   -1.8529    2.3013 H   0  0  0  0  0  0  0  0  0  0  0  0
   -3.2516   -0.2330    2.5209 H   0  0  0  0  0  0  0  0  0  0  0  0
   -3.2244   -2.8617   -2.3112 H   0  0  0  0  0  0  0  0  0  0  0  0
   -4.6182   -0.9756   -3.1641 H   0  0  0  0  0  0  0  0  0  0  0  0
   -5.1091    0.9593   -1.6584 H   0  0  0  0  0  0  0  0  0  0  0  0
    1.3049    2.9357    1.4278 H   0  0  0  0  0  0  0  0  0  0  0  0
    3.6684    2.6080    1.8111 H   0  0  0  0  0  0  0  0  0  0  0  0
    3.4239    0.8855    1.8760 H   0  0  0  0  0  0  0  0  0  0  0  0
    2.2381   -0.1243   -0.7966 H   0  0  0  0  0  0  0  0  0  0  0  0
    2.5078    1.0348   -4.0956 H   0  0  0  0  0  0  0  0  0  0  0  0
    2.5968   -0.5284   -3.2258 H   0  0  0  0  0  0  0  0  0  0  0  0
    4.0937    0.2228   -3.8592 H   0  0  0  0  0  0  0  0  0  0  0  0
    4.5212    3.5346   -0.5927 H   0  0  0  0  0  0  0  0  0  0  0  0
  1  2  1  0
  2  3  2  0
  3  4  1  0
  4  5  1  0
  5  6  2  0
  6  7  1  0
  6  8  1  0
  8  9  2  0
  9 10  1  0
 10 11  2  0
 11 12  1  0
  3 13  1  0
 13 14  1  0
 14 15  1  0
 15 16  1  0
 16 17  1  0
 17 18  2  0
 18 19  1  0
 19 20  1  0
 19 21  1  0
 21 22  2  0
 14 23  2  0
 23  2  1  0
 11  5  1  0
 22 17  1  0
  1 24  1  0
  1 25  1  0
  1 26  1  0
  4 27  1  0
  4 28  1  0
  8 29  1  0
  9 30  1  0
 10 31  1  0
 15 32  1  0
 16 33  1  0
 16 34  1  0
 18 35  1  0
 20 36  1  0
 20 37  1  0
 20 38  1  0
 22 39  1  0
M  END
$$$$
OCNT-2314468
     RDKit          3D

  0  0  0  0  0  0  0  0  0  0999 V3000
M  V30 BEGIN CTAB
M  V30 COUNTS 42 46 0 0 0
M  V30 BEGIN ATOM
M  V30 1 F 4.996225 -1.271581 3.936472 0
M  V30 2 C 4.258155 -0.972358 2.858656 0
M  V30 3 C 2.877123 -0.920697 2.977984 0
M  V30 4 C 2.084379 -0.611161 1.865979 0
M  V30 5 C 2.696961 -0.346736 0.619042 0
M  V30 6 C 4.094288 -0.416727 0.545271 0
M  V30 7 C 4.900643 -0.725228 1.647710 0
M  V30 8 N 4.444342 -0.138986 -0.754430 0
M  V30 9 C 3.332204 0.102965 -1.506313 0
M  V30 10 N 3.361714 0.391463 -2.814662 0
M  V30 11 C 2.124712 0.574527 -3.298181 0
M  V30 12 N 0.957079 0.513312 -2.631957 0
M  V30 13 C 0.966960 0.229220 -1.304423 0
M  V30 14 N -0.231932 0.166013 -0.605998 0
M  V30 15 C -1.409369 0.791068 -1.192323 0 CFG=1
M  V30 16 C -2.179028 -0.185412 -2.082181 0
M  V30 17 C -3.601830 0.366427 -2.148204 0
M  V30 18 C -3.730668 1.384100 -1.011992 0
M  V30 19 C -2.466446 1.228871 -0.157549 0 CFG=1
M  V30 20 N -2.597397 0.329046 0.979083 0
M  V30 21 C -3.459997 -0.715102 1.162578 0
M  V30 22 C -3.183264 -1.234696 2.404938 0
M  V30 23 C -2.132555 -0.443885 2.896250 0
M  V30 24 N -1.760066 0.502166 2.031216 0
M  V30 25 C 2.215814 -0.003375 -0.691117 0
M  V30 26 H 2.415022 -1.123599 3.939196 0
M  V30 27 H 1.004269 -0.584527 1.976693 0
M  V30 28 H 5.981194 -0.775735 1.578451 0
M  V30 29 H 5.383073 -0.119307 -1.122536 0
M  V30 30 H 2.054602 0.802909 -4.357130 0
M  V30 31 H -0.123434 0.317689 0.396171 0
M  V30 32 H -1.137584 1.684034 -1.773668 0
M  V30 33 H -1.736404 -0.273742 -3.079675 0
M  V30 34 H -2.190060 -1.192717 -1.647285 0
M  V30 35 H -4.333539 -0.441950 -2.046344 0
M  V30 36 H -3.788394 0.852275 -3.112424 0
M  V30 37 H -3.748571 2.391365 -1.447706 0
M  V30 38 H -4.663619 1.263628 -0.452394 0
M  V30 39 H -2.197753 2.202915 0.272315 0
M  V30 40 H -4.185551 -1.007016 0.417548 0
M  V30 41 H -3.671476 -2.069664 2.886429 0
M  V30 42 H -1.619820 -0.519788 3.846513 0
M  V30 END ATOM
M  V30 BEGIN BOND
M  V30 1 1 1 2
M  V30 2 2 2 3
M  V30 3 1 3 4
M  V30 4 2 4 5
M  V30 5 1 5 6
M  V30 6 2 6 7
M  V30 7 1 6 8
M  V30 8 1 8 9
M  V30 9 2 9 10
M  V30 10 1 10 11
M  V30 11 2 11 12
M  V30 12 1 12 13
M  V30 13 1 13 14
M  V30 14 1 14 15
M  V30 15 1 15 16
M  V30 16 1 16 17
M  V30 17 1 17 18
M  V30 18 1 18 19
M  V30 19 1 19 20
M  V30 20 1 20 21
M  V30 21 2 21 22
M  V30 22 1 22 23
M  V30 23 2 23 24
M  V30 24 2 13 25
M  V30 25 1 7 2
M  V30 26 1 25 9
M  V30 27 1 25 5
M  V30 28 1 19 15
M  V30 29 1 24 20
M  V30 30 1 3 26
M  V30 31 1 4 27
M  V30 32 1 7 28
M  V30 33 1 8 29
M  V30 34 1 11 30
M  V30 35 1 14 31
M  V30 36 1 15 32 CFG=3
M  V30 37 1 16 33
M  V30 38 1 16 34
M  V30 39 1 17 35
M  V30 40 1 17 36
M  V30 41 1 18 37
M  V30 42 1 18 38
M  V30 43 1 19 39 CFG=1
M  V30 44 1 21 40
M  V30 45 1 22 41
M  V30 46 1 23 42
M  V30 END BOND
M  V30 BEGIN COLLECTION
M  V30 MDLV30/STERAC1 ATOMS=(2 15 19)
M  V30 END COLLECTION
M  V30 END CTAB
M  END
>  <_CXSMILES_Data>  (843) 
|&1:14,18|

$$$$
OCNT-2314473
     RDKit          3D

 40 43  0  0  0  0  0  0  0  0999 V2000
    3.8617    0.6185   -2.1227 F   0  0  0  0  0  0  0  0  0  0  0  0
    4.1130    0.1948   -0.8735 C   0  0  0  0  0  0  0  0  0  0  0  0
    5.3741   -0.3408   -0.6206 C   0  0  0  0  0  0  0  0  0  0  0  0
    5.6818   -0.7728    0.6590 C   0  0  0  0  0  0  0  0  0  0  0  0
    4.7068   -0.6441    1.6284 C   0  0  0  0  0  0  0  0  0  0  0  0
    3.4760   -0.1286    1.4005 N   0  0  0  0  0  0  0  0  0  0  0  0
    3.1541    0.2945    0.1501 C   0  0  0  0  0  0  0  0  0  0  0  0
    1.8798    0.8318   -0.0498 N   0  0  0  0  0  0  0  0  0  0  0  0
    1.0005    0.9307    1.1173 C   0  0  0  0  0  0  0  0  0  0  0  0
    0.2365   -0.3614    1.4000 C   0  0  0  0  0  0  0  0  0  0  0  0
   -0.3558   -1.0103    0.1548 C   0  0  0  0  0  0  0  0  0  0  0  0
   -1.0465   -0.0483   -0.6884 N   0  0  0  0  0  0  0  0  0  0  0  0
   -2.4099    0.2201   -0.6077 C   0  0  0  0  0  0  0  0  0  0  0  0
   -2.9226    1.0799   -1.5420 N   0  0  0  0  0  0  0  0  0  0  0  0
   -4.2337    1.3753   -1.5534 C   0  0  0  0  0  0  0  0  0  0  0  0
   -5.1812    0.9294   -0.7237 N   0  0  0  0  0  0  0  0  0  0  0  0
   -4.6664    0.1013    0.1936 C   0  0  0  0  0  0  0  0  0  0  0  0
   -3.3406   -0.3008    0.3328 C   0  0  0  0  0  0  0  0  0  0  0  0
   -3.3327   -1.1609    1.4774 C   0  0  0  0  0  0  0  0  0  0  0  0
   -4.6186   -1.2608    1.9665 C   0  0  0  0  0  0  0  0  0  0  0  0
   -5.4178   -0.4897    1.1707 N   0  0  0  0  0  0  0  0  0  0  0  0
   -0.2543    0.9303   -1.4689 C   0  0  0  0  0  0  0  0  0  0  0  0
    1.2828    0.7568   -1.4012 C   0  0  0  0  0  0  0  0  0  0  0  0
    6.0995   -0.4073   -1.4241 H   0  0  0  0  0  0  0  0  0  0  0  0
    6.6529   -1.1917    0.8955 H   0  0  0  0  0  0  0  0  0  0  0  0
    4.8894   -0.9598    2.6519 H   0  0  0  0  0  0  0  0  0  0  0  0
    0.2895    1.7518    0.9638 H   0  0  0  0  0  0  0  0  0  0  0  0
    1.5523    1.2383    2.0154 H   0  0  0  0  0  0  0  0  0  0  0  0
   -0.5559   -0.1362    2.1229 H   0  0  0  0  0  0  0  0  0  0  0  0
    0.8974   -1.0885    1.8867 H   0  0  0  0  0  0  0  0  0  0  0  0
    0.4442   -1.4920   -0.4207 H   0  0  0  0  0  0  0  0  0  0  0  0
   -0.9956   -1.8558    0.4204 H   0  0  0  0  0  0  0  0  0  0  0  0
   -4.5591    2.0586   -2.3312 H   0  0  0  0  0  0  0  0  0  0  0  0
   -2.4844   -1.6601    1.9215 H   0  0  0  0  0  0  0  0  0  0  0  0
   -5.0255   -1.8065    2.8074 H   0  0  0  0  0  0  0  0  0  0  0  0
   -6.4126   -0.3497    1.2708 H   0  0  0  0  0  0  0  0  0  0  0  0
   -0.4946    1.9505   -1.1404 H   0  0  0  0  0  0  0  0  0  0  0  0
   -0.5410    0.8538   -2.5260 H   0  0  0  0  0  0  0  0  0  0  0  0
    1.5337   -0.2014   -1.8744 H   0  0  0  0  0  0  0  0  0  0  0  0
    1.7230    1.5510   -2.0165 H   0  0  0  0  0  0  0  0  0  0  0  0
  1  2  1  0
  2  3  1  0
  3  4  2  0
  4  5  1  0
  5  6  2  0
  6  7  1  0
  7  8  1  0
  8  9  1  0
  9 10  1  0
 10 11  1  0
 11 12  1  0
 12 13  1  0
 13 14  1  0
 14 15  2  0
 15 16  1  0
 16 17  2  0
 17 18  1  0
 18 19  1  0
 19 20  2  0
 20 21  1  0
 12 22  1  0
 22 23  1  0
  7  2  2  0
 23  8  1  0
 18 13  2  0
 21 17  1  0
  3 24  1  0
  4 25  1  0
  5 26  1  0
  9 27  1  0
  9 28  1  0
 10 29  1  0
 10 30  1  0
 11 31  1  0
 11 32  1  0
 15 33  1  0
 19 34  1  0
 20 35  1  0
 21 36  1  0
 22 37  1  0
 22 38  1  0
 23 39  1  0
 23 40  1  0
M  END
$$$$
OCNT-2314478
     RDKit          3D

 57 60  0  0  0  0  0  0  0  0999 V2000
   -4.3070   -3.8244   -0.8219 C   0  0  0  0  0  0  0  0  0  0  0  0
   -3.8711   -2.4183   -0.5750 C   0  0  0  0  0  0  0  0  0  0  0  0
   -4.6921   -1.2974   -0.5432 C   0  0  0  0  0  0  0  0  0  0  0  0
   -6.1643   -1.2339   -0.7932 C   0  0  0  0  0  0  0  0  0  0  0  0
   -3.8878   -0.1782   -0.3477 N   0  0  0  0  0  0  0  0  0  0  0  0
   -4.3163    1.1804   -0.3703 C   0  0  0  0  0  0  0  0  0  0  0  0
   -3.6105    2.1127   -1.1438 C   0  0  0  0  0  0  0  0  0  0  0  0
   -4.0197    3.4463   -1.1683 C   0  0  0  0  0  0  0  0  0  0  0  0
   -5.1269    3.8500   -0.4238 C   0  0  0  0  0  0  0  0  0  0  0  0
   -5.8301    2.9223    0.3446 C   0  0  0  0  0  0  0  0  0  0  0  0
   -5.4292    1.5852    0.3723 C   0  0  0  0  0  0  0  0  0  0  0  0
   -2.5768   -0.6042   -0.1045 C   0  0  0  0  0  0  0  0  0  0  0  0
   -1.5879    0.2856    0.3276 N   0  0  0  0  0  0  0  0  0  0  0  0
   -0.5399   -0.1126    1.1537 C   0  0  0  0  0  0  0  0  0  0  0  0
   -0.4441   -1.2168    1.6793 O   0  0  0  0  0  0  0  0  0  0  0  0
    0.4664    1.0295    1.3925 C   0  0  0  0  0  0  0  0  0  0  0  0
    1.8305    0.5324    1.6540 N   0  0  0  0  0  0  0  0  0  0  0  0
    2.3994   -0.1614    0.4777 C   0  0  0  0  0  0  0  0  0  0  0  0
    3.8285   -0.6719    0.7404 C   0  0  0  0  0  0  0  0  0  0  0  0
    4.7152    0.3968    1.2188 N   0  0  0  0  0  0  0  0  0  0  0  0
    6.1127    0.2771    1.1722 C   0  0  0  0  0  0  0  0  0  0  0  0
    6.8106    0.7559    2.0687 O   0  0  0  0  0  0  0  0  0  0  0  0
    6.7241   -0.3929    0.0361 C   0  0  0  0  0  0  0  0  0  0  0  0
    7.9675   -0.9889   -0.0825 C   0  0  0  0  0  0  0  0  0  0  0  0
    8.0876   -1.4351   -1.4205 C   0  0  0  0  0  0  0  0  0  0  0  0
    6.9249   -1.0626   -2.0491 C   0  0  0  0  0  0  0  0  0  0  0  0
    6.1007   -0.4178   -1.1847 O   0  0  0  0  0  0  0  0  0  0  0  0
    4.1580    1.1596    2.3352 C   0  0  0  0  0  0  0  0  0  0  0  0
    2.7223    1.6379    2.0540 C   0  0  0  0  0  0  0  0  0  0  0  0
   -2.5357   -1.9667   -0.3601 C   0  0  0  0  0  0  0  0  0  0  0  0
   -1.3590   -2.7854   -0.4584 C   0  0  0  0  0  0  0  0  0  0  0  0
   -0.4328   -3.4617   -0.6390 N   0  0  0  0  0  0  0  0  0  0  0  0
   -4.9144   -3.8864   -1.7251 H   0  0  0  0  0  0  0  0  0  0  0  0
   -4.9030   -4.1865    0.0218 H   0  0  0  0  0  0  0  0  0  0  0  0
   -3.4587   -4.5038   -0.9456 H   0  0  0  0  0  0  0  0  0  0  0  0
   -6.7113   -1.1283    0.1483 H   0  0  0  0  0  0  0  0  0  0  0  0
   -6.5219   -2.1491   -1.2747 H   0  0  0  0  0  0  0  0  0  0  0  0
   -6.4255   -0.4073   -1.4601 H   0  0  0  0  0  0  0  0  0  0  0  0
   -2.7711    1.8083   -1.7652 H   0  0  0  0  0  0  0  0  0  0  0  0
   -3.4849    4.1699   -1.7788 H   0  0  0  0  0  0  0  0  0  0  0  0
   -5.4468    4.8894   -0.4456 H   0  0  0  0  0  0  0  0  0  0  0  0
   -6.6903    3.2431    0.9273 H   0  0  0  0  0  0  0  0  0  0  0  0
   -5.9713    0.8892    1.0066 H   0  0  0  0  0  0  0  0  0  0  0  0
   -1.8241    1.2703    0.3696 H   0  0  0  0  0  0  0  0  0  0  0  0
    0.0948    1.5795    2.2662 H   0  0  0  0  0  0  0  0  0  0  0  0
    0.4613    1.7133    0.5339 H   0  0  0  0  0  0  0  0  0  0  0  0
    2.4167    0.5170   -0.3858 H   0  0  0  0  0  0  0  0  0  0  0  0
    1.7838   -1.0246    0.2039 H   0  0  0  0  0  0  0  0  0  0  0  0
    3.8147   -1.4472    1.5178 H   0  0  0  0  0  0  0  0  0  0  0  0
    4.2086   -1.1493   -0.1625 H   0  0  0  0  0  0  0  0  0  0  0  0
    8.6924   -1.0817    0.7150 H   0  0  0  0  0  0  0  0  0  0  0  0
    8.9221   -1.9527   -1.8724 H   0  0  0  0  0  0  0  0  0  0  0  0
    6.5514   -1.1701   -3.0577 H   0  0  0  0  0  0  0  0  0  0  0  0
    4.1812    0.5165    3.2234 H   0  0  0  0  0  0  0  0  0  0  0  0
    4.7925    2.0290    2.5404 H   0  0  0  0  0  0  0  0  0  0  0  0
    2.3363    2.1164    2.9622 H   0  0  0  0  0  0  0  0  0  0  0  0
    2.7500    2.4031    1.2659 H   0  0  0  0  0  0  0  0  0  0  0  0
  1  2  1  0
  2  3  2  0
  3  4  1  0
  3  5  1  0
  5  6  1  0
  6  7  2  0
  7  8  1  0
  8  9  2  0
  9 10  1  0
 10 11  2  0
  5 12  1  0
 12 13  1  0
 13 14  1  0
 14 15  2  0
 14 16  1  0
 16 17  1  0
 17 18  1  0
 18 19  1  0
 19 20  1  0
 20 21  1  0
 21 22  2  0
 21 23  1  0
 23 24  2  0
 24 25  1  0
 25 26  2  0
 26 27  1  0
 20 28  1  0
 28 29  1  0
 12 30  2  0
 30 31  1  0
 31 32  3  0
 30  2  1  0
 11  6  1  0
 29 17  1  0
 27 23  1  0
  1 33  1  0
  1 34  1  0
  1 35  1  0
  4 36  1  0
  4 37  1  0
  4 38  1  0
  7 39  1  0
  8 40  1  0
  9 41  1  0
 10 42  1  0
 11 43  1  0
 13 44  1  0
 16 45  1  0
 16 46  1  0
 18 47  1  0
 18 48  1  0
 19 49  1  0
 19 50  1  0
 24 51  1  0
 25 52  1  0
 26 53  1  0
 28 54  1  0
 28 55  1  0
 29 56  1  0
 29 57  1  0
M  END
$$$$
OCNT-2314480
     RDKit          3D

 47 50  0  0  0  0  0  0  0  0999 V2000
    1.4965    3.0545   -0.8145 C   0  0  0  0  0  0  0  0  0  0  0  0
    2.0588    1.6851   -0.8133 C   0  0  0  0  0  0  0  0  0  0  0  0
    1.6442    0.4499   -1.2802 C   0  0  0  0  0  0  0  0  0  0  0  0
    0.3985    0.1016   -2.0302 C   0  0  0  0  0  0  0  0  0  0  0  0
   -0.5674   -0.6332   -1.1862 N   0  0  0  0  0  0  0  0  0  0  0  0
   -1.0413    0.1759   -0.0458 C   0  0  0  0  0  0  0  0  0  0  0  0
   -2.4268   -0.2311    0.4967 C   0  0  0  0  0  0  0  0  0  0  0  0
   -3.4670   -0.1918   -0.5401 N   0  0  0  0  0  0  0  0  0  0  0  0
   -4.8550   -0.2889   -0.3196 C   0  0  0  0  0  0  0  0  0  0  0  0
   -5.6201   -0.4458   -1.2776 O   0  0  0  0  0  0  0  0  0  0  0  0
   -5.4020   -0.2243    1.0302 C   0  0  0  0  0  0  0  0  0  0  0  0
   -6.6337   -0.6680    1.5113 C   0  0  0  0  0  0  0  0  0  0  0  0
   -6.7122   -0.3035    2.8679 C   0  0  0  0  0  0  0  0  0  0  0  0
   -5.5323    0.3471    3.1444 C   0  0  0  0  0  0  0  0  0  0  0  0
   -4.7403    0.4053    2.0434 O   0  0  0  0  0  0  0  0  0  0  0  0
   -2.9721   -0.3222   -1.9163 C   0  0  0  0  0  0  0  0  0  0  0  0
   -1.6869   -1.1597   -1.9890 C   0  0  0  0  0  0  0  0  0  0  0  0
    2.6045   -0.5051   -0.9762 N   0  0  0  0  0  0  0  0  0  0  0  0
    3.5413    0.1646   -0.3346 C   0  0  0  0  0  0  0  0  0  0  0  0
    4.7992   -0.3212    0.2332 C   0  0  0  0  0  0  0  0  0  0  0  0
    5.7348    0.5494    0.8149 C   0  0  0  0  0  0  0  0  0  0  0  0
    6.9360    0.0661    1.3367 C   0  0  0  0  0  0  0  0  0  0  0  0
    7.2150   -1.2956    1.2864 C   0  0  0  0  0  0  0  0  0  0  0  0
    6.2960   -2.1775    0.7166 C   0  0  0  0  0  0  0  0  0  0  0  0
    5.0971   -1.6931    0.1926 C   0  0  0  0  0  0  0  0  0  0  0  0
    3.2711    1.5089   -0.2030 O   0  0  0  0  0  0  0  0  0  0  0  0
    0.7667    3.1865   -1.6142 H   0  0  0  0  0  0  0  0  0  0  0  0
    0.9895    3.2592    0.1447 H   0  0  0  0  0  0  0  0  0  0  0  0
    2.2861    3.8068   -0.9511 H   0  0  0  0  0  0  0  0  0  0  0  0
   -0.0631    1.0023   -2.4611 H   0  0  0  0  0  0  0  0  0  0  0  0
    0.7071   -0.5309   -2.8717 H   0  0  0  0  0  0  0  0  0  0  0  0
   -1.1100    1.2341   -0.3342 H   0  0  0  0  0  0  0  0  0  0  0  0
   -0.3122    0.1072    0.7700 H   0  0  0  0  0  0  0  0  0  0  0  0
   -2.4035   -1.2494    0.8972 H   0  0  0  0  0  0  0  0  0  0  0  0
   -2.6733    0.4462    1.3077 H   0  0  0  0  0  0  0  0  0  0  0  0
   -7.3824   -1.1821    0.9258 H   0  0  0  0  0  0  0  0  0  0  0  0
   -7.5333   -0.4784    3.5571 H   0  0  0  0  0  0  0  0  0  0  0  0
   -5.1276    0.8101    4.0312 H   0  0  0  0  0  0  0  0  0  0  0  0
   -3.7244   -0.7708   -2.5688 H   0  0  0  0  0  0  0  0  0  0  0  0
   -2.7842    0.6935   -2.2854 H   0  0  0  0  0  0  0  0  0  0  0  0
   -1.9077   -2.1643   -1.6087 H   0  0  0  0  0  0  0  0  0  0  0  0
   -1.4017   -1.3002   -3.0381 H   0  0  0  0  0  0  0  0  0  0  0  0
    5.5388    1.6238    0.8577 H   0  0  0  0  0  0  0  0  0  0  0  0
    7.6516    0.7588    1.7771 H   0  0  0  0  0  0  0  0  0  0  0  0
    8.1498   -1.6653    1.6863 H   0  0  0  0  0  0  0  0  0  0  0  0
    6.5099   -3.2434    0.6762 H   0  0  0  0  0  0  0  0  0  0  0  0
    4.3883   -2.3911   -0.2540 H   0  0  0  0  0  0  0  0  0  0  0  0
  1  2  1  0
  2  3  2  0
  3  4  1  0
  4  5  1  0
  5  6  1  0
  6  7  1  0
  7  8  1  0
  8  9  1  0
  9 10  2  0
  9 11  1  0
 11 12  2  0
 12 13  1  0
 13 14  2  0
 14 15  1  0
  8 16  1  0
 16 17  1  0
  3 18  1  0
 18 19  2  0
 19 20  1  0
 20 21  2  0
 21 22  1  0
 22 23  2  0
 23 24  1  0
 24 25  2  0
 19 26  1  0
 26  2  1  0
 17  5  1  0
 25 20  1  0
 15 11  1  0
  1 27  1  0
  1 28  1  0
  1 29  1  0
  4 30  1  0
  4 31  1  0
  6 32  1  0
  6 33  1  0
  7 34  1  0
  7 35  1  0
 12 36  1  0
 13 37  1  0
 14 38  1  0
 16 39  1  0
 16 40  1  0
 17 41  1  0
 17 42  1  0
 21 43  1  0
 22 44  1  0
 23 45  1  0
 24 46  1  0
 25 47  1  0
M  END
$$$$
OCNT-2314484
     RDKit          3D

 51 53  0  0  0  0  0  0  0  0999 V2000
   -6.7370    0.8775   -0.7013 C   0  0  0  0  0  0  0  0  0  0  0  0
   -5.2443    0.5203   -0.5738 C   0  0  0  0  0  0  0  0  0  0  0  0
   -5.0243   -0.8494   -1.2152 C   0  0  0  0  0  0  0  0  0  0  0  0
   -4.8774    0.4836    0.9131 C   0  0  0  0  0  0  0  0  0  0  0  0
   -4.4993    1.6085   -1.2356 N   0  0  0  0  0  0  0  0  0  0  0  0
   -3.0011    1.5380   -1.9632 S   0  0  0  0  0  0  0  0  0  0  0  0
   -2.9480    0.4109   -2.8638 O   0  0  0  0  0  0  0  0  0  0  0  0
   -2.7345    2.8813   -2.4322 O   0  0  0  0  0  0  0  0  0  0  0  0
   -1.8887    1.2437   -0.6130 C   0  0  0  0  0  0  0  0  0  0  0  0
   -1.5708    2.2964    0.2469 C   0  0  0  0  0  0  0  0  0  0  0  0
   -0.6845    2.0761    1.3029 C   0  0  0  0  0  0  0  0  0  0  0  0
   -0.1034    0.8140    1.4957 C   0  0  0  0  0  0  0  0  0  0  0  0
    0.9305    0.6497    2.8711 Cl  0  0  0  0  0  0  0  0  0  0  0  0
   -0.4008   -0.2362    0.6125 C   0  0  0  0  0  0  0  0  0  0  0  0
    0.1542   -1.6135    0.7128 C   0  0  0  0  0  0  0  0  0  0  0  0
   -0.5375   -2.5681    0.3767 O   0  0  0  0  0  0  0  0  0  0  0  0
    1.4571   -1.7324    1.1259 N   0  0  0  0  0  0  0  0  0  0  0  0
    2.2009   -2.9760    1.0304 C   0  0  0  0  0  0  0  0  0  0  0  0
    3.0677   -3.0251   -0.2306 C   0  0  0  0  0  0  0  0  0  0  0  0
    4.1652   -2.0002   -0.1661 C   0  0  0  0  0  0  0  0  0  0  0  0
    3.9517   -0.7040   -0.0695 N   0  0  0  0  0  0  0  0  0  0  0  0
    5.1591   -0.0289   -0.0027 C   0  0  0  0  0  0  0  0  0  0  0  0
    5.3193    1.3670    0.1087 C   0  0  0  0  0  0  0  0  0  0  0  0
    6.6038    1.9164    0.1748 C   0  0  0  0  0  0  0  0  0  0  0  0
    7.7252    1.0934    0.1313 C   0  0  0  0  0  0  0  0  0  0  0  0
    7.5924   -0.2944    0.0203 C   0  0  0  0  0  0  0  0  0  0  0  0
    6.2974   -0.8353   -0.0455 C   0  0  0  0  0  0  0  0  0  0  0  0
    5.8119   -2.4817   -0.1804 S   0  0  0  0  0  0  0  0  0  0  0  0
   -1.2991   -0.0120   -0.4460 C   0  0  0  0  0  0  0  0  0  0  0  0
   -7.0366    0.9494   -1.7533 H   0  0  0  0  0  0  0  0  0  0  0  0
   -6.9566    1.8450   -0.2343 H   0  0  0  0  0  0  0  0  0  0  0  0
   -7.3715    0.1238   -0.2211 H   0  0  0  0  0  0  0  0  0  0  0  0
   -5.6712   -1.6062   -0.7548 H   0  0  0  0  0  0  0  0  0  0  0  0
   -3.9953   -1.1998   -1.0932 H   0  0  0  0  0  0  0  0  0  0  0  0
   -5.2536   -0.8309   -2.2868 H   0  0  0  0  0  0  0  0  0  0  0  0
   -5.5249   -0.2097    1.4624 H   0  0  0  0  0  0  0  0  0  0  0  0
   -3.8480    0.1527    1.0702 H   0  0  0  0  0  0  0  0  0  0  0  0
   -4.9784    1.4732    1.3734 H   0  0  0  0  0  0  0  0  0  0  0  0
   -4.8891    2.5497   -1.2045 H   0  0  0  0  0  0  0  0  0  0  0  0
   -2.0075    3.2830    0.1023 H   0  0  0  0  0  0  0  0  0  0  0  0
   -0.4514    2.8963    1.9797 H   0  0  0  0  0  0  0  0  0  0  0  0
    2.0147   -0.8880    1.2355 H   0  0  0  0  0  0  0  0  0  0  0  0
    2.8191   -3.0480    1.9321 H   0  0  0  0  0  0  0  0  0  0  0  0
    1.5016   -3.8188    1.0294 H   0  0  0  0  0  0  0  0  0  0  0  0
    2.4568   -2.8313   -1.1205 H   0  0  0  0  0  0  0  0  0  0  0  0
    3.4837   -4.0338   -0.3368 H   0  0  0  0  0  0  0  0  0  0  0  0
    4.4432    2.0049    0.1433 H   0  0  0  0  0  0  0  0  0  0  0  0
    6.7239    2.9936    0.2613 H   0  0  0  0  0  0  0  0  0  0  0  0
    8.7188    1.5334    0.1853 H   0  0  0  0  0  0  0  0  0  0  0  0
    8.4686   -0.9357   -0.0114 H   0  0  0  0  0  0  0  0  0  0  0  0
   -1.5318   -0.8223   -1.1370 H   0  0  0  0  0  0  0  0  0  0  0  0
  1  2  1  0
  2  3  1  0
  2  4  1  0
  2  5  1  0
  5  6  1  0
  6  7  2  0
  6  8  2  0
  6  9  1  0
  9 10  1  0
 10 11  2  0
 11 12  1  0
 12 13  1  0
 12 14  2  0
 14 15  1  0
 15 16  2  0
 15 17  1  0
 17 18  1  0
 18 19  1  0
 19 20  1  0
 20 21  2  0
 21 22  1  0
 22 23  2  0
 23 24  1  0
 24 25  2  0
 25 26  1  0
 26 27  2  0
 27 28  1  0
 14 29  1  0
 29  9  2  0
 28 20  1  0
 27 22  1  0
  1 30  1  0
  1 31  1  0
  1 32  1  0
  3 33  1  0
  3 34  1  0
  3 35  1  0
  4 36  1  0
  4 37  1  0
  4 38  1  0
  5 39  1  0
 10 40  1  0
 11 41  1  0
 17 42  1  0
 18 43  1  0
 18 44  1  0
 19 45  1  0
 19 46  1  0
 23 47  1  0
 24 48  1  0
 25 49  1  0
 26 50  1  0
 29 51  1  0
M  END
$$$$
OCNT-2314494
     RDKit          3D

 39 42  0  0  0  0  0  0  0  0999 V2000
   -0.0279    1.4488   -0.8125 O   0  0  0  0  0  0  0  0  0  0  0  0
   -0.2051    0.6803    0.1263 C   0  0  0  0  0  0  0  0  0  0  0  0
   -1.5606    0.5251    0.7921 C   0  0  0  0  0  0  0  0  0  0  0  0
   -2.6866    0.7450   -0.2153 C   0  0  0  0  0  0  0  0  0  0  0  0
   -2.7344   -0.4575   -1.0341 O   0  0  0  0  0  0  0  0  0  0  0  0
   -3.8708   -0.4963   -1.9108 C   0  0  0  0  0  0  0  0  0  0  0  0
   -5.1499   -0.7203   -1.0944 C   0  0  0  0  0  0  0  0  0  0  0  0
   -5.1975    0.2638    0.0299 C   0  0  0  0  0  0  0  0  0  0  0  0
   -4.0457    0.9164    0.4345 C   0  0  0  0  0  0  0  0  0  0  0  0
   -4.3592    2.0393    1.6804 S   0  0  0  0  0  0  0  0  0  0  0  0
   -6.0135    1.6061    1.7373 C   0  0  0  0  0  0  0  0  0  0  0  0
   -6.3329    0.6501    0.7982 C   0  0  0  0  0  0  0  0  0  0  0  0
    0.7755   -0.0718    0.7586 N   0  0  0  0  0  0  0  0  0  0  0  0
    2.1445   -0.1499    0.4283 C   0  0  0  0  0  0  0  0  0  0  0  0
    2.7397    0.5505   -0.6220 C   0  0  0  0  0  0  0  0  0  0  0  0
    4.1104    0.4182   -0.8870 C   0  0  0  0  0  0  0  0  0  0  0  0
    4.9083   -0.4228   -0.0991 C   0  0  0  0  0  0  0  0  0  0  0  0
    6.2871   -0.5454   -0.3790 N   0  0  0  0  0  0  0  0  0  0  0  0
    7.2607   -1.2924    0.2364 C   0  0  0  0  0  0  0  0  0  0  0  0
    8.4115   -1.0947   -0.3657 N   0  0  0  0  0  0  0  0  0  0  0  0
    8.1547   -0.2088   -1.3757 N   0  0  0  0  0  0  0  0  0  0  0  0
    6.8746    0.1318   -1.3956 N   0  0  0  0  0  0  0  0  0  0  0  0
    4.3094   -1.1199    0.9475 C   0  0  0  0  0  0  0  0  0  0  0  0
    5.0123   -1.9401    1.7397 F   0  0  0  0  0  0  0  0  0  0  0  0
    2.9443   -0.9879    1.2113 C   0  0  0  0  0  0  0  0  0  0  0  0
   -1.5823    1.2604    1.6037 H   0  0  0  0  0  0  0  0  0  0  0  0
   -1.6441   -0.4749    1.2356 H   0  0  0  0  0  0  0  0  0  0  0  0
   -2.4945    1.6004   -0.8743 H   0  0  0  0  0  0  0  0  0  0  0  0
   -3.9149    0.4309   -2.4953 H   0  0  0  0  0  0  0  0  0  0  0  0
   -3.7282   -1.3260   -2.6103 H   0  0  0  0  0  0  0  0  0  0  0  0
   -5.1390   -1.7294   -0.6651 H   0  0  0  0  0  0  0  0  0  0  0  0
   -6.0308   -0.6297   -1.7381 H   0  0  0  0  0  0  0  0  0  0  0  0
   -6.6749    2.0830    2.4475 H   0  0  0  0  0  0  0  0  0  0  0  0
   -7.3342    0.2582    0.6663 H   0  0  0  0  0  0  0  0  0  0  0  0
    0.4717   -0.6457    1.5360 H   0  0  0  0  0  0  0  0  0  0  0  0
    2.1667    1.2137   -1.2644 H   0  0  0  0  0  0  0  0  0  0  0  0
    4.5289    0.9853   -1.7184 H   0  0  0  0  0  0  0  0  0  0  0  0
    7.0997   -1.9396    1.0830 H   0  0  0  0  0  0  0  0  0  0  0  0
    2.5268   -1.5540    2.0389 H   0  0  0  0  0  0  0  0  0  0  0  0
  1  2  2  0
  2  3  1  0
  3  4  1  0
  4  5  1  0
  5  6  1  0
  6  7  1  0
  7  8  1  0
  8  9  2  0
  9 10  1  0
 10 11  1  0
 11 12  2  0
  2 13  1  0
 13 14  1  0
 14 15  1  0
 15 16  2  0
 16 17  1  0
 17 18  1  0
 18 19  1  0
 19 20  2  0
 20 21  1  0
 21 22  2  0
 17 23  2  0
 23 24  1  0
 23 25  1  0
  9  4  1  0
 25 14  2  0
 12  8  1  0
 22 18  1  0
  3 26  1  0
  3 27  1  0
  4 28  1  0
  6 29  1  0
  6 30  1  0
  7 31  1  0
  7 32  1  0
 11 33  1  0
 12 34  1  0
 13 35  1  0
 15 36  1  0
 16 37  1  0
 19 38  1  0
 25 39  1  0
M  END
$$$$
OCNT-2314500
     RDKit          3D

 41 43  0  0  0  0  0  0  0  0999 V2000
   -5.1225    1.8211    1.7993 C   0  0  0  0  0  0  0  0  0  0  0  0
   -4.0493    1.3144    0.8823 C   0  0  0  0  0  0  0  0  0  0  0  0
   -3.6397    2.0721   -0.2175 C   0  0  0  0  0  0  0  0  0  0  0  0
   -2.6139    1.6149   -1.0471 C   0  0  0  0  0  0  0  0  0  0  0  0
   -1.9661    0.3960   -0.7882 C   0  0  0  0  0  0  0  0  0  0  0  0
   -0.8752   -0.0654   -1.7327 C   0  0  0  0  0  0  0  0  0  0  0  0
   -0.1219   -1.2473   -1.2770 N   0  0  0  0  0  0  0  0  0  0  0  0
    1.1307   -0.9676   -0.7337 C   0  0  0  0  0  0  0  0  0  0  0  0
    1.2679   -0.9977    0.6146 N   0  0  0  0  0  0  0  0  0  0  0  0
    2.4645   -0.7047    1.1747 C   0  0  0  0  0  0  0  0  0  0  0  0
    3.5658   -0.3591    0.4305 C   0  0  0  0  0  0  0  0  0  0  0  0
    5.0858    0.0071    1.2266 S   0  0  0  0  0  0  0  0  0  0  0  0
    5.0833    1.6893    1.2395 N   0  0  0  0  0  0  0  0  0  0  0  0
    4.9877   -0.3917    2.6110 O   0  0  0  0  0  0  0  0  0  0  0  0
    6.1582   -0.4293    0.3660 O   0  0  0  0  0  0  0  0  0  0  0  0
    3.4600   -0.3669   -0.9550 C   0  0  0  0  0  0  0  0  0  0  0  0
    2.2273   -0.6870   -1.5569 C   0  0  0  0  0  0  0  0  0  0  0  0
    2.1234   -0.7740   -3.0535 C   0  0  0  0  0  0  0  0  0  0  0  0
    1.6512   -1.9651   -3.5122 F   0  0  0  0  0  0  0  0  0  0  0  0
    1.3283    0.1923   -3.5955 F   0  0  0  0  0  0  0  0  0  0  0  0
    3.3331   -0.6117   -3.6707 F   0  0  0  0  0  0  0  0  0  0  0  0
   -0.9302   -2.2435   -0.5577 C   0  0  0  0  0  0  0  0  0  0  0  0
   -1.6902   -1.6683    0.6391 C   0  0  0  0  0  0  0  0  0  0  0  0
   -2.3791   -0.3701    0.3123 C   0  0  0  0  0  0  0  0  0  0  0  0
   -3.4029    0.1021    1.1492 C   0  0  0  0  0  0  0  0  0  0  0  0
   -5.8404    2.4435    1.2548 H   0  0  0  0  0  0  0  0  0  0  0  0
   -4.6777    2.4152    2.6034 H   0  0  0  0  0  0  0  0  0  0  0  0
   -5.6831    0.9903    2.2406 H   0  0  0  0  0  0  0  0  0  0  0  0
   -4.1168    3.0247   -0.4364 H   0  0  0  0  0  0  0  0  0  0  0  0
   -2.3191    2.2207   -1.9016 H   0  0  0  0  0  0  0  0  0  0  0  0
   -0.2081    0.7847   -1.9231 H   0  0  0  0  0  0  0  0  0  0  0  0
   -1.3492   -0.3252   -2.6876 H   0  0  0  0  0  0  0  0  0  0  0  0
    2.4853   -0.7580    2.2601 H   0  0  0  0  0  0  0  0  0  0  0  0
    5.0810    2.0189    2.2072 H   0  0  0  0  0  0  0  0  0  0  0  0
    4.3389    2.1153    0.6893 H   0  0  0  0  0  0  0  0  0  0  0  0
    4.3342   -0.1507   -1.5694 H   0  0  0  0  0  0  0  0  0  0  0  0
   -1.6575   -2.6509   -1.2731 H   0  0  0  0  0  0  0  0  0  0  0  0
   -0.3162   -3.0978   -0.2443 H   0  0  0  0  0  0  0  0  0  0  0  0
   -1.0186   -1.4980    1.4871 H   0  0  0  0  0  0  0  0  0  0  0  0
   -2.4321   -2.4084    0.9634 H   0  0  0  0  0  0  0  0  0  0  0  0
   -3.6970   -0.4841    2.0182 H   0  0  0  0  0  0  0  0  0  0  0  0
  1  2  1  0
  2  3  1  0
  3  4  2  0
  4  5  1  0
  5  6  1  0
  6  7  1  0
  7  8  1  0
  8  9  1  0
  9 10  2  0
 10 11  1  0
 11 12  1  0
 12 13  1  0
 12 14  2  0
 12 15  2  0
 11 16  2  0
 16 17  1  0
 17 18  1  0
 18 19  1  0
 18 20  1  0
 18 21  1  0
  7 22  1  0
 22 23  1  0
 23 24  1  0
 24 25  1  0
 25  2  2  0
 24  5  2  0
 17  8  2  0
  1 26  1  0
  1 27  1  0
  1 28  1  0
  3 29  1  0
  4 30  1  0
  6 31  1  0
  6 32  1  0
 10 33  1  0
 13 34  1  0
 13 35  1  0
 16 36  1  0
 22 37  1  0
 22 38  1  0
 23 39  1  0
 23 40  1  0
 25 41  1  0
M  END
$$$$
OCNT-2314509
     RDKit          3D

 49 51  0  0  0  0  0  0  0  0999 V2000
   -5.7732    0.0908   -0.9147 C   0  0  0  0  0  0  0  0  0  0  0  0
   -4.5805    0.7122   -1.6771 C   0  0  0  0  0  0  0  0  0  0  0  0
   -4.5762    0.1913   -3.1338 C   0  0  0  0  0  0  0  0  0  0  0  0
   -4.8308    2.2399   -1.7333 C   0  0  0  0  0  0  0  0  0  0  0  0
   -3.2529    0.3196   -0.9976 C   0  0  0  0  0  0  0  0  0  0  0  0
   -2.9325   -1.0412   -0.8020 C   0  0  0  0  0  0  0  0  0  0  0  0
   -1.7360   -1.4318   -0.1924 C   0  0  0  0  0  0  0  0  0  0  0  0
   -0.8143   -0.4638    0.2051 C   0  0  0  0  0  0  0  0  0  0  0  0
    0.4433   -0.8416    0.8895 C   0  0  0  0  0  0  0  0  0  0  0  0
    0.7296   -0.2691    1.9391 O   0  0  0  0  0  0  0  0  0  0  0  0
    1.2837   -1.7822    0.3119 N   0  0  0  0  0  0  0  0  0  0  0  0
    1.2980   -2.0870   -1.1118 C   0  0  0  0  0  0  0  0  0  0  0  0
    2.5520   -3.3609   -1.3888 S   0  0  0  0  0  0  0  0  0  0  0  0
    2.8001   -3.6611    0.3893 C   0  0  0  0  0  0  0  0  0  0  0  0
    2.4481   -2.3167    1.0494 C   0  0  0  0  0  0  0  0  0  0  0  0
    3.6968   -1.3797    1.1090 C   0  0  0  0  0  0  0  0  0  0  0  0
    4.8391   -1.8186    0.9817 O   0  0  0  0  0  0  0  0  0  0  0  0
    3.3966   -0.0771    1.4595 N   0  0  0  0  0  0  0  0  0  0  0  0
    4.2771    1.0152    1.5884 C   0  0  0  0  0  0  0  0  0  0  0  0
    3.7141    2.2517    1.9195 C   0  0  0  0  0  0  0  0  0  0  0  0
    4.5462    3.3549    2.0290 C   0  0  0  0  0  0  0  0  0  0  0  0
    5.8782    3.3077    1.8289 N   0  0  0  0  0  0  0  0  0  0  0  0
    6.3978    2.0978    1.5223 C   0  0  0  0  0  0  0  0  0  0  0  0
    5.6489    0.9382    1.3894 C   0  0  0  0  0  0  0  0  0  0  0  0
   -1.1128    0.8894    0.0418 C   0  0  0  0  0  0  0  0  0  0  0  0
   -2.3179    1.2753   -0.5578 C   0  0  0  0  0  0  0  0  0  0  0  0
   -6.7267    0.3706   -1.3830 H   0  0  0  0  0  0  0  0  0  0  0  0
   -5.7344   -1.0051   -0.8995 H   0  0  0  0  0  0  0  0  0  0  0  0
   -5.8002    0.4348    0.1285 H   0  0  0  0  0  0  0  0  0  0  0  0
   -4.4948   -0.9023   -3.1826 H   0  0  0  0  0  0  0  0  0  0  0  0
   -3.7316    0.6046   -3.6984 H   0  0  0  0  0  0  0  0  0  0  0  0
   -5.4985    0.4727   -3.6608 H   0  0  0  0  0  0  0  0  0  0  0  0
   -5.7928    2.4716   -2.2169 H   0  0  0  0  0  0  0  0  0  0  0  0
   -4.0523    2.7550   -2.3110 H   0  0  0  0  0  0  0  0  0  0  0  0
   -4.8624    2.6792   -0.7228 H   0  0  0  0  0  0  0  0  0  0  0  0
   -3.6236   -1.8239   -1.1129 H   0  0  0  0  0  0  0  0  0  0  0  0
   -1.5479   -2.4898   -0.0118 H   0  0  0  0  0  0  0  0  0  0  0  0
    1.5307   -1.1727   -1.6647 H   0  0  0  0  0  0  0  0  0  0  0  0
    0.3298   -2.4694   -1.4375 H   0  0  0  0  0  0  0  0  0  0  0  0
    2.0824   -4.4412    0.7048 H   0  0  0  0  0  0  0  0  0  0  0  0
    3.8113   -4.0314    0.5906 H   0  0  0  0  0  0  0  0  0  0  0  0
    2.1526   -2.4856    2.1003 H   0  0  0  0  0  0  0  0  0  0  0  0
    2.4271    0.0941    1.7113 H   0  0  0  0  0  0  0  0  0  0  0  0
    2.6488    2.3706    2.0733 H   0  0  0  0  0  0  0  0  0  0  0  0
    4.1489    4.3353    2.2745 H   0  0  0  0  0  0  0  0  0  0  0  0
    7.4735    2.0770    1.3532 H   0  0  0  0  0  0  0  0  0  0  0  0
    6.1599    0.0077    1.1502 H   0  0  0  0  0  0  0  0  0  0  0  0
   -0.4166    1.6512    0.3874 H   0  0  0  0  0  0  0  0  0  0  0  0
   -2.5053    2.3437   -0.6590 H   0  0  0  0  0  0  0  0  0  0  0  0
  1  2  1  0
  2  3  1  0
  2  4  1  0
  2  5  1  0
  5  6  1  0
  6  7  2  0
  7  8  1  0
  8  9  1  0
  9 10  2  0
  9 11  1  0
 11 12  1  0
 12 13  1  0
 13 14  1  0
 14 15  1  0
 15 16  1  0
 16 17  2  0
 16 18  1  0
 18 19  1  0
 19 20  2  0
 20 21  1  0
 21 22  2  0
 22 23  1  0
 23 24  2  0
  8 25  2  0
 25 26  1  0
 26  5  2  0
 15 11  1  0
 24 19  1  0
  1 27  1  0
  1 28  1  0
  1 29  1  0
  3 30  1  0
  3 31  1  0
  3 32  1  0
  4 33  1  0
  4 34  1  0
  4 35  1  0
  6 36  1  0
  7 37  1  0
 12 38  1  0
 12 39  1  0
 14 40  1  0
 14 41  1  0
 15 42  1  0
 18 43  1  0
 20 44  1  0
 21 45  1  0
 23 46  1  0
 24 47  1  0
 25 48  1  0
 26 49  1  0
M  END
$$$$
OCNT-2314526
     RDKit          3D

 49 52  0  0  0  0  0  0  0  0999 V2000
   -0.6639    1.3586   -2.2279 C   0  0  0  0  0  0  0  0  0  0  0  0
   -0.2266    0.5295   -1.0139 C   0  0  0  0  0  0  0  0  0  0  0  0
   -0.9220   -0.7587   -0.9845 N   0  0  0  0  0  0  0  0  0  0  0  0
   -2.2550   -0.7770   -0.5677 C   0  0  0  0  0  0  0  0  0  0  0  0
   -2.9279   -1.9727   -0.5915 C   0  0  0  0  0  0  0  0  0  0  0  0
   -4.2184   -1.9426   -0.1243 C   0  0  0  0  0  0  0  0  0  0  0  0
   -5.0290   -3.1985   -0.1280 C   0  0  0  0  0  0  0  0  0  0  0  0
   -6.2969   -3.0803    0.3736 N   0  0  0  0  0  0  0  0  0  0  0  0
   -4.5975   -4.2630   -0.5511 O   0  0  0  0  0  0  0  0  0  0  0  0
   -4.8340   -0.8381    0.3529 N   0  0  0  0  0  0  0  0  0  0  0  0
   -4.1014    0.2862    0.3651 C   0  0  0  0  0  0  0  0  0  0  0  0
   -4.7079    1.5690    0.8925 C   0  0  0  0  0  0  0  0  0  0  0  0
   -6.1361    1.9377    0.5599 C   0  0  0  0  0  0  0  0  0  0  0  0
   -5.7746    1.5468    1.9637 C   0  0  0  0  0  0  0  0  0  0  0  0
   -2.8289    0.3351   -0.0801 N   0  0  0  0  0  0  0  0  0  0  0  0
    1.2694    0.2263   -0.9802 C   0  0  0  0  0  0  0  0  0  0  0  0
    1.8738   -0.0320    0.2650 C   0  0  0  0  0  0  0  0  0  0  0  0
    3.2338   -0.3356    0.3580 C   0  0  0  0  0  0  0  0  0  0  0  0
    4.0113   -0.3773   -0.7982 C   0  0  0  0  0  0  0  0  0  0  0  0
    5.3462   -0.7054   -0.7744 O   0  0  0  0  0  0  0  0  0  0  0  0
    6.1574    0.0113    0.0694 C   0  0  0  0  0  0  0  0  0  0  0  0
    6.0655    1.3834    0.2731 C   0  0  0  0  0  0  0  0  0  0  0  0
    6.8956    2.0827    1.0852 N   0  0  0  0  0  0  0  0  0  0  0  0
    7.8681    1.3790    1.7054 C   0  0  0  0  0  0  0  0  0  0  0  0
    8.0525    0.0138    1.5485 C   0  0  0  0  0  0  0  0  0  0  0  0
    7.1833   -0.6781    0.7090 C   0  0  0  0  0  0  0  0  0  0  0  0
    3.4260   -0.1638   -2.0439 C   0  0  0  0  0  0  0  0  0  0  0  0
    2.0639    0.1381   -2.1351 C   0  0  0  0  0  0  0  0  0  0  0  0
   -1.7104    1.6686   -2.1389 H   0  0  0  0  0  0  0  0  0  0  0  0
   -0.5817    0.7933   -3.1631 H   0  0  0  0  0  0  0  0  0  0  0  0
   -0.0594    2.2674   -2.3221 H   0  0  0  0  0  0  0  0  0  0  0  0
   -0.4462    1.1170   -0.1118 H   0  0  0  0  0  0  0  0  0  0  0  0
   -0.7815   -1.2901   -1.8374 H   0  0  0  0  0  0  0  0  0  0  0  0
   -2.4718   -2.8876   -0.9455 H   0  0  0  0  0  0  0  0  0  0  0  0
   -6.6171   -2.1860    0.7271 H   0  0  0  0  0  0  0  0  0  0  0  0
   -6.8957   -3.8920    0.4127 H   0  0  0  0  0  0  0  0  0  0  0  0
   -4.0085    2.4004    0.9475 H   0  0  0  0  0  0  0  0  0  0  0  0
   -6.7305    1.2430   -0.0231 H   0  0  0  0  0  0  0  0  0  0  0  0
   -6.3537    2.9806    0.3605 H   0  0  0  0  0  0  0  0  0  0  0  0
   -5.7456    2.3240    2.7187 H   0  0  0  0  0  0  0  0  0  0  0  0
   -6.1244    0.5887    2.3312 H   0  0  0  0  0  0  0  0  0  0  0  0
    1.2729   -0.0124    1.1732 H   0  0  0  0  0  0  0  0  0  0  0  0
    3.6706   -0.5489    1.3298 H   0  0  0  0  0  0  0  0  0  0  0  0
    5.3103    1.9831   -0.2257 H   0  0  0  0  0  0  0  0  0  0  0  0
    8.5206    1.9611    2.3502 H   0  0  0  0  0  0  0  0  0  0  0  0
    8.8559   -0.4986    2.0657 H   0  0  0  0  0  0  0  0  0  0  0  0
    7.3019   -1.7468    0.5573 H   0  0  0  0  0  0  0  0  0  0  0  0
    4.0283   -0.2327   -2.9459 H   0  0  0  0  0  0  0  0  0  0  0  0
    1.6394    0.2934   -3.1231 H   0  0  0  0  0  0  0  0  0  0  0  0
  1  2  1  0
  2  3  1  0
  3  4  1  0
  4  5  1  0
  5  6  2  0
  6  7  1  0
  7  8  1  0
  7  9  2  0
  6 10  1  0
 10 11  2  0
 11 12  1  0
 12 13  1  0
 13 14  1  0
 11 15  1  0
  2 16  1  0
 16 17  1  0
 17 18  2  0
 18 19  1  0
 19 20  1  0
 20 21  1  0
 21 22  2  0
 22 23  1  0
 23 24  2  0
 24 25  1  0
 25 26  2  0
 19 27  2  0
 27 28  1  0
 15  4  2  0
 28 16  2  0
 14 12  1  0
 26 21  1  0
  1 29  1  0
  1 30  1  0
  1 31  1  0
  2 32  1  0
  3 33  1  0
  5 34  1  0
  8 35  1  0
  8 36  1  0
 12 37  1  0
 13 38  1  0
 13 39  1  0
 14 40  1  0
 14 41  1  0
 17 42  1  0
 18 43  1  0
 22 44  1  0
 24 45  1  0
 25 46  1  0
 26 47  1  0
 27 48  1  0
 28 49  1  0
M  END
$$$$
OCNT-2314528
     RDKit          3D

 43 46  0  0  0  0  0  0  0  0999 V2000
    5.7990    1.1135    0.9476 C   0  0  0  0  0  0  0  0  0  0  0  0
    5.6337   -0.2654    0.9513 C   0  0  0  0  0  0  0  0  0  0  0  0
    4.5228   -0.8415    0.3215 C   0  0  0  0  0  0  0  0  0  0  0  0
    3.5475   -0.0681   -0.3292 C   0  0  0  0  0  0  0  0  0  0  0  0
    2.4566   -0.6409   -0.9410 N   0  0  0  0  0  0  0  0  0  0  0  0
    2.3145   -2.0750   -1.1756 C   0  0  0  0  0  0  0  0  0  0  0  0
    1.1614   -2.1711   -2.1726 C   0  0  0  0  0  0  0  0  0  0  0  0
    0.2981   -0.9471   -1.8604 C   0  0  0  0  0  0  0  0  0  0  0  0
   -0.6473   -1.2067   -0.6761 C   0  0  0  0  0  0  0  0  0  0  0  0
   -1.6309   -0.1238   -0.5771 N   0  0  0  0  0  0  0  0  0  0  0  0
   -2.6701   -0.3555    0.3604 C   0  0  0  0  0  0  0  0  0  0  0  0
   -2.6837   -1.5119    1.0451 N   0  0  0  0  0  0  0  0  0  0  0  0
   -3.6751   -1.6758    1.9270 C   0  0  0  0  0  0  0  0  0  0  0  0
   -4.6535   -0.8046    2.1942 N   0  0  0  0  0  0  0  0  0  0  0  0
   -4.6441    0.3342    1.4958 C   0  0  0  0  0  0  0  0  0  0  0  0
   -5.6492    1.2658    1.7286 C   0  0  0  0  0  0  0  0  0  0  0  0
   -5.7145    2.4750    1.0309 C   0  0  0  0  0  0  0  0  0  0  0  0
   -4.7571    2.7677    0.0699 C   0  0  0  0  0  0  0  0  0  0  0  0
   -3.7383    1.8510   -0.1798 C   0  0  0  0  0  0  0  0  0  0  0  0
   -3.6647    0.6280    0.5362 C   0  0  0  0  0  0  0  0  0  0  0  0
    1.3586    0.1137   -1.5425 C   0  0  0  0  0  0  0  0  0  0  0  0
    3.7453    1.3222   -0.3105 C   0  0  0  0  0  0  0  0  0  0  0  0
    4.8527    1.9094    0.3155 C   0  0  0  0  0  0  0  0  0  0  0  0
    6.6587    1.5644    1.4346 H   0  0  0  0  0  0  0  0  0  0  0  0
    6.3637   -0.9007    1.4452 H   0  0  0  0  0  0  0  0  0  0  0  0
    4.4311   -1.9230    0.3618 H   0  0  0  0  0  0  0  0  0  0  0  0
    3.2174   -2.5250   -1.6027 H   0  0  0  0  0  0  0  0  0  0  0  0
    2.0623   -2.5885   -0.2410 H   0  0  0  0  0  0  0  0  0  0  0  0
    1.5544   -2.0876   -3.1939 H   0  0  0  0  0  0  0  0  0  0  0  0
    0.6259   -3.1222   -2.0991 H   0  0  0  0  0  0  0  0  0  0  0  0
   -0.2919   -0.6552   -2.7374 H   0  0  0  0  0  0  0  0  0  0  0  0
   -0.0896   -1.2998    0.2641 H   0  0  0  0  0  0  0  0  0  0  0  0
   -1.1658   -2.1559   -0.8632 H   0  0  0  0  0  0  0  0  0  0  0  0
   -1.1922    0.7555   -0.3144 H   0  0  0  0  0  0  0  0  0  0  0  0
   -3.6852   -2.6071    2.4827 H   0  0  0  0  0  0  0  0  0  0  0  0
   -6.4088    1.0416    2.4747 H   0  0  0  0  0  0  0  0  0  0  0  0
   -6.5175    3.1778    1.2378 H   0  0  0  0  0  0  0  0  0  0  0  0
   -4.8046    3.6999   -0.4868 H   0  0  0  0  0  0  0  0  0  0  0  0
   -3.0039    2.0805   -0.9483 H   0  0  0  0  0  0  0  0  0  0  0  0
    0.9721    0.8897   -0.8742 H   0  0  0  0  0  0  0  0  0  0  0  0
    1.7045    0.5864   -2.4698 H   0  0  0  0  0  0  0  0  0  0  0  0
    3.0382    1.9865   -0.7982 H   0  0  0  0  0  0  0  0  0  0  0  0
    4.9697    2.9896    0.3036 H   0  0  0  0  0  0  0  0  0  0  0  0
  1  2  2  0
  2  3  1  0
  3  4  2  0
  4  5  1  0
  5  6  1  0
  6  7  1  0
  7  8  1  0
  8  9  1  0
  9 10  1  0
 10 11  1  0
 11 12  1  0
 12 13  2  0
 13 14  1  0
 14 15  2  0
 15 16  1  0
 16 17  2  0
 17 18  1  0
 18 19  2  0
 19 20  1  0
  8 21  1  0
  4 22  1  0
 22 23  2  0
 23  1  1  0
 21  5  1  0
 20 11  2  0
 20 15  1  0
  1 24  1  0
  2 25  1  0
  3 26  1  0
  6 27  1  0
  6 28  1  0
  7 29  1  0
  7 30  1  0
  8 31  1  0
  9 32  1  0
  9 33  1  0
 10 34  1  0
 13 35  1  0
 16 36  1  0
 17 37  1  0
 18 38  1  0
 19 39  1  0
 21 40  1  0
 21 41  1  0
 22 42  1  0
 23 43  1  0
M  END
$$$$
OCNT-2314548
     RDKit          3D

 58 62  0  0  0  0  0  0  0  0999 V2000
    2.1075   -3.4200   -0.8478 C   0  0  0  0  0  0  0  0  0  0  0  0
    2.4910   -2.6111    0.3925 C   0  0  1  0  0  0  0  0  0  0  0  0
    3.4998   -1.6199    0.0338 N   0  0  0  0  0  0  0  0  0  0  0  0
    4.3719   -1.0835    0.9689 C   0  0  0  0  0  0  0  0  0  0  0  0
    4.3321   -1.3972    2.1563 O   0  0  0  0  0  0  0  0  0  0  0  0
    5.3535   -0.1341    0.4147 C   0  0  0  0  0  0  0  0  0  0  0  0
    6.6130   -0.0821    0.8886 N   0  0  0  0  0  0  0  0  0  0  0  0
    7.2072    0.8694    0.1572 N   0  0  0  0  0  0  0  0  0  0  0  0
    6.3986    1.4486   -0.7803 C   0  0  0  0  0  0  0  0  0  0  0  0
    6.6443    2.4583   -1.7164 C   0  0  0  0  0  0  0  0  0  0  0  0
    5.5757    2.8500   -2.5283 C   0  0  0  0  0  0  0  0  0  0  0  0
    4.3203    2.2591   -2.3990 C   0  0  0  0  0  0  0  0  0  0  0  0
    4.0976    1.2484   -1.4545 C   0  0  0  0  0  0  0  0  0  0  0  0
    5.1641    0.8248   -0.6344 C   0  0  0  0  0  0  0  0  0  0  0  0
    1.2900   -1.9477    1.1235 C   0  0  0  0  0  0  0  0  0  0  0  0
    0.6640   -0.7826    0.3329 C   0  0  0  0  0  0  0  0  0  0  0  0
   -0.7730   -0.5250    0.7691 C   0  0  0  0  0  0  0  0  0  0  0  0
   -1.6151   -1.6885    0.4805 N   0  0  0  0  0  0  0  0  0  0  0  0
   -2.9851   -1.6494    0.2017 C   0  0  0  0  0  0  0  0  0  0  0  0
   -3.6834   -2.6612    0.2358 O   0  0  0  0  0  0  0  0  0  0  0  0
   -3.5928   -0.3771   -0.1411 C   0  0  0  0  0  0  0  0  0  0  0  0
   -4.7900    0.1052    0.3525 C   0  0  0  0  0  0  0  0  0  0  0  0
   -5.0393    1.3117   -0.2620 N   0  0  0  0  0  0  0  0  0  0  0  0
   -6.1408    2.1867   -0.0632 C   0  0  0  0  0  0  0  0  0  0  0  0
   -6.2082    3.3820   -0.7863 C   0  0  0  0  0  0  0  0  0  0  0  0
   -7.2901    4.2177   -0.5719 C   0  0  0  0  0  0  0  0  0  0  0  0
   -8.2870    3.9461    0.2966 N   0  0  0  0  0  0  0  0  0  0  0  0
   -8.2001    2.7857    0.9801 C   0  0  0  0  0  0  0  0  0  0  0  0
   -7.1602    1.8797    0.8405 C   0  0  0  0  0  0  0  0  0  0  0  0
   -4.0586    1.6194   -1.1518 N   0  0  0  0  0  0  0  0  0  0  0  0
   -3.2215    0.5831   -1.0994 C   0  0  0  0  0  0  0  0  0  0  0  0
   -1.0157   -3.0042    0.7076 C   0  0  0  0  0  0  0  0  0  0  0  0
    0.2277   -2.9619    1.5936 C   0  0  0  0  0  0  0  0  0  0  0  0
    1.6314   -2.7993   -1.6130 H   0  0  0  0  0  0  0  0  0  0  0  0
    1.4322   -4.2432   -0.5984 H   0  0  0  0  0  0  0  0  0  0  0  0
    3.0013   -3.8614   -1.3044 H   0  0  0  0  0  0  0  0  0  0  0  0
    2.9671   -3.3050    1.0982 H   0  0  0  0  0  0  0  0  0  0  0  0
    3.7009   -1.4562   -0.9437 H   0  0  0  0  0  0  0  0  0  0  0  0
    8.1783    1.0829    0.3496 H   0  0  0  0  0  0  0  0  0  0  0  0
    7.6180    2.9294   -1.8085 H   0  0  0  0  0  0  0  0  0  0  0  0
    5.7248    3.6364   -3.2657 H   0  0  0  0  0  0  0  0  0  0  0  0
    3.5012    2.5937   -3.0325 H   0  0  0  0  0  0  0  0  0  0  0  0
    3.1056    0.8188   -1.3554 H   0  0  0  0  0  0  0  0  0  0  0  0
    1.6970   -1.5057    2.0449 H   0  0  0  0  0  0  0  0  0  0  0  0
    1.2610    0.1244    0.4869 H   0  0  0  0  0  0  0  0  0  0  0  0
    0.6728   -0.9863   -0.7437 H   0  0  0  0  0  0  0  0  0  0  0  0
   -1.1418    0.3765    0.2828 H   0  0  0  0  0  0  0  0  0  0  0  0
   -0.8267   -0.3426    1.8494 H   0  0  0  0  0  0  0  0  0  0  0  0
   -5.4638   -0.3297    1.0740 H   0  0  0  0  0  0  0  0  0  0  0  0
   -5.4432    3.6680   -1.5018 H   0  0  0  0  0  0  0  0  0  0  0  0
   -7.3859    5.1567   -1.1095 H   0  0  0  0  0  0  0  0  0  0  0  0
   -9.0192    2.5949    1.6685 H   0  0  0  0  0  0  0  0  0  0  0  0
   -7.1797    0.9725    1.4310 H   0  0  0  0  0  0  0  0  0  0  0  0
   -2.3694    0.5714   -1.7669 H   0  0  0  0  0  0  0  0  0  0  0  0
   -1.7507   -3.6815    1.1568 H   0  0  0  0  0  0  0  0  0  0  0  0
   -0.7706   -3.4085   -0.2806 H   0  0  0  0  0  0  0  0  0  0  0  0
   -0.0934   -2.6708    2.6036 H   0  0  0  0  0  0  0  0  0  0  0  0
    0.6548   -3.9659    1.6972 H   0  0  0  0  0  0  0  0  0  0  0  0
  1  2  1  0
  2  3  1  0
  3  4  1  0
  4  5  2  0
  4  6  1  0
  6  7  2  0
  7  8  1  0
  8  9  1  0
  9 10  2  0
 10 11  1  0
 11 12  2  0
 12 13  1  0
 13 14  2  0
  2 15  1  0
 15 16  1  0
 16 17  1  0
 17 18  1  0
 18 19  1  0
 19 20  2  0
 19 21  1  0
 21 22  2  0
 22 23  1  0
 23 24  1  0
 24 25  2  0
 25 26  1  0
 26 27  2  0
 27 28  1  0
 28 29  2  0
 23 30  1  0
 30 31  2  0
 18 32  1  0
 32 33  1  0
 14  6  1  0
 33 15  1  0
 14  9  1  0
 31 21  1  0
 29 24  1  0
  1 34  1  0
  1 35  1  0
  1 36  1  0
  2 37  1  1
  3 38  1  0
  8 39  1  0
 10 40  1  0
 11 41  1  0
 12 42  1  0
 13 43  1  0
 15 44  1  0
 16 45  1  0
 16 46  1  0
 17 47  1  0
 17 48  1  0
 22 49  1  0
 25 50  1  0
 26 51  1  0
 28 52  1  0
 29 53  1  0
 31 54  1  0
 32 55  1  0
 32 56  1  0
 33 57  1  0
 33 58  1  0
M  END
$$$$
OCNT-2314551
     RDKit          3D

 53 56  0  0  0  0  0  0  0  0999 V2000
   -9.1915    0.2096    1.5547 C   0  0  0  0  0  0  0  0  0  0  0  0
   -8.2210   -0.4945    0.6064 C   0  0  0  0  0  0  0  0  0  0  0  0
   -8.9509   -1.0822   -0.6005 C   0  0  0  0  0  0  0  0  0  0  0  0
   -7.1411    0.3927    0.1912 N   0  0  0  0  0  0  0  0  0  0  0  0
   -7.4156    1.5455   -0.4701 N   0  0  0  0  0  0  0  0  0  0  0  0
   -6.2081    2.0780   -0.6821 C   0  0  0  0  0  0  0  0  0  0  0  0
   -5.1603    1.2882   -0.1650 C   0  0  0  0  0  0  0  0  0  0  0  0
   -3.7600    1.3495   -0.0972 C   0  0  0  0  0  0  0  0  0  0  0  0
   -3.1031    0.2877    0.5387 C   0  0  0  0  0  0  0  0  0  0  0  0
   -1.6331    0.2206    0.6840 C   0  0  0  0  0  0  0  0  0  0  0  0
   -1.0418   -0.7548    1.1180 O   0  0  0  0  0  0  0  0  0  0  0  0
   -1.0637    1.3893    0.2999 O   0  0  0  0  0  0  0  0  0  0  0  0
    0.3629    1.3631    0.2891 C   0  0  0  0  0  0  0  0  0  0  0  0
    0.9273    0.6130   -0.9203 C   0  0  0  0  0  0  0  0  0  0  0  0
    0.2543    0.3360   -1.9099 O   0  0  0  0  0  0  0  0  0  0  0  0
    2.2633    0.2884   -0.8022 N   0  0  0  0  0  0  0  0  0  0  0  0
    2.9928   -0.2980   -1.9144 C   0  0  0  0  0  0  0  0  0  0  0  0
    4.2793   -0.9781   -1.4485 C   0  0  0  0  0  0  0  0  0  0  0  0
    5.1290    0.0217   -0.8752 O   0  0  0  0  0  0  0  0  0  0  0  0
    6.3570   -0.3846   -0.4276 C   0  0  0  0  0  0  0  0  0  0  0  0
    6.8347   -1.7088   -0.4280 C   0  0  0  0  0  0  0  0  0  0  0  0
    8.1151   -2.0061    0.0571 C   0  0  0  0  0  0  0  0  0  0  0  0
    8.8826   -0.9651    0.5308 C   0  0  0  0  0  0  0  0  0  0  0  0
   10.1411   -1.0678    1.0342 O   0  0  0  0  0  0  0  0  0  0  0  0
   10.4170    0.3110    1.3578 C   0  0  0  0  0  0  0  0  0  0  0  0
    9.3265    1.2026    1.0449 O   0  0  0  0  0  0  0  0  0  0  0  0
    8.4187    0.3274    0.5357 C   0  0  0  0  0  0  0  0  0  0  0  0
    7.1635    0.6483    0.0649 C   0  0  0  0  0  0  0  0  0  0  0  0
   -3.8625   -0.7612    1.0545 C   0  0  0  0  0  0  0  0  0  0  0  0
   -5.2173   -0.8581    1.0166 N   0  0  0  0  0  0  0  0  0  0  0  0
   -5.7989    0.1909    0.3973 C   0  0  0  0  0  0  0  0  0  0  0  0
   -8.6607    0.6261    2.4178 H   0  0  0  0  0  0  0  0  0  0  0  0
   -9.9449   -0.4922    1.9278 H   0  0  0  0  0  0  0  0  0  0  0  0
   -9.7164    1.0330    1.0580 H   0  0  0  0  0  0  0  0  0  0  0  0
   -7.7589   -1.3218    1.1577 H   0  0  0  0  0  0  0  0  0  0  0  0
   -9.4578   -0.3054   -1.1835 H   0  0  0  0  0  0  0  0  0  0  0  0
   -8.2501   -1.5942   -1.2693 H   0  0  0  0  0  0  0  0  0  0  0  0
   -9.7050   -1.8091   -0.2808 H   0  0  0  0  0  0  0  0  0  0  0  0
   -6.1405    3.0229   -1.2057 H   0  0  0  0  0  0  0  0  0  0  0  0
   -3.2197    2.1847   -0.5298 H   0  0  0  0  0  0  0  0  0  0  0  0
    0.7062    2.4009    0.2221 H   0  0  0  0  0  0  0  0  0  0  0  0
    0.7554    0.9449    1.2236 H   0  0  0  0  0  0  0  0  0  0  0  0
    2.8175    0.7502   -0.0899 H   0  0  0  0  0  0  0  0  0  0  0  0
    3.2209    0.5213   -2.6049 H   0  0  0  0  0  0  0  0  0  0  0  0
    2.3480   -1.0173   -2.4297 H   0  0  0  0  0  0  0  0  0  0  0  0
    4.7710   -1.4372   -2.3138 H   0  0  0  0  0  0  0  0  0  0  0  0
    4.0394   -1.7409   -0.6982 H   0  0  0  0  0  0  0  0  0  0  0  0
    6.2322   -2.5326   -0.7981 H   0  0  0  0  0  0  0  0  0  0  0  0
    8.4925   -3.0226    0.0609 H   0  0  0  0  0  0  0  0  0  0  0  0
   10.6321    0.3826    2.4302 H   0  0  0  0  0  0  0  0  0  0  0  0
   11.3037    0.6319    0.7993 H   0  0  0  0  0  0  0  0  0  0  0  0
    6.8153    1.6746    0.0741 H   0  0  0  0  0  0  0  0  0  0  0  0
   -3.3765   -1.6040    1.5453 H   0  0  0  0  0  0  0  0  0  0  0  0
  1  2  1  0
  2  3  1  0
  2  4  1  0
  4  5  1  0
  5  6  2  0
  6  7  1  0
  7  8  1  0
  8  9  2  0
  9 10  1  0
 10 11  2  0
 10 12  1  0
 12 13  1  0
 13 14  1  0
 14 15  2  0
 14 16  1  0
 16 17  1  0
 17 18  1  0
 18 19  1  0
 19 20  1  0
 20 21  1  0
 21 22  2  0
 22 23  1  0
 23 24  1  0
 24 25  1  0
 25 26  1  0
 26 27  1  0
 27 28  1  0
  9 29  1  0
 29 30  2  0
 30 31  1  0
 31  4  1  0
 31  7  2  0
 28 20  2  0
 27 23  2  0
  1 32  1  0
  1 33  1  0
  1 34  1  0
  2 35  1  0
  3 36  1  0
  3 37  1  0
  3 38  1  0
  6 39  1  0
  8 40  1  0
 13 41  1  0
 13 42  1  0
 16 43  1  0
 17 44  1  0
 17 45  1  0
 18 46  1  0
 18 47  1  0
 21 48  1  0
 22 49  1  0
 25 50  1  0
 25 51  1  0
 28 52  1  0
 29 53  1  0
M  END
$$$$
OCNT-2314559
     RDKit          3D

 55 59  0  0  0  0  0  0  0  0999 V2000
    3.8458    2.1122    1.7677 C   0  0  0  0  0  0  0  0  0  0  0  0
    4.3193    1.5490    0.5074 N   0  0  0  0  0  0  0  0  0  0  0  0
    3.7899    2.0999   -0.7496 C   0  0  0  0  0  0  0  0  0  0  0  0
    2.5454    1.3899   -1.3281 C   0  0  0  0  0  0  0  0  0  0  0  0
    1.4071    1.2086   -0.3035 C   0  0  0  0  0  0  0  0  0  0  0  0
    0.2319    0.6644   -0.9911 N   0  0  0  0  0  0  0  0  0  0  0  0
   -0.9403    0.5638   -0.2674 C   0  0  0  0  0  0  0  0  0  0  0  0
   -1.9690   -0.1008   -0.8022 N   0  0  0  0  0  0  0  0  0  0  0  0
   -3.1187   -0.1826   -0.0959 C   0  0  0  0  0  0  0  0  0  0  0  0
   -4.1637   -0.9719   -0.7691 C   0  0  0  0  0  0  0  0  0  0  0  0
   -4.6906   -0.5519   -2.0018 C   0  0  0  0  0  0  0  0  0  0  0  0
   -5.6797   -1.2946   -2.6515 C   0  0  0  0  0  0  0  0  0  0  0  0
   -6.1519   -2.4749   -2.0816 C   0  0  0  0  0  0  0  0  0  0  0  0
   -5.6315   -2.9171   -0.8673 C   0  0  0  0  0  0  0  0  0  0  0  0
   -4.6414   -2.1741   -0.2190 C   0  0  0  0  0  0  0  0  0  0  0  0
   -3.2867    0.4255    1.1536 C   0  0  0  0  0  0  0  0  0  0  0  0
   -4.4729    0.4226    1.9354 C   0  0  0  0  0  0  0  0  0  0  0  0
   -4.5141    1.0623    3.1717 C   0  0  0  0  0  0  0  0  0  0  0  0
   -3.3806    1.7129    3.6374 C   0  0  0  0  0  0  0  0  0  0  0  0
   -2.2200    1.7246    2.8590 C   0  0  0  0  0  0  0  0  0  0  0  0
   -2.1553    1.0959    1.6208 C   0  0  0  0  0  0  0  0  0  0  0  0
   -1.0133    1.1639    0.9291 N   0  0  0  0  0  0  0  0  0  0  0  0
    0.4928   -0.3411   -2.0273 C   0  0  0  0  0  0  0  0  0  0  0  0
    1.9359   -0.8632   -1.9185 C   0  0  0  0  0  0  0  0  0  0  0  0
    2.9283    0.1698   -2.0033 O   0  0  0  0  0  0  0  0  0  0  0  0
    4.8592    0.2685    0.5873 C   0  0  0  0  0  0  0  0  0  0  0  0
    5.4907   -0.3437   -0.4901 C   0  0  0  0  0  0  0  0  0  0  0  0
    6.0289   -1.6236   -0.3645 C   0  0  0  0  0  0  0  0  0  0  0  0
    5.9290   -2.2568    0.8522 C   0  0  0  0  0  0  0  0  0  0  0  0
    5.3350   -1.6737    1.9030 N   0  0  0  0  0  0  0  0  0  0  0  0
    4.8092   -0.4066    1.7617 N   0  0  0  0  0  0  0  0  0  0  0  0
    2.9941    1.5522    2.1687 H   0  0  0  0  0  0  0  0  0  0  0  0
    3.5261    3.1524    1.6386 H   0  0  0  0  0  0  0  0  0  0  0  0
    4.6462    2.1234    2.5169 H   0  0  0  0  0  0  0  0  0  0  0  0
    4.5862    2.1170   -1.5033 H   0  0  0  0  0  0  0  0  0  0  0  0
    3.5306    3.1536   -0.5840 H   0  0  0  0  0  0  0  0  0  0  0  0
    2.1701    2.0392   -2.1316 H   0  0  0  0  0  0  0  0  0  0  0  0
    1.1774    2.1827    0.1452 H   0  0  0  0  0  0  0  0  0  0  0  0
    1.7079    0.5137    0.4893 H   0  0  0  0  0  0  0  0  0  0  0  0
   -4.3215    0.3630   -2.4625 H   0  0  0  0  0  0  0  0  0  0  0  0
   -6.0746   -0.9536   -3.6049 H   0  0  0  0  0  0  0  0  0  0  0  0
   -6.9185   -3.0547   -2.5890 H   0  0  0  0  0  0  0  0  0  0  0  0
   -5.9893   -3.8448   -0.4278 H   0  0  0  0  0  0  0  0  0  0  0  0
   -4.2334   -2.5443    0.7199 H   0  0  0  0  0  0  0  0  0  0  0  0
   -5.3723   -0.0726    1.5755 H   0  0  0  0  0  0  0  0  0  0  0  0
   -5.4256    1.0542    3.7637 H   0  0  0  0  0  0  0  0  0  0  0  0
   -3.3930    2.2169    4.6001 H   0  0  0  0  0  0  0  0  0  0  0  0
   -1.3381    2.2433    3.2295 H   0  0  0  0  0  0  0  0  0  0  0  0
    0.3522    0.1371   -3.0035 H   0  0  0  0  0  0  0  0  0  0  0  0
   -0.1798   -1.2045   -1.9731 H   0  0  0  0  0  0  0  0  0  0  0  0
    2.1373   -1.5766   -2.7241 H   0  0  0  0  0  0  0  0  0  0  0  0
    2.0829   -1.3958   -0.9708 H   0  0  0  0  0  0  0  0  0  0  0  0
    5.5784    0.1598   -1.4451 H   0  0  0  0  0  0  0  0  0  0  0  0
    6.5148   -2.1050   -1.2050 H   0  0  0  0  0  0  0  0  0  0  0  0
    6.3232   -3.2508    1.0226 H   0  0  0  0  0  0  0  0  0  0  0  0
  1  2  1  0
  2  3  1  0
  3  4  1  0
  4  5  1  0
  5  6  1  0
  6  7  1  0
  7  8  2  0
  8  9  1  0
  9 10  1  0
 10 11  2  0
 11 12  1  0
 12 13  2  0
 13 14  1  0
 14 15  2  0
  9 16  2  0
 16 17  1  0
 17 18  2  0
 18 19  1  0
 19 20  2  0
 20 21  1  0
 21 22  2  0
  6 23  1  0
 23 24  1  0
 24 25  1  0
  2 26  1  0
 26 27  2  0
 27 28  1  0
 28 29  2  0
 29 30  1  0
 30 31  2  0
 25  4  1  0
 31 26  1  0
 22  7  1  0
 15 10  1  0
 21 16  1  0
  1 32  1  0
  1 33  1  0
  1 34  1  0
  3 35  1  0
  3 36  1  0
  4 37  1  0
  5 38  1  0
  5 39  1  0
 11 40  1  0
 12 41  1  0
 13 42  1  0
 14 43  1  0
 15 44  1  0
 17 45  1  0
 18 46  1  0
 19 47  1  0
 20 48  1  0
 23 49  1  0
 23 50  1  0
 24 51  1  0
 24 52  1  0
 27 53  1  0
 28 54  1  0
 29 55  1  0
M  END
$$$$
OCNT-2314584
     RDKit          3D

 48 50  0  0  0  0  0  0  0  0999 V2000
   -5.6149    0.6114    0.5990 C   0  0  0  0  0  0  0  0  0  0  0  0
   -4.5178   -0.0611   -0.2195 C   0  0  0  0  0  0  0  0  0  0  0  0
   -3.0808    0.5307   -0.0532 C   0  0  0  0  0  0  0  0  0  0  0  0
   -2.6445    0.5882    1.4319 C   0  0  0  0  0  0  0  0  0  0  0  0
   -2.6434   -0.7550    2.1526 C   0  0  0  0  0  0  0  0  0  0  0  0
   -3.0004    1.9347   -0.6827 C   0  0  0  0  0  0  0  0  0  0  0  0
   -2.7648    1.6944   -2.0739 N   0  0  0  0  0  0  0  0  0  0  0  0
   -2.1715    0.4681   -2.3014 C   0  0  0  0  0  0  0  0  0  0  0  0
   -1.6727    0.1380   -3.3639 O   0  0  0  0  0  0  0  0  0  0  0  0
   -2.1092   -0.2870   -0.9676 C   0  0  0  0  0  0  0  0  0  0  0  0
   -0.7120   -0.2707   -0.5459 N   0  0  0  0  0  0  0  0  0  0  0  0
    0.0809   -1.3876   -0.7132 C   0  0  0  0  0  0  0  0  0  0  0  0
   -0.3885   -2.4830   -1.0020 O   0  0  0  0  0  0  0  0  0  0  0  0
    1.4937   -1.1594   -0.5131 C   0  0  0  0  0  0  0  0  0  0  0  0
    2.1763   -0.1026    0.0671 C   0  0  0  0  0  0  0  0  0  0  0  0
    3.5593   -0.4231    0.0039 C   0  0  0  0  0  0  0  0  0  0  0  0
    4.7041    0.3589    0.4833 C   0  0  0  0  0  0  0  0  0  0  0  0
    4.5301    1.5175    1.2447 C   0  0  0  0  0  0  0  0  0  0  0  0
    5.6544    2.2117    1.6653 C   0  0  0  0  0  0  0  0  0  0  0  0
    6.9192    1.8385    1.3840 N   0  0  0  0  0  0  0  0  0  0  0  0
    7.0683    0.7157    0.6509 C   0  0  0  0  0  0  0  0  0  0  0  0
    6.0096   -0.0455    0.1857 C   0  0  0  0  0  0  0  0  0  0  0  0
    3.7254   -1.6136   -0.5885 N   0  0  0  0  0  0  0  0  0  0  0  0
    2.4819   -2.0396   -0.8778 N   0  0  0  0  0  0  0  0  0  0  0  0
    2.3193   -3.3163   -1.5381 C   0  0  0  0  0  0  0  0  0  0  0  0
   -5.7035    1.6761    0.3690 H   0  0  0  0  0  0  0  0  0  0  0  0
   -6.5801    0.1451    0.3736 H   0  0  0  0  0  0  0  0  0  0  0  0
   -5.4455    0.5012    1.6735 H   0  0  0  0  0  0  0  0  0  0  0  0
   -4.5060   -1.1269    0.0416 H   0  0  0  0  0  0  0  0  0  0  0  0
   -4.8157   -0.0206   -1.2753 H   0  0  0  0  0  0  0  0  0  0  0  0
   -1.6381    1.0188    1.5104 H   0  0  0  0  0  0  0  0  0  0  0  0
   -3.2929    1.2808    1.9823 H   0  0  0  0  0  0  0  0  0  0  0  0
   -2.2555   -0.6298    3.1690 H   0  0  0  0  0  0  0  0  0  0  0  0
   -3.6522   -1.1685    2.2373 H   0  0  0  0  0  0  0  0  0  0  0  0
   -2.0130   -1.4894    1.6443 H   0  0  0  0  0  0  0  0  0  0  0  0
   -3.9022    2.5392   -0.5682 H   0  0  0  0  0  0  0  0  0  0  0  0
   -2.1460    2.5075   -0.3047 H   0  0  0  0  0  0  0  0  0  0  0  0
   -2.7496    2.4003   -2.8013 H   0  0  0  0  0  0  0  0  0  0  0  0
   -2.4638   -1.3116   -1.1180 H   0  0  0  0  0  0  0  0  0  0  0  0
   -0.2380    0.6204   -0.5816 H   0  0  0  0  0  0  0  0  0  0  0  0
    1.7349    0.7837    0.4973 H   0  0  0  0  0  0  0  0  0  0  0  0
    3.5506    1.8861    1.5225 H   0  0  0  0  0  0  0  0  0  0  0  0
    5.5629    3.1158    2.2607 H   0  0  0  0  0  0  0  0  0  0  0  0
    8.0949    0.4317    0.4383 H   0  0  0  0  0  0  0  0  0  0  0  0
    6.2031   -0.9390   -0.3999 H   0  0  0  0  0  0  0  0  0  0  0  0
    1.8096   -3.9970   -0.8523 H   0  0  0  0  0  0  0  0  0  0  0  0
    1.7411   -3.1666   -2.4530 H   0  0  0  0  0  0  0  0  0  0  0  0
    3.3028   -3.7206   -1.7933 H   0  0  0  0  0  0  0  0  0  0  0  0
  1  2  1  0
  2  3  1  0
  3  4  1  0
  4  5  1  0
  3  6  1  0
  6  7  1  0
  7  8  1  0
  8  9  2  0
  8 10  1  0
 10 11  1  0
 11 12  1  0
 12 13  2  0
 12 14  1  0
 14 15  2  0
 15 16  1  0
 16 17  1  0
 17 18  2  0
 18 19  1  0
 19 20  2  0
 20 21  1  0
 21 22  2  0
 16 23  2  0
 23 24  1  0
 24 25  1  0
 10  3  1  0
 24 14  1  0
 22 17  1  0
  1 26  1  0
  1 27  1  0
  1 28  1  0
  2 29  1  0
  2 30  1  0
  4 31  1  0
  4 32  1  0
  5 33  1  0
  5 34  1  0
  5 35  1  0
  6 36  1  0
  6 37  1  0
  7 38  1  0
 10 39  1  0
 11 40  1  0
 15 41  1  0
 18 42  1  0
 19 43  1  0
 21 44  1  0
 22 45  1  0
 25 46  1  0
 25 47  1  0
 25 48  1  0
M  END
$$$$
OCNT-2314588
     RDKit          3D

 46 49  0  0  0  0  0  0  0  0999 V2000
   -5.6733    1.4221   -2.7174 F   0  0  0  0  0  0  0  0  0  0  0  0
   -4.8550    0.9947   -1.7469 C   0  0  0  0  0  0  0  0  0  0  0  0
   -5.2031   -0.1234   -1.0006 C   0  0  0  0  0  0  0  0  0  0  0  0
   -4.3508   -0.5689    0.0113 C   0  0  0  0  0  0  0  0  0  0  0  0
   -3.1465    0.1019    0.2777 C   0  0  0  0  0  0  0  0  0  0  0  0
   -2.2213   -0.3839    1.3736 C   0  0  0  0  0  0  0  0  0  0  0  0
   -1.3063   -1.5126    0.9185 C   0  0  0  0  0  0  0  0  0  0  0  0
   -0.2276   -1.1176   -0.0827 C   0  0  0  0  0  0  0  0  0  0  0  0
    1.1265   -1.1913    0.4651 N   0  0  0  0  0  0  0  0  0  0  0  0
    1.4515   -0.1590    1.4453 C   0  0  0  0  0  0  0  0  0  0  0  0
    1.5762    1.1935    0.8239 C   0  0  0  0  0  0  0  0  0  0  0  0
    0.8202    2.3070    1.1390 C   0  0  0  0  0  0  0  0  0  0  0  0
    1.2530    3.3112    0.3324 N   0  0  0  0  0  0  0  0  0  0  0  0
    2.2325    2.9417   -0.4985 N   0  0  0  0  0  0  0  0  0  0  0  0
    2.4762    1.6568   -0.1930 C   0  0  0  0  0  0  0  0  0  0  0  0
    3.5230    0.9267   -0.8979 C   0  0  0  0  0  0  0  0  0  0  0  0
    4.4338    0.1018   -0.2348 C   0  0  0  0  0  0  0  0  0  0  0  0
    5.4015   -0.5875   -0.9645 C   0  0  0  0  0  0  0  0  0  0  0  0
    5.4302   -0.4254   -2.3402 C   0  0  0  0  0  0  0  0  0  0  0  0
    4.5763    0.3696   -3.0179 N   0  0  0  0  0  0  0  0  0  0  0  0
    3.6514    1.0351   -2.2798 C   0  0  0  0  0  0  0  0  0  0  0  0
   -0.9923   -2.6051    1.9399 C   0  0  0  0  0  0  0  0  0  0  0  0
   -1.9003   -2.9129    0.7958 C   0  0  0  0  0  0  0  0  0  0  0  0
   -2.8196    1.2341   -0.4864 C   0  0  0  0  0  0  0  0  0  0  0  0
   -3.6717    1.6779   -1.4990 C   0  0  0  0  0  0  0  0  0  0  0  0
   -6.1338   -0.6407   -1.2097 H   0  0  0  0  0  0  0  0  0  0  0  0
   -4.6353   -1.4414    0.5944 H   0  0  0  0  0  0  0  0  0  0  0  0
   -1.6195    0.4519    1.7483 H   0  0  0  0  0  0  0  0  0  0  0  0
   -2.8349   -0.7016    2.2273 H   0  0  0  0  0  0  0  0  0  0  0  0
   -0.2743   -1.8146   -0.9287 H   0  0  0  0  0  0  0  0  0  0  0  0
   -0.4101   -0.1330   -0.5211 H   0  0  0  0  0  0  0  0  0  0  0  0
    1.7926   -1.1500   -0.3043 H   0  0  0  0  0  0  0  0  0  0  0  0
    0.7170   -0.1469    2.2585 H   0  0  0  0  0  0  0  0  0  0  0  0
    2.4020   -0.4210    1.9223 H   0  0  0  0  0  0  0  0  0  0  0  0
    0.0254    2.4625    1.8546 H   0  0  0  0  0  0  0  0  0  0  0  0
    0.9246    4.2708    0.2901 H   0  0  0  0  0  0  0  0  0  0  0  0
    4.4140    0.0010    0.8459 H   0  0  0  0  0  0  0  0  0  0  0  0
    6.1201   -1.2317   -0.4700 H   0  0  0  0  0  0  0  0  0  0  0  0
    6.1656   -0.9420   -2.9505 H   0  0  0  0  0  0  0  0  0  0  0  0
    2.9872    1.6761   -2.8549 H   0  0  0  0  0  0  0  0  0  0  0  0
   -0.0122   -3.0706    1.9356 H   0  0  0  0  0  0  0  0  0  0  0  0
   -1.4261   -2.5336    2.9309 H   0  0  0  0  0  0  0  0  0  0  0  0
   -2.9470   -3.0737    1.0235 H   0  0  0  0  0  0  0  0  0  0  0  0
   -1.5249   -3.5726    0.0204 H   0  0  0  0  0  0  0  0  0  0  0  0
   -1.8952    1.7758   -0.3011 H   0  0  0  0  0  0  0  0  0  0  0  0
   -3.4196    2.5487   -2.0953 H   0  0  0  0  0  0  0  0  0  0  0  0
  1  2  1  0
  2  3  1  0
  3  4  2  0
  4  5  1  0
  5  6  1  0
  6  7  1  0
  7  8  1  0
  8  9  1  0
  9 10  1  0
 10 11  1  0
 11 12  2  0
 12 13  1  0
 13 14  1  0
 14 15  2  0
 15 16  1  0
 16 17  1  0
 17 18  2  0
 18 19  1  0
 19 20  2  0
 20 21  1  0
  7 22  1  0
 22 23  1  0
  5 24  2  0
 24 25  1  0
 25  2  2  0
 23  7  1  0
 15 11  1  0
 21 16  2  0
  3 26  1  0
  4 27  1  0
  6 28  1  0
  6 29  1  0
  8 30  1  0
  8 31  1  0
  9 32  1  0
 10 33  1  0
 10 34  1  0
 12 35  1  0
 13 36  1  0
 17 37  1  0
 18 38  1  0
 19 39  1  0
 21 40  1  0
 22 41  1  0
 22 42  1  0
 23 43  1  0
 23 44  1  0
 24 45  1  0
 25 46  1  0
M  END
$$$$
OCNT-2314592
     RDKit          3D

 46 48  0  0  0  0  0  0  0  0999 V2000
    6.9577    1.0024    1.5630 C   0  0  0  0  0  0  0  0  0  0  0  0
    5.9836    0.6499    0.5614 N   0  0  0  0  0  0  0  0  0  0  0  0
    4.6378    0.5887    0.8681 C   0  0  0  0  0  0  0  0  0  0  0  0
    4.1807    0.9018    1.9631 O   0  0  0  0  0  0  0  0  0  0  0  0
    3.8005    0.0753   -0.2883 C   0  0  0  0  0  0  0  0  0  0  0  0
    2.2880    0.1288   -0.0191 C   0  0  0  0  0  0  0  0  0  0  0  0
    1.7680    1.5731   -0.0243 C   0  0  0  0  0  0  0  0  0  0  0  0
    1.6197   -0.6256   -1.1022 N   0  0  0  0  0  0  0  0  0  0  0  0
    0.9203   -1.8233   -0.6102 C   0  0  0  0  0  0  0  0  0  0  0  0
   -0.3466   -1.4649    0.0929 C   0  0  0  0  0  0  0  0  0  0  0  0
   -1.5091   -0.8676   -0.3666 C   0  0  0  0  0  0  0  0  0  0  0  0
   -1.7952   -0.4762   -1.8426 C   0  0  0  0  0  0  0  0  0  0  0  0
   -2.9937   -1.0685   -2.5420 C   0  0  0  0  0  0  0  0  0  0  0  0
   -1.6183   -1.5018   -2.9347 C   0  0  0  0  0  0  0  0  0  0  0  0
   -2.2964   -0.7078    0.7662 N   0  0  0  0  0  0  0  0  0  0  0  0
   -3.5297   -0.0255    0.9659 C   0  0  0  0  0  0  0  0  0  0  0  0
   -4.2221   -0.2062    2.1755 C   0  0  0  0  0  0  0  0  0  0  0  0
   -5.4340    0.4490    2.4058 C   0  0  0  0  0  0  0  0  0  0  0  0
   -5.9635    1.2964    1.4383 C   0  0  0  0  0  0  0  0  0  0  0  0
   -5.2766    1.4970    0.2444 C   0  0  0  0  0  0  0  0  0  0  0  0
   -4.0630    0.8435    0.0085 C   0  0  0  0  0  0  0  0  0  0  0  0
   -1.6886   -1.3388    1.8067 N   0  0  0  0  0  0  0  0  0  0  0  0
   -0.4926   -1.7545    1.4200 N   0  0  0  0  0  0  0  0  0  0  0  0
    7.8829    1.3022    1.0610 H   0  0  0  0  0  0  0  0  0  0  0  0
    6.5869    1.8223    2.1828 H   0  0  0  0  0  0  0  0  0  0  0  0
    7.1432    0.1250    2.1910 H   0  0  0  0  0  0  0  0  0  0  0  0
    6.3068    0.1887   -0.2795 H   0  0  0  0  0  0  0  0  0  0  0  0
    4.1094   -0.9649   -0.4583 H   0  0  0  0  0  0  0  0  0  0  0  0
    4.0529    0.6511   -1.1896 H   0  0  0  0  0  0  0  0  0  0  0  0
    2.0749   -0.3051    0.9676 H   0  0  0  0  0  0  0  0  0  0  0  0
    0.6829    1.5986    0.1187 H   0  0  0  0  0  0  0  0  0  0  0  0
    1.9962    2.0803   -0.9693 H   0  0  0  0  0  0  0  0  0  0  0  0
    2.2142    2.1580    0.7844 H   0  0  0  0  0  0  0  0  0  0  0  0
    0.9463   -0.0354   -1.5872 H   0  0  0  0  0  0  0  0  0  0  0  0
    0.6907   -2.4643   -1.4681 H   0  0  0  0  0  0  0  0  0  0  0  0
    1.5778   -2.4153    0.0388 H   0  0  0  0  0  0  0  0  0  0  0  0
   -1.5226    0.5426   -2.0930 H   0  0  0  0  0  0  0  0  0  0  0  0
   -3.6131   -1.7818   -2.0122 H   0  0  0  0  0  0  0  0  0  0  0  0
   -3.5443   -0.4411   -3.2325 H   0  0  0  0  0  0  0  0  0  0  0  0
   -1.3348   -2.5156   -2.6825 H   0  0  0  0  0  0  0  0  0  0  0  0
   -1.2324   -1.1634   -3.8891 H   0  0  0  0  0  0  0  0  0  0  0  0
   -3.8361   -0.8647    2.9525 H   0  0  0  0  0  0  0  0  0  0  0  0
   -5.9625    0.2959    3.3437 H   0  0  0  0  0  0  0  0  0  0  0  0
   -6.9053    1.8076    1.6176 H   0  0  0  0  0  0  0  0  0  0  0  0
   -5.6855    2.1679   -0.5049 H   0  0  0  0  0  0  0  0  0  0  0  0
   -3.5553    1.0659   -0.9195 H   0  0  0  0  0  0  0  0  0  0  0  0
  1  2  1  0
  2  3  1  0
  3  4  2  0
  3  5  1  0
  5  6  1  0
  6  7  1  0
  6  8  1  0
  8  9  1  0
  9 10  1  0
 10 11  2  0
 11 12  1  0
 12 13  1  0
 13 14  1  0
 11 15  1  0
 15 16  1  0
 16 17  2  0
 17 18  1  0
 18 19  2  0
 19 20  1  0
 20 21  2  0
 15 22  1  0
 22 23  2  0
 23 10  1  0
 14 12  1  0
 21 16  1  0
  1 24  1  0
  1 25  1  0
  1 26  1  0
  2 27  1  0
  5 28  1  0
  5 29  1  0
  6 30  1  0
  7 31  1  0
  7 32  1  0
  7 33  1  0
  8 34  1  0
  9 35  1  0
  9 36  1  0
 12 37  1  0
 13 38  1  0
 13 39  1  0
 14 40  1  0
 14 41  1  0
 17 42  1  0
 18 43  1  0
 19 44  1  0
 20 45  1  0
 21 46  1  0
M  END
$$$$
OCNT-2314594
     RDKit          3D

 57 58  0  0  0  0  0  0  0  0999 V2000
    7.7081    1.5343    1.0076 C   0  0  0  0  0  0  0  0  0  0  0  0
    6.7643    1.3720   -0.0405 O   0  0  0  0  0  0  0  0  0  0  0  0
    5.4336    1.4941    0.2746 C   0  0  0  0  0  0  0  0  0  0  0  0
    4.9446    1.7308    1.5632 C   0  0  0  0  0  0  0  0  0  0  0  0
    3.5701    1.8352    1.7919 C   0  0  0  0  0  0  0  0  0  0  0  0
    2.6626    1.7087    0.7358 C   0  0  0  0  0  0  0  0  0  0  0  0
    1.1772    1.8214    0.9811 C   0  0  0  0  0  0  0  0  0  0  0  0
    0.5575    0.6134    1.7030 C   0  0  0  0  0  0  0  0  0  0  0  0
    0.4075   -0.5857    0.8684 N   0  0  0  0  0  0  0  0  0  0  0  0
    1.5554   -1.4763    0.7690 C   0  0  0  0  0  0  0  0  0  0  0  0
   -0.6040   -0.7516   -0.0891 C   0  0  0  0  0  0  0  0  0  0  0  0
   -0.4977   -1.5978   -0.9799 O   0  0  0  0  0  0  0  0  0  0  0  0
   -1.8418    0.1599    0.0532 C   0  0  0  0  0  0  0  0  0  0  0  0
   -2.8898   -0.1676   -0.9247 N   0  0  0  0  0  0  0  0  0  0  0  0
   -4.0043    0.7869   -0.8344 C   0  0  0  0  0  0  0  0  0  0  0  0
   -4.9384   -0.3075   -0.2625 C   0  0  0  0  0  0  0  0  0  0  0  0
   -6.2498   -0.4549   -1.0418 C   0  0  0  0  0  0  0  0  0  0  0  0
   -5.2588   -0.0850    1.2224 C   0  0  0  0  0  0  0  0  0  0  0  0
   -3.7721   -1.3251   -0.6140 C   0  0  0  0  0  0  0  0  0  0  0  0
   -3.3549   -2.2776    0.5112 C   0  0  0  0  0  0  0  0  0  0  0  0
   -3.9535   -2.1429   -1.9077 C   0  0  0  0  0  0  0  0  0  0  0  0
    3.1529    1.4775   -0.5583 C   0  0  0  0  0  0  0  0  0  0  0  0
    4.5281    1.3582   -0.7958 C   0  0  0  0  0  0  0  0  0  0  0  0
    5.0814    1.1218   -2.0305 O   0  0  0  0  0  0  0  0  0  0  0  0
    4.1983    0.7774   -3.0890 C   0  0  0  0  0  0  0  0  0  0  0  0
    7.6447    2.5356    1.4462 H   0  0  0  0  0  0  0  0  0  0  0  0
    7.5874    0.7587    1.7710 H   0  0  0  0  0  0  0  0  0  0  0  0
    8.7082    1.4233    0.5776 H   0  0  0  0  0  0  0  0  0  0  0  0
    5.6087    1.8386    2.4140 H   0  0  0  0  0  0  0  0  0  0  0  0
    3.2171    2.0225    2.8037 H   0  0  0  0  0  0  0  0  0  0  0  0
    1.0096    2.7189    1.5909 H   0  0  0  0  0  0  0  0  0  0  0  0
    0.6590    2.0061    0.0329 H   0  0  0  0  0  0  0  0  0  0  0  0
    1.1313    0.3433    2.5973 H   0  0  0  0  0  0  0  0  0  0  0  0
   -0.4340    0.9073    2.0601 H   0  0  0  0  0  0  0  0  0  0  0  0
    2.0878   -1.5132    1.7232 H   0  0  0  0  0  0  0  0  0  0  0  0
    1.2256   -2.4896    0.5186 H   0  0  0  0  0  0  0  0  0  0  0  0
    2.2209   -1.1269   -0.0230 H   0  0  0  0  0  0  0  0  0  0  0  0
   -2.2059    0.1369    1.0834 H   0  0  0  0  0  0  0  0  0  0  0  0
   -1.4965    1.1784   -0.1588 H   0  0  0  0  0  0  0  0  0  0  0  0
   -3.8497    1.6607   -0.1892 H   0  0  0  0  0  0  0  0  0  0  0  0
   -4.3034    1.1713   -1.8177 H   0  0  0  0  0  0  0  0  0  0  0  0
   -6.9215    0.3868   -0.8386 H   0  0  0  0  0  0  0  0  0  0  0  0
   -6.7680   -1.3763   -0.7552 H   0  0  0  0  0  0  0  0  0  0  0  0
   -6.0924   -0.4783   -2.1243 H   0  0  0  0  0  0  0  0  0  0  0  0
   -5.9345    0.7683    1.3506 H   0  0  0  0  0  0  0  0  0  0  0  0
   -4.3654    0.1263    1.8167 H   0  0  0  0  0  0  0  0  0  0  0  0
   -5.7487   -0.9664    1.6500 H   0  0  0  0  0  0  0  0  0  0  0  0
   -3.1321   -1.7760    1.4561 H   0  0  0  0  0  0  0  0  0  0  0  0
   -4.1646   -2.9878    0.7176 H   0  0  0  0  0  0  0  0  0  0  0  0
   -2.4770   -2.8708    0.2349 H   0  0  0  0  0  0  0  0  0  0  0  0
   -3.0407   -2.7001   -2.1493 H   0  0  0  0  0  0  0  0  0  0  0  0
   -4.7660   -2.8694   -1.7966 H   0  0  0  0  0  0  0  0  0  0  0  0
   -4.1818   -1.5107   -2.7731 H   0  0  0  0  0  0  0  0  0  0  0  0
    2.4382    1.3838   -1.3706 H   0  0  0  0  0  0  0  0  0  0  0  0
    4.8067    0.5251   -3.9629 H   0  0  0  0  0  0  0  0  0  0  0  0
    3.5634    1.6267   -3.3614 H   0  0  0  0  0  0  0  0  0  0  0  0
    3.5975   -0.1030   -2.8372 H   0  0  0  0  0  0  0  0  0  0  0  0
  1  2  1  0
  2  3  1  0
  3  4  1  0
  4  5  2  0
  5  6  1  0
  6  7  1  0
  7  8  1  0
  8  9  1  0
  9 10  1  0
  9 11  1  0
 11 12  2  0
 11 13  1  0
 13 14  1  0
 14 15  1  0
 15 16  1  0
 16 17  1  0
 16 18  1  0
 16 19  1  0
 19 20  1  0
 19 21  1  0
  6 22  2  0
 22 23  1  0
 23 24  1  0
 24 25  1  0
 23  3  2  0
 19 14  1  0
  1 26  1  0
  1 27  1  0
  1 28  1  0
  4 29  1  0
  5 30  1  0
  7 31  1  0
  7 32  1  0
  8 33  1  0
  8 34  1  0
 10 35  1  0
 10 36  1  0
 10 37  1  0
 13 38  1  0
 13 39  1  0
 15 40  1  0
 15 41  1  0
 17 42  1  0
 17 43  1  0
 17 44  1  0
 18 45  1  0
 18 46  1  0
 18 47  1  0
 20 48  1  0
 20 49  1  0
 20 50  1  0
 21 51  1  0
 21 52  1  0
 21 53  1  0
 22 54  1  0
 25 55  1  0
 25 56  1  0
 25 57  1  0
M  END
$$$$
OCNT-2314601
     RDKit          3D

 48 49  0  0  0  0  0  0  0  0999 V2000
    7.1790   -0.9050   -1.5331 C   0  0  0  0  0  0  0  0  0  0  0  0
    6.5692   -0.2269   -0.4388 O   0  0  0  0  0  0  0  0  0  0  0  0
    5.2059   -0.2238   -0.3546 C   0  0  0  0  0  0  0  0  0  0  0  0
    4.3864   -0.9165   -1.2558 C   0  0  0  0  0  0  0  0  0  0  0  0
    2.9903   -0.8848   -1.1468 C   0  0  0  0  0  0  0  0  0  0  0  0
    2.3760   -0.1602   -0.1331 C   0  0  0  0  0  0  0  0  0  0  0  0
    0.9799   -0.0735    0.0448 N   0  0  0  0  0  0  0  0  0  0  0  0
   -0.0072   -0.6769   -0.7202 C   0  0  0  0  0  0  0  0  0  0  0  0
    0.1688   -1.4017   -1.6926 O   0  0  0  0  0  0  0  0  0  0  0  0
   -1.3993   -0.3327   -0.2036 C   0  0  0  0  0  0  0  0  0  0  0  0
   -2.5019   -0.9983   -1.0318 C   0  0  0  0  0  0  0  0  0  0  0  0
   -3.9480   -0.7512   -0.5373 C   0  0  0  0  0  0  0  0  0  0  0  0
   -4.1516   -1.3473    0.8562 C   0  0  0  0  0  0  0  0  0  0  0  0
   -4.3188    0.7517   -0.6309 C   0  0  0  0  0  0  0  0  0  0  0  0
   -5.7083    1.1763   -0.4292 N   0  0  0  0  0  0  0  0  0  0  0  0
   -6.6754    0.4325   -1.2263 C   0  0  0  0  0  0  0  0  0  0  0  0
   -6.1190    1.2859    0.9624 C   0  0  0  0  0  0  0  0  0  0  0  0
    3.1841    0.5283    0.7771 C   0  0  0  0  0  0  0  0  0  0  0  0
    4.5960    0.5037    0.6823 C   0  0  0  0  0  0  0  0  0  0  0  0
    5.3321    1.2285    1.6607 N   0  0  0  0  0  0  0  0  0  0  0  0
    6.6820    1.3854    1.8616 C   0  0  0  0  0  0  0  0  0  0  0  0
    6.8887    2.1504    2.9107 N   0  0  0  0  0  0  0  0  0  0  0  0
    5.6502    2.4846    3.3780 N   0  0  0  0  0  0  0  0  0  0  0  0
    4.7004    1.9356    2.6370 N   0  0  0  0  0  0  0  0  0  0  0  0
    8.2607   -0.7580   -1.4547 H   0  0  0  0  0  0  0  0  0  0  0  0
    6.9852   -1.9808   -1.4844 H   0  0  0  0  0  0  0  0  0  0  0  0
    6.8563   -0.4834   -2.4904 H   0  0  0  0  0  0  0  0  0  0  0  0
    4.7971   -1.5063   -2.0710 H   0  0  0  0  0  0  0  0  0  0  0  0
    2.4153   -1.4449   -1.8786 H   0  0  0  0  0  0  0  0  0  0  0  0
    0.6647    0.4935    0.8234 H   0  0  0  0  0  0  0  0  0  0  0  0
   -1.4589   -0.6591    0.8407 H   0  0  0  0  0  0  0  0  0  0  0  0
   -1.5047    0.7566   -0.2351 H   0  0  0  0  0  0  0  0  0  0  0  0
   -2.3246   -2.0820   -1.0554 H   0  0  0  0  0  0  0  0  0  0  0  0
   -2.4219   -0.6624   -2.0745 H   0  0  0  0  0  0  0  0  0  0  0  0
   -4.5911   -1.3110   -1.2289 H   0  0  0  0  0  0  0  0  0  0  0  0
   -3.7508   -0.6947    1.6374 H   0  0  0  0  0  0  0  0  0  0  0  0
   -3.6617   -2.3224    0.9440 H   0  0  0  0  0  0  0  0  0  0  0  0
   -5.2131   -1.5149    1.0577 H   0  0  0  0  0  0  0  0  0  0  0  0
   -3.6796    1.3321    0.0448 H   0  0  0  0  0  0  0  0  0  0  0  0
   -4.0381    1.0937   -1.6369 H   0  0  0  0  0  0  0  0  0  0  0  0
   -6.7968   -0.6010   -0.8839 H   0  0  0  0  0  0  0  0  0  0  0  0
   -7.6572    0.9176   -1.1848 H   0  0  0  0  0  0  0  0  0  0  0  0
   -6.3797    0.4184   -2.2816 H   0  0  0  0  0  0  0  0  0  0  0  0
   -6.2665    0.3175    1.4467 H   0  0  0  0  0  0  0  0  0  0  0  0
   -7.0661    1.8341    1.0313 H   0  0  0  0  0  0  0  0  0  0  0  0
   -5.3892    1.8591    1.5445 H   0  0  0  0  0  0  0  0  0  0  0  0
    2.7044    1.0893    1.5763 H   0  0  0  0  0  0  0  0  0  0  0  0
    7.4567    0.9452    1.2572 H   0  0  0  0  0  0  0  0  0  0  0  0
  1  2  1  0
  2  3  1  0
  3  4  1  0
  4  5  2  0
  5  6  1  0
  6  7  1  0
  7  8  1  0
  8  9  2  0
  8 10  1  0
 10 11  1  0
 11 12  1  0
 12 13  1  0
 12 14  1  0
 14 15  1  0
 15 16  1  0
 15 17  1  0
  6 18  2  0
 18 19  1  0
 19 20  1  0
 20 21  1  0
 21 22  2  0
 22 23  1  0
 23 24  2  0
 19  3  2  0
 24 20  1  0
  1 25  1  0
  1 26  1  0
  1 27  1  0
  4 28  1  0
  5 29  1  0
  7 30  1  0
 10 31  1  0
 10 32  1  0
 11 33  1  0
 11 34  1  0
 12 35  1  0
 13 36  1  0
 13 37  1  0
 13 38  1  0
 14 39  1  0
 14 40  1  0
 16 41  1  0
 16 42  1  0
 16 43  1  0
 17 44  1  0
 17 45  1  0
 17 46  1  0
 18 47  1  0
 21 48  1  0
M  END
$$$$
OCNT-2314602
     RDKit          3D

 44 47  0  0  0  0  0  0  0  0999 V2000
    2.3241    1.7929    1.0100 C   0  0  0  0  0  0  0  0  0  0  0  0
    2.0000    1.2781   -0.3400 C   0  0  0  0  0  0  0  0  0  0  0  0
    0.8365    0.7265   -0.8542 C   0  0  0  0  0  0  0  0  0  0  0  0
   -0.4428    0.4962   -0.1810 C   0  0  0  0  0  0  0  0  0  0  0  0
   -0.6117    0.7861    0.9982 O   0  0  0  0  0  0  0  0  0  0  0  0
   -1.3758   -0.0666   -1.0322 N   0  0  0  0  0  0  0  0  0  0  0  0
   -2.7074   -0.4307   -0.7547 C   0  0  0  0  0  0  0  0  0  0  0  0
   -3.4417   -0.9836   -1.8091 C   0  0  0  0  0  0  0  0  0  0  0  0
   -4.7749   -1.3821   -1.6398 C   0  0  0  0  0  0  0  0  0  0  0  0
   -5.3883   -1.2212   -0.3843 C   0  0  0  0  0  0  0  0  0  0  0  0
   -6.6840   -1.5100    0.1235 C   0  0  0  0  0  0  0  0  0  0  0  0
   -6.7091   -1.1353    1.4474 C   0  0  0  0  0  0  0  0  0  0  0  0
   -5.4769   -0.6258    1.7622 N   0  0  0  0  0  0  0  0  0  0  0  0
   -5.1007   -0.1177    3.0628 C   0  0  0  0  0  0  0  0  0  0  0  0
   -4.6463   -0.6686    0.6607 C   0  0  0  0  0  0  0  0  0  0  0  0
   -3.3067   -0.2664    0.4990 C   0  0  0  0  0  0  0  0  0  0  0  0
    1.0444    0.3924   -2.1738 N   0  0  0  0  0  0  0  0  0  0  0  0
    2.2892    0.7068   -2.4929 N   0  0  0  0  0  0  0  0  0  0  0  0
    2.8764    1.2233   -1.3949 N   0  0  0  0  0  0  0  0  0  0  0  0
    4.2625    1.6582   -1.4687 C   0  0  0  0  0  0  0  0  0  0  0  0
    5.2010    0.6938   -0.7880 C   0  0  0  0  0  0  0  0  0  0  0  0
    6.0302    1.1199    0.2548 C   0  0  0  0  0  0  0  0  0  0  0  0
    6.8961    0.2045    0.8352 C   0  0  0  0  0  0  0  0  0  0  0  0
    6.9932   -1.0847    0.4505 N   0  0  0  0  0  0  0  0  0  0  0  0
    6.1886   -1.4799   -0.5576 C   0  0  0  0  0  0  0  0  0  0  0  0
    5.2936   -0.6404   -1.2028 C   0  0  0  0  0  0  0  0  0  0  0  0
    1.4796    2.3528    1.4255 H   0  0  0  0  0  0  0  0  0  0  0  0
    3.1823    2.4720    1.0025 H   0  0  0  0  0  0  0  0  0  0  0  0
    2.5517    0.9628    1.6870 H   0  0  0  0  0  0  0  0  0  0  0  0
   -1.0419   -0.2336   -1.9770 H   0  0  0  0  0  0  0  0  0  0  0  0
   -2.9903   -1.1162   -2.7889 H   0  0  0  0  0  0  0  0  0  0  0  0
   -5.3274   -1.8102   -2.4715 H   0  0  0  0  0  0  0  0  0  0  0  0
   -7.5088   -1.9484   -0.4227 H   0  0  0  0  0  0  0  0  0  0  0  0
   -7.5020   -1.1901    2.1817 H   0  0  0  0  0  0  0  0  0  0  0  0
   -4.8427    0.9391    2.9590 H   0  0  0  0  0  0  0  0  0  0  0  0
   -4.2446   -0.6925    3.4252 H   0  0  0  0  0  0  0  0  0  0  0  0
   -5.9386   -0.2281    3.7553 H   0  0  0  0  0  0  0  0  0  0  0  0
   -2.7731    0.1577    1.3405 H   0  0  0  0  0  0  0  0  0  0  0  0
    4.3112    2.6583   -1.0243 H   0  0  0  0  0  0  0  0  0  0  0  0
    4.5377    1.7589   -2.5254 H   0  0  0  0  0  0  0  0  0  0  0  0
    6.0140    2.1432    0.6162 H   0  0  0  0  0  0  0  0  0  0  0  0
    7.5573    0.4973    1.6452 H   0  0  0  0  0  0  0  0  0  0  0  0
    6.2859   -2.5227   -0.8477 H   0  0  0  0  0  0  0  0  0  0  0  0
    4.6802   -1.0287   -2.0109 H   0  0  0  0  0  0  0  0  0  0  0  0
  1  2  1  0
  2  3  2  0
  3  4  1  0
  4  5  2  0
  4  6  1  0
  6  7  1  0
  7  8  2  0
  8  9  1  0
  9 10  2  0
 10 11  1  0
 11 12  2  0
 12 13  1  0
 13 14  1  0
 13 15  1  0
 15 16  2  0
  3 17  1  0
 17 18  2  0
 18 19  1  0
 19 20  1  0
 20 21  1  0
 21 22  2  0
 22 23  1  0
 23 24  2  0
 24 25  1  0
 25 26  2  0
 19  2  1  0
 26 21  1  0
 16  7  1  0
 15 10  1  0
  1 27  1  0
  1 28  1  0
  1 29  1  0
  6 30  1  0
  8 31  1  0
  9 32  1  0
 11 33  1  0
 12 34  1  0
 14 35  1  0
 14 36  1  0
 14 37  1  0
 16 38  1  0
 20 39  1  0
 20 40  1  0
 22 41  1  0
 23 42  1  0
 25 43  1  0
 26 44  1  0
M  END
$$$$
OCNT-2314603
     RDKit          3D

 51 54  0  0  0  0  0  0  0  0999 V2000
   -2.3747   -0.4388   -1.6684 C   0  0  0  0  0  0  0  0  0  0  0  0
   -2.9445   -0.0541   -0.2953 C   0  0  0  0  0  0  0  0  0  0  0  0
   -2.2338    1.1892    0.2997 C   0  0  0  0  0  0  0  0  0  0  0  0
   -0.8419    0.9521    0.6485 N   0  0  0  0  0  0  0  0  0  0  0  0
    0.1907    1.2718   -0.2022 C   0  0  0  0  0  0  0  0  0  0  0  0
    0.0486    1.7565   -1.3170 O   0  0  0  0  0  0  0  0  0  0  0  0
    1.5442    0.9139    0.2743 C   0  0  0  0  0  0  0  0  0  0  0  0
    2.2903    0.1013   -0.5781 C   0  0  0  0  0  0  0  0  0  0  0  0
    3.5494   -0.2955   -0.1679 C   0  0  0  0  0  0  0  0  0  0  0  0
    4.4002   -1.1428   -1.0157 C   0  0  0  0  0  0  0  0  0  0  0  0
    4.9141   -0.6757   -2.2257 C   0  0  0  0  0  0  0  0  0  0  0  0
    5.7080   -1.5224   -2.9957 C   0  0  0  0  0  0  0  0  0  0  0  0
    5.9661   -2.8092   -2.5427 C   0  0  0  0  0  0  0  0  0  0  0  0
    5.4163   -3.2003   -1.3334 C   0  0  0  0  0  0  0  0  0  0  0  0
    4.6382   -2.4048   -0.5681 N   0  0  0  0  0  0  0  0  0  0  0  0
    4.0699    0.0893    1.0247 N   0  0  0  0  0  0  0  0  0  0  0  0
    3.3576    0.8911    1.8321 C   0  0  0  0  0  0  0  0  0  0  0  0
    3.9285    1.2802    3.0363 C   0  0  0  0  0  0  0  0  0  0  0  0
    3.2729    2.1344    3.9250 C   0  0  0  0  0  0  0  0  0  0  0  0
    2.0163    2.6255    3.6048 C   0  0  0  0  0  0  0  0  0  0  0  0
    1.4190    2.2470    2.4042 C   0  0  0  0  0  0  0  0  0  0  0  0
    2.0706    1.3606    1.5070 C   0  0  0  0  0  0  0  0  0  0  0  0
   -4.4151    0.1448   -0.2839 N   0  0  0  0  0  0  0  0  0  0  0  0
   -4.9018    1.0793   -1.2988 C   0  0  0  0  0  0  0  0  0  0  0  0
   -5.1697   -1.1216   -0.3060 C   0  0  0  0  0  0  0  0  0  0  0  0
   -5.3239   -1.9109    0.9658 C   0  0  0  0  0  0  0  0  0  0  0  0
   -6.5025   -1.1828    0.3934 C   0  0  0  0  0  0  0  0  0  0  0  0
   -2.4051    0.3982   -2.3737 H   0  0  0  0  0  0  0  0  0  0  0  0
   -1.3319   -0.7606   -1.5775 H   0  0  0  0  0  0  0  0  0  0  0  0
   -2.9231   -1.2776   -2.1091 H   0  0  0  0  0  0  0  0  0  0  0  0
   -2.7192   -0.8873    0.3855 H   0  0  0  0  0  0  0  0  0  0  0  0
   -2.7250    1.4828    1.2341 H   0  0  0  0  0  0  0  0  0  0  0  0
   -2.2875    2.0409   -0.3869 H   0  0  0  0  0  0  0  0  0  0  0  0
   -0.6458    0.4333    1.4961 H   0  0  0  0  0  0  0  0  0  0  0  0
    1.8847   -0.2237   -1.5322 H   0  0  0  0  0  0  0  0  0  0  0  0
    4.7124    0.3375   -2.5595 H   0  0  0  0  0  0  0  0  0  0  0  0
    6.1262   -1.1757   -3.9366 H   0  0  0  0  0  0  0  0  0  0  0  0
    6.5850   -3.4922   -3.1143 H   0  0  0  0  0  0  0  0  0  0  0  0
    5.5916   -4.1954   -0.9340 H   0  0  0  0  0  0  0  0  0  0  0  0
    4.9205    0.9093    3.2875 H   0  0  0  0  0  0  0  0  0  0  0  0
    3.7538    2.4205    4.8564 H   0  0  0  0  0  0  0  0  0  0  0  0
    1.5048    3.3062    4.2817 H   0  0  0  0  0  0  0  0  0  0  0  0
    0.4440    2.6667    2.1647 H   0  0  0  0  0  0  0  0  0  0  0  0
   -4.3897    2.0443   -1.2386 H   0  0  0  0  0  0  0  0  0  0  0  0
   -4.7913    0.6869   -2.3148 H   0  0  0  0  0  0  0  0  0  0  0  0
   -5.9665    1.2877   -1.1397 H   0  0  0  0  0  0  0  0  0  0  0  0
   -5.0884   -1.6974   -1.2267 H   0  0  0  0  0  0  0  0  0  0  0  0
   -5.3179   -2.9930    0.8987 H   0  0  0  0  0  0  0  0  0  0  0  0
   -4.8840   -1.5188    1.8755 H   0  0  0  0  0  0  0  0  0  0  0  0
   -6.8519   -0.2995    0.9165 H   0  0  0  0  0  0  0  0  0  0  0  0
   -7.2888   -1.7658   -0.0700 H   0  0  0  0  0  0  0  0  0  0  0  0
  1  2  1  0
  2  3  1  0
  3  4  1  0
  4  5  1  0
  5  6  2  0
  5  7  1  0
  7  8  2  0
  8  9  1  0
  9 10  1  0
 10 11  2  0
 11 12  1  0
 12 13  2  0
 13 14  1  0
 14 15  2  0
  9 16  2  0
 16 17  1  0
 17 18  2  0
 18 19  1  0
 19 20  2  0
 20 21  1  0
 21 22  2  0
  2 23  1  0
 23 24  1  0
 23 25  1  0
 25 26  1  0
 26 27  1  0
 22  7  1  0
 27 25  1  0
 15 10  1  0
 22 17  1  0
  1 28  1  0
  1 29  1  0
  1 30  1  0
  2 31  1  0
  3 32  1  0
  3 33  1  0
  4 34  1  0
  8 35  1  0
 11 36  1  0
 12 37  1  0
 13 38  1  0
 14 39  1  0
 18 40  1  0
 19 41  1  0
 20 42  1  0
 21 43  1  0
 24 44  1  0
 24 45  1  0
 24 46  1  0
 25 47  1  0
 26 48  1  0
 26 49  1  0
 27 50  1  0
 27 51  1  0
M  END
$$$$
OCNT-2314607
     RDKit          3D

 54 56  0  0  0  0  0  0  0  0999 V2000
    5.1843   -3.4531   -1.3128 C   0  0  0  0  0  0  0  0  0  0  0  0
    3.8358   -3.5285   -1.7558 O   0  0  0  0  0  0  0  0  0  0  0  0
    2.9134   -3.7485   -0.6777 C   0  0  0  0  0  0  0  0  0  0  0  0
    2.7126   -2.5475    0.2246 C   0  0  0  0  0  0  0  0  0  0  0  0
    3.4551   -2.4740    1.3434 N   0  0  0  0  0  0  0  0  0  0  0  0
    3.2512   -1.3878    2.0996 C   0  0  0  0  0  0  0  0  0  0  0  0
    2.3542   -0.3908    1.7814 C   0  0  0  0  0  0  0  0  0  0  0  0
    1.6199   -0.5310    0.6175 C   0  0  0  0  0  0  0  0  0  0  0  0
    0.7001    0.4165    0.1832 N   0  0  0  0  0  0  0  0  0  0  0  0
    0.5213    1.6868    0.9000 C   0  0  0  0  0  0  0  0  0  0  0  0
   -0.0976    2.8182    0.1247 C   0  0  0  0  0  0  0  0  0  0  0  0
   -1.2381    3.4217    0.4066 N   0  0  0  0  0  0  0  0  0  0  0  0
   -1.4116    4.3815   -0.5610 C   0  0  0  0  0  0  0  0  0  0  0  0
   -2.6084    5.2495   -0.5527 C   0  0  0  0  0  0  0  0  0  0  0  0
   -0.3558    4.3628   -1.4449 C   0  0  0  0  0  0  0  0  0  0  0  0
    0.4701    3.3679   -1.0015 N   0  0  0  0  0  0  0  0  0  0  0  0
    1.7032    2.9587   -1.6297 C   0  0  0  0  0  0  0  0  0  0  0  0
   -0.4165   -0.0706   -0.6512 C   0  0  0  0  0  0  0  0  0  0  0  0
   -1.6721   -0.4386    0.1687 C   0  0  0  0  0  0  0  0  0  0  0  0
   -1.4578   -1.6806    1.0559 C   0  0  0  0  0  0  0  0  0  0  0  0
   -2.7541   -2.4057    1.4311 C   0  0  0  0  0  0  0  0  0  0  0  0
   -3.9602   -1.4795    1.4061 C   0  0  0  0  0  0  0  0  0  0  0  0
   -4.1728   -0.8697    0.0207 C   0  0  0  0  0  0  0  0  0  0  0  0
   -2.8738   -0.6559   -0.7614 C   0  0  0  0  0  0  0  0  0  0  0  0
    1.8118   -1.6174   -0.1542 N   0  0  0  0  0  0  0  0  0  0  0  0
    5.3500   -2.5516   -0.7167 H   0  0  0  0  0  0  0  0  0  0  0  0
    5.8288   -3.3990   -2.1947 H   0  0  0  0  0  0  0  0  0  0  0  0
    5.4571   -4.3447   -0.7400 H   0  0  0  0  0  0  0  0  0  0  0  0
    1.9490   -4.0025   -1.1315 H   0  0  0  0  0  0  0  0  0  0  0  0
    3.2267   -4.6204   -0.0911 H   0  0  0  0  0  0  0  0  0  0  0  0
    3.8469   -1.3331    3.0061 H   0  0  0  0  0  0  0  0  0  0  0  0
    2.2413    0.4438    2.4572 H   0  0  0  0  0  0  0  0  0  0  0  0
   -0.0769    1.5105    1.8030 H   0  0  0  0  0  0  0  0  0  0  0  0
    1.4918    2.0697    1.2412 H   0  0  0  0  0  0  0  0  0  0  0  0
   -3.5115    4.6513   -0.7073 H   0  0  0  0  0  0  0  0  0  0  0  0
   -2.5580    6.0045   -1.3434 H   0  0  0  0  0  0  0  0  0  0  0  0
   -2.6965    5.7668    0.4076 H   0  0  0  0  0  0  0  0  0  0  0  0
   -0.1398    4.9525   -2.3248 H   0  0  0  0  0  0  0  0  0  0  0  0
    2.4807    2.8731   -0.8670 H   0  0  0  0  0  0  0  0  0  0  0  0
    2.0006    3.7109   -2.3652 H   0  0  0  0  0  0  0  0  0  0  0  0
    1.5381    2.0007   -2.1276 H   0  0  0  0  0  0  0  0  0  0  0  0
   -0.6815    0.7174   -1.3665 H   0  0  0  0  0  0  0  0  0  0  0  0
   -0.1261   -0.9141   -1.2901 H   0  0  0  0  0  0  0  0  0  0  0  0
   -1.9223    0.4054    0.8246 H   0  0  0  0  0  0  0  0  0  0  0  0
   -0.9438   -1.3710    1.9743 H   0  0  0  0  0  0  0  0  0  0  0  0
   -0.7994   -2.4049    0.5621 H   0  0  0  0  0  0  0  0  0  0  0  0
   -2.6459   -2.8627    2.4214 H   0  0  0  0  0  0  0  0  0  0  0  0
   -2.9225   -3.2300    0.7263 H   0  0  0  0  0  0  0  0  0  0  0  0
   -3.8140   -0.6771    2.1402 H   0  0  0  0  0  0  0  0  0  0  0  0
   -4.8626   -2.0206    1.7123 H   0  0  0  0  0  0  0  0  0  0  0  0
   -4.8364   -1.5122   -0.5707 H   0  0  0  0  0  0  0  0  0  0  0  0
   -4.6977    0.0865    0.1358 H   0  0  0  0  0  0  0  0  0  0  0  0
   -3.0030    0.1972   -1.4382 H   0  0  0  0  0  0  0  0  0  0  0  0
   -2.6872   -1.5308   -1.3979 H   0  0  0  0  0  0  0  0  0  0  0  0
  1  2  1  0
  2  3  1  0
  3  4  1  0
  4  5  2  0
  5  6  1  0
  6  7  2  0
  7  8  1  0
  8  9  1  0
  9 10  1  0
 10 11  1  0
 11 12  2  0
 12 13  1  0
 13 14  1  0
 13 15  2  0
 15 16  1  0
 16 17  1  0
  9 18  1  0
 18 19  1  0
 19 20  1  0
 20 21  1  0
 21 22  1  0
 22 23  1  0
 23 24  1  0
  8 25  2  0
 25  4  1  0
 16 11  1  0
 24 19  1  0
  1 26  1  0
  1 27  1  0
  1 28  1  0
  3 29  1  0
  3 30  1  0
  6 31  1  0
  7 32  1  0
 10 33  1  0
 10 34  1  0
 14 35  1  0
 14 36  1  0
 14 37  1  0
 15 38  1  0
 17 39  1  0
 17 40  1  0
 17 41  1  0
 18 42  1  0
 18 43  1  0
 19 44  1  0
 20 45  1  0
 20 46  1  0
 21 47  1  0
 21 48  1  0
 22 49  1  0
 22 50  1  0
 23 51  1  0
 23 52  1  0
 24 53  1  0
 24 54  1  0
M  END
$$$$
OCNT-2314611
     RDKit          3D

 42 45  0  0  0  0  0  0  0  0999 V2000
    0.3382    0.1208    2.5463 O   0  0  0  0  0  0  0  0  0  0  0  0
    0.5411    0.1940    1.3388 C   0  0  0  0  0  0  0  0  0  0  0  0
    1.9439    0.1874    0.8440 C   0  0  1  0  0  0  0  0  0  0  0  0
    3.0021   -0.6018    1.5960 C   0  0  2  0  0  0  0  0  0  0  0  0
    4.4543   -0.2870    1.4712 C   0  0  0  0  0  0  0  0  0  0  0  0
    4.6777   -0.2173    0.0188 N   0  0  0  0  0  0  0  0  0  0  0  0
    3.7026   -1.0945   -0.6418 C   0  0  0  0  0  0  0  0  0  0  0  0
    2.5340   -1.0967    0.2849 C   0  0  2  0  0  0  0  0  0  0  0  0
   -0.4717    0.2876    0.3867 N   0  0  0  0  0  0  0  0  0  0  0  0
   -1.8542    0.2587    0.8622 C   0  0  0  0  0  0  0  0  0  0  0  0
   -2.7618   -0.6688    0.0833 C   0  0  0  0  0  0  0  0  0  0  0  0
   -3.8012   -0.1153   -0.6887 C   0  0  0  0  0  0  0  0  0  0  0  0
   -4.6636   -0.9305   -1.4242 C   0  0  0  0  0  0  0  0  0  0  0  0
   -4.5058   -2.3126   -1.3982 C   0  0  0  0  0  0  0  0  0  0  0  0
   -3.4865   -2.8792   -0.6343 C   0  0  0  0  0  0  0  0  0  0  0  0
   -2.6198   -2.0657    0.1042 C   0  0  0  0  0  0  0  0  0  0  0  0
   -1.3919   -2.8529    1.0292 Cl  0  0  0  0  0  0  0  0  0  0  0  0
   -0.2090    0.6200   -1.0111 C   0  0  0  0  0  0  0  0  0  0  0  0
    0.1019    2.0729   -1.2477 C   0  0  0  0  0  0  0  0  0  0  0  0
   -1.0183    3.0793   -1.3698 C   0  0  0  0  0  0  0  0  0  0  0  0
   -0.0611    3.1701   -0.2177 C   0  0  0  0  0  0  0  0  0  0  0  0
    2.2722    1.1358    0.4317 H   0  0  0  0  0  0  0  0  0  0  0  0
    2.7325   -1.1188    2.5055 H   0  0  0  0  0  0  0  0  0  0  0  0
    5.0553   -1.0911    1.9094 H   0  0  0  0  0  0  0  0  0  0  0  0
    4.7127    0.6601    1.9525 H   0  0  0  0  0  0  0  0  0  0  0  0
    5.6276   -0.5007   -0.2081 H   0  0  0  0  0  0  0  0  0  0  0  0
    3.4395   -0.7120   -1.6316 H   0  0  0  0  0  0  0  0  0  0  0  0
    4.1082   -2.1070   -0.7421 H   0  0  0  0  0  0  0  0  0  0  0  0
    1.9222   -1.9855    0.2317 H   0  0  0  0  0  0  0  0  0  0  0  0
   -2.2311    1.2869    0.8180 H   0  0  0  0  0  0  0  0  0  0  0  0
   -1.9070   -0.0233    1.9203 H   0  0  0  0  0  0  0  0  0  0  0  0
   -3.9458    0.9630   -0.7226 H   0  0  0  0  0  0  0  0  0  0  0  0
   -5.4605   -0.4854   -2.0154 H   0  0  0  0  0  0  0  0  0  0  0  0
   -5.1772   -2.9499   -1.9680 H   0  0  0  0  0  0  0  0  0  0  0  0
   -3.3726   -3.9604   -0.6144 H   0  0  0  0  0  0  0  0  0  0  0  0
    0.6448    0.0255   -1.3515 H   0  0  0  0  0  0  0  0  0  0  0  0
   -1.0480    0.3119   -1.6419 H   0  0  0  0  0  0  0  0  0  0  0  0
    0.9192    2.1763   -1.9561 H   0  0  0  0  0  0  0  0  0  0  0  0
   -2.0335    2.7654   -1.1608 H   0  0  0  0  0  0  0  0  0  0  0  0
   -0.9430    3.8284   -2.1506 H   0  0  0  0  0  0  0  0  0  0  0  0
   -0.4339    2.9379    0.7722 H   0  0  0  0  0  0  0  0  0  0  0  0
    0.6672    3.9744   -0.2225 H   0  0  0  0  0  0  0  0  0  0  0  0
  1  2  2  0
  2  3  1  0
  3  4  1  0
  4  5  1  0
  5  6  1  0
  6  7  1  0
  7  8  1  0
  2  9  1  0
  9 10  1  0
 10 11  1  0
 11 12  2  0
 12 13  1  0
 13 14  2  0
 14 15  1  0
 15 16  2  0
 16 17  1  0
  9 18  1  0
 18 19  1  0
 19 20  1  0
 20 21  1  0
  8  3  1  0
 16 11  1  0
 21 19  1  0
  8  4  1  0
  3 22  1  6
  4 23  1  1
  5 24  1  0
  5 25  1  0
  6 26  1  0
  7 27  1  0
  7 28  1  0
  8 29  1  1
 10 30  1  0
 10 31  1  0
 12 32  1  0
 13 33  1  0
 14 34  1  0
 15 35  1  0
 18 36  1  0
 18 37  1  0
 19 38  1  0
 20 39  1  0
 20 40  1  0
 21 41  1  0
 21 42  1  0
M  END
$$$$
OCNT-2314615
     RDKit          3D

 42 44  0  0  0  0  0  0  0  0999 V2000
   -6.2888    3.2622    1.9535 C   0  0  0  0  0  0  0  0  0  0  0  0
   -5.1762    2.3643    1.5001 C   0  0  0  0  0  0  0  0  0  0  0  0
   -4.6353    2.4988    0.2183 C   0  0  0  0  0  0  0  0  0  0  0  0
   -3.5765    1.6829   -0.1933 C   0  0  0  0  0  0  0  0  0  0  0  0
   -3.0294    0.7223    0.6691 C   0  0  0  0  0  0  0  0  0  0  0  0
   -1.9295   -0.1092    0.2104 C   0  0  0  0  0  0  0  0  0  0  0  0
   -1.3287   -1.1519    0.8831 C   0  0  0  0  0  0  0  0  0  0  0  0
   -0.3632   -1.5873    0.0245 N   0  0  0  0  0  0  0  0  0  0  0  0
    0.5959   -2.6613    0.2196 C   0  0  0  0  0  0  0  0  0  0  0  0
    0.5584   -3.6920   -0.9063 C   0  0  0  0  0  0  0  0  0  0  0  0
    2.0096   -2.1139    0.4096 C   0  0  0  0  0  0  0  0  0  0  0  0
    2.6855   -2.5005    1.3621 O   0  0  0  0  0  0  0  0  0  0  0  0
    2.4349   -1.2436   -0.5818 N   0  0  0  0  0  0  0  0  0  0  0  0
    3.6988   -0.6347   -0.7167 C   0  0  0  0  0  0  0  0  0  0  0  0
    4.7930   -0.9131    0.1045 C   0  0  0  0  0  0  0  0  0  0  0  0
    6.0176   -0.2689   -0.0993 C   0  0  0  0  0  0  0  0  0  0  0  0
    6.1598    0.6590   -1.1292 C   0  0  0  0  0  0  0  0  0  0  0  0
    5.0740    0.9444   -1.9593 C   0  0  0  0  0  0  0  0  0  0  0  0
    5.2134    1.8951   -3.0230 C   0  0  0  0  0  0  0  0  0  0  0  0
    5.3270    2.6621   -3.8864 N   0  0  0  0  0  0  0  0  0  0  0  0
    3.8485    0.2978   -1.7521 C   0  0  0  0  0  0  0  0  0  0  0  0
   -0.3610   -0.8704   -1.1164 N   0  0  0  0  0  0  0  0  0  0  0  0
   -1.3161    0.0413   -1.0106 N   0  0  0  0  0  0  0  0  0  0  0  0
   -3.5657    0.6030    1.9584 C   0  0  0  0  0  0  0  0  0  0  0  0
   -4.6250    1.4196    2.3712 C   0  0  0  0  0  0  0  0  0  0  0  0
   -5.8771    4.1767    2.3911 H   0  0  0  0  0  0  0  0  0  0  0  0
   -6.9145    2.7629    2.7008 H   0  0  0  0  0  0  0  0  0  0  0  0
   -6.9389    3.5316    1.1144 H   0  0  0  0  0  0  0  0  0  0  0  0
   -5.0327    3.2392   -0.4726 H   0  0  0  0  0  0  0  0  0  0  0  0
   -3.1809    1.8082   -1.1998 H   0  0  0  0  0  0  0  0  0  0  0  0
   -1.4911   -1.6004    1.8517 H   0  0  0  0  0  0  0  0  0  0  0  0
    0.3096   -3.1580    1.1557 H   0  0  0  0  0  0  0  0  0  0  0  0
    0.8507   -3.2596   -1.8696 H   0  0  0  0  0  0  0  0  0  0  0  0
    1.2497   -4.5154   -0.6961 H   0  0  0  0  0  0  0  0  0  0  0  0
   -0.4474   -4.1104   -1.0201 H   0  0  0  0  0  0  0  0  0  0  0  0
    1.7195   -0.9312   -1.2403 H   0  0  0  0  0  0  0  0  0  0  0  0
    4.7311   -1.6321    0.9158 H   0  0  0  0  0  0  0  0  0  0  0  0
    6.8599   -0.4960    0.5506 H   0  0  0  0  0  0  0  0  0  0  0  0
    7.1181    1.1534   -1.2775 H   0  0  0  0  0  0  0  0  0  0  0  0
    3.0084    0.5315   -2.4047 H   0  0  0  0  0  0  0  0  0  0  0  0
   -3.1692   -0.1179    2.6678 H   0  0  0  0  0  0  0  0  0  0  0  0
   -5.0160    1.3115    3.3807 H   0  0  0  0  0  0  0  0  0  0  0  0
  1  2  1  0
  2  3  1  0
  3  4  2  0
  4  5  1  0
  5  6  1  0
  6  7  2  0
  7  8  1  0
  8  9  1  0
  9 10  1  0
  9 11  1  0
 11 12  2  0
 11 13  1  0
 13 14  1  0
 14 15  2  0
 15 16  1  0
 16 17  2  0
 17 18  1  0
 18 19  1  0
 19 20  3  0
 18 21  2  0
  8 22  1  0
 22 23  2  0
  5 24  2  0
 24 25  1  0
 25  2  2  0
 23  6  1  0
 21 14  1  0
  1 26  1  0
  1 27  1  0
  1 28  1  0
  3 29  1  0
  4 30  1  0
  7 31  1  0
  9 32  1  0
 10 33  1  0
 10 34  1  0
 10 35  1  0
 13 36  1  0
 15 37  1  0
 16 38  1  0
 17 39  1  0
 21 40  1  0
 24 41  1  0
 25 42  1  0
M  END
$$$$
OCNT-2314616
     RDKit          3D

 51 52  0  0  0  0  0  0  0  0999 V2000
    7.6562    1.9314    0.4620 C   0  0  0  0  0  0  0  0  0  0  0  0
    6.4382    1.1432    0.0685 C   0  0  0  0  0  0  0  0  0  0  0  0
    5.5247    1.8037   -0.6942 N   0  0  0  0  0  0  0  0  0  0  0  0
    4.4110    1.1322   -1.0767 C   0  0  0  0  0  0  0  0  0  0  0  0
    4.1632   -0.1756   -0.7120 C   0  0  0  0  0  0  0  0  0  0  0  0
    2.6992   -0.9630   -1.2809 S   0  0  0  0  0  0  0  0  0  0  0  0
    2.3742   -0.3953   -2.5692 O   0  0  0  0  0  0  0  0  0  0  0  0
    2.8504   -2.3884   -1.0918 O   0  0  0  0  0  0  0  0  0  0  0  0
    1.5638   -0.3982   -0.1978 N   0  0  0  0  0  0  0  0  0  0  0  0
    1.3342   -1.1339    1.0564 C   0  0  0  0  0  0  0  0  0  0  0  0
    0.1664   -0.4647    1.8114 C   0  0  0  0  0  0  0  0  0  0  0  0
   -0.9950   -0.1861    0.9378 N   0  0  0  0  0  0  0  0  0  0  0  0
   -1.9181    0.7427    1.6092 C   0  0  0  0  0  0  0  0  0  0  0  0
   -3.2282    0.9196    0.8909 C   0  0  0  0  0  0  0  0  0  0  0  0
   -3.6850    0.1044   -0.0828 C   0  0  0  0  0  0  0  0  0  0  0  0
   -5.0107    0.3039   -0.8452 C   0  0  0  0  0  0  0  0  0  0  0  0
   -5.6932    1.6592   -0.5449 C   0  0  0  0  0  0  0  0  0  0  0  0
   -6.0065   -0.8071   -0.4555 C   0  0  0  0  0  0  0  0  0  0  0  0
   -4.7657    0.2500   -2.3676 C   0  0  0  0  0  0  0  0  0  0  0  0
   -2.8272   -1.0942   -0.4579 C   0  0  0  0  0  0  0  0  0  0  0  0
   -1.7193   -1.4102    0.5640 C   0  0  0  0  0  0  0  0  0  0  0  0
    5.1026   -0.8570    0.0589 C   0  0  0  0  0  0  0  0  0  0  0  0
    6.2616   -0.1874    0.4626 C   0  0  0  0  0  0  0  0  0  0  0  0
    7.2311   -0.8687    1.2654 C   0  0  0  0  0  0  0  0  0  0  0  0
    8.0111   -1.4202    1.9238 N   0  0  0  0  0  0  0  0  0  0  0  0
    8.5614    1.4584    0.0686 H   0  0  0  0  0  0  0  0  0  0  0  0
    7.7267    2.0081    1.5515 H   0  0  0  0  0  0  0  0  0  0  0  0
    7.6068    2.9479    0.0575 H   0  0  0  0  0  0  0  0  0  0  0  0
    3.7184    1.7007   -1.6930 H   0  0  0  0  0  0  0  0  0  0  0  0
    0.7061   -0.0394   -0.6335 H   0  0  0  0  0  0  0  0  0  0  0  0
    2.2367   -1.1150    1.6751 H   0  0  0  0  0  0  0  0  0  0  0  0
    1.0797   -2.1758    0.8386 H   0  0  0  0  0  0  0  0  0  0  0  0
   -0.1176   -1.0733    2.6789 H   0  0  0  0  0  0  0  0  0  0  0  0
    0.5469    0.4898    2.1996 H   0  0  0  0  0  0  0  0  0  0  0  0
   -1.4360    1.7257    1.6744 H   0  0  0  0  0  0  0  0  0  0  0  0
   -2.1361    0.4141    2.6339 H   0  0  0  0  0  0  0  0  0  0  0  0
   -3.8042    1.7787    1.2197 H   0  0  0  0  0  0  0  0  0  0  0  0
   -6.6080    1.7806   -1.1376 H   0  0  0  0  0  0  0  0  0  0  0  0
   -5.0356    2.5019   -0.7879 H   0  0  0  0  0  0  0  0  0  0  0  0
   -5.9845    1.7418    0.5086 H   0  0  0  0  0  0  0  0  0  0  0  0
   -5.6559   -1.8001   -0.7558 H   0  0  0  0  0  0  0  0  0  0  0  0
   -6.1753   -0.8259    0.6275 H   0  0  0  0  0  0  0  0  0  0  0  0
   -6.9782   -0.6529   -0.9394 H   0  0  0  0  0  0  0  0  0  0  0  0
   -5.6894    0.4470   -2.9245 H   0  0  0  0  0  0  0  0  0  0  0  0
   -4.4052   -0.7331   -2.6902 H   0  0  0  0  0  0  0  0  0  0  0  0
   -4.0261    0.9978   -2.6763 H   0  0  0  0  0  0  0  0  0  0  0  0
   -2.3617   -0.8980   -1.4321 H   0  0  0  0  0  0  0  0  0  0  0  0
   -3.4447   -1.9916   -0.5655 H   0  0  0  0  0  0  0  0  0  0  0  0
   -2.1534   -1.8925    1.4505 H   0  0  0  0  0  0  0  0  0  0  0  0
   -1.0462   -2.1391    0.0996 H   0  0  0  0  0  0  0  0  0  0  0  0
    4.9365   -1.8957    0.3391 H   0  0  0  0  0  0  0  0  0  0  0  0
  1  2  1  0
  2  3  1  0
  3  4  2  0
  4  5  1  0
  5  6  1  0
  6  7  2  0
  6  8  2  0
  6  9  1  0
  9 10  1  0
 10 11  1  0
 11 12  1  0
 12 13  1  0
 13 14  1  0
 14 15  2  0
 15 16  1  0
 16 17  1  0
 16 18  1  0
 16 19  1  0
 15 20  1  0
 20 21  1  0
  5 22  2  0
 22 23  1  0
 23 24  1  0
 24 25  3  0
 23  2  2  0
 21 12  1  0
  1 26  1  0
  1 27  1  0
  1 28  1  0
  4 29  1  0
  9 30  1  0
 10 31  1  0
 10 32  1  0
 11 33  1  0
 11 34  1  0
 13 35  1  0
 13 36  1  0
 14 37  1  0
 17 38  1  0
 17 39  1  0
 17 40  1  0
 18 41  1  0
 18 42  1  0
 18 43  1  0
 19 44  1  0
 19 45  1  0
 19 46  1  0
 20 47  1  0
 20 48  1  0
 21 49  1  0
 21 50  1  0
 22 51  1  0
M  END
$$$$
OCNT-2314618
     RDKit          3D

 51 54  0  0  0  0  0  0  0  0999 V2000
    2.3608    3.7378   -0.1689 C   0  0  0  0  0  0  0  0  0  0  0  0
    2.6711    2.5401    0.5307 O   0  0  0  0  0  0  0  0  0  0  0  0
    1.5509    1.6437    0.6841 C   0  0  0  0  0  0  0  0  0  0  0  0
    1.2437    0.8721   -0.6199 C   0  0  0  0  0  0  0  0  0  0  0  0
    2.2505   -0.1533   -1.1057 C   0  0  0  0  0  0  0  0  0  0  0  0
    1.7898   -1.3910   -1.5899 C   0  0  0  0  0  0  0  0  0  0  0  0
    2.6832   -2.3489   -2.0715 C   0  0  0  0  0  0  0  0  0  0  0  0
    4.0423   -2.0685   -2.0862 C   0  0  0  0  0  0  0  0  0  0  0  0
    4.9018   -2.9863   -2.5488 F   0  0  0  0  0  0  0  0  0  0  0  0
    4.5218   -0.8468   -1.6341 C   0  0  0  0  0  0  0  0  0  0  0  0
    3.6271    0.1120   -1.1523 C   0  0  0  0  0  0  0  0  0  0  0  0
    1.8359    0.7579    1.9307 C   0  0  0  0  0  0  0  0  0  0  0  0
    0.7417    0.0451    2.5982 N   0  0  0  0  0  0  0  0  0  0  0  0
    0.4162   -1.2708    2.0307 C   0  0  0  0  0  0  0  0  0  0  0  0
   -1.0521   -1.6871    2.2465 C   0  0  0  0  0  0  0  0  0  0  0  0
   -1.9643   -0.6994    1.6245 N   0  0  0  0  0  0  0  0  0  0  0  0
   -2.5371   -0.9799    0.3656 C   0  0  0  0  0  0  0  0  0  0  0  0
   -3.6402   -0.3179   -0.0604 C   0  0  0  0  0  0  0  0  0  0  0  0
   -4.5403    0.6762    0.4300 C   0  0  0  0  0  0  0  0  0  0  0  0
   -5.4379    0.8527   -0.5531 C   0  0  0  0  0  0  0  0  0  0  0  0
   -5.2451    0.0655   -1.6809 N   0  0  0  0  0  0  0  0  0  0  0  0
   -4.1867   -0.6447   -1.3975 C   0  0  0  0  0  0  0  0  0  0  0  0
   -3.5516   -1.5945   -2.1221 N   0  0  0  0  0  0  0  0  0  0  0  0
   -2.4645   -2.2198   -1.5981 C   0  0  0  0  0  0  0  0  0  0  0  0
   -1.9431   -1.9696   -0.4357 N   0  0  0  0  0  0  0  0  0  0  0  0
   -1.6613    0.7024    2.0079 C   0  0  0  0  0  0  0  0  0  0  0  0
   -0.4391    0.8407    2.9488 C   0  0  0  0  0  0  0  0  0  0  0  0
    1.5592    4.2842    0.3372 H   0  0  0  0  0  0  0  0  0  0  0  0
    2.0832    3.5299   -1.2047 H   0  0  0  0  0  0  0  0  0  0  0  0
    3.2547    4.3679   -0.1761 H   0  0  0  0  0  0  0  0  0  0  0  0
    0.6814    2.2712    0.9127 H   0  0  0  0  0  0  0  0  0  0  0  0
    0.2714    0.3833   -0.4951 H   0  0  0  0  0  0  0  0  0  0  0  0
    1.1075    1.5810   -1.4446 H   0  0  0  0  0  0  0  0  0  0  0  0
    0.7257   -1.6208   -1.5830 H   0  0  0  0  0  0  0  0  0  0  0  0
    2.3272   -3.3077   -2.4330 H   0  0  0  0  0  0  0  0  0  0  0  0
    5.5875   -0.6435   -1.6597 H   0  0  0  0  0  0  0  0  0  0  0  0
    4.0249    1.0656   -0.8150 H   0  0  0  0  0  0  0  0  0  0  0  0
    2.2720    1.4199    2.6931 H   0  0  0  0  0  0  0  0  0  0  0  0
    2.6549    0.0597    1.7136 H   0  0  0  0  0  0  0  0  0  0  0  0
    0.6141   -1.2985    0.9599 H   0  0  0  0  0  0  0  0  0  0  0  0
    1.0705   -2.0185    2.4924 H   0  0  0  0  0  0  0  0  0  0  0  0
   -1.2189   -2.6973    1.8542 H   0  0  0  0  0  0  0  0  0  0  0  0
   -1.2754   -1.7474    3.3192 H   0  0  0  0  0  0  0  0  0  0  0  0
   -4.5245    1.1596    1.3886 H   0  0  0  0  0  0  0  0  0  0  0  0
   -6.2801    1.5330   -0.5122 H   0  0  0  0  0  0  0  0  0  0  0  0
   -3.9305   -1.8411   -3.0234 H   0  0  0  0  0  0  0  0  0  0  0  0
   -2.0308   -2.9893   -2.2571 H   0  0  0  0  0  0  0  0  0  0  0  0
   -1.4743    1.2969    1.1054 H   0  0  0  0  0  0  0  0  0  0  0  0
   -2.5319    1.1312    2.5160 H   0  0  0  0  0  0  0  0  0  0  0  0
   -0.1858    1.9003    3.0752 H   0  0  0  0  0  0  0  0  0  0  0  0
   -0.7549    0.5127    3.9484 H   0  0  0  0  0  0  0  0  0  0  0  0
  1  2  1  0
  2  3  1  0
  3  4  1  0
  4  5  1  0
  5  6  1  0
  6  7  2  0
  7  8  1  0
  8  9  1  0
  8 10  2  0
 10 11  1  0
  3 12  1  0
 12 13  1  0
 13 14  1  0
 14 15  1  0
 15 16  1  0
 16 17  1  0
 17 18  2  0
 18 19  1  0
 19 20  2  0
 20 21  1  0
 21 22  2  0
 22 23  1  0
 23 24  1  0
 24 25  2  0
 16 26  1  0
 26 27  1  0
 11  5  2  0
 27 13  1  0
 25 17  1  0
 22 18  1  0
  1 28  1  0
  1 29  1  0
  1 30  1  0
  3 31  1  0
  4 32  1  0
  4 33  1  0
  6 34  1  0
  7 35  1  0
 10 36  1  0
 11 37  1  0
 12 38  1  0
 12 39  1  0
 14 40  1  0
 14 41  1  0
 15 42  1  0
 15 43  1  0
 19 44  1  0
 20 45  1  0
 23 46  1  0
 24 47  1  0
 26 48  1  0
 26 49  1  0
 27 50  1  0
 27 51  1  0
M  END
$$$$
OCNT-2314625
     RDKit          3D

 40 43  0  0  0  0  0  0  0  0999 V2000
   -3.7959   -1.4302   -2.3544 C   0  0  0  0  0  0  0  0  0  0  0  0
   -4.2394   -1.0584   -1.0153 N   0  0  0  0  0  0  0  0  0  0  0  0
   -5.6381   -0.6218   -0.9086 C   0  0  0  0  0  0  0  0  0  0  0  0
   -5.9970   -0.3992    0.5549 C   0  0  0  0  0  0  0  0  0  0  0  0
   -5.2209    0.6617    1.1181 O   0  0  0  0  0  0  0  0  0  0  0  0
   -3.8805    0.5304    0.8282 C   0  0  0  0  0  0  0  0  0  0  0  0
   -3.0328    1.3066    1.6197 C   0  0  0  0  0  0  0  0  0  0  0  0
   -1.6516    1.2543    1.4350 C   0  0  0  0  0  0  0  0  0  0  0  0
   -1.1099    0.4222    0.4591 C   0  0  0  0  0  0  0  0  0  0  0  0
    0.2747    0.2878    0.2152 N   0  0  0  0  0  0  0  0  0  0  0  0
    1.3170    0.9299    0.8537 C   0  0  0  0  0  0  0  0  0  0  0  0
    1.2029    1.7517    1.7565 O   0  0  0  0  0  0  0  0  0  0  0  0
    2.6374    0.5621    0.3684 C   0  0  0  0  0  0  0  0  0  0  0  0
    3.0793   -0.3167   -0.6075 C   0  0  0  0  0  0  0  0  0  0  0  0
    4.5021   -0.2662   -0.6499 C   0  0  0  0  0  0  0  0  0  0  0  0
    5.4812   -0.9198   -1.4205 C   0  0  0  0  0  0  0  0  0  0  0  0
    6.8234   -0.6196   -1.1882 C   0  0  0  0  0  0  0  0  0  0  0  0
    7.7639   -1.2365   -1.9171 F   0  0  0  0  0  0  0  0  0  0  0  0
    7.2108    0.3011   -0.2223 C   0  0  0  0  0  0  0  0  0  0  0  0
    6.2542    0.9609    0.5539 C   0  0  0  0  0  0  0  0  0  0  0  0
    4.9088    0.6539    0.3143 C   0  0  0  0  0  0  0  0  0  0  0  0
    3.7694    1.1353    0.9115 N   0  0  0  0  0  0  0  0  0  0  0  0
   -1.9764   -0.3434   -0.3442 C   0  0  0  0  0  0  0  0  0  0  0  0
   -3.3755   -0.2926   -0.2031 C   0  0  0  0  0  0  0  0  0  0  0  0
   -4.5996   -1.9422   -2.8956 H   0  0  0  0  0  0  0  0  0  0  0  0
   -2.9572   -2.1326   -2.3151 H   0  0  0  0  0  0  0  0  0  0  0  0
   -3.5086   -0.5486   -2.9381 H   0  0  0  0  0  0  0  0  0  0  0  0
   -6.2975   -1.3891   -1.3298 H   0  0  0  0  0  0  0  0  0  0  0  0
   -5.7795    0.3034   -1.4824 H   0  0  0  0  0  0  0  0  0  0  0  0
   -5.8510   -1.3077    1.1531 H   0  0  0  0  0  0  0  0  0  0  0  0
   -7.0507   -0.1135    0.6388 H   0  0  0  0  0  0  0  0  0  0  0  0
   -3.4501    1.9471    2.3921 H   0  0  0  0  0  0  0  0  0  0  0  0
   -1.0327    1.8691    2.0797 H   0  0  0  0  0  0  0  0  0  0  0  0
    0.5266   -0.3598   -0.5155 H   0  0  0  0  0  0  0  0  0  0  0  0
    2.4649   -0.9433   -1.2393 H   0  0  0  0  0  0  0  0  0  0  0  0
    5.2137   -1.6438   -2.1821 H   0  0  0  0  0  0  0  0  0  0  0  0
    8.2677    0.5035   -0.0758 H   0  0  0  0  0  0  0  0  0  0  0  0
    6.5487    1.6812    1.3106 H   0  0  0  0  0  0  0  0  0  0  0  0
    3.7407    1.8218    1.6551 H   0  0  0  0  0  0  0  0  0  0  0  0
   -1.5424   -0.9992   -1.0913 H   0  0  0  0  0  0  0  0  0  0  0  0
  1  2  1  0
  2  3  1  0
  3  4  1  0
  4  5  1  0
  5  6  1  0
  6  7  1  0
  7  8  2  0
  8  9  1  0
  9 10  1  0
 10 11  1  0
 11 12  2  0
 11 13  1  0
 13 14  2  0
 14 15  1  0
 15 16  2  0
 16 17  1  0
 17 18  1  0
 17 19  2  0
 19 20  1  0
 20 21  2  0
 21 22  1  0
  9 23  2  0
 23 24  1  0
 24  2  1  0
 24  6  2  0
 22 13  1  0
 21 15  1  0
  1 25  1  0
  1 26  1  0
  1 27  1  0
  3 28  1  0
  3 29  1  0
  4 30  1  0
  4 31  1  0
  7 32  1  0
  8 33  1  0
 10 34  1  0
 14 35  1  0
 16 36  1  0
 19 37  1  0
 20 38  1  0
 22 39  1  0
 23 40  1  0
M  END
$$$$
OCNT-2314630
     RDKit          3D

 42 45  0  0  0  0  0  0  0  0999 V2000
   -3.1506    0.3341    2.5953 C   0  0  0  0  0  0  0  0  0  0  0  0
   -2.9797    0.0181    1.0981 C   0  0  0  0  0  0  0  0  0  0  0  0
   -3.6494   -1.3375    0.8062 C   0  0  0  0  0  0  0  0  0  0  0  0
   -1.4478   -0.0637    0.7792 C   0  0  0  0  0  0  0  0  0  0  0  0
   -1.2121   -0.1988   -0.6713 N   0  0  0  0  0  0  0  0  0  0  0  0
    0.1363   -0.3153   -1.0289 C   0  0  0  0  0  0  0  0  0  0  0  0
    1.0929   -0.0348   -0.1130 N   0  0  0  0  0  0  0  0  0  0  0  0
    2.4030   -0.1275   -0.4256 C   0  0  0  0  0  0  0  0  0  0  0  0
    3.3919    0.2141    0.6348 C   0  0  0  0  0  0  0  0  0  0  0  0
    4.7705    0.1168    0.4154 C   0  0  0  0  0  0  0  0  0  0  0  0
    5.6600    0.4468    1.4373 C   0  0  0  0  0  0  0  0  0  0  0  0
    5.1620    0.8687    2.6613 C   0  0  0  0  0  0  0  0  0  0  0  0
    3.7900    0.9438    2.8136 C   0  0  0  0  0  0  0  0  0  0  0  0
    2.9061    0.6311    1.8415 N   0  0  0  0  0  0  0  0  0  0  0  0
    2.8899   -0.4996   -1.6201 N   0  0  0  0  0  0  0  0  0  0  0  0
    1.9311   -0.8084   -2.5042 C   0  0  0  0  0  0  0  0  0  0  0  0
    0.5627   -0.7545   -2.3016 C   0  0  0  0  0  0  0  0  0  0  0  0
   -0.1350   -1.2066   -3.4764 C   0  0  0  0  0  0  0  0  0  0  0  0
    0.7136   -1.5421   -4.5081 C   0  0  0  0  0  0  0  0  0  0  0  0
    2.3522   -1.3340   -4.0720 S   0  0  0  0  0  0  0  0  0  0  0  0
   -2.0070    0.7066   -1.5231 C   0  0  0  0  0  0  0  0  0  0  0  0
   -2.8664    1.6874   -0.6948 C   0  0  0  0  0  0  0  0  0  0  0  0
   -3.7226    1.0382    0.3091 N   0  0  0  0  0  0  0  0  0  0  0  0
   -4.2081    0.3574    2.8840 H   0  0  0  0  0  0  0  0  0  0  0  0
   -2.6568   -0.4225    3.2159 H   0  0  0  0  0  0  0  0  0  0  0  0
   -2.7143    1.3076    2.8477 H   0  0  0  0  0  0  0  0  0  0  0  0
   -3.5860   -1.6044   -0.2547 H   0  0  0  0  0  0  0  0  0  0  0  0
   -4.7114   -1.3258    1.0795 H   0  0  0  0  0  0  0  0  0  0  0  0
   -3.1733   -2.1420    1.3785 H   0  0  0  0  0  0  0  0  0  0  0  0
   -1.0160   -0.9243    1.3080 H   0  0  0  0  0  0  0  0  0  0  0  0
   -0.9543    0.8420    1.1600 H   0  0  0  0  0  0  0  0  0  0  0  0
    5.1561   -0.2151   -0.5447 H   0  0  0  0  0  0  0  0  0  0  0  0
    6.7314    0.3729    1.2740 H   0  0  0  0  0  0  0  0  0  0  0  0
    5.8257    1.1323    3.4769 H   0  0  0  0  0  0  0  0  0  0  0  0
    3.3475    1.2677    3.7513 H   0  0  0  0  0  0  0  0  0  0  0  0
   -1.2123   -1.2877   -3.5480 H   0  0  0  0  0  0  0  0  0  0  0  0
    0.4514   -1.9061   -5.4923 H   0  0  0  0  0  0  0  0  0  0  0  0
   -1.3753    1.3018   -2.1950 H   0  0  0  0  0  0  0  0  0  0  0  0
   -2.6685    0.0958   -2.1488 H   0  0  0  0  0  0  0  0  0  0  0  0
   -3.5042    2.2627   -1.3749 H   0  0  0  0  0  0  0  0  0  0  0  0
   -2.2112    2.4108   -0.1928 H   0  0  0  0  0  0  0  0  0  0  0  0
   -4.1119    1.7522    0.9225 H   0  0  0  0  0  0  0  0  0  0  0  0
  1  2  1  0
  2  3  1  0
  2  4  1  0
  4  5  1  0
  5  6  1  0
  6  7  1  0
  7  8  2  0
  8  9  1  0
  9 10  2  0
 10 11  1  0
 11 12  2  0
 12 13  1  0
 13 14  2  0
  8 15  1  0
 15 16  2  0
 16 17  1  0
 17 18  1  0
 18 19  2  0
 19 20  1  0
  5 21  1  0
 21 22  1  0
 22 23  1  0
 23  2  1  0
 17  6  2  0
 14  9  1  0
 20 16  1  0
  1 24  1  0
  1 25  1  0
  1 26  1  0
  3 27  1  0
  3 28  1  0
  3 29  1  0
  4 30  1  0
  4 31  1  0
 10 32  1  0
 11 33  1  0
 12 34  1  0
 13 35  1  0
 18 36  1  0
 19 37  1  0
 21 38  1  0
 21 39  1  0
 22 40  1  0
 22 41  1  0
 23 42  1  0
M  END
$$$$
OCNT-2314632
     RDKit          3D

 35 37  0  0  0  0  0  0  0  0999 V2000
   -4.7780   -0.5939   -0.7272 C   0  0  0  0  0  0  0  0  0  0  0  0
   -3.3684   -0.4928   -0.8855 O   0  0  0  0  0  0  0  0  0  0  0  0
   -2.6826    0.6183   -0.2116 C   0  0  0  0  0  0  0  0  0  0  0  0
   -3.1592    1.9880   -0.6638 C   0  0  0  0  0  0  0  0  0  0  0  0
   -3.0689    2.1180   -2.0089 F   0  0  0  0  0  0  0  0  0  0  0  0
   -2.4379    2.9909   -0.1069 F   0  0  0  0  0  0  0  0  0  0  0  0
   -4.4545    2.1892   -0.3158 F   0  0  0  0  0  0  0  0  0  0  0  0
   -1.1444    0.5147   -0.2792 C   0  0  0  0  0  0  0  0  0  0  0  0
   -1.1621    0.1419    1.1305 N   0  0  0  0  0  0  0  0  0  0  0  0
   -0.5225   -0.9009    1.7690 C   0  0  0  0  0  0  0  0  0  0  0  0
   -1.0458   -1.4757    2.7234 O   0  0  0  0  0  0  0  0  0  0  0  0
    0.7779   -1.3220    1.2820 C   0  0  0  0  0  0  0  0  0  0  0  0
    1.7612   -0.6167    0.6085 C   0  0  0  0  0  0  0  0  0  0  0  0
    1.8447    0.6820    0.1747 N   0  0  0  0  0  0  0  0  0  0  0  0
    2.9490    1.0224   -0.4205 C   0  0  0  0  0  0  0  0  0  0  0  0
    4.1258    0.1404   -0.6791 C   0  0  0  0  0  0  0  0  0  0  0  0
    5.3086    0.7026   -1.3827 C   0  0  0  0  0  0  0  0  0  0  0  0
    3.9885   -1.1148   -0.2262 C   0  0  0  0  0  0  0  0  0  0  0  0
    2.8238   -1.5132    0.4224 N   0  0  0  0  0  0  0  0  0  0  0  0
    2.5580   -2.7325    0.9431 N   0  0  0  0  0  0  0  0  0  0  0  0
    1.3459   -2.6000    1.4792 C   0  0  0  0  0  0  0  0  0  0  0  0
   -2.5609    0.5112    1.3200 C   0  0  0  0  0  0  0  0  0  0  0  0
   -5.2767    0.1182   -1.3897 H   0  0  0  0  0  0  0  0  0  0  0  0
   -5.0838   -1.6047   -1.0097 H   0  0  0  0  0  0  0  0  0  0  0  0
   -5.0730   -0.4145    0.3099 H   0  0  0  0  0  0  0  0  0  0  0  0
   -0.7753   -0.2667   -0.9502 H   0  0  0  0  0  0  0  0  0  0  0  0
   -0.6056    1.4477   -0.4660 H   0  0  0  0  0  0  0  0  0  0  0  0
    3.0492    2.0608   -0.7800 H   0  0  0  0  0  0  0  0  0  0  0  0
    5.7249    1.5438   -0.8194 H   0  0  0  0  0  0  0  0  0  0  0  0
    6.0994   -0.0451   -1.5033 H   0  0  0  0  0  0  0  0  0  0  0  0
    5.0276    1.0580   -2.3792 H   0  0  0  0  0  0  0  0  0  0  0  0
    4.7500   -1.8770   -0.3265 H   0  0  0  0  0  0  0  0  0  0  0  0
    0.9043   -3.4453    1.9942 H   0  0  0  0  0  0  0  0  0  0  0  0
   -3.1686   -0.2712    1.7836 H   0  0  0  0  0  0  0  0  0  0  0  0
   -2.6705    1.4391    1.8896 H   0  0  0  0  0  0  0  0  0  0  0  0
  1  2  1  0
  2  3  1  0
  3  4  1  0
  4  5  1  0
  4  6  1  0
  4  7  1  0
  3  8  1  0
  8  9  1  0
  9 10  1  0
 10 11  2  0
 10 12  1  0
 12 13  2  0
 13 14  1  0
 14 15  2  0
 15 16  1  0
 16 17  1  0
 16 18  2  0
 18 19  1  0
 19 20  1  0
 20 21  2  0
  9 22  1  0
 22  3  1  0
 21 12  1  0
 19 13  1  0
  1 23  1  0
  1 24  1  0
  1 25  1  0
  8 26  1  0
  8 27  1  0
 15 28  1  0
 17 29  1  0
 17 30  1  0
 17 31  1  0
 18 32  1  0
 21 33  1  0
 22 34  1  0
 22 35  1  0
M  END
$$$$
OCNT-2314637
     RDKit          3D

 49 52  0  0  0  0  0  0  0  0999 V2000
    5.0539    2.4995   -1.3254 C   0  0  0  0  0  0  0  0  0  0  0  0
    3.9541    1.8827   -0.4748 C   0  0  0  0  0  0  0  0  0  0  0  0
    4.0638    0.3554   -0.4421 C   0  0  0  0  0  0  0  0  0  0  0  0
    3.0096   -0.3000    0.4683 C   0  0  0  0  0  0  0  0  0  0  0  0
    1.5502   -0.0052   -0.0161 C   0  0  0  0  0  0  0  0  0  0  0  0
    0.6519   -1.1598    0.2422 N   0  0  0  0  0  0  0  0  0  0  0  0
   -0.7109   -0.8518    0.1017 C   0  0  0  0  0  0  0  0  0  0  0  0
   -1.1510    0.4019    0.3204 N   0  0  0  0  0  0  0  0  0  0  0  0
   -2.4726    0.6651    0.1673 C   0  0  0  0  0  0  0  0  0  0  0  0
   -2.9222    2.0416    0.4185 C   0  0  0  0  0  0  0  0  0  0  0  0
   -4.2618    2.4390    0.2798 C   0  0  0  0  0  0  0  0  0  0  0  0
   -4.6461    3.7568    0.5283 C   0  0  0  0  0  0  0  0  0  0  0  0
   -3.6738    4.6611    0.9147 C   0  0  0  0  0  0  0  0  0  0  0  0
   -2.3740    4.3378    1.0646 N   0  0  0  0  0  0  0  0  0  0  0  0
   -2.0360    3.0449    0.8136 C   0  0  0  0  0  0  0  0  0  0  0  0
   -3.4018   -0.2389   -0.2011 N   0  0  0  0  0  0  0  0  0  0  0  0
   -2.9239   -1.4666   -0.4111 C   0  0  0  0  0  0  0  0  0  0  0  0
   -1.6006   -1.8287   -0.2708 C   0  0  0  0  0  0  0  0  0  0  0  0
   -1.3862   -3.2497   -0.6674 C   0  0  0  0  0  0  0  0  0  0  0  0
   -2.8201   -3.7974   -0.5936 C   0  0  0  0  0  0  0  0  0  0  0  0
   -3.7508   -2.6189   -0.9053 C   0  0  0  0  0  0  0  0  0  0  0  0
    0.9368   -1.7959    1.5429 C   0  0  0  0  0  0  0  0  0  0  0  0
    2.3734   -2.3775    1.5267 C   0  0  0  0  0  0  0  0  0  0  0  0
    3.2959   -1.7549    0.5496 N   0  0  0  0  0  0  0  0  0  0  0  0
    6.0434    2.2499   -0.9292 H   0  0  0  0  0  0  0  0  0  0  0  0
    4.9968    2.1429   -2.3587 H   0  0  0  0  0  0  0  0  0  0  0  0
    4.9580    3.5897   -1.3362 H   0  0  0  0  0  0  0  0  0  0  0  0
    2.9834    2.1885   -0.8797 H   0  0  0  0  0  0  0  0  0  0  0  0
    4.0220    2.2817    0.5439 H   0  0  0  0  0  0  0  0  0  0  0  0
    3.9757   -0.0393   -1.4627 H   0  0  0  0  0  0  0  0  0  0  0  0
    5.0662    0.0833   -0.0852 H   0  0  0  0  0  0  0  0  0  0  0  0
    3.1326    0.1190    1.4768 H   0  0  0  0  0  0  0  0  0  0  0  0
    1.5405    0.1869   -1.0961 H   0  0  0  0  0  0  0  0  0  0  0  0
    1.2129    0.9035    0.4988 H   0  0  0  0  0  0  0  0  0  0  0  0
   -5.0169    1.7169   -0.0254 H   0  0  0  0  0  0  0  0  0  0  0  0
   -5.6797    4.0656    0.4214 H   0  0  0  0  0  0  0  0  0  0  0  0
   -3.9215    5.6985    1.1198 H   0  0  0  0  0  0  0  0  0  0  0  0
   -0.9770    2.8344    0.9485 H   0  0  0  0  0  0  0  0  0  0  0  0
   -0.7241   -3.7966    0.0080 H   0  0  0  0  0  0  0  0  0  0  0  0
   -0.9987   -3.3013   -1.6903 H   0  0  0  0  0  0  0  0  0  0  0  0
   -3.0178   -4.1518    0.4278 H   0  0  0  0  0  0  0  0  0  0  0  0
   -2.9791   -4.6461   -1.2660 H   0  0  0  0  0  0  0  0  0  0  0  0
   -4.7057   -2.7006   -0.3797 H   0  0  0  0  0  0  0  0  0  0  0  0
   -3.9203   -2.5199   -1.9822 H   0  0  0  0  0  0  0  0  0  0  0  0
    0.2339   -2.6045    1.7744 H   0  0  0  0  0  0  0  0  0  0  0  0
    0.8533   -1.0493    2.3446 H   0  0  0  0  0  0  0  0  0  0  0  0
    2.3227   -3.4480    1.2942 H   0  0  0  0  0  0  0  0  0  0  0  0
    2.8029   -2.3048    2.5327 H   0  0  0  0  0  0  0  0  0  0  0  0
    3.0386   -2.1392   -0.3637 H   0  0  0  0  0  0  0  0  0  0  0  0
  1  2  1  0
  2  3  1  0
  3  4  1  0
  4  5  1  0
  5  6  1  0
  6  7  1  0
  7  8  1  0
  8  9  2  0
  9 10  1  0
 10 11  1  0
 11 12  2  0
 12 13  1  0
 13 14  2  0
 14 15  1  0
  9 16  1  0
 16 17  2  0
 17 18  1  0
 18 19  1  0
 19 20  1  0
 20 21  1  0
  6 22  1  0
 22 23  1  0
 23 24  1  0
 24  4  1  0
 18  7  2  0
 15 10  2  0
 21 17  1  0
  1 25  1  0
  1 26  1  0
  1 27  1  0
  2 28  1  0
  2 29  1  0
  3 30  1  0
  3 31  1  0
  4 32  1  0
  5 33  1  0
  5 34  1  0
 11 35  1  0
 12 36  1  0
 13 37  1  0
 15 38  1  0
 19 39  1  0
 19 40  1  0
 20 41  1  0
 20 42  1  0
 21 43  1  0
 21 44  1  0
 22 45  1  0
 22 46  1  0
 23 47  1  0
 23 48  1  0
 24 49  1  0
M  END
$$$$
OCNT-2314639
     RDKit          3D

 38 40  0  0  0  0  0  0  0  0999 V2000
    5.6368   -2.4447   -0.4621 C   0  0  0  0  0  0  0  0  0  0  0  0
    4.5659   -1.5146   -0.0308 C   0  0  0  0  0  0  0  0  0  0  0  0
    3.7034   -0.7254   -0.7636 C   0  0  0  0  0  0  0  0  0  0  0  0
    2.8702   -0.0198    0.1472 C   0  0  0  0  0  0  0  0  0  0  0  0
    1.8245    0.9111   -0.0020 C   0  0  0  0  0  0  0  0  0  0  0  0
    1.1874    1.4374    1.1372 C   0  0  0  0  0  0  0  0  0  0  0  0
    0.0482    2.4113    0.9732 C   0  0  0  0  0  0  0  0  0  0  0  0
   -1.1813    1.7074    0.6764 N   0  0  0  0  0  0  0  0  0  0  0  0
   -1.6729    1.6375   -0.6087 C   0  0  0  0  0  0  0  0  0  0  0  0
   -1.1877    2.2383   -1.5602 O   0  0  0  0  0  0  0  0  0  0  0  0
   -2.8454    0.7439   -0.8213 C   0  0  0  0  0  0  0  0  0  0  0  0
   -3.0329    0.1869   -2.0952 C   0  0  0  0  0  0  0  0  0  0  0  0
   -4.1186   -0.6538   -2.3515 C   0  0  0  0  0  0  0  0  0  0  0  0
   -5.0324   -0.9399   -1.3377 C   0  0  0  0  0  0  0  0  0  0  0  0
   -4.8541   -0.3719   -0.0687 C   0  0  0  0  0  0  0  0  0  0  0  0
   -5.8192   -0.6642    0.9983 N   0  0  0  0  0  0  0  0  0  0  0  0
   -5.5622   -0.2417    2.1347 O   0  0  0  0  0  0  0  0  0  0  0  0
   -6.8283   -1.3185    0.7015 O   0  0  0  0  0  0  0  0  0  0  0  0
   -3.7671    0.4740    0.1970 C   0  0  0  0  0  0  0  0  0  0  0  0
    1.5926    1.0197    2.4116 C   0  0  0  0  0  0  0  0  0  0  0  0
    2.6308    0.0966    2.5825 C   0  0  0  0  0  0  0  0  0  0  0  0
    3.2488   -0.4038    1.4317 C   0  0  0  0  0  0  0  0  0  0  0  0
    4.2786   -1.3072    1.2963 N   0  0  0  0  0  0  0  0  0  0  0  0
    6.6057   -2.1269   -0.0639 H   0  0  0  0  0  0  0  0  0  0  0  0
    5.4313   -3.4594   -0.1065 H   0  0  0  0  0  0  0  0  0  0  0  0
    5.7128   -2.4769   -1.5536 H   0  0  0  0  0  0  0  0  0  0  0  0
    3.6722   -0.6576   -1.8434 H   0  0  0  0  0  0  0  0  0  0  0  0
    1.5099    1.2186   -0.9971 H   0  0  0  0  0  0  0  0  0  0  0  0
   -0.1156    2.9670    1.9031 H   0  0  0  0  0  0  0  0  0  0  0  0
    0.2825    3.1450    0.1940 H   0  0  0  0  0  0  0  0  0  0  0  0
   -1.4685    1.0157    1.3536 H   0  0  0  0  0  0  0  0  0  0  0  0
   -2.3260    0.4083   -2.8944 H   0  0  0  0  0  0  0  0  0  0  0  0
   -4.2498   -1.0818   -3.3433 H   0  0  0  0  0  0  0  0  0  0  0  0
   -5.8738   -1.5965   -1.5520 H   0  0  0  0  0  0  0  0  0  0  0  0
   -3.6579    0.9370    1.1742 H   0  0  0  0  0  0  0  0  0  0  0  0
    1.0996    1.4162    3.2973 H   0  0  0  0  0  0  0  0  0  0  0  0
    2.9399   -0.2160    3.5745 H   0  0  0  0  0  0  0  0  0  0  0  0
    4.7523   -1.7515    2.0703 H   0  0  0  0  0  0  0  0  0  0  0  0
  1  2  1  0
  2  3  2  0
  3  4  1  0
  4  5  2  0
  5  6  1  0
  6  7  1  0
  7  8  1  0
  8  9  1  0
  9 10  2  0
  9 11  1  0
 11 12  1  0
 12 13  2  0
 13 14  1  0
 14 15  2  0
 15 16  1  0
 16 17  2  0
 16 18  1  0
 15 19  1  0
  6 20  2  0
 20 21  1  0
 21 22  2  0
 22 23  1  0
 23  2  1  0
 22  4  1  0
 19 11  2  0
  1 24  1  0
  1 25  1  0
  1 26  1  0
  3 27  1  0
  5 28  1  0
  7 29  1  0
  7 30  1  0
  8 31  1  0
 12 32  1  0
 13 33  1  0
 14 34  1  0
 19 35  1  0
 20 36  1  0
 21 37  1  0
 23 38  1  0
M  CHG  2  16   1  18  -1
M  END
$$$$
OCNT-2314641
     RDKit          3D

 47 50  0  0  0  0  0  0  0  0999 V2000
   -0.1018   -1.9238   -2.8642 O   0  0  0  0  0  0  0  0  0  0  0  0
    0.3077   -1.5242   -1.7780 C   0  0  0  0  0  0  0  0  0  0  0  0
   -0.2498   -0.4458   -1.1348 N   0  0  0  0  0  0  0  0  0  0  0  0
   -1.1962    0.4121   -1.7972 C   0  0  0  0  0  0  0  0  0  0  0  0
   -1.8342    1.2514   -0.7605 C   0  0  0  0  0  0  0  0  0  0  0  0
   -1.5657    2.5397   -0.3455 C   0  0  0  0  0  0  0  0  0  0  0  0
   -2.4151    2.9246    0.6588 N   0  0  0  0  0  0  0  0  0  0  0  0
   -3.2063    1.8940    0.8661 C   0  0  0  0  0  0  0  0  0  0  0  0
   -4.2922    1.7870    1.8810 C   0  0  0  0  0  0  0  0  0  0  0  0
   -5.2517    0.6377    1.5672 C   0  0  0  0  0  0  0  0  0  0  0  0
   -4.4780   -0.6325    1.2130 C   0  0  0  0  0  0  0  0  0  0  0  0
   -3.5956   -0.4091   -0.0157 C   0  0  0  0  0  0  0  0  0  0  0  0
   -2.8830    0.8537    0.0294 N   0  0  0  0  0  0  0  0  0  0  0  0
    1.4434   -2.2241   -1.1008 C   0  0  0  0  0  0  0  0  0  0  0  0
    1.7961   -3.4922   -1.5934 C   0  0  0  0  0  0  0  0  0  0  0  0
    2.8399   -4.2215   -1.0172 C   0  0  0  0  0  0  0  0  0  0  0  0
    3.5455   -3.6951    0.0620 C   0  0  0  0  0  0  0  0  0  0  0  0
    3.2165   -2.4349    0.5576 C   0  0  0  0  0  0  0  0  0  0  0  0
    2.1849   -1.6920   -0.0344 C   0  0  0  0  0  0  0  0  0  0  0  0
    1.8792   -0.4627    0.5018 O   0  0  0  0  0  0  0  0  0  0  0  0
    2.7758    0.5680    0.3058 C   0  0  0  0  0  0  0  0  0  0  0  0
    2.6904    1.6185    1.2230 C   0  0  0  0  0  0  0  0  0  0  0  0
    3.5260    2.7291    1.0985 C   0  0  0  0  0  0  0  0  0  0  0  0
    4.4419    2.7962    0.0498 C   0  0  0  0  0  0  0  0  0  0  0  0
    4.5181    1.7570   -0.8771 C   0  0  0  0  0  0  0  0  0  0  0  0
    3.6822    0.6446   -0.7551 C   0  0  0  0  0  0  0  0  0  0  0  0
    0.2217   -0.0718   -0.3201 H   0  0  0  0  0  0  0  0  0  0  0  0
   -1.9264   -0.1882   -2.3498 H   0  0  0  0  0  0  0  0  0  0  0  0
   -0.6472    1.0234   -2.5211 H   0  0  0  0  0  0  0  0  0  0  0  0
   -0.8006    3.2099   -0.7171 H   0  0  0  0  0  0  0  0  0  0  0  0
   -3.8338    1.6239    2.8638 H   0  0  0  0  0  0  0  0  0  0  0  0
   -4.8491    2.7290    1.9342 H   0  0  0  0  0  0  0  0  0  0  0  0
   -5.9024    0.4556    2.4294 H   0  0  0  0  0  0  0  0  0  0  0  0
   -5.9000    0.9145    0.7260 H   0  0  0  0  0  0  0  0  0  0  0  0
   -3.8532   -0.9251    2.0667 H   0  0  0  0  0  0  0  0  0  0  0  0
   -5.1711   -1.4594    1.0239 H   0  0  0  0  0  0  0  0  0  0  0  0
   -2.8624   -1.2169   -0.1022 H   0  0  0  0  0  0  0  0  0  0  0  0
   -4.2065   -0.3875   -0.9253 H   0  0  0  0  0  0  0  0  0  0  0  0
    1.2501   -3.9235   -2.4315 H   0  0  0  0  0  0  0  0  0  0  0  0
    3.0956   -5.2029   -1.4099 H   0  0  0  0  0  0  0  0  0  0  0  0
    4.3511   -4.2660    0.5173 H   0  0  0  0  0  0  0  0  0  0  0  0
    3.7650   -2.0280    1.4039 H   0  0  0  0  0  0  0  0  0  0  0  0
    1.9702    1.5756    2.0364 H   0  0  0  0  0  0  0  0  0  0  0  0
    3.4577    3.5434    1.8158 H   0  0  0  0  0  0  0  0  0  0  0  0
    5.0910    3.6623   -0.0499 H   0  0  0  0  0  0  0  0  0  0  0  0
    5.2245    1.8161   -1.7016 H   0  0  0  0  0  0  0  0  0  0  0  0
    3.7481   -0.1400   -1.5035 H   0  0  0  0  0  0  0  0  0  0  0  0
  1  2  2  0
  2  3  1  0
  3  4  1  0
  4  5  1  0
  5  6  2  0
  6  7  1  0
  7  8  2  0
  8  9  1  0
  9 10  1  0
 10 11  1  0
 11 12  1  0
 12 13  1  0
  2 14  1  0
 14 15  2  0
 15 16  1  0
 16 17  2  0
 17 18  1  0
 18 19  2  0
 19 20  1  0
 20 21  1  0
 21 22  2  0
 22 23  1  0
 23 24  2  0
 24 25  1  0
 25 26  2  0
 13  5  1  0
 19 14  1  0
 26 21  1  0
 13  8  1  0
  3 27  1  0
  4 28  1  0
  4 29  1  0
  6 30  1  0
  9 31  1  0
  9 32  1  0
 10 33  1  0
 10 34  1  0
 11 35  1  0
 11 36  1  0
 12 37  1  0
 12 38  1  0
 15 39  1  0
 16 40  1  0
 17 41  1  0
 18 42  1  0
 22 43  1  0
 23 44  1  0
 24 45  1  0
 25 46  1  0
 26 47  1  0
M  END
$$$$
OCNT-2314646
     RDKit          3D

 46 48  0  0  0  0  0  0  0  0999 V2000
    2.4361   -1.9135    0.9223 O   0  0  0  0  0  0  0  0  0  0  0  0
    2.0744   -0.6196    1.4220 C   0  0  0  0  0  0  0  0  0  0  0  0
    1.0204    0.0584    0.5136 C   0  0  0  0  0  0  0  0  0  0  0  0
   -0.3423   -0.4717    0.6785 N   0  0  0  0  0  0  0  0  0  0  0  0
   -0.4767   -1.8852    0.3213 C   0  0  0  0  0  0  0  0  0  0  0  0
   -1.9818   -2.0377    0.1614 C   0  0  0  0  0  0  0  0  0  0  0  0
   -2.3691   -0.7914   -0.6393 C   0  0  0  0  0  0  0  0  0  0  0  0
   -2.1025   -1.0892   -2.0250 O   0  0  0  0  0  0  0  0  0  0  0  0
   -3.8176   -0.3353   -0.5539 C   0  0  0  0  0  0  0  0  0  0  0  0
   -4.1811    0.9219   -1.0785 C   0  0  0  0  0  0  0  0  0  0  0  0
   -5.5056    1.3627   -1.0426 C   0  0  0  0  0  0  0  0  0  0  0  0
   -6.4826    0.5454   -0.4933 C   0  0  0  0  0  0  0  0  0  0  0  0
   -7.7541    0.9647   -0.4601 F   0  0  0  0  0  0  0  0  0  0  0  0
   -6.1602   -0.7061    0.0128 C   0  0  0  0  0  0  0  0  0  0  0  0
   -4.8346   -1.1483   -0.0233 C   0  0  0  0  0  0  0  0  0  0  0  0
   -1.3285    0.2559   -0.1517 C   0  0  0  0  0  0  0  0  0  0  0  0
    3.3575    0.2068    1.6158 C   0  0  0  0  0  0  0  0  0  0  0  0
    4.0844    0.5612    0.3123 C   0  0  0  0  0  0  0  0  0  0  0  0
    4.2922   -0.6324   -0.4825 O   0  0  0  0  0  0  0  0  0  0  0  0
    3.5472    1.7885   -0.4860 C   0  0  0  0  0  0  0  0  0  0  0  0
    5.0088    2.2144   -0.7094 C   0  0  0  0  0  0  0  0  0  0  0  0
    5.3742    1.4078    0.5481 C   0  0  0  0  0  0  0  0  0  0  0  0
    2.8450   -1.7567    0.0461 H   0  0  0  0  0  0  0  0  0  0  0  0
    1.6379   -0.7811    2.4153 H   0  0  0  0  0  0  0  0  0  0  0  0
    1.3231   -0.0355   -0.5365 H   0  0  0  0  0  0  0  0  0  0  0  0
    0.9862    1.1245    0.7678 H   0  0  0  0  0  0  0  0  0  0  0  0
    0.0346   -2.1245   -0.6196 H   0  0  0  0  0  0  0  0  0  0  0  0
   -0.1055   -2.5469    1.1096 H   0  0  0  0  0  0  0  0  0  0  0  0
   -2.2302   -2.9718   -0.3536 H   0  0  0  0  0  0  0  0  0  0  0  0
   -2.4478   -2.0460    1.1551 H   0  0  0  0  0  0  0  0  0  0  0  0
   -2.9406   -1.3738   -2.4286 H   0  0  0  0  0  0  0  0  0  0  0  0
   -3.4283    1.5664   -1.5300 H   0  0  0  0  0  0  0  0  0  0  0  0
   -5.7790    2.3334   -1.4436 H   0  0  0  0  0  0  0  0  0  0  0  0
   -6.9419   -1.3331    0.4301 H   0  0  0  0  0  0  0  0  0  0  0  0
   -4.6169   -2.1391    0.3687 H   0  0  0  0  0  0  0  0  0  0  0  0
   -1.7831    1.0249    0.4828 H   0  0  0  0  0  0  0  0  0  0  0  0
   -0.8585    0.7494   -1.0119 H   0  0  0  0  0  0  0  0  0  0  0  0
    3.1146    1.1213    2.1711 H   0  0  0  0  0  0  0  0  0  0  0  0
    4.0451   -0.3736    2.2451 H   0  0  0  0  0  0  0  0  0  0  0  0
    4.9813   -1.1321   -0.0049 H   0  0  0  0  0  0  0  0  0  0  0  0
    2.9684    2.5042    0.1091 H   0  0  0  0  0  0  0  0  0  0  0  0
    2.9951    1.5626   -1.4025 H   0  0  0  0  0  0  0  0  0  0  0  0
    5.2040    3.2884   -0.6588 H   0  0  0  0  0  0  0  0  0  0  0  0
    5.4475    1.8152   -1.6310 H   0  0  0  0  0  0  0  0  0  0  0  0
    6.3215    0.8644    0.4883 H   0  0  0  0  0  0  0  0  0  0  0  0
    5.3693    2.0021    1.4695 H   0  0  0  0  0  0  0  0  0  0  0  0
  1  2  1  0
  2  3  1  0
  3  4  1  0
  4  5  1  0
  5  6  1  0
  6  7  1  0
  7  8  1  0
  7  9  1  0
  9 10  1  0
 10 11  2  0
 11 12  1  0
 12 13  1  0
 12 14  2  0
 14 15  1  0
  7 16  1  0
  2 17  1  0
 17 18  1  0
 18 19  1  0
 18 20  1  0
 20 21  1  0
 21 22  1  0
 16  4  1  0
 22 18  1  0
 15  9  2  0
  1 23  1  0
  2 24  1  0
  3 25  1  0
  3 26  1  0
  5 27  1  0
  5 28  1  0
  6 29  1  0
  6 30  1  0
  8 31  1  0
 10 32  1  0
 11 33  1  0
 14 34  1  0
 15 35  1  0
 16 36  1  0
 16 37  1  0
 17 38  1  0
 17 39  1  0
 19 40  1  0
 20 41  1  0
 20 42  1  0
 21 43  1  0
 21 44  1  0
 22 45  1  0
 22 46  1  0
M  END
$$$$
OCNT-2314654
     RDKit          3D

 37 39  0  0  0  0  0  0  0  0999 V2000
    6.6467   -0.5684    1.9609 C   0  0  0  0  0  0  0  0  0  0  0  0
    5.7899    0.5444    1.7366 O   0  0  0  0  0  0  0  0  0  0  0  0
    4.5666    0.2815    1.1859 C   0  0  0  0  0  0  0  0  0  0  0  0
    4.0814   -0.9741    0.8228 C   0  0  0  0  0  0  0  0  0  0  0  0
    2.8017   -1.1013    0.2654 C   0  0  0  0  0  0  0  0  0  0  0  0
    1.9889    0.0236    0.0631 C   0  0  0  0  0  0  0  0  0  0  0  0
    0.6553   -0.1025   -0.5155 C   0  0  0  0  0  0  0  0  0  0  0  0
    0.1100   -1.2679   -0.9020 N   0  0  0  0  0  0  0  0  0  0  0  0
   -1.1472   -0.9088   -1.3776 O   0  0  0  0  0  0  0  0  0  0  0  0
   -1.2430    0.4429   -1.2376 C   0  0  0  0  0  0  0  0  0  0  0  0
   -2.5094    1.1074   -1.6555 C   0  0  0  0  0  0  0  0  0  0  0  0
   -3.1918    0.4003   -2.8266 C   0  0  0  0  0  0  0  0  0  0  0  0
   -3.4413    1.3336   -0.4550 C   0  0  0  0  0  0  0  0  0  0  0  0
   -4.0275    0.1370    0.1126 N   0  0  0  0  0  0  0  0  0  0  0  0
   -3.4750   -0.6604    1.0744 C   0  0  0  0  0  0  0  0  0  0  0  0
   -4.4122   -1.6408    1.3028 C   0  0  0  0  0  0  0  0  0  0  0  0
   -5.5230   -1.4418    0.5245 N   0  0  0  0  0  0  0  0  0  0  0  0
   -5.2690   -0.3570   -0.1709 C   0  0  0  0  0  0  0  0  0  0  0  0
   -0.1712    0.9865   -0.7095 N   0  0  0  0  0  0  0  0  0  0  0  0
    2.4850    1.2806    0.4308 C   0  0  0  0  0  0  0  0  0  0  0  0
    3.7623    1.4053    0.9867 C   0  0  0  0  0  0  0  0  0  0  0  0
    6.2018   -1.2720    2.6723 H   0  0  0  0  0  0  0  0  0  0  0  0
    6.9026   -1.0656    1.0195 H   0  0  0  0  0  0  0  0  0  0  0  0
    7.5749   -0.1919    2.4015 H   0  0  0  0  0  0  0  0  0  0  0  0
    4.6686   -1.8764    0.9579 H   0  0  0  0  0  0  0  0  0  0  0  0
    2.4475   -2.0937   -0.0089 H   0  0  0  0  0  0  0  0  0  0  0  0
   -2.2251    2.1052   -2.0185 H   0  0  0  0  0  0  0  0  0  0  0  0
   -4.0942    0.9404   -3.1323 H   0  0  0  0  0  0  0  0  0  0  0  0
   -2.5218    0.3525   -3.6927 H   0  0  0  0  0  0  0  0  0  0  0  0
   -3.4786   -0.6279   -2.5814 H   0  0  0  0  0  0  0  0  0  0  0  0
   -4.2720    1.9873   -0.7500 H   0  0  0  0  0  0  0  0  0  0  0  0
   -2.9117    1.8462    0.3585 H   0  0  0  0  0  0  0  0  0  0  0  0
   -2.4960   -0.4846    1.4993 H   0  0  0  0  0  0  0  0  0  0  0  0
   -4.3479   -2.4751    1.9894 H   0  0  0  0  0  0  0  0  0  0  0  0
   -5.9409    0.1006   -0.8855 H   0  0  0  0  0  0  0  0  0  0  0  0
    1.8829    2.1756    0.2879 H   0  0  0  0  0  0  0  0  0  0  0  0
    4.1328    2.3886    1.2667 H   0  0  0  0  0  0  0  0  0  0  0  0
  1  2  1  0
  2  3  1  0
  3  4  1  0
  4  5  2  0
  5  6  1  0
  6  7  1  0
  7  8  2  0
  8  9  1  0
  9 10  1  0
 10 11  1  0
 11 12  1  0
 11 13  1  0
 13 14  1  0
 14 15  1  0
 15 16  2  0
 16 17  1  0
 17 18  2  0
 10 19  2  0
  6 20  2  0
 20 21  1  0
 21  3  2  0
 19  7  1  0
 18 14  1  0
  1 22  1  0
  1 23  1  0
  1 24  1  0
  4 25  1  0
  5 26  1  0
 11 27  1  0
 12 28  1  0
 12 29  1  0
 12 30  1  0
 13 31  1  0
 13 32  1  0
 15 33  1  0
 16 34  1  0
 18 35  1  0
 20 36  1  0
 21 37  1  0
M  END
$$$$
OCNT-2314665
     RDKit          3D

 57 60  0  0  0  0  0  0  0  0999 V2000
    5.8979    0.4203    2.4042 C   0  0  0  0  0  0  0  0  0  0  0  0
    5.4425    0.7857    0.9804 C   0  0  0  0  0  0  0  0  0  0  0  0
    6.4796    1.7674    0.4074 C   0  0  0  0  0  0  0  0  0  0  0  0
    5.2913   -0.4162    0.1246 N   0  0  0  0  0  0  0  0  0  0  0  0
    4.3148   -1.4000    0.6480 C   0  0  0  0  0  0  0  0  0  0  0  0
    2.8377   -0.9446    0.5614 C   0  0  0  0  0  0  0  0  0  0  0  0
    2.4280   -0.5742   -0.8114 N   0  0  0  0  0  0  0  0  0  0  0  0
    1.0539   -0.0476   -0.8462 C   0  0  0  0  0  0  0  0  0  0  0  0
    0.5245    0.2138   -2.2674 C   0  0  0  0  0  0  0  0  0  0  0  0
   -0.9820    0.3180   -2.0666 C   0  0  0  0  0  0  0  0  0  0  0  0
   -1.2641   -0.5576   -0.9434 N   0  0  0  0  0  0  0  0  0  0  0  0
   -2.4940   -1.0240   -0.5262 C   0  0  0  0  0  0  0  0  0  0  0  0
   -2.5899   -1.8301    0.3989 O   0  0  0  0  0  0  0  0  0  0  0  0
   -3.7043   -0.4997   -1.2904 C   0  0  0  0  0  0  0  0  0  0  0  0
   -5.0137   -0.6100   -0.5317 C   0  0  0  0  0  0  0  0  0  0  0  0
   -5.9042   -1.6376   -0.8936 C   0  0  0  0  0  0  0  0  0  0  0  0
   -7.1257   -1.7858   -0.2439 C   0  0  0  0  0  0  0  0  0  0  0  0
   -7.4763   -0.9112    0.7796 C   0  0  0  0  0  0  0  0  0  0  0  0
   -6.6037    0.1174    1.1695 C   0  0  0  0  0  0  0  0  0  0  0  0
   -6.9342    1.0030    2.1992 C   0  0  0  0  0  0  0  0  0  0  0  0
   -6.1476    2.0136    2.6328 N   0  0  0  0  0  0  0  0  0  0  0  0
   -4.9598    2.1453    2.0157 C   0  0  0  0  0  0  0  0  0  0  0  0
   -4.5289    1.3269    0.9811 C   0  0  0  0  0  0  0  0  0  0  0  0
   -5.3568    0.2811    0.5249 C   0  0  0  0  0  0  0  0  0  0  0  0
   -0.0344   -0.9978   -0.3035 C   0  0  0  0  0  0  0  0  0  0  0  0
    3.4027    0.3730   -1.3934 C   0  0  0  0  0  0  0  0  0  0  0  0
    4.8675   -0.1111   -1.2615 C   0  0  0  0  0  0  0  0  0  0  0  0
    6.1385    1.3210    2.9806 H   0  0  0  0  0  0  0  0  0  0  0  0
    6.7920   -0.2131    2.3871 H   0  0  0  0  0  0  0  0  0  0  0  0
    5.1139   -0.1005    2.9622 H   0  0  0  0  0  0  0  0  0  0  0  0
    4.4921    1.3253    1.0675 H   0  0  0  0  0  0  0  0  0  0  0  0
    6.6822    2.5792    1.1157 H   0  0  0  0  0  0  0  0  0  0  0  0
    7.4305    1.2651    0.1958 H   0  0  0  0  0  0  0  0  0  0  0  0
    6.1258    2.2435   -0.5122 H   0  0  0  0  0  0  0  0  0  0  0  0
    4.4250   -2.3266    0.0668 H   0  0  0  0  0  0  0  0  0  0  0  0
    4.5530   -1.6977    1.6737 H   0  0  0  0  0  0  0  0  0  0  0  0
    2.6729   -0.1063    1.2500 H   0  0  0  0  0  0  0  0  0  0  0  0
    2.2207   -1.7788    0.9145 H   0  0  0  0  0  0  0  0  0  0  0  0
    0.9993    0.8945   -0.2806 H   0  0  0  0  0  0  0  0  0  0  0  0
    0.7525   -0.6363   -2.9236 H   0  0  0  0  0  0  0  0  0  0  0  0
    0.9343    1.1189   -2.7253 H   0  0  0  0  0  0  0  0  0  0  0  0
   -1.5456    0.0153   -2.9536 H   0  0  0  0  0  0  0  0  0  0  0  0
   -1.2746    1.3343   -1.7817 H   0  0  0  0  0  0  0  0  0  0  0  0
   -3.5606    0.5484   -1.5741 H   0  0  0  0  0  0  0  0  0  0  0  0
   -3.7648   -1.0651   -2.2289 H   0  0  0  0  0  0  0  0  0  0  0  0
   -5.6440   -2.3381   -1.6847 H   0  0  0  0  0  0  0  0  0  0  0  0
   -7.8015   -2.5868   -0.5319 H   0  0  0  0  0  0  0  0  0  0  0  0
   -8.4336   -1.0418    1.2793 H   0  0  0  0  0  0  0  0  0  0  0  0
   -7.8810    0.9196    2.7269 H   0  0  0  0  0  0  0  0  0  0  0  0
   -4.3341    2.9531    2.3843 H   0  0  0  0  0  0  0  0  0  0  0  0
   -3.5502    1.5105    0.5540 H   0  0  0  0  0  0  0  0  0  0  0  0
   -0.1297   -0.9565    0.7864 H   0  0  0  0  0  0  0  0  0  0  0  0
    0.1408   -2.0373   -0.6060 H   0  0  0  0  0  0  0  0  0  0  0  0
    3.3022    1.3620   -0.9290 H   0  0  0  0  0  0  0  0  0  0  0  0
    3.1992    0.4960   -2.4632 H   0  0  0  0  0  0  0  0  0  0  0  0
    4.9834   -1.0267   -1.8587 H   0  0  0  0  0  0  0  0  0  0  0  0
    5.5406    0.6071   -1.7398 H   0  0  0  0  0  0  0  0  0  0  0  0
  1  2  1  0
  2  3  1  0
  2  4  1  0
  4  5  1  0
  5  6  1  0
  6  7  1  0
  7  8  1  0
  8  9  1  0
  9 10  1  0
 10 11  1  0
 11 12  1  0
 12 13  2  0
 12 14  1  0
 14 15  1  0
 15 16  2  0
 16 17  1  0
 17 18  2  0
 18 19  1  0
 19 20  2  0
 20 21  1  0
 21 22  2  0
 22 23  1  0
 23 24  2  0
 11 25  1  0
  7 26  1  0
 26 27  1  0
 27  4  1  0
 25  8  1  0
 24 15  1  0
 24 19  1  0
  1 28  1  0
  1 29  1  0
  1 30  1  0
  2 31  1  0
  3 32  1  0
  3 33  1  0
  3 34  1  0
  5 35  1  0
  5 36  1  0
  6 37  1  0
  6 38  1  0
  8 39  1  0
  9 40  1  0
  9 41  1  0
 10 42  1  0
 10 43  1  0
 14 44  1  0
 14 45  1  0
 16 46  1  0
 17 47  1  0
 18 48  1  0
 20 49  1  0
 22 50  1  0
 23 51  1  0
 25 52  1  0
 25 53  1  0
 26 54  1  0
 26 55  1  0
 27 56  1  0
 27 57  1  0
M  END
$$$$
OCNT-2314682
     RDKit          3D

 47 50  0  0  0  0  0  0  0  0999 V2000
    2.0898   -0.6950   -2.4063 C   0  0  0  0  0  0  0  0  0  0  0  0
    2.3928   -0.6055   -0.9979 N   0  0  0  0  0  0  0  0  0  0  0  0
    3.6305   -0.3428   -0.4567 C   0  0  0  0  0  0  0  0  0  0  0  0
    4.8908   -0.0982   -1.0141 C   0  0  0  0  0  0  0  0  0  0  0  0
    5.9476    0.1356   -0.1245 C   0  0  0  0  0  0  0  0  0  0  0  0
    5.7602    0.1210    1.2678 C   0  0  0  0  0  0  0  0  0  0  0  0
    6.9135    0.3994    2.1982 C   0  0  0  0  0  0  0  0  0  0  0  0
    6.8016   -0.2322    3.4000 F   0  0  0  0  0  0  0  0  0  0  0  0
    8.1162    0.0101    1.6878 F   0  0  0  0  0  0  0  0  0  0  0  0
    7.0421    1.7249    2.4818 F   0  0  0  0  0  0  0  0  0  0  0  0
    4.4765   -0.1165    1.7932 C   0  0  0  0  0  0  0  0  0  0  0  0
    3.4081   -0.3511    0.9158 C   0  0  0  0  0  0  0  0  0  0  0  0
    2.0924   -0.5999    1.2023 N   0  0  0  0  0  0  0  0  0  0  0  0
    1.4896   -0.7415    0.0356 C   0  0  0  0  0  0  0  0  0  0  0  0
    0.0232   -1.0135   -0.1537 C   0  0  0  0  0  0  0  0  0  0  0  0
   -0.6466    0.0268   -0.9605 N   0  0  0  0  0  0  0  0  0  0  0  0
   -0.7763    1.2925   -0.2152 C   0  0  0  0  0  0  0  0  0  0  0  0
   -2.1134    1.2477    0.5210 C   0  0  0  0  0  0  0  0  0  0  0  0
   -2.8450    0.0255   -0.0359 C   0  0  0  0  0  0  0  0  0  0  0  0
   -4.3252    0.2702   -0.3248 C   0  0  0  0  0  0  0  0  0  0  0  0
   -5.1614    0.5905    0.8987 C   0  0  0  0  0  0  0  0  0  0  0  0
   -6.5620    0.2978    0.4028 C   0  0  0  0  0  0  0  0  0  0  0  0
   -6.4481   -0.7544   -0.5659 O   0  0  0  0  0  0  0  0  0  0  0  0
   -5.0599   -0.9441   -0.8727 C   0  0  0  0  0  0  0  0  0  0  0  0
   -2.0343   -0.3454   -1.2757 C   0  0  0  0  0  0  0  0  0  0  0  0
    1.3398   -1.4722   -2.5702 H   0  0  0  0  0  0  0  0  0  0  0  0
    1.7213    0.2777   -2.7406 H   0  0  0  0  0  0  0  0  0  0  0  0
    2.9925   -0.9635   -2.9600 H   0  0  0  0  0  0  0  0  0  0  0  0
    5.0534   -0.0840   -2.0865 H   0  0  0  0  0  0  0  0  0  0  0  0
    6.9394    0.3323   -0.5331 H   0  0  0  0  0  0  0  0  0  0  0  0
    4.2952   -0.1218    2.8641 H   0  0  0  0  0  0  0  0  0  0  0  0
   -0.0650   -1.9842   -0.6584 H   0  0  0  0  0  0  0  0  0  0  0  0
   -0.4450   -1.1300    0.8317 H   0  0  0  0  0  0  0  0  0  0  0  0
    0.0576    1.5087    0.4609 H   0  0  0  0  0  0  0  0  0  0  0  0
   -0.7985    2.1126   -0.9440 H   0  0  0  0  0  0  0  0  0  0  0  0
   -1.9623    1.1330    1.6004 H   0  0  0  0  0  0  0  0  0  0  0  0
   -2.6665    2.1788    0.3563 H   0  0  0  0  0  0  0  0  0  0  0  0
   -2.7583   -0.7883    0.6979 H   0  0  0  0  0  0  0  0  0  0  0  0
   -4.4331    1.0964   -1.0417 H   0  0  0  0  0  0  0  0  0  0  0  0
   -5.0502    1.6187    1.2539 H   0  0  0  0  0  0  0  0  0  0  0  0
   -4.9107   -0.0858    1.7250 H   0  0  0  0  0  0  0  0  0  0  0  0
   -7.2360   -0.0119    1.2064 H   0  0  0  0  0  0  0  0  0  0  0  0
   -6.9947    1.1690   -0.1003 H   0  0  0  0  0  0  0  0  0  0  0  0
   -4.7371   -1.8739   -0.3911 H   0  0  0  0  0  0  0  0  0  0  0  0
   -4.9404   -1.0533   -1.9547 H   0  0  0  0  0  0  0  0  0  0  0  0
   -2.1418   -1.4014   -1.5478 H   0  0  0  0  0  0  0  0  0  0  0  0
   -2.3625    0.2411   -2.1435 H   0  0  0  0  0  0  0  0  0  0  0  0
  1  2  1  0
  2  3  1  0
  3  4  2  0
  4  5  1  0
  5  6  2  0
  6  7  1  0
  7  8  1  0
  7  9  1  0
  7 10  1  0
  6 11  1  0
 11 12  2  0
 12 13  1  0
 13 14  2  0
 14 15  1  0
 15 16  1  0
 16 17  1  0
 17 18  1  0
 18 19  1  0
 19 20  1  0
 20 21  1  0
 21 22  1  0
 22 23  1  0
 23 24  1  0
 19 25  1  0
 14  2  1  0
 25 16  1  0
 12  3  1  0
 24 20  1  0
  1 26  1  0
  1 27  1  0
  1 28  1  0
  4 29  1  0
  5 30  1  0
 11 31  1  0
 15 32  1  0
 15 33  1  0
 17 34  1  0
 17 35  1  0
 18 36  1  0
 18 37  1  0
 19 38  1  0
 20 39  1  0
 21 40  1  0
 21 41  1  0
 22 42  1  0
 22 43  1  0
 24 44  1  0
 24 45  1  0
 25 46  1  0
 25 47  1  0
M  END
$$$$
OCNT-2314691
     RDKit          3D

 53 56  0  0  0  0  0  0  0  0999 V2000
   -0.6924    1.4365    0.8547 O   0  0  0  0  0  0  0  0  0  0  0  0
   -0.1991    0.4692    0.2727 C   0  0  0  0  0  0  0  0  0  0  0  0
    1.2810    0.4334   -0.0552 C   0  0  0  0  0  0  0  0  0  0  0  0
    1.9993    1.6640    0.4909 C   0  0  0  0  0  0  0  0  0  0  0  0
    3.4422    1.6141    0.1659 C   0  0  0  0  0  0  0  0  0  0  0  0
    4.3790    0.8277    0.6410 N   0  0  0  0  0  0  0  0  0  0  0  0
    5.4993    1.2479   -0.0465 C   0  0  0  0  0  0  0  0  0  0  0  0
    6.8098    0.6462    0.1644 C   0  0  0  0  0  0  0  0  0  0  0  0
    6.9682   -0.3878    1.0919 C   0  0  0  0  0  0  0  0  0  0  0  0
    8.2277   -0.9356    1.2636 C   0  0  0  0  0  0  0  0  0  0  0  0
    9.3202   -0.5291    0.5839 N   0  0  0  0  0  0  0  0  0  0  0  0
    9.1475    0.4715   -0.3056 C   0  0  0  0  0  0  0  0  0  0  0  0
    7.9295    1.0834   -0.5487 C   0  0  0  0  0  0  0  0  0  0  0  0
    5.2596    2.2423   -0.9183 N   0  0  0  0  0  0  0  0  0  0  0  0
    3.8958    2.4870   -0.7769 O   0  0  0  0  0  0  0  0  0  0  0  0
   -0.9616   -0.6385   -0.1069 N   0  0  0  0  0  0  0  0  0  0  0  0
   -0.4982   -1.6354   -1.0786 C   0  0  0  0  0  0  0  0  0  0  0  0
   -1.1035   -3.0139   -0.8386 C   0  0  0  0  0  0  0  0  0  0  0  0
   -2.6207   -2.9524   -0.7260 C   0  0  0  0  0  0  0  0  0  0  0  0
   -3.0225   -1.9508    0.3502 C   0  0  0  0  0  0  0  0  0  0  0  0
   -2.4249   -0.5530    0.1105 C   0  0  0  0  0  0  0  0  0  0  0  0
   -3.1077    0.2233   -1.0439 C   0  0  0  0  0  0  0  0  0  0  0  0
   -4.5423    0.6014   -0.7620 C   0  0  0  0  0  0  0  0  0  0  0  0
   -5.5969   -0.0523   -1.4139 C   0  0  0  0  0  0  0  0  0  0  0  0
   -6.9198    0.2992   -1.1414 C   0  0  0  0  0  0  0  0  0  0  0  0
   -7.1911    1.3033   -0.2205 C   0  0  0  0  0  0  0  0  0  0  0  0
   -8.4977    1.6138    0.0151 O   0  0  0  0  0  0  0  0  0  0  0  0
   -6.1595    1.9661    0.4353 C   0  0  0  0  0  0  0  0  0  0  0  0
   -4.8358    1.6148    0.1629 C   0  0  0  0  0  0  0  0  0  0  0  0
    1.7164   -0.4720    0.3844 H   0  0  0  0  0  0  0  0  0  0  0  0
    1.3999    0.3939   -1.1446 H   0  0  0  0  0  0  0  0  0  0  0  0
    1.8816    1.7194    1.5799 H   0  0  0  0  0  0  0  0  0  0  0  0
    1.5536    2.5781    0.0795 H   0  0  0  0  0  0  0  0  0  0  0  0
    6.1309   -0.7623    1.6727 H   0  0  0  0  0  0  0  0  0  0  0  0
    8.3961   -1.7404    1.9740 H   0  0  0  0  0  0  0  0  0  0  0  0
   10.0442    0.7797   -0.8365 H   0  0  0  0  0  0  0  0  0  0  0  0
    7.8645    1.8833   -1.2799 H   0  0  0  0  0  0  0  0  0  0  0  0
   -0.7667   -1.2666   -2.0756 H   0  0  0  0  0  0  0  0  0  0  0  0
    0.5901   -1.7278   -1.0576 H   0  0  0  0  0  0  0  0  0  0  0  0
   -0.8165   -3.6920   -1.6498 H   0  0  0  0  0  0  0  0  0  0  0  0
   -0.6919   -3.4310    0.0891 H   0  0  0  0  0  0  0  0  0  0  0  0
   -3.0119   -3.9442   -0.4721 H   0  0  0  0  0  0  0  0  0  0  0  0
   -3.0591   -2.6744   -1.6909 H   0  0  0  0  0  0  0  0  0  0  0  0
   -2.6587   -2.3219    1.3180 H   0  0  0  0  0  0  0  0  0  0  0  0
   -4.1134   -1.9070    0.4320 H   0  0  0  0  0  0  0  0  0  0  0  0
   -2.5844    0.0129    1.0378 H   0  0  0  0  0  0  0  0  0  0  0  0
   -3.0497   -0.3474   -1.9787 H   0  0  0  0  0  0  0  0  0  0  0  0
   -2.5557    1.1508   -1.2480 H   0  0  0  0  0  0  0  0  0  0  0  0
   -5.3981   -0.8401   -2.1364 H   0  0  0  0  0  0  0  0  0  0  0  0
   -7.7365   -0.2084   -1.6466 H   0  0  0  0  0  0  0  0  0  0  0  0
   -8.5296    2.3302    0.6701 H   0  0  0  0  0  0  0  0  0  0  0  0
   -6.3612    2.7531    1.1545 H   0  0  0  0  0  0  0  0  0  0  0  0
   -4.0289    2.1377    0.6750 H   0  0  0  0  0  0  0  0  0  0  0  0
  1  2  2  0
  2  3  1  0
  3  4  1  0
  4  5  1  0
  5  6  2  0
  6  7  1  0
  7  8  1  0
  8  9  2  0
  9 10  1  0
 10 11  2  0
 11 12  1  0
 12 13  2  0
  7 14  2  0
 14 15  1  0
  2 16  1  0
 16 17  1  0
 17 18  1  0
 18 19  1  0
 19 20  1  0
 20 21  1  0
 21 22  1  0
 22 23  1  0
 23 24  1  0
 24 25  2  0
 25 26  1  0
 26 27  1  0
 26 28  2  0
 28 29  1  0
 15  5  1  0
 21 16  1  0
 29 23  2  0
 13  8  1  0
  3 30  1  0
  3 31  1  0
  4 32  1  0
  4 33  1  0
  9 34  1  0
 10 35  1  0
 12 36  1  0
 13 37  1  0
 17 38  1  0
 17 39  1  0
 18 40  1  0
 18 41  1  0
 19 42  1  0
 19 43  1  0
 20 44  1  0
 20 45  1  0
 21 46  1  0
 22 47  1  0
 22 48  1  0
 24 49  1  0
 25 50  1  0
 27 51  1  0
 28 52  1  0
 29 53  1  0
M  END
$$$$
OCNT-2314695
     RDKit          3D

 41 43  0  0  0  0  0  0  0  0999 V2000
   -3.2316   -3.2399   -3.0019 F   0  0  0  0  0  0  0  0  0  0  0  0
   -1.9322   -3.1251   -2.6053 C   0  0  0  0  0  0  0  0  0  0  0  0
   -1.1945   -3.1392   -3.7549 F   0  0  0  0  0  0  0  0  0  0  0  0
   -1.6324   -4.2926   -1.9658 F   0  0  0  0  0  0  0  0  0  0  0  0
   -1.6529   -1.9064   -1.7444 C   0  0  0  0  0  0  0  0  0  0  0  0
   -0.3431   -1.4980   -1.5707 C   0  0  0  0  0  0  0  0  0  0  0  0
   -0.1187   -0.4010   -0.7659 C   0  0  0  0  0  0  0  0  0  0  0  0
    1.1947    0.0560   -0.6282 N   0  0  0  0  0  0  0  0  0  0  0  0
    1.4020    1.1822    0.2751 C   0  0  0  0  0  0  0  0  0  0  0  0
    2.8973    1.4246    0.5917 C   0  0  0  0  0  0  0  0  0  0  0  0
    3.4073    0.5365    1.7349 C   0  0  0  0  0  0  0  0  0  0  0  0
    3.5861   -0.9239    1.3289 C   0  0  0  0  0  0  0  0  0  0  0  0
    3.6581   -1.0980   -0.0884 O   0  0  0  0  0  0  0  0  0  0  0  0
    4.4751   -0.1057   -0.7109 C   0  0  0  0  0  0  0  0  0  0  0  0
    3.8219    1.2761   -0.6281 C   0  0  0  0  0  0  0  0  0  0  0  0
   -1.1317    0.2621   -0.1905 N   0  0  0  0  0  0  0  0  0  0  0  0
   -2.3812   -0.1905   -0.3921 C   0  0  0  0  0  0  0  0  0  0  0  0
   -3.4857    0.5295    0.2549 C   0  0  0  0  0  0  0  0  0  0  0  0
   -4.8289    0.1472    0.1089 C   0  0  0  0  0  0  0  0  0  0  0  0
   -5.8471    0.8571    0.7457 C   0  0  0  0  0  0  0  0  0  0  0  0
   -5.4994    1.9453    1.5244 C   0  0  0  0  0  0  0  0  0  0  0  0
   -4.2287    2.3592    1.6998 N   0  0  0  0  0  0  0  0  0  0  0  0
   -3.2629    1.6459    1.0624 C   0  0  0  0  0  0  0  0  0  0  0  0
   -2.6839   -1.2617   -1.1449 N   0  0  0  0  0  0  0  0  0  0  0  0
    0.4791   -2.0116   -2.0566 H   0  0  0  0  0  0  0  0  0  0  0  0
    1.8469   -0.7138   -0.4626 H   0  0  0  0  0  0  0  0  0  0  0  0
    0.8606    1.0439    1.2197 H   0  0  0  0  0  0  0  0  0  0  0  0
    1.0018    2.0850   -0.2041 H   0  0  0  0  0  0  0  0  0  0  0  0
    2.9632    2.4642    0.9417 H   0  0  0  0  0  0  0  0  0  0  0  0
    4.3855    0.9220    2.0526 H   0  0  0  0  0  0  0  0  0  0  0  0
    2.7654    0.6068    2.6206 H   0  0  0  0  0  0  0  0  0  0  0  0
    2.7359   -1.5176    1.6808 H   0  0  0  0  0  0  0  0  0  0  0  0
    4.4862   -1.3477    1.7884 H   0  0  0  0  0  0  0  0  0  0  0  0
    4.6195   -0.3874   -1.7589 H   0  0  0  0  0  0  0  0  0  0  0  0
    5.4650   -0.1032   -0.2378 H   0  0  0  0  0  0  0  0  0  0  0  0
    4.6191    2.0291   -0.5876 H   0  0  0  0  0  0  0  0  0  0  0  0
    3.2698    1.4881   -1.5517 H   0  0  0  0  0  0  0  0  0  0  0  0
   -5.0905   -0.7114   -0.5068 H   0  0  0  0  0  0  0  0  0  0  0  0
   -6.8849    0.5638    0.6340 H   0  0  0  0  0  0  0  0  0  0  0  0
   -6.2543    2.5293    2.0421 H   0  0  0  0  0  0  0  0  0  0  0  0
   -2.2556    2.0208    1.2333 H   0  0  0  0  0  0  0  0  0  0  0  0
  1  2  1  0
  2  3  1  0
  2  4  1  0
  2  5  1  0
  5  6  1  0
  6  7  2  0
  7  8  1  0
  8  9  1  0
  9 10  1  0
 10 11  1  0
 11 12  1  0
 12 13  1  0
 13 14  1  0
 14 15  1  0
  7 16  1  0
 16 17  2  0
 17 18  1  0
 18 19  1  0
 19 20  2  0
 20 21  1  0
 21 22  2  0
 22 23  1  0
 17 24  1  0
 24  5  2  0
 15 10  1  0
 23 18  2  0
  6 25  1  0
  8 26  1  0
  9 27  1  0
  9 28  1  0
 10 29  1  0
 11 30  1  0
 11 31  1  0
 12 32  1  0
 12 33  1  0
 14 34  1  0
 14 35  1  0
 15 36  1  0
 15 37  1  0
 19 38  1  0
 20 39  1  0
 21 40  1  0
 23 41  1  0
M  END
$$$$
OCNT-2314714
     RDKit          3D

 55 57  0  0  0  0  0  0  0  0999 V2000
   -5.2603    2.9093    1.3942 C   0  0  0  0  0  0  0  0  0  0  0  0
   -4.2714    2.4890    0.4581 O   0  0  0  0  0  0  0  0  0  0  0  0
   -4.2623    1.1619    0.1057 C   0  0  0  0  0  0  0  0  0  0  0  0
   -5.1689    0.2186    0.5883 C   0  0  0  0  0  0  0  0  0  0  0  0
   -5.0719   -1.1158    0.2056 C   0  0  0  0  0  0  0  0  0  0  0  0
   -4.0618   -1.5459   -0.6576 C   0  0  0  0  0  0  0  0  0  0  0  0
   -3.9762   -2.9012   -1.0108 C   0  0  0  0  0  0  0  0  0  0  0  0
   -2.9744   -3.3578   -1.8609 C   0  0  0  0  0  0  0  0  0  0  0  0
   -2.0418   -2.4644   -2.3634 C   0  0  0  0  0  0  0  0  0  0  0  0
   -2.1163   -1.1145   -2.0195 C   0  0  0  0  0  0  0  0  0  0  0  0
   -3.1272   -0.6127   -1.1670 C   0  0  0  0  0  0  0  0  0  0  0  0
   -3.2498    0.7623   -0.7933 C   0  0  0  0  0  0  0  0  0  0  0  0
   -2.2774    1.7939   -1.3246 C   0  0  0  0  0  0  0  0  0  0  0  0
   -1.0813    1.8300   -0.5145 N   0  0  0  0  0  0  0  0  0  0  0  0
    0.1608    1.9351   -1.0699 C   0  0  0  0  0  0  0  0  0  0  0  0
    0.3865    1.9287   -2.2705 O   0  0  0  0  0  0  0  0  0  0  0  0
    1.1322    2.0276   -0.1055 N   0  0  0  0  0  0  0  0  0  0  0  0
    2.5376    1.9023   -0.4806 C   0  0  0  0  0  0  0  0  0  0  0  0
    3.4423    2.3762    0.6571 C   0  0  0  0  0  0  0  0  0  0  0  0
    4.0229    1.1022    1.2714 C   0  0  0  0  0  0  0  0  0  0  0  0
    3.1880    0.0223    0.7328 N   0  0  0  0  0  0  0  0  0  0  0  0
    3.6728   -1.3576    0.9374 C   0  0  0  0  0  0  0  0  0  0  0  0
    2.5659   -2.3437    0.5032 C   0  0  0  0  0  0  0  0  0  0  0  0
    3.9249   -1.6001    2.4427 C   0  0  0  0  0  0  0  0  0  0  0  0
    4.9601   -1.7036    0.1610 C   0  0  0  0  0  0  0  0  0  0  0  0
    2.9290    0.4284   -0.6598 C   0  0  0  0  0  0  0  0  0  0  0  0
   -6.2651    2.7993    0.9714 H   0  0  0  0  0  0  0  0  0  0  0  0
   -5.1655    2.3688    2.3470 H   0  0  0  0  0  0  0  0  0  0  0  0
   -5.0952    3.9747    1.6043 H   0  0  0  0  0  0  0  0  0  0  0  0
   -5.9639    0.4801    1.2714 H   0  0  0  0  0  0  0  0  0  0  0  0
   -5.7946   -1.8249    0.6030 H   0  0  0  0  0  0  0  0  0  0  0  0
   -4.6950   -3.6166   -0.6209 H   0  0  0  0  0  0  0  0  0  0  0  0
   -2.9229   -4.4057   -2.1264 H   0  0  0  0  0  0  0  0  0  0  0  0
   -1.2527   -2.8075   -3.0237 H   0  0  0  0  0  0  0  0  0  0  0  0
   -1.3547   -0.4562   -2.4304 H   0  0  0  0  0  0  0  0  0  0  0  0
   -2.0420    1.6079   -2.3749 H   0  0  0  0  0  0  0  0  0  0  0  0
   -2.7081    2.8000   -1.3119 H   0  0  0  0  0  0  0  0  0  0  0  0
   -1.1916    2.1790    0.4271 H   0  0  0  0  0  0  0  0  0  0  0  0
    0.8900    1.5599    0.7610 H   0  0  0  0  0  0  0  0  0  0  0  0
    2.7085    2.4793   -1.3956 H   0  0  0  0  0  0  0  0  0  0  0  0
    2.8949    2.9634    1.4021 H   0  0  0  0  0  0  0  0  0  0  0  0
    4.2540    3.0000    0.2663 H   0  0  0  0  0  0  0  0  0  0  0  0
    3.9946    1.1596    2.3622 H   0  0  0  0  0  0  0  0  0  0  0  0
    5.0690    1.0035    0.9580 H   0  0  0  0  0  0  0  0  0  0  0  0
    2.8354   -3.3748    0.7587 H   0  0  0  0  0  0  0  0  0  0  0  0
    2.3931   -2.3218   -0.5775 H   0  0  0  0  0  0  0  0  0  0  0  0
    1.6127   -2.1209    1.0021 H   0  0  0  0  0  0  0  0  0  0  0  0
    4.1615   -2.6533    2.6354 H   0  0  0  0  0  0  0  0  0  0  0  0
    3.0387   -1.3500    3.0396 H   0  0  0  0  0  0  0  0  0  0  0  0
    4.7669   -1.0091    2.8205 H   0  0  0  0  0  0  0  0  0  0  0  0
    5.7892   -1.0346    0.4157 H   0  0  0  0  0  0  0  0  0  0  0  0
    4.8066   -1.6568   -0.9242 H   0  0  0  0  0  0  0  0  0  0  0  0
    5.2884   -2.7239    0.3912 H   0  0  0  0  0  0  0  0  0  0  0  0
    2.1323   -0.1520   -1.1336 H   0  0  0  0  0  0  0  0  0  0  0  0
    3.8334    0.3621   -1.2779 H   0  0  0  0  0  0  0  0  0  0  0  0
  1  2  1  0
  2  3  1  0
  3  4  1  0
  4  5  2  0
  5  6  1  0
  6  7  2  0
  7  8  1  0
  8  9  2  0
  9 10  1  0
 10 11  2  0
 11 12  1  0
 12 13  1  0
 13 14  1  0
 14 15  1  0
 15 16  2  0
 15 17  1  0
 17 18  1  0
 18 19  1  0
 19 20  1  0
 20 21  1  0
 21 22  1  0
 22 23  1  0
 22 24  1  0
 22 25  1  0
 21 26  1  0
 12  3  2  0
 26 18  1  0
 11  6  1  0
  1 27  1  0
  1 28  1  0
  1 29  1  0
  4 30  1  0
  5 31  1  0
  7 32  1  0
  8 33  1  0
  9 34  1  0
 10 35  1  0
 13 36  1  0
 13 37  1  0
 14 38  1  0
 17 39  1  0
 18 40  1  0
 19 41  1  0
 19 42  1  0
 20 43  1  0
 20 44  1  0
 23 45  1  0
 23 46  1  0
 23 47  1  0
 24 48  1  0
 24 49  1  0
 24 50  1  0
 25 51  1  0
 25 52  1  0
 25 53  1  0
 26 54  1  0
 26 55  1  0
M  END
$$$$
OCNT-2314717
     RDKit          3D

 57 59  0  0  0  0  0  0  0  0999 V2000
   -7.7901    0.5374   -0.9804 C   0  0  0  0  0  0  0  0  0  0  0  0
   -6.2854    0.6938   -1.1636 C   0  0  0  0  0  0  0  0  0  0  0  0
   -5.5678    0.0252   -0.0587 N   0  0  0  0  0  0  0  0  0  0  0  0
   -5.3886   -1.4266   -0.2751 C   0  0  0  0  0  0  0  0  0  0  0  0
   -5.0436   -2.1419    1.0258 C   0  0  0  0  0  0  0  0  0  0  0  0
   -4.2881    0.6367    0.0606 C   0  0  0  0  0  0  0  0  0  0  0  0
   -3.9440    1.1802    1.2967 C   0  0  0  0  0  0  0  0  0  0  0  0
   -2.7013    1.7889    1.4559 C   0  0  0  0  0  0  0  0  0  0  0  0
   -1.8252    1.8539    0.3730 C   0  0  0  0  0  0  0  0  0  0  0  0
   -0.4641    2.4744    0.4922 C   0  0  0  0  0  0  0  0  0  0  0  0
    0.5464    1.4718    0.7554 N   0  0  0  0  0  0  0  0  0  0  0  0
    1.2625    0.9129   -0.2695 C   0  0  0  0  0  0  0  0  0  0  0  0
    1.1378    1.2917   -1.4305 O   0  0  0  0  0  0  0  0  0  0  0  0
    2.1566   -0.0789    0.1031 N   0  0  0  0  0  0  0  0  0  0  0  0
    2.2873   -0.6040    1.4613 C   0  0  0  0  0  0  0  0  0  0  0  0
    3.3864   -1.6546    1.6028 C   0  0  0  0  0  0  0  0  0  0  0  0
    4.6674   -1.1841    0.9063 C   0  0  0  0  0  0  0  0  0  0  0  0
    5.7978   -2.1938    1.1173 C   0  0  0  0  0  0  0  0  0  0  0  0
    4.4135   -0.9313   -0.6042 C   0  0  0  0  0  0  0  0  0  0  0  0
    5.2345    0.1736   -1.0959 N   0  0  0  0  0  0  0  0  0  0  0  0
    6.3671    0.0495   -1.8558 C   0  0  0  0  0  0  0  0  0  0  0  0
    6.8181    1.3357   -2.0359 C   0  0  0  0  0  0  0  0  0  0  0  0
    5.9947    2.2315   -1.4076 N   0  0  0  0  0  0  0  0  0  0  0  0
    5.0436    1.5066   -0.8622 C   0  0  0  0  0  0  0  0  0  0  0  0
    2.9193   -0.7550   -0.9489 C   0  0  0  0  0  0  0  0  0  0  0  0
   -2.2497    1.2840   -0.8220 C   0  0  0  0  0  0  0  0  0  0  0  0
   -3.4516    0.6855   -0.9976 N   0  0  0  0  0  0  0  0  0  0  0  0
   -8.0995   -0.5102   -1.0370 H   0  0  0  0  0  0  0  0  0  0  0  0
   -8.3246    1.0866   -1.7618 H   0  0  0  0  0  0  0  0  0  0  0  0
   -8.1077    0.9289   -0.0085 H   0  0  0  0  0  0  0  0  0  0  0  0
   -5.9833    0.2899   -2.1390 H   0  0  0  0  0  0  0  0  0  0  0  0
   -6.0744    1.7723   -1.1718 H   0  0  0  0  0  0  0  0  0  0  0  0
   -6.3288   -1.8576   -0.6381 H   0  0  0  0  0  0  0  0  0  0  0  0
   -4.6360   -1.6452   -1.0442 H   0  0  0  0  0  0  0  0  0  0  0  0
   -5.7811   -1.9176    1.8041 H   0  0  0  0  0  0  0  0  0  0  0  0
   -4.0579   -1.8488    1.4000 H   0  0  0  0  0  0  0  0  0  0  0  0
   -5.0304   -3.2251    0.8680 H   0  0  0  0  0  0  0  0  0  0  0  0
   -4.6450    1.1255    2.1228 H   0  0  0  0  0  0  0  0  0  0  0  0
   -2.4323    2.2103    2.4202 H   0  0  0  0  0  0  0  0  0  0  0  0
   -0.4431    3.1762    1.3337 H   0  0  0  0  0  0  0  0  0  0  0  0
   -0.2224    3.0490   -0.4093 H   0  0  0  0  0  0  0  0  0  0  0  0
    0.3956    0.9098    1.5751 H   0  0  0  0  0  0  0  0  0  0  0  0
    2.4931    0.2418    2.1277 H   0  0  0  0  0  0  0  0  0  0  0  0
    1.3251   -1.0365    1.7586 H   0  0  0  0  0  0  0  0  0  0  0  0
    3.0520   -2.6041    1.1653 H   0  0  0  0  0  0  0  0  0  0  0  0
    3.5695   -1.8459    2.6666 H   0  0  0  0  0  0  0  0  0  0  0  0
    4.9798   -0.2491    1.3920 H   0  0  0  0  0  0  0  0  0  0  0  0
    6.7275   -1.8437    0.6572 H   0  0  0  0  0  0  0  0  0  0  0  0
    5.5476   -3.1676    0.6824 H   0  0  0  0  0  0  0  0  0  0  0  0
    5.9903   -2.3418    2.1852 H   0  0  0  0  0  0  0  0  0  0  0  0
    4.7495   -1.8061   -1.1791 H   0  0  0  0  0  0  0  0  0  0  0  0
    6.7513   -0.9037   -2.1895 H   0  0  0  0  0  0  0  0  0  0  0  0
    7.6933    1.6640   -2.5815 H   0  0  0  0  0  0  0  0  0  0  0  0
    4.2091    1.8965   -0.2935 H   0  0  0  0  0  0  0  0  0  0  0  0
    2.8040   -0.2539   -1.9165 H   0  0  0  0  0  0  0  0  0  0  0  0
    2.4560   -1.7441   -1.0618 H   0  0  0  0  0  0  0  0  0  0  0  0
   -1.6106    1.2868   -1.7029 H   0  0  0  0  0  0  0  0  0  0  0  0
  1  2  1  0
  2  3  1  0
  3  4  1  0
  4  5  1  0
  3  6  1  0
  6  7  2  0
  7  8  1  0
  8  9  2  0
  9 10  1  0
 10 11  1  0
 11 12  1  0
 12 13  2  0
 12 14  1  0
 14 15  1  0
 15 16  1  0
 16 17  1  0
 17 18  1  0
 17 19  1  0
 19 20  1  0
 20 21  1  0
 21 22  2  0
 22 23  1  0
 23 24  2  0
 19 25  1  0
  9 26  1  0
 26 27  2  0
 27  6  1  0
 25 14  1  0
 24 20  1  0
  1 28  1  0
  1 29  1  0
  1 30  1  0
  2 31  1  0
  2 32  1  0
  4 33  1  0
  4 34  1  0
  5 35  1  0
  5 36  1  0
  5 37  1  0
  7 38  1  0
  8 39  1  0
 10 40  1  0
 10 41  1  0
 11 42  1  0
 15 43  1  0
 15 44  1  0
 16 45  1  0
 16 46  1  0
 17 47  1  0
 18 48  1  0
 18 49  1  0
 18 50  1  0
 19 51  1  0
 21 52  1  0
 22 53  1  0
 24 54  1  0
 25 55  1  0
 25 56  1  0
 26 57  1  0
M  END
$$$$
OCNT-2314724
     RDKit          3D

 40 43  0  0  0  0  0  0  0  0999 V2000
    3.6845    2.8114   -0.3735 C   0  0  0  0  0  0  0  0  0  0  0  0
    2.6192    1.7239   -0.4135 C   0  0  0  0  0  0  0  0  0  0  0  0
    2.1046    1.4094    0.9895 C   0  0  0  0  0  0  0  0  0  0  0  0
    1.0705    0.3730    0.8910 N   0  0  0  0  0  0  0  0  0  0  0  0
   -0.1413    0.5998    1.5310 C   0  0  0  0  0  0  0  0  0  0  0  0
   -0.2275    1.4306    2.4411 O   0  0  0  0  0  0  0  0  0  0  0  0
   -1.4131   -0.0726    1.0037 C   0  0  0  0  0  0  0  0  0  0  0  0
   -2.6435    0.3353    1.8505 C   0  0  0  0  0  0  0  0  0  0  0  0
   -3.9140   -0.3659    1.3607 C   0  0  0  0  0  0  0  0  0  0  0  0
   -4.0304   -0.2977   -0.1162 C   0  0  0  0  0  0  0  0  0  0  0  0
   -5.0804   -0.5328   -0.8715 N   0  0  0  0  0  0  0  0  0  0  0  0
   -4.6942   -0.3806   -2.1873 N   0  0  0  0  0  0  0  0  0  0  0  0
   -3.4202   -0.0601   -2.1981 C   0  0  0  0  0  0  0  0  0  0  0  0
   -2.9680   -0.0016   -0.9218 N   0  0  0  0  0  0  0  0  0  0  0  0
   -1.6416    0.3360   -0.4597 C   0  0  0  0  0  0  0  0  0  0  0  0
    1.4912   -0.7617    0.1386 C   0  0  0  0  0  0  0  0  0  0  0  0
    0.9804   -2.0466    0.3485 C   0  0  0  0  0  0  0  0  0  0  0  0
    1.4337   -3.1326   -0.4090 C   0  0  0  0  0  0  0  0  0  0  0  0
    2.4297   -2.9552   -1.3640 C   0  0  0  0  0  0  0  0  0  0  0  0
    2.9934   -1.6958   -1.5440 C   0  0  0  0  0  0  0  0  0  0  0  0
    2.5374   -0.6086   -0.7940 C   0  0  0  0  0  0  0  0  0  0  0  0
    3.2050    0.5693   -1.0300 O   0  0  0  0  0  0  0  0  0  0  0  0
    4.0523    3.0231   -1.3834 H   0  0  0  0  0  0  0  0  0  0  0  0
    4.5507    2.4897    0.2153 H   0  0  0  0  0  0  0  0  0  0  0  0
    3.2922    3.7382    0.0559 H   0  0  0  0  0  0  0  0  0  0  0  0
    1.7940    2.0620   -1.0545 H   0  0  0  0  0  0  0  0  0  0  0  0
    1.7070    2.3185    1.4531 H   0  0  0  0  0  0  0  0  0  0  0  0
    2.9008    1.0177    1.6354 H   0  0  0  0  0  0  0  0  0  0  0  0
   -1.3420   -1.1558    1.0913 H   0  0  0  0  0  0  0  0  0  0  0  0
   -2.7851    1.4235    1.7962 H   0  0  0  0  0  0  0  0  0  0  0  0
   -2.4805    0.0926    2.9077 H   0  0  0  0  0  0  0  0  0  0  0  0
   -4.7926    0.0892    1.8305 H   0  0  0  0  0  0  0  0  0  0  0  0
   -3.8910   -1.4196    1.6630 H   0  0  0  0  0  0  0  0  0  0  0  0
   -2.8166    0.1315   -3.0736 H   0  0  0  0  0  0  0  0  0  0  0  0
   -0.9320   -0.1586   -1.1302 H   0  0  0  0  0  0  0  0  0  0  0  0
   -1.5301    1.4195   -0.5902 H   0  0  0  0  0  0  0  0  0  0  0  0
    0.2857   -2.2628    1.1517 H   0  0  0  0  0  0  0  0  0  0  0  0
    1.0270   -4.1259   -0.2307 H   0  0  0  0  0  0  0  0  0  0  0  0
    2.7885   -3.8012   -1.9451 H   0  0  0  0  0  0  0  0  0  0  0  0
    3.7962   -1.5586   -2.2642 H   0  0  0  0  0  0  0  0  0  0  0  0
  1  2  1  0
  2  3  1  0
  3  4  1  0
  4  5  1  0
  5  6  2  0
  5  7  1  0
  7  8  1  0
  8  9  1  0
  9 10  1  0
 10 11  2  0
 11 12  1  0
 12 13  2  0
 13 14  1  0
 14 15  1  0
  4 16  1  0
 16 17  2  0
 17 18  1  0
 18 19  2  0
 19 20  1  0
 20 21  2  0
 21 22  1  0
 22  2  1  0
 15  7  1  0
 21 16  1  0
 14 10  1  0
  1 23  1  0
  1 24  1  0
  1 25  1  0
  2 26  1  0
  3 27  1  0
  3 28  1  0
  7 29  1  0
  8 30  1  0
  8 31  1  0
  9 32  1  0
  9 33  1  0
 13 34  1  0
 15 35  1  0
 15 36  1  0
 17 37  1  0
 18 38  1  0
 19 39  1  0
 20 40  1  0
M  END
$$$$
OCNT-2314757
     RDKit          3D

 42 45  0  0  0  0  0  0  0  0999 V2000
   -4.1251    2.9496    1.4963 C   0  0  0  0  0  0  0  0  0  0  0  0
   -3.2900    1.8950    1.0340 O   0  0  0  0  0  0  0  0  0  0  0  0
   -3.8669    0.9691    0.2153 C   0  0  0  0  0  0  0  0  0  0  0  0
   -5.2046    0.9356   -0.1886 C   0  0  0  0  0  0  0  0  0  0  0  0
   -5.6760   -0.0824   -1.0400 C   0  0  0  0  0  0  0  0  0  0  0  0
   -4.8211   -1.0838   -1.5026 C   0  0  0  0  0  0  0  0  0  0  0  0
   -3.4993   -1.0470   -1.0988 C   0  0  0  0  0  0  0  0  0  0  0  0
   -3.0313   -0.0337   -0.2521 C   0  0  0  0  0  0  0  0  0  0  0  0
   -1.5760   -0.2297    0.0261 C   0  0  0  0  0  0  0  0  0  0  0  0
   -1.2456   -1.4598   -0.7053 N   0  0  0  0  0  0  0  0  0  0  0  0
    0.0144   -1.9656   -0.9469 C   0  0  0  0  0  0  0  0  0  0  0  0
    0.2354   -2.8623   -1.7565 O   0  0  0  0  0  0  0  0  0  0  0  0
    1.1583   -1.3969   -0.2164 C   0  0  0  0  0  0  0  0  0  0  0  0
    1.2176   -1.3558    1.1707 C   0  0  0  0  0  0  0  0  0  0  0  0
    2.3515   -0.8147    1.7784 C   0  0  0  0  0  0  0  0  0  0  0  0
    3.4116   -0.3439    0.9947 C   0  0  0  0  0  0  0  0  0  0  0  0
    4.5148    0.2247    1.6817 N   0  0  0  0  0  0  0  0  0  0  0  0
    5.6694    0.8660    1.0388 C   0  0  0  0  0  0  0  0  0  0  0  0
    6.3633    0.3287   -0.1769 C   0  0  0  0  0  0  0  0  0  0  0  0
    5.6280    1.6425   -0.2423 C   0  0  0  0  0  0  0  0  0  0  0  0
    3.3528   -0.3968   -0.3510 N   0  0  0  0  0  0  0  0  0  0  0  0
    2.2493   -0.9341   -0.9292 C   0  0  0  0  0  0  0  0  0  0  0  0
   -2.3877   -1.9806   -1.4527 C   0  0  0  0  0  0  0  0  0  0  0  0
   -4.5092    3.5446    0.6612 H   0  0  0  0  0  0  0  0  0  0  0  0
   -4.9411    2.5633    2.1159 H   0  0  0  0  0  0  0  0  0  0  0  0
   -3.5154    3.6086    2.1220 H   0  0  0  0  0  0  0  0  0  0  0  0
   -5.9164    1.6868    0.1388 H   0  0  0  0  0  0  0  0  0  0  0  0
   -6.7213   -0.0862   -1.3415 H   0  0  0  0  0  0  0  0  0  0  0  0
   -5.1874   -1.8652   -2.1611 H   0  0  0  0  0  0  0  0  0  0  0  0
   -0.9699    0.5959   -0.3587 H   0  0  0  0  0  0  0  0  0  0  0  0
   -1.4004   -0.3841    1.0934 H   0  0  0  0  0  0  0  0  0  0  0  0
    0.4077   -1.7471    1.7782 H   0  0  0  0  0  0  0  0  0  0  0  0
    2.4033   -0.7555    2.8612 H   0  0  0  0  0  0  0  0  0  0  0  0
    4.7723   -0.4103    2.4333 H   0  0  0  0  0  0  0  0  0  0  0  0
    6.3206    1.2876    1.8038 H   0  0  0  0  0  0  0  0  0  0  0  0
    5.9323   -0.5171   -0.6983 H   0  0  0  0  0  0  0  0  0  0  0  0
    7.4460    0.3526   -0.1962 H   0  0  0  0  0  0  0  0  0  0  0  0
    6.2154    2.5508   -0.3021 H   0  0  0  0  0  0  0  0  0  0  0  0
    4.7042    1.6849   -0.8048 H   0  0  0  0  0  0  0  0  0  0  0  0
    2.2720   -0.9733   -2.0150 H   0  0  0  0  0  0  0  0  0  0  0  0
   -2.1670   -1.9558   -2.5246 H   0  0  0  0  0  0  0  0  0  0  0  0
   -2.5884   -3.0049   -1.1243 H   0  0  0  0  0  0  0  0  0  0  0  0
  1  2  1  0
  2  3  1  0
  3  4  1  0
  4  5  2  0
  5  6  1  0
  6  7  2  0
  7  8  1  0
  8  9  1  0
  9 10  1  0
 10 11  1  0
 11 12  2  0
 11 13  1  0
 13 14  2  0
 14 15  1  0
 15 16  2  0
 16 17  1  0
 17 18  1  0
 18 19  1  0
 19 20  1  0
 16 21  1  0
 21 22  2  0
 10 23  1  0
  8  3  2  0
 22 13  1  0
 23  7  1  0
 20 18  1  0
  1 24  1  0
  1 25  1  0
  1 26  1  0
  4 27  1  0
  5 28  1  0
  6 29  1  0
  9 30  1  0
  9 31  1  0
 14 32  1  0
 15 33  1  0
 17 34  1  0
 18 35  1  0
 19 36  1  0
 19 37  1  0
 20 38  1  0
 20 39  1  0
 22 40  1  0
 23 41  1  0
 23 42  1  0
M  END
$$$$
OCNT-2314762
     RDKit          3D

 38 41  0  0  0  0  0  0  0  0999 V2000
    7.1257   -0.5866    0.6043 C   0  0  0  0  0  0  0  0  0  0  0  0
    7.1896    0.1063   -0.6030 C   0  0  0  0  0  0  0  0  0  0  0  0
    6.0289    0.5591   -1.2376 C   0  0  0  0  0  0  0  0  0  0  0  0
    4.8049    0.2898   -0.6147 C   0  0  0  0  0  0  0  0  0  0  0  0
    3.5222    0.6076   -0.9986 N   0  0  0  0  0  0  0  0  0  0  0  0
    2.6239    0.1409   -0.0779 C   0  0  0  0  0  0  0  0  0  0  0  0
    1.1028    0.3276   -0.2085 C   0  0  0  0  0  0  0  0  0  0  0  0
    0.1427   -0.1092    0.6700 C   0  0  0  0  0  0  0  0  0  0  0  0
   -1.0211    0.3060    0.0974 N   0  0  0  0  0  0  0  0  0  0  0  0
   -2.3716    0.1107    0.5815 C   0  0  0  0  0  0  0  0  0  0  0  0
   -3.1544   -0.8730   -0.2886 C   0  0  0  0  0  0  0  0  0  0  0  0
   -4.5112   -1.2433    0.3077 C   0  0  0  0  0  0  0  0  0  0  0  0
   -5.3995   -0.1157    0.4875 N   0  0  0  0  0  0  0  0  0  0  0  0
   -5.9885    0.6173   -0.5030 C   0  0  0  0  0  0  0  0  0  0  0  0
   -6.7226    1.5757    0.1562 C   0  0  0  0  0  0  0  0  0  0  0  0
   -6.6006    1.4318    1.5143 N   0  0  0  0  0  0  0  0  0  0  0  0
   -5.8088    0.3979    1.6843 C   0  0  0  0  0  0  0  0  0  0  0  0
   -0.8015    0.9567   -1.0586 N   0  0  0  0  0  0  0  0  0  0  0  0
    0.5105    0.9739   -1.2577 N   0  0  0  0  0  0  0  0  0  0  0  0
    3.3265   -0.4888    0.9231 C   0  0  0  0  0  0  0  0  0  0  0  0
    4.7095   -0.4017    0.5943 C   0  0  0  0  0  0  0  0  0  0  0  0
    5.8929   -0.8474    1.2141 C   0  0  0  0  0  0  0  0  0  0  0  0
    8.0419   -0.9285    1.0795 H   0  0  0  0  0  0  0  0  0  0  0  0
    8.1576    0.2992   -1.0602 H   0  0  0  0  0  0  0  0  0  0  0  0
    6.0821    1.0989   -2.1774 H   0  0  0  0  0  0  0  0  0  0  0  0
    3.2697    1.1132   -1.8367 H   0  0  0  0  0  0  0  0  0  0  0  0
    0.1875   -0.6490    1.6029 H   0  0  0  0  0  0  0  0  0  0  0  0
   -2.3021   -0.2551    1.6123 H   0  0  0  0  0  0  0  0  0  0  0  0
   -2.8471    1.0975    0.6041 H   0  0  0  0  0  0  0  0  0  0  0  0
   -3.2899   -0.4497   -1.2920 H   0  0  0  0  0  0  0  0  0  0  0  0
   -2.5709   -1.7933   -0.4193 H   0  0  0  0  0  0  0  0  0  0  0  0
   -5.0287   -1.9536   -0.3477 H   0  0  0  0  0  0  0  0  0  0  0  0
   -4.3803   -1.7316    1.2803 H   0  0  0  0  0  0  0  0  0  0  0  0
   -5.8420    0.4147   -1.5549 H   0  0  0  0  0  0  0  0  0  0  0  0
   -7.3326    2.3597   -0.2741 H   0  0  0  0  0  0  0  0  0  0  0  0
   -5.5051   -0.0073    2.6409 H   0  0  0  0  0  0  0  0  0  0  0  0
    2.9068   -0.9631    1.7994 H   0  0  0  0  0  0  0  0  0  0  0  0
    5.8528   -1.3875    2.1552 H   0  0  0  0  0  0  0  0  0  0  0  0
  1  2  2  0
  2  3  1  0
  3  4  2  0
  4  5  1  0
  5  6  1  0
  6  7  1  0
  7  8  2  0
  8  9  1  0
  9 10  1  0
 10 11  1  0
 11 12  1  0
 12 13  1  0
 13 14  1  0
 14 15  2  0
 15 16  1  0
 16 17  2  0
  9 18  1  0
 18 19  2  0
  6 20  2  0
 20 21  1  0
 21 22  2  0
 22  1  1  0
 21  4  1  0
 19  7  1  0
 17 13  1  0
  1 23  1  0
  2 24  1  0
  3 25  1  0
  5 26  1  0
  8 27  1  0
 10 28  1  0
 10 29  1  0
 11 30  1  0
 11 31  1  0
 12 32  1  0
 12 33  1  0
 14 34  1  0
 15 35  1  0
 17 36  1  0
 20 37  1  0
 22 38  1  0
M  END
$$$$
OCNT-2314763
     RDKit          3D

 57 59  0  0  0  0  0  0  0  0999 V2000
    6.2504   -1.0862   -1.2963 C   0  0  0  0  0  0  0  0  0  0  0  0
    5.5292   -1.8282   -0.2111 C   0  0  0  0  0  0  0  0  0  0  0  0
    6.2507   -2.6266    0.6763 C   0  0  0  0  0  0  0  0  0  0  0  0
    5.7048   -3.3350    1.6890 N   0  0  0  0  0  0  0  0  0  0  0  0
    4.3694   -3.2489    1.8349 C   0  0  0  0  0  0  0  0  0  0  0  0
    3.5556   -2.4943    1.0076 C   0  0  0  0  0  0  0  0  0  0  0  0
    4.1339   -1.7734   -0.0471 C   0  0  0  0  0  0  0  0  0  0  0  0
    3.2377   -0.9369   -0.9264 C   0  0  0  0  0  0  0  0  0  0  0  0
    2.9627    0.3363   -0.2975 N   0  0  0  0  0  0  0  0  0  0  0  0
    1.7606    0.6072    0.3134 C   0  0  0  0  0  0  0  0  0  0  0  0
    0.7950   -0.1497    0.2592 O   0  0  0  0  0  0  0  0  0  0  0  0
    1.7147    1.9733    1.0051 C   0  0  0  0  0  0  0  0  0  0  0  0
    0.5694    2.0841    2.0282 C   0  0  0  0  0  0  0  0  0  0  0  0
   -0.5979    2.9677    1.5711 C   0  0  0  0  0  0  0  0  0  0  0  0
   -0.9168    2.8060    0.0825 C   0  0  0  0  0  0  0  0  0  0  0  0
   -1.4256    1.4678   -0.1907 N   0  0  0  0  0  0  0  0  0  0  0  0
   -2.7439    1.1331    0.0457 C   0  0  0  0  0  0  0  0  0  0  0  0
   -3.5983    1.9467    0.3799 O   0  0  0  0  0  0  0  0  0  0  0  0
   -3.0115   -0.3505   -0.1408 C   0  0  0  0  0  0  0  0  0  0  0  0
   -4.4957   -0.7043   -0.0700 C   0  0  0  0  0  0  0  0  0  0  0  0
   -4.7411   -2.2147   -0.0726 C   0  0  0  0  0  0  0  0  0  0  0  0
   -6.1782   -2.3849   -0.5631 C   0  0  0  0  0  0  0  0  0  0  0  0
   -6.5818   -1.0498   -1.1875 C   0  0  0  0  0  0  0  0  0  0  0  0
   -5.2951   -0.2438   -1.2884 C   0  0  0  0  0  0  0  0  0  0  0  0
    0.3079    3.1179   -0.7946 C   0  0  0  0  0  0  0  0  0  0  0  0
    1.6453    3.0861   -0.0439 C   0  0  0  0  0  0  0  0  0  0  0  0
    7.3370   -1.1879   -1.1991 H   0  0  0  0  0  0  0  0  0  0  0  0
    6.0178   -0.0163   -1.2495 H   0  0  0  0  0  0  0  0  0  0  0  0
    5.9660   -1.4793   -2.2787 H   0  0  0  0  0  0  0  0  0  0  0  0
    7.3317   -2.7225    0.5980 H   0  0  0  0  0  0  0  0  0  0  0  0
    3.9532   -3.8196    2.6604 H   0  0  0  0  0  0  0  0  0  0  0  0
    2.4838   -2.4645    1.1850 H   0  0  0  0  0  0  0  0  0  0  0  0
    3.7039   -0.7287   -1.8941 H   0  0  0  0  0  0  0  0  0  0  0  0
    2.3076   -1.4786   -1.1384 H   0  0  0  0  0  0  0  0  0  0  0  0
    3.7489    0.9506   -0.1284 H   0  0  0  0  0  0  0  0  0  0  0  0
    2.6584    2.0656    1.5594 H   0  0  0  0  0  0  0  0  0  0  0  0
    0.9648    2.5134    2.9584 H   0  0  0  0  0  0  0  0  0  0  0  0
    0.1904    1.0928    2.3048 H   0  0  0  0  0  0  0  0  0  0  0  0
   -1.4779    2.7465    2.1875 H   0  0  0  0  0  0  0  0  0  0  0  0
   -0.3454    4.0185    1.7665 H   0  0  0  0  0  0  0  0  0  0  0  0
   -1.7155    3.5097   -0.1821 H   0  0  0  0  0  0  0  0  0  0  0  0
   -0.7563    0.6962   -0.1861 H   0  0  0  0  0  0  0  0  0  0  0  0
   -2.4712   -0.8794    0.6535 H   0  0  0  0  0  0  0  0  0  0  0  0
   -2.5885   -0.6660   -1.1016 H   0  0  0  0  0  0  0  0  0  0  0  0
   -4.9425   -0.2749    0.8381 H   0  0  0  0  0  0  0  0  0  0  0  0
   -4.5972   -2.6556    0.9200 H   0  0  0  0  0  0  0  0  0  0  0  0
   -4.0550   -2.7219   -0.7635 H   0  0  0  0  0  0  0  0  0  0  0  0
   -6.8490   -2.6342    0.2664 H   0  0  0  0  0  0  0  0  0  0  0  0
   -6.2424   -3.2012   -1.2925 H   0  0  0  0  0  0  0  0  0  0  0  0
   -7.0647   -1.1758   -2.1625 H   0  0  0  0  0  0  0  0  0  0  0  0
   -7.2942   -0.5369   -0.5290 H   0  0  0  0  0  0  0  0  0  0  0  0
   -4.7702   -0.4916   -2.2191 H   0  0  0  0  0  0  0  0  0  0  0  0
   -5.4911    0.8325   -1.2852 H   0  0  0  0  0  0  0  0  0  0  0  0
    0.3502    2.4353   -1.6531 H   0  0  0  0  0  0  0  0  0  0  0  0
    0.1940    4.1236   -1.2192 H   0  0  0  0  0  0  0  0  0  0  0  0
    2.4608    3.0002   -0.7713 H   0  0  0  0  0  0  0  0  0  0  0  0
    1.7911    4.0513    0.4591 H   0  0  0  0  0  0  0  0  0  0  0  0
  1  2  1  0
  2  3  2  0
  3  4  1  0
  4  5  2  0
  5  6  1  0
  6  7  2  0
  7  8  1  0
  8  9  1  0
  9 10  1  0
 10 11  2  0
 10 12  1  0
 12 13  1  0
 13 14  1  0
 14 15  1  0
 15 16  1  0
 16 17  1  0
 17 18  2  0
 17 19  1  0
 19 20  1  0
 20 21  1  0
 21 22  1  0
 22 23  1  0
 23 24  1  0
 15 25  1  0
 25 26  1  0
  7  2  1  0
 26 12  1  0
 24 20  1  0
  1 27  1  0
  1 28  1  0
  1 29  1  0
  3 30  1  0
  5 31  1  0
  6 32  1  0
  8 33  1  0
  8 34  1  0
  9 35  1  0
 12 36  1  0
 13 37  1  0
 13 38  1  0
 14 39  1  0
 14 40  1  0
 15 41  1  0
 16 42  1  0
 19 43  1  0
 19 44  1  0
 20 45  1  0
 21 46  1  0
 21 47  1  0
 22 48  1  0
 22 49  1  0
 23 50  1  0
 23 51  1  0
 24 52  1  0
 24 53  1  0
 25 54  1  0
 25 55  1  0
 26 56  1  0
 26 57  1  0
M  END
$$$$
OCNT-2314770
     RDKit          3D

 50 53  0  0  0  0  0  0  0  0999 V2000
    6.6571   -0.8061    0.3057 C   0  0  0  0  0  0  0  0  0  0  0  0
    5.3902   -0.2137   -0.3136 C   0  0  0  0  0  0  0  0  0  0  0  0
    5.6412    1.2155   -0.7973 C   0  0  0  0  0  0  0  0  0  0  0  0
    4.2225   -0.2861    0.6266 C   0  0  0  0  0  0  0  0  0  0  0  0
    4.2382    0.3507    1.8022 N   0  0  0  0  0  0  0  0  0  0  0  0
    2.7757    0.0335    2.5369 S   0  0  0  0  0  0  0  0  0  0  0  0
    2.2088   -0.9319    1.2323 C   0  0  0  0  0  0  0  0  0  0  0  0
    0.8537   -1.5784    1.2692 C   0  0  0  0  0  0  0  0  0  0  0  0
   -0.1236   -0.9430    0.3763 N   0  0  0  0  0  0  0  0  0  0  0  0
   -0.4937    0.4243    0.7511 C   0  0  0  0  0  0  0  0  0  0  0  0
   -1.7633    0.6703   -0.0896 C   0  0  0  0  0  0  0  0  0  0  0  0
   -1.3772    1.0550   -1.5329 C   0  0  0  0  0  0  0  0  0  0  0  0
   -2.4643    0.7546   -2.5563 C   0  0  0  0  0  0  0  0  0  0  0  0
   -2.8740   -0.7095   -2.4837 C   0  0  0  0  0  0  0  0  0  0  0  0
   -3.4420   -1.0362   -1.1090 C   0  0  0  0  0  0  0  0  0  0  0  0
   -2.4918   -0.6809    0.0531 C   0  0  0  0  0  0  0  0  0  0  0  0
   -3.2973   -0.4591    1.3495 C   0  0  0  0  0  0  0  0  0  0  0  0
   -3.7795    0.9146    1.1933 N   0  0  0  0  0  0  0  0  0  0  0  0
   -4.2715    1.4925    2.4330 C   0  0  0  0  0  0  0  0  0  0  0  0
   -2.6956    1.6965    0.5798 C   0  0  0  0  0  0  0  0  0  0  0  0
   -1.3692   -1.7152    0.2527 C   0  0  0  0  0  0  0  0  0  0  0  0
    3.1052   -1.0337    0.2701 N   0  0  0  0  0  0  0  0  0  0  0  0
    6.4868   -1.8382    0.6320 H   0  0  0  0  0  0  0  0  0  0  0  0
    6.9869   -0.2317    1.1787 H   0  0  0  0  0  0  0  0  0  0  0  0
    7.4768   -0.8140   -0.4206 H   0  0  0  0  0  0  0  0  0  0  0  0
    5.1449   -0.8188   -1.1966 H   0  0  0  0  0  0  0  0  0  0  0  0
    4.7422    1.6338   -1.2637 H   0  0  0  0  0  0  0  0  0  0  0  0
    6.4465    1.2382   -1.5392 H   0  0  0  0  0  0  0  0  0  0  0  0
    5.9257    1.8774    0.0284 H   0  0  0  0  0  0  0  0  0  0  0  0
    0.9958   -2.6197    0.9506 H   0  0  0  0  0  0  0  0  0  0  0  0
    0.4693   -1.6194    2.2966 H   0  0  0  0  0  0  0  0  0  0  0  0
   -0.6925    0.5007    1.8275 H   0  0  0  0  0  0  0  0  0  0  0  0
    0.2947    1.1435    0.5028 H   0  0  0  0  0  0  0  0  0  0  0  0
   -1.1163    2.1198   -1.5764 H   0  0  0  0  0  0  0  0  0  0  0  0
   -0.4727    0.5158   -1.8440 H   0  0  0  0  0  0  0  0  0  0  0  0
   -2.0913    0.9817   -3.5615 H   0  0  0  0  0  0  0  0  0  0  0  0
   -3.3350    1.3986   -2.3867 H   0  0  0  0  0  0  0  0  0  0  0  0
   -3.6303   -0.9170   -3.2493 H   0  0  0  0  0  0  0  0  0  0  0  0
   -2.0140   -1.3529   -2.7029 H   0  0  0  0  0  0  0  0  0  0  0  0
   -4.3913   -0.4941   -1.0066 H   0  0  0  0  0  0  0  0  0  0  0  0
   -3.7029   -2.1009   -1.0633 H   0  0  0  0  0  0  0  0  0  0  0  0
   -2.6708   -0.5618    2.2448 H   0  0  0  0  0  0  0  0  0  0  0  0
   -4.1284   -1.1672    1.4410 H   0  0  0  0  0  0  0  0  0  0  0  0
   -5.1039    0.8998    2.8274 H   0  0  0  0  0  0  0  0  0  0  0  0
   -3.4935    1.5466    3.2028 H   0  0  0  0  0  0  0  0  0  0  0  0
   -4.6539    2.5039    2.2582 H   0  0  0  0  0  0  0  0  0  0  0  0
   -2.1440    2.2972    1.3138 H   0  0  0  0  0  0  0  0  0  0  0  0
   -3.1350    2.3901   -0.1449 H   0  0  0  0  0  0  0  0  0  0  0  0
   -1.5685   -2.3323    1.1378 H   0  0  0  0  0  0  0  0  0  0  0  0
   -1.2747   -2.3927   -0.6025 H   0  0  0  0  0  0  0  0  0  0  0  0
  1  2  1  0
  2  3  1  0
  2  4  1  0
  4  5  2  0
  5  6  1  0
  6  7  1  0
  7  8  1  0
  8  9  1  0
  9 10  1  0
 10 11  1  0
 11 12  1  0
 12 13  1  0
 13 14  1  0
 14 15  1  0
 15 16  1  0
 16 17  1  0
 17 18  1  0
 18 19  1  0
 18 20  1  0
 16 21  1  0
  7 22  2  0
 22  4  1  0
 21  9  1  0
 16 11  1  0
 20 11  1  0
  1 23  1  0
  1 24  1  0
  1 25  1  0
  2 26  1  0
  3 27  1  0
  3 28  1  0
  3 29  1  0
  8 30  1  0
  8 31  1  0
 10 32  1  0
 10 33  1  0
 12 34  1  0
 12 35  1  0
 13 36  1  0
 13 37  1  0
 14 38  1  0
 14 39  1  0
 15 40  1  0
 15 41  1  0
 17 42  1  0
 17 43  1  0
 19 44  1  0
 19 45  1  0
 19 46  1  0
 20 47  1  0
 20 48  1  0
 21 49  1  0
 21 50  1  0
M  END
$$$$
OCNT-2314771
     RDKit          3D

 37 39  0  0  0  0  0  0  0  0999 V2000
   -5.4235    1.2784    2.5610 C   0  0  0  0  0  0  0  0  0  0  0  0
   -5.2584    0.8140    1.1351 C   0  0  0  0  0  0  0  0  0  0  0  0
   -6.2284    0.7182    0.3919 O   0  0  0  0  0  0  0  0  0  0  0  0
   -3.9361    0.5628    0.8175 N   0  0  0  0  0  0  0  0  0  0  0  0
   -3.4171    0.1213   -0.4176 C   0  0  0  0  0  0  0  0  0  0  0  0
   -4.1958   -0.1472   -1.5405 C   0  0  0  0  0  0  0  0  0  0  0  0
   -3.5968   -0.5812   -2.7245 C   0  0  0  0  0  0  0  0  0  0  0  0
   -2.2123   -0.7528   -2.7965 C   0  0  0  0  0  0  0  0  0  0  0  0
   -1.4009   -0.4946   -1.6830 C   0  0  0  0  0  0  0  0  0  0  0  0
    0.0688   -0.6521   -1.6860 C   0  0  0  0  0  0  0  0  0  0  0  0
    0.8464   -0.2586   -0.6934 N   0  0  0  0  0  0  0  0  0  0  0  0
    2.1786   -0.5575   -0.9534 C   0  0  0  0  0  0  0  0  0  0  0  0
    3.2244   -0.1951    0.0014 C   0  0  0  0  0  0  0  0  0  0  0  0
    3.0233    0.9463    0.7975 C   0  0  0  0  0  0  0  0  0  0  0  0
    3.9803    1.3519    1.7301 C   0  0  0  0  0  0  0  0  0  0  0  0
    5.1469    0.6156    1.8798 C   0  0  0  0  0  0  0  0  0  0  0  0
    6.0537    1.0498    2.8008 O   0  0  0  0  0  0  0  0  0  0  0  0
    5.3733   -0.5252    1.1161 C   0  0  0  0  0  0  0  0  0  0  0  0
    4.4103   -0.9287    0.1827 C   0  0  0  0  0  0  0  0  0  0  0  0
    4.6381   -2.0700   -0.5418 O   0  0  0  0  0  0  0  0  0  0  0  0
    2.3982   -1.1547   -2.1770 C   0  0  0  0  0  0  0  0  0  0  0  0
    0.9147   -1.3860   -2.9968 S   0  0  0  0  0  0  0  0  0  0  0  0
   -2.0281   -0.0545   -0.5006 C   0  0  0  0  0  0  0  0  0  0  0  0
   -4.7365    0.7486    3.2272 H   0  0  0  0  0  0  0  0  0  0  0  0
   -6.4446    1.0718    2.8942 H   0  0  0  0  0  0  0  0  0  0  0  0
   -5.2339    2.3536    2.6158 H   0  0  0  0  0  0  0  0  0  0  0  0
   -3.2544    0.7188    1.5499 H   0  0  0  0  0  0  0  0  0  0  0  0
   -5.2748   -0.0287   -1.5308 H   0  0  0  0  0  0  0  0  0  0  0  0
   -4.2155   -0.7850   -3.5955 H   0  0  0  0  0  0  0  0  0  0  0  0
   -1.7914   -1.0865   -3.7413 H   0  0  0  0  0  0  0  0  0  0  0  0
    2.1120    1.5320    0.6892 H   0  0  0  0  0  0  0  0  0  0  0  0
    3.8119    2.2388    2.3345 H   0  0  0  0  0  0  0  0  0  0  0  0
    6.8197    0.4533    2.8014 H   0  0  0  0  0  0  0  0  0  0  0  0
    6.2867   -1.0946    1.2457 H   0  0  0  0  0  0  0  0  0  0  0  0
    5.4358   -2.5115   -0.2079 H   0  0  0  0  0  0  0  0  0  0  0  0
    3.3318   -1.4610   -2.6255 H   0  0  0  0  0  0  0  0  0  0  0  0
   -1.4063    0.1506    0.3699 H   0  0  0  0  0  0  0  0  0  0  0  0
  1  2  1  0
  2  3  2  0
  2  4  1  0
  4  5  1  0
  5  6  2  0
  6  7  1  0
  7  8  2  0
  8  9  1  0
  9 10  1  0
 10 11  2  0
 11 12  1  0
 12 13  1  0
 13 14  1  0
 14 15  2  0
 15 16  1  0
 16 17  1  0
 16 18  2  0
 18 19  1  0
 19 20  1  0
 12 21  2  0
 21 22  1  0
  9 23  2  0
 23  5  1  0
 22 10  1  0
 19 13  2  0
  1 24  1  0
  1 25  1  0
  1 26  1  0
  4 27  1  0
  6 28  1  0
  7 29  1  0
  8 30  1  0
 14 31  1  0
 15 32  1  0
 17 33  1  0
 18 34  1  0
 20 35  1  0
 21 36  1  0
 23 37  1  0
M  END
$$$$
OCNT-2314773
     RDKit          3D

 44 45  0  0  0  0  0  0  0  0999 V2000
   -2.2810   -0.2528   -2.4264 C   0  0  0  0  0  0  0  0  0  0  0  0
   -3.2141   -0.7515   -1.3186 C   0  0  0  0  0  0  0  0  0  0  0  0
   -4.1611    0.3456   -0.8307 C   0  0  0  0  0  0  0  0  0  0  0  0
   -3.4322    1.3781    0.0212 C   0  0  0  0  0  0  0  0  0  0  0  0
   -2.6071    0.7331    1.1560 C   0  0  0  0  0  0  0  0  0  0  0  0
   -1.8905    1.8680    1.9048 C   0  0  0  0  0  0  0  0  0  0  0  0
   -1.6710   -0.2787    0.6043 N   0  0  0  0  0  0  0  0  0  0  0  0
   -0.8580   -0.9378    1.6682 C   0  0  0  0  0  0  0  0  0  0  0  0
    0.3549   -1.6717    1.0736 C   0  0  0  0  0  0  0  0  0  0  0  0
    0.8915   -2.6214    1.6374 O   0  0  0  0  0  0  0  0  0  0  0  0
    0.8134   -1.1213   -0.1007 N   0  0  0  0  0  0  0  0  0  0  0  0
    2.0033   -1.5661   -0.7753 C   0  0  0  0  0  0  0  0  0  0  0  0
    3.1613   -0.6493   -0.4735 C   0  0  0  0  0  0  0  0  0  0  0  0
    3.8971   -0.8117    0.7097 C   0  0  0  0  0  0  0  0  0  0  0  0
    4.9573    0.0467    1.0105 C   0  0  0  0  0  0  0  0  0  0  0  0
    5.2894    1.0827    0.1331 C   0  0  0  0  0  0  0  0  0  0  0  0
    6.3755    1.9664    0.4404 C   0  0  0  0  0  0  0  0  0  0  0  0
    7.2538    2.6845    0.6858 N   0  0  0  0  0  0  0  0  0  0  0  0
    4.5544    1.2573   -1.0440 C   0  0  0  0  0  0  0  0  0  0  0  0
    3.4935    0.3981   -1.3437 C   0  0  0  0  0  0  0  0  0  0  0  0
   -2.4291   -1.3222   -0.1289 C   0  0  0  0  0  0  0  0  0  0  0  0
   -1.6522   -1.0708   -2.7941 H   0  0  0  0  0  0  0  0  0  0  0  0
   -2.8600    0.1280   -3.2744 H   0  0  0  0  0  0  0  0  0  0  0  0
   -1.6177    0.5482   -2.0861 H   0  0  0  0  0  0  0  0  0  0  0  0
   -3.8224   -1.5589   -1.7464 H   0  0  0  0  0  0  0  0  0  0  0  0
   -4.6538    0.8378   -1.6771 H   0  0  0  0  0  0  0  0  0  0  0  0
   -4.9560   -0.1116   -0.2275 H   0  0  0  0  0  0  0  0  0  0  0  0
   -4.1732    2.0662    0.4471 H   0  0  0  0  0  0  0  0  0  0  0  0
   -2.7792    1.9855   -0.6187 H   0  0  0  0  0  0  0  0  0  0  0  0
   -3.3009    0.2488    1.8572 H   0  0  0  0  0  0  0  0  0  0  0  0
   -2.5884    2.6797    2.1401 H   0  0  0  0  0  0  0  0  0  0  0  0
   -1.0779    2.2912    1.3039 H   0  0  0  0  0  0  0  0  0  0  0  0
   -1.4757    1.5310    2.8592 H   0  0  0  0  0  0  0  0  0  0  0  0
   -0.4194   -0.2071    2.3534 H   0  0  0  0  0  0  0  0  0  0  0  0
   -1.4603   -1.6427    2.2526 H   0  0  0  0  0  0  0  0  0  0  0  0
    0.2965   -0.3162   -0.4427 H   0  0  0  0  0  0  0  0  0  0  0  0
    2.2493   -2.5942   -0.4865 H   0  0  0  0  0  0  0  0  0  0  0  0
    1.7890   -1.5732   -1.8496 H   0  0  0  0  0  0  0  0  0  0  0  0
    3.6380   -1.6094    1.4058 H   0  0  0  0  0  0  0  0  0  0  0  0
    5.5150   -0.0987    1.9337 H   0  0  0  0  0  0  0  0  0  0  0  0
    4.7999    2.0634   -1.7330 H   0  0  0  0  0  0  0  0  0  0  0  0
    2.9272    0.5523   -2.2600 H   0  0  0  0  0  0  0  0  0  0  0  0
   -3.1267   -1.8297    0.5519 H   0  0  0  0  0  0  0  0  0  0  0  0
   -1.7521   -2.0951   -0.5120 H   0  0  0  0  0  0  0  0  0  0  0  0
  1  2  1  0
  2  3  1  0
  3  4  1  0
  4  5  1  0
  5  6  1  0
  5  7  1  0
  7  8  1  0
  8  9  1  0
  9 10  2  0
  9 11  1  0
 11 12  1  0
 12 13  1  0
 13 14  1  0
 14 15  2  0
 15 16  1  0
 16 17  1  0
 17 18  3  0
 16 19  2  0
 19 20  1  0
  7 21  1  0
 21  2  1  0
 20 13  2  0
  1 22  1  0
  1 23  1  0
  1 24  1  0
  2 25  1  0
  3 26  1  0
  3 27  1  0
  4 28  1  0
  4 29  1  0
  5 30  1  0
  6 31  1  0
  6 32  1  0
  6 33  1  0
  8 34  1  0
  8 35  1  0
 11 36  1  0
 12 37  1  0
 12 38  1  0
 14 39  1  0
 15 40  1  0
 19 41  1  0
 20 42  1  0
 21 43  1  0
 21 44  1  0
M  END
$$$$
OCNT-2314777
     RDKit          3D

 40 43  0  0  0  0  0  0  0  0999 V2000
    5.7622    0.2065   -1.7133 C   0  0  0  0  0  0  0  0  0  0  0  0
    4.9478   -0.8126   -1.2548 C   0  0  0  0  0  0  0  0  0  0  0  0
    3.7570   -0.6486   -0.6486 N   0  0  0  0  0  0  0  0  0  0  0  0
    3.3350    0.6458   -0.4830 C   0  0  0  0  0  0  0  0  0  0  0  0
    4.1097    1.7211   -0.9240 C   0  0  0  0  0  0  0  0  0  0  0  0
    5.3456    1.5217   -1.5508 C   0  0  0  0  0  0  0  0  0  0  0  0
    3.2766    3.1619   -0.5549 S   0  0  0  0  0  0  0  0  0  0  0  0
    1.9680    2.4567    0.1425 N   0  0  0  0  0  0  0  0  0  0  0  0
    2.0906    1.1250    0.1387 C   0  0  0  0  0  0  0  0  0  0  0  0
    1.1126    0.3022    0.6629 N   0  0  0  0  0  0  0  0  0  0  0  0
    1.3294   -1.1394    0.8185 C   0  0  0  0  0  0  0  0  0  0  0  0
    0.1486   -1.8236    1.5122 C   0  0  0  0  0  0  0  0  0  0  0  0
   -1.1679   -1.3519    0.9073 C   0  0  0  0  0  0  0  0  0  0  0  0
   -1.3289    0.1807    0.9996 C   0  0  0  0  0  0  0  0  0  0  0  0
   -1.8802    0.7801   -0.3128 C   0  0  0  0  0  0  0  0  0  0  0  0
   -3.2806    0.3299   -0.6404 C   0  0  0  0  0  0  0  0  0  0  0  0
   -4.3737    0.7739    0.0988 C   0  0  0  0  0  0  0  0  0  0  0  0
   -5.6531    0.4047   -0.1367 N   0  0  0  0  0  0  0  0  0  0  0  0
   -5.8571   -0.4461   -1.1643 C   0  0  0  0  0  0  0  0  0  0  0  0
   -4.8429   -0.9439   -1.9649 C   0  0  0  0  0  0  0  0  0  0  0  0
   -3.5361   -0.5475   -1.6968 C   0  0  0  0  0  0  0  0  0  0  0  0
   -0.0134    0.8794    1.3969 C   0  0  0  0  0  0  0  0  0  0  0  0
    6.7095   -0.0199   -2.1917 H   0  0  0  0  0  0  0  0  0  0  0  0
    5.2546   -1.8498   -1.3723 H   0  0  0  0  0  0  0  0  0  0  0  0
    5.9489    2.3551   -1.8942 H   0  0  0  0  0  0  0  0  0  0  0  0
    2.2338   -1.3342    1.4069 H   0  0  0  0  0  0  0  0  0  0  0  0
    1.4466   -1.5972   -0.1709 H   0  0  0  0  0  0  0  0  0  0  0  0
    0.1623   -1.6056    2.5873 H   0  0  0  0  0  0  0  0  0  0  0  0
    0.2421   -2.9110    1.4122 H   0  0  0  0  0  0  0  0  0  0  0  0
   -2.0063   -1.8404    1.4179 H   0  0  0  0  0  0  0  0  0  0  0  0
   -1.2044   -1.6871   -0.1365 H   0  0  0  0  0  0  0  0  0  0  0  0
   -2.0485    0.3961    1.8015 H   0  0  0  0  0  0  0  0  0  0  0  0
   -1.2061    0.5425   -1.1462 H   0  0  0  0  0  0  0  0  0  0  0  0
   -1.8929    1.8762   -0.2474 H   0  0  0  0  0  0  0  0  0  0  0  0
   -4.2488    1.4638    0.9292 H   0  0  0  0  0  0  0  0  0  0  0  0
   -6.8925   -0.7263   -1.3342 H   0  0  0  0  0  0  0  0  0  0  0  0
   -5.0647   -1.6243   -2.7790 H   0  0  0  0  0  0  0  0  0  0  0  0
   -2.7230   -0.9254   -2.3114 H   0  0  0  0  0  0  0  0  0  0  0  0
    0.1655    0.7521    2.4728 H   0  0  0  0  0  0  0  0  0  0  0  0
   -0.1249    1.9594    1.2457 H   0  0  0  0  0  0  0  0  0  0  0  0
  1  2  2  0
  2  3  1  0
  3  4  2  0
  4  5  1  0
  5  6  2  0
  5  7  1  0
  7  8  1  0
  8  9  2  0
  9 10  1  0
 10 11  1  0
 11 12  1  0
 12 13  1  0
 13 14  1  0
 14 15  1  0
 15 16  1  0
 16 17  2  0
 17 18  1  0
 18 19  2  0
 19 20  1  0
 20 21  2  0
 14 22  1  0
  6  1  1  0
 22 10  1  0
  9  4  1  0
 21 16  1  0
  1 23  1  0
  2 24  1  0
  6 25  1  0
 11 26  1  0
 11 27  1  0
 12 28  1  0
 12 29  1  0
 13 30  1  0
 13 31  1  0
 14 32  1  0
 15 33  1  0
 15 34  1  0
 17 35  1  0
 19 36  1  0
 20 37  1  0
 21 38  1  0
 22 39  1  0
 22 40  1  0
M  END
$$$$
OCNT-2314781
     RDKit          3D

 52 56  0  0  0  0  0  0  0  0999 V2000
    1.4340    0.4923   -2.2617 O   0  0  0  0  0  0  0  0  0  0  0  0
    1.5333    0.3224   -1.0450 C   0  0  0  0  0  0  0  0  0  0  0  0
    2.7634    0.3387   -0.4154 N   0  0  0  0  0  0  0  0  0  0  0  0
    2.9591    0.7921    0.9676 C   0  0  0  0  0  0  0  0  0  0  0  0
    4.2606    1.5658    1.2043 C   0  0  0  0  0  0  0  0  0  0  0  0
    5.4216    0.7784    0.6648 C   0  0  0  0  0  0  0  0  0  0  0  0
    6.6504    0.7104    1.3260 C   0  0  0  0  0  0  0  0  0  0  0  0
    7.6970   -0.0252    0.7704 C   0  0  0  0  0  0  0  0  0  0  0  0
    7.5232   -0.6809   -0.4487 C   0  0  0  0  0  0  0  0  0  0  0  0
    6.3023   -0.6016   -1.1200 C   0  0  0  0  0  0  0  0  0  0  0  0
    5.2422    0.1226   -0.5646 C   0  0  0  0  0  0  0  0  0  0  0  0
    3.9330    0.2894   -1.2955 C   0  0  0  0  0  0  0  0  0  0  0  0
    0.4125    0.0976   -0.2763 N   0  0  0  0  0  0  0  0  0  0  0  0
    0.3535   -0.7241    0.9274 C   0  0  0  0  0  0  0  0  0  0  0  0
   -1.0387   -1.3472    0.9188 C   0  0  0  0  0  0  0  0  0  0  0  0
   -1.8700   -0.2979    0.1756 C   0  0  0  0  0  0  0  0  0  0  0  0
   -3.1436   -0.7645   -0.3128 N   0  0  0  0  0  0  0  0  0  0  0  0
   -3.3525   -1.8303   -1.1521 C   0  0  0  0  0  0  0  0  0  0  0  0
   -4.6308   -2.0276   -1.3941 N   0  0  0  0  0  0  0  0  0  0  0  0
   -5.2732   -1.0502   -0.6932 C   0  0  0  0  0  0  0  0  0  0  0  0
   -4.3767   -0.2462   -0.0248 C   0  0  0  0  0  0  0  0  0  0  0  0
   -4.7291    0.9061    0.8428 C   0  0  0  0  0  0  0  0  0  0  0  0
   -6.1999    1.3072    0.5995 C   0  0  0  0  0  0  0  0  0  0  0  0
   -7.1391    0.0877    0.4874 C   0  0  0  0  0  0  0  0  0  0  0  0
   -6.7435   -0.8520   -0.6702 C   0  0  0  0  0  0  0  0  0  0  0  0
   -0.9009    0.1677   -0.9081 C   0  0  0  0  0  0  0  0  0  0  0  0
    2.1151    1.4196    1.2723 H   0  0  0  0  0  0  0  0  0  0  0  0
    2.9634   -0.1084    1.5933 H   0  0  0  0  0  0  0  0  0  0  0  0
    4.2263    2.5359    0.6941 H   0  0  0  0  0  0  0  0  0  0  0  0
    4.3796    1.7542    2.2771 H   0  0  0  0  0  0  0  0  0  0  0  0
    6.8003    1.2249    2.2717 H   0  0  0  0  0  0  0  0  0  0  0  0
    8.6527   -0.0833    1.2849 H   0  0  0  0  0  0  0  0  0  0  0  0
    8.3440   -1.2470   -0.8816 H   0  0  0  0  0  0  0  0  0  0  0  0
    6.1858   -1.1015   -2.0788 H   0  0  0  0  0  0  0  0  0  0  0  0
    3.9670    1.2251   -1.8681 H   0  0  0  0  0  0  0  0  0  0  0  0
    3.7857   -0.5322   -2.0073 H   0  0  0  0  0  0  0  0  0  0  0  0
    1.1414   -1.4827    0.9352 H   0  0  0  0  0  0  0  0  0  0  0  0
    0.4599   -0.0661    1.7953 H   0  0  0  0  0  0  0  0  0  0  0  0
   -1.4116   -1.5505    1.9273 H   0  0  0  0  0  0  0  0  0  0  0  0
   -1.0129   -2.2986    0.3741 H   0  0  0  0  0  0  0  0  0  0  0  0
   -2.0545    0.5364    0.8645 H   0  0  0  0  0  0  0  0  0  0  0  0
   -2.5462   -2.4288   -1.5563 H   0  0  0  0  0  0  0  0  0  0  0  0
   -4.0809    1.7664    0.6454 H   0  0  0  0  0  0  0  0  0  0  0  0
   -4.5982    0.6185    1.8926 H   0  0  0  0  0  0  0  0  0  0  0  0
   -6.5362    1.9637    1.4102 H   0  0  0  0  0  0  0  0  0  0  0  0
   -6.2675    1.8884   -0.3297 H   0  0  0  0  0  0  0  0  0  0  0  0
   -7.1092   -0.4680    1.4335 H   0  0  0  0  0  0  0  0  0  0  0  0
   -8.1725    0.4237    0.3467 H   0  0  0  0  0  0  0  0  0  0  0  0
   -7.0558   -0.4092   -1.6231 H   0  0  0  0  0  0  0  0  0  0  0  0
   -7.2609   -1.8114   -0.5639 H   0  0  0  0  0  0  0  0  0  0  0  0
   -1.0988    1.1909   -1.2437 H   0  0  0  0  0  0  0  0  0  0  0  0
   -0.9038   -0.4907   -1.7850 H   0  0  0  0  0  0  0  0  0  0  0  0
  1  2  2  0
  2  3  1  0
  3  4  1  0
  4  5  1  0
  5  6  1  0
  6  7  2  0
  7  8  1  0
  8  9  2  0
  9 10  1  0
 10 11  2  0
 11 12  1  0
  2 13  1  0
 13 14  1  0
 14 15  1  0
 15 16  1  0
 16 17  1  0
 17 18  1  0
 18 19  2  0
 19 20  1  0
 20 21  2  0
 21 22  1  0
 22 23  1  0
 23 24  1  0
 24 25  1  0
 16 26  1  0
 12  3  1  0
 26 13  1  0
 11  6  1  0
 21 17  1  0
 25 20  1  0
  4 27  1  0
  4 28  1  0
  5 29  1  0
  5 30  1  0
  7 31  1  0
  8 32  1  0
  9 33  1  0
 10 34  1  0
 12 35  1  0
 12 36  1  0
 14 37  1  0
 14 38  1  0
 15 39  1  0
 15 40  1  0
 16 41  1  0
 18 42  1  0
 22 43  1  0
 22 44  1  0
 23 45  1  0
 23 46  1  0
 24 47  1  0
 24 48  1  0
 25 49  1  0
 25 50  1  0
 26 51  1  0
 26 52  1  0
M  END
$$$$
OCNT-2314790
     RDKit          3D

 54 56  0  0  0  0  0  0  0  0999 V2000
   -7.3008    1.3766    0.8064 C   0  0  0  0  0  0  0  0  0  0  0  0
   -5.8169    1.0724    0.6118 C   0  0  0  0  0  0  0  0  0  0  0  0
   -5.4994    0.7694   -0.8538 C   0  0  0  0  0  0  0  0  0  0  0  0
   -3.9958    0.5906   -1.0860 C   0  0  0  0  0  0  0  0  0  0  0  0
   -3.2436    0.0284    0.1379 C   0  0  0  0  0  0  0  0  0  0  0  0
   -1.9822   -0.6250   -0.2696 N   0  0  0  0  0  0  0  0  0  0  0  0
   -2.0372   -2.0266   -0.6760 C   0  0  0  0  0  0  0  0  0  0  0  0
   -0.8626    0.2003   -0.4641 C   0  0  0  0  0  0  0  0  0  0  0  0
   -0.9318    1.4195   -0.2887 O   0  0  0  0  0  0  0  0  0  0  0  0
    0.4510   -0.4992   -0.8831 C   0  0  0  0  0  0  0  0  0  0  0  0
    1.6169    0.4082   -0.8763 N   0  0  0  0  0  0  0  0  0  0  0  0
    2.7631   -0.2082   -1.5710 C   0  0  0  0  0  0  0  0  0  0  0  0
    4.1132    0.4928   -1.2919 C   0  0  0  0  0  0  0  0  0  0  0  0
    4.4222    0.5119    0.1473 N   0  0  0  0  0  0  0  0  0  0  0  0
    5.6685    0.0741    0.5761 C   0  0  0  0  0  0  0  0  0  0  0  0
    6.8308    0.4349   -0.1161 C   0  0  0  0  0  0  0  0  0  0  0  0
    8.0820    0.0085    0.3332 C   0  0  0  0  0  0  0  0  0  0  0  0
    8.1470   -0.7644    1.4749 C   0  0  0  0  0  0  0  0  0  0  0  0
    9.3265   -1.1923    1.9412 F   0  0  0  0  0  0  0  0  0  0  0  0
    6.9718   -1.0769    2.1251 C   0  0  0  0  0  0  0  0  0  0  0  0
    5.7482   -0.6730    1.7031 N   0  0  0  0  0  0  0  0  0  0  0  0
    3.2934    0.2463    1.0526 C   0  0  0  0  0  0  0  0  0  0  0  0
    1.9868    0.8535    0.4890 C   0  0  0  0  0  0  0  0  0  0  0  0
   -4.1616   -0.8580    0.9892 C   0  0  0  0  0  0  0  0  0  0  0  0
   -5.3718   -0.0841    1.5233 C   0  0  0  0  0  0  0  0  0  0  0  0
   -7.5150    1.6073    1.8551 H   0  0  0  0  0  0  0  0  0  0  0  0
   -7.6018    2.2406    0.2047 H   0  0  0  0  0  0  0  0  0  0  0  0
   -7.9240    0.5259    0.5107 H   0  0  0  0  0  0  0  0  0  0  0  0
   -5.2569    1.9721    0.9009 H   0  0  0  0  0  0  0  0  0  0  0  0
   -5.8707    1.5695   -1.5055 H   0  0  0  0  0  0  0  0  0  0  0  0
   -6.0224   -0.1466   -1.1592 H   0  0  0  0  0  0  0  0  0  0  0  0
   -3.8556   -0.0492   -1.9657 H   0  0  0  0  0  0  0  0  0  0  0  0
   -3.5532    1.5590   -1.3531 H   0  0  0  0  0  0  0  0  0  0  0  0
   -2.9683    0.8828    0.7718 H   0  0  0  0  0  0  0  0  0  0  0  0
   -1.1056   -2.3835   -1.1140 H   0  0  0  0  0  0  0  0  0  0  0  0
   -2.2591   -2.6415    0.2008 H   0  0  0  0  0  0  0  0  0  0  0  0
   -2.8273   -2.1506   -1.4229 H   0  0  0  0  0  0  0  0  0  0  0  0
    0.2934   -0.8597   -1.9066 H   0  0  0  0  0  0  0  0  0  0  0  0
    0.6373   -1.3515   -0.2196 H   0  0  0  0  0  0  0  0  0  0  0  0
    2.5744   -0.1883   -2.6509 H   0  0  0  0  0  0  0  0  0  0  0  0
    2.8608   -1.2634   -1.2800 H   0  0  0  0  0  0  0  0  0  0  0  0
    4.8812   -0.0324   -1.8725 H   0  0  0  0  0  0  0  0  0  0  0  0
    4.0761    1.5265   -1.6558 H   0  0  0  0  0  0  0  0  0  0  0  0
    6.7735    1.0732   -0.9917 H   0  0  0  0  0  0  0  0  0  0  0  0
    8.9887    0.2852   -0.1926 H   0  0  0  0  0  0  0  0  0  0  0  0
    6.9816   -1.6753    3.0292 H   0  0  0  0  0  0  0  0  0  0  0  0
    3.1555   -0.8339    1.1937 H   0  0  0  0  0  0  0  0  0  0  0  0
    3.4848    0.6976    2.0341 H   0  0  0  0  0  0  0  0  0  0  0  0
    1.1815    0.6756    1.2115 H   0  0  0  0  0  0  0  0  0  0  0  0
    2.1123    1.9429    0.4401 H   0  0  0  0  0  0  0  0  0  0  0  0
   -3.6092   -1.2910    1.8315 H   0  0  0  0  0  0  0  0  0  0  0  0
   -4.5254   -1.7030    0.3910 H   0  0  0  0  0  0  0  0  0  0  0  0
   -5.1322    0.3270    2.5121 H   0  0  0  0  0  0  0  0  0  0  0  0
   -6.1918   -0.7953    1.6836 H   0  0  0  0  0  0  0  0  0  0  0  0
  1  2  1  0
  2  3  1  0
  3  4  1  0
  4  5  1  0
  5  6  1  0
  6  7  1  0
  6  8  1  0
  8  9  2  0
  8 10  1  0
 10 11  1  0
 11 12  1  0
 12 13  1  0
 13 14  1  0
 14 15  1  0
 15 16  2  0
 16 17  1  0
 17 18  2  0
 18 19  1  0
 18 20  1  0
 20 21  2  0
 14 22  1  0
 22 23  1  0
  5 24  1  0
 24 25  1  0
 25  2  1  0
 23 11  1  0
 21 15  1  0
  1 26  1  0
  1 27  1  0
  1 28  1  0
  2 29  1  0
  3 30  1  0
  3 31  1  0
  4 32  1  0
  4 33  1  0
  5 34  1  0
  7 35  1  0
  7 36  1  0
  7 37  1  0
 10 38  1  0
 10 39  1  0
 12 40  1  0
 12 41  1  0
 13 42  1  0
 13 43  1  0
 16 44  1  0
 17 45  1  0
 20 46  1  0
 22 47  1  0
 22 48  1  0
 23 49  1  0
 23 50  1  0
 24 51  1  0
 24 52  1  0
 25 53  1  0
 25 54  1  0
M  END
$$$$
OCNT-2314795
     RDKit          3D

 41 43  0  0  0  0  0  0  0  0999 V2000
    3.2001    2.2641   -1.5321 C   0  0  0  0  0  0  0  0  0  0  0  0
    2.2121    2.0871   -0.3779 C   0  0  0  0  0  0  0  0  0  0  0  0
    2.8539    1.4138    0.8512 C   0  0  0  0  0  0  0  0  0  0  0  0
    3.4330    0.0368    0.6211 C   0  0  0  0  0  0  0  0  0  0  0  0
    2.6105   -1.1005    0.6349 C   0  0  0  0  0  0  0  0  0  0  0  0
    3.1529   -2.3679    0.4155 C   0  0  0  0  0  0  0  0  0  0  0  0
    4.5162   -2.5008    0.1859 C   0  0  0  0  0  0  0  0  0  0  0  0
    5.0357   -3.7179   -0.0218 F   0  0  0  0  0  0  0  0  0  0  0  0
    5.3490   -1.3896    0.1709 C   0  0  0  0  0  0  0  0  0  0  0  0
    4.8089   -0.1212    0.3884 C   0  0  0  0  0  0  0  0  0  0  0  0
    0.9408    1.3678   -0.8393 C   0  0  0  0  0  0  0  0  0  0  0  0
    0.8620    0.8170   -1.9315 O   0  0  0  0  0  0  0  0  0  0  0  0
   -0.0798    1.4280    0.0974 N   0  0  0  0  0  0  0  0  0  0  0  0
   -1.3516    0.8255   -0.0040 C   0  0  0  0  0  0  0  0  0  0  0  0
   -2.2564    1.0410    1.0366 C   0  0  0  0  0  0  0  0  0  0  0  0
   -3.5300    0.4644    0.9983 C   0  0  0  0  0  0  0  0  0  0  0  0
   -3.8728   -0.3270   -0.0931 C   0  0  0  0  0  0  0  0  0  0  0  0
   -5.1565   -0.9352   -0.1771 N   0  0  0  0  0  0  0  0  0  0  0  0
   -5.6006   -1.7364   -1.2082 C   0  0  0  0  0  0  0  0  0  0  0  0
   -6.8830   -2.1020   -0.8801 C   0  0  0  0  0  0  0  0  0  0  0  0
   -7.2503   -1.5557    0.3187 N   0  0  0  0  0  0  0  0  0  0  0  0
   -6.2023   -0.8651    0.7147 C   0  0  0  0  0  0  0  0  0  0  0  0
   -3.0106   -0.5543   -1.1152 N   0  0  0  0  0  0  0  0  0  0  0  0
   -1.7808    0.0208   -1.0524 C   0  0  0  0  0  0  0  0  0  0  0  0
    4.0975    2.7966   -1.2005 H   0  0  0  0  0  0  0  0  0  0  0  0
    3.5062    1.3050   -1.9626 H   0  0  0  0  0  0  0  0  0  0  0  0
    2.7439    2.8479   -2.3396 H   0  0  0  0  0  0  0  0  0  0  0  0
    1.8990    3.0959   -0.0734 H   0  0  0  0  0  0  0  0  0  0  0  0
    2.1281    1.3432    1.6717 H   0  0  0  0  0  0  0  0  0  0  0  0
    3.6468    2.0696    1.2358 H   0  0  0  0  0  0  0  0  0  0  0  0
    1.5410   -1.0141    0.8121 H   0  0  0  0  0  0  0  0  0  0  0  0
    2.5205   -3.2499    0.4186 H   0  0  0  0  0  0  0  0  0  0  0  0
    6.4109   -1.5174   -0.0126 H   0  0  0  0  0  0  0  0  0  0  0  0
    5.4694    0.7431    0.3699 H   0  0  0  0  0  0  0  0  0  0  0  0
    0.0845    1.9872    0.9248 H   0  0  0  0  0  0  0  0  0  0  0  0
   -1.9899    1.6582    1.8906 H   0  0  0  0  0  0  0  0  0  0  0  0
   -4.2075    0.6542    1.8223 H   0  0  0  0  0  0  0  0  0  0  0  0
   -4.9753   -1.9655   -2.0601 H   0  0  0  0  0  0  0  0  0  0  0  0
   -7.5592   -2.7301   -1.4459 H   0  0  0  0  0  0  0  0  0  0  0  0
   -6.1626   -0.3038    1.6368 H   0  0  0  0  0  0  0  0  0  0  0  0
   -1.1538   -0.2129   -1.9066 H   0  0  0  0  0  0  0  0  0  0  0  0
  1  2  1  0
  2  3  1  0
  3  4  1  0
  4  5  1  0
  5  6  2  0
  6  7  1  0
  7  8  1  0
  7  9  2  0
  9 10  1  0
  2 11  1  0
 11 12  2  0
 11 13  1  0
 13 14  1  0
 14 15  2  0
 15 16  1  0
 16 17  2  0
 17 18  1  0
 18 19  1  0
 19 20  2  0
 20 21  1  0
 21 22  2  0
 17 23  1  0
 23 24  2  0
 10  4  2  0
 24 14  1  0
 22 18  1  0
  1 25  1  0
  1 26  1  0
  1 27  1  0
  2 28  1  0
  3 29  1  0
  3 30  1  0
  5 31  1  0
  6 32  1  0
  9 33  1  0
 10 34  1  0
 13 35  1  0
 15 36  1  0
 16 37  1  0
 19 38  1  0
 20 39  1  0
 22 40  1  0
 24 41  1  0
M  END
$$$$
OCNT-2314796
     RDKit          3D

 60 64  0  0  0  0  0  0  0  0999 V2000
   -3.9016    4.0945    3.5488 F   0  0  0  0  0  0  0  0  0  0  0  0
   -3.7854    3.0938    2.6658 C   0  0  0  0  0  0  0  0  0  0  0  0
   -3.8851    1.7792    3.1055 C   0  0  0  0  0  0  0  0  0  0  0  0
   -3.7632    0.7345    2.1882 C   0  0  0  0  0  0  0  0  0  0  0  0
   -3.5397    1.0051    0.8263 C   0  0  0  0  0  0  0  0  0  0  0  0
   -3.3852   -0.1548   -0.1729 C   0  0  0  0  0  0  0  0  0  0  0  0
   -1.8698   -0.2478   -0.5882 C   0  0  0  0  0  0  0  0  0  0  0  0
   -0.9553   -0.4566    0.5550 N   0  0  0  0  0  0  0  0  0  0  0  0
    0.4572   -0.5124    0.1442 C   0  0  0  0  0  0  0  0  0  0  0  0
    1.2964   -1.0336    1.3091 C   0  0  0  0  0  0  0  0  0  0  0  0
    2.7411   -1.2445    0.8538 C   0  0  0  0  0  0  0  0  0  0  0  0
    3.2274   -0.1370    0.0074 N   0  0  0  0  0  0  0  0  0  0  0  0
    4.6257   -0.0720   -0.1190 C   0  0  0  0  0  0  0  0  0  0  0  0
    5.3548    1.1310    0.0510 C   0  0  0  0  0  0  0  0  0  0  0  0
    6.7499    1.1862   -0.0857 C   0  0  0  0  0  0  0  0  0  0  0  0
    7.4086    0.0232   -0.4017 C   0  0  0  0  0  0  0  0  0  0  0  0
    8.7490   -0.1148   -0.5760 O   0  0  0  0  0  0  0  0  0  0  0  0
    8.8354   -1.5191   -0.8946 C   0  0  0  0  0  0  0  0  0  0  0  0
    7.5572   -2.1878   -0.8948 O   0  0  0  0  0  0  0  0  0  0  0  0
    6.7298   -1.1543   -0.5800 C   0  0  0  0  0  0  0  0  0  0  0  0
    5.3568   -1.2306   -0.4491 C   0  0  0  0  0  0  0  0  0  0  0  0
    2.4525    1.1029    0.0500 C   0  0  0  0  0  0  0  0  0  0  0  0
    0.9925    0.8474   -0.3337 C   0  0  0  0  0  0  0  0  0  0  0  0
   -4.3077    0.0252   -1.3345 N   0  0  0  0  0  0  0  0  0  0  0  0
   -4.2411   -1.0603   -2.3279 C   0  0  0  0  0  0  0  0  0  0  0  0
   -5.1091   -2.1824   -1.7808 C   0  0  0  0  0  0  0  0  0  0  0  0
   -6.1201   -1.4833   -0.8845 C   0  0  0  0  0  0  0  0  0  0  0  0
   -5.7286   -0.0121   -0.9255 C   0  0  0  0  0  0  0  0  0  0  0  0
   -3.4420    2.3445    0.4061 C   0  0  0  0  0  0  0  0  0  0  0  0
   -3.5657    3.3864    1.3256 C   0  0  0  0  0  0  0  0  0  0  0  0
   -4.0565    1.5764    4.1577 H   0  0  0  0  0  0  0  0  0  0  0  0
   -3.8365   -0.2927    2.5391 H   0  0  0  0  0  0  0  0  0  0  0  0
   -3.6350   -1.0912    0.3449 H   0  0  0  0  0  0  0  0  0  0  0  0
   -1.5923    0.6607   -1.1363 H   0  0  0  0  0  0  0  0  0  0  0  0
   -1.7279   -1.0965   -1.2630 H   0  0  0  0  0  0  0  0  0  0  0  0
   -1.0856    0.3027    1.2260 H   0  0  0  0  0  0  0  0  0  0  0  0
    0.5518   -1.2383   -0.6753 H   0  0  0  0  0  0  0  0  0  0  0  0
    0.8993   -1.9834    1.6884 H   0  0  0  0  0  0  0  0  0  0  0  0
    1.2682   -0.3243    2.1470 H   0  0  0  0  0  0  0  0  0  0  0  0
    2.7863   -2.1793    0.2818 H   0  0  0  0  0  0  0  0  0  0  0  0
    3.3704   -1.3654    1.7451 H   0  0  0  0  0  0  0  0  0  0  0  0
    4.8481    2.0541    0.3177 H   0  0  0  0  0  0  0  0  0  0  0  0
    7.2903    2.1151    0.0549 H   0  0  0  0  0  0  0  0  0  0  0  0
    9.2873   -1.6262   -1.8875 H   0  0  0  0  0  0  0  0  0  0  0  0
    9.4855   -2.0061   -0.1586 H   0  0  0  0  0  0  0  0  0  0  0  0
    4.8628   -2.1783   -0.6288 H   0  0  0  0  0  0  0  0  0  0  0  0
    2.8429    1.8474   -0.6547 H   0  0  0  0  0  0  0  0  0  0  0  0
    2.5044    1.5400    1.0555 H   0  0  0  0  0  0  0  0  0  0  0  0
    0.8875    0.8959   -1.4255 H   0  0  0  0  0  0  0  0  0  0  0  0
    0.3925    1.6775    0.0611 H   0  0  0  0  0  0  0  0  0  0  0  0
   -4.6811   -0.6901   -3.2638 H   0  0  0  0  0  0  0  0  0  0  0  0
   -3.2377   -1.3986   -2.5926 H   0  0  0  0  0  0  0  0  0  0  0  0
   -4.5105   -2.8867   -1.1916 H   0  0  0  0  0  0  0  0  0  0  0  0
   -5.5972   -2.7438   -2.5837 H   0  0  0  0  0  0  0  0  0  0  0  0
   -6.0533   -1.8794    0.1352 H   0  0  0  0  0  0  0  0  0  0  0  0
   -7.1453   -1.6325   -1.2381 H   0  0  0  0  0  0  0  0  0  0  0  0
   -6.3181    0.4977   -1.6990 H   0  0  0  0  0  0  0  0  0  0  0  0
   -5.9578    0.5005    0.0133 H   0  0  0  0  0  0  0  0  0  0  0  0
   -3.2804    2.5741   -0.6455 H   0  0  0  0  0  0  0  0  0  0  0  0
   -3.4966    4.4203    1.0041 H   0  0  0  0  0  0  0  0  0  0  0  0
  1  2  1  0
  2  3  1  0
  3  4  2  0
  4  5  1  0
  5  6  1  0
  6  7  1  0
  7  8  1  0
  8  9  1  0
  9 10  1  0
 10 11  1  0
 11 12  1  0
 12 13  1  0
 13 14  1  0
 14 15  2  0
 15 16  1  0
 16 17  1  0
 17 18  1  0
 18 19  1  0
 19 20  1  0
 20 21  1  0
 12 22  1  0
 22 23  1  0
  6 24  1  0
 24 25  1  0
 25 26  1  0
 26 27  1  0
 27 28  1  0
  5 29  2  0
 29 30  1  0
 30  2  2  0
 23  9  1  0
 28 24  1  0
 21 13  2  0
 20 16  2  0
  3 31  1  0
  4 32  1  0
  6 33  1  0
  7 34  1  0
  7 35  1  0
  8 36  1  0
  9 37  1  0
 10 38  1  0
 10 39  1  0
 11 40  1  0
 11 41  1  0
 14 42  1  0
 15 43  1  0
 18 44  1  0
 18 45  1  0
 21 46  1  0
 22 47  1  0
 22 48  1  0
 23 49  1  0
 23 50  1  0
 25 51  1  0
 25 52  1  0
 26 53  1  0
 26 54  1  0
 27 55  1  0
 27 56  1  0
 28 57  1  0
 28 58  1  0
 29 59  1  0
 30 60  1  0
M  END
$$$$
OCNT-2314799
     RDKit          3D

 46 49  0  0  0  0  0  0  0  0999 V2000
    4.1051   -3.5718   -3.0372 O   0  0  0  0  0  0  0  0  0  0  0  0
    3.9838   -2.7413   -2.1447 C   0  0  0  0  0  0  0  0  0  0  0  0
    2.6628   -2.1704   -1.8183 C   0  0  0  0  0  0  0  0  0  0  0  0
    2.5285   -1.2539   -0.8477 C   0  0  0  0  0  0  0  0  0  0  0  0
    1.1474   -0.7223   -0.6790 C   0  0  0  0  0  0  0  0  0  0  0  0
    0.2341   -1.4761   -0.3703 O   0  0  0  0  0  0  0  0  0  0  0  0
    1.0769    0.6311   -0.9421 N   0  0  0  0  0  0  0  0  0  0  0  0
   -0.0592    1.4648   -0.8617 C   0  0  0  0  0  0  0  0  0  0  0  0
    0.1177    2.8114   -1.2023 C   0  0  0  0  0  0  0  0  0  0  0  0
   -0.9524    3.7031   -1.1422 C   0  0  0  0  0  0  0  0  0  0  0  0
   -2.2064    3.2512   -0.7390 C   0  0  0  0  0  0  0  0  0  0  0  0
   -2.4017    1.9121   -0.3952 C   0  0  0  0  0  0  0  0  0  0  0  0
   -3.6807    1.6112   -0.0165 O   0  0  0  0  0  0  0  0  0  0  0  0
   -3.9921    0.2697    0.3381 C   0  0  0  0  0  0  0  0  0  0  0  0
   -5.5107    0.1029    0.3520 C   0  0  0  0  0  0  0  0  0  0  0  0
   -5.7505   -1.1264    1.2183 C   0  0  0  0  0  0  0  0  0  0  0  0
   -4.5342   -1.2333    2.1386 C   0  0  0  0  0  0  0  0  0  0  0  0
   -3.6376   -0.0529    1.7867 C   0  0  0  0  0  0  0  0  0  0  0  0
   -1.3246    1.0232   -0.4589 C   0  0  0  0  0  0  0  0  0  0  0  0
    3.6902   -0.8223   -0.0521 C   0  0  0  0  0  0  0  0  0  0  0  0
    3.5870    0.0701    1.0246 C   0  0  0  0  0  0  0  0  0  0  0  0
    4.7236    0.4526    1.7419 C   0  0  0  0  0  0  0  0  0  0  0  0
    5.9747   -0.0583    1.3996 C   0  0  0  0  0  0  0  0  0  0  0  0
    6.0893   -0.9634    0.3444 C   0  0  0  0  0  0  0  0  0  0  0  0
    7.8102   -1.6472   -0.0722 Br  0  0  0  0  0  0  0  0  0  0  0  0
    4.9515   -1.3508   -0.3764 C   0  0  0  0  0  0  0  0  0  0  0  0
    5.0473   -2.2831   -1.4227 N   0  0  0  0  0  0  0  0  0  0  0  0
    1.8306   -2.5249   -2.4172 H   0  0  0  0  0  0  0  0  0  0  0  0
    1.9325    1.0806   -1.2454 H   0  0  0  0  0  0  0  0  0  0  0  0
    1.0868    3.1863   -1.5209 H   0  0  0  0  0  0  0  0  0  0  0  0
   -0.8126    4.7468   -1.4098 H   0  0  0  0  0  0  0  0  0  0  0  0
   -3.0417    3.9457   -0.6928 H   0  0  0  0  0  0  0  0  0  0  0  0
   -3.5734   -0.4567   -0.3703 H   0  0  0  0  0  0  0  0  0  0  0  0
   -5.9208   -0.0108   -0.6568 H   0  0  0  0  0  0  0  0  0  0  0  0
   -5.9934    0.9843    0.7932 H   0  0  0  0  0  0  0  0  0  0  0  0
   -6.6836   -1.0378    1.7840 H   0  0  0  0  0  0  0  0  0  0  0  0
   -5.8268   -2.0256    0.5967 H   0  0  0  0  0  0  0  0  0  0  0  0
   -4.8186   -1.2180    3.1956 H   0  0  0  0  0  0  0  0  0  0  0  0
   -4.0109   -2.1781    1.9514 H   0  0  0  0  0  0  0  0  0  0  0  0
   -2.5788   -0.2919    1.9227 H   0  0  0  0  0  0  0  0  0  0  0  0
   -3.8559    0.8040    2.4360 H   0  0  0  0  0  0  0  0  0  0  0  0
   -1.4684   -0.0145   -0.1927 H   0  0  0  0  0  0  0  0  0  0  0  0
    2.6242    0.4726    1.3358 H   0  0  0  0  0  0  0  0  0  0  0  0
    4.6308    1.1454    2.5762 H   0  0  0  0  0  0  0  0  0  0  0  0
    6.8499    0.2457    1.9691 H   0  0  0  0  0  0  0  0  0  0  0  0
    5.9500   -2.6830   -1.6518 H   0  0  0  0  0  0  0  0  0  0  0  0
  1  2  2  0
  2  3  1  0
  3  4  2  0
  4  5  1  0
  5  6  2  0
  5  7  1  0
  7  8  1  0
  8  9  2  0
  9 10  1  0
 10 11  2  0
 11 12  1  0
 12 13  1  0
 13 14  1  0
 14 15  1  0
 15 16  1  0
 16 17  1  0
 17 18  1  0
 12 19  2  0
  4 20  1  0
 20 21  2  0
 21 22  1  0
 22 23  2  0
 23 24  1  0
 24 25  1  0
 24 26  2  0
 26 27  1  0
 27  2  1  0
 19  8  1  0
 26 20  1  0
 18 14  1  0
  3 28  1  0
  7 29  1  0
  9 30  1  0
 10 31  1  0
 11 32  1  0
 14 33  1  0
 15 34  1  0
 15 35  1  0
 16 36  1  0
 16 37  1  0
 17 38  1  0
 17 39  1  0
 18 40  1  0
 18 41  1  0
 19 42  1  0
 21 43  1  0
 22 44  1  0
 23 45  1  0
 27 46  1  0
M  END
$$$$
OCNT-2314801
     RDKit          3D

 37 39  0  0  0  0  0  0  0  0999 V2000
    1.9024   -2.4426    1.0793 O   0  0  0  0  0  0  0  0  0  0  0  0
    1.3681   -1.3751    0.7930 C   0  0  0  0  0  0  0  0  0  0  0  0
   -0.0856   -1.0974    1.1887 C   0  0  0  0  0  0  0  0  0  0  0  0
   -0.6014    0.0738    0.5365 O   0  0  0  0  0  0  0  0  0  0  0  0
   -1.7213   -0.1983   -0.2022 C   0  0  0  0  0  0  0  0  0  0  0  0
   -1.5596   -0.9563   -1.3718 C   0  0  0  0  0  0  0  0  0  0  0  0
   -2.6641   -1.3054   -2.1430 C   0  0  0  0  0  0  0  0  0  0  0  0
   -3.9335   -0.8942   -1.7535 C   0  0  0  0  0  0  0  0  0  0  0  0
   -4.0987   -0.1095   -0.6071 C   0  0  0  0  0  0  0  0  0  0  0  0
   -2.9916    0.2726    0.1732 C   0  0  0  0  0  0  0  0  0  0  0  0
   -3.2000    1.1255    1.3004 N   0  0  0  0  0  0  0  0  0  0  0  0
   -4.4079    1.4152    1.9082 C   0  0  0  0  0  0  0  0  0  0  0  0
   -4.1298    2.2853    2.9351 C   0  0  0  0  0  0  0  0  0  0  0  0
   -2.7968    2.5587    2.9866 N   0  0  0  0  0  0  0  0  0  0  0  0
   -2.2691    1.8666    1.9994 C   0  0  0  0  0  0  0  0  0  0  0  0
    1.9507   -0.3158    0.1190 N   0  0  0  0  0  0  0  0  0  0  0  0
    3.2652   -0.2141   -0.3696 C   0  0  0  0  0  0  0  0  0  0  0  0
    4.2411   -1.1977   -0.1945 C   0  0  0  0  0  0  0  0  0  0  0  0
    5.5301   -1.0173   -0.7096 C   0  0  0  0  0  0  0  0  0  0  0  0
    5.8460    0.1480   -1.4021 C   0  0  0  0  0  0  0  0  0  0  0  0
    7.4302    0.3681   -2.0338 Cl  0  0  0  0  0  0  0  0  0  0  0  0
    4.8838    1.1357   -1.5839 C   0  0  0  0  0  0  0  0  0  0  0  0
    3.5973    0.9549   -1.0673 C   0  0  0  0  0  0  0  0  0  0  0  0
   -0.6774   -1.9994    0.9845 H   0  0  0  0  0  0  0  0  0  0  0  0
   -0.1038   -0.9086    2.2675 H   0  0  0  0  0  0  0  0  0  0  0  0
   -0.5714   -1.2848   -1.6847 H   0  0  0  0  0  0  0  0  0  0  0  0
   -2.5354   -1.8921   -3.0486 H   0  0  0  0  0  0  0  0  0  0  0  0
   -4.7992   -1.1651   -2.3540 H   0  0  0  0  0  0  0  0  0  0  0  0
   -5.1083    0.2181   -0.3774 H   0  0  0  0  0  0  0  0  0  0  0  0
   -5.3453    0.9749    1.6028 H   0  0  0  0  0  0  0  0  0  0  0  0
   -4.8246    2.7238    3.6401 H   0  0  0  0  0  0  0  0  0  0  0  0
   -1.2222    1.9059    1.7396 H   0  0  0  0  0  0  0  0  0  0  0  0
    1.3289    0.4663   -0.0640 H   0  0  0  0  0  0  0  0  0  0  0  0
    4.0371   -2.1169    0.3457 H   0  0  0  0  0  0  0  0  0  0  0  0
    6.2785   -1.7915   -0.5610 H   0  0  0  0  0  0  0  0  0  0  0  0
    5.1261    2.0474   -2.1228 H   0  0  0  0  0  0  0  0  0  0  0  0
    2.8617    1.7415   -1.2188 H   0  0  0  0  0  0  0  0  0  0  0  0
  1  2  2  0
  2  3  1  0
  3  4  1  0
  4  5  1  0
  5  6  2  0
  6  7  1  0
  7  8  2  0
  8  9  1  0
  9 10  2  0
 10 11  1  0
 11 12  1  0
 12 13  2  0
 13 14  1  0
 14 15  2  0
  2 16  1  0
 16 17  1  0
 17 18  1  0
 18 19  2  0
 19 20  1  0
 20 21  1  0
 20 22  2  0
 22 23  1  0
 10  5  1  0
 15 11  1  0
 23 17  2  0
  3 24  1  0
  3 25  1  0
  6 26  1  0
  7 27  1  0
  8 28  1  0
  9 29  1  0
 12 30  1  0
 13 31  1  0
 15 32  1  0
 16 33  1  0
 18 34  1  0
 19 35  1  0
 22 36  1  0
 23 37  1  0
M  END
$$$$
OCNT-2314802
     RDKit          3D

 56 59  0  0  0  0  0  0  0  0999 V2000
    4.0986    1.8682   -3.4757 C   0  0  0  0  0  0  0  0  0  0  0  0
    2.8220    1.9901   -2.6452 C   0  0  0  0  0  0  0  0  0  0  0  0
    3.0939    1.9681   -1.1313 C   0  0  0  0  0  0  0  0  0  0  0  0
    2.6748    0.5833   -0.8206 C   0  0  0  0  0  0  0  0  0  0  0  0
    2.8101   -0.1319    0.3577 C   0  0  0  0  0  0  0  0  0  0  0  0
    2.2466   -1.4171    0.4360 C   0  0  0  0  0  0  0  0  0  0  0  0
    2.3630   -2.2095    1.7202 C   0  0  0  0  0  0  0  0  0  0  0  0
    1.0169   -2.5456    2.4032 C   0  0  1  0  0  0  0  0  0  0  0  0
    1.3045   -3.3156    3.6937 C   0  0  0  0  0  0  0  0  0  0  0  0
    0.2328   -1.3368    2.6484 N   0  0  0  0  0  0  0  0  0  0  0  0
   -1.0601   -1.3988    3.1381 C   0  0  0  0  0  0  0  0  0  0  0  0
   -1.5920   -2.4096    3.5857 O   0  0  0  0  0  0  0  0  0  0  0  0
   -1.8103   -0.0890    3.0343 C   0  0  0  0  0  0  0  0  0  0  0  0
   -2.2543    0.1041    1.5914 C   0  0  0  0  0  0  0  0  0  0  0  0
   -3.3784    1.1483    1.4731 C   0  0  0  0  0  0  0  0  0  0  0  0
   -3.9161    1.2307    0.1054 N   0  0  0  0  0  0  0  0  0  0  0  0
   -2.8419    0.9380   -0.8711 C   0  0  0  0  0  0  0  0  0  0  0  0
   -3.1135   -0.4477   -1.5282 C   0  0  0  0  0  0  0  0  0  0  0  0
   -2.9083    0.2305   -2.9018 C   0  0  0  0  0  0  0  0  0  0  0  0
   -3.2590    1.5752   -2.2271 C   0  0  0  0  0  0  0  0  0  0  0  0
   -1.4243    1.2178   -0.3824 C   0  0  0  0  0  0  0  0  0  0  0  0
   -1.1041    0.5088    0.8295 O   0  0  0  0  0  0  0  0  0  0  0  0
    1.5658   -1.9482   -0.6832 C   0  0  0  0  0  0  0  0  0  0  0  0
    1.4416   -1.2108   -1.8655 C   0  0  0  0  0  0  0  0  0  0  0  0
    2.0050    0.0473   -1.9064 C   0  0  0  0  0  0  0  0  0  0  0  0
    1.9390    0.8879   -2.9866 O   0  0  0  0  0  0  0  0  0  0  0  0
    3.8560    1.8837   -4.5418 H   0  0  0  0  0  0  0  0  0  0  0  0
    4.7913    2.6886   -3.2663 H   0  0  0  0  0  0  0  0  0  0  0  0
    4.6100    0.9225   -3.2816 H   0  0  0  0  0  0  0  0  0  0  0  0
    2.3159    2.9260   -2.9196 H   0  0  0  0  0  0  0  0  0  0  0  0
    2.4384    2.6767   -0.6116 H   0  0  0  0  0  0  0  0  0  0  0  0
    4.1371    2.1775   -0.8759 H   0  0  0  0  0  0  0  0  0  0  0  0
    3.3318    0.3039    1.2078 H   0  0  0  0  0  0  0  0  0  0  0  0
    2.9952   -1.6552    2.4268 H   0  0  0  0  0  0  0  0  0  0  0  0
    2.9033   -3.1363    1.4937 H   0  0  0  0  0  0  0  0  0  0  0  0
    0.4143   -3.1823    1.7449 H   0  0  0  0  0  0  0  0  0  0  0  0
    1.9308   -4.1880    3.4929 H   0  0  0  0  0  0  0  0  0  0  0  0
    0.3899   -3.6810    4.1658 H   0  0  0  0  0  0  0  0  0  0  0  0
    1.8217   -2.6819    4.4213 H   0  0  0  0  0  0  0  0  0  0  0  0
    0.3608   -0.5806    1.9797 H   0  0  0  0  0  0  0  0  0  0  0  0
   -1.1631    0.7247    3.3694 H   0  0  0  0  0  0  0  0  0  0  0  0
   -2.6665   -0.1435    3.7105 H   0  0  0  0  0  0  0  0  0  0  0  0
   -2.5971   -0.8588    1.1950 H   0  0  0  0  0  0  0  0  0  0  0  0
   -4.2004    0.9145    2.1594 H   0  0  0  0  0  0  0  0  0  0  0  0
   -2.9964    2.1411    1.7435 H   0  0  0  0  0  0  0  0  0  0  0  0
   -4.7291    0.6188    0.0310 H   0  0  0  0  0  0  0  0  0  0  0  0
   -4.1259   -0.8573   -1.3999 H   0  0  0  0  0  0  0  0  0  0  0  0
   -2.3900   -1.2380   -1.2953 H   0  0  0  0  0  0  0  0  0  0  0  0
   -1.8732    0.1758   -3.2755 H   0  0  0  0  0  0  0  0  0  0  0  0
   -3.5928   -0.0942   -3.6942 H   0  0  0  0  0  0  0  0  0  0  0  0
   -4.3189    1.8380   -2.3263 H   0  0  0  0  0  0  0  0  0  0  0  0
   -2.6609    2.4277   -2.5652 H   0  0  0  0  0  0  0  0  0  0  0  0
   -1.2817    2.2876   -0.1881 H   0  0  0  0  0  0  0  0  0  0  0  0
   -0.6845    0.9339   -1.1343 H   0  0  0  0  0  0  0  0  0  0  0  0
    1.1211   -2.9413   -0.6359 H   0  0  0  0  0  0  0  0  0  0  0  0
    0.9107   -1.6060   -2.7219 H   0  0  0  0  0  0  0  0  0  0  0  0
  1  2  1  0
  2  3  1  0
  3  4  1  0
  4  5  1  0
  5  6  2  0
  6  7  1  0
  7  8  1  0
  8  9  1  0
  8 10  1  0
 10 11  1  0
 11 12  2  0
 11 13  1  0
 13 14  1  0
 14 15  1  0
 15 16  1  0
 16 17  1  0
 17 18  1  0
 18 19  1  0
 19 20  1  0
 17 21  1  0
 21 22  1  0
  6 23  1  0
 23 24  2  0
 24 25  1  0
 25 26  1  0
 26  2  1  0
 25  4  2  0
 22 14  1  0
 20 17  1  0
  1 27  1  0
  1 28  1  0
  1 29  1  0
  2 30  1  0
  3 31  1  0
  3 32  1  0
  5 33  1  0
  7 34  1  0
  7 35  1  0
  8 36  1  6
  9 37  1  0
  9 38  1  0
  9 39  1  0
 10 40  1  0
 13 41  1  0
 13 42  1  0
 14 43  1  0
 15 44  1  0
 15 45  1  0
 16 46  1  0
 18 47  1  0
 18 48  1  0
 19 49  1  0
 19 50  1  0
 20 51  1  0
 20 52  1  0
 21 53  1  0
 21 54  1  0
 23 55  1  0
 24 56  1  0
M  END
$$$$
OCNT-2314804
     RDKit          3D

 35 37  0  0  0  0  0  0  0  0999 V2000
   -7.4286   -0.1752    0.3007 C   0  0  0  0  0  0  0  0  0  0  0  0
   -6.3869   -1.1344    0.4357 O   0  0  0  0  0  0  0  0  0  0  0  0
   -5.1045   -0.6820    0.3038 C   0  0  0  0  0  0  0  0  0  0  0  0
   -4.7191    0.6339    0.0526 C   0  0  0  0  0  0  0  0  0  0  0  0
   -3.3601    0.9633   -0.0600 C   0  0  0  0  0  0  0  0  0  0  0  0
   -2.3621   -0.0162    0.0762 C   0  0  0  0  0  0  0  0  0  0  0  0
   -0.9472    0.3097   -0.0387 C   0  0  0  0  0  0  0  0  0  0  0  0
    0.1175   -0.4562    0.0347 N   0  0  0  0  0  0  0  0  0  0  0  0
    1.1544    0.4312   -0.1543 C   0  0  0  0  0  0  0  0  0  0  0  0
    2.5500    0.0046   -0.1506 C   0  0  0  0  0  0  0  0  0  0  0  0
    2.8719   -1.3448    0.0624 C   0  0  0  0  0  0  0  0  0  0  0  0
    4.2018   -1.7718    0.0629 C   0  0  0  0  0  0  0  0  0  0  0  0
    5.2302   -0.8522   -0.1423 C   0  0  0  0  0  0  0  0  0  0  0  0
    4.9284    0.5001   -0.3432 C   0  0  0  0  0  0  0  0  0  0  0  0
    5.9903    1.5163   -0.5688 C   0  0  0  0  0  0  0  0  0  0  0  0
    7.2390    1.2417   -0.0831 N   0  0  0  0  0  0  0  0  0  0  0  0
    5.7582    2.5764   -1.1348 O   0  0  0  0  0  0  0  0  0  0  0  0
    3.5909    0.9218   -0.3581 C   0  0  0  0  0  0  0  0  0  0  0  0
    0.7537    1.7002   -0.3328 N   0  0  0  0  0  0  0  0  0  0  0  0
   -0.6339    1.6222   -0.2586 O   0  0  0  0  0  0  0  0  0  0  0  0
   -2.7722   -1.3287    0.3277 C   0  0  0  0  0  0  0  0  0  0  0  0
   -1.8734   -2.3146    0.4704 F   0  0  0  0  0  0  0  0  0  0  0  0
   -4.1221   -1.6612    0.4408 C   0  0  0  0  0  0  0  0  0  0  0  0
   -8.3819   -0.6963    0.4306 H   0  0  0  0  0  0  0  0  0  0  0  0
   -7.3600    0.5933    1.0777 H   0  0  0  0  0  0  0  0  0  0  0  0
   -7.4262    0.2715   -0.6991 H   0  0  0  0  0  0  0  0  0  0  0  0
   -5.4473    1.4312   -0.0618 H   0  0  0  0  0  0  0  0  0  0  0  0
   -3.0965    2.0014   -0.2574 H   0  0  0  0  0  0  0  0  0  0  0  0
    2.0816   -2.0778    0.2225 H   0  0  0  0  0  0  0  0  0  0  0  0
    4.4313   -2.8240    0.2143 H   0  0  0  0  0  0  0  0  0  0  0  0
    6.2554   -1.2098   -0.1699 H   0  0  0  0  0  0  0  0  0  0  0  0
    7.3945    0.5407    0.6266 H   0  0  0  0  0  0  0  0  0  0  0  0
    7.9032    2.0042   -0.1328 H   0  0  0  0  0  0  0  0  0  0  0  0
    3.3687    1.9746   -0.5312 H   0  0  0  0  0  0  0  0  0  0  0  0
   -4.3989   -2.6930    0.6369 H   0  0  0  0  0  0  0  0  0  0  0  0
  1  2  1  0
  2  3  1  0
  3  4  1  0
  4  5  2  0
  5  6  1  0
  6  7  1  0
  7  8  2  0
  8  9  1  0
  9 10  1  0
 10 11  2  0
 11 12  1  0
 12 13  2  0
 13 14  1  0
 14 15  1  0
 15 16  1  0
 15 17  2  0
 14 18  2  0
  9 19  2  0
 19 20  1  0
  6 21  2  0
 21 22  1  0
 21 23  1  0
 23  3  2  0
 20  7  1  0
 18 10  1  0
  1 24  1  0
  1 25  1  0
  1 26  1  0
  4 27  1  0
  5 28  1  0
 11 29  1  0
 12 30  1  0
 13 31  1  0
 16 32  1  0
 16 33  1  0
 18 34  1  0
 23 35  1  0
M  END
$$$$
OCNT-2314807
     RDKit          3D

 31 33  0  0  0  0  0  0  0  0999 V2000
   -6.4785    1.2399    0.1274 F   0  0  0  0  0  0  0  0  0  0  0  0
   -6.4064    0.1809   -0.7190 C   0  0  0  0  0  0  0  0  0  0  0  0
   -7.2599    0.4625   -1.7423 F   0  0  0  0  0  0  0  0  0  0  0  0
   -5.1089    0.1317   -1.2788 O   0  0  0  0  0  0  0  0  0  0  0  0
   -4.1806   -0.3503   -0.3881 C   0  0  0  0  0  0  0  0  0  0  0  0
   -2.8483   -0.1749   -0.7325 C   0  0  0  0  0  0  0  0  0  0  0  0
   -1.8615   -0.6758    0.1212 C   0  0  0  0  0  0  0  0  0  0  0  0
   -0.3974   -0.5048   -0.1971 C   0  0  0  0  0  0  0  0  0  0  0  0
    0.2078    0.3724    0.7848 N   0  0  0  0  0  0  0  0  0  0  0  0
    1.5185    0.7168    0.6994 C   0  0  0  0  0  0  0  0  0  0  0  0
    1.9678    1.8829    1.1110 N   0  0  0  0  0  0  0  0  0  0  0  0
    3.3303    2.0286    0.9439 N   0  0  0  0  0  0  0  0  0  0  0  0
    3.8837    0.9540    0.4246 C   0  0  0  0  0  0  0  0  0  0  0  0
    5.4263    0.8420    0.1369 C   0  0  0  0  0  0  0  0  0  0  0  0
    6.2792    1.8412    0.4007 N   0  0  0  0  0  0  0  0  0  0  0  0
    7.5279    1.3824    0.0208 O   0  0  0  0  0  0  0  0  0  0  0  0
    7.4153    0.1225   -0.4638 C   0  0  0  0  0  0  0  0  0  0  0  0
    6.1039   -0.2716   -0.4145 C   0  0  0  0  0  0  0  0  0  0  0  0
    2.7675   -0.3054    0.0897 S   0  0  0  0  0  0  0  0  0  0  0  0
   -2.2658   -1.3336    1.2873 C   0  0  0  0  0  0  0  0  0  0  0  0
   -3.6214   -1.4678    1.5394 C   0  0  0  0  0  0  0  0  0  0  0  0
   -4.5880   -0.9998    0.7203 N   0  0  0  0  0  0  0  0  0  0  0  0
   -6.7514   -0.7410   -0.2381 H   0  0  0  0  0  0  0  0  0  0  0  0
   -2.5940    0.3486   -1.6487 H   0  0  0  0  0  0  0  0  0  0  0  0
    0.0705   -1.4969   -0.1927 H   0  0  0  0  0  0  0  0  0  0  0  0
   -0.2776   -0.0868   -1.2045 H   0  0  0  0  0  0  0  0  0  0  0  0
   -0.3844    1.1594    1.0424 H   0  0  0  0  0  0  0  0  0  0  0  0
    8.3363   -0.3368   -0.7916 H   0  0  0  0  0  0  0  0  0  0  0  0
    5.7020   -1.2220   -0.7294 H   0  0  0  0  0  0  0  0  0  0  0  0
   -1.5379   -1.7274    1.9907 H   0  0  0  0  0  0  0  0  0  0  0  0
   -3.9749   -1.9709    2.4355 H   0  0  0  0  0  0  0  0  0  0  0  0
  1  2  1  0
  2  3  1  0
  2  4  1  0
  4  5  1  0
  5  6  2  0
  6  7  1  0
  7  8  1  0
  8  9  1  0
  9 10  1  0
 10 11  2  0
 11 12  1  0
 12 13  2  0
 13 14  1  0
 14 15  2  0
 15 16  1  0
 16 17  1  0
 17 18  2  0
 13 19  1  0
  7 20  2  0
 20 21  1  0
 21 22  2  0
 22  5  1  0
 19 10  1  0
 18 14  1  0
  2 23  1  0
  6 24  1  0
  8 25  1  0
  8 26  1  0
  9 27  1  0
 17 28  1  0
 18 29  1  0
 20 30  1  0
 21 31  1  0
M  END
$$$$
OCNT-2314812
     RDKit          3D

 38 41  0  0  0  0  0  0  0  0999 V2000
   -2.0448    2.3110    2.6082 C   0  0  0  0  0  0  0  0  0  0  0  0
   -1.5126    2.3338    1.3376 C   0  0  0  0  0  0  0  0  0  0  0  0
   -2.3783    1.7283    0.3591 C   0  0  0  0  0  0  0  0  0  0  0  0
   -2.2623    1.5098   -1.0304 C   0  0  0  0  0  0  0  0  0  0  0  0
   -1.1302    1.9163   -1.7568 N   0  0  0  0  0  0  0  0  0  0  0  0
   -0.6998    0.9166   -2.7425 C   0  0  0  0  0  0  0  0  0  0  0  0
   -0.0501   -0.3160   -2.1653 C   0  0  0  0  0  0  0  0  0  0  0  0
    0.7962   -0.2106   -1.1263 N   0  0  0  0  0  0  0  0  0  0  0  0
    1.1226   -1.4879   -0.8421 N   0  0  0  0  0  0  0  0  0  0  0  0
    2.0010   -1.7918    0.2751 C   0  0  0  0  0  0  0  0  0  0  0  0
    3.3573   -1.0713    0.1937 C   0  0  0  0  0  0  0  0  0  0  0  0
    3.3212   -0.0370    1.3104 C   0  0  0  0  0  0  0  0  0  0  0  0
    2.5202   -0.7289    2.3996 C   0  0  0  0  0  0  0  0  0  0  0  0
    1.3907   -1.4011    1.6337 C   0  0  0  0  0  0  0  0  0  0  0  0
    0.5429   -2.3915   -1.6852 C   0  0  0  0  0  0  0  0  0  0  0  0
   -0.2290   -1.6623   -2.5558 C   0  0  0  0  0  0  0  0  0  0  0  0
   -3.2871    0.9025   -1.6737 N   0  0  0  0  0  0  0  0  0  0  0  0
   -4.3619    0.5224   -0.9662 C   0  0  0  0  0  0  0  0  0  0  0  0
   -4.5712    0.6628    0.3455 N   0  0  0  0  0  0  0  0  0  0  0  0
   -3.5446    1.2749    0.9558 C   0  0  0  0  0  0  0  0  0  0  0  0
   -3.5858    1.5667    2.6366 S   0  0  0  0  0  0  0  0  0  0  0  0
   -1.6060    2.6955    3.5203 H   0  0  0  0  0  0  0  0  0  0  0  0
   -0.5450    2.7645    1.1148 H   0  0  0  0  0  0  0  0  0  0  0  0
   -0.3586    2.0642   -1.1114 H   0  0  0  0  0  0  0  0  0  0  0  0
    0.0506    1.4051   -3.3788 H   0  0  0  0  0  0  0  0  0  0  0  0
   -1.5169    0.6412   -3.4220 H   0  0  0  0  0  0  0  0  0  0  0  0
    2.1765   -2.8766    0.2467 H   0  0  0  0  0  0  0  0  0  0  0  0
    4.1615   -1.7901    0.3997 H   0  0  0  0  0  0  0  0  0  0  0  0
    3.5689   -0.6177   -0.7817 H   0  0  0  0  0  0  0  0  0  0  0  0
    2.8000    0.8684    0.9733 H   0  0  0  0  0  0  0  0  0  0  0  0
    4.3241    0.2510    1.6449 H   0  0  0  0  0  0  0  0  0  0  0  0
    3.1326   -1.4832    2.9030 H   0  0  0  0  0  0  0  0  0  0  0  0
    2.1481   -0.0335    3.1561 H   0  0  0  0  0  0  0  0  0  0  0  0
    1.0100   -2.2750    2.1732 H   0  0  0  0  0  0  0  0  0  0  0  0
    0.5563   -0.7003    1.5204 H   0  0  0  0  0  0  0  0  0  0  0  0
    0.7108   -3.4552   -1.5890 H   0  0  0  0  0  0  0  0  0  0  0  0
   -0.8526   -2.0455   -3.3507 H   0  0  0  0  0  0  0  0  0  0  0  0
   -5.1545    0.0404   -1.5299 H   0  0  0  0  0  0  0  0  0  0  0  0
  1  2  2  0
  2  3  1  0
  3  4  2  0
  4  5  1  0
  5  6  1  0
  6  7  1  0
  7  8  2  0
  8  9  1  0
  9 10  1  0
 10 11  1  0
 11 12  1  0
 12 13  1  0
 13 14  1  0
  9 15  1  0
 15 16  2  0
  4 17  1  0
 17 18  2  0
 18 19  1  0
 19 20  2  0
 20 21  1  0
 21  1  1  0
 20  3  1  0
 16  7  1  0
 14 10  1  0
  1 22  1  0
  2 23  1  0
  5 24  1  0
  6 25  1  0
  6 26  1  0
 10 27  1  0
 11 28  1  0
 11 29  1  0
 12 30  1  0
 12 31  1  0
 13 32  1  0
 13 33  1  0
 14 34  1  0
 14 35  1  0
 15 36  1  0
 16 37  1  0
 18 38  1  0
M  END
$$$$
OCNT-2314816
     RDKit          3D

 40 42  0  0  0  0  0  0  0  0999 V2000
    6.1322    1.5391    1.0925 C   0  0  0  0  0  0  0  0  0  0  0  0
    5.9214    0.0358    1.1829 C   0  0  0  0  0  0  0  0  0  0  0  0
    4.8577   -0.4345    0.2291 C   0  0  0  0  0  0  0  0  0  0  0  0
    5.2623   -0.8712   -0.9848 N   0  0  0  0  0  0  0  0  0  0  0  0
    4.2893   -1.2745   -1.8166 C   0  0  0  0  0  0  0  0  0  0  0  0
    2.9703   -1.2730   -1.5611 N   0  0  0  0  0  0  0  0  0  0  0  0
    2.5868   -0.8113   -0.3542 C   0  0  0  0  0  0  0  0  0  0  0  0
    1.2248   -0.8311    0.0035 N   0  0  0  0  0  0  0  0  0  0  0  0
    0.3082   -1.0413   -1.1150 C   0  0  0  0  0  0  0  0  0  0  0  0
   -1.1203   -0.9116   -0.6221 C   0  0  0  0  0  0  0  0  0  0  0  0
   -1.8000   -2.0249   -0.1403 C   0  0  0  0  0  0  0  0  0  0  0  0
   -3.0945   -1.8625    0.3416 C   0  0  0  0  0  0  0  0  0  0  0  0
   -3.6791   -0.5938    0.3515 C   0  0  0  0  0  0  0  0  0  0  0  0
   -5.0947   -0.4222    0.8328 C   0  0  0  0  0  0  0  0  0  0  0  0
   -5.4620    1.0323    1.1231 C   0  0  0  0  0  0  0  0  0  0  0  0
   -4.9944    1.9382   -0.0096 C   0  0  0  0  0  0  0  0  0  0  0  0
   -3.4743    1.8811   -0.1387 C   0  0  0  0  0  0  0  0  0  0  0  0
   -2.9312    0.4754   -0.1486 C   0  0  0  0  0  0  0  0  0  0  0  0
   -1.6651    0.3331   -0.6145 N   0  0  0  0  0  0  0  0  0  0  0  0
    3.5223   -0.3891    0.5843 C   0  0  0  0  0  0  0  0  0  0  0  0
    3.1414    0.0669    1.7879 F   0  0  0  0  0  0  0  0  0  0  0  0
    6.4257    1.8374    0.0802 H   0  0  0  0  0  0  0  0  0  0  0  0
    6.9224    1.8528    1.7819 H   0  0  0  0  0  0  0  0  0  0  0  0
    5.2193    2.0857    1.3519 H   0  0  0  0  0  0  0  0  0  0  0  0
    5.6569   -0.2477    2.2084 H   0  0  0  0  0  0  0  0  0  0  0  0
    6.8631   -0.4768    0.9523 H   0  0  0  0  0  0  0  0  0  0  0  0
    4.5979   -1.6381   -2.7911 H   0  0  0  0  0  0  0  0  0  0  0  0
    0.9873    0.0285    0.4979 H   0  0  0  0  0  0  0  0  0  0  0  0
    0.4489   -2.0327   -1.5636 H   0  0  0  0  0  0  0  0  0  0  0  0
    0.4690   -0.2887   -1.8979 H   0  0  0  0  0  0  0  0  0  0  0  0
   -1.3283   -3.0023   -0.1319 H   0  0  0  0  0  0  0  0  0  0  0  0
   -3.6408   -2.7259    0.7128 H   0  0  0  0  0  0  0  0  0  0  0  0
   -5.2551   -1.0146    1.7416 H   0  0  0  0  0  0  0  0  0  0  0  0
   -5.7660   -0.8156    0.0591 H   0  0  0  0  0  0  0  0  0  0  0  0
   -4.9968    1.3531    2.0640 H   0  0  0  0  0  0  0  0  0  0  0  0
   -6.5462    1.1192    1.2554 H   0  0  0  0  0  0  0  0  0  0  0  0
   -5.4627    1.6226   -0.9505 H   0  0  0  0  0  0  0  0  0  0  0  0
   -5.3099    2.9708    0.1771 H   0  0  0  0  0  0  0  0  0  0  0  0
   -3.1690    2.3998   -1.0548 H   0  0  0  0  0  0  0  0  0  0  0  0
   -3.0168    2.4113    0.7058 H   0  0  0  0  0  0  0  0  0  0  0  0
  1  2  1  0
  2  3  1  0
  3  4  2  0
  4  5  1  0
  5  6  2  0
  6  7  1  0
  7  8  1  0
  8  9  1  0
  9 10  1  0
 10 11  1  0
 11 12  2  0
 12 13  1  0
 13 14  1  0
 14 15  1  0
 15 16  1  0
 16 17  1  0
 17 18  1  0
 18 19  1  0
  7 20  2  0
 20 21  1  0
 20  3  1  0
 19 10  2  0
 18 13  2  0
  1 22  1  0
  1 23  1  0
  1 24  1  0
  2 25  1  0
  2 26  1  0
  5 27  1  0
  8 28  1  0
  9 29  1  0
  9 30  1  0
 11 31  1  0
 12 32  1  0
 14 33  1  0
 14 34  1  0
 15 35  1  0
 15 36  1  0
 16 37  1  0
 16 38  1  0
 17 39  1  0
 17 40  1  0
M  END
$$$$
