OCNT-2315630
     RDKit          3D

 46 49  0  0  0  0  0  0  0  0999 V2000
    5.2551    1.4603    0.2116 C   0  0  0  0  0  0  0  0  0  0  0  0
    5.1134    0.0349    0.6016 C   0  0  0  0  0  0  0  0  0  0  0  0
    6.1132   -0.7893    0.8464 N   0  0  0  0  0  0  0  0  0  0  0  0
    5.5428   -1.9803    1.2062 C   0  0  0  0  0  0  0  0  0  0  0  0
    4.1737   -1.8908    1.1709 C   0  0  0  0  0  0  0  0  0  0  0  0
    3.9086   -0.6113    0.7609 N   0  0  0  0  0  0  0  0  0  0  0  0
    2.5792   -0.0622    0.5725 C   0  0  0  0  0  0  0  0  0  0  0  0
    1.8401   -0.6535   -0.6426 C   0  0  0  0  0  0  0  0  0  0  0  0
    2.4867   -0.3089   -1.9923 C   0  0  0  0  0  0  0  0  0  0  0  0
    1.7852    0.9796   -2.4062 C   0  0  0  0  0  0  0  0  0  0  0  0
    0.3544    0.7421   -1.9509 C   0  0  0  0  0  0  0  0  0  0  0  0
    0.4878   -0.0980   -0.7715 N   0  0  0  0  0  0  0  0  0  0  0  0
   -0.5272   -0.4678    0.0840 C   0  0  0  0  0  0  0  0  0  0  0  0
   -0.3573   -1.2074    1.0461 O   0  0  0  0  0  0  0  0  0  0  0  0
   -1.8719    0.0976   -0.1941 C   0  0  1  0  0  0  0  0  0  0  0  0
   -2.7191   -0.4473   -1.3147 C   0  0  0  0  0  0  0  0  0  0  0  0
   -3.1090   -0.7358    0.1124 C   0  0  2  0  0  0  0  0  0  0  0  0
   -4.3130   -0.0678    0.7325 C   0  0  0  0  0  0  0  0  0  0  0  0
   -4.2245    0.5567    1.9880 C   0  0  0  0  0  0  0  0  0  0  0  0
   -5.3334    1.1687    2.5780 C   0  0  0  0  0  0  0  0  0  0  0  0
   -6.5616    1.1613    1.9237 C   0  0  0  0  0  0  0  0  0  0  0  0
   -6.6800    0.5383    0.6847 C   0  0  0  0  0  0  0  0  0  0  0  0
   -5.5670   -0.0723    0.1002 C   0  0  0  0  0  0  0  0  0  0  0  0
    4.8105    2.1138    0.9683 H   0  0  0  0  0  0  0  0  0  0  0  0
    4.7729    1.6537   -0.7509 H   0  0  0  0  0  0  0  0  0  0  0  0
    6.3125    1.7268    0.1166 H   0  0  0  0  0  0  0  0  0  0  0  0
    6.1477   -2.8358    1.4763 H   0  0  0  0  0  0  0  0  0  0  0  0
    3.3943   -2.6063    1.3949 H   0  0  0  0  0  0  0  0  0  0  0  0
    2.0312   -0.2643    1.5004 H   0  0  0  0  0  0  0  0  0  0  0  0
    2.6539    1.0274    0.4927 H   0  0  0  0  0  0  0  0  0  0  0  0
    1.7622   -1.7421   -0.5308 H   0  0  0  0  0  0  0  0  0  0  0  0
    3.5739   -0.2088   -1.9630 H   0  0  0  0  0  0  0  0  0  0  0  0
    2.2481   -1.0947   -2.7207 H   0  0  0  0  0  0  0  0  0  0  0  0
    2.2184    1.8312   -1.8687 H   0  0  0  0  0  0  0  0  0  0  0  0
    1.8566    1.1789   -3.4789 H   0  0  0  0  0  0  0  0  0  0  0  0
   -0.1749    1.6695   -1.7155 H   0  0  0  0  0  0  0  0  0  0  0  0
   -0.2121    0.1842   -2.7041 H   0  0  0  0  0  0  0  0  0  0  0  0
   -1.9444    1.1615    0.0095 H   0  0  0  0  0  0  0  0  0  0  0  0
   -2.3352   -1.2754   -1.9004 H   0  0  0  0  0  0  0  0  0  0  0  0
   -3.3044    0.2622   -1.8880 H   0  0  0  0  0  0  0  0  0  0  0  0
   -2.9313   -1.7550    0.4545 H   0  0  0  0  0  0  0  0  0  0  0  0
   -3.2738    0.5596    2.5185 H   0  0  0  0  0  0  0  0  0  0  0  0
   -5.2365    1.6443    3.5504 H   0  0  0  0  0  0  0  0  0  0  0  0
   -7.4263    1.6335    2.3818 H   0  0  0  0  0  0  0  0  0  0  0  0
   -7.6388    0.5214    0.1734 H   0  0  0  0  0  0  0  0  0  0  0  0
   -5.6809   -0.5636   -0.8637 H   0  0  0  0  0  0  0  0  0  0  0  0
  1  2  1  0
  2  3  2  0
  3  4  1  0
  4  5  2  0
  5  6  1  0
  6  7  1  0
  7  8  1  0
  8  9  1  0
  9 10  1  0
 10 11  1  0
 11 12  1  0
 12 13  1  0
 13 14  2  0
 13 15  1  0
 15 16  1  0
 16 17  1  0
 17 18  1  0
 18 19  2  0
 19 20  1  0
 20 21  2  0
 21 22  1  0
 22 23  2  0
  6  2  1  0
 12  8  1  0
 17 15  1  0
 23 18  1  0
  1 24  1  0
  1 25  1  0
  1 26  1  0
  4 27  1  0
  5 28  1  0
  7 29  1  0
  7 30  1  0
  8 31  1  0
  9 32  1  0
  9 33  1  0
 10 34  1  0
 10 35  1  0
 11 36  1  0
 11 37  1  0
 15 38  1  1
 16 39  1  0
 16 40  1  0
 17 41  1  6
 19 42  1  0
 20 43  1  0
 21 44  1  0
 22 45  1  0
 23 46  1  0
M  END
$$$$
OCNT-2315646
     RDKit          3D

 42 45  0  0  0  0  0  0  0  0999 V2000
    5.6035    0.8999    2.4248 C   0  0  0  0  0  0  0  0  0  0  0  0
    4.2092    0.8666    2.1464 O   0  0  0  0  0  0  0  0  0  0  0  0
    3.8241    0.2399    0.9950 C   0  0  0  0  0  0  0  0  0  0  0  0
    4.6594   -0.3960    0.0885 C   0  0  0  0  0  0  0  0  0  0  0  0
    4.1168   -0.9818   -1.0602 C   0  0  0  0  0  0  0  0  0  0  0  0
    2.7552   -0.9626   -1.3283 C   0  0  0  0  0  0  0  0  0  0  0  0
    2.3344   -1.5231   -2.4703 N   0  0  0  0  0  0  0  0  0  0  0  0
    1.0189   -1.4735   -2.7431 C   0  0  0  0  0  0  0  0  0  0  0  0
    0.0759   -0.9072   -1.9059 C   0  0  0  0  0  0  0  0  0  0  0  0
    0.4837   -0.3527   -0.6908 C   0  0  0  0  0  0  0  0  0  0  0  0
   -0.4441    0.1781    0.2120 N   0  0  0  0  0  0  0  0  0  0  0  0
   -0.6107   -0.5277    1.4928 C   0  0  0  0  0  0  0  0  0  0  0  0
   -1.8613   -1.4061    1.4641 C   0  0  0  0  0  0  0  0  0  0  0  0
   -3.1013   -0.5967    1.0882 C   0  0  0  0  0  0  0  0  0  0  0  0
   -2.8951    0.1074   -0.2602 C   0  0  0  0  0  0  0  0  0  0  0  0
   -4.0470    0.9049   -0.6411 N   0  0  0  0  0  0  0  0  0  0  0  0
   -4.8588    0.7253   -1.7182 C   0  0  0  0  0  0  0  0  0  0  0  0
   -5.7893    1.6512   -1.7254 N   0  0  0  0  0  0  0  0  0  0  0  0
   -5.5016    2.3845   -0.6100 C   0  0  0  0  0  0  0  0  0  0  0  0
   -4.4417    1.9660    0.0869 N   0  0  0  0  0  0  0  0  0  0  0  0
   -1.6099    0.9494   -0.2547 C   0  0  0  0  0  0  0  0  0  0  0  0
    1.8815   -0.3500   -0.4023 C   0  0  0  0  0  0  0  0  0  0  0  0
    2.4511    0.2638    0.7418 C   0  0  0  0  0  0  0  0  0  0  0  0
    6.1503    1.4361    1.6421 H   0  0  0  0  0  0  0  0  0  0  0  0
    6.0016   -0.1106    2.5646 H   0  0  0  0  0  0  0  0  0  0  0  0
    5.7441    1.4457    3.3628 H   0  0  0  0  0  0  0  0  0  0  0  0
    5.7332   -0.4493    0.2299 H   0  0  0  0  0  0  0  0  0  0  0  0
    4.7816   -1.4630   -1.7745 H   0  0  0  0  0  0  0  0  0  0  0  0
    0.7273   -1.9249   -3.6872 H   0  0  0  0  0  0  0  0  0  0  0  0
   -0.9607   -0.9348   -2.2088 H   0  0  0  0  0  0  0  0  0  0  0  0
   -0.7049    0.2188    2.2911 H   0  0  0  0  0  0  0  0  0  0  0  0
    0.2538   -1.1523    1.7457 H   0  0  0  0  0  0  0  0  0  0  0  0
   -2.0081   -1.8688    2.4464 H   0  0  0  0  0  0  0  0  0  0  0  0
   -1.7253   -2.2201    0.7413 H   0  0  0  0  0  0  0  0  0  0  0  0
   -3.3090    0.1368    1.8779 H   0  0  0  0  0  0  0  0  0  0  0  0
   -3.9736   -1.2597    1.0388 H   0  0  0  0  0  0  0  0  0  0  0  0
   -2.8063   -0.6730   -1.0257 H   0  0  0  0  0  0  0  0  0  0  0  0
   -4.7353   -0.0673   -2.4428 H   0  0  0  0  0  0  0  0  0  0  0  0
   -6.0792    3.2456   -0.2988 H   0  0  0  0  0  0  0  0  0  0  0  0
   -1.4261    1.3870   -1.2447 H   0  0  0  0  0  0  0  0  0  0  0  0
   -1.7262    1.8041    0.4249 H   0  0  0  0  0  0  0  0  0  0  0  0
    1.8097    0.7900    1.4453 H   0  0  0  0  0  0  0  0  0  0  0  0
  1  2  1  0
  2  3  1  0
  3  4  2  0
  4  5  1  0
  5  6  2  0
  6  7  1  0
  7  8  2  0
  8  9  1  0
  9 10  2  0
 10 11  1  0
 11 12  1  0
 12 13  1  0
 13 14  1  0
 14 15  1  0
 15 16  1  0
 16 17  1  0
 17 18  2  0
 18 19  1  0
 19 20  2  0
 15 21  1  0
 10 22  1  0
 22 23  2  0
 23  3  1  0
 22  6  1  0
 21 11  1  0
 20 16  1  0
  1 24  1  0
  1 25  1  0
  1 26  1  0
  4 27  1  0
  5 28  1  0
  8 29  1  0
  9 30  1  0
 12 31  1  0
 12 32  1  0
 13 33  1  0
 13 34  1  0
 14 35  1  0
 14 36  1  0
 15 37  1  0
 17 38  1  0
 19 39  1  0
 21 40  1  0
 21 41  1  0
 23 42  1  0
M  END
$$$$
OCNT-2315652
     RDKit          3D

 36 39  0  0  0  0  0  0  0  0999 V2000
   -2.5455    2.8366   -1.3044 C   0  0  0  0  0  0  0  0  0  0  0  0
   -3.1028    1.6081   -0.6645 C   0  0  0  0  0  0  0  0  0  0  0  0
   -2.4545    0.5284   -0.1680 C   0  0  0  0  0  0  0  0  0  0  0  0
   -0.9699    0.3197   -0.0880 C   0  0  0  0  0  0  0  0  0  0  0  0
   -0.2029    1.2546   -0.2859 O   0  0  0  0  0  0  0  0  0  0  0  0
   -0.6084   -0.9831    0.1951 N   0  0  0  0  0  0  0  0  0  0  0  0
    0.6893   -1.5087    0.3551 C   0  0  0  0  0  0  0  0  0  0  0  0
    0.7981   -2.8946    0.5142 C   0  0  0  0  0  0  0  0  0  0  0  0
    2.0480   -3.4908    0.6682 C   0  0  0  0  0  0  0  0  0  0  0  0
    3.2034   -2.7050    0.6761 C   0  0  0  0  0  0  0  0  0  0  0  0
    3.1235   -1.3116    0.5385 C   0  0  0  0  0  0  0  0  0  0  0  0
    4.3227   -0.4624    0.5660 C   0  0  0  0  0  0  0  0  0  0  0  0
    4.5237    0.8574    0.1922 C   0  0  0  0  0  0  0  0  0  0  0  0
    5.8740    1.1316    0.4709 C   0  0  0  0  0  0  0  0  0  0  0  0
    6.5056    0.0762    0.9860 N   0  0  0  0  0  0  0  0  0  0  0  0
    5.5478   -0.8667    1.0425 N   0  0  0  0  0  0  0  0  0  0  0  0
    1.8529   -0.7300    0.3744 C   0  0  0  0  0  0  0  0  0  0  0  0
   -3.5610   -0.7230    0.4632 S   0  0  0  0  0  0  0  0  0  0  0  0
   -4.8964    0.2738    0.0134 C   0  0  0  0  0  0  0  0  0  0  0  0
   -6.2584    0.2938    0.0098 C   0  0  0  0  0  0  0  0  0  0  0  0
   -6.6939    1.4860   -0.5368 N   0  0  0  0  0  0  0  0  0  0  0  0
   -5.5994    2.1610   -0.8446 C   0  0  0  0  0  0  0  0  0  0  0  0
   -4.4758    1.4449   -0.5431 N   0  0  0  0  0  0  0  0  0  0  0  0
   -2.6015    3.6841   -0.6141 H   0  0  0  0  0  0  0  0  0  0  0  0
   -1.5060    2.7219   -1.6206 H   0  0  0  0  0  0  0  0  0  0  0  0
   -3.1121    3.0952   -2.2060 H   0  0  0  0  0  0  0  0  0  0  0  0
   -1.3720   -1.6483    0.2647 H   0  0  0  0  0  0  0  0  0  0  0  0
   -0.0846   -3.5308    0.5070 H   0  0  0  0  0  0  0  0  0  0  0  0
    2.1234   -4.5706    0.7774 H   0  0  0  0  0  0  0  0  0  0  0  0
    4.1593   -3.2088    0.7818 H   0  0  0  0  0  0  0  0  0  0  0  0
    3.7943    1.5359   -0.2294 H   0  0  0  0  0  0  0  0  0  0  0  0
    6.4210    2.0541    0.3209 H   0  0  0  0  0  0  0  0  0  0  0  0
    5.7953   -1.7706    1.4345 H   0  0  0  0  0  0  0  0  0  0  0  0
    1.7863    0.3518    0.2803 H   0  0  0  0  0  0  0  0  0  0  0  0
   -6.9532   -0.4594    0.3544 H   0  0  0  0  0  0  0  0  0  0  0  0
   -5.5700    3.1493   -1.2817 H   0  0  0  0  0  0  0  0  0  0  0  0
  1  2  1  0
  2  3  2  0
  3  4  1  0
  4  5  2  0
  4  6  1  0
  6  7  1  0
  7  8  2  0
  8  9  1  0
  9 10  2  0
 10 11  1  0
 11 12  1  0
 12 13  2  0
 13 14  1  0
 14 15  2  0
 15 16  1  0
 11 17  2  0
  3 18  1  0
 18 19  1  0
 19 20  2  0
 20 21  1  0
 21 22  2  0
 22 23  1  0
 23  2  1  0
 17  7  1  0
 23 19  1  0
 16 12  1  0
  1 24  1  0
  1 25  1  0
  1 26  1  0
  6 27  1  0
  8 28  1  0
  9 29  1  0
 10 30  1  0
 13 31  1  0
 14 32  1  0
 16 33  1  0
 17 34  1  0
 20 35  1  0
 22 36  1  0
M  END
$$$$
OCNT-2315670
     RDKit          3D

 38 40  0  0  0  0  0  0  0  0999 V2000
   -1.9317   -1.8842   -1.4689 C   0  0  0  0  0  0  0  0  0  0  0  0
   -1.9996   -0.8365   -0.4803 N   0  0  0  0  0  0  0  0  0  0  0  0
   -0.9367   -0.2339    0.1577 C   0  0  0  0  0  0  0  0  0  0  0  0
    0.3587   -0.5061   -0.1765 N   0  0  0  0  0  0  0  0  0  0  0  0
    1.3198   -0.4094    0.9413 C   0  0  0  0  0  0  0  0  0  0  0  0
    2.0929    0.9027    0.8795 C   0  0  0  0  0  0  0  0  0  0  0  0
    2.9129    0.9887   -0.4131 C   0  0  0  0  0  0  0  0  0  0  0  0
    4.6255    0.4929   -0.1507 S   0  0  0  0  0  0  0  0  0  0  0  0
    5.1831    1.6631    0.9097 N   0  0  0  0  0  0  0  0  0  0  0  0
    5.3765    0.7015   -1.3665 O   0  0  0  0  0  0  0  0  0  0  0  0
    4.6772   -0.7503    0.5809 O   0  0  0  0  0  0  0  0  0  0  0  0
    2.3158    0.1395   -1.5442 C   0  0  0  0  0  0  0  0  0  0  0  0
    0.7985    0.0977   -1.4496 C   0  0  0  0  0  0  0  0  0  0  0  0
   -1.3581    0.5853    1.0965 N   0  0  0  0  0  0  0  0  0  0  0  0
   -2.7266    0.5607    1.0297 C   0  0  0  0  0  0  0  0  0  0  0  0
   -3.6735    1.2674    1.7896 C   0  0  0  0  0  0  0  0  0  0  0  0
   -5.0371    1.0751    1.5269 C   0  0  0  0  0  0  0  0  0  0  0  0
   -5.4493    0.1947    0.5259 C   0  0  0  0  0  0  0  0  0  0  0  0
   -4.5120   -0.5109   -0.2284 C   0  0  0  0  0  0  0  0  0  0  0  0
   -4.9196   -1.3510   -1.1879 F   0  0  0  0  0  0  0  0  0  0  0  0
   -3.1586   -0.3139    0.0402 C   0  0  0  0  0  0  0  0  0  0  0  0
   -2.7461   -2.5933   -1.3004 H   0  0  0  0  0  0  0  0  0  0  0  0
   -0.9840   -2.4207   -1.3821 H   0  0  0  0  0  0  0  0  0  0  0  0
   -2.0231   -1.4274   -2.4572 H   0  0  0  0  0  0  0  0  0  0  0  0
    0.8216   -0.5053    1.9148 H   0  0  0  0  0  0  0  0  0  0  0  0
    2.0070   -1.2616    0.8786 H   0  0  0  0  0  0  0  0  0  0  0  0
    2.7187    1.0068    1.7717 H   0  0  0  0  0  0  0  0  0  0  0  0
    1.3807    1.7378    0.9013 H   0  0  0  0  0  0  0  0  0  0  0  0
    2.9636    2.0353   -0.7390 H   0  0  0  0  0  0  0  0  0  0  0  0
    5.9277    2.2083    0.4706 H   0  0  0  0  0  0  0  0  0  0  0  0
    5.4649    1.2339    1.7933 H   0  0  0  0  0  0  0  0  0  0  0  0
    2.6215    0.5514   -2.5134 H   0  0  0  0  0  0  0  0  0  0  0  0
    2.7054   -0.8864   -1.5108 H   0  0  0  0  0  0  0  0  0  0  0  0
    0.4031    1.1177   -1.5512 H   0  0  0  0  0  0  0  0  0  0  0  0
    0.4079   -0.4893   -2.2884 H   0  0  0  0  0  0  0  0  0  0  0  0
   -3.3430    1.9503    2.5651 H   0  0  0  0  0  0  0  0  0  0  0  0
   -5.7772    1.6183    2.1098 H   0  0  0  0  0  0  0  0  0  0  0  0
   -6.5070    0.0496    0.3254 H   0  0  0  0  0  0  0  0  0  0  0  0
  1  2  1  0
  2  3  1  0
  3  4  1  0
  4  5  1  0
  5  6  1  0
  6  7  1  0
  7  8  1  0
  8  9  1  0
  8 10  2  0
  8 11  2  0
  7 12  1  0
 12 13  1  0
  3 14  2  0
 14 15  1  0
 15 16  2  0
 16 17  1  0
 17 18  2  0
 18 19  1  0
 19 20  1  0
 19 21  2  0
 21  2  1  0
 13  4  1  0
 21 15  1  0
  1 22  1  0
  1 23  1  0
  1 24  1  0
  5 25  1  0
  5 26  1  0
  6 27  1  0
  6 28  1  0
  7 29  1  0
  9 30  1  0
  9 31  1  0
 12 32  1  0
 12 33  1  0
 13 34  1  0
 13 35  1  0
 16 36  1  0
 17 37  1  0
 18 38  1  0
M  END
$$$$
OCNT-2315672
     RDKit          3D

 44 47  0  0  0  0  0  0  0  0999 V2000
   -5.6406    0.8443    0.4804 C   0  0  0  0  0  0  0  0  0  0  0  0
   -4.1159    0.9818    0.6073 C   0  0  0  0  0  0  0  0  0  0  0  0
   -3.7863    1.7760    1.8766 C   0  0  0  0  0  0  0  0  0  0  0  0
   -3.4336   -0.4035    0.6170 C   0  0  0  0  0  0  0  0  0  0  0  0
   -2.6321   -0.4934   -0.6950 C   0  0  0  0  0  0  0  0  0  0  0  0
   -2.8562   -1.8437   -1.3908 C   0  0  0  0  0  0  0  0  0  0  0  0
   -1.1636   -0.2903   -0.4453 C   0  0  0  0  0  0  0  0  0  0  0  0
   -0.1509   -1.0930   -0.6878 N   0  0  0  0  0  0  0  0  0  0  0  0
    0.9354   -0.3613   -0.2374 C   0  0  0  0  0  0  0  0  0  0  0  0
    2.3080   -0.8709   -0.3088 C   0  0  0  0  0  0  0  0  0  0  0  0
    2.5649   -2.1283   -0.8451 C   0  0  0  0  0  0  0  0  0  0  0  0
    3.8802   -2.5797   -0.8969 C   0  0  0  0  0  0  0  0  0  0  0  0
    4.9059   -1.7698   -0.4143 C   0  0  0  0  0  0  0  0  0  0  0  0
    4.5783   -0.5225    0.1094 C   0  0  0  0  0  0  0  0  0  0  0  0
    5.5900    0.3412    0.6148 N   0  0  0  0  0  0  0  0  0  0  0  0
    5.3810    1.5934    1.1542 C   0  0  0  0  0  0  0  0  0  0  0  0
    6.6205    2.0654    1.5100 C   0  0  0  0  0  0  0  0  0  0  0  0
    7.5913    1.1499    1.2104 N   0  0  0  0  0  0  0  0  0  0  0  0
    6.9487    0.1322    0.6779 C   0  0  0  0  0  0  0  0  0  0  0  0
    3.2986   -0.0712    0.1653 N   0  0  0  0  0  0  0  0  0  0  0  0
    0.5999    0.8410    0.2618 N   0  0  0  0  0  0  0  0  0  0  0  0
   -0.7814    0.8882    0.1269 O   0  0  0  0  0  0  0  0  0  0  0  0
   -3.2066    0.6485   -1.5390 C   0  0  0  0  0  0  0  0  0  0  0  0
   -3.6038    1.6910   -0.5816 N   0  0  0  0  0  0  0  0  0  0  0  0
   -5.9260    0.2740   -0.4111 H   0  0  0  0  0  0  0  0  0  0  0  0
   -6.0593    0.3248    1.3501 H   0  0  0  0  0  0  0  0  0  0  0  0
   -6.1248    1.8257    0.4157 H   0  0  0  0  0  0  0  0  0  0  0  0
   -2.7053    1.9077    2.0006 H   0  0  0  0  0  0  0  0  0  0  0  0
   -4.2413    2.7729    1.8529 H   0  0  0  0  0  0  0  0  0  0  0  0
   -4.1597    1.2600    2.7685 H   0  0  0  0  0  0  0  0  0  0  0  0
   -2.7853   -0.5351    1.4926 H   0  0  0  0  0  0  0  0  0  0  0  0
   -4.1885   -1.1984    0.6676 H   0  0  0  0  0  0  0  0  0  0  0  0
   -3.9197   -2.0193   -1.5894 H   0  0  0  0  0  0  0  0  0  0  0  0
   -2.3292   -1.8886   -2.3512 H   0  0  0  0  0  0  0  0  0  0  0  0
   -2.4944   -2.6743   -0.7732 H   0  0  0  0  0  0  0  0  0  0  0  0
    1.7579   -2.7519   -1.2187 H   0  0  0  0  0  0  0  0  0  0  0  0
    4.1041   -3.5593   -1.3122 H   0  0  0  0  0  0  0  0  0  0  0  0
    5.9233   -2.1397   -0.4639 H   0  0  0  0  0  0  0  0  0  0  0  0
    4.3909    2.0217    1.2322 H   0  0  0  0  0  0  0  0  0  0  0  0
    6.8622    3.0170    1.9660 H   0  0  0  0  0  0  0  0  0  0  0  0
    7.4300   -0.7694    0.3277 H   0  0  0  0  0  0  0  0  0  0  0  0
   -4.0981    0.3303   -2.0931 H   0  0  0  0  0  0  0  0  0  0  0  0
   -2.4954    1.0468   -2.2715 H   0  0  0  0  0  0  0  0  0  0  0  0
   -2.7732    2.2298   -0.3226 H   0  0  0  0  0  0  0  0  0  0  0  0
  1  2  1  0
  2  3  1  0
  2  4  1  0
  4  5  1  0
  5  6  1  0
  5  7  1  0
  7  8  2  0
  8  9  1  0
  9 10  1  0
 10 11  1  0
 11 12  2  0
 12 13  1  0
 13 14  2  0
 14 15  1  0
 15 16  1  0
 16 17  2  0
 17 18  1  0
 18 19  2  0
 14 20  1  0
  9 21  2  0
 21 22  1  0
  5 23  1  0
 23 24  1  0
 24  2  1  0
 22  7  1  0
 20 10  2  0
 19 15  1  0
  1 25  1  0
  1 26  1  0
  1 27  1  0
  3 28  1  0
  3 29  1  0
  3 30  1  0
  4 31  1  0
  4 32  1  0
  6 33  1  0
  6 34  1  0
  6 35  1  0
 11 36  1  0
 12 37  1  0
 13 38  1  0
 16 39  1  0
 17 40  1  0
 19 41  1  0
 23 42  1  0
 23 43  1  0
 24 44  1  0
M  END
$$$$
OCNT-2315694
     RDKit          3D

 44 47  0  0  0  0  0  0  0  0999 V2000
   -2.5939   -0.4802    2.7062 C   0  0  0  0  0  0  0  0  0  0  0  0
   -2.3224    0.5448    1.6117 C   0  0  0  0  0  0  0  0  0  0  0  0
   -3.6044    1.3253    1.2423 C   0  0  0  0  0  0  0  0  0  0  0  0
   -3.4088    1.4962   -0.2240 C   0  0  0  0  0  0  0  0  0  0  0  0
   -4.1083    2.3253   -1.0876 C   0  0  0  0  0  0  0  0  0  0  0  0
   -3.7707    2.3016   -2.4394 C   0  0  0  0  0  0  0  0  0  0  0  0
   -2.7591    1.4487   -2.9004 C   0  0  0  0  0  0  0  0  0  0  0  0
   -2.0710    0.6116   -2.0143 C   0  0  0  0  0  0  0  0  0  0  0  0
   -2.3931    0.6430   -0.6660 C   0  0  0  0  0  0  0  0  0  0  0  0
   -1.8405   -0.1273    0.3808 N   0  0  0  0  0  0  0  0  0  0  0  0
   -0.4178   -0.4641    0.2838 C   0  0  0  0  0  0  0  0  0  0  0  0
   -0.0723   -1.7104   -0.4772 C   0  0  0  0  0  0  0  0  0  0  0  0
    1.1468   -2.0385   -1.0628 C   0  0  0  0  0  0  0  0  0  0  0  0
    2.4368   -1.3697   -1.0951 C   0  0  0  0  0  0  0  0  0  0  0  0
    3.1181   -1.3033   -2.1125 O   0  0  0  0  0  0  0  0  0  0  0  0
    2.8096   -0.8560    0.1400 N   0  0  0  0  0  0  0  0  0  0  0  0
    3.9565   -0.0915    0.4430 C   0  0  0  0  0  0  0  0  0  0  0  0
    4.8505    0.3844   -0.5108 C   0  0  0  0  0  0  0  0  0  0  0  0
    5.9345    1.1357   -0.0832 C   0  0  0  0  0  0  0  0  0  0  0  0
    6.1782    1.4414    1.2085 N   0  0  0  0  0  0  0  0  0  0  0  0
    5.2988    0.9719    2.1143 C   0  0  0  0  0  0  0  0  0  0  0  0
    4.1862    0.2134    1.7858 C   0  0  0  0  0  0  0  0  0  0  0  0
    1.0306   -3.2271   -1.7312 O   0  0  0  0  0  0  0  0  0  0  0  0
   -0.2349   -3.6759   -1.5522 C   0  0  0  0  0  0  0  0  0  0  0  0
   -0.9511   -2.7920   -0.7857 C   0  0  0  0  0  0  0  0  0  0  0  0
   -3.3166   -1.2343    2.3750 H   0  0  0  0  0  0  0  0  0  0  0  0
   -2.9927    0.0064    3.6022 H   0  0  0  0  0  0  0  0  0  0  0  0
   -1.6773   -1.0079    2.9889 H   0  0  0  0  0  0  0  0  0  0  0  0
   -1.5603    1.2571    1.9593 H   0  0  0  0  0  0  0  0  0  0  0  0
   -4.5149    0.7470    1.4328 H   0  0  0  0  0  0  0  0  0  0  0  0
   -3.6530    2.2806    1.7733 H   0  0  0  0  0  0  0  0  0  0  0  0
   -4.8996    2.9734   -0.7261 H   0  0  0  0  0  0  0  0  0  0  0  0
   -4.2998    2.9399   -3.1426 H   0  0  0  0  0  0  0  0  0  0  0  0
   -2.5116    1.4288   -3.9591 H   0  0  0  0  0  0  0  0  0  0  0  0
   -1.3089   -0.0547   -2.4021 H   0  0  0  0  0  0  0  0  0  0  0  0
    0.1428    0.3902   -0.1198 H   0  0  0  0  0  0  0  0  0  0  0  0
   -0.0278   -0.6139    1.2994 H   0  0  0  0  0  0  0  0  0  0  0  0
    2.2469   -1.1464    0.9279 H   0  0  0  0  0  0  0  0  0  0  0  0
    4.7375    0.1989   -1.5717 H   0  0  0  0  0  0  0  0  0  0  0  0
    6.6568    1.5242   -0.7962 H   0  0  0  0  0  0  0  0  0  0  0  0
    5.5175    1.2290    3.1469 H   0  0  0  0  0  0  0  0  0  0  0  0
    3.5266   -0.1277    2.5750 H   0  0  0  0  0  0  0  0  0  0  0  0
   -0.4711   -4.6159   -2.0316 H   0  0  0  0  0  0  0  0  0  0  0  0
   -1.9927   -2.8821   -0.5057 H   0  0  0  0  0  0  0  0  0  0  0  0
  1  2  1  0
  2  3  1  0
  3  4  1  0
  4  5  2  0
  5  6  1  0
  6  7  2  0
  7  8  1  0
  8  9  2  0
  9 10  1  0
 10 11  1  0
 11 12  1  0
 12 13  2  0
 13 14  1  0
 14 15  2  0
 14 16  1  0
 16 17  1  0
 17 18  2  0
 18 19  1  0
 19 20  2  0
 20 21  1  0
 21 22  2  0
 13 23  1  0
 23 24  1  0
 24 25  2  0
 10  2  1  0
 25 12  1  0
  9  4  1  0
 22 17  1  0
  1 26  1  0
  1 27  1  0
  1 28  1  0
  2 29  1  0
  3 30  1  0
  3 31  1  0
  5 32  1  0
  6 33  1  0
  7 34  1  0
  8 35  1  0
 11 36  1  0
 11 37  1  0
 16 38  1  0
 18 39  1  0
 19 40  1  0
 21 41  1  0
 22 42  1  0
 24 43  1  0
 25 44  1  0
M  END
$$$$
OCNT-2315699
     RDKit          3D

 45 47  0  0  0  0  0  0  0  0999 V2000
    1.9153   -2.8762    2.6476 N   0  0  0  0  0  0  0  0  0  0  0  0
    2.3440   -2.2773    1.7492 C   0  0  0  0  0  0  0  0  0  0  0  0
    2.8952   -1.6008    0.6144 C   0  0  0  0  0  0  0  0  0  0  0  0
    3.9396   -2.2075   -0.0952 C   0  0  0  0  0  0  0  0  0  0  0  0
    4.4927   -1.5587   -1.1906 C   0  0  0  0  0  0  0  0  0  0  0  0
    3.9792   -0.3236   -1.5323 C   0  0  0  0  0  0  0  0  0  0  0  0
    2.9704    0.2815   -0.8670 N   0  0  0  0  0  0  0  0  0  0  0  0
    2.4181   -0.3510    0.1968 C   0  0  0  0  0  0  0  0  0  0  0  0
    1.3908    0.2844    0.9096 N   0  0  0  0  0  0  0  0  0  0  0  0
    0.9059    1.5633    0.3948 C   0  0  0  0  0  0  0  0  0  0  0  0
   -0.1404    1.4003   -0.7383 C   0  0  0  0  0  0  0  0  0  0  0  0
   -0.4792    2.7813   -1.3351 C   0  0  0  0  0  0  0  0  0  0  0  0
   -1.2740    3.6632   -0.3763 C   0  0  0  0  0  0  0  0  0  0  0  0
   -2.5271    2.9597    0.1278 C   0  0  0  0  0  0  0  0  0  0  0  0
   -2.2398    1.5699    0.6987 C   0  0  0  0  0  0  0  0  0  0  0  0
   -1.4620    0.6854   -0.3052 C   0  0  0  0  0  0  0  0  0  0  0  0
   -1.1975   -0.6889    0.1845 N   0  0  0  0  0  0  0  0  0  0  0  0
   -0.8895   -1.6195   -0.9173 C   0  0  0  0  0  0  0  0  0  0  0  0
   -1.0245   -2.9970   -0.2845 C   0  0  0  0  0  0  0  0  0  0  0  0
   -1.8971   -2.7862    0.9440 C   0  0  0  0  0  0  0  0  0  0  0  0
   -2.3217   -1.3283    0.8768 C   0  0  0  0  0  0  0  0  0  0  0  0
    4.3246   -3.1783    0.2090 H   0  0  0  0  0  0  0  0  0  0  0  0
    5.3052   -2.0001   -1.7568 H   0  0  0  0  0  0  0  0  0  0  0  0
    4.3758    0.2360   -2.3750 H   0  0  0  0  0  0  0  0  0  0  0  0
    0.5900   -0.3528    1.0140 H   0  0  0  0  0  0  0  0  0  0  0  0
    1.7386    2.1997    0.0689 H   0  0  0  0  0  0  0  0  0  0  0  0
    0.4635    2.0937    1.2440 H   0  0  0  0  0  0  0  0  0  0  0  0
    0.3191    0.8188   -1.5477 H   0  0  0  0  0  0  0  0  0  0  0  0
    0.4397    3.3001   -1.6336 H   0  0  0  0  0  0  0  0  0  0  0  0
   -1.0640    2.6374   -2.2529 H   0  0  0  0  0  0  0  0  0  0  0  0
   -0.6480    3.9548    0.4746 H   0  0  0  0  0  0  0  0  0  0  0  0
   -1.5568    4.5923   -0.8847 H   0  0  0  0  0  0  0  0  0  0  0  0
   -3.0136    3.5771    0.8916 H   0  0  0  0  0  0  0  0  0  0  0  0
   -3.2411    2.8640   -0.7001 H   0  0  0  0  0  0  0  0  0  0  0  0
   -1.6908    1.6614    1.6430 H   0  0  0  0  0  0  0  0  0  0  0  0
   -3.2072    1.1164    0.9437 H   0  0  0  0  0  0  0  0  0  0  0  0
   -2.1050    0.6100   -1.1949 H   0  0  0  0  0  0  0  0  0  0  0  0
   -1.6136   -1.5260   -1.7370 H   0  0  0  0  0  0  0  0  0  0  0  0
    0.1129   -1.4750   -1.3292 H   0  0  0  0  0  0  0  0  0  0  0  0
   -0.0480   -3.3952    0.0117 H   0  0  0  0  0  0  0  0  0  0  0  0
   -1.4785   -3.7086   -0.9820 H   0  0  0  0  0  0  0  0  0  0  0  0
   -2.7586   -3.4611    0.9556 H   0  0  0  0  0  0  0  0  0  0  0  0
   -1.3104   -2.9749    1.8510 H   0  0  0  0  0  0  0  0  0  0  0  0
   -2.4786   -0.9267    1.8827 H   0  0  0  0  0  0  0  0  0  0  0  0
   -3.2532   -1.2369    0.3038 H   0  0  0  0  0  0  0  0  0  0  0  0
  1  2  3  0
  2  3  1  0
  3  4  1  0
  4  5  2  0
  5  6  1  0
  6  7  2  0
  7  8  1  0
  8  9  1  0
  9 10  1  0
 10 11  1  0
 11 12  1  0
 12 13  1  0
 13 14  1  0
 14 15  1  0
 15 16  1  0
 16 17  1  0
 17 18  1  0
 18 19  1  0
 19 20  1  0
 20 21  1  0
  8  3  2  0
 16 11  1  0
 21 17  1  0
  4 22  1  0
  5 23  1  0
  6 24  1  0
  9 25  1  0
 10 26  1  0
 10 27  1  0
 11 28  1  0
 12 29  1  0
 12 30  1  0
 13 31  1  0
 13 32  1  0
 14 33  1  0
 14 34  1  0
 15 35  1  0
 15 36  1  0
 16 37  1  0
 18 38  1  0
 18 39  1  0
 19 40  1  0
 19 41  1  0
 20 42  1  0
 20 43  1  0
 21 44  1  0
 21 45  1  0
M  END
$$$$
OCNT-2315701
     RDKit          3D

 42 44  0  0  0  0  0  0  0  0999 V2000
    6.7032    0.3688    1.0501 C   0  0  0  0  0  0  0  0  0  0  0  0
    5.5391    1.1817    0.9712 O   0  0  0  0  0  0  0  0  0  0  0  0
    4.3253    0.5576    0.8821 C   0  0  0  0  0  0  0  0  0  0  0  0
    4.1402   -0.8269    0.8755 C   0  0  0  0  0  0  0  0  0  0  0  0
    2.8539   -1.3957    0.7837 C   0  0  0  0  0  0  0  0  0  0  0  0
    2.7439   -2.8988    0.7773 C   0  0  0  0  0  0  0  0  0  0  0  0
    1.7258   -0.5550    0.6939 C   0  0  0  0  0  0  0  0  0  0  0  0
    0.4425   -1.1456    0.6023 N   0  0  0  0  0  0  0  0  0  0  0  0
   -0.7917   -0.5086    0.4960 C   0  0  0  0  0  0  0  0  0  0  0  0
   -0.9752    0.7045    0.4808 O   0  0  0  0  0  0  0  0  0  0  0  0
   -1.9497   -1.5189    0.4616 C   0  0  0  0  0  0  0  0  0  0  0  0
   -3.1848   -0.9303   -0.0020 N   0  0  0  0  0  0  0  0  0  0  0  0
   -4.2652   -0.1449    1.0680 S   0  0  0  0  0  0  0  0  0  0  0  0
   -5.2398    0.4162   -0.2998 C   0  0  0  0  0  0  0  0  0  0  0  0
   -6.3987    1.1756   -0.2631 C   0  0  0  0  0  0  0  0  0  0  0  0
   -7.0189    1.5101   -1.4726 C   0  0  0  0  0  0  0  0  0  0  0  0
   -6.4787    1.0849   -2.6980 C   0  0  0  0  0  0  0  0  0  0  0  0
   -5.3106    0.3201   -2.7286 C   0  0  0  0  0  0  0  0  0  0  0  0
   -4.7101   -0.0024   -1.5191 C   0  0  0  0  0  0  0  0  0  0  0  0
   -3.4771   -0.7927   -1.3483 C   0  0  0  0  0  0  0  0  0  0  0  0
   -2.8360   -1.2466   -2.2837 O   0  0  0  0  0  0  0  0  0  0  0  0
    1.9215    0.8302    0.6998 C   0  0  0  0  0  0  0  0  0  0  0  0
    3.2092    1.3972    0.7926 C   0  0  0  0  0  0  0  0  0  0  0  0
    3.3776    2.8970    0.7923 C   0  0  0  0  0  0  0  0  0  0  0  0
    4.1408    3.3510   -0.2426 F   0  0  0  0  0  0  0  0  0  0  0  0
    3.9595    3.3706    1.9320 F   0  0  0  0  0  0  0  0  0  0  0  0
    2.1974    3.5757    0.6879 F   0  0  0  0  0  0  0  0  0  0  0  0
    6.6925   -0.2458    1.9572 H   0  0  0  0  0  0  0  0  0  0  0  0
    7.5708    1.0331    1.1078 H   0  0  0  0  0  0  0  0  0  0  0  0
    6.8156   -0.2490    0.1528 H   0  0  0  0  0  0  0  0  0  0  0  0
    4.9931   -1.4967    0.9401 H   0  0  0  0  0  0  0  0  0  0  0  0
    3.7231   -3.3790    0.8792 H   0  0  0  0  0  0  0  0  0  0  0  0
    2.1276   -3.2391    1.6158 H   0  0  0  0  0  0  0  0  0  0  0  0
    2.3067   -3.2428   -0.1658 H   0  0  0  0  0  0  0  0  0  0  0  0
    0.4215   -2.1563    0.5843 H   0  0  0  0  0  0  0  0  0  0  0  0
   -1.6819   -2.3355   -0.2185 H   0  0  0  0  0  0  0  0  0  0  0  0
   -2.0899   -1.9336    1.4663 H   0  0  0  0  0  0  0  0  0  0  0  0
   -6.8187    1.5065    0.6824 H   0  0  0  0  0  0  0  0  0  0  0  0
   -7.9291    2.1077   -1.4646 H   0  0  0  0  0  0  0  0  0  0  0  0
   -6.9728    1.3561   -3.6286 H   0  0  0  0  0  0  0  0  0  0  0  0
   -4.8795   -0.0137   -3.6676 H   0  0  0  0  0  0  0  0  0  0  0  0
    1.0778    1.5135    0.6281 H   0  0  0  0  0  0  0  0  0  0  0  0
  1  2  1  0
  2  3  1  0
  3  4  2  0
  4  5  1  0
  5  6  1  0
  5  7  2  0
  7  8  1  0
  8  9  1  0
  9 10  2  0
  9 11  1  0
 11 12  1  0
 12 13  1  0
 13 14  1  0
 14 15  2  0
 15 16  1  0
 16 17  2  0
 17 18  1  0
 18 19  2  0
 19 20  1  0
 20 21  2  0
  7 22  1  0
 22 23  2  0
 23 24  1  0
 24 25  1  0
 24 26  1  0
 24 27  1  0
 23  3  1  0
 20 12  1  0
 19 14  1  0
  1 28  1  0
  1 29  1  0
  1 30  1  0
  4 31  1  0
  6 32  1  0
  6 33  1  0
  6 34  1  0
  8 35  1  0
 11 36  1  0
 11 37  1  0
 15 38  1  0
 16 39  1  0
 17 40  1  0
 18 41  1  0
 22 42  1  0
M  END
$$$$
OCNT-2315705
     RDKit          3D

 39 42  0  0  0  0  0  0  0  0999 V2000
   -2.2658    2.6236    2.5720 C   0  0  0  0  0  0  0  0  0  0  0  0
   -2.1934    1.7302    1.3694 C   0  0  0  0  0  0  0  0  0  0  0  0
   -3.0142    1.9554    0.2645 C   0  0  0  0  0  0  0  0  0  0  0  0
   -2.9806    1.0953   -0.8405 C   0  0  0  0  0  0  0  0  0  0  0  0
   -2.1186   -0.0184   -0.8731 C   0  0  0  0  0  0  0  0  0  0  0  0
   -2.1041   -0.8334   -2.0452 N   0  0  0  0  0  0  0  0  0  0  0  0
   -3.0470   -0.8516   -3.0495 C   0  0  0  0  0  0  0  0  0  0  0  0
   -2.6861   -1.6585   -4.0195 N   0  0  0  0  0  0  0  0  0  0  0  0
   -1.4874   -2.2099   -3.6657 N   0  0  0  0  0  0  0  0  0  0  0  0
   -1.1559   -1.7215   -2.4909 C   0  0  0  0  0  0  0  0  0  0  0  0
   -1.2955   -0.2440    0.2459 C   0  0  0  0  0  0  0  0  0  0  0  0
   -0.4674   -1.4452    0.4298 C   0  0  0  0  0  0  0  0  0  0  0  0
   -1.0684   -2.5135    0.5339 O   0  0  0  0  0  0  0  0  0  0  0  0
    0.9087   -1.3407    0.5269 N   0  0  0  0  0  0  0  0  0  0  0  0
    1.6970   -2.5292    0.8849 C   0  0  0  0  0  0  0  0  0  0  0  0
    3.1344   -2.0646    1.1228 C   0  0  0  0  0  0  0  0  0  0  0  0
    3.1045   -0.6892    0.5349 C   0  0  0  0  0  0  0  0  0  0  0  0
    4.1898    0.1513    0.3329 C   0  0  0  0  0  0  0  0  0  0  0  0
    3.9456    1.4060   -0.2107 C   0  0  0  0  0  0  0  0  0  0  0  0
    4.9699    2.2426   -0.4216 F   0  0  0  0  0  0  0  0  0  0  0  0
    2.6515    1.8117   -0.5450 C   0  0  0  0  0  0  0  0  0  0  0  0
    1.5628    0.9568   -0.3311 C   0  0  0  0  0  0  0  0  0  0  0  0
    1.7970   -0.2921    0.2238 C   0  0  0  0  0  0  0  0  0  0  0  0
   -1.3547    0.6134    1.3635 C   0  0  0  0  0  0  0  0  0  0  0  0
   -2.5321    3.6459    2.2837 H   0  0  0  0  0  0  0  0  0  0  0  0
   -3.0162    2.2469    3.2738 H   0  0  0  0  0  0  0  0  0  0  0  0
   -1.2971    2.6719    3.0804 H   0  0  0  0  0  0  0  0  0  0  0  0
   -3.6938    2.8067    0.2529 H   0  0  0  0  0  0  0  0  0  0  0  0
   -3.6317    1.3506   -1.6733 H   0  0  0  0  0  0  0  0  0  0  0  0
   -3.9696   -0.2921   -3.0311 H   0  0  0  0  0  0  0  0  0  0  0  0
   -0.2396   -1.9650   -1.9788 H   0  0  0  0  0  0  0  0  0  0  0  0
    1.6406   -3.2337    0.0456 H   0  0  0  0  0  0  0  0  0  0  0  0
    1.2697   -3.0191    1.7668 H   0  0  0  0  0  0  0  0  0  0  0  0
    3.3570   -2.0108    2.1935 H   0  0  0  0  0  0  0  0  0  0  0  0
    3.8559   -2.7192    0.6260 H   0  0  0  0  0  0  0  0  0  0  0  0
    5.2008   -0.1472    0.5852 H   0  0  0  0  0  0  0  0  0  0  0  0
    2.5007    2.7963   -0.9783 H   0  0  0  0  0  0  0  0  0  0  0  0
    0.5813    1.3015   -0.6259 H   0  0  0  0  0  0  0  0  0  0  0  0
   -0.7480    0.3930    2.2416 H   0  0  0  0  0  0  0  0  0  0  0  0
  1  2  1  0
  2  3  1  0
  3  4  2  0
  4  5  1  0
  5  6  1  0
  6  7  1  0
  7  8  2  0
  8  9  1  0
  9 10  2  0
  5 11  2  0
 11 12  1  0
 12 13  2  0
 12 14  1  0
 14 15  1  0
 15 16  1  0
 16 17  1  0
 17 18  1  0
 18 19  2  0
 19 20  1  0
 19 21  1  0
 21 22  2  0
 22 23  1  0
 11 24  1  0
 24  2  2  0
 10  6  1  0
 23 14  1  0
 23 17  2  0
  1 25  1  0
  1 26  1  0
  1 27  1  0
  3 28  1  0
  4 29  1  0
  7 30  1  0
 10 31  1  0
 15 32  1  0
 15 33  1  0
 16 34  1  0
 16 35  1  0
 18 36  1  0
 21 37  1  0
 22 38  1  0
 24 39  1  0
M  END
$$$$
OCNT-2315717
     RDKit          3D

 45 47  0  0  0  0  0  0  0  0999 V2000
   -1.0021    3.5215   -1.2899 O   0  0  0  0  0  0  0  0  0  0  0  0
   -1.3439    2.6036   -0.5539 C   0  0  0  0  0  0  0  0  0  0  0  0
   -2.5932    2.7265    0.2952 C   0  0  0  0  0  0  0  0  0  0  0  0
   -3.8546    2.5479   -0.5376 C   0  0  0  0  0  0  0  0  0  0  0  0
   -4.0666    0.8689   -1.2466 S   0  0  0  0  0  0  0  0  0  0  0  0
   -4.1433   -0.1470    0.2159 C   0  0  0  0  0  0  0  0  0  0  0  0
   -5.0247    0.1250    1.2670 C   0  0  0  0  0  0  0  0  0  0  0  0
   -5.0502   -0.6972    2.3988 C   0  0  0  0  0  0  0  0  0  0  0  0
   -4.2050   -1.8017    2.4715 C   0  0  0  0  0  0  0  0  0  0  0  0
   -4.2333   -2.8079    3.8650 Cl  0  0  0  0  0  0  0  0  0  0  0  0
   -3.3401   -2.0955    1.4198 C   0  0  0  0  0  0  0  0  0  0  0  0
   -3.3125   -1.2712    0.2928 C   0  0  0  0  0  0  0  0  0  0  0  0
   -0.7051    1.3862   -0.3929 N   0  0  0  0  0  0  0  0  0  0  0  0
    0.4161    0.9026   -1.0958 C   0  0  0  0  0  0  0  0  0  0  0  0
    1.0523    1.5977   -2.1260 C   0  0  0  0  0  0  0  0  0  0  0  0
    2.1369    1.0323   -2.8073 C   0  0  0  0  0  0  0  0  0  0  0  0
    2.6045   -0.2313   -2.4584 C   0  0  0  0  0  0  0  0  0  0  0  0
    1.9885   -0.9167   -1.4123 C   0  0  0  0  0  0  0  0  0  0  0  0
    2.5451   -2.5388   -0.9584 S   0  0  0  0  0  0  0  0  0  0  0  0
    1.3595   -3.3215   -0.6693 O   0  0  0  0  0  0  0  0  0  0  0  0
    3.5217   -2.9816   -1.9300 O   0  0  0  0  0  0  0  0  0  0  0  0
    3.2928   -2.2732    0.5158 N   0  0  0  0  0  0  0  0  0  0  0  0
    4.4815   -1.5799    0.7269 C   0  0  0  0  0  0  0  0  0  0  0  0
    5.3652   -1.0282   -0.1672 C   0  0  0  0  0  0  0  0  0  0  0  0
    6.3673   -0.4677    0.5727 N   0  0  0  0  0  0  0  0  0  0  0  0
    6.1962   -0.6099    1.8989 N   0  0  0  0  0  0  0  0  0  0  0  0
    5.0543   -1.2957    1.9902 C   0  0  0  0  0  0  0  0  0  0  0  0
    0.8907   -0.3644   -0.7409 C   0  0  0  0  0  0  0  0  0  0  0  0
   -2.5658    2.0373    1.1427 H   0  0  0  0  0  0  0  0  0  0  0  0
   -2.5835    3.7319    0.7289 H   0  0  0  0  0  0  0  0  0  0  0  0
   -3.8422    3.2451   -1.3817 H   0  0  0  0  0  0  0  0  0  0  0  0
   -4.7360    2.7937    0.0618 H   0  0  0  0  0  0  0  0  0  0  0  0
   -5.7118    0.9651    1.2148 H   0  0  0  0  0  0  0  0  0  0  0  0
   -5.7395   -0.4777    3.2111 H   0  0  0  0  0  0  0  0  0  0  0  0
   -2.6918   -2.9666    1.4655 H   0  0  0  0  0  0  0  0  0  0  0  0
   -2.6431   -1.5209   -0.5303 H   0  0  0  0  0  0  0  0  0  0  0  0
   -1.1094    0.7536    0.2815 H   0  0  0  0  0  0  0  0  0  0  0  0
    0.7170    2.5816   -2.4407 H   0  0  0  0  0  0  0  0  0  0  0  0
    2.6044    1.5820   -3.6208 H   0  0  0  0  0  0  0  0  0  0  0  0
    3.4355   -0.6695   -3.0057 H   0  0  0  0  0  0  0  0  0  0  0  0
    2.7882   -2.6716    1.3073 H   0  0  0  0  0  0  0  0  0  0  0  0
    5.3922   -0.9957   -1.2465 H   0  0  0  0  0  0  0  0  0  0  0  0
    7.1942    0.0206    0.2429 H   0  0  0  0  0  0  0  0  0  0  0  0
    4.6832   -1.5578    2.9738 H   0  0  0  0  0  0  0  0  0  0  0  0
    0.4104   -0.9318    0.0513 H   0  0  0  0  0  0  0  0  0  0  0  0
  1  2  2  0
  2  3  1  0
  3  4  1  0
  4  5  1  0
  5  6  1  0
  6  7  1  0
  7  8  2  0
  8  9  1  0
  9 10  1  0
  9 11  2  0
 11 12  1  0
  2 13  1  0
 13 14  1  0
 14 15  1  0
 15 16  2  0
 16 17  1  0
 17 18  2  0
 18 19  1  0
 19 20  2  0
 19 21  2  0
 19 22  1  0
 22 23  1  0
 23 24  2  0
 24 25  1  0
 25 26  1  0
 26 27  2  0
 18 28  1  0
 12  6  2  0
 28 14  2  0
 27 23  1  0
  3 29  1  0
  3 30  1  0
  4 31  1  0
  4 32  1  0
  7 33  1  0
  8 34  1  0
 11 35  1  0
 12 36  1  0
 13 37  1  0
 15 38  1  0
 16 39  1  0
 17 40  1  0
 22 41  1  0
 24 42  1  0
 25 43  1  0
 27 44  1  0
 28 45  1  0
M  END
$$$$
OCNT-2315727
     RDKit          3D

 49 51  0  0  0  0  0  0  0  0999 V2000
   -5.1798   -0.1377   -2.4134 C   0  0  0  0  0  0  0  0  0  0  0  0
   -3.7382    0.1793   -2.0549 C   0  0  0  0  0  0  0  0  0  0  0  0
   -3.4440    1.6865   -1.9722 C   0  0  0  0  0  0  0  0  0  0  0  0
   -2.6829    1.8598   -0.6584 C   0  0  0  0  0  0  0  0  0  0  0  0
   -1.4906    2.8142   -0.7156 C   0  0  0  0  0  0  0  0  0  0  0  0
   -0.4194    2.4618    0.3321 C   0  0  0  0  0  0  0  0  0  0  0  0
   -1.0049    1.6594    1.5056 C   0  0  0  0  0  0  0  0  0  0  0  0
    0.0545    1.3180    2.5414 C   0  0  0  0  0  0  0  0  0  0  0  0
   -0.0224    1.7161    3.7010 O   0  0  0  0  0  0  0  0  0  0  0  0
    1.0854    0.5347    2.1006 N   0  0  0  0  0  0  0  0  0  0  0  0
    2.1804    0.1479    2.9648 C   0  0  0  0  0  0  0  0  0  0  0  0
    3.0269   -0.8585    2.2449 C   0  0  0  0  0  0  0  0  0  0  0  0
    3.0064   -1.0511    0.9390 N   0  0  0  0  0  0  0  0  0  0  0  0
    3.8841   -2.0667    0.5905 C   0  0  0  0  0  0  0  0  0  0  0  0
    4.0114   -2.4558   -0.8568 C   0  0  0  0  0  0  0  0  0  0  0  0
    2.6454   -2.7432   -1.4855 C   0  0  0  0  0  0  0  0  0  0  0  0
    4.7541   -1.3794   -1.6518 C   0  0  0  0  0  0  0  0  0  0  0  0
    4.5731   -2.6193    1.6536 C   0  0  0  0  0  0  0  0  0  0  0  0
    4.1076   -1.8667    3.1200 S   0  0  0  0  0  0  0  0  0  0  0  0
   -1.7504    0.3889    1.0362 C   0  0  0  0  0  0  0  0  0  0  0  0
   -2.2207    0.5084   -0.3460 N   0  0  0  0  0  0  0  0  0  0  0  0
   -3.3270   -0.3770   -0.6909 C   0  0  0  0  0  0  0  0  0  0  0  0
   -5.4346    0.2775   -3.3937 H   0  0  0  0  0  0  0  0  0  0  0  0
   -5.8755    0.2813   -1.6787 H   0  0  0  0  0  0  0  0  0  0  0  0
   -5.3389   -1.2202   -2.4503 H   0  0  0  0  0  0  0  0  0  0  0  0
   -3.0866   -0.2537   -2.8260 H   0  0  0  0  0  0  0  0  0  0  0  0
   -4.3595    2.2884   -1.9671 H   0  0  0  0  0  0  0  0  0  0  0  0
   -2.8535    1.9922   -2.8428 H   0  0  0  0  0  0  0  0  0  0  0  0
   -3.3926    2.2041    0.1074 H   0  0  0  0  0  0  0  0  0  0  0  0
   -1.8485    3.8359   -0.5414 H   0  0  0  0  0  0  0  0  0  0  0  0
   -1.0202    2.8158   -1.7068 H   0  0  0  0  0  0  0  0  0  0  0  0
    0.3698    1.8825   -0.1638 H   0  0  0  0  0  0  0  0  0  0  0  0
    0.0646    3.3778    0.6923 H   0  0  0  0  0  0  0  0  0  0  0  0
   -1.7339    2.3110    2.0099 H   0  0  0  0  0  0  0  0  0  0  0  0
    1.1667    0.2699    1.1231 H   0  0  0  0  0  0  0  0  0  0  0  0
    1.7668   -0.2580    3.8937 H   0  0  0  0  0  0  0  0  0  0  0  0
    2.7633    1.0446    3.1982 H   0  0  0  0  0  0  0  0  0  0  0  0
    4.6003   -3.3814   -0.9139 H   0  0  0  0  0  0  0  0  0  0  0  0
    2.7577   -3.1039   -2.5130 H   0  0  0  0  0  0  0  0  0  0  0  0
    2.0160   -1.8458   -1.5122 H   0  0  0  0  0  0  0  0  0  0  0  0
    2.1090   -3.5094   -0.9155 H   0  0  0  0  0  0  0  0  0  0  0  0
    5.7570   -1.2121   -1.2415 H   0  0  0  0  0  0  0  0  0  0  0  0
    4.8650   -1.6766   -2.6996 H   0  0  0  0  0  0  0  0  0  0  0  0
    4.2218   -0.4209   -1.6275 H   0  0  0  0  0  0  0  0  0  0  0  0
    5.3074   -3.4116    1.6397 H   0  0  0  0  0  0  0  0  0  0  0  0
   -2.5905    0.2240    1.7249 H   0  0  0  0  0  0  0  0  0  0  0  0
   -1.1205   -0.5047    1.1084 H   0  0  0  0  0  0  0  0  0  0  0  0
   -3.0102   -1.4224   -0.7620 H   0  0  0  0  0  0  0  0  0  0  0  0
   -4.1492   -0.3037    0.0323 H   0  0  0  0  0  0  0  0  0  0  0  0
  1  2  1  0
  2  3  1  0
  3  4  1  0
  4  5  1  0
  5  6  1  0
  6  7  1  0
  7  8  1  0
  8  9  2  0
  8 10  1  0
 10 11  1  0
 11 12  1  0
 12 13  2  0
 13 14  1  0
 14 15  1  0
 15 16  1  0
 15 17  1  0
 14 18  2  0
 18 19  1  0
  7 20  1  0
 20 21  1  0
 21 22  1  0
 22  2  1  0
 21  4  1  0
 19 12  1  0
  1 23  1  0
  1 24  1  0
  1 25  1  0
  2 26  1  0
  3 27  1  0
  3 28  1  0
  4 29  1  0
  5 30  1  0
  5 31  1  0
  6 32  1  0
  6 33  1  0
  7 34  1  0
 10 35  1  0
 11 36  1  0
 11 37  1  0
 15 38  1  0
 16 39  1  0
 16 40  1  0
 16 41  1  0
 17 42  1  0
 17 43  1  0
 17 44  1  0
 18 45  1  0
 20 46  1  0
 20 47  1  0
 22 48  1  0
 22 49  1  0
M  END
$$$$
OCNT-2315734
     RDKit          3D

 39 41  0  0  0  0  0  0  0  0999 V2000
   -2.5368   -2.1329    4.0788 C   0  0  0  0  0  0  0  0  0  0  0  0
   -2.2306   -1.4987    2.7681 C   0  0  0  0  0  0  0  0  0  0  0  0
   -3.1376   -1.0935    1.9125 N   0  0  0  0  0  0  0  0  0  0  0  0
   -2.5334   -0.5322    0.7921 C   0  0  0  0  0  0  0  0  0  0  0  0
   -3.3828    0.0050   -0.2628 C   0  0  0  0  0  0  0  0  0  0  0  0
   -3.2216    1.3103   -0.7440 C   0  0  0  0  0  0  0  0  0  0  0  0
   -4.0722    1.8080   -1.7348 C   0  0  0  0  0  0  0  0  0  0  0  0
   -5.0980    1.0113   -2.2409 C   0  0  0  0  0  0  0  0  0  0  0  0
   -5.2795   -0.2819   -1.7543 C   0  0  0  0  0  0  0  0  0  0  0  0
   -4.4290   -0.7808   -0.7653 C   0  0  0  0  0  0  0  0  0  0  0  0
   -1.1440   -0.5577    0.7940 C   0  0  0  0  0  0  0  0  0  0  0  0
   -0.1877   -0.1389   -0.2288 C   0  0  0  0  0  0  0  0  0  0  0  0
   -0.5246    0.1215   -1.3789 O   0  0  0  0  0  0  0  0  0  0  0  0
    1.1288   -0.0646    0.2127 N   0  0  0  0  0  0  0  0  0  0  0  0
    2.2757    0.3214   -0.5105 C   0  0  0  0  0  0  0  0  0  0  0  0
    2.2602    0.7402   -1.8442 C   0  0  0  0  0  0  0  0  0  0  0  0
    3.4445    1.1243   -2.4832 C   0  0  0  0  0  0  0  0  0  0  0  0
    4.6517    1.0889   -1.7949 C   0  0  0  0  0  0  0  0  0  0  0  0
    5.7692    1.4371   -2.4470 F   0  0  0  0  0  0  0  0  0  0  0  0
    4.6881    0.6630   -0.4712 C   0  0  0  0  0  0  0  0  0  0  0  0
    5.9730    0.6388    0.2560 C   0  0  0  0  0  0  0  0  0  0  0  0
    6.1840   -0.4337    1.0813 N   0  0  0  0  0  0  0  0  0  0  0  0
    6.8114    1.5194    0.1370 O   0  0  0  0  0  0  0  0  0  0  0  0
    3.4995    0.2849    0.1734 C   0  0  0  0  0  0  0  0  0  0  0  0
   -0.6084   -1.2538    2.2842 S   0  0  0  0  0  0  0  0  0  0  0  0
   -3.6193   -2.2102    4.2228 H   0  0  0  0  0  0  0  0  0  0  0  0
   -2.1290   -1.5392    4.9031 H   0  0  0  0  0  0  0  0  0  0  0  0
   -2.1173   -3.1426    4.1301 H   0  0  0  0  0  0  0  0  0  0  0  0
   -2.4343    1.9520   -0.3575 H   0  0  0  0  0  0  0  0  0  0  0  0
   -3.9325    2.8181   -2.1107 H   0  0  0  0  0  0  0  0  0  0  0  0
   -5.7583    1.4000   -3.0116 H   0  0  0  0  0  0  0  0  0  0  0  0
   -6.0840   -0.9017   -2.1406 H   0  0  0  0  0  0  0  0  0  0  0  0
   -4.5864   -1.7870   -0.3827 H   0  0  0  0  0  0  0  0  0  0  0  0
    1.2702   -0.3211    1.1821 H   0  0  0  0  0  0  0  0  0  0  0  0
    1.3421    0.7891   -2.4225 H   0  0  0  0  0  0  0  0  0  0  0  0
    3.4281    1.4507   -3.5193 H   0  0  0  0  0  0  0  0  0  0  0  0
    7.1208   -0.5069    1.4608 H   0  0  0  0  0  0  0  0  0  0  0  0
    5.6641   -1.2934    0.9731 H   0  0  0  0  0  0  0  0  0  0  0  0
    3.5355   -0.0129    1.2183 H   0  0  0  0  0  0  0  0  0  0  0  0
  1  2  1  0
  2  3  2  0
  3  4  1  0
  4  5  1  0
  5  6  2  0
  6  7  1  0
  7  8  2  0
  8  9  1  0
  9 10  2  0
  4 11  2  0
 11 12  1  0
 12 13  2  0
 12 14  1  0
 14 15  1  0
 15 16  1  0
 16 17  2  0
 17 18  1  0
 18 19  1  0
 18 20  2  0
 20 21  1  0
 21 22  1  0
 21 23  2  0
 20 24  1  0
 11 25  1  0
 25  2  1  0
 10  5  1  0
 24 15  2  0
  1 26  1  0
  1 27  1  0
  1 28  1  0
  6 29  1  0
  7 30  1  0
  8 31  1  0
  9 32  1  0
 10 33  1  0
 14 34  1  0
 16 35  1  0
 17 36  1  0
 22 37  1  0
 22 38  1  0
 24 39  1  0
M  END
$$$$
OCNT-2315739
     RDKit          3D

 37 39  0  0  0  0  0  0  0  0999 V2000
    7.3322   -0.4787    0.0863 N   0  0  0  0  0  0  0  0  0  0  0  0
    6.1878   -0.2845    0.0993 C   0  0  0  0  0  0  0  0  0  0  0  0
    4.7748   -0.0414    0.1187 C   0  0  0  0  0  0  0  0  0  0  0  0
    4.2827    1.2473   -0.1590 C   0  0  0  0  0  0  0  0  0  0  0  0
    2.9082    1.5085   -0.1377 C   0  0  0  0  0  0  0  0  0  0  0  0
    2.0352    0.4658    0.1433 C   0  0  0  0  0  0  0  0  0  0  0  0
    2.5309   -0.8142    0.4293 C   0  0  0  0  0  0  0  0  0  0  0  0
    3.8916   -1.0827    0.4247 C   0  0  0  0  0  0  0  0  0  0  0  0
    1.4189   -1.7545    0.7708 C   0  0  0  0  0  0  0  0  0  0  0  0
    0.2171   -1.0152    0.1718 C   0  0  0  0  0  0  0  0  0  0  0  0
    0.5271    0.4949    0.2808 C   0  0  0  0  0  0  0  0  0  0  0  0
   -0.1314    1.2934   -0.7564 N   0  0  0  0  0  0  0  0  0  0  0  0
   -1.5235    1.6253   -0.4405 C   0  0  0  0  0  0  0  0  0  0  0  0
   -2.5006    0.5096   -0.7146 C   0  0  0  0  0  0  0  0  0  0  0  0
   -2.5766   -0.0263   -2.0004 C   0  0  0  0  0  0  0  0  0  0  0  0
   -3.4301   -1.0058   -2.3743 N   0  0  0  0  0  0  0  0  0  0  0  0
   -4.2551   -1.4889   -1.4278 C   0  0  0  0  0  0  0  0  0  0  0  0
   -4.2676   -1.0337   -0.1215 C   0  0  0  0  0  0  0  0  0  0  0  0
   -3.3799   -0.0132    0.2546 C   0  0  0  0  0  0  0  0  0  0  0  0
   -3.3874    0.4886    1.6758 C   0  0  0  0  0  0  0  0  0  0  0  0
   -2.1788    0.3421    2.2873 F   0  0  0  0  0  0  0  0  0  0  0  0
   -3.6921    1.8131    1.7589 F   0  0  0  0  0  0  0  0  0  0  0  0
   -4.2855   -0.1489    2.4774 F   0  0  0  0  0  0  0  0  0  0  0  0
    4.9732    2.0578   -0.3873 H   0  0  0  0  0  0  0  0  0  0  0  0
    2.5470    2.5123   -0.3356 H   0  0  0  0  0  0  0  0  0  0  0  0
    4.2581   -2.0796    0.6554 H   0  0  0  0  0  0  0  0  0  0  0  0
    1.3258   -1.8506    1.8574 H   0  0  0  0  0  0  0  0  0  0  0  0
    1.5485   -2.7405    0.3159 H   0  0  0  0  0  0  0  0  0  0  0  0
    0.1177   -1.3094   -0.8834 H   0  0  0  0  0  0  0  0  0  0  0  0
   -0.7120   -1.2962    0.6757 H   0  0  0  0  0  0  0  0  0  0  0  0
    0.3006    0.8696    1.2875 H   0  0  0  0  0  0  0  0  0  0  0  0
    0.3738    2.1737   -0.8401 H   0  0  0  0  0  0  0  0  0  0  0  0
   -1.8221    2.4644   -1.0831 H   0  0  0  0  0  0  0  0  0  0  0  0
   -1.5954    2.0141    0.5796 H   0  0  0  0  0  0  0  0  0  0  0  0
   -1.9222    0.3304   -2.7938 H   0  0  0  0  0  0  0  0  0  0  0  0
   -4.9279   -2.2764   -1.7561 H   0  0  0  0  0  0  0  0  0  0  0  0
   -4.9628   -1.4702    0.5907 H   0  0  0  0  0  0  0  0  0  0  0  0
  1  2  3  0
  2  3  1  0
  3  4  1  0
  4  5  2  0
  5  6  1  0
  6  7  2  0
  7  8  1  0
  7  9  1  0
  9 10  1  0
 10 11  1  0
 11 12  1  0
 12 13  1  0
 13 14  1  0
 14 15  2  0
 15 16  1  0
 16 17  2  0
 17 18  1  0
 18 19  2  0
 19 20  1  0
 20 21  1  0
 20 22  1  0
 20 23  1  0
  8  3  2  0
 19 14  1  0
 11  6  1  0
  4 24  1  0
  5 25  1  0
  8 26  1  0
  9 27  1  0
  9 28  1  0
 10 29  1  0
 10 30  1  0
 11 31  1  0
 12 32  1  0
 13 33  1  0
 13 34  1  0
 15 35  1  0
 17 36  1  0
 18 37  1  0
M  END
$$$$
OCNT-2315757
     RDKit          3D

 43 46  0  0  0  0  0  0  0  0999 V2000
   -2.2980    3.9084    0.6982 C   0  0  0  0  0  0  0  0  0  0  0  0
   -2.0583    3.4255   -0.5862 C   0  0  0  0  0  0  0  0  0  0  0  0
   -1.7154    2.0863   -0.7764 C   0  0  0  0  0  0  0  0  0  0  0  0
   -1.5999    1.2136    0.3185 C   0  0  0  0  0  0  0  0  0  0  0  0
   -1.2527   -0.2563    0.1283 C   0  0  0  0  0  0  0  0  0  0  0  0
   -2.5392   -0.9812   -0.3511 C   0  0  0  0  0  0  0  0  0  0  0  0
   -2.4114   -2.4256   -0.3602 N   0  0  0  0  0  0  0  0  0  0  0  0
   -2.4499   -3.2500    0.7289 C   0  0  0  0  0  0  0  0  0  0  0  0
   -2.2607   -4.5140    0.2207 C   0  0  0  0  0  0  0  0  0  0  0  0
   -2.1191   -4.4734   -1.1423 N   0  0  0  0  0  0  0  0  0  0  0  0
   -2.2369   -3.2059   -1.4667 C   0  0  0  0  0  0  0  0  0  0  0  0
   -0.1227   -0.4559   -0.8136 N   0  0  0  0  0  0  0  0  0  0  0  0
    1.2141   -0.3108   -0.1911 C   0  0  0  0  0  0  0  0  0  0  0  0
    2.2640   -0.9279   -1.1723 C   0  0  0  0  0  0  0  0  0  0  0  0
    3.6945   -0.9596   -0.5851 C   0  0  0  0  0  0  0  0  0  0  0  0
    4.0099    0.3208    0.0806 C   0  0  0  0  0  0  0  0  0  0  0  0
    3.0456    1.2323    0.4175 C   0  0  0  0  0  0  0  0  0  0  0  0
    1.5904    1.1585    0.1741 C   0  0  0  0  0  0  0  0  0  0  0  0
    3.5966    2.3065    1.0237 O   0  0  0  0  0  0  0  0  0  0  0  0
    4.9736    2.1074    1.1031 N   0  0  0  0  0  0  0  0  0  0  0  0
    5.1974    0.9165    0.5322 C   0  0  0  0  0  0  0  0  0  0  0  0
   -1.8527    1.7133    1.6063 C   0  0  0  0  0  0  0  0  0  0  0  0
   -2.1962    3.0535    1.7935 C   0  0  0  0  0  0  0  0  0  0  0  0
   -2.5613    4.9526    0.8458 H   0  0  0  0  0  0  0  0  0  0  0  0
   -2.1337    4.0932   -1.4407 H   0  0  0  0  0  0  0  0  0  0  0  0
   -1.5226    1.7273   -1.7857 H   0  0  0  0  0  0  0  0  0  0  0  0
   -0.9736   -0.6890    1.0986 H   0  0  0  0  0  0  0  0  0  0  0  0
   -3.3871   -0.7509    0.3073 H   0  0  0  0  0  0  0  0  0  0  0  0
   -2.8243   -0.6638   -1.3624 H   0  0  0  0  0  0  0  0  0  0  0  0
   -2.5995   -2.8899    1.7371 H   0  0  0  0  0  0  0  0  0  0  0  0
   -2.2208   -5.4505    0.7623 H   0  0  0  0  0  0  0  0  0  0  0  0
   -2.1942   -2.8072   -2.4726 H   0  0  0  0  0  0  0  0  0  0  0  0
   -0.1783   -1.4076   -1.1809 H   0  0  0  0  0  0  0  0  0  0  0  0
    1.2482   -0.9217    0.7224 H   0  0  0  0  0  0  0  0  0  0  0  0
    1.9811   -1.9528   -1.4443 H   0  0  0  0  0  0  0  0  0  0  0  0
    2.2711   -0.3430   -2.1028 H   0  0  0  0  0  0  0  0  0  0  0  0
    4.4152   -1.1718   -1.3823 H   0  0  0  0  0  0  0  0  0  0  0  0
    3.7653   -1.7714    0.1488 H   0  0  0  0  0  0  0  0  0  0  0  0
    1.0517    1.4846    1.0682 H   0  0  0  0  0  0  0  0  0  0  0  0
    1.3373    1.8339   -0.6512 H   0  0  0  0  0  0  0  0  0  0  0  0
    6.2121    0.5480    0.4795 H   0  0  0  0  0  0  0  0  0  0  0  0
   -1.7778    1.0652    2.4768 H   0  0  0  0  0  0  0  0  0  0  0  0
   -2.3818    3.4327    2.7954 H   0  0  0  0  0  0  0  0  0  0  0  0
  1  2  2  0
  2  3  1  0
  3  4  2  0
  4  5  1  0
  5  6  1  0
  6  7  1  0
  7  8  1  0
  8  9  2  0
  9 10  1  0
 10 11  2  0
  5 12  1  0
 12 13  1  0
 13 14  1  0
 14 15  1  0
 15 16  1  0
 16 17  2  0
 17 18  1  0
 17 19  1  0
 19 20  1  0
 20 21  2  0
  4 22  1  0
 22 23  2  0
 23  1  1  0
 11  7  1  0
 18 13  1  0
 21 16  1  0
  1 24  1  0
  2 25  1  0
  3 26  1  0
  5 27  1  0
  6 28  1  0
  6 29  1  0
  8 30  1  0
  9 31  1  0
 11 32  1  0
 12 33  1  0
 13 34  1  0
 14 35  1  0
 14 36  1  0
 15 37  1  0
 15 38  1  0
 18 39  1  0
 18 40  1  0
 21 41  1  0
 22 42  1  0
 23 43  1  0
M  END
$$$$
OCNT-2315764
     RDKit          3D

 40 42  0  0  0  0  0  0  0  0999 V2000
   -1.2920    2.4742   -2.2717 O   0  0  0  0  0  0  0  0  0  0  0  0
   -0.6403    1.3416   -1.6528 S   0  0  0  0  0  0  0  0  0  0  0  0
    0.4071    0.6064   -2.3248 O   0  0  0  0  0  0  0  0  0  0  0  0
   -0.0424    1.8895   -0.1925 N   0  0  0  0  0  0  0  0  0  0  0  0
    0.9117    1.0791    0.5726 C   0  0  0  0  0  0  0  0  0  0  0  0
    2.3609    1.4200    0.1808 C   0  0  0  0  0  0  0  0  0  0  0  0
    3.3504    0.7221    1.0103 N   0  0  0  0  0  0  0  0  0  0  0  0
    3.3982   -0.7225    0.7610 C   0  0  0  0  0  0  0  0  0  0  0  0
    4.7328   -1.1430    1.3633 C   0  0  0  0  0  0  0  0  0  0  0  0
    5.5722    0.1289    1.4080 C   0  0  0  0  0  0  0  0  0  0  0  0
    4.7132    1.1882    0.7372 C   0  0  0  0  0  0  0  0  0  0  0  0
   -1.8922    0.2200   -1.1504 C   0  0  0  0  0  0  0  0  0  0  0  0
   -1.6871   -1.1384   -1.2685 C   0  0  0  0  0  0  0  0  0  0  0  0
   -2.6108   -2.0617   -0.9065 N   0  0  0  0  0  0  0  0  0  0  0  0
   -3.7926   -1.6249   -0.4301 C   0  0  0  0  0  0  0  0  0  0  0  0
   -4.7624   -2.5460   -0.0587 C   0  0  0  0  0  0  0  0  0  0  0  0
   -6.0074   -2.1442    0.4346 C   0  0  0  0  0  0  0  0  0  0  0  0
   -6.2979   -0.7906    0.5634 C   0  0  0  0  0  0  0  0  0  0  0  0
   -5.3434    0.1571    0.1999 C   0  0  0  0  0  0  0  0  0  0  0  0
   -4.0922   -0.2497   -0.2951 C   0  0  0  0  0  0  0  0  0  0  0  0
   -3.1134    0.6801   -0.6688 C   0  0  0  0  0  0  0  0  0  0  0  0
   -0.0589    2.9003   -0.0638 H   0  0  0  0  0  0  0  0  0  0  0  0
    0.6992    0.0144    0.4362 H   0  0  0  0  0  0  0  0  0  0  0  0
    0.7557    1.3002    1.6342 H   0  0  0  0  0  0  0  0  0  0  0  0
    2.4933    2.5030    0.3136 H   0  0  0  0  0  0  0  0  0  0  0  0
    2.5299    1.2195   -0.8847 H   0  0  0  0  0  0  0  0  0  0  0  0
    2.5672   -1.2538    1.2357 H   0  0  0  0  0  0  0  0  0  0  0  0
    3.3907   -0.9494   -0.3134 H   0  0  0  0  0  0  0  0  0  0  0  0
    4.5989   -1.5382    2.3773 H   0  0  0  0  0  0  0  0  0  0  0  0
    5.2133   -1.9212    0.7598 H   0  0  0  0  0  0  0  0  0  0  0  0
    6.5340    0.0031    0.8995 H   0  0  0  0  0  0  0  0  0  0  0  0
    5.7763    0.4008    2.4508 H   0  0  0  0  0  0  0  0  0  0  0  0
    4.9251    1.2145   -0.3396 H   0  0  0  0  0  0  0  0  0  0  0  0
    4.9010    2.1816    1.1560 H   0  0  0  0  0  0  0  0  0  0  0  0
   -0.7608   -1.5520   -1.6588 H   0  0  0  0  0  0  0  0  0  0  0  0
   -4.5440   -3.6064   -0.1601 H   0  0  0  0  0  0  0  0  0  0  0  0
   -6.7456   -2.8916    0.7128 H   0  0  0  0  0  0  0  0  0  0  0  0
   -7.2658   -0.4737    0.9434 H   0  0  0  0  0  0  0  0  0  0  0  0
   -5.5815    1.2139    0.3014 H   0  0  0  0  0  0  0  0  0  0  0  0
   -3.3005    1.7485   -0.5890 H   0  0  0  0  0  0  0  0  0  0  0  0
  1  2  2  0
  2  3  2  0
  2  4  1  0
  4  5  1  0
  5  6  1  0
  6  7  1  0
  7  8  1  0
  8  9  1  0
  9 10  1  0
 10 11  1  0
  2 12  1  0
 12 13  1  0
 13 14  2  0
 14 15  1  0
 15 16  2  0
 16 17  1  0
 17 18  2  0
 18 19  1  0
 19 20  2  0
 20 21  1  0
 11  7  1  0
 21 12  2  0
 20 15  1  0
  4 22  1  0
  5 23  1  0
  5 24  1  0
  6 25  1  0
  6 26  1  0
  8 27  1  0
  8 28  1  0
  9 29  1  0
  9 30  1  0
 10 31  1  0
 10 32  1  0
 11 33  1  0
 11 34  1  0
 13 35  1  0
 16 36  1  0
 17 37  1  0
 18 38  1  0
 19 39  1  0
 21 40  1  0
M  END
$$$$
OCNT-2315770
     RDKit          3D

 54 57  0  0  0  0  0  0  0  0999 V2000
   -0.2782   -1.9376   -3.3951 C   0  0  0  0  0  0  0  0  0  0  0  0
   -0.9257   -1.0958   -2.2910 C   0  0  0  0  0  0  0  0  0  0  0  0
    0.0225   -0.8955   -1.2054 N   0  0  0  0  0  0  0  0  0  0  0  0
    0.9294    0.1389   -1.2033 C   0  0  0  0  0  0  0  0  0  0  0  0
    0.9043    1.0484   -2.0231 O   0  0  0  0  0  0  0  0  0  0  0  0
    1.9222    0.0525   -0.0641 C   0  0  0  0  0  0  0  0  0  0  0  0
    3.0481    1.0701   -0.2216 C   0  0  0  0  0  0  0  0  0  0  0  0
    4.0818    0.9163    0.8687 C   0  0  0  0  0  0  0  0  0  0  0  0
    4.0495    1.7383    1.9994 C   0  0  0  0  0  0  0  0  0  0  0  0
    4.9845    1.5979    3.0319 C   0  0  0  0  0  0  0  0  0  0  0  0
    5.9539    0.5991    2.8986 C   0  0  0  0  0  0  0  0  0  0  0  0
    6.9837    0.2396    3.7398 N   0  0  0  0  0  0  0  0  0  0  0  0
    7.6938   -0.8024    3.2000 C   0  0  0  0  0  0  0  0  0  0  0  0
    7.1190   -1.1240    1.9893 C   0  0  0  0  0  0  0  0  0  0  0  0
    6.0192   -0.2405    1.7878 C   0  0  0  0  0  0  0  0  0  0  0  0
    5.0704   -0.0780    0.7597 C   0  0  0  0  0  0  0  0  0  0  0  0
   -2.2193   -1.6451   -1.7107 C   0  0  0  0  0  0  0  0  0  0  0  0
   -2.4916   -3.0262   -1.7333 C   0  0  0  0  0  0  0  0  0  0  0  0
   -3.6740   -3.5417   -1.1998 C   0  0  0  0  0  0  0  0  0  0  0  0
   -4.6039   -2.6883   -0.6213 C   0  0  0  0  0  0  0  0  0  0  0  0
   -4.3464   -1.3209   -0.5631 C   0  0  0  0  0  0  0  0  0  0  0  0
   -3.1651   -0.7907   -1.0990 C   0  0  0  0  0  0  0  0  0  0  0  0
   -2.9095    0.6178   -0.9722 N   0  0  0  0  0  0  0  0  0  0  0  0
   -3.9912    1.6971   -1.7081 S   0  0  0  0  0  0  0  0  0  0  0  0
   -3.2388    2.9006   -1.9733 O   0  0  0  0  0  0  0  0  0  0  0  0
   -4.7409    1.0118   -2.7347 O   0  0  0  0  0  0  0  0  0  0  0  0
   -5.1539    2.1832   -0.4493 C   0  0  0  0  0  0  0  0  0  0  0  0
   -5.0942    2.1346    0.9325 C   0  0  0  0  0  0  0  0  0  0  0  0
   -6.2614    2.6759    1.5443 C   0  0  0  0  0  0  0  0  0  0  0  0
   -7.1687    3.1241    0.6096 C   0  0  0  0  0  0  0  0  0  0  0  0
   -6.6142    2.8887   -0.9927 S   0  0  0  0  0  0  0  0  0  0  0  0
   -0.9916   -2.1591   -4.1980 H   0  0  0  0  0  0  0  0  0  0  0  0
    0.5688   -1.3996   -3.8372 H   0  0  0  0  0  0  0  0  0  0  0  0
    0.1176   -2.8854   -3.0090 H   0  0  0  0  0  0  0  0  0  0  0  0
   -1.1427   -0.1293   -2.7625 H   0  0  0  0  0  0  0  0  0  0  0  0
    0.1342   -1.6501   -0.5386 H   0  0  0  0  0  0  0  0  0  0  0  0
    2.3311   -0.9659   -0.0381 H   0  0  0  0  0  0  0  0  0  0  0  0
    1.3823    0.2215    0.8760 H   0  0  0  0  0  0  0  0  0  0  0  0
    2.6446    2.0911   -0.2127 H   0  0  0  0  0  0  0  0  0  0  0  0
    3.5361    0.9547   -1.1970 H   0  0  0  0  0  0  0  0  0  0  0  0
    3.2898    2.5137    2.0857 H   0  0  0  0  0  0  0  0  0  0  0  0
    4.9537    2.2480    3.8998 H   0  0  0  0  0  0  0  0  0  0  0  0
    7.1822    0.6836    4.6246 H   0  0  0  0  0  0  0  0  0  0  0  0
    8.5455   -1.2219    3.7188 H   0  0  0  0  0  0  0  0  0  0  0  0
    7.4527   -1.9039    1.3178 H   0  0  0  0  0  0  0  0  0  0  0  0
    5.1108   -0.7251   -0.1130 H   0  0  0  0  0  0  0  0  0  0  0  0
   -1.7877   -3.7291   -2.1685 H   0  0  0  0  0  0  0  0  0  0  0  0
   -3.8697   -4.6126   -1.2431 H   0  0  0  0  0  0  0  0  0  0  0  0
   -5.5279   -3.0870   -0.2102 H   0  0  0  0  0  0  0  0  0  0  0  0
   -5.0836   -0.6831   -0.0879 H   0  0  0  0  0  0  0  0  0  0  0  0
   -1.9550    0.9282   -1.1567 H   0  0  0  0  0  0  0  0  0  0  0  0
   -4.2425    1.7359    1.4731 H   0  0  0  0  0  0  0  0  0  0  0  0
   -6.4221    2.7430    2.6142 H   0  0  0  0  0  0  0  0  0  0  0  0
   -8.1320    3.5842    0.7876 H   0  0  0  0  0  0  0  0  0  0  0  0
  1  2  1  0
  2  3  1  0
  3  4  1  0
  4  5  2  0
  4  6  1  0
  6  7  1  0
  7  8  1  0
  8  9  2  0
  9 10  1  0
 10 11  2  0
 11 12  1  0
 12 13  1  0
 13 14  2  0
 14 15  1  0
 15 16  2  0
  2 17  1  0
 17 18  2  0
 18 19  1  0
 19 20  2  0
 20 21  1  0
 21 22  2  0
 22 23  1  0
 23 24  1  0
 24 25  2  0
 24 26  2  0
 24 27  1  0
 27 28  2  0
 28 29  1  0
 29 30  2  0
 30 31  1  0
 16  8  1  0
 22 17  1  0
 31 27  1  0
 15 11  1  0
  1 32  1  0
  1 33  1  0
  1 34  1  0
  2 35  1  0
  3 36  1  0
  6 37  1  0
  6 38  1  0
  7 39  1  0
  7 40  1  0
  9 41  1  0
 10 42  1  0
 12 43  1  0
 13 44  1  0
 14 45  1  0
 16 46  1  0
 18 47  1  0
 19 48  1  0
 20 49  1  0
 21 50  1  0
 23 51  1  0
 28 52  1  0
 29 53  1  0
 30 54  1  0
M  END
$$$$
OCNT-2315775
     RDKit          3D

 37 39  0  0  0  0  0  0  0  0999 V2000
   -1.5856    3.4358    0.9538 O   0  0  0  0  0  0  0  0  0  0  0  0
   -2.1882    2.4094    0.1608 C   0  0  0  0  0  0  0  0  0  0  0  0
   -1.8648    0.9918    0.7112 C   0  0  2  0  0  0  0  0  0  0  0  0
   -0.5416    0.4608    0.3532 N   0  0  0  0  0  0  0  0  0  0  0  0
    0.5656    1.3325    0.7425 C   0  0  0  0  0  0  0  0  0  0  0  0
    1.8348    0.6302    0.3774 C   0  0  0  0  0  0  0  0  0  0  0  0
    2.6457   -0.1627    1.1656 C   0  0  0  0  0  0  0  0  0  0  0  0
    3.6569   -0.5898    0.3472 N   0  0  0  0  0  0  0  0  0  0  0  0
    4.7402   -1.4158    0.6323 C   0  0  0  0  0  0  0  0  0  0  0  0
    5.6196   -1.7016   -0.3441 C   0  0  0  0  0  0  0  0  0  0  0  0
    5.4138   -1.1374   -1.6761 C   0  0  0  0  0  0  0  0  0  0  0  0
    6.6682   -1.5685   -2.9907 Br  0  0  0  0  0  0  0  0  0  0  0  0
    4.3582   -0.3389   -1.9374 C   0  0  0  0  0  0  0  0  0  0  0  0
    3.4247   -0.0350   -0.9060 C   0  0  0  0  0  0  0  0  0  0  0  0
    2.3336    0.7008   -0.9101 N   0  0  0  0  0  0  0  0  0  0  0  0
   -2.9300   -0.0112    0.2830 C   0  0  0  0  0  0  0  0  0  0  0  0
   -3.5462   -0.8310    1.2422 C   0  0  0  0  0  0  0  0  0  0  0  0
   -4.5226   -1.7567    0.8685 C   0  0  0  0  0  0  0  0  0  0  0  0
   -4.8903   -1.8822   -0.4691 C   0  0  0  0  0  0  0  0  0  0  0  0
   -4.2775   -1.0880   -1.4355 C   0  0  0  0  0  0  0  0  0  0  0  0
   -3.3007   -0.1617   -1.0643 C   0  0  0  0  0  0  0  0  0  0  0  0
   -2.0084    3.4081    1.8295 H   0  0  0  0  0  0  0  0  0  0  0  0
   -3.2680    2.5986    0.1616 H   0  0  0  0  0  0  0  0  0  0  0  0
   -1.8363    2.5263   -0.8701 H   0  0  0  0  0  0  0  0  0  0  0  0
   -1.8943    1.0599    1.8074 H   0  0  0  0  0  0  0  0  0  0  0  0
   -0.4803    0.3289   -0.6566 H   0  0  0  0  0  0  0  0  0  0  0  0
    0.5485    1.5308    1.8199 H   0  0  0  0  0  0  0  0  0  0  0  0
    0.5393    2.2874    0.2077 H   0  0  0  0  0  0  0  0  0  0  0  0
    2.5749   -0.4592    2.2016 H   0  0  0  0  0  0  0  0  0  0  0  0
    4.8268   -1.7975    1.6415 H   0  0  0  0  0  0  0  0  0  0  0  0
    6.4754   -2.3425   -0.1597 H   0  0  0  0  0  0  0  0  0  0  0  0
    4.1872    0.0890   -2.9183 H   0  0  0  0  0  0  0  0  0  0  0  0
   -3.2616   -0.7599    2.2897 H   0  0  0  0  0  0  0  0  0  0  0  0
   -4.9904   -2.3854    1.6215 H   0  0  0  0  0  0  0  0  0  0  0  0
   -5.6469   -2.6061   -0.7597 H   0  0  0  0  0  0  0  0  0  0  0  0
   -4.5544   -1.1948   -2.4812 H   0  0  0  0  0  0  0  0  0  0  0  0
   -2.8252    0.4352   -1.8392 H   0  0  0  0  0  0  0  0  0  0  0  0
  1  2  1  0
  2  3  1  0
  3  4  1  0
  4  5  1  0
  5  6  1  0
  6  7  2  0
  7  8  1  0
  8  9  1  0
  9 10  2  0
 10 11  1  0
 11 12  1  0
 11 13  2  0
 13 14  1  0
 14 15  2  0
  3 16  1  0
 16 17  2  0
 17 18  1  0
 18 19  2  0
 19 20  1  0
 20 21  2  0
 15  6  1  0
 21 16  1  0
 14  8  1  0
  1 22  1  0
  2 23  1  0
  2 24  1  0
  3 25  1  1
  4 26  1  0
  5 27  1  0
  5 28  1  0
  7 29  1  0
  9 30  1  0
 10 31  1  0
 13 32  1  0
 17 33  1  0
 18 34  1  0
 19 35  1  0
 20 36  1  0
 21 37  1  0
M  END
$$$$
OCNT-2315776
     RDKit          3D

 43 45  0  0  0  0  0  0  0  0999 V2000
   -3.0024   -2.4545    0.8052 C   0  0  0  0  0  0  0  0  0  0  0  0
   -3.2058   -1.0314    0.3473 C   0  0  0  0  0  0  0  0  0  0  0  0
   -2.2576   -0.0760    0.4626 C   0  0  0  0  0  0  0  0  0  0  0  0
   -0.9012   -0.2326    1.1080 C   0  0  0  0  0  0  0  0  0  0  0  0
    0.2046   -0.4569    0.0574 C   0  0  0  0  0  0  0  0  0  0  0  0
    1.5163   -0.7868    0.6525 N   0  0  0  0  0  0  0  0  0  0  0  0
    2.0946    0.3581    1.3994 C   0  0  0  0  0  0  0  0  0  0  0  0
    2.6173    1.5161    0.5130 C   0  0  0  0  0  0  0  0  0  0  0  0
    3.5708    1.1107   -0.5387 N   0  0  0  0  0  0  0  0  0  0  0  0
    4.8999    0.8566    0.0152 C   0  0  0  0  0  0  0  0  0  0  0  0
    3.0508   -0.0684   -1.2612 C   0  0  0  0  0  0  0  0  0  0  0  0
    2.5282   -1.2226   -0.3531 C   0  0  0  0  0  0  0  0  0  0  0  0
    2.0742   -2.4104   -1.2103 C   0  0  0  0  0  0  0  0  0  0  0  0
   -2.5673    1.2925   -0.0610 C   0  0  0  0  0  0  0  0  0  0  0  0
   -1.7347    2.1950    0.0040 O   0  0  0  0  0  0  0  0  0  0  0  0
   -3.8181    1.4332   -0.6051 N   0  0  0  0  0  0  0  0  0  0  0  0
   -4.3174    2.5996   -1.1441 C   0  0  0  0  0  0  0  0  0  0  0  0
   -5.5632    2.4875   -1.6190 C   0  0  0  0  0  0  0  0  0  0  0  0
   -6.1832    0.8725   -1.4078 S   0  0  0  0  0  0  0  0  0  0  0  0
   -4.6802    0.3674   -0.6518 C   0  0  0  0  0  0  0  0  0  0  0  0
   -4.4450   -0.8209   -0.2191 N   0  0  0  0  0  0  0  0  0  0  0  0
   -3.4294   -3.1521    0.0754 H   0  0  0  0  0  0  0  0  0  0  0  0
   -3.5041   -2.6155    1.7647 H   0  0  0  0  0  0  0  0  0  0  0  0
   -1.9492   -2.7270    0.9113 H   0  0  0  0  0  0  0  0  0  0  0  0
   -0.9055   -1.0633    1.8232 H   0  0  0  0  0  0  0  0  0  0  0  0
   -0.6959    0.6580    1.7128 H   0  0  0  0  0  0  0  0  0  0  0  0
   -0.1310   -1.2998   -0.5568 H   0  0  0  0  0  0  0  0  0  0  0  0
    0.2704    0.4065   -0.6139 H   0  0  0  0  0  0  0  0  0  0  0  0
    1.3841    0.7538    2.1318 H   0  0  0  0  0  0  0  0  0  0  0  0
    2.9244   -0.0251    2.0078 H   0  0  0  0  0  0  0  0  0  0  0  0
    3.0665    2.2875    1.1513 H   0  0  0  0  0  0  0  0  0  0  0  0
    1.7659    2.0079    0.0264 H   0  0  0  0  0  0  0  0  0  0  0  0
    5.6043    0.6033   -0.7850 H   0  0  0  0  0  0  0  0  0  0  0  0
    4.9172    0.0475    0.7519 H   0  0  0  0  0  0  0  0  0  0  0  0
    5.2910    1.7608    0.4951 H   0  0  0  0  0  0  0  0  0  0  0  0
    3.8217   -0.4522   -1.9422 H   0  0  0  0  0  0  0  0  0  0  0  0
    2.2372    0.2730   -1.9146 H   0  0  0  0  0  0  0  0  0  0  0  0
    3.3820   -1.6031    0.2247 H   0  0  0  0  0  0  0  0  0  0  0  0
    2.9286   -2.8336   -1.7506 H   0  0  0  0  0  0  0  0  0  0  0  0
    1.6541   -3.2073   -0.5872 H   0  0  0  0  0  0  0  0  0  0  0  0
    1.3293   -2.1216   -1.9587 H   0  0  0  0  0  0  0  0  0  0  0  0
   -3.7061    3.4934   -1.1528 H   0  0  0  0  0  0  0  0  0  0  0  0
   -6.1361    3.2801   -2.0805 H   0  0  0  0  0  0  0  0  0  0  0  0
  1  2  1  0
  2  3  2  0
  3  4  1  0
  4  5  1  0
  5  6  1  0
  6  7  1  0
  7  8  1  0
  8  9  1  0
  9 10  1  0
  9 11  1  0
 11 12  1  0
 12 13  1  0
  3 14  1  0
 14 15  2  0
 14 16  1  0
 16 17  1  0
 17 18  2  0
 18 19  1  0
 19 20  1  0
 20 21  2  0
 21  2  1  0
 12  6  1  0
 20 16  1  0
  1 22  1  0
  1 23  1  0
  1 24  1  0
  4 25  1  0
  4 26  1  0
  5 27  1  0
  5 28  1  0
  7 29  1  0
  7 30  1  0
  8 31  1  0
  8 32  1  0
 10 33  1  0
 10 34  1  0
 10 35  1  0
 11 36  1  0
 11 37  1  0
 12 38  1  0
 13 39  1  0
 13 40  1  0
 13 41  1  0
 17 42  1  0
 18 43  1  0
M  END
$$$$
OCNT-2315778
     RDKit          3D

 45 47  0  0  0  0  0  0  0  0999 V2000
   -1.9911   -2.0291   -0.2916 C   0  0  0  0  0  0  0  0  0  0  0  0
   -1.6780   -0.5357   -0.1592 C   0  0  0  0  0  0  0  0  0  0  0  0
   -2.2353    0.0581    1.1496 C   0  0  0  0  0  0  0  0  0  0  0  0
   -3.7429    0.0767    1.2309 C   0  0  0  0  0  0  0  0  0  0  0  0
   -4.4187   -0.7691    2.1216 C   0  0  0  0  0  0  0  0  0  0  0  0
   -5.8126   -0.7529    2.1907 C   0  0  0  0  0  0  0  0  0  0  0  0
   -6.5336    0.1074    1.3725 C   0  0  0  0  0  0  0  0  0  0  0  0
   -7.8932    0.0889    1.4722 O   0  0  0  0  0  0  0  0  0  0  0  0
   -5.8834    0.9567    0.4839 C   0  0  0  0  0  0  0  0  0  0  0  0
   -4.4884    0.9412    0.4152 C   0  0  0  0  0  0  0  0  0  0  0  0
   -0.2291   -0.3182   -0.2119 N   0  0  0  0  0  0  0  0  0  0  0  0
    0.4359   -0.2987   -1.4146 C   0  0  0  0  0  0  0  0  0  0  0  0
   -0.1432   -0.4338   -2.4881 O   0  0  0  0  0  0  0  0  0  0  0  0
    1.8101   -0.1120   -1.3069 N   0  0  0  0  0  0  0  0  0  0  0  0
    2.5603   -0.0603   -2.5584 C   0  0  0  0  0  0  0  0  0  0  0  0
    3.9953   -0.5422   -2.3680 C   0  0  0  0  0  0  0  0  0  0  0  0
    4.6687    0.1608   -1.2188 C   0  0  0  0  0  0  0  0  0  0  0  0
    6.0685    0.2243   -1.1574 C   0  0  0  0  0  0  0  0  0  0  0  0
    6.6931    0.8508   -0.0809 C   0  0  0  0  0  0  0  0  0  0  0  0
    8.4107    0.9316   -0.0175 Cl  0  0  0  0  0  0  0  0  0  0  0  0
    5.9366    1.4108    0.9446 C   0  0  0  0  0  0  0  0  0  0  0  0
    4.5432    1.3386    0.8966 C   0  0  0  0  0  0  0  0  0  0  0  0
    3.8962    0.7063   -0.1779 C   0  0  0  0  0  0  0  0  0  0  0  0
    2.3840    0.6496   -0.1966 C   0  0  0  0  0  0  0  0  0  0  0  0
   -1.5624   -2.4427   -1.2107 H   0  0  0  0  0  0  0  0  0  0  0  0
   -1.5715   -2.5950    0.5477 H   0  0  0  0  0  0  0  0  0  0  0  0
   -3.0698   -2.2104   -0.3223 H   0  0  0  0  0  0  0  0  0  0  0  0
   -2.1218   -0.0139   -1.0161 H   0  0  0  0  0  0  0  0  0  0  0  0
   -1.8187   -0.4840    2.0093 H   0  0  0  0  0  0  0  0  0  0  0  0
   -1.8806    1.0918    1.2640 H   0  0  0  0  0  0  0  0  0  0  0  0
   -3.8674   -1.4493    2.7665 H   0  0  0  0  0  0  0  0  0  0  0  0
   -6.3343   -1.4104    2.8802 H   0  0  0  0  0  0  0  0  0  0  0  0
   -8.2572    0.7273    0.8374 H   0  0  0  0  0  0  0  0  0  0  0  0
   -6.4385    1.6327   -0.1584 H   0  0  0  0  0  0  0  0  0  0  0  0
   -3.9849    1.6094   -0.2809 H   0  0  0  0  0  0  0  0  0  0  0  0
    0.2951   -0.7629    0.5263 H   0  0  0  0  0  0  0  0  0  0  0  0
    2.0768   -0.6794   -3.3224 H   0  0  0  0  0  0  0  0  0  0  0  0
    2.5360    0.9774   -2.9155 H   0  0  0  0  0  0  0  0  0  0  0  0
    4.0001   -1.6189   -2.1579 H   0  0  0  0  0  0  0  0  0  0  0  0
    4.5538   -0.3758   -3.2964 H   0  0  0  0  0  0  0  0  0  0  0  0
    6.6698   -0.2146   -1.9501 H   0  0  0  0  0  0  0  0  0  0  0  0
    6.4238    1.9012    1.7831 H   0  0  0  0  0  0  0  0  0  0  0  0
    3.9628    1.7783    1.7055 H   0  0  0  0  0  0  0  0  0  0  0  0
    2.0458    0.2182    0.7508 H   0  0  0  0  0  0  0  0  0  0  0  0
    1.9899    1.6712   -0.2676 H   0  0  0  0  0  0  0  0  0  0  0  0
  1  2  1  0
  2  3  1  0
  3  4  1  0
  4  5  1  0
  5  6  2  0
  6  7  1  0
  7  8  1  0
  7  9  2  0
  9 10  1  0
  2 11  1  0
 11 12  1  0
 12 13  2  0
 12 14  1  0
 14 15  1  0
 15 16  1  0
 16 17  1  0
 17 18  1  0
 18 19  2  0
 19 20  1  0
 19 21  1  0
 21 22  2  0
 22 23  1  0
 23 24  1  0
 10  4  2  0
 24 14  1  0
 23 17  2  0
  1 25  1  0
  1 26  1  0
  1 27  1  0
  2 28  1  0
  3 29  1  0
  3 30  1  0
  5 31  1  0
  6 32  1  0
  8 33  1  0
  9 34  1  0
 10 35  1  0
 11 36  1  0
 15 37  1  0
 15 38  1  0
 16 39  1  0
 16 40  1  0
 18 41  1  0
 21 42  1  0
 22 43  1  0
 24 44  1  0
 24 45  1  0
M  END
$$$$
OCNT-2315779
     RDKit          3D

 48 51  0  0  0  0  0  0  0  0999 V2000
   -5.3024    0.0886    1.5250 C   0  0  0  0  0  0  0  0  0  0  0  0
   -3.9493   -0.4525    1.6259 N   0  0  0  0  0  0  0  0  0  0  0  0
   -2.9246    0.5624    1.2947 C   0  0  0  0  0  0  0  0  0  0  0  0
   -2.3313    0.4474   -0.1278 C   0  0  0  0  0  0  0  0  0  0  0  0
   -1.6829   -0.8768   -0.3381 N   0  0  0  0  0  0  0  0  0  0  0  0
   -1.6477   -1.1417   -1.7340 C   0  0  0  0  0  0  0  0  0  0  0  0
   -2.6797   -1.8227   -2.2883 N   0  0  0  0  0  0  0  0  0  0  0  0
   -2.6471   -2.0691   -3.6149 C   0  0  0  0  0  0  0  0  0  0  0  0
   -1.6240   -1.6640   -4.4465 C   0  0  0  0  0  0  0  0  0  0  0  0
   -0.5673   -0.9654   -3.8799 C   0  0  0  0  0  0  0  0  0  0  0  0
   -0.5559   -0.6959   -2.5015 C   0  0  0  0  0  0  0  0  0  0  0  0
    0.6023    0.0849   -1.9203 C   0  0  0  0  0  0  0  0  0  0  0  0
    1.1150   -0.5445   -0.7123 N   0  0  0  0  0  0  0  0  0  0  0  0
    2.1401    0.0592   -0.0848 C   0  0  0  0  0  0  0  0  0  0  0  0
    2.9358    1.0068   -0.5186 N   0  0  0  0  0  0  0  0  0  0  0  0
    3.8090    1.2557    0.5102 C   0  0  0  0  0  0  0  0  0  0  0  0
    4.8646    2.1742    0.5776 C   0  0  0  0  0  0  0  0  0  0  0  0
    5.6125    2.2228    1.7651 C   0  0  0  0  0  0  0  0  0  0  0  0
    6.7260    3.1740    1.8667 N   0  0  0  0  0  0  0  0  0  0  0  0
    6.8830    3.9827    0.9408 O   0  0  0  0  0  0  0  0  0  0  0  0
    7.4445    3.1140    2.8751 O   0  0  0  0  0  0  0  0  0  0  0  0
    5.3223    1.3838    2.8544 C   0  0  0  0  0  0  0  0  0  0  0  0
    4.2677    0.4656    2.7908 C   0  0  0  0  0  0  0  0  0  0  0  0
    3.5382    0.4370    1.6012 C   0  0  0  0  0  0  0  0  0  0  0  0
    2.4681   -0.3162    1.1900 N   0  0  0  0  0  0  0  0  0  0  0  0
   -2.3427   -1.9744    0.4208 C   0  0  0  0  0  0  0  0  0  0  0  0
   -3.8119   -1.6530    0.7658 C   0  0  0  0  0  0  0  0  0  0  0  0
   -6.0439   -0.6741    1.7887 H   0  0  0  0  0  0  0  0  0  0  0  0
   -5.5276    0.4569    0.5178 H   0  0  0  0  0  0  0  0  0  0  0  0
   -5.4377    0.9147    2.2318 H   0  0  0  0  0  0  0  0  0  0  0  0
   -3.3063    1.5789    1.4521 H   0  0  0  0  0  0  0  0  0  0  0  0
   -2.1064    0.4386    2.0166 H   0  0  0  0  0  0  0  0  0  0  0  0
   -1.5838    1.2379   -0.2572 H   0  0  0  0  0  0  0  0  0  0  0  0
   -3.1339    0.6282   -0.8570 H   0  0  0  0  0  0  0  0  0  0  0  0
   -3.4986   -2.6206   -4.0028 H   0  0  0  0  0  0  0  0  0  0  0  0
   -1.6461   -1.8871   -5.5068 H   0  0  0  0  0  0  0  0  0  0  0  0
    0.2540   -0.6369   -4.5132 H   0  0  0  0  0  0  0  0  0  0  0  0
    1.4102    0.1508   -2.6604 H   0  0  0  0  0  0  0  0  0  0  0  0
    0.2638    1.1081   -1.7153 H   0  0  0  0  0  0  0  0  0  0  0  0
    0.3412   -0.9131   -0.1518 H   0  0  0  0  0  0  0  0  0  0  0  0
    5.0737    2.8120   -0.2746 H   0  0  0  0  0  0  0  0  0  0  0  0
    5.9127    1.4329    3.7690 H   0  0  0  0  0  0  0  0  0  0  0  0
    4.0352   -0.1876    3.6254 H   0  0  0  0  0  0  0  0  0  0  0  0
    2.0059   -1.0437    1.7115 H   0  0  0  0  0  0  0  0  0  0  0  0
   -2.2689   -2.9418   -0.0925 H   0  0  0  0  0  0  0  0  0  0  0  0
   -1.7815   -2.1028    1.3556 H   0  0  0  0  0  0  0  0  0  0  0  0
   -4.2495   -2.5082    1.2935 H   0  0  0  0  0  0  0  0  0  0  0  0
   -4.3750   -1.5261   -0.1676 H   0  0  0  0  0  0  0  0  0  0  0  0
  1  2  1  0
  2  3  1  0
  3  4  1  0
  4  5  1  0
  5  6  1  0
  6  7  1  0
  7  8  2  0
  8  9  1  0
  9 10  2  0
 10 11  1  0
 11 12  1  0
 12 13  1  0
 13 14  1  0
 14 15  2  0
 15 16  1  0
 16 17  2  0
 17 18  1  0
 18 19  1  0
 19 20  2  0
 19 21  1  0
 18 22  2  0
 22 23  1  0
 23 24  2  0
 24 25  1  0
  5 26  1  0
 26 27  1  0
 27  2  1  0
 11  6  2  0
 25 14  1  0
 24 16  1  0
  1 28  1  0
  1 29  1  0
  1 30  1  0
  3 31  1  0
  3 32  1  0
  4 33  1  0
  4 34  1  0
  8 35  1  0
  9 36  1  0
 10 37  1  0
 12 38  1  0
 12 39  1  0
 13 40  1  0
 17 41  1  0
 22 42  1  0
 23 43  1  0
 25 44  1  0
 26 45  1  0
 26 46  1  0
 27 47  1  0
 27 48  1  0
M  CHG  2  19   1  21  -1
M  END
$$$$
OCNT-2315781
     RDKit          3D

 57 59  0  0  0  0  0  0  0  0999 V2000
   -3.1834    1.7268   -1.1661 C   0  0  0  0  0  0  0  0  0  0  0  0
   -4.4033    1.3516   -0.3286 C   0  0  0  0  0  0  0  0  0  0  0  0
   -4.7075    2.4127    0.7241 C   0  0  0  0  0  0  0  0  0  0  0  0
   -4.2283   -0.0256    0.3002 C   0  0  0  0  0  0  0  0  0  0  0  0
   -4.9345   -0.9772   -0.0203 O   0  0  0  0  0  0  0  0  0  0  0  0
   -3.2196   -0.1222    1.2363 N   0  0  0  0  0  0  0  0  0  0  0  0
   -2.7922   -1.4304    1.7398 C   0  0  0  0  0  0  0  0  0  0  0  0
   -2.1120   -1.2847    3.1095 C   0  0  0  0  0  0  0  0  0  0  0  0
   -0.5836   -1.3068    3.0347 C   0  0  0  0  0  0  0  0  0  0  0  0
   -0.0651   -0.7138    1.7307 C   0  0  0  0  0  0  0  0  0  0  0  0
   -0.5635   -1.4436    0.5600 N   0  0  0  0  0  0  0  0  0  0  0  0
    0.1092   -1.6642   -0.6437 C   0  0  0  0  0  0  0  0  0  0  0  0
   -0.3876   -2.4251   -1.4824 O   0  0  0  0  0  0  0  0  0  0  0  0
    1.4714   -0.9784   -0.9450 C   0  0  0  0  0  0  0  0  0  0  0  0
    1.2666    0.5608   -0.9626 C   0  0  0  0  0  0  0  0  0  0  0  0
    2.4868    1.4529   -0.8836 C   0  0  0  0  0  0  0  0  0  0  0  0
    2.9861    1.8676    0.3609 C   0  0  0  0  0  0  0  0  0  0  0  0
    4.1048    2.7001    0.4415 C   0  0  0  0  0  0  0  0  0  0  0  0
    4.7345    3.1380   -0.7219 C   0  0  0  0  0  0  0  0  0  0  0  0
    4.2369    2.7448   -1.9614 C   0  0  0  0  0  0  0  0  0  0  0  0
    5.0798    3.3483   -3.5432 Br  0  0  0  0  0  0  0  0  0  0  0  0
    3.1188    1.9138   -2.0475 C   0  0  0  0  0  0  0  0  0  0  0  0
    1.9854   -1.4370   -2.3426 C   0  0  0  0  0  0  0  0  0  0  0  0
    2.9133   -2.5968   -2.0454 C   0  0  0  0  0  0  0  0  0  0  0  0
    3.6019   -2.1195   -0.8510 N   0  0  0  0  0  0  0  0  0  0  0  0
    2.5426   -1.5650   -0.0012 C   0  0  0  0  0  0  0  0  0  0  0  0
   -1.8648   -2.1267    0.7249 C   0  0  0  0  0  0  0  0  0  0  0  0
   -2.9446    0.9327   -1.8821 H   0  0  0  0  0  0  0  0  0  0  0  0
   -2.2946    1.8899   -0.5473 H   0  0  0  0  0  0  0  0  0  0  0  0
   -3.3711    2.6467   -1.7296 H   0  0  0  0  0  0  0  0  0  0  0  0
   -5.2697    1.2821   -0.9992 H   0  0  0  0  0  0  0  0  0  0  0  0
   -3.8579    2.5793    1.3947 H   0  0  0  0  0  0  0  0  0  0  0  0
   -5.5616    2.1131    1.3408 H   0  0  0  0  0  0  0  0  0  0  0  0
   -4.9512    3.3687    0.2492 H   0  0  0  0  0  0  0  0  0  0  0  0
   -2.5525    0.6345    1.2716 H   0  0  0  0  0  0  0  0  0  0  0  0
   -3.6972   -2.0373    1.8642 H   0  0  0  0  0  0  0  0  0  0  0  0
   -2.4439   -0.3636    3.6046 H   0  0  0  0  0  0  0  0  0  0  0  0
   -2.4279   -2.1092    3.7610 H   0  0  0  0  0  0  0  0  0  0  0  0
   -0.1667   -0.7649    3.8910 H   0  0  0  0  0  0  0  0  0  0  0  0
   -0.2357   -2.3444    3.1199 H   0  0  0  0  0  0  0  0  0  0  0  0
   -0.4042    0.3238    1.6456 H   0  0  0  0  0  0  0  0  0  0  0  0
    1.0220   -0.6950    1.7505 H   0  0  0  0  0  0  0  0  0  0  0  0
    0.5934    0.8857   -0.1655 H   0  0  0  0  0  0  0  0  0  0  0  0
    0.7065    0.8258   -1.8722 H   0  0  0  0  0  0  0  0  0  0  0  0
    2.5086    1.5434    1.2825 H   0  0  0  0  0  0  0  0  0  0  0  0
    4.4864    3.0067    1.4121 H   0  0  0  0  0  0  0  0  0  0  0  0
    5.6056    3.7836   -0.6524 H   0  0  0  0  0  0  0  0  0  0  0  0
    2.7383    1.6277   -3.0252 H   0  0  0  0  0  0  0  0  0  0  0  0
    1.1971   -1.7217   -3.0459 H   0  0  0  0  0  0  0  0  0  0  0  0
    2.5669   -0.6521   -2.8361 H   0  0  0  0  0  0  0  0  0  0  0  0
    2.3553   -3.5171   -1.8385 H   0  0  0  0  0  0  0  0  0  0  0  0
    3.6123   -2.7842   -2.8651 H   0  0  0  0  0  0  0  0  0  0  0  0
    4.0845   -2.8851   -0.3835 H   0  0  0  0  0  0  0  0  0  0  0  0
    2.1389   -2.3811    0.6110 H   0  0  0  0  0  0  0  0  0  0  0  0
    2.9806   -0.8347    0.6810 H   0  0  0  0  0  0  0  0  0  0  0  0
   -1.6441   -3.1478    1.0603 H   0  0  0  0  0  0  0  0  0  0  0  0
   -2.3662   -2.2060   -0.2464 H   0  0  0  0  0  0  0  0  0  0  0  0
  1  2  1  0
  2  3  1  0
  2  4  1  0
  4  5  2  0
  4  6  1  0
  6  7  1  0
  7  8  1  0
  8  9  1  0
  9 10  1  0
 10 11  1  0
 11 12  1  0
 12 13  2  0
 12 14  1  0
 14 15  1  0
 15 16  1  0
 16 17  2  0
 17 18  1  0
 18 19  2  0
 19 20  1  0
 20 21  1  0
 20 22  2  0
 14 23  1  0
 23 24  1  0
 24 25  1  0
 25 26  1  0
 11 27  1  0
 27  7  1  0
 26 14  1  0
 22 16  1  0
  1 28  1  0
  1 29  1  0
  1 30  1  0
  2 31  1  0
  3 32  1  0
  3 33  1  0
  3 34  1  0
  6 35  1  0
  7 36  1  0
  8 37  1  0
  8 38  1  0
  9 39  1  0
  9 40  1  0
 10 41  1  0
 10 42  1  0
 15 43  1  0
 15 44  1  0
 17 45  1  0
 18 46  1  0
 19 47  1  0
 22 48  1  0
 23 49  1  0
 23 50  1  0
 24 51  1  0
 24 52  1  0
 25 53  1  0
 26 54  1  0
 26 55  1  0
 27 56  1  0
 27 57  1  0
M  END
$$$$
OCNT-2315799
     RDKit          3D

  0  0  0  0  0  0  0  0  0  0999 V3000
M  V30 BEGIN CTAB
M  V30 COUNTS 56 59 0 0 0
M  V30 BEGIN ATOM
M  V30 1 C 2.392622 -0.026053 -2.915384 0
M  V30 2 N 3.537354 -0.709355 -2.361993 0
M  V30 3 C 4.404416 -1.490117 -3.074449 0
M  V30 4 C 5.299208 -1.966343 -2.150638 0
M  V30 5 N 4.991902 -1.503420 -0.900038 0
M  V30 6 C 3.937101 -0.718136 -1.040295 0
M  V30 7 C 3.205584 0.037596 0.043734 0 CFG=2
M  V30 8 O 4.114573 0.545268 1.030812 0
M  V30 9 C 4.735869 -0.435388 1.863728 0
M  V30 10 C 3.871158 -1.657254 2.158329 0
M  V30 11 C 2.396650 -1.315780 2.066478 0
M  V30 12 C 2.045365 -0.770665 0.675563 0 CFG=1
M  V30 13 N 0.836730 0.061986 0.787942 0
M  V30 14 C -0.428746 -0.456037 0.617067 0
M  V30 15 O -0.641437 -1.612956 0.275612 0
M  V30 16 C -1.525564 0.548099 0.925373 0
M  V30 17 C -2.868741 0.216217 0.265104 0
M  V30 18 C -3.006428 0.685509 -1.198494 0
M  V30 19 C -2.009651 0.159191 -2.270343 0
M  V30 20 C -1.314427 1.529283 -2.253657 0
M  V30 21 C -2.592816 2.122248 -1.635961 0
M  V30 22 C -3.995656 0.984251 0.972216 0
M  V30 23 C -5.470767 0.584908 0.656834 0
M  V30 24 C -5.786361 0.836835 2.142517 0
M  V30 25 C -4.304594 0.535909 2.433512 0
M  V30 26 H 2.327308 -0.229784 -3.987058 0
M  V30 27 H 2.512463 1.048224 -2.754262 0
M  V30 28 H 1.492382 -0.394580 -2.417069 0
M  V30 29 H 4.317820 -1.641673 -4.141094 0
M  V30 30 H 6.145152 -2.620503 -2.319521 0
M  V30 31 H 2.790972 0.938822 -0.423378 0
M  V30 32 H 4.969180 0.073680 2.806166 0
M  V30 33 H 5.699585 -0.728334 1.432629 0
M  V30 34 H 4.099269 -2.454652 1.442210 0
M  V30 35 H 4.119867 -2.060242 3.146529 0
M  V30 36 H 2.155899 -0.575793 2.840985 0
M  V30 37 H 1.785298 -2.198493 2.285723 0
M  V30 38 H 1.794153 -1.614486 0.020317 0
M  V30 39 H 0.931086 0.942434 1.281298 0
M  V30 40 H -1.631255 0.529676 2.017468 0
M  V30 41 H -1.191605 1.557839 0.666456 0
M  V30 42 H -3.067977 -0.861866 0.316644 0
M  V30 43 H -4.028086 0.451215 -1.536722 0
M  V30 44 H -1.385576 -0.695096 -2.003575 0
M  V30 45 H -2.491818 -0.064711 -3.230734 0
M  V30 46 H -1.037478 1.928571 -3.232457 0
M  V30 47 H -0.437671 1.579062 -1.600404 0
M  V30 48 H -2.430602 2.859977 -0.846189 0
M  V30 49 H -3.271606 2.557023 -2.379872 0
M  V30 50 H -3.849268 2.074169 0.922661 0
M  V30 51 H -5.997155 1.232125 -0.050329 0
M  V30 52 H -5.603688 -0.459711 0.351796 0
M  V30 53 H -6.508549 0.155230 2.598019 0
M  V30 54 H -6.078870 1.868970 2.363291 0
M  V30 55 H -3.847717 1.140037 3.221703 0
M  V30 56 H -4.104857 -0.522927 2.636434 0
M  V30 END ATOM
M  V30 BEGIN BOND
M  V30 1 1 1 2
M  V30 2 1 2 3
M  V30 3 2 3 4
M  V30 4 1 4 5
M  V30 5 2 5 6
M  V30 6 1 6 7
M  V30 7 1 7 8
M  V30 8 1 8 9
M  V30 9 1 9 10
M  V30 10 1 10 11
M  V30 11 1 11 12
M  V30 12 1 12 13
M  V30 13 1 13 14
M  V30 14 2 14 15
M  V30 15 1 14 16
M  V30 16 1 16 17
M  V30 17 1 17 18
M  V30 18 1 18 19
M  V30 19 1 19 20
M  V30 20 1 20 21
M  V30 21 1 17 22
M  V30 22 1 22 23
M  V30 23 1 23 24
M  V30 24 1 24 25
M  V30 25 1 6 2
M  V30 26 1 12 7
M  V30 27 1 21 18
M  V30 28 1 25 22
M  V30 29 1 1 26
M  V30 30 1 1 27
M  V30 31 1 1 28
M  V30 32 1 3 29
M  V30 33 1 4 30
M  V30 34 1 7 31 CFG=3
M  V30 35 1 9 32
M  V30 36 1 9 33
M  V30 37 1 10 34
M  V30 38 1 10 35
M  V30 39 1 11 36
M  V30 40 1 11 37
M  V30 41 1 12 38 CFG=3
M  V30 42 1 13 39
M  V30 43 1 16 40
M  V30 44 1 16 41
M  V30 45 1 17 42
M  V30 46 1 18 43
M  V30 47 1 19 44
M  V30 48 1 19 45
M  V30 49 1 20 46
M  V30 50 1 20 47
M  V30 51 1 21 48
M  V30 52 1 21 49
M  V30 53 1 22 50
M  V30 54 1 23 51
M  V30 55 1 23 52
M  V30 56 1 24 53
M  V30 57 1 24 54
M  V30 58 1 25 55
M  V30 59 1 25 56
M  V30 END BOND
M  V30 BEGIN COLLECTION
M  V30 MDLV30/STERAC1 ATOMS=(2 7 12)
M  V30 END COLLECTION
M  V30 END CTAB
M  END
>  <_CXSMILES_Data>  (1022) 
|&1:6,11|

$$$$
OCNT-2315805
     RDKit          3D

 47 49  0  0  0  0  0  0  0  0999 V2000
    6.4384    0.7135   -0.0334 C   0  0  0  0  0  0  0  0  0  0  0  0
    5.5211    1.3167    0.9204 N   0  0  0  0  0  0  0  0  0  0  0  0
    6.0942    2.2760    1.8474 C   0  0  0  0  0  0  0  0  0  0  0  0
    4.1614    0.9982    1.0292 C   0  0  0  0  0  0  0  0  0  0  0  0
    3.3962    1.6570    1.7386 O   0  0  0  0  0  0  0  0  0  0  0  0
    3.5832   -0.1673    0.2751 C   0  0  0  0  0  0  0  0  0  0  0  0
    2.2251   -0.1415   -0.0450 C   0  0  0  0  0  0  0  0  0  0  0  0
    1.6348   -1.2202   -0.7113 C   0  0  0  0  0  0  0  0  0  0  0  0
    0.3036   -1.2247   -1.0590 N   0  0  0  0  0  0  0  0  0  0  0  0
   -0.4083   -2.4000   -1.5654 C   0  0  0  0  0  0  0  0  0  0  0  0
   -1.8873   -2.0439   -1.4156 C   0  0  0  0  0  0  0  0  0  0  0  0
   -1.8873   -0.5229   -1.5427 C   0  0  0  0  0  0  0  0  0  0  0  0
   -3.1642    0.1802   -1.0876 C   0  0  0  0  0  0  0  0  0  0  0  0
   -3.5714   -0.2214    0.2566 N   0  0  0  0  0  0  0  0  0  0  0  0
   -4.7085    0.4426    0.7248 C   0  0  0  0  0  0  0  0  0  0  0  0
   -5.9394    0.3564    0.0839 C   0  0  0  0  0  0  0  0  0  0  0  0
   -7.0312    1.0373    0.6176 C   0  0  0  0  0  0  0  0  0  0  0  0
   -6.8648    1.7782    1.7791 C   0  0  0  0  0  0  0  0  0  0  0  0
   -5.6087    1.7997    2.3584 C   0  0  0  0  0  0  0  0  0  0  0  0
   -4.5351    1.1487    1.8569 N   0  0  0  0  0  0  0  0  0  0  0  0
   -0.6229   -0.1248   -0.7776 C   0  0  0  0  0  0  0  0  0  0  0  0
    2.4818   -2.2902   -1.0164 C   0  0  0  0  0  0  0  0  0  0  0  0
    3.8208   -2.2490   -0.6507 C   0  0  0  0  0  0  0  0  0  0  0  0
    4.3944   -1.2155   -0.0092 N   0  0  0  0  0  0  0  0  0  0  0  0
    5.9269    0.4568   -0.9639 H   0  0  0  0  0  0  0  0  0  0  0  0
    7.2322    1.4267   -0.2773 H   0  0  0  0  0  0  0  0  0  0  0  0
    6.8831   -0.1773    0.4185 H   0  0  0  0  0  0  0  0  0  0  0  0
    5.3687    2.6264    2.5857 H   0  0  0  0  0  0  0  0  0  0  0  0
    6.9270    1.8004    2.3744 H   0  0  0  0  0  0  0  0  0  0  0  0
    6.4648    3.1347    1.2799 H   0  0  0  0  0  0  0  0  0  0  0  0
    1.6432    0.7274    0.2428 H   0  0  0  0  0  0  0  0  0  0  0  0
   -0.1564   -2.5617   -2.6196 H   0  0  0  0  0  0  0  0  0  0  0  0
   -0.1833   -3.3086   -0.9964 H   0  0  0  0  0  0  0  0  0  0  0  0
   -2.5075   -2.5329   -2.1727 H   0  0  0  0  0  0  0  0  0  0  0  0
   -2.2397   -2.3653   -0.4285 H   0  0  0  0  0  0  0  0  0  0  0  0
   -1.7304   -0.2709   -2.6020 H   0  0  0  0  0  0  0  0  0  0  0  0
   -3.0112    1.2665   -1.1284 H   0  0  0  0  0  0  0  0  0  0  0  0
   -3.9532   -0.0700   -1.8074 H   0  0  0  0  0  0  0  0  0  0  0  0
   -2.8732    0.0244    0.9601 H   0  0  0  0  0  0  0  0  0  0  0  0
   -6.0594   -0.2496   -0.8064 H   0  0  0  0  0  0  0  0  0  0  0  0
   -8.0020    0.9793    0.1348 H   0  0  0  0  0  0  0  0  0  0  0  0
   -7.6919    2.3174    2.2263 H   0  0  0  0  0  0  0  0  0  0  0  0
   -5.4236    2.3570    3.2722 H   0  0  0  0  0  0  0  0  0  0  0  0
   -0.2471    0.8357   -1.1474 H   0  0  0  0  0  0  0  0  0  0  0  0
   -0.7952   -0.0531    0.3015 H   0  0  0  0  0  0  0  0  0  0  0  0
    2.1197   -3.1661   -1.5423 H   0  0  0  0  0  0  0  0  0  0  0  0
    4.4825   -3.0801   -0.8778 H   0  0  0  0  0  0  0  0  0  0  0  0
  1  2  1  0
  2  3  1  0
  2  4  1  0
  4  5  2  0
  4  6  1  0
  6  7  2  0
  7  8  1  0
  8  9  1  0
  9 10  1  0
 10 11  1  0
 11 12  1  0
 12 13  1  0
 13 14  1  0
 14 15  1  0
 15 16  2  0
 16 17  1  0
 17 18  2  0
 18 19  1  0
 19 20  2  0
 12 21  1  0
  8 22  2  0
 22 23  1  0
 23 24  2  0
 24  6  1  0
 21  9  1  0
 20 15  1  0
  1 25  1  0
  1 26  1  0
  1 27  1  0
  3 28  1  0
  3 29  1  0
  3 30  1  0
  7 31  1  0
 10 32  1  0
 10 33  1  0
 11 34  1  0
 11 35  1  0
 12 36  1  0
 13 37  1  0
 13 38  1  0
 14 39  1  0
 16 40  1  0
 17 41  1  0
 18 42  1  0
 19 43  1  0
 21 44  1  0
 21 45  1  0
 22 46  1  0
 23 47  1  0
M  END
$$$$
OCNT-2315811
     RDKit          3D

 52 55  0  0  0  0  0  0  0  0999 V2000
   -3.1934   -1.3582    1.1783 O   0  0  0  0  0  0  0  0  0  0  0  0
   -4.0285   -1.2890    0.2893 C   0  0  0  0  0  0  0  0  0  0  0  0
   -5.2232   -2.2113    0.2208 C   0  0  0  0  0  0  0  0  0  0  0  0
   -5.7012   -2.0528   -1.2077 C   0  0  0  0  0  0  0  0  0  0  0  0
   -5.3287   -0.6243   -1.5434 C   0  0  0  0  0  0  0  0  0  0  0  0
   -4.1307   -0.3768   -0.7745 N   0  0  0  0  0  0  0  0  0  0  0  0
   -3.2765    0.7346   -1.0212 C   0  0  0  0  0  0  0  0  0  0  0  0
   -3.5960    1.6795   -2.0087 C   0  0  0  0  0  0  0  0  0  0  0  0
   -2.7627    2.7733   -2.2664 C   0  0  0  0  0  0  0  0  0  0  0  0
   -1.5889    2.9452   -1.5404 C   0  0  0  0  0  0  0  0  0  0  0  0
   -1.2414    2.0250   -0.5474 C   0  0  0  0  0  0  0  0  0  0  0  0
    0.0382    2.1864    0.2401 C   0  0  0  0  0  0  0  0  0  0  0  0
    1.2415    1.8174   -0.5118 N   0  0  0  0  0  0  0  0  0  0  0  0
    1.3944    0.3761   -0.7713 C   0  0  0  0  0  0  0  0  0  0  0  0
    2.4886    0.1922   -1.8382 C   0  0  0  0  0  0  0  0  0  0  0  0
    3.1759   -1.1510   -1.6701 C   0  0  0  0  0  0  0  0  0  0  0  0
    3.8714   -1.2430   -0.4291 O   0  0  0  0  0  0  0  0  0  0  0  0
    3.2049   -0.6708    0.7087 C   0  0  0  0  0  0  0  0  0  0  0  0
    3.4669   -1.5964    1.9048 C   0  0  0  0  0  0  0  0  0  0  0  0
    4.9174   -1.3246    2.2960 C   0  0  0  0  0  0  0  0  0  0  0  0
    5.2231    0.0926    1.8165 C   0  0  0  0  0  0  0  0  0  0  0  0
    3.9476    0.5991    1.1433 C   0  0  0  0  0  0  0  0  0  0  0  0
    1.7053   -0.4671    0.4781 C   0  0  0  0  0  0  0  0  0  0  0  0
   -2.0904    0.9290   -0.3009 C   0  0  0  0  0  0  0  0  0  0  0  0
   -5.9737   -1.8691    0.9402 H   0  0  0  0  0  0  0  0  0  0  0  0
   -4.9353   -3.2429    0.4394 H   0  0  0  0  0  0  0  0  0  0  0  0
   -6.7692   -2.2542   -1.3278 H   0  0  0  0  0  0  0  0  0  0  0  0
   -5.1514   -2.7445   -1.8583 H   0  0  0  0  0  0  0  0  0  0  0  0
   -6.1064    0.0765   -1.2185 H   0  0  0  0  0  0  0  0  0  0  0  0
   -5.1522   -0.5215   -2.6184 H   0  0  0  0  0  0  0  0  0  0  0  0
   -4.5046    1.6011   -2.5971 H   0  0  0  0  0  0  0  0  0  0  0  0
   -3.0353    3.4929   -3.0343 H   0  0  0  0  0  0  0  0  0  0  0  0
   -0.9488    3.7996   -1.7475 H   0  0  0  0  0  0  0  0  0  0  0  0
   -0.0251    1.6552    1.1956 H   0  0  0  0  0  0  0  0  0  0  0  0
    0.1296    3.2438    0.5200 H   0  0  0  0  0  0  0  0  0  0  0  0
    1.2237    2.3190   -1.3994 H   0  0  0  0  0  0  0  0  0  0  0  0
    0.4645   -0.0089   -1.2076 H   0  0  0  0  0  0  0  0  0  0  0  0
    2.0490    0.2756   -2.8391 H   0  0  0  0  0  0  0  0  0  0  0  0
    3.2457    0.9827   -1.7596 H   0  0  0  0  0  0  0  0  0  0  0  0
    2.4593   -1.9775   -1.7375 H   0  0  0  0  0  0  0  0  0  0  0  0
    3.9114   -1.2987   -2.4671 H   0  0  0  0  0  0  0  0  0  0  0  0
    3.3231   -2.6538    1.6590 H   0  0  0  0  0  0  0  0  0  0  0  0
    2.8110   -1.3449    2.7473 H   0  0  0  0  0  0  0  0  0  0  0  0
    5.5879   -2.0378    1.8026 H   0  0  0  0  0  0  0  0  0  0  0  0
    5.0646   -1.4305    3.3756 H   0  0  0  0  0  0  0  0  0  0  0  0
    6.0525    0.0719    1.1000 H   0  0  0  0  0  0  0  0  0  0  0  0
    5.5212    0.7463    2.6426 H   0  0  0  0  0  0  0  0  0  0  0  0
    3.3547    1.1674    1.8704 H   0  0  0  0  0  0  0  0  0  0  0  0
    4.2013    1.2631    0.3125 H   0  0  0  0  0  0  0  0  0  0  0  0
    1.2449   -1.4544    0.3256 H   0  0  0  0  0  0  0  0  0  0  0  0
    1.2264   -0.0647    1.3768 H   0  0  0  0  0  0  0  0  0  0  0  0
   -1.7820    0.2229    0.4645 H   0  0  0  0  0  0  0  0  0  0  0  0
  1  2  2  0
  2  3  1  0
  3  4  1  0
  4  5  1  0
  5  6  1  0
  6  7  1  0
  7  8  1  0
  8  9  2  0
  9 10  1  0
 10 11  2  0
 11 12  1  0
 12 13  1  0
 13 14  1  0
 14 15  1  0
 15 16  1  0
 16 17  1  0
 17 18  1  0
 18 19  1  0
 19 20  1  0
 20 21  1  0
 21 22  1  0
 18 23  1  0
 11 24  1  0
  6  2  1  0
 24  7  2  0
 23 14  1  0
 22 18  1  0
  3 25  1  0
  3 26  1  0
  4 27  1  0
  4 28  1  0
  5 29  1  0
  5 30  1  0
  8 31  1  0
  9 32  1  0
 10 33  1  0
 12 34  1  0
 12 35  1  0
 13 36  1  0
 14 37  1  0
 15 38  1  0
 15 39  1  0
 16 40  1  0
 16 41  1  0
 19 42  1  0
 19 43  1  0
 20 44  1  0
 20 45  1  0
 21 46  1  0
 21 47  1  0
 22 48  1  0
 22 49  1  0
 23 50  1  0
 23 51  1  0
 24 52  1  0
M  END
$$$$
OCNT-2315827
     RDKit          3D

 54 56  0  0  0  0  0  0  0  0999 V2000
    7.8029   -1.8851    0.4976 C   0  0  0  0  0  0  0  0  0  0  0  0
    6.7519   -0.9307    0.4182 O   0  0  0  0  0  0  0  0  0  0  0  0
    6.9398    0.1577   -0.3993 C   0  0  0  0  0  0  0  0  0  0  0  0
    8.1801    0.4930   -0.9639 C   0  0  0  0  0  0  0  0  0  0  0  0
    8.3051    1.5990   -1.8062 C   0  0  0  0  0  0  0  0  0  0  0  0
    7.1947    2.3808   -2.0947 C   0  0  0  0  0  0  0  0  0  0  0  0
    5.9595    2.0612   -1.5311 C   0  0  0  0  0  0  0  0  0  0  0  0
    5.8027    0.9566   -0.6659 C   0  0  0  0  0  0  0  0  0  0  0  0
    4.4703    0.6851   -0.0943 C   0  0  0  0  0  0  0  0  0  0  0  0
    4.2465    0.3742    1.2389 C   0  0  0  0  0  0  0  0  0  0  0  0
    2.9415    0.1612    1.6831 C   0  0  0  0  0  0  0  0  0  0  0  0
    1.8838    0.2649    0.7919 C   0  0  0  0  0  0  0  0  0  0  0  0
    0.5764    0.0647    1.2808 N   0  0  0  0  0  0  0  0  0  0  0  0
   -0.4579    0.1435    0.2498 C   0  0  0  0  0  0  0  0  0  0  0  0
   -1.8289   -0.0926    0.8879 C   0  0  0  0  0  0  0  0  0  0  0  0
   -2.9390    0.0040   -0.1667 C   0  0  0  0  0  0  0  0  0  0  0  0
   -4.2892   -0.1417    0.4175 N   0  0  0  0  0  0  0  0  0  0  0  0
   -4.5930   -1.5521    0.7235 C   0  0  0  0  0  0  0  0  0  0  0  0
   -5.7663   -1.6875    1.6920 C   0  0  0  0  0  0  0  0  0  0  0  0
   -7.1393   -1.6956    1.0323 C   0  0  0  0  0  0  0  0  0  0  0  0
   -7.2616   -0.9165   -0.1477 O   0  0  0  0  0  0  0  0  0  0  0  0
   -6.7507    0.4128   -0.0264 C   0  0  0  0  0  0  0  0  0  0  0  0
   -7.6168    1.2874   -0.9304 C   0  0  0  0  0  0  0  0  0  0  0  0
   -5.2843    0.4496   -0.5091 C   0  0  0  0  0  0  0  0  0  0  0  0
    2.1286    0.5992   -0.4899 N   0  0  0  0  0  0  0  0  0  0  0  0
    3.4207    0.8041   -0.9382 N   0  0  0  0  0  0  0  0  0  0  0  0
    7.4392   -2.7322    1.0873 H   0  0  0  0  0  0  0  0  0  0  0  0
    8.0757   -2.2627   -0.4934 H   0  0  0  0  0  0  0  0  0  0  0  0
    8.6712   -1.4684    1.0177 H   0  0  0  0  0  0  0  0  0  0  0  0
    9.0741   -0.0891   -0.7665 H   0  0  0  0  0  0  0  0  0  0  0  0
    9.2707    1.8458   -2.2401 H   0  0  0  0  0  0  0  0  0  0  0  0
    7.2841    3.2390   -2.7557 H   0  0  0  0  0  0  0  0  0  0  0  0
    5.0995    2.6878   -1.7676 H   0  0  0  0  0  0  0  0  0  0  0  0
    5.0713    0.3075    1.9404 H   0  0  0  0  0  0  0  0  0  0  0  0
    2.7592   -0.0696    2.7271 H   0  0  0  0  0  0  0  0  0  0  0  0
    0.5496   -0.8171    1.7856 H   0  0  0  0  0  0  0  0  0  0  0  0
   -0.2836   -0.6146   -0.5243 H   0  0  0  0  0  0  0  0  0  0  0  0
   -0.4465    1.1342   -0.2219 H   0  0  0  0  0  0  0  0  0  0  0  0
   -2.0002    0.6514    1.6766 H   0  0  0  0  0  0  0  0  0  0  0  0
   -1.8287   -1.0740    1.3747 H   0  0  0  0  0  0  0  0  0  0  0  0
   -2.7795   -0.7318   -0.9658 H   0  0  0  0  0  0  0  0  0  0  0  0
   -2.8483    0.9951   -0.6309 H   0  0  0  0  0  0  0  0  0  0  0  0
   -3.7363   -2.0059    1.2327 H   0  0  0  0  0  0  0  0  0  0  0  0
   -4.7541   -2.1419   -0.1878 H   0  0  0  0  0  0  0  0  0  0  0  0
   -5.7222   -0.8793    2.4341 H   0  0  0  0  0  0  0  0  0  0  0  0
   -5.6606   -2.6132    2.2718 H   0  0  0  0  0  0  0  0  0  0  0  0
   -7.3910   -2.7235    0.7478 H   0  0  0  0  0  0  0  0  0  0  0  0
   -7.9042   -1.3776    1.7502 H   0  0  0  0  0  0  0  0  0  0  0  0
   -6.8452    0.7845    1.0018 H   0  0  0  0  0  0  0  0  0  0  0  0
   -7.5774    0.9415   -1.9693 H   0  0  0  0  0  0  0  0  0  0  0  0
   -8.6660    1.2324   -0.6200 H   0  0  0  0  0  0  0  0  0  0  0  0
   -7.2992    2.3341   -0.8957 H   0  0  0  0  0  0  0  0  0  0  0  0
   -5.2144   -0.0524   -1.4841 H   0  0  0  0  0  0  0  0  0  0  0  0
   -5.0148    1.5030   -0.6591 H   0  0  0  0  0  0  0  0  0  0  0  0
  1  2  1  0
  2  3  1  0
  3  4  2  0
  4  5  1  0
  5  6  2  0
  6  7  1  0
  7  8  2  0
  8  9  1  0
  9 10  2  0
 10 11  1  0
 11 12  2  0
 12 13  1  0
 13 14  1  0
 14 15  1  0
 15 16  1  0
 16 17  1  0
 17 18  1  0
 18 19  1  0
 19 20  1  0
 20 21  1  0
 21 22  1  0
 22 23  1  0
 22 24  1  0
 12 25  1  0
 25 26  2  0
  8  3  1  0
 26  9  1  0
 24 17  1  0
  1 27  1  0
  1 28  1  0
  1 29  1  0
  4 30  1  0
  5 31  1  0
  6 32  1  0
  7 33  1  0
 10 34  1  0
 11 35  1  0
 13 36  1  0
 14 37  1  0
 14 38  1  0
 15 39  1  0
 15 40  1  0
 16 41  1  0
 16 42  1  0
 18 43  1  0
 18 44  1  0
 19 45  1  0
 19 46  1  0
 20 47  1  0
 20 48  1  0
 22 49  1  0
 23 50  1  0
 23 51  1  0
 23 52  1  0
 24 53  1  0
 24 54  1  0
M  END
$$$$
OCNT-2315832
     RDKit          3D

 51 54  0  0  0  0  0  0  0  0999 V2000
   -5.8204    3.3870   -2.5141 C   0  0  0  0  0  0  0  0  0  0  0  0
   -5.5532    2.0199   -2.2355 O   0  0  0  0  0  0  0  0  0  0  0  0
   -4.9999    1.7941   -0.9349 C   0  0  0  0  0  0  0  0  0  0  0  0
   -3.5531    2.2790   -0.8374 C   0  0  0  0  0  0  0  0  0  0  0  0
   -2.9083    1.8339    0.4769 C   0  0  0  0  0  0  0  0  0  0  0  0
   -2.9918    0.3874    0.7369 N   0  0  0  0  0  0  0  0  0  0  0  0
   -2.0998   -0.4033   -0.1342 C   0  0  0  0  0  0  0  0  0  0  0  0
   -0.6731   -0.1921    0.2432 C   0  0  0  0  0  0  0  0  0  0  0  0
    0.0129   -0.5919    1.3703 C   0  0  0  0  0  0  0  0  0  0  0  0
    1.2790   -0.1293    1.1710 N   0  0  0  0  0  0  0  0  0  0  0  0
    2.4128   -0.2274    2.0720 C   0  0  0  0  0  0  0  0  0  0  0  0
    3.2684   -1.4290    1.7614 C   0  0  0  0  0  0  0  0  0  0  0  0
    2.8925   -2.7053    2.2121 C   0  0  0  0  0  0  0  0  0  0  0  0
    3.6734   -3.8246    1.9144 C   0  0  0  0  0  0  0  0  0  0  0  0
    4.8399   -3.6855    1.1662 C   0  0  0  0  0  0  0  0  0  0  0  0
    5.2261   -2.4272    0.7102 C   0  0  0  0  0  0  0  0  0  0  0  0
    4.4362   -1.3125    0.9972 C   0  0  0  0  0  0  0  0  0  0  0  0
    4.8434   -0.0741    0.5719 O   0  0  0  0  0  0  0  0  0  0  0  0
    4.6638    0.0900   -0.8527 C   0  0  0  0  0  0  0  0  0  0  0  0
    4.9418    1.4794   -1.3566 C   0  0  0  0  0  0  0  0  0  0  0  0
    5.9087    0.3696   -1.6499 C   0  0  0  0  0  0  0  0  0  0  0  0
    1.3742    0.5367    0.0069 N   0  0  0  0  0  0  0  0  0  0  0  0
    0.1850    0.4905   -0.5795 N   0  0  0  0  0  0  0  0  0  0  0  0
   -4.3840   -0.0722    0.6429 C   0  0  0  0  0  0  0  0  0  0  0  0
   -5.0698    0.2910   -0.6709 C   0  0  0  0  0  0  0  0  0  0  0  0
   -6.4464    3.8287   -1.7333 H   0  0  0  0  0  0  0  0  0  0  0  0
   -6.3598    3.4422   -3.4644 H   0  0  0  0  0  0  0  0  0  0  0  0
   -4.8895    3.9494   -2.6208 H   0  0  0  0  0  0  0  0  0  0  0  0
   -5.6182    2.3083   -0.1878 H   0  0  0  0  0  0  0  0  0  0  0  0
   -2.9770    1.9210   -1.6991 H   0  0  0  0  0  0  0  0  0  0  0  0
   -3.5185    3.3722   -0.8966 H   0  0  0  0  0  0  0  0  0  0  0  0
   -1.8704    2.1845    0.5139 H   0  0  0  0  0  0  0  0  0  0  0  0
   -3.4090    2.3534    1.3053 H   0  0  0  0  0  0  0  0  0  0  0  0
   -2.2491   -0.1833   -1.1968 H   0  0  0  0  0  0  0  0  0  0  0  0
   -2.3086   -1.4729   -0.0034 H   0  0  0  0  0  0  0  0  0  0  0  0
   -0.2893   -1.1329    2.2519 H   0  0  0  0  0  0  0  0  0  0  0  0
    2.0213   -0.2964    3.0943 H   0  0  0  0  0  0  0  0  0  0  0  0
    2.9711    0.7133    2.0158 H   0  0  0  0  0  0  0  0  0  0  0  0
    1.9861   -2.8392    2.7980 H   0  0  0  0  0  0  0  0  0  0  0  0
    3.3710   -4.8071    2.2686 H   0  0  0  0  0  0  0  0  0  0  0  0
    5.4495   -4.5557    0.9396 H   0  0  0  0  0  0  0  0  0  0  0  0
    6.1407   -2.3140    0.1362 H   0  0  0  0  0  0  0  0  0  0  0  0
    3.8526   -0.4408   -1.3462 H   0  0  0  0  0  0  0  0  0  0  0  0
    4.3185    1.8519   -2.1630 H   0  0  0  0  0  0  0  0  0  0  0  0
    5.2323    2.2299   -0.6344 H   0  0  0  0  0  0  0  0  0  0  0  0
    5.9594   -0.0103   -2.6644 H   0  0  0  0  0  0  0  0  0  0  0  0
    6.8578    0.3717   -1.1288 H   0  0  0  0  0  0  0  0  0  0  0  0
   -4.4385   -1.1556    0.8029 H   0  0  0  0  0  0  0  0  0  0  0  0
   -4.9490    0.3690    1.4746 H   0  0  0  0  0  0  0  0  0  0  0  0
   -6.1196   -0.0267   -0.6418 H   0  0  0  0  0  0  0  0  0  0  0  0
   -4.6220   -0.2598   -1.5083 H   0  0  0  0  0  0  0  0  0  0  0  0
  1  2  1  0
  2  3  1  0
  3  4  1  0
  4  5  1  0
  5  6  1  0
  6  7  1  0
  7  8  1  0
  8  9  2  0
  9 10  1  0
 10 11  1  0
 11 12  1  0
 12 13  2  0
 13 14  1  0
 14 15  2  0
 15 16  1  0
 16 17  2  0
 17 18  1  0
 18 19  1  0
 19 20  1  0
 20 21  1  0
 10 22  1  0
 22 23  2  0
  6 24  1  0
 24 25  1  0
 25  3  1  0
 23  8  1  0
 17 12  1  0
 21 19  1  0
  1 26  1  0
  1 27  1  0
  1 28  1  0
  3 29  1  0
  4 30  1  0
  4 31  1  0
  5 32  1  0
  5 33  1  0
  7 34  1  0
  7 35  1  0
  9 36  1  0
 11 37  1  0
 11 38  1  0
 13 39  1  0
 14 40  1  0
 15 41  1  0
 16 42  1  0
 19 43  1  0
 20 44  1  0
 20 45  1  0
 21 46  1  0
 21 47  1  0
 24 48  1  0
 24 49  1  0
 25 50  1  0
 25 51  1  0
M  END
$$$$
OCNT-2315840
     RDKit          3D

 45 47  0  0  0  0  0  0  0  0999 V2000
    1.9378    1.7211    0.6007 O   0  0  0  0  0  0  0  0  0  0  0  0
    1.9266    0.5302    0.8863 C   0  0  0  0  0  0  0  0  0  0  0  0
    0.7830   -0.1162    1.6547 C   0  0  0  0  0  0  0  0  0  0  0  0
   -0.4544    0.7786    1.8081 C   0  0  0  0  0  0  0  0  0  0  0  0
   -1.5017    0.6283    0.7873 N   0  0  0  0  0  0  0  0  0  0  0  0
   -1.0754    1.0332   -0.5532 C   0  0  0  0  0  0  0  0  0  0  0  0
   -2.2312    0.9788   -1.5634 C   0  0  0  0  0  0  0  0  0  0  0  0
   -3.0632   -0.3170   -1.4718 C   0  0  0  0  0  0  0  0  0  0  0  0
   -4.4914   -0.0450   -0.9611 C   0  0  0  0  0  0  0  0  0  0  0  0
   -4.5293    0.4588    0.4873 C   0  0  0  0  0  0  0  0  0  0  0  0
   -3.6591   -0.3806    1.4313 C   0  0  0  0  0  0  0  0  0  0  0  0
   -4.3322   -1.6209    1.6802 O   0  0  0  0  0  0  0  0  0  0  0  0
   -2.2408   -0.6480    0.8518 C   0  0  0  0  0  0  0  0  0  0  0  0
   -2.3819   -1.3098   -0.5305 C   0  0  0  0  0  0  0  0  0  0  0  0
    2.9236   -0.3917    0.6001 N   0  0  0  0  0  0  0  0  0  0  0  0
    4.1311   -0.1670   -0.0937 C   0  0  0  0  0  0  0  0  0  0  0  0
    4.9863   -1.2653   -0.2586 C   0  0  0  0  0  0  0  0  0  0  0  0
    6.2017   -1.1296   -0.9352 C   0  0  0  0  0  0  0  0  0  0  0  0
    6.5742    0.1068   -1.4542 C   0  0  0  0  0  0  0  0  0  0  0  0
    5.7314    1.2040   -1.2959 C   0  0  0  0  0  0  0  0  0  0  0  0
    4.5147    1.0680   -0.6187 C   0  0  0  0  0  0  0  0  0  0  0  0
    1.1725   -0.3393    2.6564 H   0  0  0  0  0  0  0  0  0  0  0  0
    0.5272   -1.0739    1.1879 H   0  0  0  0  0  0  0  0  0  0  0  0
   -0.9133    0.5559    2.7808 H   0  0  0  0  0  0  0  0  0  0  0  0
   -0.1708    1.8360    1.8735 H   0  0  0  0  0  0  0  0  0  0  0  0
   -0.2582    0.3974   -0.9150 H   0  0  0  0  0  0  0  0  0  0  0  0
   -0.6917    2.0603   -0.5315 H   0  0  0  0  0  0  0  0  0  0  0  0
   -2.8691    1.8633   -1.4469 H   0  0  0  0  0  0  0  0  0  0  0  0
   -1.8031    1.0534   -2.5713 H   0  0  0  0  0  0  0  0  0  0  0  0
   -3.1415   -0.7587   -2.4728 H   0  0  0  0  0  0  0  0  0  0  0  0
   -5.0726   -0.9739   -1.0271 H   0  0  0  0  0  0  0  0  0  0  0  0
   -4.9935    0.6800   -1.6129 H   0  0  0  0  0  0  0  0  0  0  0  0
   -5.5704    0.4513    0.8320 H   0  0  0  0  0  0  0  0  0  0  0  0
   -4.1941    1.5022    0.5150 H   0  0  0  0  0  0  0  0  0  0  0  0
   -3.5852    0.1337    2.3973 H   0  0  0  0  0  0  0  0  0  0  0  0
   -3.8585   -2.0623    2.4053 H   0  0  0  0  0  0  0  0  0  0  0  0
   -1.7358   -1.3733    1.5022 H   0  0  0  0  0  0  0  0  0  0  0  0
   -2.9683   -2.2342   -0.4606 H   0  0  0  0  0  0  0  0  0  0  0  0
   -1.4002   -1.6046   -0.9221 H   0  0  0  0  0  0  0  0  0  0  0  0
    2.7734   -1.3394    0.9212 H   0  0  0  0  0  0  0  0  0  0  0  0
    4.7215   -2.2425    0.1358 H   0  0  0  0  0  0  0  0  0  0  0  0
    6.8562   -1.9887   -1.0564 H   0  0  0  0  0  0  0  0  0  0  0  0
    7.5184    0.2172   -1.9811 H   0  0  0  0  0  0  0  0  0  0  0  0
    6.0165    2.1726   -1.6991 H   0  0  0  0  0  0  0  0  0  0  0  0
    3.8908    1.9506   -0.5204 H   0  0  0  0  0  0  0  0  0  0  0  0
  1  2  2  0
  2  3  1  0
  3  4  1  0
  4  5  1  0
  5  6  1  0
  6  7  1  0
  7  8  1  0
  8  9  1  0
  9 10  1  0
 10 11  1  0
 11 12  1  0
 11 13  1  0
 13 14  1  0
  2 15  1  0
 15 16  1  0
 16 17  2  0
 17 18  1  0
 18 19  2  0
 19 20  1  0
 20 21  2  0
 13  5  1  0
 21 16  1  0
 14  8  1  0
  3 22  1  0
  3 23  1  0
  4 24  1  0
  4 25  1  0
  6 26  1  0
  6 27  1  0
  7 28  1  0
  7 29  1  0
  8 30  1  0
  9 31  1  0
  9 32  1  0
 10 33  1  0
 10 34  1  0
 11 35  1  0
 12 36  1  0
 13 37  1  0
 14 38  1  0
 14 39  1  0
 15 40  1  0
 17 41  1  0
 18 42  1  0
 19 43  1  0
 20 44  1  0
 21 45  1  0
M  END
$$$$
OCNT-2315844
     RDKit          3D

 45 48  0  0  0  0  0  0  0  0999 V2000
    0.2289   -0.5968    3.5691 O   0  0  0  0  0  0  0  0  0  0  0  0
    0.5242    0.0519    2.5670 C   0  0  0  0  0  0  0  0  0  0  0  0
   -0.4319    0.7695    1.8663 N   0  0  0  0  0  0  0  0  0  0  0  0
   -1.8578    0.6414    2.1257 C   0  0  0  0  0  0  0  0  0  0  0  0
   -2.5538   -0.5080    1.3438 C   0  0  0  0  0  0  0  0  0  0  0  0
   -2.2771   -0.3396   -0.1606 C   0  0  0  0  0  0  0  0  0  0  0  0
   -1.2003   -0.9761   -0.8032 C   0  0  0  0  0  0  0  0  0  0  0  0
   -0.9353   -0.7524   -2.1578 C   0  0  0  0  0  0  0  0  0  0  0  0
   -1.7363    0.1140   -2.8947 C   0  0  0  0  0  0  0  0  0  0  0  0
   -2.8021    0.7626   -2.2771 C   0  0  0  0  0  0  0  0  0  0  0  0
   -3.0676    0.5399   -0.9242 C   0  0  0  0  0  0  0  0  0  0  0  0
   -2.2401   -1.8925    1.9260 C   0  0  0  0  0  0  0  0  0  0  0  0
   -3.4580   -2.6927    1.5317 C   0  0  0  0  0  0  0  0  0  0  0  0
   -4.5651   -1.6797    1.7198 C   0  0  0  0  0  0  0  0  0  0  0  0
   -3.9892   -0.3748    1.5485 O   0  0  0  0  0  0  0  0  0  0  0  0
    1.8537    0.1132    1.9886 C   0  0  0  0  0  0  0  0  0  0  0  0
    2.9597   -0.4162    2.4722 N   0  0  0  0  0  0  0  0  0  0  0  0
    3.9542   -0.1461    1.5520 N   0  0  0  0  0  0  0  0  0  0  0  0
    3.3874    0.5186    0.5650 C   0  0  0  0  0  0  0  0  0  0  0  0
    3.9615    1.0234   -0.6746 C   0  0  0  0  0  0  0  0  0  0  0  0
    5.3346    0.8587   -0.9197 C   0  0  0  0  0  0  0  0  0  0  0  0
    5.9104    1.3220   -2.1058 C   0  0  0  0  0  0  0  0  0  0  0  0
    5.1195    1.9548   -3.0641 C   0  0  0  0  0  0  0  0  0  0  0  0
    3.7557    2.1277   -2.8361 C   0  0  0  0  0  0  0  0  0  0  0  0
    3.1794    1.6647   -1.6488 C   0  0  0  0  0  0  0  0  0  0  0  0
    2.0473    0.7297    0.7736 O   0  0  0  0  0  0  0  0  0  0  0  0
   -0.1548    1.1929    0.9867 H   0  0  0  0  0  0  0  0  0  0  0  0
   -2.0238    0.5220    3.2034 H   0  0  0  0  0  0  0  0  0  0  0  0
   -2.3096    1.6047    1.8564 H   0  0  0  0  0  0  0  0  0  0  0  0
   -0.5343   -1.6413   -0.2603 H   0  0  0  0  0  0  0  0  0  0  0  0
   -0.0954   -1.2550   -2.6343 H   0  0  0  0  0  0  0  0  0  0  0  0
   -1.5310    0.2881   -3.9468 H   0  0  0  0  0  0  0  0  0  0  0  0
   -3.4313    1.4438   -2.8466 H   0  0  0  0  0  0  0  0  0  0  0  0
   -3.9065    1.0630   -0.4647 H   0  0  0  0  0  0  0  0  0  0  0  0
   -1.3054   -2.3495    1.5985 H   0  0  0  0  0  0  0  0  0  0  0  0
   -2.2102   -1.8427    3.0220 H   0  0  0  0  0  0  0  0  0  0  0  0
   -3.6039   -3.5947    2.1335 H   0  0  0  0  0  0  0  0  0  0  0  0
   -3.3939   -2.9949    0.4790 H   0  0  0  0  0  0  0  0  0  0  0  0
   -5.3817   -1.8160    1.0042 H   0  0  0  0  0  0  0  0  0  0  0  0
   -4.9795   -1.7274    2.7321 H   0  0  0  0  0  0  0  0  0  0  0  0
    5.9680    0.3626   -0.1839 H   0  0  0  0  0  0  0  0  0  0  0  0
    6.9744    1.1837   -2.2819 H   0  0  0  0  0  0  0  0  0  0  0  0
    5.5670    2.3131   -3.9887 H   0  0  0  0  0  0  0  0  0  0  0  0
    3.1385    2.6212   -3.5840 H   0  0  0  0  0  0  0  0  0  0  0  0
    2.1114    1.8092   -1.4998 H   0  0  0  0  0  0  0  0  0  0  0  0
  1  2  2  0
  2  3  1  0
  3  4  1  0
  4  5  1  0
  5  6  1  0
  6  7  2  0
  7  8  1  0
  8  9  2  0
  9 10  1  0
 10 11  2  0
  5 12  1  0
 12 13  1  0
 13 14  1  0
 14 15  1  0
  2 16  1  0
 16 17  2  0
 17 18  1  0
 18 19  2  0
 19 20  1  0
 20 21  2  0
 21 22  1  0
 22 23  2  0
 23 24  1  0
 24 25  2  0
 19 26  1  0
 15  5  1  0
 26 16  1  0
 11  6  1  0
 25 20  1  0
  3 27  1  0
  4 28  1  0
  4 29  1  0
  7 30  1  0
  8 31  1  0
  9 32  1  0
 10 33  1  0
 11 34  1  0
 12 35  1  0
 12 36  1  0
 13 37  1  0
 13 38  1  0
 14 39  1  0
 14 40  1  0
 21 41  1  0
 22 42  1  0
 23 43  1  0
 24 44  1  0
 25 45  1  0
M  END
$$$$
OCNT-2315845
     RDKit          3D

 55 57  0  0  0  0  0  0  0  0999 V2000
   -2.2924   -0.2701    2.2304 C   0  0  0  0  0  0  0  0  0  0  0  0
   -3.3928   -1.0341    1.5957 C   0  0  0  0  0  0  0  0  0  0  0  0
   -3.3918   -2.3703    1.6537 N   0  0  0  0  0  0  0  0  0  0  0  0
   -4.5305   -2.7795    0.9909 O   0  0  0  0  0  0  0  0  0  0  0  0
   -5.2010   -1.6953    0.5257 C   0  0  0  0  0  0  0  0  0  0  0  0
   -6.4457   -1.9792   -0.2113 C   0  0  0  0  0  0  0  0  0  0  0  0
   -4.5156   -0.5482    0.8677 C   0  0  0  0  0  0  0  0  0  0  0  0
   -4.8630    0.8670    0.5406 C   0  0  0  0  0  0  0  0  0  0  0  0
   -4.4633    1.2616   -0.8872 C   0  0  0  0  0  0  0  0  0  0  0  0
   -3.0346    1.1554   -1.1337 N   0  0  0  0  0  0  0  0  0  0  0  0
   -2.1693    2.0945   -0.6374 C   0  0  0  0  0  0  0  0  0  0  0  0
   -2.5656    3.0853   -0.0293 O   0  0  0  0  0  0  0  0  0  0  0  0
   -0.8306    1.8304   -0.8653 N   0  0  0  0  0  0  0  0  0  0  0  0
   -0.3245    0.7748   -1.7456 C   0  0  0  0  0  0  0  0  0  0  0  0
    1.0460    1.1128   -2.3249 C   0  0  0  0  0  0  0  0  0  0  0  0
    2.0989    1.3996   -1.2367 C   0  0  0  0  0  0  0  0  0  0  0  0
    2.9264    0.1382   -0.9200 C   0  0  0  0  0  0  0  0  0  0  0  0
    4.0936    0.4121    0.0362 C   0  0  0  0  0  0  0  0  0  0  0  0
    4.9326   -0.8205    0.2585 C   0  0  0  0  0  0  0  0  0  0  0  0
    6.0871   -1.0491   -0.5042 C   0  0  0  0  0  0  0  0  0  0  0  0
    6.8475   -2.2014   -0.2927 C   0  0  0  0  0  0  0  0  0  0  0  0
    6.4515   -3.1232    0.6710 C   0  0  0  0  0  0  0  0  0  0  0  0
    7.1867   -4.2262    0.8659 F   0  0  0  0  0  0  0  0  0  0  0  0
    5.3055   -2.9228    1.4249 C   0  0  0  0  0  0  0  0  0  0  0  0
    4.5549   -1.7728    1.2102 C   0  0  0  0  0  0  0  0  0  0  0  0
    3.4448   -1.5808    1.9368 F   0  0  0  0  0  0  0  0  0  0  0  0
    1.4582    1.9929    0.0329 C   0  0  0  0  0  0  0  0  0  0  0  0
    0.1559    2.7267   -0.2683 C   0  0  0  0  0  0  0  0  0  0  0  0
   -2.6559    0.6747    2.6441 H   0  0  0  0  0  0  0  0  0  0  0  0
   -1.8389   -0.8357    3.0511 H   0  0  0  0  0  0  0  0  0  0  0  0
   -1.5113   -0.0503    1.4981 H   0  0  0  0  0  0  0  0  0  0  0  0
   -6.2343   -2.5837   -1.0984 H   0  0  0  0  0  0  0  0  0  0  0  0
   -6.9342   -1.0566   -0.5386 H   0  0  0  0  0  0  0  0  0  0  0  0
   -7.1490   -2.5286    0.4220 H   0  0  0  0  0  0  0  0  0  0  0  0
   -5.9451    1.0058    0.6553 H   0  0  0  0  0  0  0  0  0  0  0  0
   -4.3908    1.5415    1.2646 H   0  0  0  0  0  0  0  0  0  0  0  0
   -4.7726    2.2958   -1.0805 H   0  0  0  0  0  0  0  0  0  0  0  0
   -4.9597    0.6182   -1.6225 H   0  0  0  0  0  0  0  0  0  0  0  0
   -2.6683    0.2171   -1.1960 H   0  0  0  0  0  0  0  0  0  0  0  0
   -0.2745   -0.1463   -1.1533 H   0  0  0  0  0  0  0  0  0  0  0  0
   -1.0301    0.6085   -2.5660 H   0  0  0  0  0  0  0  0  0  0  0  0
    0.9422    2.0113   -2.9488 H   0  0  0  0  0  0  0  0  0  0  0  0
    1.3784    0.3130   -2.9966 H   0  0  0  0  0  0  0  0  0  0  0  0
    2.7884    2.1459   -1.6534 H   0  0  0  0  0  0  0  0  0  0  0  0
    3.3245   -0.2717   -1.8562 H   0  0  0  0  0  0  0  0  0  0  0  0
    2.2723   -0.6358   -0.5008 H   0  0  0  0  0  0  0  0  0  0  0  0
    3.7289    0.7717    1.0056 H   0  0  0  0  0  0  0  0  0  0  0  0
    4.7239    1.2152   -0.3656 H   0  0  0  0  0  0  0  0  0  0  0  0
    6.3968   -0.3353   -1.2656 H   0  0  0  0  0  0  0  0  0  0  0  0
    7.7474   -2.3860   -0.8746 H   0  0  0  0  0  0  0  0  0  0  0  0
    4.9983   -3.6511    2.1665 H   0  0  0  0  0  0  0  0  0  0  0  0
    1.2464    1.1944    0.7580 H   0  0  0  0  0  0  0  0  0  0  0  0
    2.1654    2.6785    0.5161 H   0  0  0  0  0  0  0  0  0  0  0  0
    0.3260    3.5507   -0.9712 H   0  0  0  0  0  0  0  0  0  0  0  0
   -0.2431    3.1611    0.6550 H   0  0  0  0  0  0  0  0  0  0  0  0
  1  2  1  0
  2  3  2  0
  3  4  1  0
  4  5  1  0
  5  6  1  0
  5  7  2  0
  7  8  1  0
  8  9  1  0
  9 10  1  0
 10 11  1  0
 11 12  2  0
 11 13  1  0
 13 14  1  0
 14 15  1  0
 15 16  1  0
 16 17  1  0
 17 18  1  0
 18 19  1  0
 19 20  1  0
 20 21  2  0
 21 22  1  0
 22 23  1  0
 22 24  2  0
 24 25  1  0
 25 26  1  0
 16 27  1  0
 27 28  1  0
  7  2  1  0
 28 13  1  0
 25 19  2  0
  1 29  1  0
  1 30  1  0
  1 31  1  0
  6 32  1  0
  6 33  1  0
  6 34  1  0
  8 35  1  0
  8 36  1  0
  9 37  1  0
  9 38  1  0
 10 39  1  0
 14 40  1  0
 14 41  1  0
 15 42  1  0
 15 43  1  0
 16 44  1  0
 17 45  1  0
 17 46  1  0
 18 47  1  0
 18 48  1  0
 20 49  1  0
 21 50  1  0
 24 51  1  0
 27 52  1  0
 27 53  1  0
 28 54  1  0
 28 55  1  0
M  END
$$$$
OCNT-2315849
     RDKit          3D

 41 44  0  0  0  0  0  0  0  0999 V2000
   -6.7871    0.7586   -1.8970 C   0  0  0  0  0  0  0  0  0  0  0  0
   -5.4494    0.7194   -1.2178 C   0  0  0  0  0  0  0  0  0  0  0  0
   -5.1988    1.5280   -0.1016 C   0  0  0  0  0  0  0  0  0  0  0  0
   -3.9710    1.4929    0.5733 C   0  0  0  0  0  0  0  0  0  0  0  0
   -3.0005    0.6042    0.0941 C   0  0  0  0  0  0  0  0  0  0  0  0
   -3.2255   -0.2209   -1.0021 C   0  0  0  0  0  0  0  0  0  0  0  0
   -4.4612   -0.1726   -1.6662 C   0  0  0  0  0  0  0  0  0  0  0  0
   -2.1296   -0.9976   -1.2665 N   0  0  0  0  0  0  0  0  0  0  0  0
   -1.2280   -0.6752   -0.3594 C   0  0  0  0  0  0  0  0  0  0  0  0
    0.1671   -1.3644   -0.3368 C   0  0  0  0  0  0  0  0  0  0  0  0
    1.2202   -1.1832    0.5262 C   0  0  0  0  0  0  0  0  0  0  0  0
    2.2139   -2.0224    0.0888 N   0  0  0  0  0  0  0  0  0  0  0  0
    3.5285   -2.2091    0.6922 C   0  0  0  0  0  0  0  0  0  0  0  0
    4.3615   -0.9515    0.6372 C   0  0  0  0  0  0  0  0  0  0  0  0
    4.7457   -0.4050   -0.5972 C   0  0  0  0  0  0  0  0  0  0  0  0
    5.5181    0.7558   -0.6488 C   0  0  0  0  0  0  0  0  0  0  0  0
    5.9193    1.3797    0.5306 C   0  0  0  0  0  0  0  0  0  0  0  0
    5.5501    0.8433    1.7628 C   0  0  0  0  0  0  0  0  0  0  0  0
    4.7762   -0.3174    1.8177 C   0  0  0  0  0  0  0  0  0  0  0  0
    1.8576   -2.7567   -0.9857 N   0  0  0  0  0  0  0  0  0  0  0  0
    0.6118   -2.3460   -1.2444 C   0  0  0  0  0  0  0  0  0  0  0  0
   -1.7147    0.2991    0.4841 N   0  0  0  0  0  0  0  0  0  0  0  0
   -1.0068    0.9084    1.5808 C   0  0  0  0  0  0  0  0  0  0  0  0
   -7.4675    0.0436   -1.4243 H   0  0  0  0  0  0  0  0  0  0  0  0
   -6.6937    0.5095   -2.9593 H   0  0  0  0  0  0  0  0  0  0  0  0
   -7.2265    1.7598   -1.8362 H   0  0  0  0  0  0  0  0  0  0  0  0
   -5.9715    2.2060    0.2579 H   0  0  0  0  0  0  0  0  0  0  0  0
   -3.7974    2.1318    1.4319 H   0  0  0  0  0  0  0  0  0  0  0  0
   -4.6307   -0.8250   -2.5163 H   0  0  0  0  0  0  0  0  0  0  0  0
    1.3773   -0.5493    1.3845 H   0  0  0  0  0  0  0  0  0  0  0  0
    4.0418   -3.0229    0.1671 H   0  0  0  0  0  0  0  0  0  0  0  0
    3.3528   -2.5345    1.7240 H   0  0  0  0  0  0  0  0  0  0  0  0
    4.4390   -0.8813   -1.5281 H   0  0  0  0  0  0  0  0  0  0  0  0
    5.8067    1.1721   -1.6107 H   0  0  0  0  0  0  0  0  0  0  0  0
    6.5226    2.2829    0.4886 H   0  0  0  0  0  0  0  0  0  0  0  0
    5.8687    1.3289    2.6817 H   0  0  0  0  0  0  0  0  0  0  0  0
    4.5033   -0.7219    2.7900 H   0  0  0  0  0  0  0  0  0  0  0  0
    0.0726   -2.7728   -2.0809 H   0  0  0  0  0  0  0  0  0  0  0  0
   -1.6249    1.6718    2.0573 H   0  0  0  0  0  0  0  0  0  0  0  0
   -0.1006    1.3805    1.1934 H   0  0  0  0  0  0  0  0  0  0  0  0
   -0.7693    0.1350    2.3152 H   0  0  0  0  0  0  0  0  0  0  0  0
  1  2  1  0
  2  3  2  0
  3  4  1  0
  4  5  2  0
  5  6  1  0
  6  7  2  0
  6  8  1  0
  8  9  2  0
  9 10  1  0
 10 11  2  0
 11 12  1  0
 12 13  1  0
 13 14  1  0
 14 15  2  0
 15 16  1  0
 16 17  2  0
 17 18  1  0
 18 19  2  0
 12 20  1  0
 20 21  2  0
  9 22  1  0
 22 23  1  0
  7  2  1  0
 21 10  1  0
 22  5  1  0
 19 14  1  0
  1 24  1  0
  1 25  1  0
  1 26  1  0
  3 27  1  0
  4 28  1  0
  7 29  1  0
 11 30  1  0
 13 31  1  0
 13 32  1  0
 15 33  1  0
 16 34  1  0
 17 35  1  0
 18 36  1  0
 19 37  1  0
 21 38  1  0
 23 39  1  0
 23 40  1  0
 23 41  1  0
M  END
$$$$
OCNT-2315862
     RDKit          3D

 45 48  0  0  0  0  0  0  0  0999 V2000
   -1.3733    1.4961   -0.5396 C   0  0  0  0  0  0  0  0  0  0  0  0
   -2.2033    0.2354   -0.2599 C   0  0  0  0  0  0  0  0  0  0  0  0
   -3.6369    0.4724   -0.6199 C   0  0  0  0  0  0  0  0  0  0  0  0
   -4.6286    0.6697    0.3144 C   0  0  0  0  0  0  0  0  0  0  0  0
   -4.4869    0.6357    1.7894 C   0  0  0  0  0  0  0  0  0  0  0  0
   -2.9927    0.6560    2.1683 C   0  0  0  0  0  0  0  0  0  0  0  0
   -2.1346   -0.2320    1.2275 C   0  0  0  0  0  0  0  0  0  0  0  0
   -0.7037   -0.3288    1.7142 C   0  0  0  0  0  0  0  0  0  0  0  0
   -0.2093    0.3722    2.5854 O   0  0  0  0  0  0  0  0  0  0  0  0
   -0.0508   -1.3143    1.0356 O   0  0  0  0  0  0  0  0  0  0  0  0
    1.3288   -1.5137    1.3869 C   0  0  0  0  0  0  0  0  0  0  0  0
    2.1977   -0.5822    0.5609 C   0  0  0  0  0  0  0  0  0  0  0  0
    3.7302   -0.8706    0.5860 C   0  0  0  0  0  0  0  0  0  0  0  0
    3.7257   -0.5772   -0.8917 C   0  0  0  0  0  0  0  0  0  0  0  0
    4.6575   -1.3132   -1.8192 C   0  0  0  0  0  0  0  0  0  0  0  0
    4.7365    0.0001   -2.6401 C   0  0  0  0  0  0  0  0  0  0  0  0
    4.2421    0.7586   -1.3813 C   0  0  0  0  0  0  0  0  0  0  0  0
    2.2382   -0.8393   -0.9777 C   0  0  0  0  0  0  0  0  0  0  0  0
   -5.7834    0.8640   -0.3808 N   0  0  0  0  0  0  0  0  0  0  0  0
   -5.6072    0.7988   -1.7140 N   0  0  0  0  0  0  0  0  0  0  0  0
   -4.2991    0.5608   -1.8574 C   0  0  0  0  0  0  0  0  0  0  0  0
   -0.3110    1.3310   -0.3369 H   0  0  0  0  0  0  0  0  0  0  0  0
   -1.4591    1.7906   -1.5920 H   0  0  0  0  0  0  0  0  0  0  0  0
   -1.7077    2.3471    0.0633 H   0  0  0  0  0  0  0  0  0  0  0  0
   -1.8120   -0.5697   -0.8959 H   0  0  0  0  0  0  0  0  0  0  0  0
   -4.9453   -0.2842    2.1714 H   0  0  0  0  0  0  0  0  0  0  0  0
   -5.0014    1.4825    2.2560 H   0  0  0  0  0  0  0  0  0  0  0  0
   -2.8834    0.3286    3.2097 H   0  0  0  0  0  0  0  0  0  0  0  0
   -2.6242    1.6896    2.1352 H   0  0  0  0  0  0  0  0  0  0  0  0
   -2.5505   -1.2486    1.2991 H   0  0  0  0  0  0  0  0  0  0  0  0
    1.5616   -2.5620    1.1702 H   0  0  0  0  0  0  0  0  0  0  0  0
    1.4898   -1.3678    2.4614 H   0  0  0  0  0  0  0  0  0  0  0  0
    1.9879    0.4726    0.7909 H   0  0  0  0  0  0  0  0  0  0  0  0
    4.3189   -0.2010    1.2194 H   0  0  0  0  0  0  0  0  0  0  0  0
    3.9890   -1.9066    0.8344 H   0  0  0  0  0  0  0  0  0  0  0  0
    5.6131   -1.5986   -1.3645 H   0  0  0  0  0  0  0  0  0  0  0  0
    4.2479   -2.1745   -2.3533 H   0  0  0  0  0  0  0  0  0  0  0  0
    5.7318    0.2754   -2.9984 H   0  0  0  0  0  0  0  0  0  0  0  0
    4.0314    0.0361   -3.4786 H   0  0  0  0  0  0  0  0  0  0  0  0
    3.5022    1.5418   -1.5673 H   0  0  0  0  0  0  0  0  0  0  0  0
    5.0580    1.1772   -0.7810 H   0  0  0  0  0  0  0  0  0  0  0  0
    1.9780   -1.8645   -1.2666 H   0  0  0  0  0  0  0  0  0  0  0  0
    1.6462   -0.1453   -1.5810 H   0  0  0  0  0  0  0  0  0  0  0  0
   -6.7183    1.0359   -0.0254 H   0  0  0  0  0  0  0  0  0  0  0  0
   -3.8894    0.4659   -2.8549 H   0  0  0  0  0  0  0  0  0  0  0  0
  1  2  1  0
  2  3  1  0
  3  4  2  0
  4  5  1  0
  5  6  1  0
  6  7  1  0
  7  8  1  0
  8  9  2  0
  8 10  1  0
 10 11  1  0
 11 12  1  0
 12 13  1  0
 13 14  1  0
 14 15  1  0
 15 16  1  0
 16 17  1  0
 14 18  1  0
  4 19  1  0
 19 20  1  0
 20 21  2  0
  7  2  1  0
 18 12  1  0
 21  3  1  0
 17 14  1  0
  1 22  1  0
  1 23  1  0
  1 24  1  0
  2 25  1  0
  5 26  1  0
  5 27  1  0
  6 28  1  0
  6 29  1  0
  7 30  1  0
 11 31  1  0
 11 32  1  0
 12 33  1  0
 13 34  1  0
 13 35  1  0
 15 36  1  0
 15 37  1  0
 16 38  1  0
 16 39  1  0
 17 40  1  0
 17 41  1  0
 18 42  1  0
 18 43  1  0
 19 44  1  0
 21 45  1  0
M  END
$$$$
OCNT-2315864
     RDKit          3D

 45 48  0  0  0  0  0  0  0  0999 V2000
    5.0692   -0.8210    0.6973 C   0  0  0  0  0  0  0  0  0  0  0  0
    5.4828    0.1929   -0.1365 C   0  0  0  0  0  0  0  0  0  0  0  0
    4.3300    0.7854   -0.5730 N   0  0  0  0  0  0  0  0  0  0  0  0
    4.1167    1.8286   -1.4447 C   0  0  0  0  0  0  0  0  0  0  0  0
    2.8482    2.1784   -1.6971 C   0  0  0  0  0  0  0  0  0  0  0  0
    1.7498    1.5633   -1.1343 N   0  0  0  0  0  0  0  0  0  0  0  0
    1.9006    0.5640   -0.2752 C   0  0  0  0  0  0  0  0  0  0  0  0
    0.7253   -0.0008    0.2680 N   0  0  0  0  0  0  0  0  0  0  0  0
    0.7900   -1.0406    1.2859 C   0  0  0  0  0  0  0  0  0  0  0  0
    0.6943   -2.4360    0.6810 C   0  0  0  0  0  0  0  0  0  0  0  0
   -0.6047   -2.7065   -0.0830 C   0  0  0  0  0  0  0  0  0  0  0  0
   -1.7984   -1.9178    0.4557 C   0  0  0  0  0  0  0  0  0  0  0  0
   -1.8571   -0.4052    0.0440 C   0  0  0  0  0  0  0  0  0  0  0  0
   -2.9292   -0.2914   -1.0929 C   0  0  0  0  0  0  0  0  0  0  0  0
   -3.3099    1.1434   -1.4593 C   0  0  0  0  0  0  0  0  0  0  0  0
   -3.7836    1.9221   -0.2391 C   0  0  0  0  0  0  0  0  0  0  0  0
   -2.7723    1.8688    0.8986 C   0  0  0  0  0  0  0  0  0  0  0  0
   -2.3775    0.4324    1.2478 C   0  0  0  0  0  0  0  0  0  0  0  0
   -0.5146    0.1599   -0.5199 C   0  0  0  0  0  0  0  0  0  0  0  0
    3.2777    0.1323    0.0227 C   0  0  0  0  0  0  0  0  0  0  0  0
    3.7001   -0.8602    0.7850 N   0  0  0  0  0  0  0  0  0  0  0  0
    5.6861   -1.5278    1.2375 H   0  0  0  0  0  0  0  0  0  0  0  0
    6.4617    0.5241   -0.4499 H   0  0  0  0  0  0  0  0  0  0  0  0
    4.9741    2.3139   -1.8893 H   0  0  0  0  0  0  0  0  0  0  0  0
    2.6290    2.9945   -2.3808 H   0  0  0  0  0  0  0  0  0  0  0  0
    0.0032   -0.8905    2.0292 H   0  0  0  0  0  0  0  0  0  0  0  0
    1.6927   -0.9570    1.8959 H   0  0  0  0  0  0  0  0  0  0  0  0
    0.7707   -3.1615    1.5009 H   0  0  0  0  0  0  0  0  0  0  0  0
    1.5451   -2.6317    0.0179 H   0  0  0  0  0  0  0  0  0  0  0  0
   -0.4683   -2.5093   -1.1522 H   0  0  0  0  0  0  0  0  0  0  0  0
   -0.8224   -3.7797   -0.0102 H   0  0  0  0  0  0  0  0  0  0  0  0
   -1.8260   -2.0218    1.5484 H   0  0  0  0  0  0  0  0  0  0  0  0
   -2.7091   -2.4283    0.1162 H   0  0  0  0  0  0  0  0  0  0  0  0
   -3.8500   -0.8034   -0.7807 H   0  0  0  0  0  0  0  0  0  0  0  0
   -2.5795   -0.8131   -1.9927 H   0  0  0  0  0  0  0  0  0  0  0  0
   -2.4631    1.6577   -1.9265 H   0  0  0  0  0  0  0  0  0  0  0  0
   -4.1097    1.1248   -2.2090 H   0  0  0  0  0  0  0  0  0  0  0  0
   -3.9748    2.9649   -0.5163 H   0  0  0  0  0  0  0  0  0  0  0  0
   -4.7383    1.5065    0.1068 H   0  0  0  0  0  0  0  0  0  0  0  0
   -1.8840    2.4533    0.6347 H   0  0  0  0  0  0  0  0  0  0  0  0
   -3.2022    2.3497    1.7854 H   0  0  0  0  0  0  0  0  0  0  0  0
   -1.6343    0.4681    2.0502 H   0  0  0  0  0  0  0  0  0  0  0  0
   -3.2599   -0.0652    1.6733 H   0  0  0  0  0  0  0  0  0  0  0  0
   -0.6448    1.2297   -0.7116 H   0  0  0  0  0  0  0  0  0  0  0  0
   -0.3335   -0.2901   -1.5056 H   0  0  0  0  0  0  0  0  0  0  0  0
  1  2  2  0
  2  3  1  0
  3  4  1  0
  4  5  2  0
  5  6  1  0
  6  7  2  0
  7  8  1  0
  8  9  1  0
  9 10  1  0
 10 11  1  0
 11 12  1  0
 12 13  1  0
 13 14  1  0
 14 15  1  0
 15 16  1  0
 16 17  1  0
 17 18  1  0
 13 19  1  0
  7 20  1  0
 20 21  2  0
 21  1  1  0
 20  3  1  0
 19  8  1  0
 18 13  1  0
  1 22  1  0
  2 23  1  0
  4 24  1  0
  5 25  1  0
  9 26  1  0
  9 27  1  0
 10 28  1  0
 10 29  1  0
 11 30  1  0
 11 31  1  0
 12 32  1  0
 12 33  1  0
 14 34  1  0
 14 35  1  0
 15 36  1  0
 15 37  1  0
 16 38  1  0
 16 39  1  0
 17 40  1  0
 17 41  1  0
 18 42  1  0
 18 43  1  0
 19 44  1  0
 19 45  1  0
M  END
$$$$
OCNT-2315875
     RDKit          3D

 52 56  0  0  0  0  0  0  0  0999 V2000
    6.1345   -1.9483    3.2307 C   0  0  0  0  0  0  0  0  0  0  0  0
    6.4225   -0.6582    2.7755 C   0  0  0  0  0  0  0  0  0  0  0  0
    5.8807   -0.2033    1.5708 C   0  0  0  0  0  0  0  0  0  0  0  0
    5.0426   -1.0316    0.8098 C   0  0  0  0  0  0  0  0  0  0  0  0
    4.4664   -0.5420   -0.4945 C   0  0  0  0  0  0  0  0  0  0  0  0
    3.3493    0.4724   -0.2766 C   0  0  0  0  0  0  0  0  0  0  0  0
    2.9115    1.0454   -1.5268 N   0  0  0  0  0  0  0  0  0  0  0  0
    3.4824    2.1361   -2.1279 C   0  0  0  0  0  0  0  0  0  0  0  0
    2.7563    2.3444   -3.2693 C   0  0  0  0  0  0  0  0  0  0  0  0
    1.7664    1.4112   -3.3790 N   0  0  0  0  0  0  0  0  0  0  0  0
    1.8922    0.6157   -2.3311 C   0  0  0  0  0  0  0  0  0  0  0  0
    1.0233   -0.5708   -2.0477 C   0  0  0  0  0  0  0  0  0  0  0  0
   -0.2037   -0.2142   -1.3498 N   0  0  0  0  0  0  0  0  0  0  0  0
   -1.2429   -1.1074   -1.2823 C   0  0  0  0  0  0  0  0  0  0  0  0
   -1.0334   -2.3762   -1.5352 N   0  0  0  0  0  0  0  0  0  0  0  0
   -2.1055   -3.2385   -1.5510 C   0  0  0  0  0  0  0  0  0  0  0  0
   -3.3691   -2.8542   -1.3418 C   0  0  0  0  0  0  0  0  0  0  0  0
   -3.6181   -1.5299   -1.0314 N   0  0  0  0  0  0  0  0  0  0  0  0
   -4.7968   -0.9335   -0.7568 N   0  0  0  0  0  0  0  0  0  0  0  0
   -4.4847    0.3090   -0.3587 C   0  0  0  0  0  0  0  0  0  0  0  0
   -5.5167    1.2381    0.1203 C   0  0  0  0  0  0  0  0  0  0  0  0
   -5.1823    2.4214    0.7870 C   0  0  0  0  0  0  0  0  0  0  0  0
   -6.1794    3.2888    1.2549 C   0  0  0  0  0  0  0  0  0  0  0  0
   -7.5221    2.9802    1.0640 C   0  0  0  0  0  0  0  0  0  0  0  0
   -7.8734    1.8097    0.3975 C   0  0  0  0  0  0  0  0  0  0  0  0
   -6.8777    0.9466   -0.0707 C   0  0  0  0  0  0  0  0  0  0  0  0
   -3.0915    0.5310   -0.4881 C   0  0  0  0  0  0  0  0  0  0  0  0
   -2.5742   -0.6539   -0.9503 C   0  0  0  0  0  0  0  0  0  0  0  0
    4.7490   -2.3186    1.2754 C   0  0  0  0  0  0  0  0  0  0  0  0
    5.2974   -2.7776    2.4791 C   0  0  0  0  0  0  0  0  0  0  0  0
    6.5682   -2.3096    4.1638 H   0  0  0  0  0  0  0  0  0  0  0  0
    7.0791   -0.0120    3.3517 H   0  0  0  0  0  0  0  0  0  0  0  0
    6.1343    0.7979    1.2233 H   0  0  0  0  0  0  0  0  0  0  0  0
    5.2746   -0.0970   -1.0863 H   0  0  0  0  0  0  0  0  0  0  0  0
    4.0943   -1.3932   -1.0849 H   0  0  0  0  0  0  0  0  0  0  0  0
    2.4805    0.0255    0.2232 H   0  0  0  0  0  0  0  0  0  0  0  0
    3.6788    1.3037    0.3507 H   0  0  0  0  0  0  0  0  0  0  0  0
    4.3300    2.6514   -1.7087 H   0  0  0  0  0  0  0  0  0  0  0  0
    2.8922    3.1054   -4.0260 H   0  0  0  0  0  0  0  0  0  0  0  0
    0.7812   -1.0340   -3.0164 H   0  0  0  0  0  0  0  0  0  0  0  0
    1.5683   -1.3192   -1.4704 H   0  0  0  0  0  0  0  0  0  0  0  0
   -0.5157    0.7042   -1.6713 H   0  0  0  0  0  0  0  0  0  0  0  0
   -1.8729   -4.2812   -1.7672 H   0  0  0  0  0  0  0  0  0  0  0  0
   -4.2220   -3.5174   -1.3790 H   0  0  0  0  0  0  0  0  0  0  0  0
   -4.1489    2.6857    0.9713 H   0  0  0  0  0  0  0  0  0  0  0  0
   -5.9010    4.2043    1.7729 H   0  0  0  0  0  0  0  0  0  0  0  0
   -8.2938    3.6495    1.4378 H   0  0  0  0  0  0  0  0  0  0  0  0
   -8.9207    1.5523    0.2432 H   0  0  0  0  0  0  0  0  0  0  0  0
   -7.1704    0.0430   -0.5973 H   0  0  0  0  0  0  0  0  0  0  0  0
   -2.5327    1.4167   -0.2500 H   0  0  0  0  0  0  0  0  0  0  0  0
    4.1104   -2.9821    0.6945 H   0  0  0  0  0  0  0  0  0  0  0  0
    5.0832   -3.7856    2.8339 H   0  0  0  0  0  0  0  0  0  0  0  0
  1  2  2  0
  2  3  1  0
  3  4  2  0
  4  5  1  0
  5  6  1  0
  6  7  1  0
  7  8  1  0
  8  9  2  0
  9 10  1  0
 10 11  2  0
 11 12  1  0
 12 13  1  0
 13 14  1  0
 14 15  2  0
 15 16  1  0
 16 17  2  0
 17 18  1  0
 18 19  1  0
 19 20  2  0
 20 21  1  0
 21 22  2  0
 22 23  1  0
 23 24  2  0
 24 25  1  0
 25 26  2  0
 20 27  1  0
 27 28  2  0
  4 29  1  0
 29 30  2  0
 30  1  1  0
 11  7  1  0
 28 14  1  0
 28 18  1  0
 26 21  1  0
  1 31  1  0
  2 32  1  0
  3 33  1  0
  5 34  1  0
  5 35  1  0
  6 36  1  0
  6 37  1  0
  8 38  1  0
  9 39  1  0
 12 40  1  0
 12 41  1  0
 13 42  1  0
 16 43  1  0
 17 44  1  0
 22 45  1  0
 23 46  1  0
 24 47  1  0
 25 48  1  0
 26 49  1  0
 27 50  1  0
 29 51  1  0
 30 52  1  0
M  END
$$$$
OCNT-2315878
     RDKit          3D

 47 49  0  0  0  0  0  0  0  0999 V2000
    8.5764    1.1813   -0.5167 C   0  0  0  0  0  0  0  0  0  0  0  0
    7.1657    0.9914   -0.6486 O   0  0  0  0  0  0  0  0  0  0  0  0
    6.6121    0.2633    0.3513 C   0  0  0  0  0  0  0  0  0  0  0  0
    7.2024   -0.2185    1.3041 O   0  0  0  0  0  0  0  0  0  0  0  0
    5.1664    0.1170    0.1427 C   0  0  0  0  0  0  0  0  0  0  0  0
    4.4721    0.6372   -0.9202 C   0  0  0  0  0  0  0  0  0  0  0  0
    3.1378    0.4858   -1.0873 N   0  0  0  0  0  0  0  0  0  0  0  0
    2.4560   -0.2120   -0.1586 C   0  0  0  0  0  0  0  0  0  0  0  0
    1.0795   -0.3473   -0.3023 N   0  0  0  0  0  0  0  0  0  0  0  0
    0.5940   -0.1965   -1.6744 C   0  0  0  0  0  0  0  0  0  0  0  0
   -0.8546   -0.6710   -1.8178 C   0  0  0  0  0  0  0  0  0  0  0  0
   -1.6576   -0.3082   -0.5675 C   0  0  0  0  0  0  0  0  0  0  0  0
   -3.0771   -0.6256   -0.8000 N   0  0  0  0  0  0  0  0  0  0  0  0
   -3.9979   -0.2001    0.2666 C   0  0  0  0  0  0  0  0  0  0  0  0
   -5.3929   -0.7720   -0.0453 C   0  0  0  0  0  0  0  0  0  0  0  0
   -6.5055    0.0067    0.6497 C   0  0  0  0  0  0  0  0  0  0  0  0
   -6.0157    0.6257    1.8326 O   0  0  0  0  0  0  0  0  0  0  0  0
   -5.0850    1.6713    1.5459 C   0  0  0  0  0  0  0  0  0  0  0  0
   -4.1039    1.3172    0.4266 C   0  0  0  0  0  0  0  0  0  0  0  0
   -1.0742   -1.0299    0.6594 C   0  0  0  0  0  0  0  0  0  0  0  0
    0.4245   -1.3329    0.5432 C   0  0  0  0  0  0  0  0  0  0  0  0
    3.0641   -0.7540    0.9118 N   0  0  0  0  0  0  0  0  0  0  0  0
    4.3997   -0.5808    1.0419 C   0  0  0  0  0  0  0  0  0  0  0  0
    9.0958    0.2181   -0.5370 H   0  0  0  0  0  0  0  0  0  0  0  0
    8.9185    1.7778   -1.3669 H   0  0  0  0  0  0  0  0  0  0  0  0
    8.8048    1.7268    0.4043 H   0  0  0  0  0  0  0  0  0  0  0  0
    4.9583    1.2118   -1.7029 H   0  0  0  0  0  0  0  0  0  0  0  0
    0.6443    0.8628   -1.9572 H   0  0  0  0  0  0  0  0  0  0  0  0
    1.2095   -0.7632   -2.3856 H   0  0  0  0  0  0  0  0  0  0  0  0
   -0.8721   -1.7584   -1.9727 H   0  0  0  0  0  0  0  0  0  0  0  0
   -1.2915   -0.2193   -2.7171 H   0  0  0  0  0  0  0  0  0  0  0  0
   -1.5508    0.7742   -0.4282 H   0  0  0  0  0  0  0  0  0  0  0  0
   -3.1737   -1.6318   -0.9421 H   0  0  0  0  0  0  0  0  0  0  0  0
   -3.6736   -0.6329    1.2218 H   0  0  0  0  0  0  0  0  0  0  0  0
   -5.4203   -1.8203    0.2799 H   0  0  0  0  0  0  0  0  0  0  0  0
   -5.6017   -0.7853   -1.1229 H   0  0  0  0  0  0  0  0  0  0  0  0
   -7.3227   -0.6684    0.9233 H   0  0  0  0  0  0  0  0  0  0  0  0
   -6.9269    0.7719   -0.0138 H   0  0  0  0  0  0  0  0  0  0  0  0
   -5.6363    2.5859    1.3001 H   0  0  0  0  0  0  0  0  0  0  0  0
   -4.5357    1.8666    2.4731 H   0  0  0  0  0  0  0  0  0  0  0  0
   -3.1405    1.7897    0.6437 H   0  0  0  0  0  0  0  0  0  0  0  0
   -4.4580    1.7608   -0.5136 H   0  0  0  0  0  0  0  0  0  0  0  0
   -1.5939   -1.9781    0.8495 H   0  0  0  0  0  0  0  0  0  0  0  0
   -1.2514   -0.4065    1.5457 H   0  0  0  0  0  0  0  0  0  0  0  0
    0.8282   -1.3564    1.5629 H   0  0  0  0  0  0  0  0  0  0  0  0
    0.5687   -2.3347    0.1179 H   0  0  0  0  0  0  0  0  0  0  0  0
    4.8347   -1.0395    1.9263 H   0  0  0  0  0  0  0  0  0  0  0  0
  1  2  1  0
  2  3  1  0
  3  4  2  0
  3  5  1  0
  5  6  2  0
  6  7  1  0
  7  8  2  0
  8  9  1  0
  9 10  1  0
 10 11  1  0
 11 12  1  0
 12 13  1  0
 13 14  1  0
 14 15  1  0
 15 16  1  0
 16 17  1  0
 17 18  1  0
 18 19  1  0
 12 20  1  0
 20 21  1  0
  8 22  1  0
 22 23  2  0
 23  5  1  0
 21  9  1  0
 19 14  1  0
  1 24  1  0
  1 25  1  0
  1 26  1  0
  6 27  1  0
 10 28  1  0
 10 29  1  0
 11 30  1  0
 11 31  1  0
 12 32  1  0
 13 33  1  0
 14 34  1  0
 15 35  1  0
 15 36  1  0
 16 37  1  0
 16 38  1  0
 18 39  1  0
 18 40  1  0
 19 41  1  0
 19 42  1  0
 20 43  1  0
 20 44  1  0
 21 45  1  0
 21 46  1  0
 23 47  1  0
M  END
$$$$
OCNT-2315880
     RDKit          3D

 50 53  0  0  0  0  0  0  0  0999 V2000
    2.2922    4.3738   -1.4039 C   0  0  0  0  0  0  0  0  0  0  0  0
    2.0006    2.9904   -1.1204 N   0  0  0  0  0  0  0  0  0  0  0  0
    0.8529    2.3223   -1.4160 C   0  0  0  0  0  0  0  0  0  0  0  0
    1.0319    1.0314   -0.9830 C   0  0  0  0  0  0  0  0  0  0  0  0
    0.1452   -0.0280   -1.0705 N   0  0  0  0  0  0  0  0  0  0  0  0
   -1.0906    0.0079   -1.6804 C   0  0  0  0  0  0  0  0  0  0  0  0
   -1.5823    0.9573   -2.2779 O   0  0  0  0  0  0  0  0  0  0  0  0
   -1.7350   -1.2075   -1.5561 N   0  0  0  0  0  0  0  0  0  0  0  0
   -3.0835   -1.3840   -2.0504 C   0  0  0  0  0  0  0  0  0  0  0  0
   -4.0905   -1.2296   -0.9357 C   0  0  0  0  0  0  0  0  0  0  0  0
   -4.6168   -2.3624   -0.2913 C   0  0  0  0  0  0  0  0  0  0  0  0
   -5.5357   -2.2471    0.7592 C   0  0  0  0  0  0  0  0  0  0  0  0
   -5.8914   -0.9552    1.1358 C   0  0  0  0  0  0  0  0  0  0  0  0
   -6.7607   -0.6327    2.1338 O   0  0  0  0  0  0  0  0  0  0  0  0
   -6.8235    0.7241    2.1795 C   0  0  0  0  0  0  0  0  0  0  0  0
   -6.0059    1.2798    1.2225 C   0  0  0  0  0  0  0  0  0  0  0  0
   -5.3956    0.1963    0.5377 C   0  0  0  0  0  0  0  0  0  0  0  0
   -4.4764    0.0618   -0.5179 C   0  0  0  0  0  0  0  0  0  0  0  0
    2.3410    1.0241   -0.4167 C   0  0  0  0  0  0  0  0  0  0  0  0
    3.0779   -0.1237    0.2193 C   0  0  0  0  0  0  0  0  0  0  0  0
    4.0828   -0.7626   -0.7613 C   0  0  0  0  0  0  0  0  0  0  0  0
    5.2338   -1.4975   -0.0674 C   0  0  0  0  0  0  0  0  0  0  0  0
    4.8167   -2.0598    1.2837 C   0  0  0  0  0  0  0  0  0  0  0  0
    4.3659   -0.9575    2.2439 C   0  0  0  0  0  0  0  0  0  0  0  0
    3.7639    0.2611    1.5381 C   0  0  0  0  0  0  0  0  0  0  0  0
    2.9277    2.2265   -0.5183 N   0  0  0  0  0  0  0  0  0  0  0  0
    1.3634    4.8971   -1.6454 H   0  0  0  0  0  0  0  0  0  0  0  0
    2.9776    4.4113   -2.2549 H   0  0  0  0  0  0  0  0  0  0  0  0
    2.7509    4.8246   -0.5200 H   0  0  0  0  0  0  0  0  0  0  0  0
    0.0239    2.8114   -1.9079 H   0  0  0  0  0  0  0  0  0  0  0  0
    0.4720   -0.9209   -0.7400 H   0  0  0  0  0  0  0  0  0  0  0  0
   -1.4854   -1.7677   -0.7570 H   0  0  0  0  0  0  0  0  0  0  0  0
   -3.1397   -2.3936   -2.4729 H   0  0  0  0  0  0  0  0  0  0  0  0
   -3.3035   -0.6819   -2.8622 H   0  0  0  0  0  0  0  0  0  0  0  0
   -4.3152   -3.3597   -0.6085 H   0  0  0  0  0  0  0  0  0  0  0  0
   -5.9512   -3.1129    1.2595 H   0  0  0  0  0  0  0  0  0  0  0  0
   -7.4809    1.1349    2.9332 H   0  0  0  0  0  0  0  0  0  0  0  0
   -5.8643    2.3355    1.0391 H   0  0  0  0  0  0  0  0  0  0  0  0
   -4.0624    0.9446   -1.0013 H   0  0  0  0  0  0  0  0  0  0  0  0
    2.3333   -0.8922    0.4723 H   0  0  0  0  0  0  0  0  0  0  0  0
    3.5376   -1.4672   -1.4036 H   0  0  0  0  0  0  0  0  0  0  0  0
    4.5122   -0.0145   -1.4405 H   0  0  0  0  0  0  0  0  0  0  0  0
    5.6006   -2.3007   -0.7162 H   0  0  0  0  0  0  0  0  0  0  0  0
    6.0725   -0.8047    0.0758 H   0  0  0  0  0  0  0  0  0  0  0  0
    3.9964   -2.7739    1.1383 H   0  0  0  0  0  0  0  0  0  0  0  0
    5.6417   -2.6226    1.7340 H   0  0  0  0  0  0  0  0  0  0  0  0
    3.6358   -1.3792    2.9456 H   0  0  0  0  0  0  0  0  0  0  0  0
    5.2162   -0.6249    2.8527 H   0  0  0  0  0  0  0  0  0  0  0  0
    4.5638    0.9881    1.3415 H   0  0  0  0  0  0  0  0  0  0  0  0
    3.0598    0.7598    2.2159 H   0  0  0  0  0  0  0  0  0  0  0  0
  1  2  1  0
  2  3  1  0
  3  4  2  0
  4  5  1  0
  5  6  1  0
  6  7  2  0
  6  8  1  0
  8  9  1  0
  9 10  1  0
 10 11  2  0
 11 12  1  0
 12 13  2  0
 13 14  1  0
 14 15  1  0
 15 16  2  0
 16 17  1  0
 17 18  2  0
  4 19  1  0
 19 20  1  0
 20 21  1  0
 21 22  1  0
 22 23  1  0
 23 24  1  0
 24 25  1  0
 19 26  2  0
 26  2  1  0
 18 10  1  0
 25 20  1  0
 17 13  1  0
  1 27  1  0
  1 28  1  0
  1 29  1  0
  3 30  1  0
  5 31  1  0
  8 32  1  0
  9 33  1  0
  9 34  1  0
 11 35  1  0
 12 36  1  0
 15 37  1  0
 16 38  1  0
 18 39  1  0
 20 40  1  0
 21 41  1  0
 21 42  1  0
 22 43  1  0
 22 44  1  0
 23 45  1  0
 23 46  1  0
 24 47  1  0
 24 48  1  0
 25 49  1  0
 25 50  1  0
M  END
$$$$
OCNT-2315887
     RDKit          3D

  0  0  0  0  0  0  0  0  0  0999 V3000
M  V30 BEGIN CTAB
M  V30 COUNTS 38 40 0 0 0
M  V30 BEGIN ATOM
M  V30 1 C 6.769359 -0.340266 -0.279951 0
M  V30 2 C 5.268140 -0.367205 -0.231909 0
M  V30 3 C 4.563301 -1.400440 -0.868851 0
M  V30 4 C 3.166195 -1.473879 -0.819363 0
M  V30 5 C 2.517296 -0.477052 -0.097187 0
M  V30 6 O 1.170737 -0.373972 0.069771 0
M  V30 7 C 0.942244 0.735189 0.843340 0
M  V30 8 C -0.417194 1.097378 1.182540 0
M  V30 9 O -0.707933 2.089193 1.846148 0
M  V30 10 N -1.371609 0.232931 0.685058 0
M  V30 11 C -2.782752 0.539546 0.724232 0 CFG=1
M  V30 12 C -3.221756 1.486657 -0.394708 0
M  V30 13 C -4.710230 1.207256 -0.602958 0
M  V30 14 C -5.059505 0.023599 0.300942 0
M  V30 15 C -3.724637 -0.662375 0.595218 0 CFG=1
M  V30 16 C -3.348318 -1.628182 -0.507410 0
M  V30 17 O -2.324848 -1.625223 -1.172064 0
M  V30 18 O -4.265077 -2.600589 -0.681854 0
M  V30 19 C 2.146481 1.333492 1.164714 0
M  V30 20 C 3.168656 0.557372 0.560888 0
M  V30 21 C 4.572819 0.614437 0.500330 0
M  V30 22 H 7.137414 -0.762823 -1.220782 0
M  V30 23 H 7.143840 0.686887 -0.217395 0
M  V30 24 H 7.180046 -0.918487 0.553398 0
M  V30 25 H 5.105783 -2.167976 -1.418760 0
M  V30 26 H 2.613869 -2.264218 -1.312537 0
M  V30 27 H -1.040414 -0.443636 -0.003497 0
M  V30 28 H -2.988045 1.032672 1.684831 0
M  V30 29 H -3.038585 2.533740 -0.130765 0
M  V30 30 H -2.672723 1.289369 -1.323645 0
M  V30 31 H -5.323346 2.080688 -0.357827 0
M  V30 32 H -4.899383 0.958878 -1.653495 0
M  V30 33 H -5.491394 0.399534 1.236934 0
M  V30 34 H -5.805371 -0.626800 -0.165919 0
M  V30 35 H -3.752315 -1.233860 1.529970 0
M  V30 36 H -3.889307 -3.166626 -1.388770 0
M  V30 37 H 2.260086 2.225866 1.764588 0
M  V30 38 H 5.108477 1.408923 1.012405 0
M  V30 END ATOM
M  V30 BEGIN BOND
M  V30 1 1 1 2
M  V30 2 2 2 3
M  V30 3 1 3 4
M  V30 4 2 4 5
M  V30 5 1 5 6
M  V30 6 1 6 7
M  V30 7 1 7 8
M  V30 8 2 8 9
M  V30 9 1 8 10
M  V30 10 1 10 11
M  V30 11 1 11 12
M  V30 12 1 12 13
M  V30 13 1 13 14
M  V30 14 1 14 15
M  V30 15 1 15 16
M  V30 16 2 16 17
M  V30 17 1 16 18
M  V30 18 2 7 19
M  V30 19 1 19 20
M  V30 20 2 20 21
M  V30 21 1 21 2
M  V30 22 1 20 5
M  V30 23 1 15 11
M  V30 24 1 1 22
M  V30 25 1 1 23
M  V30 26 1 1 24
M  V30 27 1 3 25
M  V30 28 1 4 26
M  V30 29 1 10 27
M  V30 30 1 11 28 CFG=1
M  V30 31 1 12 29
M  V30 32 1 12 30
M  V30 33 1 13 31
M  V30 34 1 13 32
M  V30 35 1 14 33
M  V30 36 1 14 34
M  V30 37 1 15 35 CFG=1
M  V30 38 1 18 36
M  V30 39 1 19 37
M  V30 40 1 21 38
M  V30 END BOND
M  V30 BEGIN COLLECTION
M  V30 MDLV30/STERAC1 ATOMS=(2 11 15)
M  V30 END COLLECTION
M  V30 END CTAB
M  END
>  <_CXSMILES_Data>  (1036) 
|&1:10,14|

$$$$
OCNT-2315891
     RDKit          3D

 53 56  0  0  0  0  0  0  0  0999 V2000
    5.8220    1.7561    0.3601 C   0  0  0  0  0  0  0  0  0  0  0  0
    4.5205    0.9824    0.5581 C   0  0  0  0  0  0  0  0  0  0  0  0
    4.0148    0.4086   -0.7005 N   0  0  0  0  0  0  0  0  0  0  0  0
    4.8362   -0.7238   -1.1682 C   0  0  0  0  0  0  0  0  0  0  0  0
    4.3021   -1.9640   -0.4639 C   0  0  0  0  0  0  0  0  0  0  0  0
    2.9094   -1.5825    0.0183 C   0  0  0  0  0  0  0  0  0  0  0  0
    2.6595   -0.1960   -0.5768 C   0  0  0  0  0  0  0  0  0  0  0  0
    1.5792    0.6169    0.1707 C   0  0  0  0  0  0  0  0  0  0  0  0
    0.2294    0.0784   -0.0185 N   0  0  0  0  0  0  0  0  0  0  0  0
   -0.4478    0.3868   -1.2815 C   0  0  0  0  0  0  0  0  0  0  0  0
   -1.7326    1.1639   -1.0952 C   0  0  0  0  0  0  0  0  0  0  0  0
   -1.7942    2.2739   -0.2377 C   0  0  0  0  0  0  0  0  0  0  0  0
   -2.9889    2.9770   -0.0662 C   0  0  0  0  0  0  0  0  0  0  0  0
   -4.1234    2.5777   -0.7638 C   0  0  0  0  0  0  0  0  0  0  0  0
   -5.3112    3.2323   -0.6228 O   0  0  0  0  0  0  0  0  0  0  0  0
   -4.0799    1.4950   -1.6323 C   0  0  0  0  0  0  0  0  0  0  0  0
   -2.8861    0.7927   -1.8029 C   0  0  0  0  0  0  0  0  0  0  0  0
   -0.2818   -0.7997    0.9457 C   0  0  0  0  0  0  0  0  0  0  0  0
    0.3036   -1.0494    1.9995 O   0  0  0  0  0  0  0  0  0  0  0  0
   -1.5889   -1.4551    0.7015 C   0  0  0  0  0  0  0  0  0  0  0  0
   -1.6759   -2.3094   -0.3593 N   0  0  0  0  0  0  0  0  0  0  0  0
   -2.8414   -2.9362   -0.5883 C   0  0  0  0  0  0  0  0  0  0  0  0
   -3.9803   -2.7641    0.1781 C   0  0  0  0  0  0  0  0  0  0  0  0
   -3.9131   -1.8786    1.2722 C   0  0  0  0  0  0  0  0  0  0  0  0
   -2.6978   -1.2300    1.5279 C   0  0  0  0  0  0  0  0  0  0  0  0
   -2.8382   -0.1863    2.8987 S   0  0  0  0  0  0  0  0  0  0  0  0
   -4.4709   -0.5968    3.1510 C   0  0  0  0  0  0  0  0  0  0  0  0
   -4.9225   -1.5023    2.2217 C   0  0  0  0  0  0  0  0  0  0  0  0
    5.7176    2.5075   -0.4298 H   0  0  0  0  0  0  0  0  0  0  0  0
    6.6597    1.1009    0.1062 H   0  0  0  0  0  0  0  0  0  0  0  0
    6.0863    2.2798    1.2850 H   0  0  0  0  0  0  0  0  0  0  0  0
    4.6583    0.2223    1.3361 H   0  0  0  0  0  0  0  0  0  0  0  0
    3.7993    1.7110    0.9440 H   0  0  0  0  0  0  0  0  0  0  0  0
    4.6865   -0.8303   -2.2505 H   0  0  0  0  0  0  0  0  0  0  0  0
    5.9130   -0.6006   -1.0229 H   0  0  0  0  0  0  0  0  0  0  0  0
    4.2701   -2.8211   -1.1445 H   0  0  0  0  0  0  0  0  0  0  0  0
    4.9326   -2.2345    0.3904 H   0  0  0  0  0  0  0  0  0  0  0  0
    2.1602   -2.3087   -0.3136 H   0  0  0  0  0  0  0  0  0  0  0  0
    2.8958   -1.5610    1.1142 H   0  0  0  0  0  0  0  0  0  0  0  0
    2.3012   -0.3372   -1.6070 H   0  0  0  0  0  0  0  0  0  0  0  0
    1.5717    1.6545   -0.1847 H   0  0  0  0  0  0  0  0  0  0  0  0
    1.8037    0.6521    1.2427 H   0  0  0  0  0  0  0  0  0  0  0  0
    0.2173    0.9853   -1.9159 H   0  0  0  0  0  0  0  0  0  0  0  0
   -0.6236   -0.5523   -1.8154 H   0  0  0  0  0  0  0  0  0  0  0  0
   -0.9113    2.5878    0.3155 H   0  0  0  0  0  0  0  0  0  0  0  0
   -3.0123    3.8231    0.6130 H   0  0  0  0  0  0  0  0  0  0  0  0
   -5.1881    3.9567    0.0122 H   0  0  0  0  0  0  0  0  0  0  0  0
   -4.9729    1.1971   -2.1737 H   0  0  0  0  0  0  0  0  0  0  0  0
   -2.8657   -0.0573   -2.4813 H   0  0  0  0  0  0  0  0  0  0  0  0
   -2.8448   -3.6108   -1.4406 H   0  0  0  0  0  0  0  0  0  0  0  0
   -4.8947   -3.2959   -0.0617 H   0  0  0  0  0  0  0  0  0  0  0  0
   -5.0245   -0.1538    3.9676 H   0  0  0  0  0  0  0  0  0  0  0  0
   -5.9371   -1.8819    2.2147 H   0  0  0  0  0  0  0  0  0  0  0  0
  1  2  1  0
  2  3  1  0
  3  4  1  0
  4  5  1  0
  5  6  1  0
  6  7  1  0
  7  8  1  0
  8  9  1  0
  9 10  1  0
 10 11  1  0
 11 12  1  0
 12 13  2  0
 13 14  1  0
 14 15  1  0
 14 16  2  0
 16 17  1  0
  9 18  1  0
 18 19  2  0
 18 20  1  0
 20 21  1  0
 21 22  2  0
 22 23  1  0
 23 24  2  0
 24 25  1  0
 25 26  1  0
 26 27  1  0
 27 28  2  0
  7  3  1  0
 17 11  2  0
 25 20  2  0
 28 24  1  0
  1 29  1  0
  1 30  1  0
  1 31  1  0
  2 32  1  0
  2 33  1  0
  4 34  1  0
  4 35  1  0
  5 36  1  0
  5 37  1  0
  6 38  1  0
  6 39  1  0
  7 40  1  0
  8 41  1  0
  8 42  1  0
 10 43  1  0
 10 44  1  0
 12 45  1  0
 13 46  1  0
 15 47  1  0
 16 48  1  0
 17 49  1  0
 22 50  1  0
 23 51  1  0
 27 52  1  0
 28 53  1  0
M  END
$$$$
OCNT-2315895
     RDKit          3D

 48 50  0  0  0  0  0  0  0  0999 V2000
   -7.4786   -0.8838    0.5072 O   0  0  0  0  0  0  0  0  0  0  0  0
   -6.8308    0.0652    0.0830 C   0  0  0  0  0  0  0  0  0  0  0  0
   -7.4928    1.3255   -0.3419 C   0  0  0  0  0  0  0  0  0  0  0  0
   -6.7519    2.3309   -0.8296 C   0  0  0  0  0  0  0  0  0  0  0  0
   -5.3158    2.2044   -0.9357 C   0  0  0  0  0  0  0  0  0  0  0  0
   -4.7129    1.0764   -0.5286 C   0  0  0  0  0  0  0  0  0  0  0  0
   -3.2219    0.9527   -0.6285 C   0  0  0  0  0  0  0  0  0  0  0  0
   -2.5642    1.6148   -1.4213 O   0  0  0  0  0  0  0  0  0  0  0  0
   -2.6875    0.0571    0.2763 N   0  0  0  0  0  0  0  0  0  0  0  0
   -1.2423   -0.1080    0.4205 C   0  0  0  0  0  0  0  0  0  0  0  0
   -0.6224   -0.8265   -0.7781 C   0  0  0  0  0  0  0  0  0  0  0  0
    0.9017   -0.9179   -0.6268 C   0  0  0  0  0  0  0  0  0  0  0  0
    1.3555   -0.9957    0.7748 N   0  0  0  0  0  0  0  0  0  0  0  0
    2.6896   -1.6027    0.8808 C   0  0  0  0  0  0  0  0  0  0  0  0
    3.7744   -0.7588    0.2480 C   0  0  0  0  0  0  0  0  0  0  0  0
    4.5458   -1.2216   -0.7548 C   0  0  0  0  0  0  0  0  0  0  0  0
    5.6148   -0.4113   -1.4284 C   0  0  0  0  0  0  0  0  0  0  0  0
    5.5471    1.0778   -1.0903 C   0  0  0  0  0  0  0  0  0  0  0  0
    5.2783    1.2897    0.3946 C   0  0  0  0  0  0  0  0  0  0  0  0
    3.9630    0.6299    0.8175 C   0  0  0  0  0  0  0  0  0  0  0  0
    0.3826   -1.6912    1.6125 C   0  0  0  0  0  0  0  0  0  0  0  0
   -0.9100   -0.8733    1.7128 C   0  0  0  0  0  0  0  0  0  0  0  0
   -5.4644    0.0350   -0.0284 N   0  0  0  0  0  0  0  0  0  0  0  0
   -8.5693    1.3736   -0.2467 H   0  0  0  0  0  0  0  0  0  0  0  0
   -7.2115    3.2589   -1.1544 H   0  0  0  0  0  0  0  0  0  0  0  0
   -4.7503    3.0380   -1.3433 H   0  0  0  0  0  0  0  0  0  0  0  0
   -3.2671   -0.1799    1.0705 H   0  0  0  0  0  0  0  0  0  0  0  0
   -0.8138    0.9015    0.4853 H   0  0  0  0  0  0  0  0  0  0  0  0
   -0.8599   -0.3204   -1.7203 H   0  0  0  0  0  0  0  0  0  0  0  0
   -1.0486   -1.8358   -0.8579 H   0  0  0  0  0  0  0  0  0  0  0  0
    1.2401   -1.7850   -1.2090 H   0  0  0  0  0  0  0  0  0  0  0  0
    1.3503   -0.0284   -1.0854 H   0  0  0  0  0  0  0  0  0  0  0  0
    2.9575   -1.7154    1.9400 H   0  0  0  0  0  0  0  0  0  0  0  0
    2.6828   -2.6177    0.4613 H   0  0  0  0  0  0  0  0  0  0  0  0
    4.4044   -2.2330   -1.1287 H   0  0  0  0  0  0  0  0  0  0  0  0
    6.5905   -0.8141   -1.1314 H   0  0  0  0  0  0  0  0  0  0  0  0
    5.5343   -0.5343   -2.5145 H   0  0  0  0  0  0  0  0  0  0  0  0
    6.4854    1.5651   -1.3782 H   0  0  0  0  0  0  0  0  0  0  0  0
    4.7491    1.5523   -1.6757 H   0  0  0  0  0  0  0  0  0  0  0  0
    5.2423    2.3612    0.6219 H   0  0  0  0  0  0  0  0  0  0  0  0
    6.1060    0.8678    0.9789 H   0  0  0  0  0  0  0  0  0  0  0  0
    3.9334    0.5915    1.9130 H   0  0  0  0  0  0  0  0  0  0  0  0
    3.1261    1.2607    0.4934 H   0  0  0  0  0  0  0  0  0  0  0  0
    0.7675   -1.8322    2.6301 H   0  0  0  0  0  0  0  0  0  0  0  0
    0.1702   -2.6925    1.2149 H   0  0  0  0  0  0  0  0  0  0  0  0
   -0.8312   -0.1485    2.5335 H   0  0  0  0  0  0  0  0  0  0  0  0
   -1.7247   -1.5558    1.9871 H   0  0  0  0  0  0  0  0  0  0  0  0
   -5.0207   -0.8462    0.1923 H   0  0  0  0  0  0  0  0  0  0  0  0
  1  2  2  0
  2  3  1  0
  3  4  2  0
  4  5  1  0
  5  6  2  0
  6  7  1  0
  7  8  2  0
  7  9  1  0
  9 10  1  0
 10 11  1  0
 11 12  1  0
 12 13  1  0
 13 14  1  0
 14 15  1  0
 15 16  2  0
 16 17  1  0
 17 18  1  0
 18 19  1  0
 19 20  1  0
 13 21  1  0
 21 22  1  0
  6 23  1  0
 23  2  1  0
 22 10  1  0
 20 15  1  0
  3 24  1  0
  4 25  1  0
  5 26  1  0
  9 27  1  0
 10 28  1  0
 11 29  1  0
 11 30  1  0
 12 31  1  0
 12 32  1  0
 14 33  1  0
 14 34  1  0
 16 35  1  0
 17 36  1  0
 17 37  1  0
 18 38  1  0
 18 39  1  0
 19 40  1  0
 19 41  1  0
 20 42  1  0
 20 43  1  0
 21 44  1  0
 21 45  1  0
 22 46  1  0
 22 47  1  0
 23 48  1  0
M  END
$$$$
OCNT-2315913
     RDKit          3D

 36 38  0  0  0  0  0  0  0  0999 V2000
    6.1206    0.4993   -0.5480 C   0  0  0  0  0  0  0  0  0  0  0  0
    4.6370    0.5038   -0.3283 C   0  0  0  0  0  0  0  0  0  0  0  0
    4.0069   -0.6977   -0.3859 N   0  0  0  0  0  0  0  0  0  0  0  0
    2.6771   -0.7370   -0.1961 C   0  0  0  0  0  0  0  0  0  0  0  0
    2.0179   -1.9544   -0.2534 C   0  0  0  0  0  0  0  0  0  0  0  0
    0.6342   -2.0535   -0.0609 C   0  0  0  0  0  0  0  0  0  0  0  0
   -0.1403   -0.9162    0.1993 C   0  0  0  0  0  0  0  0  0  0  0  0
   -1.5956   -1.0164    0.4043 C   0  0  0  0  0  0  0  0  0  0  0  0
   -2.1351   -1.9336    1.3253 C   0  0  0  0  0  0  0  0  0  0  0  0
   -3.5159   -2.0489    1.5163 C   0  0  0  0  0  0  0  0  0  0  0  0
   -4.3879   -1.2419    0.7921 C   0  0  0  0  0  0  0  0  0  0  0  0
   -3.8668   -0.3163   -0.1140 C   0  0  0  0  0  0  0  0  0  0  0  0
   -4.9830    0.7077   -1.0337 S   0  0  0  0  0  0  0  0  0  0  0  0
   -5.3856    1.8782    0.1091 N   0  0  0  0  0  0  0  0  0  0  0  0
   -6.1692   -0.0598   -1.3261 O   0  0  0  0  0  0  0  0  0  0  0  0
   -4.2354    1.4099   -2.0513 O   0  0  0  0  0  0  0  0  0  0  0  0
   -2.4865   -0.2059   -0.3178 C   0  0  0  0  0  0  0  0  0  0  0  0
    0.5213    0.3205    0.2563 C   0  0  0  0  0  0  0  0  0  0  0  0
    1.9140    0.4188    0.0619 C   0  0  0  0  0  0  0  0  0  0  0  0
    2.5824    1.6496    0.1179 C   0  0  0  0  0  0  0  0  0  0  0  0
    3.9564    1.6910   -0.0799 C   0  0  0  0  0  0  0  0  0  0  0  0
    4.6353    2.8734   -0.0327 O   0  0  0  0  0  0  0  0  0  0  0  0
    6.4838   -0.5179   -0.7277 H   0  0  0  0  0  0  0  0  0  0  0  0
    6.3778    1.1089   -1.4198 H   0  0  0  0  0  0  0  0  0  0  0  0
    6.6369    0.8915    0.3338 H   0  0  0  0  0  0  0  0  0  0  0  0
    2.5952   -2.8534   -0.4573 H   0  0  0  0  0  0  0  0  0  0  0  0
    0.1686   -3.0348   -0.1312 H   0  0  0  0  0  0  0  0  0  0  0  0
   -1.4737   -2.5727    1.9092 H   0  0  0  0  0  0  0  0  0  0  0  0
   -3.9062   -2.7748    2.2262 H   0  0  0  0  0  0  0  0  0  0  0  0
   -5.4630   -1.3430    0.9293 H   0  0  0  0  0  0  0  0  0  0  0  0
   -5.0530    2.7863   -0.2199 H   0  0  0  0  0  0  0  0  0  0  0  0
   -5.0474    1.6631    1.0459 H   0  0  0  0  0  0  0  0  0  0  0  0
   -2.1025    0.4979   -1.0550 H   0  0  0  0  0  0  0  0  0  0  0  0
   -0.0509    1.2225    0.4657 H   0  0  0  0  0  0  0  0  0  0  0  0
    2.0259    2.5604    0.3140 H   0  0  0  0  0  0  0  0  0  0  0  0
    4.0067    3.5953    0.1321 H   0  0  0  0  0  0  0  0  0  0  0  0
  1  2  1  0
  2  3  2  0
  3  4  1  0
  4  5  2  0
  5  6  1  0
  6  7  2  0
  7  8  1  0
  8  9  1  0
  9 10  2  0
 10 11  1  0
 11 12  2  0
 12 13  1  0
 13 14  1  0
 13 15  2  0
 13 16  2  0
 12 17  1  0
  7 18  1  0
 18 19  2  0
 19 20  1  0
 20 21  2  0
 21 22  1  0
 21  2  1  0
 19  4  1  0
 17  8  2  0
  1 23  1  0
  1 24  1  0
  1 25  1  0
  5 26  1  0
  6 27  1  0
  9 28  1  0
 10 29  1  0
 11 30  1  0
 14 31  1  0
 14 32  1  0
 17 33  1  0
 18 34  1  0
 20 35  1  0
 22 36  1  0
M  END
$$$$
OCNT-2315930
     RDKit          3D

 45 46  0  0  0  0  0  0  0  0999 V2000
    4.3734    0.1920    1.7631 C   0  0  0  0  0  0  0  0  0  0  0  0
    3.7664   -0.5861    0.5906 C   0  0  1  0  0  0  0  0  0  0  0  0
    2.3211   -0.4485    0.5517 N   0  0  0  0  0  0  0  0  0  0  0  0
    1.5169   -1.1106    1.4364 C   0  0  0  0  0  0  0  0  0  0  0  0
    1.9132   -1.9120    2.2706 O   0  0  0  0  0  0  0  0  0  0  0  0
    0.2065   -0.7623    1.2764 N   0  0  0  0  0  0  0  0  0  0  0  0
   -0.8121   -1.4478    2.0473 C   0  0  0  0  0  0  0  0  0  0  0  0
   -2.1515   -0.9279    1.6626 C   0  0  0  0  0  0  0  0  0  0  0  0
   -2.5221   -0.3494    0.5341 N   0  0  0  0  0  0  0  0  0  0  0  0
   -3.8624   -0.0713    0.7198 C   0  0  0  0  0  0  0  0  0  0  0  0
   -4.6674    0.6034   -0.3652 C   0  0  0  0  0  0  0  0  0  0  0  0
   -6.0702    1.0101    0.1288 C   0  0  0  0  0  0  0  0  0  0  0  0
   -3.9418    1.8767   -0.8449 C   0  0  0  0  0  0  0  0  0  0  0  0
   -4.8314   -0.3573   -1.5590 C   0  0  0  0  0  0  0  0  0  0  0  0
   -4.2393   -0.5164    1.9686 C   0  0  0  0  0  0  0  0  0  0  0  0
   -3.1551   -1.0655    2.5804 O   0  0  0  0  0  0  0  0  0  0  0  0
    4.3411   -0.1775   -0.7561 C   0  0  0  0  0  0  0  0  0  0  0  0
    4.4911    1.1691   -1.1277 C   0  0  0  0  0  0  0  0  0  0  0  0
    4.9988    1.5101   -2.3847 C   0  0  0  0  0  0  0  0  0  0  0  0
    5.3525    0.5087   -3.2851 C   0  0  0  0  0  0  0  0  0  0  0  0
    5.9739    0.9300   -4.8327 Cl  0  0  0  0  0  0  0  0  0  0  0  0
    5.1995   -0.8314   -2.9417 C   0  0  0  0  0  0  0  0  0  0  0  0
    4.6918   -1.1720   -1.6853 C   0  0  0  0  0  0  0  0  0  0  0  0
    5.4673    0.1355    1.7484 H   0  0  0  0  0  0  0  0  0  0  0  0
    4.0305   -0.2153    2.7204 H   0  0  0  0  0  0  0  0  0  0  0  0
    4.0858    1.2488    1.7472 H   0  0  0  0  0  0  0  0  0  0  0  0
    3.9934   -1.6465    0.7635 H   0  0  0  0  0  0  0  0  0  0  0  0
    1.9483    0.4087    0.1730 H   0  0  0  0  0  0  0  0  0  0  0  0
   -0.0727   -0.4955    0.3413 H   0  0  0  0  0  0  0  0  0  0  0  0
   -0.7496   -2.5202    1.8343 H   0  0  0  0  0  0  0  0  0  0  0  0
   -0.6124   -1.2894    3.1121 H   0  0  0  0  0  0  0  0  0  0  0  0
   -6.6537    0.1374    0.4448 H   0  0  0  0  0  0  0  0  0  0  0  0
   -6.6378    1.5146   -0.6616 H   0  0  0  0  0  0  0  0  0  0  0  0
   -6.0101    1.6961    0.9823 H   0  0  0  0  0  0  0  0  0  0  0  0
   -4.5161    2.3928   -1.6226 H   0  0  0  0  0  0  0  0  0  0  0  0
   -2.9554    1.6449   -1.2641 H   0  0  0  0  0  0  0  0  0  0  0  0
   -3.7888    2.5804   -0.0180 H   0  0  0  0  0  0  0  0  0  0  0  0
   -3.8594   -0.6517   -1.9732 H   0  0  0  0  0  0  0  0  0  0  0  0
   -5.3505   -1.2760   -1.2598 H   0  0  0  0  0  0  0  0  0  0  0  0
   -5.4094    0.1062   -2.3665 H   0  0  0  0  0  0  0  0  0  0  0  0
   -5.1596   -0.5214    2.5339 H   0  0  0  0  0  0  0  0  0  0  0  0
    4.2114    1.9688   -0.4461 H   0  0  0  0  0  0  0  0  0  0  0  0
    5.1124    2.5565   -2.6546 H   0  0  0  0  0  0  0  0  0  0  0  0
    5.4671   -1.6150   -3.6451 H   0  0  0  0  0  0  0  0  0  0  0  0
    4.5664   -2.2241   -1.4352 H   0  0  0  0  0  0  0  0  0  0  0  0
  1  2  1  0
  2  3  1  0
  3  4  1  0
  4  5  2  0
  4  6  1  0
  6  7  1  0
  7  8  1  0
  8  9  2  0
  9 10  1  0
 10 11  1  0
 11 12  1  0
 11 13  1  0
 11 14  1  0
 10 15  2  0
 15 16  1  0
  2 17  1  0
 17 18  1  0
 18 19  2  0
 19 20  1  0
 20 21  1  0
 20 22  2  0
 22 23  1  0
 16  8  1  0
 23 17  2  0
  1 24  1  0
  1 25  1  0
  1 26  1  0
  2 27  1  1
  3 28  1  0
  6 29  1  0
  7 30  1  0
  7 31  1  0
 12 32  1  0
 12 33  1  0
 12 34  1  0
 13 35  1  0
 13 36  1  0
 13 37  1  0
 14 38  1  0
 14 39  1  0
 14 40  1  0
 15 41  1  0
 18 42  1  0
 19 43  1  0
 22 44  1  0
 23 45  1  0
M  END
$$$$
OCNT-2315937
     RDKit          3D

 41 44  0  0  0  0  0  0  0  0999 V2000
    5.9489    1.5306    2.4624 F   0  0  0  0  0  0  0  0  0  0  0  0
    5.5409    0.8964    1.3565 C   0  0  0  0  0  0  0  0  0  0  0  0
    6.4656    0.5316    0.3935 C   0  0  0  0  0  0  0  0  0  0  0  0
    6.0259   -0.1223   -0.7598 C   0  0  0  0  0  0  0  0  0  0  0  0
    4.6829   -0.4220   -0.9661 C   0  0  0  0  0  0  0  0  0  0  0  0
    4.3341   -1.0389   -2.0965 N   0  0  0  0  0  0  0  0  0  0  0  0
    3.0320   -1.2948   -2.2595 C   0  0  0  0  0  0  0  0  0  0  0  0
    2.0524   -1.0074   -1.3957 N   0  0  0  0  0  0  0  0  0  0  0  0
    2.4113   -0.4034   -0.2507 C   0  0  0  0  0  0  0  0  0  0  0  0
    1.4161   -0.0900    0.7030 N   0  0  0  0  0  0  0  0  0  0  0  0
    0.0273   -0.4233    0.3450 C   0  0  0  0  0  0  0  0  0  0  0  0
   -0.5531    0.6424   -0.5920 C   0  0  0  0  0  0  0  0  0  0  0  0
   -2.0227    0.3574   -0.8883 C   0  0  0  0  0  0  0  0  0  0  0  0
   -2.7770    0.2727    0.3732 N   0  0  0  0  0  0  0  0  0  0  0  0
   -4.1701    0.1445    0.1433 C   0  0  0  0  0  0  0  0  0  0  0  0
   -4.8666    1.1968   -0.4469 C   0  0  0  0  0  0  0  0  0  0  0  0
   -6.2366    1.0894   -0.6674 C   0  0  0  0  0  0  0  0  0  0  0  0
   -6.8668   -0.0728   -0.2819 C   0  0  0  0  0  0  0  0  0  0  0  0
   -6.2011   -1.0856    0.2970 N   0  0  0  0  0  0  0  0  0  0  0  0
   -4.8486   -0.9657    0.5146 N   0  0  0  0  0  0  0  0  0  0  0  0
   -2.2763   -0.7603    1.2930 C   0  0  0  0  0  0  0  0  0  0  0  0
   -0.8137   -0.4798    1.6276 C   0  0  0  0  0  0  0  0  0  0  0  0
    3.7503   -0.0615    0.0201 C   0  0  0  0  0  0  0  0  0  0  0  0
    4.1942    0.6115    1.1848 C   0  0  0  0  0  0  0  0  0  0  0  0
    7.5170    0.7594    0.5362 H   0  0  0  0  0  0  0  0  0  0  0  0
    6.7505   -0.4032   -1.5216 H   0  0  0  0  0  0  0  0  0  0  0  0
    2.7420   -1.7860   -3.1821 H   0  0  0  0  0  0  0  0  0  0  0  0
    1.6912   -0.5183    1.5842 H   0  0  0  0  0  0  0  0  0  0  0  0
   -0.0242   -1.4150   -0.1246 H   0  0  0  0  0  0  0  0  0  0  0  0
    0.0010    0.6830   -1.5362 H   0  0  0  0  0  0  0  0  0  0  0  0
   -0.4562    1.6351   -0.1318 H   0  0  0  0  0  0  0  0  0  0  0  0
   -2.1156   -0.5796   -1.4538 H   0  0  0  0  0  0  0  0  0  0  0  0
   -2.3963    1.1666   -1.5266 H   0  0  0  0  0  0  0  0  0  0  0  0
   -4.3505    2.1130   -0.7130 H   0  0  0  0  0  0  0  0  0  0  0  0
   -6.7935    1.9007   -1.1209 H   0  0  0  0  0  0  0  0  0  0  0  0
   -7.9301   -0.2268   -0.4205 H   0  0  0  0  0  0  0  0  0  0  0  0
   -2.3650   -1.7613    0.8496 H   0  0  0  0  0  0  0  0  0  0  0  0
   -2.8470   -0.7490    2.2304 H   0  0  0  0  0  0  0  0  0  0  0  0
   -0.4338   -1.2622    2.2958 H   0  0  0  0  0  0  0  0  0  0  0  0
   -0.7323    0.4694    2.1740 H   0  0  0  0  0  0  0  0  0  0  0  0
    3.4936    0.9286    1.9515 H   0  0  0  0  0  0  0  0  0  0  0  0
  1  2  1  0
  2  3  1  0
  3  4  2  0
  4  5  1  0
  5  6  2  0
  6  7  1  0
  7  8  2  0
  8  9  1  0
  9 10  1  0
 10 11  1  0
 11 12  1  0
 12 13  1  0
 13 14  1  0
 14 15  1  0
 15 16  2  0
 16 17  1  0
 17 18  2  0
 18 19  1  0
 19 20  2  0
 14 21  1  0
 21 22  1  0
  9 23  2  0
 23 24  1  0
 24  2  2  0
 23  5  1  0
 22 11  1  0
 20 15  1  0
  3 25  1  0
  4 26  1  0
  7 27  1  0
 10 28  1  0
 11 29  1  0
 12 30  1  0
 12 31  1  0
 13 32  1  0
 13 33  1  0
 16 34  1  0
 17 35  1  0
 18 36  1  0
 21 37  1  0
 21 38  1  0
 22 39  1  0
 22 40  1  0
 24 41  1  0
M  END
$$$$
OCNT-2315944
     RDKit          3D

 46 50  0  0  0  0  0  0  0  0999 V2000
    0.9753   -1.8417    2.0146 O   0  0  0  0  0  0  0  0  0  0  0  0
    0.8016   -0.9256    1.2158 C   0  0  0  0  0  0  0  0  0  0  0  0
    1.7528   -0.5183    0.3154 O   0  0  0  0  0  0  0  0  0  0  0  0
    2.9862   -1.2361    0.3594 C   0  0  0  0  0  0  0  0  0  0  0  0
    4.0268   -0.4788   -0.4617 C   0  0  0  0  0  0  0  0  0  0  0  0
    5.0631   -1.5462   -0.7723 C   0  0  0  0  0  0  0  0  0  0  0  0
    4.1976   -2.7625   -1.0985 C   0  0  0  0  0  0  0  0  0  0  0  0
    4.0540   -3.0747   -2.6054 C   0  0  0  0  0  0  0  0  0  0  0  0
    5.0373   -4.1358   -2.5050 O   0  0  0  0  0  0  0  0  0  0  0  0
    4.9061   -4.1305   -1.0611 C   0  0  0  0  0  0  0  0  0  0  0  0
    2.8830   -2.6051   -0.3311 C   0  0  0  0  0  0  0  0  0  0  0  0
   -0.4496   -0.1473    1.1152 C   0  0  0  0  0  0  0  0  0  0  0  0
   -0.6358    0.8605    0.2448 N   0  0  0  0  0  0  0  0  0  0  0  0
   -1.9296    1.2261    0.4569 N   0  0  0  0  0  0  0  0  0  0  0  0
   -2.5392    2.1805   -0.4120 C   0  0  0  0  0  0  0  0  0  0  0  0
   -3.9290    2.3572   -0.4739 C   0  0  0  0  0  0  0  0  0  0  0  0
   -4.4793    3.3035   -1.3456 C   0  0  0  0  0  0  0  0  0  0  0  0
   -3.6484    4.0617   -2.1607 C   0  0  0  0  0  0  0  0  0  0  0  0
   -4.1836    4.9640   -2.9926 F   0  0  0  0  0  0  0  0  0  0  0  0
   -2.2723    3.8873   -2.1309 C   0  0  0  0  0  0  0  0  0  0  0  0
   -1.7163    2.9437   -1.2635 C   0  0  0  0  0  0  0  0  0  0  0  0
   -2.4238    0.5211    1.5458 C   0  0  0  0  0  0  0  0  0  0  0  0
   -3.6412    0.7485    2.2643 C   0  0  0  0  0  0  0  0  0  0  0  0
   -4.0525    1.9166    2.8779 C   0  0  0  0  0  0  0  0  0  0  0  0
   -5.3223    1.7766    3.5127 C   0  0  0  0  0  0  0  0  0  0  0  0
   -5.8278    0.5031    3.3773 C   0  0  0  0  0  0  0  0  0  0  0  0
   -4.7733   -0.5157    2.4965 S   0  0  0  0  0  0  0  0  0  0  0  0
   -1.5375   -0.3761    1.9258 N   0  0  0  0  0  0  0  0  0  0  0  0
    3.3460   -1.3384    1.3920 H   0  0  0  0  0  0  0  0  0  0  0  0
    3.5808   -0.0830   -1.3828 H   0  0  0  0  0  0  0  0  0  0  0  0
    4.4485    0.3687    0.0875 H   0  0  0  0  0  0  0  0  0  0  0  0
    5.7295   -1.2508   -1.5883 H   0  0  0  0  0  0  0  0  0  0  0  0
    5.6754   -1.7371    0.1173 H   0  0  0  0  0  0  0  0  0  0  0  0
    4.3726   -2.2888   -3.2960 H   0  0  0  0  0  0  0  0  0  0  0  0
    3.0881   -3.4736   -2.9325 H   0  0  0  0  0  0  0  0  0  0  0  0
    4.3027   -4.9784   -0.7209 H   0  0  0  0  0  0  0  0  0  0  0  0
    5.8807   -4.1532   -0.5655 H   0  0  0  0  0  0  0  0  0  0  0  0
    2.7589   -3.3914    0.4216 H   0  0  0  0  0  0  0  0  0  0  0  0
    2.0129   -2.6493   -0.9960 H   0  0  0  0  0  0  0  0  0  0  0  0
   -4.6245    1.7565    0.1025 H   0  0  0  0  0  0  0  0  0  0  0  0
   -5.5549    3.4438   -1.4022 H   0  0  0  0  0  0  0  0  0  0  0  0
   -1.6394    4.4820   -2.7823 H   0  0  0  0  0  0  0  0  0  0  0  0
   -0.6334    2.8233   -1.2572 H   0  0  0  0  0  0  0  0  0  0  0  0
   -3.4728    2.8326    2.8802 H   0  0  0  0  0  0  0  0  0  0  0  0
   -5.8327    2.5663    4.0511 H   0  0  0  0  0  0  0  0  0  0  0  0
   -6.7606    0.1147    3.7633 H   0  0  0  0  0  0  0  0  0  0  0  0
  1  2  2  0
  2  3  1  0
  3  4  1  0
  4  5  1  0
  5  6  1  0
  6  7  1  0
  7  8  1  0
  8  9  1  0
  9 10  1  0
  7 11  1  0
  2 12  1  0
 12 13  2  0
 13 14  1  0
 14 15  1  0
 15 16  1  0
 16 17  2  0
 17 18  1  0
 18 19  1  0
 18 20  2  0
 20 21  1  0
 14 22  1  0
 22 23  1  0
 23 24  2  0
 24 25  1  0
 25 26  2  0
 26 27  1  0
 22 28  2  0
 11  4  1  0
 28 12  1  0
 10  7  1  0
 21 15  2  0
 27 23  1  0
  4 29  1  0
  5 30  1  0
  5 31  1  0
  6 32  1  0
  6 33  1  0
  8 34  1  0
  8 35  1  0
 10 36  1  0
 10 37  1  0
 11 38  1  0
 11 39  1  0
 16 40  1  0
 17 41  1  0
 20 42  1  0
 21 43  1  0
 24 44  1  0
 25 45  1  0
 26 46  1  0
M  END
$$$$
OCNT-2315946
     RDKit          3D

 41 44  0  0  0  0  0  0  0  0999 V2000
   -3.6468    2.7404   -0.1423 C   0  0  0  0  0  0  0  0  0  0  0  0
   -2.3303    2.8125    0.3178 C   0  0  0  0  0  0  0  0  0  0  0  0
   -1.5870    1.6491    0.5838 C   0  0  0  0  0  0  0  0  0  0  0  0
   -0.1951    1.6976    1.0774 C   0  0  0  0  0  0  0  0  0  0  0  0
    0.3176    2.7420    1.8462 C   0  0  0  0  0  0  0  0  0  0  0  0
    1.5952    2.7833    2.2939 N   0  0  0  0  0  0  0  0  0  0  0  0
    2.3486    1.7138    1.9460 C   0  0  0  0  0  0  0  0  0  0  0  0
    1.8735    0.6566    1.1717 C   0  0  0  0  0  0  0  0  0  0  0  0
    2.6569   -0.4432    0.8181 N   0  0  0  0  0  0  0  0  0  0  0  0
    3.8323   -0.1214   -0.0102 C   0  0  0  0  0  0  0  0  0  0  0  0
    4.7275   -1.3603   -0.0824 C   0  0  0  0  0  0  0  0  0  0  0  0
    4.3257   -2.0798   -1.3688 C   0  0  0  0  0  0  0  0  0  0  0  0
    3.2448   -1.2927   -1.9628 N   0  0  0  0  0  0  0  0  0  0  0  0
    3.4487    0.0793   -1.4831 C   0  0  0  0  0  0  0  0  0  0  0  0
    0.5954    0.6391    0.7453 N   0  0  0  0  0  0  0  0  0  0  0  0
   -2.2192    0.4079    0.3517 C   0  0  0  0  0  0  0  0  0  0  0  0
   -3.5415    0.3141   -0.1144 C   0  0  0  0  0  0  0  0  0  0  0  0
   -4.1765   -0.9895   -0.3485 C   0  0  0  0  0  0  0  0  0  0  0  0
   -5.4887   -1.0954   -0.6271 N   0  0  0  0  0  0  0  0  0  0  0  0
   -5.7045   -2.4098   -0.7729 N   0  0  0  0  0  0  0  0  0  0  0  0
   -4.5886   -3.1681   -0.6072 C   0  0  0  0  0  0  0  0  0  0  0  0
   -3.5769   -2.2813   -0.3315 C   0  0  0  0  0  0  0  0  0  0  0  0
   -4.2469    1.5000   -0.3529 C   0  0  0  0  0  0  0  0  0  0  0  0
   -4.2058    3.6508   -0.3436 H   0  0  0  0  0  0  0  0  0  0  0  0
   -1.8919    3.7994    0.4468 H   0  0  0  0  0  0  0  0  0  0  0  0
   -0.2927    3.5858    2.1485 H   0  0  0  0  0  0  0  0  0  0  0  0
    3.3639    1.7181    2.3257 H   0  0  0  0  0  0  0  0  0  0  0  0
    2.0304   -1.0440    0.2724 H   0  0  0  0  0  0  0  0  0  0  0  0
    4.3929    0.7287    0.3934 H   0  0  0  0  0  0  0  0  0  0  0  0
    5.7781   -1.0536   -0.1549 H   0  0  0  0  0  0  0  0  0  0  0  0
    4.6270   -2.0082    0.7952 H   0  0  0  0  0  0  0  0  0  0  0  0
    3.9867   -3.1006   -1.1681 H   0  0  0  0  0  0  0  0  0  0  0  0
    5.1808   -2.1355   -2.0521 H   0  0  0  0  0  0  0  0  0  0  0  0
    3.2737   -1.3338   -2.9802 H   0  0  0  0  0  0  0  0  0  0  0  0
    4.2716    0.5508   -2.0338 H   0  0  0  0  0  0  0  0  0  0  0  0
    2.5463    0.6816   -1.6204 H   0  0  0  0  0  0  0  0  0  0  0  0
   -1.6535   -0.5003    0.5532 H   0  0  0  0  0  0  0  0  0  0  0  0
   -6.6464   -2.7190   -0.9883 H   0  0  0  0  0  0  0  0  0  0  0  0
   -4.6097   -4.2441   -0.6989 H   0  0  0  0  0  0  0  0  0  0  0  0
   -2.5421   -2.5326   -0.1474 H   0  0  0  0  0  0  0  0  0  0  0  0
   -5.2733    1.4623   -0.7136 H   0  0  0  0  0  0  0  0  0  0  0  0
  1  2  2  0
  2  3  1  0
  3  4  1  0
  4  5  1  0
  5  6  2  0
  6  7  1  0
  7  8  2  0
  8  9  1  0
  9 10  1  0
 10 11  1  0
 11 12  1  0
 12 13  1  0
 13 14  1  0
  8 15  1  0
  3 16  2  0
 16 17  1  0
 17 18  1  0
 18 19  2  0
 19 20  1  0
 20 21  1  0
 21 22  2  0
 17 23  2  0
 23  1  1  0
 15  4  2  0
 22 18  1  0
 14 10  1  0
  1 24  1  0
  2 25  1  0
  5 26  1  0
  7 27  1  0
  9 28  1  0
 10 29  1  0
 11 30  1  0
 11 31  1  0
 12 32  1  0
 12 33  1  0
 13 34  1  0
 14 35  1  0
 14 36  1  0
 16 37  1  0
 20 38  1  0
 21 39  1  0
 22 40  1  0
 23 41  1  0
M  END
$$$$
OCNT-2315948
     RDKit          3D

 44 47  0  0  0  0  0  0  0  0999 V2000
   -5.4570    2.8158    0.2723 C   0  0  0  0  0  0  0  0  0  0  0  0
   -5.8779    1.4289    0.5783 C   0  0  0  0  0  0  0  0  0  0  0  0
   -7.1253    1.1851    1.0002 N   0  0  0  0  0  0  0  0  0  0  0  0
   -7.1975   -0.1804    1.1907 O   0  0  0  0  0  0  0  0  0  0  0  0
   -5.9998   -0.7539    0.8865 C   0  0  0  0  0  0  0  0  0  0  0  0
   -5.9427   -2.2191    1.0467 C   0  0  0  0  0  0  0  0  0  0  0  0
   -5.1241    0.2315    0.4926 C   0  0  0  0  0  0  0  0  0  0  0  0
   -3.6341    0.0909    0.0469 C   0  0  0  0  0  0  0  0  0  0  0  0
   -2.9337    1.1496   -0.3027 N   0  0  0  0  0  0  0  0  0  0  0  0
   -1.6486    0.7865   -0.6762 C   0  0  0  0  0  0  0  0  0  0  0  0
   -0.7527    1.8620   -1.1818 C   0  0  0  0  0  0  0  0  0  0  0  0
   -1.3710   -0.5654   -0.5472 C   0  0  0  0  0  0  0  0  0  0  0  0
   -0.1558   -1.3226   -0.7971 C   0  0  0  0  0  0  0  0  0  0  0  0
   -0.1764   -2.4362   -1.3104 O   0  0  0  0  0  0  0  0  0  0  0  0
    0.9927   -0.6749   -0.3657 N   0  0  0  0  0  0  0  0  0  0  0  0
    2.3315   -1.1010   -0.5023 C   0  0  0  0  0  0  0  0  0  0  0  0
    2.7216   -2.2402   -1.2057 C   0  0  0  0  0  0  0  0  0  0  0  0
    4.0714   -2.5888   -1.2926 C   0  0  0  0  0  0  0  0  0  0  0  0
    5.0443   -1.7992   -0.6800 C   0  0  0  0  0  0  0  0  0  0  0  0
    4.6785   -0.6469    0.0234 C   0  0  0  0  0  0  0  0  0  0  0  0
    5.6966    0.1693    0.6621 C   0  0  0  0  0  0  0  0  0  0  0  0
    5.6331    1.5360    0.8375 C   0  0  0  0  0  0  0  0  0  0  0  0
    6.7955    1.8999    1.4555 N   0  0  0  0  0  0  0  0  0  0  0  0
    7.6170    0.8676    1.6994 N   0  0  0  0  0  0  0  0  0  0  0  0
    6.9514   -0.1833    1.2133 C   0  0  0  0  0  0  0  0  0  0  0  0
    3.3180   -0.3082    0.1056 C   0  0  0  0  0  0  0  0  0  0  0  0
   -2.7838   -1.3921   -0.0326 S   0  0  0  0  0  0  0  0  0  0  0  0
   -4.6207    3.1138    0.9126 H   0  0  0  0  0  0  0  0  0  0  0  0
   -5.1444    2.9007   -0.7733 H   0  0  0  0  0  0  0  0  0  0  0  0
   -6.2721    3.5289    0.4353 H   0  0  0  0  0  0  0  0  0  0  0  0
   -5.1836   -2.4983    1.7834 H   0  0  0  0  0  0  0  0  0  0  0  0
   -5.7065   -2.7035    0.0946 H   0  0  0  0  0  0  0  0  0  0  0  0
   -6.9019   -2.6187    1.3922 H   0  0  0  0  0  0  0  0  0  0  0  0
   -0.1242    1.5002   -2.0013 H   0  0  0  0  0  0  0  0  0  0  0  0
   -1.3386    2.7060   -1.5602 H   0  0  0  0  0  0  0  0  0  0  0  0
   -0.1084    2.2297   -0.3775 H   0  0  0  0  0  0  0  0  0  0  0  0
    0.8566    0.1674    0.1763 H   0  0  0  0  0  0  0  0  0  0  0  0
    2.0032   -2.8837   -1.7041 H   0  0  0  0  0  0  0  0  0  0  0  0
    4.3628   -3.4800   -1.8437 H   0  0  0  0  0  0  0  0  0  0  0  0
    6.0879   -2.0906   -0.7734 H   0  0  0  0  0  0  0  0  0  0  0  0
    4.8925    2.2763    0.5726 H   0  0  0  0  0  0  0  0  0  0  0  0
    7.0952    2.8284    1.7349 H   0  0  0  0  0  0  0  0  0  0  0  0
    7.4048   -1.1637    1.2850 H   0  0  0  0  0  0  0  0  0  0  0  0
    3.0266    0.5758    0.6667 H   0  0  0  0  0  0  0  0  0  0  0  0
  1  2  1  0
  2  3  2  0
  3  4  1  0
  4  5  1  0
  5  6  1  0
  5  7  2  0
  7  8  1  0
  8  9  2  0
  9 10  1  0
 10 11  1  0
 10 12  2  0
 12 13  1  0
 13 14  2  0
 13 15  1  0
 15 16  1  0
 16 17  2  0
 17 18  1  0
 18 19  2  0
 19 20  1  0
 20 21  1  0
 21 22  2  0
 22 23  1  0
 23 24  1  0
 24 25  2  0
 20 26  2  0
 12 27  1  0
  7  2  1  0
 27  8  1  0
 26 16  1  0
 25 21  1  0
  1 28  1  0
  1 29  1  0
  1 30  1  0
  6 31  1  0
  6 32  1  0
  6 33  1  0
 11 34  1  0
 11 35  1  0
 11 36  1  0
 15 37  1  0
 17 38  1  0
 18 39  1  0
 19 40  1  0
 22 41  1  0
 23 42  1  0
 25 43  1  0
 26 44  1  0
M  END
$$$$
OCNT-2315950
     RDKit          3D

 41 44  0  0  0  0  0  0  0  0999 V2000
   -4.2720    1.2379    1.0690 C   0  0  0  0  0  0  0  0  0  0  0  0
   -3.0401    0.7468    0.4551 N   0  0  0  0  0  0  0  0  0  0  0  0
   -1.8063    1.3557    0.9517 C   0  0  0  0  0  0  0  0  0  0  0  0
   -0.6514    1.0209    0.0199 C   0  0  0  0  0  0  0  0  0  0  0  0
   -0.4348   -0.4288   -0.0788 N   0  0  0  0  0  0  0  0  0  0  0  0
    0.8641   -0.9639   -0.1068 C   0  0  0  0  0  0  0  0  0  0  0  0
    1.1449   -2.1070    0.2418 O   0  0  0  0  0  0  0  0  0  0  0  0
    1.9076   -0.0769   -0.5647 C   0  0  0  0  0  0  0  0  0  0  0  0
    3.0468    0.3616    0.0685 C   0  0  0  0  0  0  0  0  0  0  0  0
    3.4451    0.0287    1.3609 C   0  0  0  0  0  0  0  0  0  0  0  0
    4.6449    0.6825    1.7088 C   0  0  0  0  0  0  0  0  0  0  0  0
    5.3417    1.5743    0.8339 C   0  0  0  0  0  0  0  0  0  0  0  0
    6.9450    2.3740    1.4691 Br  0  0  0  0  0  0  0  0  0  0  0  0
    4.9144    1.8989   -0.4699 C   0  0  0  0  0  0  0  0  0  0  0  0
    3.7240    1.2542   -0.8394 C   0  0  0  0  0  0  0  0  0  0  0  0
    3.0301    1.3257   -1.9857 N   0  0  0  0  0  0  0  0  0  0  0  0
    2.0014    0.4652   -1.8236 N   0  0  0  0  0  0  0  0  0  0  0  0
    1.1487    0.1984   -2.9610 C   0  0  0  0  0  0  0  0  0  0  0  0
   -1.6350   -1.2357   -0.0840 C   0  0  0  0  0  0  0  0  0  0  0  0
   -1.5761   -2.6105   -0.3899 C   0  0  0  0  0  0  0  0  0  0  0  0
   -2.7284   -3.3931   -0.4502 C   0  0  0  0  0  0  0  0  0  0  0  0
   -3.9561   -2.8047   -0.2234 C   0  0  0  0  0  0  0  0  0  0  0  0
   -5.0688   -3.5470   -0.2965 F   0  0  0  0  0  0  0  0  0  0  0  0
   -4.0558   -1.4500    0.0699 C   0  0  0  0  0  0  0  0  0  0  0  0
   -2.9122   -0.6321    0.1664 C   0  0  0  0  0  0  0  0  0  0  0  0
   -4.4766    0.7257    2.0157 H   0  0  0  0  0  0  0  0  0  0  0  0
   -4.1963    2.3107    1.2804 H   0  0  0  0  0  0  0  0  0  0  0  0
   -5.1257    1.1214    0.3933 H   0  0  0  0  0  0  0  0  0  0  0  0
   -1.9176    2.4457    0.9927 H   0  0  0  0  0  0  0  0  0  0  0  0
   -1.5976    1.0068    1.9716 H   0  0  0  0  0  0  0  0  0  0  0  0
    0.2454    1.5218    0.3972 H   0  0  0  0  0  0  0  0  0  0  0  0
   -0.8497    1.3945   -0.9918 H   0  0  0  0  0  0  0  0  0  0  0  0
    2.9266   -0.6499    2.0257 H   0  0  0  0  0  0  0  0  0  0  0  0
    5.0582    0.4902    2.6997 H   0  0  0  0  0  0  0  0  0  0  0  0
    5.4410    2.5720   -1.1307 H   0  0  0  0  0  0  0  0  0  0  0  0
    1.7758    0.1017   -3.8515 H   0  0  0  0  0  0  0  0  0  0  0  0
    0.6004   -0.7329   -2.8057 H   0  0  0  0  0  0  0  0  0  0  0  0
    0.4580    1.0372   -3.0728 H   0  0  0  0  0  0  0  0  0  0  0  0
   -0.6397   -3.1112   -0.6146 H   0  0  0  0  0  0  0  0  0  0  0  0
   -2.6686   -4.4506   -0.6859 H   0  0  0  0  0  0  0  0  0  0  0  0
   -5.0553   -1.0581    0.2175 H   0  0  0  0  0  0  0  0  0  0  0  0
  1  2  1  0
  2  3  1  0
  3  4  1  0
  4  5  1  0
  5  6  1  0
  6  7  2  0
  6  8  1  0
  8  9  2  0
  9 10  1  0
 10 11  2  0
 11 12  1  0
 12 13  1  0
 12 14  2  0
 14 15  1  0
 15 16  2  0
 16 17  1  0
 17 18  1  0
  5 19  1  0
 19 20  1  0
 20 21  2  0
 21 22  1  0
 22 23  1  0
 22 24  2  0
 24 25  1  0
 25  2  1  0
 17  8  1  0
 25 19  2  0
 15  9  1  0
  1 26  1  0
  1 27  1  0
  1 28  1  0
  3 29  1  0
  3 30  1  0
  4 31  1  0
  4 32  1  0
 10 33  1  0
 11 34  1  0
 14 35  1  0
 18 36  1  0
 18 37  1  0
 18 38  1  0
 20 39  1  0
 21 40  1  0
 24 41  1  0
M  END
$$$$
OCNT-2315960
     RDKit          3D

 48 50  0  0  0  0  0  0  0  0999 V2000
    7.0622   -2.7181    0.6052 C   0  0  0  0  0  0  0  0  0  0  0  0
    6.4478   -1.7542   -0.2388 O   0  0  0  0  0  0  0  0  0  0  0  0
    5.4218   -1.0199    0.2912 C   0  0  0  0  0  0  0  0  0  0  0  0
    4.8895   -1.1736    1.5728 C   0  0  0  0  0  0  0  0  0  0  0  0
    3.8318   -0.3600    2.0017 C   0  0  0  0  0  0  0  0  0  0  0  0
    3.2940    0.6240    1.1597 C   0  0  0  0  0  0  0  0  0  0  0  0
    2.1408    1.4840    1.6116 C   0  0  0  0  0  0  0  0  0  0  0  0
    0.8843    0.9841    1.0936 N   0  0  0  0  0  0  0  0  0  0  0  0
    0.3316    1.5260   -0.0387 C   0  0  0  0  0  0  0  0  0  0  0  0
    0.8447    2.4705   -0.6318 O   0  0  0  0  0  0  0  0  0  0  0  0
   -0.8658    0.9319   -0.4486 N   0  0  0  0  0  0  0  0  0  0  0  0
   -1.5047    1.5557   -1.6045 C   0  0  0  0  0  0  0  0  0  0  0  0
   -2.5212    0.6778   -2.3335 C   0  0  0  0  0  0  0  0  0  0  0  0
   -2.8316   -0.6418   -1.6249 C   0  0  0  0  0  0  0  0  0  0  0  0
   -4.0210   -1.3460   -2.2795 C   0  0  0  0  0  0  0  0  0  0  0  0
   -2.9867   -0.4462   -0.1043 C   0  0  0  0  0  0  0  0  0  0  0  0
   -4.2186    0.2227    0.3012 N   0  0  0  0  0  0  0  0  0  0  0  0
   -5.3536   -0.4191    0.7300 C   0  0  0  0  0  0  0  0  0  0  0  0
   -6.2457    0.5828    1.0277 C   0  0  0  0  0  0  0  0  0  0  0  0
   -5.6821    1.8097    0.8092 N   0  0  0  0  0  0  0  0  0  0  0  0
   -4.4642    1.5636    0.3817 C   0  0  0  0  0  0  0  0  0  0  0  0
   -1.7160    0.1905    0.4965 C   0  0  0  0  0  0  0  0  0  0  0  0
    3.8257    0.7708   -0.1269 C   0  0  0  0  0  0  0  0  0  0  0  0
    4.8753   -0.0434   -0.5471 C   0  0  0  0  0  0  0  0  0  0  0  0
    5.3593    0.1257   -1.7875 F   0  0  0  0  0  0  0  0  0  0  0  0
    7.5058   -2.2458    1.4880 H   0  0  0  0  0  0  0  0  0  0  0  0
    6.3523   -3.5015    0.8904 H   0  0  0  0  0  0  0  0  0  0  0  0
    7.8703   -3.1918    0.0397 H   0  0  0  0  0  0  0  0  0  0  0  0
    5.2721   -1.9173    2.2642 H   0  0  0  0  0  0  0  0  0  0  0  0
    3.4335   -0.5007    3.0051 H   0  0  0  0  0  0  0  0  0  0  0  0
    2.3044    2.5276    1.3202 H   0  0  0  0  0  0  0  0  0  0  0  0
    2.0629    1.4640    2.7045 H   0  0  0  0  0  0  0  0  0  0  0  0
    0.7515   -0.0071    1.2026 H   0  0  0  0  0  0  0  0  0  0  0  0
   -0.7368    1.8686   -2.3229 H   0  0  0  0  0  0  0  0  0  0  0  0
   -1.9806    2.4795   -1.2561 H   0  0  0  0  0  0  0  0  0  0  0  0
   -2.1440    0.4570   -3.3408 H   0  0  0  0  0  0  0  0  0  0  0  0
   -3.4383    1.2597   -2.4912 H   0  0  0  0  0  0  0  0  0  0  0  0
   -1.9628   -1.3003   -1.7725 H   0  0  0  0  0  0  0  0  0  0  0  0
   -3.8011   -1.5725   -3.3285 H   0  0  0  0  0  0  0  0  0  0  0  0
   -4.9242   -0.7278   -2.2586 H   0  0  0  0  0  0  0  0  0  0  0  0
   -4.2394   -2.2923   -1.7738 H   0  0  0  0  0  0  0  0  0  0  0  0
   -3.0686   -1.4450    0.3499 H   0  0  0  0  0  0  0  0  0  0  0  0
   -5.4366   -1.4958    0.7785 H   0  0  0  0  0  0  0  0  0  0  0  0
   -7.2607    0.4852    1.3905 H   0  0  0  0  0  0  0  0  0  0  0  0
   -3.7386    2.3247    0.1314 H   0  0  0  0  0  0  0  0  0  0  0  0
   -1.1070   -0.6289    0.8959 H   0  0  0  0  0  0  0  0  0  0  0  0
   -1.9396    0.8486    1.3449 H   0  0  0  0  0  0  0  0  0  0  0  0
    3.4282    1.5145   -0.8140 H   0  0  0  0  0  0  0  0  0  0  0  0
  1  2  1  0
  2  3  1  0
  3  4  1  0
  4  5  2  0
  5  6  1  0
  6  7  1  0
  7  8  1  0
  8  9  1  0
  9 10  2  0
  9 11  1  0
 11 12  1  0
 12 13  1  0
 13 14  1  0
 14 15  1  0
 14 16  1  0
 16 17  1  0
 17 18  1  0
 18 19  2  0
 19 20  1  0
 20 21  2  0
 16 22  1  0
  6 23  2  0
 23 24  1  0
 24 25  1  0
 24  3  2  0
 22 11  1  0
 21 17  1  0
  1 26  1  0
  1 27  1  0
  1 28  1  0
  4 29  1  0
  5 30  1  0
  7 31  1  0
  7 32  1  0
  8 33  1  0
 12 34  1  0
 12 35  1  0
 13 36  1  0
 13 37  1  0
 14 38  1  0
 15 39  1  0
 15 40  1  0
 15 41  1  0
 16 42  1  0
 18 43  1  0
 19 44  1  0
 21 45  1  0
 22 46  1  0
 22 47  1  0
 23 48  1  0
M  END
$$$$
OCNT-2315966
     RDKit          3D

 47 50  0  0  0  0  0  0  0  0999 V2000
    7.1053    0.1130    0.1207 C   0  0  0  0  0  0  0  0  0  0  0  0
    6.3854   -0.2069    1.4232 C   0  0  0  0  0  0  0  0  0  0  0  0
    5.4283    0.9022    1.8740 C   0  0  0  0  0  0  0  0  0  0  0  0
    4.2698    1.1321    0.9278 C   0  0  0  0  0  0  0  0  0  0  0  0
    4.1494    2.2889    0.2552 C   0  0  0  0  0  0  0  0  0  0  0  0
    3.0025    2.4904   -0.6603 C   0  0  0  0  0  0  0  0  0  0  0  0
    2.8930    3.5527   -1.2649 O   0  0  0  0  0  0  0  0  0  0  0  0
    2.1526    1.4091   -0.7202 N   0  0  0  0  0  0  0  0  0  0  0  0
    1.0310    1.4054   -1.5139 N   0  0  0  0  0  0  0  0  0  0  0  0
    0.4058    0.2774   -1.3763 C   0  0  0  0  0  0  0  0  0  0  0  0
   -0.7423   -0.0229   -2.0460 N   0  0  0  0  0  0  0  0  0  0  0  0
   -1.7726   -0.9691   -1.6254 C   0  0  0  0  0  0  0  0  0  0  0  0
   -2.5974   -0.4678   -0.4167 C   0  0  0  0  0  0  0  0  0  0  0  0
   -3.5607   -1.5419    0.0766 C   0  0  0  0  0  0  0  0  0  0  0  0
   -3.2920   -2.2227    1.2765 C   0  0  0  0  0  0  0  0  0  0  0  0
   -4.1541   -3.2224    1.7349 C   0  0  0  0  0  0  0  0  0  0  0  0
   -5.2885   -3.5528    0.9977 C   0  0  0  0  0  0  0  0  0  0  0  0
   -6.3483   -4.7832    1.5647 Cl  0  0  0  0  0  0  0  0  0  0  0  0
   -5.5680   -2.8936   -0.1963 C   0  0  0  0  0  0  0  0  0  0  0  0
   -4.7069   -1.8949   -0.6572 C   0  0  0  0  0  0  0  0  0  0  0  0
   -3.3092    0.7892   -0.6752 N   0  0  0  0  0  0  0  0  0  0  0  0
   -3.6603    1.7261    0.2607 C   0  0  0  0  0  0  0  0  0  0  0  0
   -4.2722    2.7465   -0.4273 C   0  0  0  0  0  0  0  0  0  0  0  0
   -4.2381    2.3414   -1.7728 C   0  0  0  0  0  0  0  0  0  0  0  0
   -3.6494    1.1534   -1.9332 N   0  0  0  0  0  0  0  0  0  0  0  0
    1.1239   -0.8703   -0.2618 S   0  0  0  0  0  0  0  0  0  0  0  0
    2.3792    0.2863    0.0246 C   0  0  0  0  0  0  0  0  0  0  0  0
    3.3662    0.0951    0.8337 N   0  0  0  0  0  0  0  0  0  0  0  0
    6.4060    0.1825   -0.7181 H   0  0  0  0  0  0  0  0  0  0  0  0
    7.8275   -0.6759   -0.1125 H   0  0  0  0  0  0  0  0  0  0  0  0
    7.6505    1.0593    0.1962 H   0  0  0  0  0  0  0  0  0  0  0  0
    5.8464   -1.1556    1.3160 H   0  0  0  0  0  0  0  0  0  0  0  0
    7.1353   -0.3590    2.2087 H   0  0  0  0  0  0  0  0  0  0  0  0
    5.0231    0.6402    2.8600 H   0  0  0  0  0  0  0  0  0  0  0  0
    5.9983    1.8289    2.0196 H   0  0  0  0  0  0  0  0  0  0  0  0
    4.8552    3.1052    0.3347 H   0  0  0  0  0  0  0  0  0  0  0  0
   -1.1342    0.7829   -2.5378 H   0  0  0  0  0  0  0  0  0  0  0  0
   -1.3152   -1.9392   -1.3962 H   0  0  0  0  0  0  0  0  0  0  0  0
   -2.4259   -1.1569   -2.4869 H   0  0  0  0  0  0  0  0  0  0  0  0
   -1.9028   -0.2201    0.3974 H   0  0  0  0  0  0  0  0  0  0  0  0
   -2.4089   -1.9843    1.8672 H   0  0  0  0  0  0  0  0  0  0  0  0
   -3.9351   -3.7392    2.6660 H   0  0  0  0  0  0  0  0  0  0  0  0
   -6.4535   -3.1493   -0.7726 H   0  0  0  0  0  0  0  0  0  0  0  0
   -4.9457   -1.3886   -1.5927 H   0  0  0  0  0  0  0  0  0  0  0  0
   -3.4537    1.5872    1.3129 H   0  0  0  0  0  0  0  0  0  0  0  0
   -4.6837    3.6572   -0.0161 H   0  0  0  0  0  0  0  0  0  0  0  0
   -4.6160    2.8641   -2.6425 H   0  0  0  0  0  0  0  0  0  0  0  0
  1  2  1  0
  2  3  1  0
  3  4  1  0
  4  5  2  0
  5  6  1  0
  6  7  2  0
  6  8  1  0
  8  9  1  0
  9 10  2  0
 10 11  1  0
 11 12  1  0
 12 13  1  0
 13 14  1  0
 14 15  1  0
 15 16  2  0
 16 17  1  0
 17 18  1  0
 17 19  2  0
 19 20  1  0
 13 21  1  0
 21 22  1  0
 22 23  2  0
 23 24  1  0
 24 25  2  0
 10 26  1  0
 26 27  1  0
 27 28  2  0
 28  4  1  0
 27  8  1  0
 20 14  2  0
 25 21  1  0
  1 29  1  0
  1 30  1  0
  1 31  1  0
  2 32  1  0
  2 33  1  0
  3 34  1  0
  3 35  1  0
  5 36  1  0
 11 37  1  0
 12 38  1  0
 12 39  1  0
 13 40  1  0
 15 41  1  0
 16 42  1  0
 19 43  1  0
 20 44  1  0
 22 45  1  0
 23 46  1  0
 24 47  1  0
M  END
$$$$
OCNT-2315972
     RDKit          3D

 51 54  0  0  0  0  0  0  0  0999 V2000
   -9.0353    0.7331    2.8529 C   0  0  0  0  0  0  0  0  0  0  0  0
   -8.0080   -0.2391    2.7107 O   0  0  0  0  0  0  0  0  0  0  0  0
   -7.0027    0.0477    1.8295 C   0  0  0  0  0  0  0  0  0  0  0  0
   -6.8658    1.2244    1.0945 C   0  0  0  0  0  0  0  0  0  0  0  0
   -5.7814    1.3884    0.2215 C   0  0  0  0  0  0  0  0  0  0  0  0
   -4.8187    0.3799    0.0711 C   0  0  0  0  0  0  0  0  0  0  0  0
   -3.6885    0.5431   -0.8377 C   0  0  0  0  0  0  0  0  0  0  0  0
   -3.4700    1.6456   -1.5758 N   0  0  0  0  0  0  0  0  0  0  0  0
   -2.3067    1.3495   -2.2813 O   0  0  0  0  0  0  0  0  0  0  0  0
   -1.9289    0.0987   -1.8960 C   0  0  0  0  0  0  0  0  0  0  0  0
   -0.6900   -0.4418   -2.4973 C   0  0  0  0  0  0  0  0  0  0  0  0
    0.5388    0.0551   -1.7418 C   0  0  0  0  0  0  0  0  0  0  0  0
    1.8147   -0.5178   -2.3297 C   0  0  0  0  0  0  0  0  0  0  0  0
    1.7907   -1.1941   -3.3575 O   0  0  0  0  0  0  0  0  0  0  0  0
    2.9956   -0.2369   -1.6520 N   0  0  0  0  0  0  0  0  0  0  0  0
    3.0783    0.5945   -0.4487 C   0  0  0  0  0  0  0  0  0  0  0  0
    4.4762    1.1625   -0.2338 C   0  0  0  0  0  0  0  0  0  0  0  0
    5.5499    0.0626   -0.1674 C   0  0  0  0  0  0  0  0  0  0  0  0
    5.9120   -0.2863    1.2462 C   0  0  0  0  0  0  0  0  0  0  0  0
    5.1603   -0.8928    2.2319 C   0  0  0  0  0  0  0  0  0  0  0  0
    5.9833   -0.9656    3.3211 N   0  0  0  0  0  0  0  0  0  0  0  0
    7.1778   -0.4063    2.9722 C   0  0  0  0  0  0  0  0  0  0  0  0
    7.1648    0.0145    1.7296 N   0  0  0  0  0  0  0  0  0  0  0  0
    5.1725   -1.1840   -0.9859 C   0  0  0  0  0  0  0  0  0  0  0  0
    4.2406   -0.8341   -2.1378 C   0  0  0  0  0  0  0  0  0  0  0  0
   -2.7319   -0.4376   -1.0078 N   0  0  0  0  0  0  0  0  0  0  0  0
   -4.9640   -0.7978    0.8150 C   0  0  0  0  0  0  0  0  0  0  0  0
   -6.0463   -0.9589    1.6861 C   0  0  0  0  0  0  0  0  0  0  0  0
   -8.6384    1.6680    3.2616 H   0  0  0  0  0  0  0  0  0  0  0  0
   -9.7688    0.3429    3.5654 H   0  0  0  0  0  0  0  0  0  0  0  0
   -9.5523    0.9040    1.9029 H   0  0  0  0  0  0  0  0  0  0  0  0
   -7.5811    2.0360    1.1739 H   0  0  0  0  0  0  0  0  0  0  0  0
   -5.6994    2.3163   -0.3417 H   0  0  0  0  0  0  0  0  0  0  0  0
   -0.7290   -1.5376   -2.4753 H   0  0  0  0  0  0  0  0  0  0  0  0
   -0.6359   -0.1499   -3.5535 H   0  0  0  0  0  0  0  0  0  0  0  0
    0.4693   -0.2381   -0.6877 H   0  0  0  0  0  0  0  0  0  0  0  0
    0.5867    1.1487   -1.8007 H   0  0  0  0  0  0  0  0  0  0  0  0
    2.7776   -0.0310    0.3989 H   0  0  0  0  0  0  0  0  0  0  0  0
    2.3620    1.4183   -0.5189 H   0  0  0  0  0  0  0  0  0  0  0  0
    4.4923    1.7958    0.6609 H   0  0  0  0  0  0  0  0  0  0  0  0
    4.7092    1.8213   -1.0819 H   0  0  0  0  0  0  0  0  0  0  0  0
    6.4545    0.4893   -0.6244 H   0  0  0  0  0  0  0  0  0  0  0  0
    4.1502   -1.2744    2.2505 H   0  0  0  0  0  0  0  0  0  0  0  0
    5.7567   -1.3620    4.2232 H   0  0  0  0  0  0  0  0  0  0  0  0
    8.0115   -0.3359    3.6584 H   0  0  0  0  0  0  0  0  0  0  0  0
    6.0824   -1.6598   -1.3704 H   0  0  0  0  0  0  0  0  0  0  0  0
    4.6779   -1.9335   -0.3550 H   0  0  0  0  0  0  0  0  0  0  0  0
    4.7111   -0.1083   -2.8117 H   0  0  0  0  0  0  0  0  0  0  0  0
    4.0280   -1.7343   -2.7242 H   0  0  0  0  0  0  0  0  0  0  0  0
   -4.2370   -1.6021    0.7223 H   0  0  0  0  0  0  0  0  0  0  0  0
   -6.1446   -1.8800    2.2558 H   0  0  0  0  0  0  0  0  0  0  0  0
  1  2  1  0
  2  3  1  0
  3  4  1  0
  4  5  2  0
  5  6  1  0
  6  7  1  0
  7  8  2  0
  8  9  1  0
  9 10  1  0
 10 11  1  0
 11 12  1  0
 12 13  1  0
 13 14  2  0
 13 15  1  0
 15 16  1  0
 16 17  1  0
 17 18  1  0
 18 19  1  0
 19 20  2  0
 20 21  1  0
 21 22  1  0
 22 23  2  0
 18 24  1  0
 24 25  1  0
 10 26  2  0
  6 27  2  0
 27 28  1  0
 28  3  2  0
 26  7  1  0
 25 15  1  0
 23 19  1  0
  1 29  1  0
  1 30  1  0
  1 31  1  0
  4 32  1  0
  5 33  1  0
 11 34  1  0
 11 35  1  0
 12 36  1  0
 12 37  1  0
 16 38  1  0
 16 39  1  0
 17 40  1  0
 17 41  1  0
 18 42  1  0
 20 43  1  0
 21 44  1  0
 22 45  1  0
 24 46  1  0
 24 47  1  0
 25 48  1  0
 25 49  1  0
 27 50  1  0
 28 51  1  0
M  END
$$$$
OCNT-2315974
     RDKit          3D

 49 51  0  0  0  0  0  0  0  0999 V2000
   -3.7260   -1.2809   -2.9575 C   0  0  0  0  0  0  0  0  0  0  0  0
   -3.3011   -1.0810   -1.5071 C   0  0  0  0  0  0  0  0  0  0  0  0
   -3.2923    0.3234   -1.2156 O   0  0  0  0  0  0  0  0  0  0  0  0
   -4.2395    0.7453   -0.3173 C   0  0  0  0  0  0  0  0  0  0  0  0
   -5.5873    0.3927   -0.4304 C   0  0  0  0  0  0  0  0  0  0  0  0
   -6.5204    0.8812    0.4881 C   0  0  0  0  0  0  0  0  0  0  0  0
   -6.1159    1.7345    1.5137 C   0  0  0  0  0  0  0  0  0  0  0  0
   -4.7765    2.1083    1.6200 C   0  0  0  0  0  0  0  0  0  0  0  0
   -3.8429    1.6214    0.7026 C   0  0  0  0  0  0  0  0  0  0  0  0
   -2.1917    2.0994    0.8782 Cl  0  0  0  0  0  0  0  0  0  0  0  0
   -1.8852   -1.6513   -1.2905 C   0  0  0  0  0  0  0  0  0  0  0  0
   -1.4298   -2.5886   -1.9414 O   0  0  0  0  0  0  0  0  0  0  0  0
   -1.1986   -1.0635   -0.2429 N   0  0  0  0  0  0  0  0  0  0  0  0
    0.1902   -1.3992    0.0465 C   0  0  0  0  0  0  0  0  0  0  0  0
    1.1266   -0.7416   -0.9763 C   0  0  0  0  0  0  0  0  0  0  0  0
    2.5534   -0.6662   -0.4498 C   0  0  0  0  0  0  0  0  0  0  0  0
    2.6335    0.0853    0.8067 N   0  0  0  0  0  0  0  0  0  0  0  0
    3.7156    0.8879    1.1687 C   0  0  0  0  0  0  0  0  0  0  0  0
    3.6605    1.7397    2.0525 O   0  0  0  0  0  0  0  0  0  0  0  0
    5.0050    0.7166    0.4661 C   0  0  0  0  0  0  0  0  0  0  0  0
    5.6178   -0.5324    0.3881 C   0  0  0  0  0  0  0  0  0  0  0  0
    6.8339   -0.6069   -0.2640 C   0  0  0  0  0  0  0  0  0  0  0  0
    7.4554    0.4586   -0.8152 N   0  0  0  0  0  0  0  0  0  0  0  0
    6.8480    1.6599   -0.6922 C   0  0  0  0  0  0  0  0  0  0  0  0
    5.6335    1.8424   -0.0604 C   0  0  0  0  0  0  0  0  0  0  0  0
    1.4054    0.2119    1.5882 C   0  0  0  0  0  0  0  0  0  0  0  0
    0.5487   -1.0439    1.4964 C   0  0  0  0  0  0  0  0  0  0  0  0
   -3.7686   -2.3431   -3.2185 H   0  0  0  0  0  0  0  0  0  0  0  0
   -3.0209   -0.7912   -3.6391 H   0  0  0  0  0  0  0  0  0  0  0  0
   -4.7076   -0.8372   -3.1485 H   0  0  0  0  0  0  0  0  0  0  0  0
   -3.9600   -1.6468   -0.8351 H   0  0  0  0  0  0  0  0  0  0  0  0
   -5.9366   -0.2455   -1.2361 H   0  0  0  0  0  0  0  0  0  0  0  0
   -7.5682    0.6028    0.3965 H   0  0  0  0  0  0  0  0  0  0  0  0
   -6.8452    2.1155    2.2250 H   0  0  0  0  0  0  0  0  0  0  0  0
   -4.4675    2.7803    2.4166 H   0  0  0  0  0  0  0  0  0  0  0  0
   -1.5332   -0.1418    0.0282 H   0  0  0  0  0  0  0  0  0  0  0  0
    0.2766   -2.4890   -0.0573 H   0  0  0  0  0  0  0  0  0  0  0  0
    1.1043   -1.2999   -1.9196 H   0  0  0  0  0  0  0  0  0  0  0  0
    0.7756    0.2728   -1.2100 H   0  0  0  0  0  0  0  0  0  0  0  0
    2.9334   -1.6749   -0.2520 H   0  0  0  0  0  0  0  0  0  0  0  0
    3.1949   -0.2017   -1.2052 H   0  0  0  0  0  0  0  0  0  0  0  0
    5.1735   -1.4139    0.8341 H   0  0  0  0  0  0  0  0  0  0  0  0
    7.3630   -1.5509   -0.3603 H   0  0  0  0  0  0  0  0  0  0  0  0
    7.3856    2.4979   -1.1271 H   0  0  0  0  0  0  0  0  0  0  0  0
    5.1893    2.8279    0.0251 H   0  0  0  0  0  0  0  0  0  0  0  0
    1.6573    0.4123    2.6358 H   0  0  0  0  0  0  0  0  0  0  0  0
    0.8612    1.0855    1.2112 H   0  0  0  0  0  0  0  0  0  0  0  0
   -0.3493   -0.9343    2.1158 H   0  0  0  0  0  0  0  0  0  0  0  0
    1.1220   -1.8777    1.9238 H   0  0  0  0  0  0  0  0  0  0  0  0
  1  2  1  0
  2  3  1  0
  3  4  1  0
  4  5  2  0
  5  6  1  0
  6  7  2  0
  7  8  1  0
  8  9  2  0
  9 10  1  0
  2 11  1  0
 11 12  2  0
 11 13  1  0
 13 14  1  0
 14 15  1  0
 15 16  1  0
 16 17  1  0
 17 18  1  0
 18 19  2  0
 18 20  1  0
 20 21  2  0
 21 22  1  0
 22 23  2  0
 23 24  1  0
 24 25  2  0
 17 26  1  0
 26 27  1  0
  9  4  1  0
 27 14  1  0
 25 20  1  0
  1 28  1  0
  1 29  1  0
  1 30  1  0
  2 31  1  0
  5 32  1  0
  6 33  1  0
  7 34  1  0
  8 35  1  0
 13 36  1  0
 14 37  1  0
 15 38  1  0
 15 39  1  0
 16 40  1  0
 16 41  1  0
 21 42  1  0
 22 43  1  0
 24 44  1  0
 25 45  1  0
 26 46  1  0
 26 47  1  0
 27 48  1  0
 27 49  1  0
M  END
$$$$
OCNT-2315975
     RDKit          3D

 40 42  0  0  0  0  0  0  0  0999 V2000
    5.9996    0.6835   -1.9622 C   0  0  0  0  0  0  0  0  0  0  0  0
    4.5635   -0.1950   -2.5203 S   0  0  0  0  0  0  0  0  0  0  0  0
    3.9631    0.5666   -3.5995 O   0  0  0  0  0  0  0  0  0  0  0  0
    4.9293   -1.5862   -2.7076 O   0  0  0  0  0  0  0  0  0  0  0  0
    3.4694   -0.1088   -1.1239 C   0  0  0  0  0  0  0  0  0  0  0  0
    2.5203    0.9131   -1.0523 C   0  0  0  0  0  0  0  0  0  0  0  0
    1.6560    0.9698    0.0417 C   0  0  0  0  0  0  0  0  0  0  0  0
    1.7345    0.0108    1.0638 C   0  0  0  0  0  0  0  0  0  0  0  0
    0.7740    0.0594    2.2323 C   0  0  0  0  0  0  0  0  0  0  0  0
   -0.4426   -0.6989    1.9702 N   0  0  0  0  0  0  0  0  0  0  0  0
   -1.4322   -0.0462    1.2611 N   0  0  0  0  0  0  0  0  0  0  0  0
   -2.5090   -0.7088    0.9717 C   0  0  0  0  0  0  0  0  0  0  0  0
   -3.5881   -0.0286    0.2030 C   0  0  0  0  0  0  0  0  0  0  0  0
   -3.2228    0.8894   -0.7936 C   0  0  0  0  0  0  0  0  0  0  0  0
   -4.2059    1.5516   -1.5311 C   0  0  0  0  0  0  0  0  0  0  0  0
   -5.5467    1.3018   -1.2634 C   0  0  0  0  0  0  0  0  0  0  0  0
   -6.4903    1.9383   -1.9687 F   0  0  0  0  0  0  0  0  0  0  0  0
   -5.9246    0.4055   -0.2689 C   0  0  0  0  0  0  0  0  0  0  0  0
   -4.9448   -0.2612    0.4713 C   0  0  0  0  0  0  0  0  0  0  0  0
   -2.7346   -2.1247    1.3340 C   0  0  0  0  0  0  0  0  0  0  0  0
   -1.7640   -2.7349    2.0149 C   0  0  0  0  0  0  0  0  0  0  0  0
   -0.5238   -2.0212    2.3799 C   0  0  0  0  0  0  0  0  0  0  0  0
    0.3437   -2.6244    3.0072 O   0  0  0  0  0  0  0  0  0  0  0  0
    2.6781   -1.0236    0.9617 C   0  0  0  0  0  0  0  0  0  0  0  0
    3.5445   -1.0875   -0.1304 C   0  0  0  0  0  0  0  0  0  0  0  0
    6.4118    0.1762   -1.0880 H   0  0  0  0  0  0  0  0  0  0  0  0
    5.7179    1.7098   -1.7190 H   0  0  0  0  0  0  0  0  0  0  0  0
    6.7331    0.6823   -2.7715 H   0  0  0  0  0  0  0  0  0  0  0  0
    2.4362    1.6562   -1.8422 H   0  0  0  0  0  0  0  0  0  0  0  0
    0.9034    1.7551    0.0901 H   0  0  0  0  0  0  0  0  0  0  0  0
    1.2689   -0.3247    3.1324 H   0  0  0  0  0  0  0  0  0  0  0  0
    0.4972    1.0978    2.4537 H   0  0  0  0  0  0  0  0  0  0  0  0
   -2.1728    1.0860   -1.0020 H   0  0  0  0  0  0  0  0  0  0  0  0
   -3.9340    2.2593   -2.3080 H   0  0  0  0  0  0  0  0  0  0  0  0
   -6.9794    0.2394   -0.0718 H   0  0  0  0  0  0  0  0  0  0  0  0
   -5.2565   -0.9343    1.2650 H   0  0  0  0  0  0  0  0  0  0  0  0
   -3.6307   -2.6463    1.0297 H   0  0  0  0  0  0  0  0  0  0  0  0
   -1.8269   -3.7731    2.3135 H   0  0  0  0  0  0  0  0  0  0  0  0
    2.7274   -1.7956    1.7292 H   0  0  0  0  0  0  0  0  0  0  0  0
    4.2577   -1.9058   -0.2021 H   0  0  0  0  0  0  0  0  0  0  0  0
  1  2  1  0
  2  3  2  0
  2  4  2  0
  2  5  1  0
  5  6  1  0
  6  7  2  0
  7  8  1  0
  8  9  1  0
  9 10  1  0
 10 11  1  0
 11 12  2  0
 12 13  1  0
 13 14  1  0
 14 15  2  0
 15 16  1  0
 16 17  1  0
 16 18  2  0
 18 19  1  0
 12 20  1  0
 20 21  2  0
 21 22  1  0
 22 23  2  0
  8 24  2  0
 24 25  1  0
 25  5  2  0
 22 10  1  0
 19 13  2  0
  1 26  1  0
  1 27  1  0
  1 28  1  0
  6 29  1  0
  7 30  1  0
  9 31  1  0
  9 32  1  0
 14 33  1  0
 15 34  1  0
 18 35  1  0
 19 36  1  0
 20 37  1  0
 21 38  1  0
 24 39  1  0
 25 40  1  0
M  END
$$$$
OCNT-2315988
     RDKit          3D

 41 43  0  0  0  0  0  0  0  0999 V2000
    6.2266    0.1713    1.0154 C   0  0  0  0  0  0  0  0  0  0  0  0
    4.9522    0.2733    0.2327 C   0  0  0  0  0  0  0  0  0  0  0  0
    4.8923    1.0515   -0.9327 C   0  0  0  0  0  0  0  0  0  0  0  0
    3.7014    1.1646   -1.6646 C   0  0  0  0  0  0  0  0  0  0  0  0
    2.5451    0.4996   -1.2511 C   0  0  0  0  0  0  0  0  0  0  0  0
    2.5992   -0.2772   -0.1017 C   0  0  0  0  0  0  0  0  0  0  0  0
    3.7872   -0.3818    0.6314 C   0  0  0  0  0  0  0  0  0  0  0  0
    3.5386   -1.4126    2.0576 S   0  0  0  0  0  0  0  0  0  0  0  0
    1.8366   -1.6622    1.6497 C   0  0  0  0  0  0  0  0  0  0  0  0
    1.0768   -2.3311    2.3341 O   0  0  0  0  0  0  0  0  0  0  0  0
    1.5397   -1.0200    0.4601 N   0  0  0  0  0  0  0  0  0  0  0  0
    0.1875   -1.0199   -0.0593 C   0  0  0  0  0  0  0  0  0  0  0  0
   -0.6195    0.2069    0.3995 C   0  0  0  0  0  0  0  0  0  0  0  0
   -0.1017    1.1018    1.0717 O   0  0  0  0  0  0  0  0  0  0  0  0
   -1.9518    0.2885   -0.0324 N   0  0  0  0  0  0  0  0  0  0  0  0
   -2.7317    1.4333    0.4472 C   0  0  0  0  0  0  0  0  0  0  0  0
   -3.8165    1.8528   -0.5383 C   0  0  0  0  0  0  0  0  0  0  0  0
   -4.6921    0.6743   -0.9429 C   0  0  0  0  0  0  0  0  0  0  0  0
   -3.8281   -0.4597   -1.4844 C   0  0  0  0  0  0  0  0  0  0  0  0
   -2.7190   -0.8792   -0.5075 C   0  0  0  0  0  0  0  0  0  0  0  0
   -3.2720   -1.6957    0.6663 C   0  0  0  0  0  0  0  0  0  0  0  0
    6.5473   -0.8727    1.0897 H   0  0  0  0  0  0  0  0  0  0  0  0
    7.0368    0.7299    0.5347 H   0  0  0  0  0  0  0  0  0  0  0  0
    6.0909    0.5843    2.0201 H   0  0  0  0  0  0  0  0  0  0  0  0
    5.7744    1.5868   -1.2800 H   0  0  0  0  0  0  0  0  0  0  0  0
    3.6781    1.7830   -2.5594 H   0  0  0  0  0  0  0  0  0  0  0  0
    1.6340    0.6149   -1.8267 H   0  0  0  0  0  0  0  0  0  0  0  0
    0.2154   -1.0576   -1.1527 H   0  0  0  0  0  0  0  0  0  0  0  0
   -0.3129   -1.9225    0.3043 H   0  0  0  0  0  0  0  0  0  0  0  0
   -2.0759    2.2910    0.6327 H   0  0  0  0  0  0  0  0  0  0  0  0
   -3.1730    1.1536    1.4110 H   0  0  0  0  0  0  0  0  0  0  0  0
   -4.4339    2.6432   -0.0975 H   0  0  0  0  0  0  0  0  0  0  0  0
   -3.3460    2.2746   -1.4354 H   0  0  0  0  0  0  0  0  0  0  0  0
   -5.4083    0.9916   -1.7092 H   0  0  0  0  0  0  0  0  0  0  0  0
   -5.2775    0.3298   -0.0829 H   0  0  0  0  0  0  0  0  0  0  0  0
   -4.4581   -1.3192   -1.7412 H   0  0  0  0  0  0  0  0  0  0  0  0
   -3.3616   -0.1224   -2.4195 H   0  0  0  0  0  0  0  0  0  0  0  0
   -2.0451   -1.5365   -1.0660 H   0  0  0  0  0  0  0  0  0  0  0  0
   -3.9741   -1.1174    1.2749 H   0  0  0  0  0  0  0  0  0  0  0  0
   -3.7948   -2.5870    0.3041 H   0  0  0  0  0  0  0  0  0  0  0  0
   -2.4664   -2.0261    1.3301 H   0  0  0  0  0  0  0  0  0  0  0  0
  1  2  1  0
  2  3  2  0
  3  4  1  0
  4  5  2  0
  5  6  1  0
  6  7  2  0
  7  8  1  0
  8  9  1  0
  9 10  2  0
  9 11  1  0
 11 12  1  0
 12 13  1  0
 13 14  2  0
 13 15  1  0
 15 16  1  0
 16 17  1  0
 17 18  1  0
 18 19  1  0
 19 20  1  0
 20 21  1  0
  7  2  1  0
 20 15  1  0
 11  6  1  0
  1 22  1  0
  1 23  1  0
  1 24  1  0
  3 25  1  0
  4 26  1  0
  5 27  1  0
 12 28  1  0
 12 29  1  0
 16 30  1  0
 16 31  1  0
 17 32  1  0
 17 33  1  0
 18 34  1  0
 18 35  1  0
 19 36  1  0
 19 37  1  0
 20 38  1  0
 21 39  1  0
 21 40  1  0
 21 41  1  0
M  END
$$$$
OCNT-2315990
     RDKit          3D

 49 52  0  0  0  0  0  0  0  0999 V2000
   -0.7011    3.0594    0.2752 C   0  0  0  0  0  0  0  0  0  0  0  0
   -0.6633    1.5477    0.0276 C   0  0  0  0  0  0  0  0  0  0  0  0
    0.7014    1.0711   -0.1313 N   0  0  0  0  0  0  0  0  0  0  0  0
    1.5489    0.8999    0.9450 C   0  0  0  0  0  0  0  0  0  0  0  0
    1.1756    1.1517    2.0888 O   0  0  0  0  0  0  0  0  0  0  0  0
    2.8784    0.4169    0.6210 C   0  0  0  0  0  0  0  0  0  0  0  0
    3.4356    0.0081   -0.5727 C   0  0  0  0  0  0  0  0  0  0  0  0
    4.7551   -0.3944   -0.5185 N   0  0  0  0  0  0  0  0  0  0  0  0
    5.2181   -0.3106    0.7167 C   0  0  0  0  0  0  0  0  0  0  0  0
    6.5916   -0.6527    1.1304 C   0  0  0  0  0  0  0  0  0  0  0  0
    6.9578   -0.9737    2.4359 C   0  0  0  0  0  0  0  0  0  0  0  0
    8.2290   -1.2933    2.7978 N   0  0  0  0  0  0  0  0  0  0  0  0
    9.1322   -1.2863    1.7940 C   0  0  0  0  0  0  0  0  0  0  0  0
    8.7850   -0.9745    0.4921 C   0  0  0  0  0  0  0  0  0  0  0  0
    7.5207   -0.6537    0.1344 N   0  0  0  0  0  0  0  0  0  0  0  0
    4.0627    0.2765    1.8572 S   0  0  0  0  0  0  0  0  0  0  0  0
   -1.4783    1.1215   -1.1827 C   0  0  0  0  0  0  0  0  0  0  0  0
   -1.4034    1.8006   -2.4084 C   0  0  0  0  0  0  0  0  0  0  0  0
   -2.1497    1.3677   -3.5034 C   0  0  0  0  0  0  0  0  0  0  0  0
   -2.9687    0.2457   -3.3884 C   0  0  0  0  0  0  0  0  0  0  0  0
   -3.0439   -0.4602   -2.1867 C   0  0  0  0  0  0  0  0  0  0  0  0
   -3.8846   -1.5386   -2.2155 O   0  0  0  0  0  0  0  0  0  0  0  0
   -3.9083   -2.4131   -1.0816 C   0  0  0  0  0  0  0  0  0  0  0  0
   -4.7850   -1.9073    0.0434 C   0  0  0  0  0  0  0  0  0  0  0  0
   -6.0717   -1.4390   -0.2167 C   0  0  0  0  0  0  0  0  0  0  0  0
   -6.8514   -0.9879    0.8443 C   0  0  0  0  0  0  0  0  0  0  0  0
   -6.3325   -1.0192    2.1326 C   0  0  0  0  0  0  0  0  0  0  0  0
   -5.0485   -1.5051    2.3083 C   0  0  0  0  0  0  0  0  0  0  0  0
   -4.2680   -1.9514    1.2991 N   0  0  0  0  0  0  0  0  0  0  0  0
   -2.2977   -0.0207   -1.0911 C   0  0  0  0  0  0  0  0  0  0  0  0
   -0.1786    3.6178   -0.5092 H   0  0  0  0  0  0  0  0  0  0  0  0
   -0.2114    3.3119    1.2219 H   0  0  0  0  0  0  0  0  0  0  0  0
   -1.7328    3.4241    0.3251 H   0  0  0  0  0  0  0  0  0  0  0  0
   -1.0822    1.0688    0.9225 H   0  0  0  0  0  0  0  0  0  0  0  0
    1.0249    0.9070   -1.0720 H   0  0  0  0  0  0  0  0  0  0  0  0
    2.9355   -0.0266   -1.5324 H   0  0  0  0  0  0  0  0  0  0  0  0
    6.2436   -0.9998    3.2518 H   0  0  0  0  0  0  0  0  0  0  0  0
   10.1503   -1.5412    2.0652 H   0  0  0  0  0  0  0  0  0  0  0  0
    9.5180   -0.9739   -0.3068 H   0  0  0  0  0  0  0  0  0  0  0  0
   -0.7661    2.6737   -2.5253 H   0  0  0  0  0  0  0  0  0  0  0  0
   -2.0950    1.9034   -4.4476 H   0  0  0  0  0  0  0  0  0  0  0  0
   -3.5503   -0.0853   -4.2453 H   0  0  0  0  0  0  0  0  0  0  0  0
   -2.8931   -2.6482   -0.7383 H   0  0  0  0  0  0  0  0  0  0  0  0
   -4.3340   -3.3629   -1.4272 H   0  0  0  0  0  0  0  0  0  0  0  0
   -6.4575   -1.4161   -1.2312 H   0  0  0  0  0  0  0  0  0  0  0  0
   -7.8548   -0.6124    0.6652 H   0  0  0  0  0  0  0  0  0  0  0  0
   -6.9139   -0.6727    2.9796 H   0  0  0  0  0  0  0  0  0  0  0  0
   -4.5985   -1.5506    3.2962 H   0  0  0  0  0  0  0  0  0  0  0  0
   -2.3402   -0.5438   -0.1392 H   0  0  0  0  0  0  0  0  0  0  0  0
  1  2  1  0
  2  3  1  0
  3  4  1  0
  4  5  2  0
  4  6  1  0
  6  7  2  0
  7  8  1  0
  8  9  2  0
  9 10  1  0
 10 11  2  0
 11 12  1  0
 12 13  2  0
 13 14  1  0
 14 15  2  0
  9 16  1  0
  2 17  1  0
 17 18  2  0
 18 19  1  0
 19 20  2  0
 20 21  1  0
 21 22  1  0
 22 23  1  0
 23 24  1  0
 24 25  2  0
 25 26  1  0
 26 27  2  0
 27 28  1  0
 28 29  2  0
 21 30  2  0
 16  6  1  0
 30 17  1  0
 15 10  1  0
 29 24  1  0
  1 31  1  0
  1 32  1  0
  1 33  1  0
  2 34  1  0
  3 35  1  0
  7 36  1  0
 11 37  1  0
 13 38  1  0
 14 39  1  0
 18 40  1  0
 19 41  1  0
 20 42  1  0
 23 43  1  0
 23 44  1  0
 25 45  1  0
 26 46  1  0
 27 47  1  0
 28 48  1  0
 30 49  1  0
M  END
$$$$
OCNT-2315994
     RDKit          3D

 40 43  0  0  0  0  0  0  0  0999 V2000
    0.3677   -3.6254   -0.9527 O   0  0  0  0  0  0  0  0  0  0  0  0
    0.9742   -2.6880   -0.4464 C   0  0  0  0  0  0  0  0  0  0  0  0
    0.5902   -2.0583    0.7137 N   0  0  0  0  0  0  0  0  0  0  0  0
   -0.6498   -2.3526    1.3817 C   0  0  0  0  0  0  0  0  0  0  0  0
   -1.7213   -1.3758    0.9740 C   0  0  0  0  0  0  0  0  0  0  0  0
   -1.9642   -0.2189    1.7215 C   0  0  0  0  0  0  0  0  0  0  0  0
   -2.9449    0.6991    1.3224 C   0  0  0  0  0  0  0  0  0  0  0  0
   -3.7015    0.4824    0.1583 C   0  0  0  0  0  0  0  0  0  0  0  0
   -4.6968    1.4239   -0.2379 N   0  0  0  0  0  0  0  0  0  0  0  0
   -5.0378    2.5945    0.4143 C   0  0  0  0  0  0  0  0  0  0  0  0
   -6.0400    3.1758   -0.3245 C   0  0  0  0  0  0  0  0  0  0  0  0
   -6.3387    2.4144   -1.4123 N   0  0  0  0  0  0  0  0  0  0  0  0
   -5.5282    1.3799   -1.3388 C   0  0  0  0  0  0  0  0  0  0  0  0
   -3.4437   -0.6728   -0.5882 C   0  0  0  0  0  0  0  0  0  0  0  0
   -4.1111   -0.9572   -1.7137 F   0  0  0  0  0  0  0  0  0  0  0  0
   -2.4672   -1.5879   -0.1903 C   0  0  0  0  0  0  0  0  0  0  0  0
    2.1888   -2.1097   -1.0287 C   0  0  0  0  0  0  0  0  0  0  0  0
    2.7845   -2.5692   -2.1861 C   0  0  0  0  0  0  0  0  0  0  0  0
    4.1725   -1.6404   -2.5471 S   0  0  0  0  0  0  0  0  0  0  0  0
    3.9022   -0.6743   -1.1423 C   0  0  0  0  0  0  0  0  0  0  0  0
    4.8075    0.4327   -0.7977 C   0  0  0  0  0  0  0  0  0  0  0  0
    4.5837    1.2089    0.3356 C   0  0  0  0  0  0  0  0  0  0  0  0
    5.3863    2.2425    0.7004 N   0  0  0  0  0  0  0  0  0  0  0  0
    6.4336    2.4731   -0.1213 C   0  0  0  0  0  0  0  0  0  0  0  0
    6.6681    1.7090   -1.2515 C   0  0  0  0  0  0  0  0  0  0  0  0
    5.8678    0.6788   -1.6137 N   0  0  0  0  0  0  0  0  0  0  0  0
    2.8373   -1.0191   -0.4353 N   0  0  0  0  0  0  0  0  0  0  0  0
    1.1189   -1.2318    0.9698 H   0  0  0  0  0  0  0  0  0  0  0  0
   -0.9693   -3.3787    1.1670 H   0  0  0  0  0  0  0  0  0  0  0  0
   -0.4657   -2.2892    2.4598 H   0  0  0  0  0  0  0  0  0  0  0  0
   -1.3907   -0.0191    2.6254 H   0  0  0  0  0  0  0  0  0  0  0  0
   -3.0848    1.5742    1.9500 H   0  0  0  0  0  0  0  0  0  0  0  0
   -4.5671    2.9282    1.3250 H   0  0  0  0  0  0  0  0  0  0  0  0
   -6.5594    4.1044   -0.1250 H   0  0  0  0  0  0  0  0  0  0  0  0
   -5.5174    0.5814   -2.0660 H   0  0  0  0  0  0  0  0  0  0  0  0
   -2.2928   -2.4683   -0.8064 H   0  0  0  0  0  0  0  0  0  0  0  0
    2.4696   -3.3894   -2.8170 H   0  0  0  0  0  0  0  0  0  0  0  0
    3.7418    1.0224    0.9943 H   0  0  0  0  0  0  0  0  0  0  0  0
    7.0850    3.2949    0.1541 H   0  0  0  0  0  0  0  0  0  0  0  0
    7.5129    1.9055   -1.9023 H   0  0  0  0  0  0  0  0  0  0  0  0
  1  2  2  0
  2  3  1  0
  3  4  1  0
  4  5  1  0
  5  6  1  0
  6  7  2  0
  7  8  1  0
  8  9  1  0
  9 10  1  0
 10 11  2  0
 11 12  1  0
 12 13  2  0
  8 14  2  0
 14 15  1  0
 14 16  1  0
  2 17  1  0
 17 18  2  0
 18 19  1  0
 19 20  1  0
 20 21  1  0
 21 22  2  0
 22 23  1  0
 23 24  2  0
 24 25  1  0
 25 26  2  0
 20 27  2  0
 16  5  2  0
 27 17  1  0
 13  9  1  0
 26 21  1  0
  3 28  1  0
  4 29  1  0
  4 30  1  0
  6 31  1  0
  7 32  1  0
 10 33  1  0
 11 34  1  0
 13 35  1  0
 16 36  1  0
 18 37  1  0
 22 38  1  0
 24 39  1  0
 25 40  1  0
M  END
$$$$
OCNT-2315996
     RDKit          3D

 50 53  0  0  0  0  0  0  0  0999 V2000
   -7.0428   -0.4944   -1.6429 C   0  0  0  0  0  0  0  0  0  0  0  0
   -6.8201    0.9152   -1.5896 O   0  0  0  0  0  0  0  0  0  0  0  0
   -6.4491    1.2906   -0.3109 C   0  0  0  0  0  0  0  0  0  0  0  0
   -7.3587    2.0745    0.4079 C   0  0  0  0  0  0  0  0  0  0  0  0
   -7.0420    2.5260    1.6839 C   0  0  0  0  0  0  0  0  0  0  0  0
   -5.8039    2.2285    2.2601 C   0  0  0  0  0  0  0  0  0  0  0  0
   -4.8814    1.4742    1.5140 C   0  0  0  0  0  0  0  0  0  0  0  0
   -5.1743    0.9963    0.2337 C   0  0  0  0  0  0  0  0  0  0  0  0
   -4.1455    0.2786   -0.3696 N   0  0  0  0  0  0  0  0  0  0  0  0
   -3.1117    0.2211    0.4331 C   0  0  0  0  0  0  0  0  0  0  0  0
   -1.9494   -0.3860    0.0306 N   0  0  0  0  0  0  0  0  0  0  0  0
   -0.8512   -0.6679    0.7980 C   0  0  0  0  0  0  0  0  0  0  0  0
   -0.7862   -0.5487    2.0190 O   0  0  0  0  0  0  0  0  0  0  0  0
    0.2530   -1.1325    0.0724 N   0  0  0  0  0  0  0  0  0  0  0  0
    1.4090   -1.5870    0.8413 C   0  0  0  0  0  0  0  0  0  0  0  0
    2.3508   -2.4709    0.0325 C   0  0  0  0  0  0  0  0  0  0  0  0
    2.7927   -1.8322   -1.2921 C   0  0  0  0  0  0  0  0  0  0  0  0
    4.2395   -1.3354   -1.2331 C   0  0  0  0  0  0  0  0  0  0  0  0
    5.0905   -1.8610   -1.9447 O   0  0  0  0  0  0  0  0  0  0  0  0
    4.4554   -0.3007   -0.3424 N   0  0  0  0  0  0  0  0  0  0  0  0
    5.6735    0.3668   -0.0825 C   0  0  0  0  0  0  0  0  0  0  0  0
    5.6423    1.4167    0.8372 C   0  0  0  0  0  0  0  0  0  0  0  0
    6.8184    2.0963    1.1114 C   0  0  0  0  0  0  0  0  0  0  0  0
    8.0018    1.8055    0.5369 N   0  0  0  0  0  0  0  0  0  0  0  0
    8.0077    0.7877   -0.3478 C   0  0  0  0  0  0  0  0  0  0  0  0
    6.8850    0.0471   -0.6861 C   0  0  0  0  0  0  0  0  0  0  0  0
    1.8379   -0.7403   -1.7869 C   0  0  0  0  0  0  0  0  0  0  0  0
    0.3993   -1.0324   -1.3818 C   0  0  0  0  0  0  0  0  0  0  0  0
   -3.2813    0.9989    1.9342 S   0  0  0  0  0  0  0  0  0  0  0  0
   -6.1237   -1.0612   -1.4650 H   0  0  0  0  0  0  0  0  0  0  0  0
   -7.3970   -0.7375   -2.6494 H   0  0  0  0  0  0  0  0  0  0  0  0
   -7.8215   -0.7934   -0.9316 H   0  0  0  0  0  0  0  0  0  0  0  0
   -8.3186    2.3275   -0.0366 H   0  0  0  0  0  0  0  0  0  0  0  0
   -7.7610    3.1262    2.2382 H   0  0  0  0  0  0  0  0  0  0  0  0
   -5.5531    2.5889    3.2541 H   0  0  0  0  0  0  0  0  0  0  0  0
   -2.0320   -0.8155   -0.8751 H   0  0  0  0  0  0  0  0  0  0  0  0
    1.9277   -0.6941    1.2067 H   0  0  0  0  0  0  0  0  0  0  0  0
    1.0628   -2.1369    1.7244 H   0  0  0  0  0  0  0  0  0  0  0  0
    3.2137   -2.7549    0.6467 H   0  0  0  0  0  0  0  0  0  0  0  0
    1.8195   -3.4037   -0.1997 H   0  0  0  0  0  0  0  0  0  0  0  0
    2.7912   -2.6365   -2.0428 H   0  0  0  0  0  0  0  0  0  0  0  0
    3.6545    0.0490    0.1658 H   0  0  0  0  0  0  0  0  0  0  0  0
    4.7293    1.7143    1.3399 H   0  0  0  0  0  0  0  0  0  0  0  0
    6.8382    2.9179    1.8210 H   0  0  0  0  0  0  0  0  0  0  0  0
    8.9719    0.5719   -0.8007 H   0  0  0  0  0  0  0  0  0  0  0  0
    6.9923   -0.7543   -1.4072 H   0  0  0  0  0  0  0  0  0  0  0  0
    1.9084   -0.6638   -2.8787 H   0  0  0  0  0  0  0  0  0  0  0  0
    2.1201    0.2452   -1.3983 H   0  0  0  0  0  0  0  0  0  0  0  0
   -0.2439   -0.2401   -1.7749 H   0  0  0  0  0  0  0  0  0  0  0  0
    0.0622   -1.9834   -1.8083 H   0  0  0  0  0  0  0  0  0  0  0  0
  1  2  1  0
  2  3  1  0
  3  4  1  0
  4  5  2  0
  5  6  1  0
  6  7  2  0
  7  8  1  0
  8  9  1  0
  9 10  2  0
 10 11  1  0
 11 12  1  0
 12 13  2  0
 12 14  1  0
 14 15  1  0
 15 16  1  0
 16 17  1  0
 17 18  1  0
 18 19  2  0
 18 20  1  0
 20 21  1  0
 21 22  2  0
 22 23  1  0
 23 24  2  0
 24 25  1  0
 25 26  2  0
 17 27  1  0
 27 28  1  0
 10 29  1  0
  8  3  2  0
 28 14  1  0
 29  7  1  0
 26 21  1  0
  1 30  1  0
  1 31  1  0
  1 32  1  0
  4 33  1  0
  5 34  1  0
  6 35  1  0
 11 36  1  0
 15 37  1  0
 15 38  1  0
 16 39  1  0
 16 40  1  0
 17 41  1  0
 20 42  1  0
 22 43  1  0
 23 44  1  0
 25 45  1  0
 26 46  1  0
 27 47  1  0
 27 48  1  0
 28 49  1  0
 28 50  1  0
M  END
$$$$
OCNT-2316012
     RDKit          3D

  0  0  0  0  0  0  0  0  0  0999 V3000
M  V30 BEGIN CTAB
M  V30 COUNTS 48 50 0 0 0
M  V30 BEGIN ATOM
M  V30 1 C -3.159064 1.659750 -1.585599 0
M  V30 2 C -2.878769 0.244180 -1.079749 0
M  V30 3 C -2.442798 -0.653452 -2.248999 0
M  V30 4 C -2.053018 0.210913 0.253453 0
M  V30 5 N -0.725318 -0.377562 0.055877 0
M  V30 6 C 0.235011 0.680485 -0.287921 0
M  V30 7 C 1.605530 0.080958 -0.642358 0
M  V30 8 N 2.549600 1.132513 -1.022987 0
M  V30 9 S 3.543559 1.834284 0.121751 0
M  V30 10 O 4.117678 3.005275 -0.502687 0
M  V30 11 O 2.809445 1.915955 1.364830 0
M  V30 12 C 4.829743 0.625290 0.290547 0
M  V30 13 C 5.789296 0.504441 -0.719404 0
M  V30 14 C 6.810863 -0.435593 -0.586020 0
M  V30 15 C 6.873965 -1.241437 0.552386 0
M  V30 16 C 5.920016 -1.108400 1.563340 0
M  V30 17 C 4.895061 -0.170498 1.437777 0
M  V30 18 C -3.003403 -0.912289 0.766371 0 CFG=1
M  V30 19 C -3.632494 -0.719938 2.146084 0
M  V30 20 C -5.102112 -0.431371 1.862239 0
M  V30 21 C -5.067341 0.353247 0.558960 0
M  V30 22 C -4.048394 -0.424657 -0.273280 0 CFG=1
M  V30 23 H -3.979604 1.659025 -2.311221 0
M  V30 24 H -3.430195 2.343527 -0.775618 0
M  V30 25 H -2.275332 2.079447 -2.078116 0
M  V30 26 H -1.531223 -0.271330 -2.720857 0
M  V30 27 H -3.223201 -0.691952 -3.017385 0
M  V30 28 H -2.249285 -1.682520 -1.927347 0
M  V30 29 H -2.081399 1.128474 0.853802 0
M  V30 30 H -0.383073 -0.862542 0.887182 0
M  V30 31 H -0.123266 1.258857 -1.147724 0
M  V30 32 H 0.334545 1.378188 0.551463 0
M  V30 33 H 1.999124 -0.510846 0.191278 0
M  V30 34 H 1.504629 -0.601610 -1.494385 0
M  V30 35 H 2.382428 1.689478 -1.858630 0
M  V30 36 H 5.746655 1.137615 -1.602576 0
M  V30 37 H 7.561576 -0.537620 -1.366015 0
M  V30 38 H 7.673713 -1.971346 0.655226 0
M  V30 39 H 5.980040 -1.732917 2.451543 0
M  V30 40 H 4.160545 -0.065343 2.232800 0
M  V30 41 H -2.675620 -1.943491 0.579628 0
M  V30 42 H -3.173689 0.120849 2.678227 0
M  V30 43 H -3.520882 -1.612226 2.770023 0
M  V30 44 H -5.643799 -1.373891 1.716091 0
M  V30 45 H -5.584819 0.118834 2.674639 0
M  V30 46 H -4.742083 1.379383 0.758319 0
M  V30 47 H -6.047575 0.390386 0.075014 0
M  V30 48 H -4.545268 -1.250891 -0.799974 0
M  V30 END ATOM
M  V30 BEGIN BOND
M  V30 1 1 1 2
M  V30 2 1 2 3
M  V30 3 1 2 4
M  V30 4 1 4 5
M  V30 5 1 5 6
M  V30 6 1 6 7
M  V30 7 1 7 8
M  V30 8 1 8 9
M  V30 9 2 9 10
M  V30 10 2 9 11
M  V30 11 1 9 12
M  V30 12 2 12 13
M  V30 13 1 13 14
M  V30 14 2 14 15
M  V30 15 1 15 16
M  V30 16 2 16 17
M  V30 17 1 4 18
M  V30 18 1 18 19
M  V30 19 1 19 20
M  V30 20 1 20 21
M  V30 21 1 21 22
M  V30 22 1 22 2
M  V30 23 1 17 12
M  V30 24 1 22 18
M  V30 25 1 1 23
M  V30 26 1 1 24
M  V30 27 1 1 25
M  V30 28 1 3 26
M  V30 29 1 3 27
M  V30 30 1 3 28
M  V30 31 1 4 29
M  V30 32 1 5 30
M  V30 33 1 6 31
M  V30 34 1 6 32
M  V30 35 1 7 33
M  V30 36 1 7 34
M  V30 37 1 8 35
M  V30 38 1 13 36
M  V30 39 1 14 37
M  V30 40 1 15 38
M  V30 41 1 16 39
M  V30 42 1 17 40
M  V30 43 1 18 41 CFG=3
M  V30 44 1 19 42
M  V30 45 1 19 43
M  V30 46 1 20 44
M  V30 47 1 20 45
M  V30 48 1 21 46
M  V30 49 1 21 47
M  V30 50 1 22 48 CFG=3
M  V30 END BOND
M  V30 BEGIN COLLECTION
M  V30 MDLV30/STERAC1 ATOMS=(2 18 22)
M  V30 END COLLECTION
M  V30 END CTAB
M  END
>  <_CXSMILES_Data>  (1055) 
|&1:17,21|

$$$$
OCNT-2316017
     RDKit          3D

 43 45  0  0  0  0  0  0  0  0999 V2000
   -1.0528    0.7212    2.5050 C   0  0  0  0  0  0  0  0  0  0  0  0
   -2.0570    0.5137    1.4582 N   0  0  0  0  0  0  0  0  0  0  0  0
   -2.7811    1.7765    1.2480 C   0  0  0  0  0  0  0  0  0  0  0  0
   -1.4463    0.0340    0.1770 C   0  0  0  0  0  0  0  0  0  0  0  0
   -0.5190   -1.2252    0.3080 C   0  0  0  0  0  0  0  0  0  0  0  0
    0.8401   -0.9009    0.7716 N   0  0  0  0  0  0  0  0  0  0  0  0
    1.8696   -0.3774   -0.0046 C   0  0  0  0  0  0  0  0  0  0  0  0
    1.7721   -0.0744   -1.3111 C   0  0  0  0  0  0  0  0  0  0  0  0
    2.9049    0.4382   -2.1117 C   0  0  0  0  0  0  0  0  0  0  0  0
    2.7650    0.7087   -3.2993 O   0  0  0  0  0  0  0  0  0  0  0  0
    4.0974    0.5810   -1.4680 N   0  0  0  0  0  0  0  0  0  0  0  0
    4.2620    0.3184   -0.1043 C   0  0  0  0  0  0  0  0  0  0  0  0
    5.4889    0.5292    0.5131 C   0  0  0  0  0  0  0  0  0  0  0  0
    5.7088    0.3344    1.8315 N   0  0  0  0  0  0  0  0  0  0  0  0
    4.6516   -0.0763    2.5616 C   0  0  0  0  0  0  0  0  0  0  0  0
    3.3907   -0.3181    2.0335 C   0  0  0  0  0  0  0  0  0  0  0  0
    3.1813   -0.1371    0.6610 C   0  0  0  0  0  0  0  0  0  0  0  0
   -2.5228   -0.3193   -0.8557 C   0  0  0  0  0  0  0  0  0  0  0  0
   -3.5704   -1.2013   -0.5407 C   0  0  0  0  0  0  0  0  0  0  0  0
   -4.5296   -1.5353   -1.4975 C   0  0  0  0  0  0  0  0  0  0  0  0
   -4.4526   -0.9959   -2.7799 C   0  0  0  0  0  0  0  0  0  0  0  0
   -3.4190   -0.1200   -3.1067 C   0  0  0  0  0  0  0  0  0  0  0  0
   -2.4586    0.2175   -2.1515 C   0  0  0  0  0  0  0  0  0  0  0  0
   -1.5147    1.1491    3.4029 H   0  0  0  0  0  0  0  0  0  0  0  0
   -0.2506    1.3956    2.1851 H   0  0  0  0  0  0  0  0  0  0  0  0
   -0.6196   -0.2287    2.8319 H   0  0  0  0  0  0  0  0  0  0  0  0
   -2.1238    2.5713    0.8767 H   0  0  0  0  0  0  0  0  0  0  0  0
   -3.2334    2.1185    2.1864 H   0  0  0  0  0  0  0  0  0  0  0  0
   -3.6121    1.6572    0.5455 H   0  0  0  0  0  0  0  0  0  0  0  0
   -0.8425    0.8571   -0.2299 H   0  0  0  0  0  0  0  0  0  0  0  0
   -0.9674   -1.9322    1.0183 H   0  0  0  0  0  0  0  0  0  0  0  0
   -0.4458   -1.7718   -0.6413 H   0  0  0  0  0  0  0  0  0  0  0  0
    1.1744   -1.5849    1.4466 H   0  0  0  0  0  0  0  0  0  0  0  0
    0.8610   -0.2146   -1.8768 H   0  0  0  0  0  0  0  0  0  0  0  0
    4.8648    0.9304   -2.0266 H   0  0  0  0  0  0  0  0  0  0  0  0
    6.3534    0.8774   -0.0438 H   0  0  0  0  0  0  0  0  0  0  0  0
    4.8461   -0.2081    3.6228 H   0  0  0  0  0  0  0  0  0  0  0  0
    2.5952   -0.6241    2.7023 H   0  0  0  0  0  0  0  0  0  0  0  0
   -3.6472   -1.6200    0.4609 H   0  0  0  0  0  0  0  0  0  0  0  0
   -5.3389   -2.2134   -1.2401 H   0  0  0  0  0  0  0  0  0  0  0  0
   -5.2006   -1.2555   -3.5244 H   0  0  0  0  0  0  0  0  0  0  0  0
   -3.3609    0.3017   -4.1069 H   0  0  0  0  0  0  0  0  0  0  0  0
   -1.6606    0.9036   -2.4271 H   0  0  0  0  0  0  0  0  0  0  0  0
  1  2  1  0
  2  3  1  0
  2  4  1  0
  4  5  1  0
  5  6  1  0
  6  7  1  0
  7  8  2  0
  8  9  1  0
  9 10  2  0
  9 11  1  0
 11 12  1  0
 12 13  2  0
 13 14  1  0
 14 15  2  0
 15 16  1  0
 16 17  2  0
  4 18  1  0
 18 19  2  0
 19 20  1  0
 20 21  2  0
 21 22  1  0
 22 23  2  0
 17  7  1  0
 23 18  1  0
 17 12  1  0
  1 24  1  0
  1 25  1  0
  1 26  1  0
  3 27  1  0
  3 28  1  0
  3 29  1  0
  4 30  1  0
  5 31  1  0
  5 32  1  0
  6 33  1  0
  8 34  1  0
 11 35  1  0
 13 36  1  0
 15 37  1  0
 16 38  1  0
 19 39  1  0
 20 40  1  0
 21 41  1  0
 22 42  1  0
 23 43  1  0
M  END
$$$$
OCNT-2316040
     RDKit          3D

  0  0  0  0  0  0  0  0  0  0999 V3000
M  V30 BEGIN CTAB
M  V30 COUNTS 44 47 0 0 0
M  V30 BEGIN ATOM
M  V30 1 N -1.644054 -4.445078 -0.737761 0
M  V30 2 C -2.075176 -3.380491 -0.565420 0
M  V30 3 C -2.618261 -2.077019 -0.340691 0
M  V30 4 C -3.818532 -1.941922 0.358996 0
M  V30 5 C -4.391846 -0.675774 0.519459 0
M  V30 6 C -5.600173 -0.491594 1.213481 0
M  V30 7 C -6.149174 0.783319 1.340194 0
M  V30 8 C -5.495757 1.874014 0.775971 0
M  V30 9 C -4.293723 1.685020 0.089053 0
M  V30 10 C -3.724181 0.426382 -0.050961 0
M  V30 11 N -2.564872 0.296654 -0.719992 0
M  V30 12 C -2.013643 -0.928312 -0.850252 0
M  V30 13 N -0.804266 -0.930052 -1.554708 0
M  V30 14 C 0.382325 -1.169962 -0.713646 0 CFG=2
M  V30 15 C 0.780866 0.068908 0.110150 0
M  V30 16 C 2.210989 0.433405 -0.312203 0
M  V30 17 C 3.016724 1.033752 0.839806 0
M  V30 18 N 4.300227 1.558306 0.420773 0
M  V30 19 C 4.542235 2.817312 -0.050869 0
M  V30 20 C 5.896439 2.852542 -0.284560 0
M  V30 21 N 6.475376 1.651216 0.034601 0
M  V30 22 C 5.491268 0.892780 0.462054 0
M  V30 23 C 2.776591 -0.880506 -0.849642 0
M  V30 24 C 1.600714 -1.465973 -1.616784 0 CFG=1
M  V30 25 O 1.785902 -2.858476 -1.823122 0
M  V30 26 H -4.313136 -2.822562 0.764923 0
M  V30 27 H -6.122354 -1.339099 1.654066 0
M  V30 28 H -7.085760 0.924450 1.873335 0
M  V30 29 H -5.918445 2.872781 0.863080 0
M  V30 30 H -3.791848 2.542339 -0.353887 0
M  V30 31 H -0.757255 0.018003 -1.937069 0
M  V30 32 H 0.222579 -2.021084 -0.039699 0
M  V30 33 H 0.116778 0.924023 -0.035520 0
M  V30 34 H 0.741086 -0.185193 1.174523 0
M  V30 35 H 2.153036 1.156656 -1.138907 0
M  V30 36 H 3.199163 0.294506 1.627772 0
M  V30 37 H 2.466718 1.866128 1.296103 0
M  V30 38 H 3.766162 3.560310 -0.173093 0
M  V30 39 H 6.486382 3.677907 -0.663741 0
M  V30 40 H 5.588098 -0.129287 0.806312 0
M  V30 41 H 3.643793 -0.729570 -1.501401 0
M  V30 42 H 3.088623 -1.553321 -0.039581 0
M  V30 43 H 1.506947 -0.978587 -2.597087 0
M  V30 44 H 0.943433 -3.206851 -2.173763 0
M  V30 END ATOM
M  V30 BEGIN BOND
M  V30 1 3 1 2
M  V30 2 1 2 3
M  V30 3 2 3 4
M  V30 4 1 4 5
M  V30 5 2 5 6
M  V30 6 1 6 7
M  V30 7 2 7 8
M  V30 8 1 8 9
M  V30 9 2 9 10
M  V30 10 1 10 11
M  V30 11 2 11 12
M  V30 12 1 12 13
M  V30 13 1 13 14
M  V30 14 1 14 15
M  V30 15 1 15 16
M  V30 16 1 16 17
M  V30 17 1 17 18
M  V30 18 1 18 19
M  V30 19 2 19 20
M  V30 20 1 20 21
M  V30 21 2 21 22
M  V30 22 1 16 23
M  V30 23 1 23 24
M  V30 24 1 24 25
M  V30 25 1 12 3
M  V30 26 1 24 14
M  V30 27 1 10 5
M  V30 28 1 22 18
M  V30 29 1 4 26
M  V30 30 1 6 27
M  V30 31 1 7 28
M  V30 32 1 8 29
M  V30 33 1 9 30
M  V30 34 1 13 31
M  V30 35 1 14 32 CFG=1
M  V30 36 1 15 33
M  V30 37 1 15 34
M  V30 38 1 16 35
M  V30 39 1 17 36
M  V30 40 1 17 37
M  V30 41 1 19 38
M  V30 42 1 20 39
M  V30 43 1 22 40
M  V30 44 1 23 41
M  V30 45 1 23 42
M  V30 46 1 24 43 CFG=3
M  V30 47 1 25 44
M  V30 END BOND
M  V30 BEGIN COLLECTION
M  V30 MDLV30/STERAC1 ATOMS=(2 14 24)
M  V30 END COLLECTION
M  V30 END CTAB
M  END
>  <_CXSMILES_Data>  (1057) 
|&1:13,23|

$$$$
OCNT-2316044
     RDKit          3D

 49 51  0  0  0  0  0  0  0  0999 V2000
    3.8662   -2.0690   -1.3683 C   0  0  0  0  0  0  0  0  0  0  0  0
    4.5568   -1.0116   -0.5522 C   0  0  0  0  0  0  0  0  0  0  0  0
    3.9913   -0.2054    0.3708 C   0  0  0  0  0  0  0  0  0  0  0  0
    2.6527   -0.0515    0.6952 N   0  0  0  0  0  0  0  0  0  0  0  0
    1.5248   -0.2235   -0.0830 C   0  0  0  0  0  0  0  0  0  0  0  0
    1.5398   -0.5453   -1.2713 O   0  0  0  0  0  0  0  0  0  0  0  0
    0.2144    0.0768    0.6836 C   0  0  0  0  0  0  0  0  0  0  0  0
   -1.0406   -0.7265    0.2794 C   0  0  0  0  0  0  0  0  0  0  0  0
   -1.7528    0.5297    0.3419 N   0  0  0  0  0  0  0  0  0  0  0  0
   -3.0559    0.8941    0.5226 C   0  0  0  0  0  0  0  0  0  0  0  0
   -3.3807    2.0733    0.6481 O   0  0  0  0  0  0  0  0  0  0  0  0
   -4.0682   -0.2561    0.5592 C   0  0  0  0  0  0  0  0  0  0  0  0
   -4.1847   -0.9477   -0.8134 C   0  0  0  0  0  0  0  0  0  0  0  0
   -5.5434   -0.7654   -1.4908 C   0  0  0  0  0  0  0  0  0  0  0  0
   -6.0401    0.6633   -1.3393 C   0  0  0  0  0  0  0  0  0  0  0  0
   -6.2517    1.0386    0.1251 C   0  0  0  0  0  0  0  0  0  0  0  0
   -5.4288    0.1982    1.1045 C   0  0  0  0  0  0  0  0  0  0  0  0
   -0.5581    1.3467    0.2797 C   0  0  0  0  0  0  0  0  0  0  0  0
    4.9003    0.6494    1.2472 C   0  0  0  0  0  0  0  0  0  0  0  0
    4.3794    1.3259    2.1383 O   0  0  0  0  0  0  0  0  0  0  0  0
    6.2626    0.6112    0.9817 N   0  0  0  0  0  0  0  0  0  0  0  0
    7.1713    1.4317    1.7664 C   0  0  0  0  0  0  0  0  0  0  0  0
    6.7835   -0.1738   -0.0235 C   0  0  0  0  0  0  0  0  0  0  0  0
    5.9960   -0.9548   -0.7692 C   0  0  0  0  0  0  0  0  0  0  0  0
    4.5101   -2.9470   -1.5029 H   0  0  0  0  0  0  0  0  0  0  0  0
    3.6132   -1.6874   -2.3624 H   0  0  0  0  0  0  0  0  0  0  0  0
    2.9672   -2.4498   -0.8762 H   0  0  0  0  0  0  0  0  0  0  0  0
    2.5298    0.4981    1.5468 H   0  0  0  0  0  0  0  0  0  0  0  0
    0.3614    0.0330    1.7738 H   0  0  0  0  0  0  0  0  0  0  0  0
   -1.3588   -1.4713    1.0129 H   0  0  0  0  0  0  0  0  0  0  0  0
   -1.0377   -1.1616   -0.7238 H   0  0  0  0  0  0  0  0  0  0  0  0
   -3.6683   -0.9822    1.2801 H   0  0  0  0  0  0  0  0  0  0  0  0
   -3.4101   -0.5850   -1.5000 H   0  0  0  0  0  0  0  0  0  0  0  0
   -4.0019   -2.0232   -0.6939 H   0  0  0  0  0  0  0  0  0  0  0  0
   -5.4592   -1.0241   -2.5523 H   0  0  0  0  0  0  0  0  0  0  0  0
   -6.2726   -1.4597   -1.0554 H   0  0  0  0  0  0  0  0  0  0  0  0
   -6.9754    0.8010   -1.8937 H   0  0  0  0  0  0  0  0  0  0  0  0
   -5.3096    1.3486   -1.7880 H   0  0  0  0  0  0  0  0  0  0  0  0
   -6.0258    2.1036    0.2558 H   0  0  0  0  0  0  0  0  0  0  0  0
   -7.3126    0.9271    0.3819 H   0  0  0  0  0  0  0  0  0  0  0  0
   -5.3064    0.7522    2.0434 H   0  0  0  0  0  0  0  0  0  0  0  0
   -6.0097   -0.6989    1.3588 H   0  0  0  0  0  0  0  0  0  0  0  0
   -0.3640    1.7326   -0.7253 H   0  0  0  0  0  0  0  0  0  0  0  0
   -0.5266    2.1579    1.0109 H   0  0  0  0  0  0  0  0  0  0  0  0
    7.9321    0.7896    2.2215 H   0  0  0  0  0  0  0  0  0  0  0  0
    7.6532    2.1591    1.1052 H   0  0  0  0  0  0  0  0  0  0  0  0
    6.6497    1.9723    2.5608 H   0  0  0  0  0  0  0  0  0  0  0  0
    7.8575   -0.1331   -0.1838 H   0  0  0  0  0  0  0  0  0  0  0  0
    6.4303   -1.5602   -1.5601 H   0  0  0  0  0  0  0  0  0  0  0  0
  1  2  1  0
  2  3  2  0
  3  4  1  0
  4  5  1  0
  5  6  2  0
  5  7  1  0
  7  8  1  0
  8  9  1  0
  9 10  1  0
 10 11  2  0
 10 12  1  0
 12 13  1  0
 13 14  1  0
 14 15  1  0
 15 16  1  0
 16 17  1  0
  9 18  1  0
  3 19  1  0
 19 20  2  0
 19 21  1  0
 21 22  1  0
 21 23  1  0
 23 24  2  0
 24  2  1  0
 18  7  1  0
 17 12  1  0
  1 25  1  0
  1 26  1  0
  1 27  1  0
  4 28  1  0
  7 29  1  0
  8 30  1  0
  8 31  1  0
 12 32  1  0
 13 33  1  0
 13 34  1  0
 14 35  1  0
 14 36  1  0
 15 37  1  0
 15 38  1  0
 16 39  1  0
 16 40  1  0
 17 41  1  0
 17 42  1  0
 18 43  1  0
 18 44  1  0
 22 45  1  0
 22 46  1  0
 22 47  1  0
 23 48  1  0
 24 49  1  0
M  END
$$$$
OCNT-2316070
     RDKit          3D

 43 45  0  0  0  0  0  0  0  0999 V2000
    6.2441    2.2965    0.3063 C   0  0  0  0  0  0  0  0  0  0  0  0
    4.8827    2.5651    0.0076 O   0  0  0  0  0  0  0  0  0  0  0  0
    4.2961    1.7623   -1.0362 C   0  0  2  0  0  0  0  0  0  0  0  0
    2.7625    1.9147   -1.2171 C   0  0  0  0  0  0  0  0  0  0  0  0
    2.7276    0.4050   -1.5370 C   0  0  2  0  0  0  0  0  0  0  0  0
    1.5395   -0.3792   -1.0810 N   0  0  0  0  0  0  0  0  0  0  0  0
    0.9908   -1.3186   -2.0579 C   0  0  0  0  0  0  0  0  0  0  0  0
    1.0313   -0.2719    0.2194 C   0  0  0  0  0  0  0  0  0  0  0  0
    1.5846    0.3237    1.1384 O   0  0  0  0  0  0  0  0  0  0  0  0
   -0.2699   -0.9058    0.5281 C   0  0  0  0  0  0  0  0  0  0  0  0
   -0.3307   -1.8638    1.5419 C   0  0  0  0  0  0  0  0  0  0  0  0
   -1.5517   -2.4579    1.8537 C   0  0  0  0  0  0  0  0  0  0  0  0
   -2.7091   -2.0827    1.1663 C   0  0  0  0  0  0  0  0  0  0  0  0
   -2.6657   -1.0946    0.1680 C   0  0  0  0  0  0  0  0  0  0  0  0
   -3.9180   -0.6765   -0.5625 C   0  0  0  0  0  0  0  0  0  0  0  0
   -4.9081   -0.0955    0.3275 N   0  0  0  0  0  0  0  0  0  0  0  0
   -6.1281   -0.6293    0.6417 C   0  0  0  0  0  0  0  0  0  0  0  0
   -6.7206    0.3024    1.4619 C   0  0  0  0  0  0  0  0  0  0  0  0
   -5.8991    1.3844    1.6419 N   0  0  0  0  0  0  0  0  0  0  0  0
   -4.8145    1.1172    0.9494 C   0  0  0  0  0  0  0  0  0  0  0  0
   -1.4312   -0.5060   -0.1459 C   0  0  0  0  0  0  0  0  0  0  0  0
    4.0303    0.2662   -0.7213 C   0  0  0  0  0  0  0  0  0  0  0  0
    6.5768    2.9982    1.0755 H   0  0  0  0  0  0  0  0  0  0  0  0
    6.3545    1.2770    0.6863 H   0  0  0  0  0  0  0  0  0  0  0  0
    6.8603    2.4317   -0.5872 H   0  0  0  0  0  0  0  0  0  0  0  0
    4.8344    1.9059   -1.9834 H   0  0  0  0  0  0  0  0  0  0  0  0
    2.2404    2.2399   -0.3122 H   0  0  0  0  0  0  0  0  0  0  0  0
    2.4569    2.5662   -2.0414 H   0  0  0  0  0  0  0  0  0  0  0  0
    2.9111    0.2380   -2.6095 H   0  0  0  0  0  0  0  0  0  0  0  0
    0.5032   -2.1667   -1.5715 H   0  0  0  0  0  0  0  0  0  0  0  0
    0.2721   -0.7851   -2.6859 H   0  0  0  0  0  0  0  0  0  0  0  0
    1.7979   -1.7118   -2.6835 H   0  0  0  0  0  0  0  0  0  0  0  0
    0.5682   -2.1387    2.0890 H   0  0  0  0  0  0  0  0  0  0  0  0
   -1.6057   -3.2048    2.6425 H   0  0  0  0  0  0  0  0  0  0  0  0
   -3.6535   -2.5542    1.4347 H   0  0  0  0  0  0  0  0  0  0  0  0
   -3.7051    0.0742   -1.3328 H   0  0  0  0  0  0  0  0  0  0  0  0
   -4.3644   -1.5441   -1.0621 H   0  0  0  0  0  0  0  0  0  0  0  0
   -6.4651   -1.5876    0.2732 H   0  0  0  0  0  0  0  0  0  0  0  0
   -7.6960    0.2544    1.9286 H   0  0  0  0  0  0  0  0  0  0  0  0
   -3.9456    1.7581    0.8683 H   0  0  0  0  0  0  0  0  0  0  0  0
   -1.3658    0.2758   -0.8997 H   0  0  0  0  0  0  0  0  0  0  0  0
    4.7622   -0.4311   -1.1401 H   0  0  0  0  0  0  0  0  0  0  0  0
    3.9204    0.0491    0.3455 H   0  0  0  0  0  0  0  0  0  0  0  0
  1  2  1  0
  2  3  1  0
  3  4  1  0
  4  5  1  0
  5  6  1  0
  6  7  1  0
  6  8  1  0
  8  9  2  0
  8 10  1  0
 10 11  1  0
 11 12  2  0
 12 13  1  0
 13 14  2  0
 14 15  1  0
 15 16  1  0
 16 17  1  0
 17 18  2  0
 18 19  1  0
 19 20  2  0
 14 21  1  0
  5 22  1  0
 22  3  1  0
 21 10  2  0
 20 16  1  0
  1 23  1  0
  1 24  1  0
  1 25  1  0
  3 26  1  6
  4 27  1  0
  4 28  1  0
  5 29  1  6
  7 30  1  0
  7 31  1  0
  7 32  1  0
 11 33  1  0
 12 34  1  0
 13 35  1  0
 15 36  1  0
 15 37  1  0
 17 38  1  0
 18 39  1  0
 20 40  1  0
 21 41  1  0
 22 42  1  0
 22 43  1  0
M  END
$$$$
OCNT-2316072
     RDKit          3D

 42 45  0  0  0  0  0  0  0  0999 V2000
    7.2994   -3.2573    0.2260 O   0  0  0  0  0  0  0  0  0  0  0  0
    6.4797   -2.3559    0.1333 C   0  0  0  0  0  0  0  0  0  0  0  0
    5.2349   -2.4803   -0.4381 N   0  0  0  0  0  0  0  0  0  0  0  0
    4.6147   -1.2681   -0.3552 C   0  0  0  0  0  0  0  0  0  0  0  0
    3.3706   -0.8672   -0.7789 C   0  0  0  0  0  0  0  0  0  0  0  0
    3.0212    0.4705   -0.5369 C   0  0  0  0  0  0  0  0  0  0  0  0
    1.6791    0.9305   -0.9904 C   0  0  0  0  0  0  0  0  0  0  0  0
    1.1184    0.3515   -1.9138 O   0  0  0  0  0  0  0  0  0  0  0  0
    1.1258    1.9839   -0.2956 N   0  0  0  0  0  0  0  0  0  0  0  0
   -0.2254    2.4300   -0.5575 C   0  0  0  0  0  0  0  0  0  0  0  0
   -1.1991    1.7736    0.3873 C   0  0  0  0  0  0  0  0  0  0  0  0
   -1.5736    2.3997    1.5825 C   0  0  0  0  0  0  0  0  0  0  0  0
   -2.4636    1.7756    2.4565 C   0  0  0  0  0  0  0  0  0  0  0  0
   -2.9818    0.5170    2.1503 C   0  0  0  0  0  0  0  0  0  0  0  0
   -2.6100   -0.1357    0.9673 C   0  0  0  0  0  0  0  0  0  0  0  0
   -3.1741   -1.4900    0.6232 C   0  0  0  0  0  0  0  0  0  0  0  0
   -4.3656   -1.3771   -0.1978 N   0  0  0  0  0  0  0  0  0  0  0  0
   -4.4203   -1.4208   -1.5638 C   0  0  0  0  0  0  0  0  0  0  0  0
   -5.7587   -1.3281   -1.8671 C   0  0  0  0  0  0  0  0  0  0  0  0
   -6.5127   -1.2440   -0.7249 N   0  0  0  0  0  0  0  0  0  0  0  0
   -5.6473   -1.2746    0.2636 C   0  0  0  0  0  0  0  0  0  0  0  0
   -1.7180    0.5035    0.0928 C   0  0  0  0  0  0  0  0  0  0  0  0
    3.9371    1.3502    0.0933 C   0  0  0  0  0  0  0  0  0  0  0  0
    5.1968    0.8983    0.5093 C   0  0  0  0  0  0  0  0  0  0  0  0
    5.5050   -0.4230    0.2724 C   0  0  0  0  0  0  0  0  0  0  0  0
    6.6935   -1.0527    0.6032 O   0  0  0  0  0  0  0  0  0  0  0  0
    4.8866   -3.3338   -0.8432 H   0  0  0  0  0  0  0  0  0  0  0  0
    2.6884   -1.5478   -1.2763 H   0  0  0  0  0  0  0  0  0  0  0  0
    1.5180    2.2406    0.5986 H   0  0  0  0  0  0  0  0  0  0  0  0
   -0.5047    2.2274   -1.5977 H   0  0  0  0  0  0  0  0  0  0  0  0
   -0.2404    3.5174   -0.4242 H   0  0  0  0  0  0  0  0  0  0  0  0
   -1.1818    3.3818    1.8373 H   0  0  0  0  0  0  0  0  0  0  0  0
   -2.7587    2.2737    3.3770 H   0  0  0  0  0  0  0  0  0  0  0  0
   -3.6803    0.0522    2.8430 H   0  0  0  0  0  0  0  0  0  0  0  0
   -3.4379   -2.0499    1.5283 H   0  0  0  0  0  0  0  0  0  0  0  0
   -2.4391   -2.0931    0.0770 H   0  0  0  0  0  0  0  0  0  0  0  0
   -3.5398   -1.5047   -2.1850 H   0  0  0  0  0  0  0  0  0  0  0  0
   -6.2194   -1.3210   -2.8464 H   0  0  0  0  0  0  0  0  0  0  0  0
   -5.8940   -1.2271    1.3160 H   0  0  0  0  0  0  0  0  0  0  0  0
   -1.4194    0.0121   -0.8339 H   0  0  0  0  0  0  0  0  0  0  0  0
    3.6893    2.3989    0.2385 H   0  0  0  0  0  0  0  0  0  0  0  0
    5.9071    1.5634    0.9882 H   0  0  0  0  0  0  0  0  0  0  0  0
  1  2  2  0
  2  3  1  0
  3  4  1  0
  4  5  1  0
  5  6  2  0
  6  7  1  0
  7  8  2  0
  7  9  1  0
  9 10  1  0
 10 11  1  0
 11 12  1  0
 12 13  2  0
 13 14  1  0
 14 15  2  0
 15 16  1  0
 16 17  1  0
 17 18  1  0
 18 19  2  0
 19 20  1  0
 20 21  2  0
 15 22  1  0
  6 23  1  0
 23 24  2  0
 24 25  1  0
 25 26  1  0
 26  2  1  0
 25  4  2  0
 22 11  2  0
 21 17  1  0
  3 27  1  0
  5 28  1  0
  9 29  1  0
 10 30  1  0
 10 31  1  0
 12 32  1  0
 13 33  1  0
 14 34  1  0
 16 35  1  0
 16 36  1  0
 18 37  1  0
 19 38  1  0
 21 39  1  0
 22 40  1  0
 23 41  1  0
 24 42  1  0
M  END
$$$$
OCNT-2316082
     RDKit          3D

 42 45  0  0  0  0  0  0  0  0999 V2000
    2.1352    2.3663    0.3474 C   0  0  0  0  0  0  0  0  0  0  0  0
    2.3720    1.1462   -0.4205 N   0  0  0  0  0  0  0  0  0  0  0  0
    1.5635    1.0021   -1.6404 C   0  0  0  0  0  0  0  0  0  0  0  0
    1.9251   -0.2503   -2.4378 C   0  0  0  0  0  0  0  0  0  0  0  0
    1.8495   -1.4677   -1.5898 N   0  0  0  0  0  0  0  0  0  0  0  0
    0.3906   -2.3561   -1.6313 S   0  0  0  0  0  0  0  0  0  0  0  0
    0.5560   -3.6037   -0.9148 O   0  0  0  0  0  0  0  0  0  0  0  0
   -0.0746   -2.3678   -3.0051 O   0  0  0  0  0  0  0  0  0  0  0  0
   -0.7668   -1.3772   -0.6960 C   0  0  0  0  0  0  0  0  0  0  0  0
   -0.7432   -1.4193    0.6971 C   0  0  0  0  0  0  0  0  0  0  0  0
   -1.6661   -0.6619    1.4251 C   0  0  0  0  0  0  0  0  0  0  0  0
   -2.6430    0.1330    0.7946 C   0  0  0  0  0  0  0  0  0  0  0  0
   -3.6185    0.9342    1.6382 C   0  0  0  0  0  0  0  0  0  0  0  0
   -5.0609    1.0945    1.2230 C   0  0  0  0  0  0  0  0  0  0  0  0
   -4.1352    2.2769    1.1812 C   0  0  0  0  0  0  0  0  0  0  0  0
   -2.6587    0.1209   -0.6135 C   0  0  0  0  0  0  0  0  0  0  0  0
   -1.7412   -0.6295   -1.3571 C   0  0  0  0  0  0  0  0  0  0  0  0
    2.5050   -1.3214   -0.3039 C   0  0  0  0  0  0  0  0  0  0  0  0
    2.9366   -2.4447    0.4055 C   0  0  0  0  0  0  0  0  0  0  0  0
    3.5182   -2.4026    1.6257 N   0  0  0  0  0  0  0  0  0  0  0  0
    3.7012   -1.1796    2.1523 C   0  0  0  0  0  0  0  0  0  0  0  0
    3.3284    0.0002    1.5217 C   0  0  0  0  0  0  0  0  0  0  0  0
    2.7066   -0.0382    0.2643 C   0  0  0  0  0  0  0  0  0  0  0  0
    1.8088    3.1808   -0.3093 H   0  0  0  0  0  0  0  0  0  0  0  0
    1.3538    2.2134    1.1000 H   0  0  0  0  0  0  0  0  0  0  0  0
    3.0520    2.7138    0.8344 H   0  0  0  0  0  0  0  0  0  0  0  0
    0.5043    1.0029   -1.3706 H   0  0  0  0  0  0  0  0  0  0  0  0
    1.7248    1.8770   -2.2818 H   0  0  0  0  0  0  0  0  0  0  0  0
    2.9534   -0.1707   -2.8147 H   0  0  0  0  0  0  0  0  0  0  0  0
    1.2868   -0.3320   -3.3226 H   0  0  0  0  0  0  0  0  0  0  0  0
   -0.0214   -2.0367    1.2275 H   0  0  0  0  0  0  0  0  0  0  0  0
   -1.6270   -0.7023    2.5127 H   0  0  0  0  0  0  0  0  0  0  0  0
   -3.4644    0.8514    2.7149 H   0  0  0  0  0  0  0  0  0  0  0  0
   -5.3949    0.6686    0.2845 H   0  0  0  0  0  0  0  0  0  0  0  0
   -5.8146    1.0658    2.0026 H   0  0  0  0  0  0  0  0  0  0  0  0
   -4.2651    3.0485    1.9325 H   0  0  0  0  0  0  0  0  0  0  0  0
   -3.8396    2.6622    0.2131 H   0  0  0  0  0  0  0  0  0  0  0  0
   -3.4069    0.6994   -1.1515 H   0  0  0  0  0  0  0  0  0  0  0  0
   -1.8013   -0.6226   -2.4431 H   0  0  0  0  0  0  0  0  0  0  0  0
    2.8352   -3.4455   -0.0050 H   0  0  0  0  0  0  0  0  0  0  0  0
    4.1841   -1.1620    3.1256 H   0  0  0  0  0  0  0  0  0  0  0  0
    3.5522    0.9336    2.0232 H   0  0  0  0  0  0  0  0  0  0  0  0
  1  2  1  0
  2  3  1  0
  3  4  1  0
  4  5  1  0
  5  6  1  0
  6  7  2  0
  6  8  2  0
  6  9  1  0
  9 10  1  0
 10 11  2  0
 11 12  1  0
 12 13  1  0
 13 14  1  0
 14 15  1  0
 12 16  2  0
 16 17  1  0
  5 18  1  0
 18 19  2  0
 19 20  1  0
 20 21  2  0
 21 22  1  0
 22 23  2  0
 23  2  1  0
 17  9  2  0
 23 18  1  0
 15 13  1  0
  1 24  1  0
  1 25  1  0
  1 26  1  0
  3 27  1  0
  3 28  1  0
  4 29  1  0
  4 30  1  0
 10 31  1  0
 11 32  1  0
 13 33  1  0
 14 34  1  0
 14 35  1  0
 15 36  1  0
 15 37  1  0
 16 38  1  0
 17 39  1  0
 19 40  1  0
 21 41  1  0
 22 42  1  0
M  END
$$$$
OCNT-2316083
     RDKit          3D

 40 42  0  0  0  0  0  0  0  0999 V2000
   -7.4165    0.7214   -0.4268 C   0  0  0  0  0  0  0  0  0  0  0  0
   -5.9436    0.5544   -0.1965 C   0  0  0  0  0  0  0  0  0  0  0  0
   -5.1409    1.6593    0.0798 C   0  0  0  0  0  0  0  0  0  0  0  0
   -3.7750    1.4924    0.3180 C   0  0  0  0  0  0  0  0  0  0  0  0
   -3.1703    0.2202    0.2963 C   0  0  0  0  0  0  0  0  0  0  0  0
   -1.7285    0.1653    0.5422 C   0  0  0  0  0  0  0  0  0  0  0  0
   -0.9387    1.0654    1.0966 N   0  0  0  0  0  0  0  0  0  0  0  0
    0.3393    0.5494    1.0508 N   0  0  0  0  0  0  0  0  0  0  0  0
    0.2493   -0.6238    0.4599 C   0  0  0  0  0  0  0  0  0  0  0  0
    1.5831   -1.6953    0.1583 S   0  0  0  0  0  0  0  0  0  0  0  0
    2.9736   -0.6362    0.6605 C   0  0  0  0  0  0  0  0  0  0  0  0
    4.2851   -1.4110    0.5331 C   0  0  0  0  0  0  0  0  0  0  0  0
    5.4879   -0.6004    1.0204 C   0  0  0  0  0  0  0  0  0  0  0  0
    5.7976    0.5396    0.1841 N   0  0  0  0  0  0  0  0  0  0  0  0
    6.4067    0.5009   -1.0386 C   0  0  0  0  0  0  0  0  0  0  0  0
    6.4993    1.8166   -1.4285 C   0  0  0  0  0  0  0  0  0  0  0  0
    5.9730    2.6449   -0.4714 N   0  0  0  0  0  0  0  0  0  0  0  0
    5.5649    1.8491    0.4912 C   0  0  0  0  0  0  0  0  0  0  0  0
   -1.0358   -0.9315    0.1059 O   0  0  0  0  0  0  0  0  0  0  0  0
   -3.9881   -0.9062    0.0538 C   0  0  0  0  0  0  0  0  0  0  0  0
   -3.4625   -2.3178    0.0445 C   0  0  0  0  0  0  0  0  0  0  0  0
   -5.3639   -0.7194   -0.1951 C   0  0  0  0  0  0  0  0  0  0  0  0
   -7.6313    1.6876   -0.8955 H   0  0  0  0  0  0  0  0  0  0  0  0
   -7.7979   -0.0561   -1.0972 H   0  0  0  0  0  0  0  0  0  0  0  0
   -7.9529    0.6626    0.5253 H   0  0  0  0  0  0  0  0  0  0  0  0
   -5.5676    2.6596    0.1082 H   0  0  0  0  0  0  0  0  0  0  0  0
   -3.1729    2.3786    0.5197 H   0  0  0  0  0  0  0  0  0  0  0  0
    2.8301   -0.3186    1.6990 H   0  0  0  0  0  0  0  0  0  0  0  0
    2.9866    0.2531    0.0224 H   0  0  0  0  0  0  0  0  0  0  0  0
    4.4425   -1.7185   -0.5086 H   0  0  0  0  0  0  0  0  0  0  0  0
    4.2319   -2.3264    1.1364 H   0  0  0  0  0  0  0  0  0  0  0  0
    6.3829   -1.2338    1.0324 H   0  0  0  0  0  0  0  0  0  0  0  0
    5.3290   -0.2414    2.0438 H   0  0  0  0  0  0  0  0  0  0  0  0
    6.7114   -0.4195   -1.5164 H   0  0  0  0  0  0  0  0  0  0  0  0
    6.9187    2.2117   -2.3447 H   0  0  0  0  0  0  0  0  0  0  0  0
    5.0984    2.1690    1.4143 H   0  0  0  0  0  0  0  0  0  0  0  0
   -2.8832   -2.5216    0.9507 H   0  0  0  0  0  0  0  0  0  0  0  0
   -4.2782   -3.0492    0.0251 H   0  0  0  0  0  0  0  0  0  0  0  0
   -2.8467   -2.4892   -0.8438 H   0  0  0  0  0  0  0  0  0  0  0  0
   -5.9969   -1.5852   -0.3874 H   0  0  0  0  0  0  0  0  0  0  0  0
  1  2  1  0
  2  3  1  0
  3  4  2  0
  4  5  1  0
  5  6  1  0
  6  7  2  0
  7  8  1  0
  8  9  2  0
  9 10  1  0
 10 11  1  0
 11 12  1  0
 12 13  1  0
 13 14  1  0
 14 15  1  0
 15 16  2  0
 16 17  1  0
 17 18  2  0
  9 19  1  0
  5 20  2  0
 20 21  1  0
 20 22  1  0
 22  2  2  0
 19  6  1  0
 18 14  1  0
  1 23  1  0
  1 24  1  0
  1 25  1  0
  3 26  1  0
  4 27  1  0
 11 28  1  0
 11 29  1  0
 12 30  1  0
 12 31  1  0
 13 32  1  0
 13 33  1  0
 15 34  1  0
 16 35  1  0
 18 36  1  0
 21 37  1  0
 21 38  1  0
 21 39  1  0
 22 40  1  0
M  END
$$$$
OCNT-2316089
     RDKit          3D

 42 45  0  0  0  0  0  0  0  0999 V2000
    6.1082   -2.9230    1.3073 N   0  0  0  0  0  0  0  0  0  0  0  0
    5.4311   -2.2105    0.6905 C   0  0  0  0  0  0  0  0  0  0  0  0
    4.5951   -1.3287   -0.0704 C   0  0  0  0  0  0  0  0  0  0  0  0
    4.9105   -1.0362   -1.3995 C   0  0  0  0  0  0  0  0  0  0  0  0
    4.0939   -0.1798   -2.1383 C   0  0  0  0  0  0  0  0  0  0  0  0
    2.9617    0.3829   -1.5442 C   0  0  0  0  0  0  0  0  0  0  0  0
    2.1747    1.2313   -2.2761 O   0  0  0  0  0  0  0  0  0  0  0  0
    2.6180    0.1072   -0.2075 C   0  0  0  0  0  0  0  0  0  0  0  0
    1.4251    0.6844    0.4394 C   0  0  0  0  0  0  0  0  0  0  0  0
    1.5321    1.4343    1.6185 C   0  0  0  0  0  0  0  0  0  0  0  0
    0.4001    1.9886    2.2249 C   0  0  0  0  0  0  0  0  0  0  0  0
   -0.8696    1.8161    1.6620 C   0  0  0  0  0  0  0  0  0  0  0  0
   -1.9285    2.4811    2.2969 N   0  0  0  0  0  0  0  0  0  0  0  0
   -3.0858    2.9319    1.7171 C   0  0  0  0  0  0  0  0  0  0  0  0
   -3.9028    3.5452    2.4063 O   0  0  0  0  0  0  0  0  0  0  0  0
   -3.2455    2.7600    0.2167 C   0  0  0  0  0  0  0  0  0  0  0  0
   -3.3641    1.3497   -0.1313 N   0  0  0  0  0  0  0  0  0  0  0  0
   -2.3433    0.5744    0.0161 C   0  0  0  0  0  0  0  0  0  0  0  0
   -2.5400   -0.8680   -0.3422 C   0  0  0  0  0  0  0  0  0  0  0  0
   -3.3235   -1.1898   -1.4568 C   0  0  0  0  0  0  0  0  0  0  0  0
   -3.5244   -2.5253   -1.8090 C   0  0  0  0  0  0  0  0  0  0  0  0
   -2.9534   -3.5418   -1.0436 C   0  0  0  0  0  0  0  0  0  0  0  0
   -2.1883   -3.2267    0.0796 C   0  0  0  0  0  0  0  0  0  0  0  0
   -1.9848   -1.8920    0.4359 C   0  0  0  0  0  0  0  0  0  0  0  0
   -1.0059    1.0040    0.5283 C   0  0  0  0  0  0  0  0  0  0  0  0
    0.1420    0.4738   -0.0893 C   0  0  0  0  0  0  0  0  0  0  0  0
    3.4577   -0.7597    0.5175 C   0  0  0  0  0  0  0  0  0  0  0  0
    5.7915   -1.4727   -1.8672 H   0  0  0  0  0  0  0  0  0  0  0  0
    4.3537    0.0376   -3.1705 H   0  0  0  0  0  0  0  0  0  0  0  0
    2.5598    1.3517   -3.1596 H   0  0  0  0  0  0  0  0  0  0  0  0
    2.5085    1.6195    2.0633 H   0  0  0  0  0  0  0  0  0  0  0  0
    0.5334    2.5934    3.1192 H   0  0  0  0  0  0  0  0  0  0  0  0
   -1.8001    2.8351    3.2365 H   0  0  0  0  0  0  0  0  0  0  0  0
   -4.1679    3.2689   -0.0841 H   0  0  0  0  0  0  0  0  0  0  0  0
   -2.4260    3.2555   -0.3165 H   0  0  0  0  0  0  0  0  0  0  0  0
   -3.7801   -0.4009   -2.0502 H   0  0  0  0  0  0  0  0  0  0  0  0
   -4.1330   -2.7712   -2.6754 H   0  0  0  0  0  0  0  0  0  0  0  0
   -3.1159   -4.5819   -1.3159 H   0  0  0  0  0  0  0  0  0  0  0  0
   -1.7594   -4.0221    0.6840 H   0  0  0  0  0  0  0  0  0  0  0  0
   -1.4089   -1.6667    1.3292 H   0  0  0  0  0  0  0  0  0  0  0  0
    0.0398   -0.1266   -0.9929 H   0  0  0  0  0  0  0  0  0  0  0  0
    3.2139   -1.0030    1.5516 H   0  0  0  0  0  0  0  0  0  0  0  0
  1  2  3  0
  2  3  1  0
  3  4  1  0
  4  5  2  0
  5  6  1  0
  6  7  1  0
  6  8  2  0
  8  9  1  0
  9 10  1  0
 10 11  2  0
 11 12  1  0
 12 13  1  0
 13 14  1  0
 14 15  2  0
 14 16  1  0
 16 17  1  0
 17 18  2  0
 18 19  1  0
 19 20  2  0
 20 21  1  0
 21 22  2  0
 22 23  1  0
 23 24  2  0
 18 25  1  0
 25 26  1  0
  8 27  1  0
 27  3  2  0
 26  9  2  0
 25 12  2  0
 24 19  1  0
  4 28  1  0
  5 29  1  0
  7 30  1  0
 10 31  1  0
 11 32  1  0
 13 33  1  0
 16 34  1  0
 16 35  1  0
 20 36  1  0
 21 37  1  0
 22 38  1  0
 23 39  1  0
 24 40  1  0
 26 41  1  0
 27 42  1  0
M  END
$$$$
OCNT-2316100
     RDKit          3D

 42 45  0  0  0  0  0  0  0  0999 V2000
    7.1896   -1.1800    0.9703 C   0  0  0  0  0  0  0  0  0  0  0  0
    7.1305    0.0410    0.2425 O   0  0  0  0  0  0  0  0  0  0  0  0
    5.8887    0.5115   -0.0843 C   0  0  0  0  0  0  0  0  0  0  0  0
    5.8905    1.7047   -0.8058 C   0  0  0  0  0  0  0  0  0  0  0  0
    4.6886    2.2807   -1.1955 C   0  0  0  0  0  0  0  0  0  0  0  0
    4.7012    3.4270   -1.8884 F   0  0  0  0  0  0  0  0  0  0  0  0
    3.4728    1.6889   -0.8788 C   0  0  0  0  0  0  0  0  0  0  0  0
    3.4498    0.4915   -0.1540 C   0  0  0  0  0  0  0  0  0  0  0  0
    2.1744   -0.1328    0.1822 C   0  0  0  0  0  0  0  0  0  0  0  0
    2.0585   -1.2768    0.8741 N   0  0  0  0  0  0  0  0  0  0  0  0
    0.6822   -1.4770    0.9412 O   0  0  0  0  0  0  0  0  0  0  0  0
    0.0902   -0.4260    0.2920 C   0  0  0  0  0  0  0  0  0  0  0  0
   -1.2680   -0.3844    0.2115 N   0  0  0  0  0  0  0  0  0  0  0  0
   -2.0324   -1.1339    1.2105 C   0  0  0  0  0  0  0  0  0  0  0  0
   -3.4685   -1.3388    0.7356 C   0  0  0  0  0  0  0  0  0  0  0  0
   -4.1192   -0.0036    0.3613 C   0  0  0  0  0  0  0  0  0  0  0  0
   -5.5146   -0.2023   -0.1154 C   0  0  0  0  0  0  0  0  0  0  0  0
   -6.1053   -0.8504   -1.1774 C   0  0  0  0  0  0  0  0  0  0  0  0
   -7.4672   -0.7033   -1.1187 N   0  0  0  0  0  0  0  0  0  0  0  0
   -7.6512    0.0195   -0.0377 C   0  0  0  0  0  0  0  0  0  0  0  0
   -6.5148    0.3639    0.6282 O   0  0  0  0  0  0  0  0  0  0  0  0
   -3.2699    0.7143   -0.6917 C   0  0  0  0  0  0  0  0  0  0  0  0
   -1.8376    0.9015   -0.1998 C   0  0  0  0  0  0  0  0  0  0  0  0
    0.9695    0.4198   -0.1884 N   0  0  0  0  0  0  0  0  0  0  0  0
    4.6694   -0.0919    0.2401 C   0  0  0  0  0  0  0  0  0  0  0  0
    8.2442   -1.4147    1.1439 H   0  0  0  0  0  0  0  0  0  0  0  0
    6.7053   -1.0802    1.9473 H   0  0  0  0  0  0  0  0  0  0  0  0
    6.7552   -2.0039    0.3946 H   0  0  0  0  0  0  0  0  0  0  0  0
    6.8258    2.1897   -1.0676 H   0  0  0  0  0  0  0  0  0  0  0  0
    2.5539    2.1701   -1.2026 H   0  0  0  0  0  0  0  0  0  0  0  0
   -1.5982   -2.1255    1.3874 H   0  0  0  0  0  0  0  0  0  0  0  0
   -2.0240   -0.5949    2.1665 H   0  0  0  0  0  0  0  0  0  0  0  0
   -4.0462   -1.8380    1.5235 H   0  0  0  0  0  0  0  0  0  0  0  0
   -3.4685   -2.0150   -0.1302 H   0  0  0  0  0  0  0  0  0  0  0  0
   -4.1498    0.6257    1.2619 H   0  0  0  0  0  0  0  0  0  0  0  0
   -5.6273   -1.4083   -1.9710 H   0  0  0  0  0  0  0  0  0  0  0  0
   -8.5837    0.3694    0.3820 H   0  0  0  0  0  0  0  0  0  0  0  0
   -3.7049    1.6924   -0.9320 H   0  0  0  0  0  0  0  0  0  0  0  0
   -3.2575    0.1372   -1.6263 H   0  0  0  0  0  0  0  0  0  0  0  0
   -1.2587    1.3494   -1.0175 H   0  0  0  0  0  0  0  0  0  0  0  0
   -1.8169    1.6048    0.6427 H   0  0  0  0  0  0  0  0  0  0  0  0
    4.6441   -1.0216    0.8018 H   0  0  0  0  0  0  0  0  0  0  0  0
  1  2  1  0
  2  3  1  0
  3  4  1  0
  4  5  2  0
  5  6  1  0
  5  7  1  0
  7  8  2  0
  8  9  1  0
  9 10  2  0
 10 11  1  0
 11 12  1  0
 12 13  1  0
 13 14  1  0
 14 15  1  0
 15 16  1  0
 16 17  1  0
 17 18  2  0
 18 19  1  0
 19 20  2  0
 20 21  1  0
 16 22  1  0
 22 23  1  0
 12 24  2  0
  8 25  1  0
 25  3  2  0
 24  9  1  0
 23 13  1  0
 21 17  1  0
  1 26  1  0
  1 27  1  0
  1 28  1  0
  4 29  1  0
  7 30  1  0
 14 31  1  0
 14 32  1  0
 15 33  1  0
 15 34  1  0
 16 35  1  0
 18 36  1  0
 20 37  1  0
 22 38  1  0
 22 39  1  0
 23 40  1  0
 23 41  1  0
 25 42  1  0
M  END
$$$$
OCNT-2316109
     RDKit          3D

 33 36  0  0  0  0  0  0  0  0999 V2000
    7.9929   -0.4685   -0.1220 Cl  0  0  0  0  0  0  0  0  0  0  0  0
    6.2928   -0.3074    0.0827 C   0  0  0  0  0  0  0  0  0  0  0  0
    5.4355   -0.6278   -0.9684 C   0  0  0  0  0  0  0  0  0  0  0  0
    4.0510   -0.4993   -0.8092 C   0  0  0  0  0  0  0  0  0  0  0  0
    3.5247   -0.0473    0.4098 C   0  0  0  0  0  0  0  0  0  0  0  0
    2.1239    0.0922    0.5977 N   0  0  0  0  0  0  0  0  0  0  0  0
    1.1019   -0.1626   -0.2900 C   0  0  0  0  0  0  0  0  0  0  0  0
   -0.0516    0.1382    0.3994 C   0  0  0  0  0  0  0  0  0  0  0  0
   -1.4210    0.0438   -0.0801 C   0  0  0  0  0  0  0  0  0  0  0  0
   -1.7273   -0.3910   -1.3763 C   0  0  0  0  0  0  0  0  0  0  0  0
   -3.0560   -0.4707   -1.8072 C   0  0  0  0  0  0  0  0  0  0  0  0
   -4.1072   -0.1156   -0.9465 C   0  0  0  0  0  0  0  0  0  0  0  0
   -5.4520   -0.1752   -1.3220 C   0  0  0  0  0  0  0  0  0  0  0  0
   -6.4887    0.1590   -0.5191 N   0  0  0  0  0  0  0  0  0  0  0  0
   -6.1756    0.5754    0.7249 C   0  0  0  0  0  0  0  0  0  0  0  0
   -4.8786    0.6734    1.2037 C   0  0  0  0  0  0  0  0  0  0  0  0
   -3.8186    0.3232    0.3584 C   0  0  0  0  0  0  0  0  0  0  0  0
   -2.4773    0.3977    0.7763 C   0  0  0  0  0  0  0  0  0  0  0  0
    0.2830    0.5583    1.6575 N   0  0  0  0  0  0  0  0  0  0  0  0
    1.6028    0.5276    1.7699 N   0  0  0  0  0  0  0  0  0  0  0  0
    4.3982    0.2729    1.4626 C   0  0  0  0  0  0  0  0  0  0  0  0
    5.7801    0.1421    1.2967 C   0  0  0  0  0  0  0  0  0  0  0  0
    5.8390   -0.9786   -1.9153 H   0  0  0  0  0  0  0  0  0  0  0  0
    3.4195   -0.7596   -1.6533 H   0  0  0  0  0  0  0  0  0  0  0  0
    1.2765   -0.5201   -1.2906 H   0  0  0  0  0  0  0  0  0  0  0  0
   -0.9452   -0.6754   -2.0748 H   0  0  0  0  0  0  0  0  0  0  0  0
   -3.2655   -0.8117   -2.8190 H   0  0  0  0  0  0  0  0  0  0  0  0
   -5.7443   -0.5054   -2.3155 H   0  0  0  0  0  0  0  0  0  0  0  0
   -7.0230    0.8384    1.3519 H   0  0  0  0  0  0  0  0  0  0  0  0
   -4.7038    1.0171    2.2180 H   0  0  0  0  0  0  0  0  0  0  0  0
   -2.2546    0.7378    1.7876 H   0  0  0  0  0  0  0  0  0  0  0  0
    4.0218    0.6265    2.4218 H   0  0  0  0  0  0  0  0  0  0  0  0
    6.4467    0.3926    2.1182 H   0  0  0  0  0  0  0  0  0  0  0  0
  1  2  1  0
  2  3  1  0
  3  4  2  0
  4  5  1  0
  5  6  1  0
  6  7  1  0
  7  8  2  0
  8  9  1  0
  9 10  1  0
 10 11  2  0
 11 12  1  0
 12 13  2  0
 13 14  1  0
 14 15  2  0
 15 16  1  0
 16 17  2  0
 17 18  1  0
  8 19  1  0
 19 20  2  0
  5 21  2  0
 21 22  1  0
 22  2  2  0
 20  6  1  0
 18  9  2  0
 17 12  1  0
  3 23  1  0
  4 24  1  0
  7 25  1  0
 10 26  1  0
 11 27  1  0
 13 28  1  0
 15 29  1  0
 16 30  1  0
 18 31  1  0
 21 32  1  0
 22 33  1  0
M  END
$$$$
OCNT-2316119
     RDKit          3D

 42 45  0  0  0  0  0  0  0  0999 V2000
   -2.0903    1.0415    4.0147 O   0  0  0  0  0  0  0  0  0  0  0  0
   -1.6397   -0.2387    3.5848 C   0  0  0  0  0  0  0  0  0  0  0  0
   -2.2254   -0.5644    2.2168 C   0  0  0  0  0  0  0  0  0  0  0  0
   -1.7163    0.3807    1.1120 C   0  0  0  0  0  0  0  0  0  0  0  0
   -0.2582    0.3595    0.9390 N   0  0  0  0  0  0  0  0  0  0  0  0
    0.4090   -0.7448    0.4208 C   0  0  0  0  0  0  0  0  0  0  0  0
   -0.1537   -1.9767    0.4730 N   0  0  0  0  0  0  0  0  0  0  0  0
    0.4978   -3.0264   -0.0617 C   0  0  0  0  0  0  0  0  0  0  0  0
    1.6941   -3.0320   -0.6640 N   0  0  0  0  0  0  0  0  0  0  0  0
    2.2361   -1.8074   -0.6749 C   0  0  0  0  0  0  0  0  0  0  0  0
    1.6927   -0.6397   -0.1613 C   0  0  0  0  0  0  0  0  0  0  0  0
    2.6658    0.3957   -0.3861 C   0  0  0  0  0  0  0  0  0  0  0  0
    2.7438    1.7739   -0.0768 C   0  0  0  0  0  0  0  0  0  0  0  0
    3.8718    2.5099   -0.4612 C   0  0  0  0  0  0  0  0  0  0  0  0
    4.9126    1.8915   -1.1384 C   0  0  0  0  0  0  0  0  0  0  0  0
    5.9815    2.6165   -1.4949 F   0  0  0  0  0  0  0  0  0  0  0  0
    4.8806    0.5352   -1.4522 C   0  0  0  0  0  0  0  0  0  0  0  0
    3.7471   -0.1873   -1.0600 C   0  0  0  0  0  0  0  0  0  0  0  0
    3.4528   -1.5201   -1.2196 N   0  0  0  0  0  0  0  0  0  0  0  0
   -2.4204    0.2773   -0.2389 C   0  0  0  0  0  0  0  0  0  0  0  0
   -2.5019    1.4166   -1.0635 C   0  0  0  0  0  0  0  0  0  0  0  0
   -3.1193    1.3571   -2.3174 C   0  0  0  0  0  0  0  0  0  0  0  0
   -3.6591    0.1542   -2.7672 C   0  0  0  0  0  0  0  0  0  0  0  0
   -4.4150    0.0896   -4.3122 Cl  0  0  0  0  0  0  0  0  0  0  0  0
   -3.5788   -0.9798   -1.9651 C   0  0  0  0  0  0  0  0  0  0  0  0
   -4.0863   -2.1501   -2.3810 F   0  0  0  0  0  0  0  0  0  0  0  0
   -2.9668   -0.9249   -0.7139 C   0  0  0  0  0  0  0  0  0  0  0  0
   -1.6933    1.1964    4.8897 H   0  0  0  0  0  0  0  0  0  0  0  0
   -1.9808   -0.9775    4.3173 H   0  0  0  0  0  0  0  0  0  0  0  0
   -0.5457   -0.2458    3.5725 H   0  0  0  0  0  0  0  0  0  0  0  0
   -3.3179   -0.4685    2.2757 H   0  0  0  0  0  0  0  0  0  0  0  0
   -2.0183   -1.6141    1.9921 H   0  0  0  0  0  0  0  0  0  0  0  0
   -1.9528    1.3918    1.4734 H   0  0  0  0  0  0  0  0  0  0  0  0
    0.0841    1.2137    0.5193 H   0  0  0  0  0  0  0  0  0  0  0  0
   -0.0109   -3.9834    0.0017 H   0  0  0  0  0  0  0  0  0  0  0  0
    1.9500    2.2735    0.4691 H   0  0  0  0  0  0  0  0  0  0  0  0
    3.9426    3.5680   -0.2274 H   0  0  0  0  0  0  0  0  0  0  0  0
    5.7097    0.0723   -1.9752 H   0  0  0  0  0  0  0  0  0  0  0  0
    4.0431   -2.2076   -1.6630 H   0  0  0  0  0  0  0  0  0  0  0  0
   -2.0826    2.3642   -0.7294 H   0  0  0  0  0  0  0  0  0  0  0  0
   -3.1728    2.2497   -2.9353 H   0  0  0  0  0  0  0  0  0  0  0  0
   -2.9091   -1.8395   -0.1313 H   0  0  0  0  0  0  0  0  0  0  0  0
  1  2  1  0
  2  3  1  0
  3  4  1  0
  4  5  1  0
  5  6  1  0
  6  7  1  0
  7  8  2  0
  8  9  1  0
  9 10  2  0
 10 11  1  0
 11 12  1  0
 12 13  2  0
 13 14  1  0
 14 15  2  0
 15 16  1  0
 15 17  1  0
 17 18  2  0
 18 19  1  0
  4 20  1  0
 20 21  1  0
 21 22  2  0
 22 23  1  0
 23 24  1  0
 23 25  2  0
 25 26  1  0
 25 27  1  0
 11  6  2  0
 18 12  1  0
 27 20  2  0
 19 10  1  0
  1 28  1  0
  2 29  1  0
  2 30  1  0
  3 31  1  0
  3 32  1  0
  4 33  1  0
  5 34  1  0
  8 35  1  0
 13 36  1  0
 14 37  1  0
 17 38  1  0
 19 39  1  0
 21 40  1  0
 22 41  1  0
 27 42  1  0
M  END
$$$$
OCNT-2316120
     RDKit          3D

 41 44  0  0  0  0  0  0  0  0999 V2000
    5.5094    1.8975   -0.9537 C   0  0  0  0  0  0  0  0  0  0  0  0
    5.0071    0.5604   -0.4843 C   0  0  0  0  0  0  0  0  0  0  0  0
    5.9200   -0.5122   -0.4102 C   0  0  0  0  0  0  0  0  0  0  0  0
    5.5264   -1.7799    0.0144 C   0  0  0  0  0  0  0  0  0  0  0  0
    4.2058   -2.0330    0.3842 C   0  0  0  0  0  0  0  0  0  0  0  0
    3.3006   -0.9696    0.3122 C   0  0  0  0  0  0  0  0  0  0  0  0
    3.6636    0.3101   -0.1110 C   0  0  0  0  0  0  0  0  0  0  0  0
    2.4821    1.1086   -0.0550 C   0  0  0  0  0  0  0  0  0  0  0  0
    1.4427    0.3182    0.3910 C   0  0  0  0  0  0  0  0  0  0  0  0
    0.0102    0.6275    0.6464 C   0  0  0  0  0  0  0  0  0  0  0  0
   -0.8167   -0.4346    0.0808 N   0  0  0  0  0  0  0  0  0  0  0  0
   -2.2507   -0.2528    0.3594 C   0  0  0  0  0  0  0  0  0  0  0  0
   -2.9825   -1.5658   -0.0400 C   0  0  0  0  0  0  0  0  0  0  0  0
   -4.4836   -1.5360    0.3191 C   0  0  0  0  0  0  0  0  0  0  0  0
   -5.0892   -0.2398   -0.0692 C   0  0  0  0  0  0  0  0  0  0  0  0
   -4.3463    0.8807   -0.3583 C   0  0  0  0  0  0  0  0  0  0  0  0
   -2.8664    0.9817   -0.3717 C   0  0  0  0  0  0  0  0  0  0  0  0
   -5.2329    1.8690   -0.6583 N   0  0  0  0  0  0  0  0  0  0  0  0
   -6.5135    1.4620   -0.5736 N   0  0  0  0  0  0  0  0  0  0  0  0
   -6.4231    0.1764   -0.2147 C   0  0  0  0  0  0  0  0  0  0  0  0
    1.9591   -0.9355    0.6117 N   0  0  0  0  0  0  0  0  0  0  0  0
    5.9063    1.8133   -1.9706 H   0  0  0  0  0  0  0  0  0  0  0  0
    6.3024    2.2551   -0.2890 H   0  0  0  0  0  0  0  0  0  0  0  0
    4.7147    2.6488   -0.9636 H   0  0  0  0  0  0  0  0  0  0  0  0
    6.9596   -0.3523   -0.6907 H   0  0  0  0  0  0  0  0  0  0  0  0
    6.2583   -2.5829    0.0584 H   0  0  0  0  0  0  0  0  0  0  0  0
    3.8984   -3.0193    0.7152 H   0  0  0  0  0  0  0  0  0  0  0  0
    2.4056    2.1561   -0.3145 H   0  0  0  0  0  0  0  0  0  0  0  0
   -0.2344    1.5970    0.1988 H   0  0  0  0  0  0  0  0  0  0  0  0
   -0.1462    0.7027    1.7290 H   0  0  0  0  0  0  0  0  0  0  0  0
   -0.6620   -0.4609   -0.9281 H   0  0  0  0  0  0  0  0  0  0  0  0
   -2.3888   -0.1276    1.4427 H   0  0  0  0  0  0  0  0  0  0  0  0
   -2.5200   -2.4286    0.4558 H   0  0  0  0  0  0  0  0  0  0  0  0
   -2.8757   -1.7261   -1.1220 H   0  0  0  0  0  0  0  0  0  0  0  0
   -4.9974   -2.3671   -0.1763 H   0  0  0  0  0  0  0  0  0  0  0  0
   -4.6002   -1.6735    1.4008 H   0  0  0  0  0  0  0  0  0  0  0  0
   -2.5246    1.0121   -1.4139 H   0  0  0  0  0  0  0  0  0  0  0  0
   -2.5443    1.9099    0.1132 H   0  0  0  0  0  0  0  0  0  0  0  0
   -5.0492    2.8301   -0.9277 H   0  0  0  0  0  0  0  0  0  0  0  0
   -7.3321   -0.3945   -0.0746 H   0  0  0  0  0  0  0  0  0  0  0  0
    1.4078   -1.7251    0.9199 H   0  0  0  0  0  0  0  0  0  0  0  0
  1  2  1  0
  2  3  1  0
  3  4  2  0
  4  5  1  0
  5  6  2  0
  6  7  1  0
  7  8  1  0
  8  9  2  0
  9 10  1  0
 10 11  1  0
 11 12  1  0
 12 13  1  0
 13 14  1  0
 14 15  1  0
 15 16  2  0
 16 17  1  0
 16 18  1  0
 18 19  1  0
 19 20  2  0
  9 21  1  0
  7  2  2  0
 17 12  1  0
 21  6  1  0
 20 15  1  0
  1 22  1  0
  1 23  1  0
  1 24  1  0
  3 25  1  0
  4 26  1  0
  5 27  1  0
  8 28  1  0
 10 29  1  0
 10 30  1  0
 11 31  1  0
 12 32  1  0
 13 33  1  0
 13 34  1  0
 14 35  1  0
 14 36  1  0
 17 37  1  0
 17 38  1  0
 18 39  1  0
 20 40  1  0
 21 41  1  0
M  END
$$$$
OCNT-2316133
     RDKit          3D

  0  0  0  0  0  0  0  0  0  0999 V3000
M  V30 BEGIN CTAB
M  V30 COUNTS 55 58 0 0 0
M  V30 BEGIN ATOM
M  V30 1 C 8.728343 2.357725 0.412469 0
M  V30 2 O 7.708169 1.918411 1.298387 0
M  V30 3 C 6.742063 1.106534 0.772657 0
M  V30 4 C 5.723235 0.758250 1.657567 0
M  V30 5 C 4.670011 -0.063510 1.244598 0
M  V30 6 C 4.601710 -0.557879 -0.065222 0
M  V30 7 C 3.467744 -1.452746 -0.504505 0 CFG=2
M  V30 8 C 2.687033 -1.136206 -1.754405 0
M  V30 9 C 2.033458 -0.947059 -0.408706 0 CFG=1
M  V30 10 C 0.954306 -1.872400 0.035979 0
M  V30 11 O 1.241714 -2.848631 0.719724 0
M  V30 12 N -0.342637 -1.561170 -0.355753 0
M  V30 13 C -0.678240 -0.407477 -1.187368 0
M  V30 14 C -2.088075 -0.500949 -1.763516 0
M  V30 15 C -3.156766 -0.677115 -0.668722 0
M  V30 16 C -3.592031 0.688250 -0.124439 0
M  V30 17 O -2.833948 1.658123 -0.190669 0
M  V30 18 N -4.836782 0.783545 0.476839 0
M  V30 19 C -5.278089 2.083933 0.994015 0
M  V30 20 C -6.775979 2.291907 0.749908 0
M  V30 21 O -7.606645 1.278010 1.334213 0
M  V30 22 C -6.940553 0.027996 1.545209 0
M  V30 23 C -5.859944 -0.267239 0.500589 0
M  V30 24 C -2.659348 -1.565114 0.486439 0
M  V30 25 C -1.439256 -2.398292 0.110130 0
M  V30 26 C 5.645097 -0.210675 -0.936362 0
M  V30 27 C 6.702040 0.614235 -0.528983 0
M  V30 28 H 9.398269 3.016073 0.973516 0
M  V30 29 H 9.321040 1.514838 0.044559 0
M  V30 30 H 8.308315 2.938544 -0.415708 0
M  V30 31 H 5.747519 1.127340 2.678801 0
M  V30 32 H 3.892313 -0.324446 1.958277 0
M  V30 33 H 3.621414 -2.511572 -0.299491 0
M  V30 34 H 2.930777 -0.243416 -2.318138 0
M  V30 35 H 2.368407 -1.971777 -2.368001 0
M  V30 36 H 1.906040 0.071273 -0.055877 0
M  V30 37 H 0.041700 -0.333660 -2.007950 0
M  V30 38 H -0.560588 0.487186 -0.566981 0
M  V30 39 H -2.133345 -1.367257 -2.436914 0
M  V30 40 H -2.297160 0.379428 -2.382339 0
M  V30 41 H -4.022147 -1.143610 -1.153485 0
M  V30 42 H -5.070531 2.075168 2.070366 0
M  V30 43 H -4.706577 2.902172 0.544665 0
M  V30 44 H -6.984663 2.304348 -0.325792 0
M  V30 45 H -7.097286 3.255294 1.157702 0
M  V30 46 H -6.503816 0.047330 2.549853 0
M  V30 47 H -7.701941 -0.757923 1.535346 0
M  V30 48 H -6.301122 -0.295540 -0.502326 0
M  V30 49 H -5.404314 -1.236671 0.703423 0
M  V30 50 H -2.410292 -0.949779 1.360616 0
M  V30 51 H -3.458148 -2.242536 0.806136 0
M  V30 52 H -1.127988 -3.000388 0.970427 0
M  V30 53 H -1.685592 -3.096005 -0.699135 0
M  V30 54 H 5.638558 -0.591460 -1.954868 0
M  V30 55 H 7.474527 0.846585 -1.253379 0
M  V30 END ATOM
M  V30 BEGIN BOND
M  V30 1 1 1 2
M  V30 2 1 2 3
M  V30 3 1 3 4
M  V30 4 2 4 5
M  V30 5 1 5 6
M  V30 6 1 6 7
M  V30 7 1 7 8
M  V30 8 1 8 9
M  V30 9 1 9 10
M  V30 10 2 10 11
M  V30 11 1 10 12
M  V30 12 1 12 13
M  V30 13 1 13 14
M  V30 14 1 14 15
M  V30 15 1 15 16
M  V30 16 2 16 17
M  V30 17 1 16 18
M  V30 18 1 18 19
M  V30 19 1 19 20
M  V30 20 1 20 21
M  V30 21 1 21 22
M  V30 22 1 22 23
M  V30 23 1 15 24
M  V30 24 1 24 25
M  V30 25 2 6 26
M  V30 26 1 26 27
M  V30 27 2 27 3
M  V30 28 1 9 7
M  V30 29 1 25 12
M  V30 30 1 23 18
M  V30 31 1 1 28
M  V30 32 1 1 29
M  V30 33 1 1 30
M  V30 34 1 4 31
M  V30 35 1 5 32
M  V30 36 1 7 33 CFG=3
M  V30 37 1 8 34
M  V30 38 1 8 35
M  V30 39 1 9 36 CFG=1
M  V30 40 1 13 37
M  V30 41 1 13 38
M  V30 42 1 14 39
M  V30 43 1 14 40
M  V30 44 1 15 41
M  V30 45 1 19 42
M  V30 46 1 19 43
M  V30 47 1 20 44
M  V30 48 1 20 45
M  V30 49 1 22 46
M  V30 50 1 22 47
M  V30 51 1 23 48
M  V30 52 1 23 49
M  V30 53 1 24 50
M  V30 54 1 24 51
M  V30 55 1 25 52
M  V30 56 1 25 53
M  V30 57 1 26 54
M  V30 58 1 27 55
M  V30 END BOND
M  V30 BEGIN COLLECTION
M  V30 MDLV30/STERAC1 ATOMS=(2 7 9)
M  V30 END COLLECTION
M  V30 END CTAB
M  END
>  <_CXSMILES_Data>  (1068) 
|&1:6,8|

$$$$
OCNT-2316136
     RDKit          3D

 44 46  0  0  0  0  0  0  0  0999 V2000
    3.2033    1.8455    0.4869 C   0  0  0  0  0  0  0  0  0  0  0  0
    4.0289    0.5869    0.4865 C   0  0  0  0  0  0  0  0  0  0  0  0
    5.2068    0.5547   -0.2803 C   0  0  0  0  0  0  0  0  0  0  0  0
    6.0134   -0.5834   -0.3117 C   0  0  0  0  0  0  0  0  0  0  0  0
    5.6501   -1.7029    0.4263 C   0  0  0  0  0  0  0  0  0  0  0  0
    6.7373   -3.2488    0.3833 Br  0  0  0  0  0  0  0  0  0  0  0  0
    4.4890   -1.6929    1.1967 C   0  0  0  0  0  0  0  0  0  0  0  0
    3.6618   -0.5513    1.2404 C   0  0  0  0  0  0  0  0  0  0  0  0
    2.4100   -0.5988    2.0935 C   0  0  0  0  0  0  0  0  0  0  0  0
    1.3608   -1.2496    1.2677 C   0  0  0  0  0  0  0  0  0  0  0  0
    1.0875   -2.5603    1.3528 N   0  0  0  0  0  0  0  0  0  0  0  0
    0.0443   -2.7311    0.4415 O   0  0  0  0  0  0  0  0  0  0  0  0
   -0.2150   -1.5000   -0.0877 C   0  0  0  0  0  0  0  0  0  0  0  0
   -1.2857   -1.4240   -1.1184 C   0  0  0  0  0  0  0  0  0  0  0  0
   -2.3338   -0.4820   -0.7139 N   0  0  0  0  0  0  0  0  0  0  0  0
   -2.0515    0.9455   -0.8652 C   0  0  0  0  0  0  0  0  0  0  0  0
   -3.0566    1.6455   -1.7727 C   0  0  0  0  0  0  0  0  0  0  0  0
   -4.3718    1.9896   -1.0834 C   0  0  0  0  0  0  0  0  0  0  0  0
   -5.1408    0.7787   -0.5609 C   0  0  0  0  0  0  0  0  0  0  0  0
   -4.4499    0.0060    0.5626 C   0  0  0  0  0  0  0  0  0  0  0  0
   -3.9586    0.8903    1.5589 O   0  0  0  0  0  0  0  0  0  0  0  0
   -3.3875   -0.9780    0.0353 C   0  0  0  0  0  0  0  0  0  0  0  0
   -3.4867   -2.1794    0.2978 O   0  0  0  0  0  0  0  0  0  0  0  0
    0.5591   -0.5507    0.3961 N   0  0  0  0  0  0  0  0  0  0  0  0
    3.1886    2.2887    1.4875 H   0  0  0  0  0  0  0  0  0  0  0  0
    3.6139    2.5950   -0.1981 H   0  0  0  0  0  0  0  0  0  0  0  0
    2.1803    1.6375    0.1610 H   0  0  0  0  0  0  0  0  0  0  0  0
    5.5058    1.4233   -0.8642 H   0  0  0  0  0  0  0  0  0  0  0  0
    6.9178   -0.5838   -0.9142 H   0  0  0  0  0  0  0  0  0  0  0  0
    4.2145   -2.5810    1.7649 H   0  0  0  0  0  0  0  0  0  0  0  0
    2.6012   -1.1657    3.0124 H   0  0  0  0  0  0  0  0  0  0  0  0
    2.0922    0.3993    2.4091 H   0  0  0  0  0  0  0  0  0  0  0  0
   -1.7203   -2.4158   -1.2890 H   0  0  0  0  0  0  0  0  0  0  0  0
   -0.8678   -1.0908   -2.0754 H   0  0  0  0  0  0  0  0  0  0  0  0
   -1.0585    1.0553   -1.3180 H   0  0  0  0  0  0  0  0  0  0  0  0
   -2.0002    1.4147    0.1226 H   0  0  0  0  0  0  0  0  0  0  0  0
   -2.6107    2.5850   -2.1221 H   0  0  0  0  0  0  0  0  0  0  0  0
   -3.2507    1.0371   -2.6643 H   0  0  0  0  0  0  0  0  0  0  0  0
   -4.1866    2.6994   -0.2682 H   0  0  0  0  0  0  0  0  0  0  0  0
   -5.0090    2.5171   -1.8043 H   0  0  0  0  0  0  0  0  0  0  0  0
   -5.3830    0.1040   -1.3912 H   0  0  0  0  0  0  0  0  0  0  0  0
   -6.0961    1.1553   -0.1719 H   0  0  0  0  0  0  0  0  0  0  0  0
   -5.2182   -0.6130    1.0445 H   0  0  0  0  0  0  0  0  0  0  0  0
   -3.6275    0.3289    2.2838 H   0  0  0  0  0  0  0  0  0  0  0  0
  1  2  1  0
  2  3  1  0
  3  4  2  0
  4  5  1  0
  5  6  1  0
  5  7  2  0
  7  8  1  0
  8  9  1  0
  9 10  1  0
 10 11  2  0
 11 12  1  0
 12 13  1  0
 13 14  1  0
 14 15  1  0
 15 16  1  0
 16 17  1  0
 17 18  1  0
 18 19  1  0
 19 20  1  0
 20 21  1  0
 20 22  1  0
 22 23  2  0
 13 24  2  0
  8  2  2  0
 24 10  1  0
 22 15  1  0
  1 25  1  0
  1 26  1  0
  1 27  1  0
  3 28  1  0
  4 29  1  0
  7 30  1  0
  9 31  1  0
  9 32  1  0
 14 33  1  0
 14 34  1  0
 16 35  1  0
 16 36  1  0
 17 37  1  0
 17 38  1  0
 18 39  1  0
 18 40  1  0
 19 41  1  0
 19 42  1  0
 20 43  1  0
 21 44  1  0
M  END
$$$$
OCNT-2316175
     RDKit          3D

 45 47  0  0  0  0  0  0  0  0999 V2000
   -3.2639    2.0757    1.5380 C   0  0  0  0  0  0  0  0  0  0  0  0
   -3.0956    0.9368    0.5276 C   0  0  2  0  0  0  0  0  0  0  0  0
   -4.2392   -0.0979    0.6668 C   0  0  0  0  0  0  0  0  0  0  0  0
   -3.9946   -1.3239   -0.0352 O   0  0  0  0  0  0  0  0  0  0  0  0
   -3.0803   -1.1404   -1.1224 C   0  0  0  0  0  0  0  0  0  0  0  0
   -1.6620   -0.7076   -0.6070 C   0  0  1  0  0  0  0  0  0  0  0  0
   -0.8760   -2.0204   -0.2711 C   0  0  0  0  0  0  0  0  0  0  0  0
   -0.6245   -2.8266   -1.4238 O   0  0  0  0  0  0  0  0  0  0  0  0
   -0.9628    0.0236   -1.8008 C   0  0  0  0  0  0  0  0  0  0  0  0
    0.3381    0.5745   -1.4502 N   0  0  0  0  0  0  0  0  0  0  0  0
    1.4974   -0.1463   -1.6164 C   0  0  0  0  0  0  0  0  0  0  0  0
    1.5467   -1.2460   -2.1557 O   0  0  0  0  0  0  0  0  0  0  0  0
    2.7025    0.4515   -1.0319 C   0  0  0  0  0  0  0  0  0  0  0  0
    3.2483    1.6718   -1.4513 C   0  0  0  0  0  0  0  0  0  0  0  0
    2.5428    2.6009   -2.7278 Cl  0  0  0  0  0  0  0  0  0  0  0  0
    4.4103    2.1789   -0.8559 C   0  0  0  0  0  0  0  0  0  0  0  0
    5.0628    1.4833    0.1732 C   0  0  0  0  0  0  0  0  0  0  0  0
    4.5280    0.2573    0.6051 C   0  0  0  0  0  0  0  0  0  0  0  0
    3.3720   -0.2210   -0.0069 C   0  0  0  0  0  0  0  0  0  0  0  0
    3.0057   -1.4062    0.5638 O   0  0  0  0  0  0  0  0  0  0  0  0
    3.9272   -1.6974    1.5163 C   0  0  0  0  0  0  0  0  0  0  0  0
    4.8809   -0.7091    1.5841 C   0  0  0  0  0  0  0  0  0  0  0  0
   -1.7476    0.3081    0.5335 N   0  0  0  0  0  0  0  0  0  0  0  0
   -1.4084   -0.2482    1.8459 C   0  0  0  0  0  0  0  0  0  0  0  0
   -4.1916    2.6236    1.3378 H   0  0  0  0  0  0  0  0  0  0  0  0
   -3.3174    1.7129    2.5692 H   0  0  0  0  0  0  0  0  0  0  0  0
   -2.4368    2.7899    1.4637 H   0  0  0  0  0  0  0  0  0  0  0  0
   -3.2022    1.4195   -0.4538 H   0  0  0  0  0  0  0  0  0  0  0  0
   -5.1733    0.3273    0.2823 H   0  0  0  0  0  0  0  0  0  0  0  0
   -4.4096   -0.3621    1.7162 H   0  0  0  0  0  0  0  0  0  0  0  0
   -3.0348   -2.0862   -1.6726 H   0  0  0  0  0  0  0  0  0  0  0  0
   -3.5132   -0.4061   -1.8143 H   0  0  0  0  0  0  0  0  0  0  0  0
   -1.4463   -2.6380    0.4313 H   0  0  0  0  0  0  0  0  0  0  0  0
    0.0945   -1.8144    0.1900 H   0  0  0  0  0  0  0  0  0  0  0  0
    0.2166   -2.4931   -1.8139 H   0  0  0  0  0  0  0  0  0  0  0  0
   -0.8584   -0.6353   -2.6702 H   0  0  0  0  0  0  0  0  0  0  0  0
   -1.5646    0.8803   -2.1276 H   0  0  0  0  0  0  0  0  0  0  0  0
    0.3266    1.3585   -0.8085 H   0  0  0  0  0  0  0  0  0  0  0  0
    4.8275    3.1258   -1.1953 H   0  0  0  0  0  0  0  0  0  0  0  0
    5.9656    1.8875    0.6232 H   0  0  0  0  0  0  0  0  0  0  0  0
    3.7689   -2.6253    2.0489 H   0  0  0  0  0  0  0  0  0  0  0  0
    5.7265   -0.6881    2.2569 H   0  0  0  0  0  0  0  0  0  0  0  0
   -1.4605    0.5158    2.6279 H   0  0  0  0  0  0  0  0  0  0  0  0
   -2.0581   -1.0790    2.1393 H   0  0  0  0  0  0  0  0  0  0  0  0
   -0.3674   -0.5851    1.8715 H   0  0  0  0  0  0  0  0  0  0  0  0
  1  2  1  0
  2  3  1  0
  3  4  1  0
  4  5  1  0
  5  6  1  0
  6  7  1  1
  7  8  1  0
  6  9  1  0
  9 10  1  0
 10 11  1  0
 11 12  2  0
 11 13  1  0
 13 14  1  0
 14 15  1  0
 14 16  2  0
 16 17  1  0
 17 18  2  0
 18 19  1  0
 19 20  1  0
 20 21  1  0
 21 22  2  0
  6 23  1  0
 23 24  1  0
 23  2  1  0
 19 13  2  0
 22 18  1  0
  1 25  1  0
  1 26  1  0
  1 27  1  0
  2 28  1  6
  3 29  1  0
  3 30  1  0
  5 31  1  0
  5 32  1  0
  7 33  1  0
  7 34  1  0
  8 35  1  0
  9 36  1  0
  9 37  1  0
 10 38  1  0
 16 39  1  0
 17 40  1  0
 21 41  1  0
 22 42  1  0
 24 43  1  0
 24 44  1  0
 24 45  1  0
M  END
$$$$
OCNT-2316176
     RDKit          3D

 56 58  0  0  0  0  0  0  0  0999 V2000
   -3.0470    4.1535    0.7127 C   0  0  0  0  0  0  0  0  0  0  0  0
   -2.5223    2.9585    0.1366 O   0  0  0  0  0  0  0  0  0  0  0  0
   -2.9860    1.8139    0.7157 C   0  0  0  0  0  0  0  0  0  0  0  0
   -3.7976    1.7987    1.6358 O   0  0  0  0  0  0  0  0  0  0  0  0
   -2.4680    0.6068    0.0925 C   0  0  0  0  0  0  0  0  0  0  0  0
   -3.0353   -0.6569    0.1827 C   0  0  0  0  0  0  0  0  0  0  0  0
   -4.2398   -1.1724    0.8968 C   0  0  0  0  0  0  0  0  0  0  0  0
   -4.6755   -2.5430    0.3678 C   0  0  0  0  0  0  0  0  0  0  0  0
   -3.4758   -3.4794    0.2111 C   0  0  0  0  0  0  0  0  0  0  0  0
   -2.4607   -2.8987   -0.7724 C   0  0  0  0  0  0  0  0  0  0  0  0
   -2.2303   -1.4847   -0.5436 N   0  0  0  0  0  0  0  0  0  0  0  0
   -1.1965   -0.8666   -1.1239 N   0  0  0  0  0  0  0  0  0  0  0  0
   -1.2984    0.4079   -0.7075 C   0  0  0  0  0  0  0  0  0  0  0  0
   -0.2387    1.4031   -1.0979 C   0  0  0  0  0  0  0  0  0  0  0  0
    0.4522    1.9340    0.0845 N   0  0  0  0  0  0  0  0  0  0  0  0
    1.3105    0.9951    0.8214 C   0  0  0  0  0  0  0  0  0  0  0  0
    2.4785    0.1881    0.1897 C   0  0  0  0  0  0  0  0  0  0  0  0
    3.4506    1.0012   -0.6813 C   0  0  0  0  0  0  0  0  0  0  0  0
    4.4524    0.1312   -1.4520 C   0  0  0  0  0  0  0  0  0  0  0  0
    4.5990   -1.2643   -0.8607 C   0  0  0  0  0  0  0  0  0  0  0  0
    3.2563   -2.0151   -0.8384 C   0  0  0  0  0  0  0  0  0  0  0  0
    3.3188   -3.1718    0.1610 C   0  0  0  0  0  0  0  0  0  0  0  0
    2.0551   -1.0880   -0.5486 C   0  0  0  0  0  0  0  0  0  0  0  0
    1.3094    3.0109   -0.3935 O   0  0  0  0  0  0  0  0  0  0  0  0
    0.8998    4.2274    0.2239 C   0  0  0  0  0  0  0  0  0  0  0  0
   -4.1385    4.1757    0.6322 H   0  0  0  0  0  0  0  0  0  0  0  0
   -2.7313    4.2445    1.7567 H   0  0  0  0  0  0  0  0  0  0  0  0
   -2.6452    5.0038    0.1547 H   0  0  0  0  0  0  0  0  0  0  0  0
   -4.0049   -1.2528    1.9652 H   0  0  0  0  0  0  0  0  0  0  0  0
   -5.0742   -0.4692    0.7975 H   0  0  0  0  0  0  0  0  0  0  0  0
   -5.4115   -2.9836    1.0496 H   0  0  0  0  0  0  0  0  0  0  0  0
   -5.1697   -2.4233   -0.6049 H   0  0  0  0  0  0  0  0  0  0  0  0
   -3.8050   -4.4651   -0.1355 H   0  0  0  0  0  0  0  0  0  0  0  0
   -3.0006   -3.6235    1.1897 H   0  0  0  0  0  0  0  0  0  0  0  0
   -1.5004   -3.4179   -0.6870 H   0  0  0  0  0  0  0  0  0  0  0  0
   -2.8241   -2.9913   -1.8021 H   0  0  0  0  0  0  0  0  0  0  0  0
   -0.7395    2.2260   -1.6239 H   0  0  0  0  0  0  0  0  0  0  0  0
    0.4643    0.9788   -1.8212 H   0  0  0  0  0  0  0  0  0  0  0  0
    1.7517    1.5801    1.6415 H   0  0  0  0  0  0  0  0  0  0  0  0
    0.6553    0.2820    1.3392 H   0  0  0  0  0  0  0  0  0  0  0  0
    3.0573   -0.1526    1.0623 H   0  0  0  0  0  0  0  0  0  0  0  0
    3.9937    1.7086   -0.0427 H   0  0  0  0  0  0  0  0  0  0  0  0
    2.9150    1.5971   -1.4260 H   0  0  0  0  0  0  0  0  0  0  0  0
    5.4263    0.6331   -1.4830 H   0  0  0  0  0  0  0  0  0  0  0  0
    4.1200    0.0406   -2.4942 H   0  0  0  0  0  0  0  0  0  0  0  0
    5.3287   -1.8393   -1.4436 H   0  0  0  0  0  0  0  0  0  0  0  0
    5.0124   -1.1810    0.1527 H   0  0  0  0  0  0  0  0  0  0  0  0
    3.0942   -2.4572   -1.8308 H   0  0  0  0  0  0  0  0  0  0  0  0
    3.4389   -2.8059    1.1863 H   0  0  0  0  0  0  0  0  0  0  0  0
    2.4023   -3.7700    0.1203 H   0  0  0  0  0  0  0  0  0  0  0  0
    4.1603   -3.8352   -0.0648 H   0  0  0  0  0  0  0  0  0  0  0  0
    1.2895   -1.6276    0.0202 H   0  0  0  0  0  0  0  0  0  0  0  0
    1.6053   -0.8225   -1.5107 H   0  0  0  0  0  0  0  0  0  0  0  0
    1.6054    5.0109   -0.0653 H   0  0  0  0  0  0  0  0  0  0  0  0
    0.9103    4.1346    1.3147 H   0  0  0  0  0  0  0  0  0  0  0  0
   -0.0964    4.5124   -0.1251 H   0  0  0  0  0  0  0  0  0  0  0  0
  1  2  1  0
  2  3  1  0
  3  4  2  0
  3  5  1  0
  5  6  2  0
  6  7  1  0
  7  8  1  0
  8  9  1  0
  9 10  1  0
 10 11  1  0
 11 12  1  0
 12 13  2  0
 13 14  1  0
 14 15  1  0
 15 16  1  0
 16 17  1  0
 17 18  1  0
 18 19  1  0
 19 20  1  0
 20 21  1  0
 21 22  1  0
 21 23  1  0
 15 24  1  0
 24 25  1  0
 13  5  1  0
 23 17  1  0
 11  6  1  0
  1 26  1  0
  1 27  1  0
  1 28  1  0
  7 29  1  0
  7 30  1  0
  8 31  1  0
  8 32  1  0
  9 33  1  0
  9 34  1  0
 10 35  1  0
 10 36  1  0
 14 37  1  0
 14 38  1  0
 16 39  1  0
 16 40  1  0
 17 41  1  0
 18 42  1  0
 18 43  1  0
 19 44  1  0
 19 45  1  0
 20 46  1  0
 20 47  1  0
 21 48  1  0
 22 49  1  0
 22 50  1  0
 22 51  1  0
 23 52  1  0
 23 53  1  0
 25 54  1  0
 25 55  1  0
 25 56  1  0
M  END
$$$$
OCNT-2316179
     RDKit          3D

 52 54  0  0  0  0  0  0  0  0999 V2000
    2.2936   -0.9674    3.2014 C   0  0  0  0  0  0  0  0  0  0  0  0
    2.3712   -0.2109    1.9272 C   0  0  0  0  0  0  0  0  0  0  0  0
    3.5556   -0.0148    1.3422 N   0  0  0  0  0  0  0  0  0  0  0  0
    3.2701    0.6873    0.2283 N   0  0  0  0  0  0  0  0  0  0  0  0
    4.3590    1.0637   -0.6709 C   0  0  0  0  0  0  0  0  0  0  0  0
    5.1201   -0.1618   -1.1786 C   0  0  0  0  0  0  0  0  0  0  0  0
    5.3003    2.0690   -0.0084 C   0  0  0  0  0  0  0  0  0  0  0  0
    1.9328    0.9702    0.0983 C   0  0  0  0  0  0  0  0  0  0  0  0
    1.3607    1.7541   -1.0262 C   0  0  0  0  0  0  0  0  0  0  0  0
    1.3086    0.3737    1.1854 C   0  0  0  0  0  0  0  0  0  0  0  0
   -0.1486    0.3636    1.5246 C   0  0  0  0  0  0  0  0  0  0  0  0
   -0.9058   -0.3931    0.5137 N   0  0  0  0  0  0  0  0  0  0  0  0
   -0.5826   -1.8317    0.5412 C   0  0  0  0  0  0  0  0  0  0  0  0
   -1.6987   -2.7163   -0.0324 C   0  0  0  0  0  0  0  0  0  0  0  0
   -2.4432   -2.0003   -1.1522 C   0  0  0  0  0  0  0  0  0  0  0  0
   -3.0516   -0.6597   -0.6632 C   0  0  0  0  0  0  0  0  0  0  0  0
   -4.5755   -0.7994   -0.4242 C   0  0  0  0  0  0  0  0  0  0  0  0
   -5.1554    0.6061   -0.3117 C   0  0  0  0  0  0  0  0  0  0  0  0
   -4.2518    1.5781   -1.5038 S   0  0  0  0  0  0  0  0  0  0  0  0
   -5.0482    1.6880   -2.7085 O   0  0  0  0  0  0  0  0  0  0  0  0
   -3.7075    2.7388   -0.8304 O   0  0  0  0  0  0  0  0  0  0  0  0
   -2.9402    0.3954   -1.7895 C   0  0  0  0  0  0  0  0  0  0  0  0
   -2.3441   -0.1691    0.6344 C   0  0  0  0  0  0  0  0  0  0  0  0
    1.8110   -0.3630    3.9759 H   0  0  0  0  0  0  0  0  0  0  0  0
    3.2875   -1.2482    3.5654 H   0  0  0  0  0  0  0  0  0  0  0  0
    1.7128   -1.8849    3.0652 H   0  0  0  0  0  0  0  0  0  0  0  0
    3.9051    1.5504   -1.5408 H   0  0  0  0  0  0  0  0  0  0  0  0
    4.4372   -0.8775   -1.6495 H   0  0  0  0  0  0  0  0  0  0  0  0
    5.6395   -0.6821   -0.3662 H   0  0  0  0  0  0  0  0  0  0  0  0
    5.8690    0.1300   -1.9224 H   0  0  0  0  0  0  0  0  0  0  0  0
    5.8113    1.6338    0.8576 H   0  0  0  0  0  0  0  0  0  0  0  0
    6.0650    2.4074   -0.7154 H   0  0  0  0  0  0  0  0  0  0  0  0
    4.7487    2.9493    0.3398 H   0  0  0  0  0  0  0  0  0  0  0  0
    1.8706    2.7174   -1.1281 H   0  0  0  0  0  0  0  0  0  0  0  0
    1.4584    1.2026   -1.9666 H   0  0  0  0  0  0  0  0  0  0  0  0
    0.2985    1.9640   -0.8694 H   0  0  0  0  0  0  0  0  0  0  0  0
   -0.4836    1.4091    1.5402 H   0  0  0  0  0  0  0  0  0  0  0  0
   -0.3248   -0.0362    2.5305 H   0  0  0  0  0  0  0  0  0  0  0  0
   -0.3782   -2.1811    1.5612 H   0  0  0  0  0  0  0  0  0  0  0  0
    0.3290   -1.9943   -0.0462 H   0  0  0  0  0  0  0  0  0  0  0  0
   -2.4079   -2.9831    0.7614 H   0  0  0  0  0  0  0  0  0  0  0  0
   -1.2710   -3.6547   -0.4032 H   0  0  0  0  0  0  0  0  0  0  0  0
   -1.7315   -1.8180   -1.9686 H   0  0  0  0  0  0  0  0  0  0  0  0
   -3.2156   -2.6608   -1.5630 H   0  0  0  0  0  0  0  0  0  0  0  0
   -4.8046   -1.3945    0.4663 H   0  0  0  0  0  0  0  0  0  0  0  0
   -5.0431   -1.3037   -1.2801 H   0  0  0  0  0  0  0  0  0  0  0  0
   -4.9830    1.0329    0.6801 H   0  0  0  0  0  0  0  0  0  0  0  0
   -6.2218    0.6352   -0.5456 H   0  0  0  0  0  0  0  0  0  0  0  0
   -1.9808    0.9181   -1.8064 H   0  0  0  0  0  0  0  0  0  0  0  0
   -3.1294   -0.0492   -2.7727 H   0  0  0  0  0  0  0  0  0  0  0  0
   -2.5457    0.8977    0.7822 H   0  0  0  0  0  0  0  0  0  0  0  0
   -2.7414   -0.6801    1.5220 H   0  0  0  0  0  0  0  0  0  0  0  0
  1  2  1  0
  2  3  2  0
  3  4  1  0
  4  5  1  0
  5  6  1  0
  5  7  1  0
  4  8  1  0
  8  9  1  0
  8 10  2  0
 10 11  1  0
 11 12  1  0
 12 13  1  0
 13 14  1  0
 14 15  1  0
 15 16  1  0
 16 17  1  0
 17 18  1  0
 18 19  1  0
 19 20  2  0
 19 21  2  0
 19 22  1  0
 16 23  1  0
 10  2  1  0
 23 12  1  0
 22 16  1  0
  1 24  1  0
  1 25  1  0
  1 26  1  0
  5 27  1  0
  6 28  1  0
  6 29  1  0
  6 30  1  0
  7 31  1  0
  7 32  1  0
  7 33  1  0
  9 34  1  0
  9 35  1  0
  9 36  1  0
 11 37  1  0
 11 38  1  0
 13 39  1  0
 13 40  1  0
 14 41  1  0
 14 42  1  0
 15 43  1  0
 15 44  1  0
 17 45  1  0
 17 46  1  0
 18 47  1  0
 18 48  1  0
 22 49  1  0
 22 50  1  0
 23 51  1  0
 23 52  1  0
M  END
$$$$
OCNT-2316180
     RDKit          3D

 46 50  0  0  0  0  0  0  0  0999 V2000
   -6.7251    0.5196    0.7381 C   0  0  0  0  0  0  0  0  0  0  0  0
   -6.0820   -0.5436    0.1091 C   0  0  0  0  0  0  0  0  0  0  0  0
   -4.6866   -0.5710    0.0359 C   0  0  0  0  0  0  0  0  0  0  0  0
   -3.9145    0.4627    0.5881 C   0  0  0  0  0  0  0  0  0  0  0  0
   -2.4625    0.4031    0.4865 C   0  0  0  0  0  0  0  0  0  0  0  0
   -1.5625    1.3538    0.9176 C   0  0  0  0  0  0  0  0  0  0  0  0
   -0.3312    0.8579    0.5935 N   0  0  0  0  0  0  0  0  0  0  0  0
   -0.5063   -0.3597   -0.0175 C   0  0  0  0  0  0  0  0  0  0  0  0
    0.6784   -1.1681   -0.4868 C   0  0  0  0  0  0  0  0  0  0  0  0
    0.2195   -2.5479   -1.0172 C   0  0  0  0  0  0  0  0  0  0  0  0
    1.3591   -3.2742   -1.7276 C   0  0  0  0  0  0  0  0  0  0  0  0
    1.9405   -2.4437   -2.8765 C   0  0  0  0  0  0  0  0  0  0  0  0
    1.4661   -0.9918   -2.8523 C   0  0  0  0  0  0  0  0  0  0  0  0
    1.5251   -0.4826   -1.4906 N   0  0  0  0  0  0  0  0  0  0  0  0
    2.4900    0.3773   -1.0518 C   0  0  0  0  0  0  0  0  0  0  0  0
    2.5335    0.8627    0.1753 N   0  0  0  0  0  0  0  0  0  0  0  0
    3.6375    1.6911    0.3077 C   0  0  0  0  0  0  0  0  0  0  0  0
    3.9299    2.3870    1.6741 C   0  0  0  0  0  0  0  0  0  0  0  0
    5.0256    1.8372    2.5522 C   0  0  0  0  0  0  0  0  0  0  0  0
    3.5890    1.6752    2.9591 C   0  0  0  0  0  0  0  0  0  0  0  0
    4.4343    1.9063   -0.7353 N   0  0  0  0  0  0  0  0  0  0  0  0
    3.8059    1.0155   -1.9924 S   0  0  0  0  0  0  0  0  0  0  0  0
   -1.7900   -0.6558   -0.0897 N   0  0  0  0  0  0  0  0  0  0  0  0
   -4.5771    1.5254    1.2198 C   0  0  0  0  0  0  0  0  0  0  0  0
   -5.9740    1.5532    1.2938 C   0  0  0  0  0  0  0  0  0  0  0  0
   -7.8105    0.5429    0.7940 H   0  0  0  0  0  0  0  0  0  0  0  0
   -6.6618   -1.3531   -0.3281 H   0  0  0  0  0  0  0  0  0  0  0  0
   -4.1976   -1.4073   -0.4604 H   0  0  0  0  0  0  0  0  0  0  0  0
   -1.6735    2.3124    1.4015 H   0  0  0  0  0  0  0  0  0  0  0  0
    0.5731    1.2922    0.7448 H   0  0  0  0  0  0  0  0  0  0  0  0
    1.2944   -1.3841    0.3996 H   0  0  0  0  0  0  0  0  0  0  0  0
   -0.6218   -2.4401   -1.7157 H   0  0  0  0  0  0  0  0  0  0  0  0
   -0.1511   -3.1614   -0.1860 H   0  0  0  0  0  0  0  0  0  0  0  0
    2.1538   -3.4914   -1.0024 H   0  0  0  0  0  0  0  0  0  0  0  0
    1.0119   -4.2425   -2.1062 H   0  0  0  0  0  0  0  0  0  0  0  0
    3.0358   -2.4813   -2.8221 H   0  0  0  0  0  0  0  0  0  0  0  0
    1.6645   -2.8941   -3.8377 H   0  0  0  0  0  0  0  0  0  0  0  0
    0.4291   -0.9348   -3.2090 H   0  0  0  0  0  0  0  0  0  0  0  0
    2.0434   -0.3987   -3.5691 H   0  0  0  0  0  0  0  0  0  0  0  0
    3.8031    3.4639    1.6511 H   0  0  0  0  0  0  0  0  0  0  0  0
    5.6354    2.5468    3.0984 H   0  0  0  0  0  0  0  0  0  0  0  0
    5.5630    0.9570    2.2159 H   0  0  0  0  0  0  0  0  0  0  0  0
    3.1580    0.6814    2.9059 H   0  0  0  0  0  0  0  0  0  0  0  0
    3.2231    2.2733    3.7855 H   0  0  0  0  0  0  0  0  0  0  0  0
   -4.0212    2.3465    1.6632 H   0  0  0  0  0  0  0  0  0  0  0  0
   -6.4737    2.3832    1.7860 H   0  0  0  0  0  0  0  0  0  0  0  0
  1  2  2  0
  2  3  1  0
  3  4  2  0
  4  5  1  0
  5  6  2  0
  6  7  1  0
  7  8  1  0
  8  9  1  0
  9 10  1  0
 10 11  1  0
 11 12  1  0
 12 13  1  0
 13 14  1  0
 14 15  1  0
 15 16  2  0
 16 17  1  0
 17 18  1  0
 18 19  1  0
 19 20  1  0
 17 21  2  0
 21 22  1  0
  8 23  2  0
  4 24  1  0
 24 25  2  0
 25  1  1  0
 23  5  1  0
 14  9  1  0
 22 15  1  0
 20 18  1  0
  1 26  1  0
  2 27  1  0
  3 28  1  0
  6 29  1  0
  7 30  1  0
  9 31  1  0
 10 32  1  0
 10 33  1  0
 11 34  1  0
 11 35  1  0
 12 36  1  0
 12 37  1  0
 13 38  1  0
 13 39  1  0
 18 40  1  0
 19 41  1  0
 19 42  1  0
 20 43  1  0
 20 44  1  0
 24 45  1  0
 25 46  1  0
M  END
$$$$
OCNT-2316207
     RDKit          3D

 49 51  0  0  0  0  0  0  0  0999 V2000
    6.8520    1.6603   -1.0342 C   0  0  0  0  0  0  0  0  0  0  0  0
    5.6154    0.9912   -0.5088 C   0  0  0  0  0  0  0  0  0  0  0  0
    4.4666    1.7454   -0.2324 C   0  0  0  0  0  0  0  0  0  0  0  0
    3.3063    1.1239    0.2313 C   0  0  0  0  0  0  0  0  0  0  0  0
    3.2907   -0.2624    0.3987 C   0  0  0  0  0  0  0  0  0  0  0  0
    1.8122   -1.0581    0.9942 S   0  0  0  0  0  0  0  0  0  0  0  0
    2.2256   -2.3110    1.5996 O   0  0  0  0  0  0  0  0  0  0  0  0
    1.0854   -0.0691    1.7659 O   0  0  0  0  0  0  0  0  0  0  0  0
    0.9347   -1.4179   -0.5100 C   0  0  0  0  0  0  0  0  0  0  0  0
   -0.4713   -2.0167   -0.3549 C   0  0  0  0  0  0  0  0  0  0  0  0
   -0.7637   -2.8133    0.9183 C   0  0  0  0  0  0  0  0  0  0  0  0
   -1.5819   -1.1090   -0.7246 N   0  0  0  0  0  0  0  0  0  0  0  0
   -1.7181    0.0350    0.1788 C   0  0  0  0  0  0  0  0  0  0  0  0
   -1.0934    1.2960   -0.4594 C   0  0  0  0  0  0  0  0  0  0  0  0
   -2.3201    2.0701    0.0691 C   0  0  0  0  0  0  0  0  0  0  0  0
   -3.1202    0.7283   -0.0382 C   0  0  0  0  0  0  0  0  0  0  0  0
   -4.1200    0.4439    1.0949 C   0  0  0  0  0  0  0  0  0  0  0  0
   -5.4844    0.4539    0.4146 C   0  0  0  0  0  0  0  0  0  0  0  0
   -5.1887   -0.1139   -0.9629 C   0  0  0  0  0  0  0  0  0  0  0  0
   -3.9087    0.6127   -1.3595 C   0  0  0  0  0  0  0  0  0  0  0  0
    4.4270   -1.0282    0.1299 C   0  0  0  0  0  0  0  0  0  0  0  0
    5.5836   -0.3992   -0.3332 C   0  0  0  0  0  0  0  0  0  0  0  0
    6.8212    1.6967   -2.1275 H   0  0  0  0  0  0  0  0  0  0  0  0
    6.9380    2.6813   -0.6478 H   0  0  0  0  0  0  0  0  0  0  0  0
    7.7514    1.1188   -0.7228 H   0  0  0  0  0  0  0  0  0  0  0  0
    4.4734    2.8252   -0.3688 H   0  0  0  0  0  0  0  0  0  0  0  0
    2.4297    1.7255    0.4609 H   0  0  0  0  0  0  0  0  0  0  0  0
    1.5661   -2.1357   -1.0496 H   0  0  0  0  0  0  0  0  0  0  0  0
    0.9138   -0.5058   -1.1145 H   0  0  0  0  0  0  0  0  0  0  0  0
   -0.5188   -2.7658   -1.1591 H   0  0  0  0  0  0  0  0  0  0  0  0
   -1.7525   -3.2834    0.8615 H   0  0  0  0  0  0  0  0  0  0  0  0
   -0.7487   -2.1937    1.8190 H   0  0  0  0  0  0  0  0  0  0  0  0
   -0.0363   -3.6222    1.0425 H   0  0  0  0  0  0  0  0  0  0  0  0
   -2.4366   -1.6684   -0.7674 H   0  0  0  0  0  0  0  0  0  0  0  0
   -1.4773   -0.1270    1.2342 H   0  0  0  0  0  0  0  0  0  0  0  0
   -0.1347    1.6214   -0.0487 H   0  0  0  0  0  0  0  0  0  0  0  0
   -1.0206    1.2944   -1.5542 H   0  0  0  0  0  0  0  0  0  0  0  0
   -2.1884    2.4407    1.0935 H   0  0  0  0  0  0  0  0  0  0  0  0
   -2.6536    2.9030   -0.5558 H   0  0  0  0  0  0  0  0  0  0  0  0
   -4.0689    1.1751    1.9074 H   0  0  0  0  0  0  0  0  0  0  0  0
   -3.9384   -0.5500    1.5220 H   0  0  0  0  0  0  0  0  0  0  0  0
   -5.8567    1.4817    0.3280 H   0  0  0  0  0  0  0  0  0  0  0  0
   -6.2250   -0.1349    0.9631 H   0  0  0  0  0  0  0  0  0  0  0  0
   -6.0017    0.0610   -1.6731 H   0  0  0  0  0  0  0  0  0  0  0  0
   -5.0104   -1.1937   -0.8985 H   0  0  0  0  0  0  0  0  0  0  0  0
   -4.1715    1.6080   -1.7390 H   0  0  0  0  0  0  0  0  0  0  0  0
   -3.3737    0.0904   -2.1569 H   0  0  0  0  0  0  0  0  0  0  0  0
    4.4253   -2.1055    0.2804 H   0  0  0  0  0  0  0  0  0  0  0  0
    6.4659   -0.9991   -0.5482 H   0  0  0  0  0  0  0  0  0  0  0  0
  1  2  1  0
  2  3  1  0
  3  4  2  0
  4  5  1  0
  5  6  1  0
  6  7  2  0
  6  8  2  0
  6  9  1  0
  9 10  1  0
 10 11  1  0
 10 12  1  0
 12 13  1  0
 13 14  1  0
 14 15  1  0
 15 16  1  0
 16 17  1  0
 17 18  1  0
 18 19  1  0
 19 20  1  0
  5 21  2  0
 21 22  1  0
 22  2  2  0
 16 13  1  0
 20 16  1  0
  1 23  1  0
  1 24  1  0
  1 25  1  0
  3 26  1  0
  4 27  1  0
  9 28  1  0
  9 29  1  0
 10 30  1  0
 11 31  1  0
 11 32  1  0
 11 33  1  0
 12 34  1  0
 13 35  1  0
 14 36  1  0
 14 37  1  0
 15 38  1  0
 15 39  1  0
 17 40  1  0
 17 41  1  0
 18 42  1  0
 18 43  1  0
 19 44  1  0
 19 45  1  0
 20 46  1  0
 20 47  1  0
 21 48  1  0
 22 49  1  0
M  END
$$$$
OCNT-2316212
     RDKit          3D

 41 43  0  0  0  0  0  0  0  0999 V2000
   -1.2128    1.4548   -1.6186 C   0  0  0  0  0  0  0  0  0  0  0  0
   -2.0287    0.4949   -0.8544 C   0  0  0  0  0  0  0  0  0  0  0  0
   -1.7594   -0.5359    0.0203 C   0  0  0  0  0  0  0  0  0  0  0  0
   -0.4610   -1.0947    0.4855 C   0  0  0  0  0  0  0  0  0  0  0  0
    0.5187   -0.0508    1.0087 C   0  0  0  0  0  0  0  0  0  0  0  0
    0.1719    1.1053    1.2567 O   0  0  0  0  0  0  0  0  0  0  0  0
    1.8406   -0.4667    1.1859 N   0  0  0  0  0  0  0  0  0  0  0  0
    2.2931   -1.8484    1.0757 C   0  0  0  0  0  0  0  0  0  0  0  0
    2.8547    0.5442    1.5002 C   0  0  0  0  0  0  0  0  0  0  0  0
    3.8825    0.7050    0.4072 C   0  0  0  0  0  0  0  0  0  0  0  0
    3.5110    1.3487   -0.7811 C   0  0  0  0  0  0  0  0  0  0  0  0
    2.2606    1.8076   -0.9322 F   0  0  0  0  0  0  0  0  0  0  0  0
    4.4053    1.5322   -1.8339 C   0  0  0  0  0  0  0  0  0  0  0  0
    5.7103    1.0678   -1.7189 C   0  0  0  0  0  0  0  0  0  0  0  0
    6.1073    0.4216   -0.5492 C   0  0  0  0  0  0  0  0  0  0  0  0
    5.2022    0.2404    0.5059 C   0  0  0  0  0  0  0  0  0  0  0  0
    5.7887   -0.5817    1.9082 Cl  0  0  0  0  0  0  0  0  0  0  0  0
   -2.9490   -1.1107    0.4197 N   0  0  0  0  0  0  0  0  0  0  0  0
   -3.8922   -0.4021   -0.1788 C   0  0  0  0  0  0  0  0  0  0  0  0
   -5.3046   -0.6327   -0.0356 C   0  0  0  0  0  0  0  0  0  0  0  0
   -6.3234    0.0897   -0.6298 C   0  0  0  0  0  0  0  0  0  0  0  0
   -7.6176   -0.3978   -0.2818 C   0  0  0  0  0  0  0  0  0  0  0  0
   -7.5463   -1.4784    0.5678 C   0  0  0  0  0  0  0  0  0  0  0  0
   -5.9300   -1.8968    0.9389 S   0  0  0  0  0  0  0  0  0  0  0  0
   -3.3839    0.5942   -0.9825 O   0  0  0  0  0  0  0  0  0  0  0  0
   -0.2280    1.0367   -1.8478 H   0  0  0  0  0  0  0  0  0  0  0  0
   -1.0725    2.3769   -1.0468 H   0  0  0  0  0  0  0  0  0  0  0  0
   -1.6965    1.7099   -2.5667 H   0  0  0  0  0  0  0  0  0  0  0  0
   -0.6482   -1.8131    1.2918 H   0  0  0  0  0  0  0  0  0  0  0  0
   -0.0044   -1.6231   -0.3592 H   0  0  0  0  0  0  0  0  0  0  0  0
    2.8202   -1.9741    0.1259 H   0  0  0  0  0  0  0  0  0  0  0  0
    2.9688   -2.0718    1.9063 H   0  0  0  0  0  0  0  0  0  0  0  0
    1.4666   -2.5592    1.1179 H   0  0  0  0  0  0  0  0  0  0  0  0
    3.3025    0.2658    2.4594 H   0  0  0  0  0  0  0  0  0  0  0  0
    2.3959    1.5238    1.6791 H   0  0  0  0  0  0  0  0  0  0  0  0
    4.0731    2.0390   -2.7352 H   0  0  0  0  0  0  0  0  0  0  0  0
    6.4157    1.2077   -2.5341 H   0  0  0  0  0  0  0  0  0  0  0  0
    7.1297    0.0588   -0.4631 H   0  0  0  0  0  0  0  0  0  0  0  0
   -6.1463    0.9344   -1.2856 H   0  0  0  0  0  0  0  0  0  0  0  0
   -8.5504    0.0237   -0.6358 H   0  0  0  0  0  0  0  0  0  0  0  0
   -8.3642   -2.0448    0.9916 H   0  0  0  0  0  0  0  0  0  0  0  0
  1  2  1  0
  2  3  2  0
  3  4  1  0
  4  5  1  0
  5  6  2  0
  5  7  1  0
  7  8  1  0
  7  9  1  0
  9 10  1  0
 10 11  2  0
 11 12  1  0
 11 13  1  0
 13 14  2  0
 14 15  1  0
 15 16  2  0
 16 17  1  0
  3 18  1  0
 18 19  2  0
 19 20  1  0
 20 21  2  0
 21 22  1  0
 22 23  2  0
 23 24  1  0
 19 25  1  0
 25  2  1  0
 16 10  1  0
 24 20  1  0
  1 26  1  0
  1 27  1  0
  1 28  1  0
  4 29  1  0
  4 30  1  0
  8 31  1  0
  8 32  1  0
  8 33  1  0
  9 34  1  0
  9 35  1  0
 13 36  1  0
 14 37  1  0
 15 38  1  0
 21 39  1  0
 22 40  1  0
 23 41  1  0
M  END
$$$$
OCNT-2316228
     RDKit          3D

  0  0  0  0  0  0  0  0  0  0999 V3000
M  V30 BEGIN CTAB
M  V30 COUNTS 46 48 0 0 0
M  V30 BEGIN ATOM
M  V30 1 C -3.923550 -1.861984 0.791784 0
M  V30 2 N -2.996194 -1.289843 -0.169046 0
M  V30 3 C -2.706657 0.083700 -0.147600 0
M  V30 4 C -3.143821 0.921985 0.892253 0
M  V30 5 C -2.824884 2.284209 0.932175 0
M  V30 6 C -2.020749 2.849709 -0.052996 0
M  V30 7 C -1.697490 4.312865 -0.035520 0
M  V30 8 C -1.552152 2.029096 -1.080749 0
M  V30 9 C -1.861601 0.649997 -1.130684 0
M  V30 10 C -1.232255 -0.159595 -2.249471 0
M  V30 11 N 0.235819 -0.139775 -2.242173 0
M  V30 12 C 0.832964 -0.784965 -1.047211 0 CFG=1
M  V30 13 C 0.719177 -2.300536 -1.061604 0
M  V30 14 C 1.873471 -2.725143 -1.940802 0
M  V30 15 O 2.901978 -1.737039 -1.806574 0
M  V30 16 C 2.375228 -0.614319 -1.057418 0 CFG=2
M  V30 17 C 2.971451 -0.552892 0.317480 0
M  V30 18 C 2.771244 0.407383 1.291400 0
M  V30 19 N 3.520311 0.030894 2.366011 0
M  V30 20 C 3.633867 0.716505 3.629506 0
M  V30 21 N 4.204926 -1.108238 2.166906 0
M  V30 22 C 3.880707 -1.454062 0.918411 0
M  V30 23 H -3.548932 -1.763756 1.815611 0
M  V30 24 H -4.032557 -2.932285 0.588304 0
M  V30 25 H -4.915412 -1.405334 0.710999 0
M  V30 26 H -3.196957 -1.605045 -1.113783 0
M  V30 27 H -3.760305 0.537008 1.698722 0
M  V30 28 H -3.208347 2.893762 1.747050 0
M  V30 29 H -1.668338 4.694797 0.990331 0
M  V30 30 H -2.452345 4.869948 -0.598732 0
M  V30 31 H -0.714475 4.500995 -0.479382 0
M  V30 32 H -0.909268 2.451257 -1.852623 0
M  V30 33 H -1.568701 0.286903 -3.194408 0
M  V30 34 H -1.593833 -1.189586 -2.284338 0
M  V30 35 H 0.585791 -0.590021 -3.086427 0
M  V30 36 H 0.396571 -0.354021 -0.140602 0
M  V30 37 H 0.875667 -2.682966 -0.044849 0
M  V30 38 H -0.237890 -2.700390 -1.404939 0
M  V30 39 H 1.580485 -2.763010 -2.995262 0
M  V30 40 H 2.270291 -3.705057 -1.660278 0
M  V30 41 H 2.672194 0.300060 -1.586700 0
M  V30 42 H 2.163501 1.302079 1.301441 0
M  V30 43 H 4.679476 0.997932 3.776230 0
M  V30 44 H 3.303163 0.039233 4.421011 0
M  V30 45 H 3.004789 1.609860 3.616928 0
M  V30 46 H 4.313644 -2.350313 0.491617 0
M  V30 END ATOM
M  V30 BEGIN BOND
M  V30 1 1 1 2
M  V30 2 1 2 3
M  V30 3 1 3 4
M  V30 4 2 4 5
M  V30 5 1 5 6
M  V30 6 1 6 7
M  V30 7 2 6 8
M  V30 8 1 8 9
M  V30 9 1 9 10
M  V30 10 1 10 11
M  V30 11 1 11 12
M  V30 12 1 12 13
M  V30 13 1 13 14
M  V30 14 1 14 15
M  V30 15 1 15 16
M  V30 16 1 16 17
M  V30 17 2 17 18
M  V30 18 1 18 19
M  V30 19 1 19 20
M  V30 20 1 19 21
M  V30 21 2 21 22
M  V30 22 2 9 3
M  V30 23 1 16 12
M  V30 24 1 22 17
M  V30 25 1 1 23
M  V30 26 1 1 24
M  V30 27 1 1 25
M  V30 28 1 2 26
M  V30 29 1 4 27
M  V30 30 1 5 28
M  V30 31 1 7 29
M  V30 32 1 7 30
M  V30 33 1 7 31
M  V30 34 1 8 32
M  V30 35 1 10 33
M  V30 36 1 10 34
M  V30 37 1 11 35
M  V30 38 1 12 36 CFG=1
M  V30 39 1 13 37
M  V30 40 1 13 38
M  V30 41 1 14 39
M  V30 42 1 14 40
M  V30 43 1 16 41 CFG=3
M  V30 44 1 18 42
M  V30 45 1 20 43
M  V30 46 1 20 44
M  V30 47 1 20 45
M  V30 48 1 22 46
M  V30 END BOND
M  V30 BEGIN COLLECTION
M  V30 MDLV30/STERAC1 ATOMS=(2 12 16)
M  V30 END COLLECTION
M  V30 END CTAB
M  END
>  <_CXSMILES_Data>  (1076) 
|&1:11,15|

$$$$
OCNT-2316237
     RDKit          3D

 38 40  0  0  0  0  0  0  0  0999 V2000
   -4.5659   -0.3381   -0.1575 C   0  0  0  0  0  0  0  0  0  0  0  0
   -3.3448   -0.5725    0.7351 C   0  0  0  0  0  0  0  0  0  0  0  0
   -2.3130   -1.4247   -0.0001 C   0  0  0  0  0  0  0  0  0  0  0  0
   -2.7737    0.7407    1.3104 C   0  0  0  0  0  0  0  0  0  0  0  0
   -2.3376    1.7348    0.3511 N   0  0  0  0  0  0  0  0  0  0  0  0
   -3.1817    2.7501   -0.0579 C   0  0  0  0  0  0  0  0  0  0  0  0
   -2.5422    3.3671   -1.0980 C   0  0  0  0  0  0  0  0  0  0  0  0
   -1.3277    2.7873   -1.3133 N   0  0  0  0  0  0  0  0  0  0  0  0
   -1.1791    1.8567   -0.3885 C   0  0  0  0  0  0  0  0  0  0  0  0
    0.0058    1.1722   -0.3429 N   0  0  0  0  0  0  0  0  0  0  0  0
    0.5638    0.4515    0.6787 C   0  0  0  0  0  0  0  0  0  0  0  0
    0.0975    0.2282    1.7871 O   0  0  0  0  0  0  0  0  0  0  0  0
    1.9453   -0.0493    0.2877 C   0  0  0  0  0  0  0  0  0  0  0  0
    2.6061   -0.7994    1.1942 C   0  0  0  0  0  0  0  0  0  0  0  0
    3.8946   -1.2810    0.8617 C   0  0  0  0  0  0  0  0  0  0  0  0
    4.8529   -2.0474    1.4865 C   0  0  0  0  0  0  0  0  0  0  0  0
    5.9441   -2.1651    0.5870 C   0  0  0  0  0  0  0  0  0  0  0  0
    5.6173   -1.4669   -0.5578 C   0  0  0  0  0  0  0  0  0  0  0  0
    4.3652   -0.9299   -0.3828 N   0  0  0  0  0  0  0  0  0  0  0  0
    3.6277   -0.1486   -1.2726 C   0  0  0  0  0  0  0  0  0  0  0  0
    2.4410    0.2953   -0.9711 N   0  0  0  0  0  0  0  0  0  0  0  0
   -5.0332   -1.2917   -0.4266 H   0  0  0  0  0  0  0  0  0  0  0  0
   -4.2961    0.1711   -1.0883 H   0  0  0  0  0  0  0  0  0  0  0  0
   -5.3191    0.2647    0.3603 H   0  0  0  0  0  0  0  0  0  0  0  0
   -3.6883   -1.1623    1.5959 H   0  0  0  0  0  0  0  0  0  0  0  0
   -1.9474   -0.9332   -0.9062 H   0  0  0  0  0  0  0  0  0  0  0  0
   -1.4606   -1.6518    0.6462 H   0  0  0  0  0  0  0  0  0  0  0  0
   -2.7534   -2.3814   -0.3026 H   0  0  0  0  0  0  0  0  0  0  0  0
   -3.5664    1.2158    1.9063 H   0  0  0  0  0  0  0  0  0  0  0  0
   -1.9877    0.5571    2.0346 H   0  0  0  0  0  0  0  0  0  0  0  0
   -4.1533    2.9094    0.3884 H   0  0  0  0  0  0  0  0  0  0  0  0
   -2.8942    4.1899   -1.7060 H   0  0  0  0  0  0  0  0  0  0  0  0
    0.6298    1.3905   -1.1148 H   0  0  0  0  0  0  0  0  0  0  0  0
    2.1780   -1.0393    2.1631 H   0  0  0  0  0  0  0  0  0  0  0  0
    4.7807   -2.4759    2.4783 H   0  0  0  0  0  0  0  0  0  0  0  0
    6.8689   -2.7020    0.7581 H   0  0  0  0  0  0  0  0  0  0  0  0
    6.1693   -1.3096   -1.4747 H   0  0  0  0  0  0  0  0  0  0  0  0
    4.0776    0.0877   -2.2503 H   0  0  0  0  0  0  0  0  0  0  0  0
  1  2  1  0
  2  3  1  0
  2  4  1  0
  4  5  1  0
  5  6  1  0
  6  7  2  0
  7  8  1  0
  8  9  2  0
  9 10  1  0
 10 11  1  0
 11 12  2  0
 11 13  1  0
 13 14  2  0
 14 15  1  0
 15 16  2  0
 16 17  1  0
 17 18  2  0
 18 19  1  0
 19 20  1  0
 20 21  2  0
  9  5  1  0
 21 13  1  0
 19 15  1  0
  1 22  1  0
  1 23  1  0
  1 24  1  0
  2 25  1  0
  3 26  1  0
  3 27  1  0
  3 28  1  0
  4 29  1  0
  4 30  1  0
  6 31  1  0
  7 32  1  0
 10 33  1  0
 14 34  1  0
 16 35  1  0
 17 36  1  0
 18 37  1  0
 20 38  1  0
M  END
$$$$
OCNT-2316240
     RDKit          3D

 48 51  0  0  0  0  0  0  0  0999 V2000
   -0.5869    2.4202    1.9677 O   0  0  0  0  0  0  0  0  0  0  0  0
   -0.3922    1.8662    0.8898 C   0  0  0  0  0  0  0  0  0  0  0  0
   -1.2605    0.9377    0.3807 N   0  0  0  0  0  0  0  0  0  0  0  0
   -2.4678    0.6179    1.1092 C   0  0  0  0  0  0  0  0  0  0  0  0
   -3.1368   -0.5853    0.5155 C   0  0  0  0  0  0  0  0  0  0  0  0
   -2.6064   -1.8737    0.7072 C   0  0  0  0  0  0  0  0  0  0  0  0
   -3.2205   -3.0040    0.1383 C   0  0  0  0  0  0  0  0  0  0  0  0
   -4.3731   -2.8679   -0.6367 C   0  0  0  0  0  0  0  0  0  0  0  0
   -4.8749   -1.5973   -0.8203 C   0  0  0  0  0  0  0  0  0  0  0  0
   -4.2760   -0.4879   -0.2648 C   0  0  0  0  0  0  0  0  0  0  0  0
   -4.9337    0.6604   -0.5870 O   0  0  0  0  0  0  0  0  0  0  0  0
   -6.0206    0.1454   -1.3825 C   0  0  0  0  0  0  0  0  0  0  0  0
   -5.9800   -1.2851   -1.5496 O   0  0  0  0  0  0  0  0  0  0  0  0
    0.7190    2.1113    0.0948 N   0  0  0  0  0  0  0  0  0  0  0  0
    1.7040    3.0708    0.5772 C   0  0  0  0  0  0  0  0  0  0  0  0
    2.8792    2.3412    1.2180 C   0  0  0  0  0  0  0  0  0  0  0  0
    3.4784    1.3082    0.2556 C   0  0  0  0  0  0  0  0  0  0  0  0
    2.4208    0.3419   -0.3595 C   0  0  0  0  0  0  0  0  0  0  0  0
    1.9018   -0.6801    0.6922 C   0  0  0  0  0  0  0  0  0  0  0  0
    2.8571   -1.8061    0.9767 C   0  0  0  0  0  0  0  0  0  0  0  0
    3.8895   -2.1140    0.1792 C   0  0  0  0  0  0  0  0  0  0  0  0
    4.1878   -1.3815   -1.0938 C   0  0  0  0  0  0  0  0  0  0  0  0
    3.0516   -0.4514   -1.5336 C   0  0  0  0  0  0  0  0  0  0  0  0
    1.2375    1.1811   -0.9111 C   0  0  0  0  0  0  0  0  0  0  0  0
   -1.3833    1.0094   -0.6171 H   0  0  0  0  0  0  0  0  0  0  0  0
   -3.1215    1.4974    1.0900 H   0  0  0  0  0  0  0  0  0  0  0  0
   -2.2200    0.4280    2.1607 H   0  0  0  0  0  0  0  0  0  0  0  0
   -1.7036   -2.0034    1.3028 H   0  0  0  0  0  0  0  0  0  0  0  0
   -2.7918   -3.9898    0.3034 H   0  0  0  0  0  0  0  0  0  0  0  0
   -4.8574   -3.7295   -1.0819 H   0  0  0  0  0  0  0  0  0  0  0  0
   -6.9673    0.4166   -0.9009 H   0  0  0  0  0  0  0  0  0  0  0  0
   -5.9830    0.6152   -2.3720 H   0  0  0  0  0  0  0  0  0  0  0  0
    1.2575    3.7693    1.2926 H   0  0  0  0  0  0  0  0  0  0  0  0
    2.0432    3.6608   -0.2826 H   0  0  0  0  0  0  0  0  0  0  0  0
    2.5521    1.8446    2.1386 H   0  0  0  0  0  0  0  0  0  0  0  0
    3.6504    3.0647    1.5057 H   0  0  0  0  0  0  0  0  0  0  0  0
    3.9776    1.8533   -0.5570 H   0  0  0  0  0  0  0  0  0  0  0  0
    4.2644    0.7557    0.7826 H   0  0  0  0  0  0  0  0  0  0  0  0
    0.9647   -1.1346    0.3453 H   0  0  0  0  0  0  0  0  0  0  0  0
    1.6694   -0.1780    1.6372 H   0  0  0  0  0  0  0  0  0  0  0  0
    2.6817   -2.3882    1.8783 H   0  0  0  0  0  0  0  0  0  0  0  0
    4.5532   -2.9311    0.4514 H   0  0  0  0  0  0  0  0  0  0  0  0
    5.1119   -0.8074   -0.9594 H   0  0  0  0  0  0  0  0  0  0  0  0
    4.3801   -2.1076   -1.8922 H   0  0  0  0  0  0  0  0  0  0  0  0
    2.2718   -1.0574   -2.0162 H   0  0  0  0  0  0  0  0  0  0  0  0
    3.4268    0.2321   -2.3057 H   0  0  0  0  0  0  0  0  0  0  0  0
    1.5708    1.7916   -1.7604 H   0  0  0  0  0  0  0  0  0  0  0  0
    0.4549    0.5201   -1.2940 H   0  0  0  0  0  0  0  0  0  0  0  0
  1  2  2  0
  2  3  1  0
  3  4  1  0
  4  5  1  0
  5  6  2  0
  6  7  1  0
  7  8  2  0
  8  9  1  0
  9 10  2  0
 10 11  1  0
 11 12  1  0
 12 13  1  0
  2 14  1  0
 14 15  1  0
 15 16  1  0
 16 17  1  0
 17 18  1  0
 18 19  1  0
 19 20  1  0
 20 21  2  0
 21 22  1  0
 22 23  1  0
 18 24  1  0
 10  5  1  0
 24 14  1  0
 13  9  1  0
 23 18  1  0
  3 25  1  0
  4 26  1  0
  4 27  1  0
  6 28  1  0
  7 29  1  0
  8 30  1  0
 12 31  1  0
 12 32  1  0
 15 33  1  0
 15 34  1  0
 16 35  1  0
 16 36  1  0
 17 37  1  0
 17 38  1  0
 19 39  1  0
 19 40  1  0
 20 41  1  0
 21 42  1  0
 22 43  1  0
 22 44  1  0
 23 45  1  0
 23 46  1  0
 24 47  1  0
 24 48  1  0
M  END
$$$$
OCNT-2316247
     RDKit          3D

  0  0  0  0  0  0  0  0  0  0999 V3000
M  V30 BEGIN CTAB
M  V30 COUNTS 44 47 0 0 0
M  V30 BEGIN ATOM
M  V30 1 O -2.084187 -0.840458 -0.132454 0
M  V30 2 C -1.948856 0.268759 -0.644391 0
M  V30 3 N -0.707259 0.774209 -0.983557 0
M  V30 4 C 0.474883 -0.063998 -1.013929 0 CFG=2
M  V30 5 C 0.866786 -0.637745 0.360074 0
M  V30 6 C 2.387497 -0.445971 0.496334 0
M  V30 7 C 3.074844 -1.659084 1.123875 0
M  V30 8 N 4.490995 -1.449339 1.346961 0
M  V30 9 C 5.510492 -1.882913 0.547480 0
M  V30 10 C 6.656673 -1.441230 1.167902 0
M  V30 11 N 6.356109 -0.761958 2.319794 0
M  V30 12 C 5.045396 -0.792524 2.407587 0
M  V30 13 C 2.861966 -0.124277 -0.921278 0
M  V30 14 C 1.718937 0.710614 -1.473952 0 CFG=1
M  V30 15 O 1.775422 0.807508 -2.886601 0
M  V30 16 C -3.045871 1.158348 -0.967524 0
M  V30 17 C -4.409208 1.072560 -0.769456 0
M  V30 18 C -5.164932 -0.094490 -0.098214 0
M  V30 19 C -4.976731 -0.331772 1.378046 0
M  V30 20 C -6.284126 0.196747 0.867916 0
M  V30 21 C -4.999690 2.228282 -1.323275 0
M  V30 22 C -3.958716 2.971620 -1.825085 0
M  V30 23 O -2.772889 2.341561 -1.616938 0
M  V30 24 H -0.735672 1.572808 -1.611676 0
M  V30 25 H 0.262095 -0.885199 -1.711261 0
M  V30 26 H 0.354752 -0.132138 1.186908 0
M  V30 27 H 0.585729 -1.696646 0.410066 0
M  V30 28 H 2.564662 0.437345 1.126305 0
M  V30 29 H 2.628403 -1.893155 2.097721 0
M  V30 30 H 2.964876 -2.548824 0.492051 0
M  V30 31 H 5.348460 -2.444821 -0.362188 0
M  V30 32 H 7.681192 -1.577247 0.847630 0
M  V30 33 H 4.458412 -0.356618 3.205082 0
M  V30 34 H 3.807689 0.427946 -0.935982 0
M  V30 35 H 3.005467 -1.031639 -1.522288 0
M  V30 36 H 1.732897 1.723869 -1.053234 0
M  V30 37 H 2.620730 1.231322 -3.118570 0
M  V30 38 H -5.268268 -0.976913 -0.723406 0
M  V30 39 H -4.932006 -1.360540 1.717422 0
M  V30 40 H -4.333363 0.341688 1.934303 0
M  V30 41 H -7.137012 -0.472256 0.865202 0
M  V30 42 H -6.531156 1.226057 1.099434 0
M  V30 43 H -6.047508 2.488938 -1.358550 0
M  V30 44 H -3.897912 3.921573 -2.337473 0
M  V30 END ATOM
M  V30 BEGIN BOND
M  V30 1 2 1 2
M  V30 2 1 2 3
M  V30 3 1 3 4
M  V30 4 1 4 5
M  V30 5 1 5 6
M  V30 6 1 6 7
M  V30 7 1 7 8
M  V30 8 1 8 9
M  V30 9 2 9 10
M  V30 10 1 10 11
M  V30 11 2 11 12
M  V30 12 1 6 13
M  V30 13 1 13 14
M  V30 14 1 14 15
M  V30 15 1 2 16
M  V30 16 2 16 17
M  V30 17 1 17 18
M  V30 18 1 18 19
M  V30 19 1 19 20
M  V30 20 1 17 21
M  V30 21 2 21 22
M  V30 22 1 22 23
M  V30 23 1 14 4
M  V30 24 1 23 16
M  V30 25 1 12 8
M  V30 26 1 20 18
M  V30 27 1 3 24
M  V30 28 1 4 25 CFG=3
M  V30 29 1 5 26
M  V30 30 1 5 27
M  V30 31 1 6 28
M  V30 32 1 7 29
M  V30 33 1 7 30
M  V30 34 1 9 31
M  V30 35 1 10 32
M  V30 36 1 12 33
M  V30 37 1 13 34
M  V30 38 1 13 35
M  V30 39 1 14 36 CFG=1
M  V30 40 1 15 37
M  V30 41 1 18 38
M  V30 42 1 19 39
M  V30 43 1 19 40
M  V30 44 1 20 41
M  V30 45 1 20 42
M  V30 46 1 21 43
M  V30 47 1 22 44
M  V30 END BOND
M  V30 BEGIN COLLECTION
M  V30 MDLV30/STERAC1 ATOMS=(2 4 14)
M  V30 END COLLECTION
M  V30 END CTAB
M  END
>  <_CXSMILES_Data>  (1079) 
|&1:3,13|

$$$$
OCNT-2316253
     RDKit          3D

 35 38  0  0  0  0  0  0  0  0999 V2000
    0.8520   -2.1127   -1.4937 O   0  0  0  0  0  0  0  0  0  0  0  0
    1.1196   -1.1424   -0.7888 C   0  0  0  0  0  0  0  0  0  0  0  0
    0.1249   -0.2928   -0.3437 N   0  0  0  0  0  0  0  0  0  0  0  0
   -1.2820   -0.5671   -0.5969 C   0  0  0  0  0  0  0  0  0  0  0  0
   -1.7855   -1.6220    0.4042 C   0  0  0  0  0  0  0  0  0  0  0  0
   -3.3055   -1.7110    0.3943 C   0  0  0  0  0  0  0  0  0  0  0  0
   -3.9116   -0.3835    0.8402 C   0  0  0  0  0  0  0  0  0  0  0  0
   -3.3266    0.7892    0.1036 C   0  0  0  0  0  0  0  0  0  0  0  0
   -4.0051    2.0063    0.0927 C   0  0  0  0  0  0  0  0  0  0  0  0
   -3.5671    3.1170   -0.5377 N   0  0  0  0  0  0  0  0  0  0  0  0
   -2.3982    3.0138   -1.1995 C   0  0  0  0  0  0  0  0  0  0  0  0
   -1.6374    1.8569   -1.2398 C   0  0  0  0  0  0  0  0  0  0  0  0
   -2.0883    0.7195   -0.5542 C   0  0  0  0  0  0  0  0  0  0  0  0
    2.4687   -0.7954   -0.3468 C   0  0  0  0  0  0  0  0  0  0  0  0
    2.9296    0.3725    0.2456 C   0  0  0  0  0  0  0  0  0  0  0  0
    4.3079    0.2509    0.5008 C   0  0  0  0  0  0  0  0  0  0  0  0
    4.8886   -0.9134    0.1311 C   0  0  0  0  0  0  0  0  0  0  0  0
    6.2638   -0.8472    0.4648 C   0  0  0  0  0  0  0  0  0  0  0  0
    6.3971    0.3986    1.0264 C   0  0  0  0  0  0  0  0  0  0  0  0
    5.2251    1.0889    1.0610 O   0  0  0  0  0  0  0  0  0  0  0  0
    3.7280   -1.9740   -0.5836 S   0  0  0  0  0  0  0  0  0  0  0  0
    0.3356    0.3726    0.3849 H   0  0  0  0  0  0  0  0  0  0  0  0
   -1.3822   -0.9781   -1.6104 H   0  0  0  0  0  0  0  0  0  0  0  0
   -1.3541   -2.6013    0.1644 H   0  0  0  0  0  0  0  0  0  0  0  0
   -1.4455   -1.3763    1.4198 H   0  0  0  0  0  0  0  0  0  0  0  0
   -3.6538   -1.9661   -0.6146 H   0  0  0  0  0  0  0  0  0  0  0  0
   -3.6409   -2.5113    1.0634 H   0  0  0  0  0  0  0  0  0  0  0  0
   -4.9963   -0.4220    0.6846 H   0  0  0  0  0  0  0  0  0  0  0  0
   -3.7347   -0.2402    1.9134 H   0  0  0  0  0  0  0  0  0  0  0  0
   -4.9571    2.1243    0.6047 H   0  0  0  0  0  0  0  0  0  0  0  0
   -2.0770    3.9134   -1.7167 H   0  0  0  0  0  0  0  0  0  0  0  0
   -0.7101    1.8440   -1.8045 H   0  0  0  0  0  0  0  0  0  0  0  0
    2.3420    1.2502    0.4734 H   0  0  0  0  0  0  0  0  0  0  0  0
    7.0319   -1.5910    0.3162 H   0  0  0  0  0  0  0  0  0  0  0  0
    7.2442    0.9297    1.4404 H   0  0  0  0  0  0  0  0  0  0  0  0
  1  2  2  0
  2  3  1  0
  3  4  1  0
  4  5  1  0
  5  6  1  0
  6  7  1  0
  7  8  1  0
  8  9  2  0
  9 10  1  0
 10 11  2  0
 11 12  1  0
 12 13  2  0
  2 14  1  0
 14 15  2  0
 15 16  1  0
 16 17  2  0
 17 18  1  0
 18 19  2  0
 19 20  1  0
 17 21  1  0
 13  4  1  0
 21 14  1  0
 13  8  1  0
 20 16  1  0
  3 22  1  0
  4 23  1  0
  5 24  1  0
  5 25  1  0
  6 26  1  0
  6 27  1  0
  7 28  1  0
  7 29  1  0
  9 30  1  0
 11 31  1  0
 12 32  1  0
 15 33  1  0
 18 34  1  0
 19 35  1  0
M  END
$$$$
OCNT-2316255
     RDKit          3D

 47 50  0  0  0  0  0  0  0  0999 V2000
   -4.1050    1.0216    2.1491 C   0  0  0  0  0  0  0  0  0  0  0  0
   -3.4993   -0.3483    1.7787 C   0  0  0  0  0  0  0  0  0  0  0  0
   -4.0025   -1.3413    2.8542 C   0  0  0  0  0  0  0  0  0  0  0  0
   -2.0311   -0.3273    1.8229 N   0  0  0  0  0  0  0  0  0  0  0  0
   -1.2450    0.5846    1.1462 C   0  0  0  0  0  0  0  0  0  0  0  0
   -1.6743    1.5579    0.5388 O   0  0  0  0  0  0  0  0  0  0  0  0
    0.2412    0.2382    1.1883 C   0  0  0  0  0  0  0  0  0  0  0  0
    0.5031   -0.9028    0.1942 C   0  0  0  0  0  0  0  0  0  0  0  0
    1.9480   -0.9368   -0.2933 C   0  0  0  0  0  0  0  0  0  0  0  0
    2.3924    0.3442   -0.8557 N   0  0  0  0  0  0  0  0  0  0  0  0
    3.6915    0.5342   -1.3451 C   0  0  0  0  0  0  0  0  0  0  0  0
    4.1255    1.7606   -1.5235 N   0  0  0  0  0  0  0  0  0  0  0  0
    5.3966    1.8562   -1.9680 N   0  0  0  0  0  0  0  0  0  0  0  0
    6.0015    3.0377   -2.1786 N   0  0  0  0  0  0  0  0  0  0  0  0
    7.2345    2.7390   -2.5751 N   0  0  0  0  0  0  0  0  0  0  0  0
    7.4224    1.3755   -2.6396 N   0  0  0  0  0  0  0  0  0  0  0  0
    6.2851    0.8441   -2.2526 C   0  0  0  0  0  0  0  0  0  0  0  0
    5.8251   -0.4734   -2.0929 C   0  0  0  0  0  0  0  0  0  0  0  0
    4.5719   -0.6619   -1.6579 C   0  0  0  0  0  0  0  0  0  0  0  0
    1.5236    1.5034   -0.5742 C   0  0  0  0  0  0  0  0  0  0  0  0
    1.1050    1.4719    0.8912 C   0  0  0  0  0  0  0  0  0  0  0  0
   -3.9227   -0.8227    0.3864 C   0  0  0  0  0  0  0  0  0  0  0  0
   -4.6568   -0.1502   -0.5823 C   0  0  0  0  0  0  0  0  0  0  0  0
   -4.8819   -0.9281   -1.7566 C   0  0  0  0  0  0  0  0  0  0  0  0
   -4.3059   -2.1746   -1.6639 C   0  0  0  0  0  0  0  0  0  0  0  0
   -3.4690   -2.3887   -0.1898 S   0  0  0  0  0  0  0  0  0  0  0  0
   -5.1993    0.9672    2.2072 H   0  0  0  0  0  0  0  0  0  0  0  0
   -3.7364    1.3596    3.1231 H   0  0  0  0  0  0  0  0  0  0  0  0
   -3.8702    1.8069    1.4270 H   0  0  0  0  0  0  0  0  0  0  0  0
   -3.5590   -2.3374    2.7443 H   0  0  0  0  0  0  0  0  0  0  0  0
   -3.7429   -0.9955    3.8630 H   0  0  0  0  0  0  0  0  0  0  0  0
   -5.0916   -1.4587    2.8093 H   0  0  0  0  0  0  0  0  0  0  0  0
   -1.5994   -1.2133    2.0433 H   0  0  0  0  0  0  0  0  0  0  0  0
    0.4755   -0.0941    2.2085 H   0  0  0  0  0  0  0  0  0  0  0  0
    0.2510   -1.8638    0.6596 H   0  0  0  0  0  0  0  0  0  0  0  0
   -0.1622   -0.8081   -0.6763 H   0  0  0  0  0  0  0  0  0  0  0  0
    2.0251   -1.7219   -1.0539 H   0  0  0  0  0  0  0  0  0  0  0  0
    2.6040   -1.2102    0.5422 H   0  0  0  0  0  0  0  0  0  0  0  0
    6.4830   -1.3009   -2.3325 H   0  0  0  0  0  0  0  0  0  0  0  0
    4.1736   -1.6608   -1.5391 H   0  0  0  0  0  0  0  0  0  0  0  0
    0.6474    1.4714   -1.2347 H   0  0  0  0  0  0  0  0  0  0  0  0
    2.0193    2.4587   -0.7734 H   0  0  0  0  0  0  0  0  0  0  0  0
    0.5857    2.4017    1.1530 H   0  0  0  0  0  0  0  0  0  0  0  0
    2.0078    1.4346    1.5174 H   0  0  0  0  0  0  0  0  0  0  0  0
   -5.0267    0.8625   -0.4612 H   0  0  0  0  0  0  0  0  0  0  0  0
   -5.4360   -0.5858   -2.6238 H   0  0  0  0  0  0  0  0  0  0  0  0
   -4.3230   -2.9636   -2.4042 H   0  0  0  0  0  0  0  0  0  0  0  0
  1  2  1  0
  2  3  1  0
  2  4  1  0
  4  5  1  0
  5  6  2  0
  5  7  1  0
  7  8  1  0
  8  9  1  0
  9 10  1  0
 10 11  1  0
 11 12  2  0
 12 13  1  0
 13 14  1  0
 14 15  2  0
 15 16  1  0
 16 17  2  0
 17 18  1  0
 18 19  2  0
 10 20  1  0
 20 21  1  0
  2 22  1  0
 22 23  2  0
 23 24  1  0
 24 25  2  0
 25 26  1  0
 21  7  1  0
 26 22  1  0
 19 11  1  0
 17 13  1  0
  1 27  1  0
  1 28  1  0
  1 29  1  0
  3 30  1  0
  3 31  1  0
  3 32  1  0
  4 33  1  0
  7 34  1  0
  8 35  1  0
  8 36  1  0
  9 37  1  0
  9 38  1  0
 18 39  1  0
 19 40  1  0
 20 41  1  0
 20 42  1  0
 21 43  1  0
 21 44  1  0
 23 45  1  0
 24 46  1  0
 25 47  1  0
M  END
$$$$
OCNT-2316256
     RDKit          3D

 44 46  0  0  0  0  0  0  0  0999 V2000
    7.0334   -0.4841    1.4771 C   0  0  0  0  0  0  0  0  0  0  0  0
    5.8604    0.0058    0.7222 C   0  0  0  0  0  0  0  0  0  0  0  0
    4.5070   -0.1322    0.9305 C   0  0  0  0  0  0  0  0  0  0  0  0
    3.8958    0.5634   -0.1384 C   0  0  0  0  0  0  0  0  0  0  0  0
    2.4367    0.7360   -0.3988 C   0  0  0  0  0  0  0  0  0  0  0  0
    1.7902   -0.4919   -1.0706 C   0  0  0  0  0  0  0  0  0  0  0  0
    2.2832   -0.6945   -2.5038 C   0  0  0  0  0  0  0  0  0  0  0  0
    0.3291   -0.3768   -1.0858 N   0  0  0  0  0  0  0  0  0  0  0  0
   -0.4001   -0.5854    0.0571 C   0  0  0  0  0  0  0  0  0  0  0  0
    0.0736   -0.9445    1.1252 O   0  0  0  0  0  0  0  0  0  0  0  0
   -1.7293   -0.3330   -0.1565 N   0  0  0  0  0  0  0  0  0  0  0  0
   -2.6850   -0.5817    0.9023 C   0  0  0  0  0  0  0  0  0  0  0  0
   -2.6806    0.5250    1.9755 C   0  0  0  0  0  0  0  0  0  0  0  0
   -3.6662    1.6022    1.4966 C   0  0  0  0  0  0  0  0  0  0  0  0
   -4.6489    0.7820    0.7180 C   0  0  0  0  0  0  0  0  0  0  0  0
   -5.9234    1.1180    0.2924 C   0  0  0  0  0  0  0  0  0  0  0  0
   -6.6188    2.6456    0.6606 Cl  0  0  0  0  0  0  0  0  0  0  0  0
   -6.6503    0.1893   -0.4567 C   0  0  0  0  0  0  0  0  0  0  0  0
   -6.0931   -1.0580   -0.7820 C   0  0  0  0  0  0  0  0  0  0  0  0
   -4.8020   -1.3882   -0.3658 C   0  0  0  0  0  0  0  0  0  0  0  0
   -4.0913   -0.4607    0.3831 C   0  0  0  0  0  0  0  0  0  0  0  0
    4.8053    1.1026   -0.9598 N   0  0  0  0  0  0  0  0  0  0  0  0
    5.9822    0.7540   -0.4155 N   0  0  0  0  0  0  0  0  0  0  0  0
    7.6438    0.3540    1.8281 H   0  0  0  0  0  0  0  0  0  0  0  0
    7.6568   -1.1266    0.8471 H   0  0  0  0  0  0  0  0  0  0  0  0
    6.7228   -1.0659    2.3508 H   0  0  0  0  0  0  0  0  0  0  0  0
    4.0186   -0.6594    1.7391 H   0  0  0  0  0  0  0  0  0  0  0  0
    2.2650    1.6291   -1.0143 H   0  0  0  0  0  0  0  0  0  0  0  0
    1.9443    0.9420    0.5603 H   0  0  0  0  0  0  0  0  0  0  0  0
    2.0354   -1.3920   -0.4918 H   0  0  0  0  0  0  0  0  0  0  0  0
    3.3589   -0.8918   -2.5356 H   0  0  0  0  0  0  0  0  0  0  0  0
    1.7769   -1.5482   -2.9684 H   0  0  0  0  0  0  0  0  0  0  0  0
    2.0759    0.1857   -3.1224 H   0  0  0  0  0  0  0  0  0  0  0  0
   -0.0624    0.3158   -1.7087 H   0  0  0  0  0  0  0  0  0  0  0  0
   -2.0399   -0.5324   -1.0959 H   0  0  0  0  0  0  0  0  0  0  0  0
   -2.4986   -1.5639    1.3508 H   0  0  0  0  0  0  0  0  0  0  0  0
   -3.0564    0.1037    2.9190 H   0  0  0  0  0  0  0  0  0  0  0  0
   -1.6898    0.9425    2.1809 H   0  0  0  0  0  0  0  0  0  0  0  0
   -3.1734    2.3254    0.8385 H   0  0  0  0  0  0  0  0  0  0  0  0
   -4.1226    2.1176    2.3462 H   0  0  0  0  0  0  0  0  0  0  0  0
   -7.6549    0.4290   -0.7966 H   0  0  0  0  0  0  0  0  0  0  0  0
   -6.6724   -1.7693   -1.3664 H   0  0  0  0  0  0  0  0  0  0  0  0
   -4.3686   -2.3503   -0.6232 H   0  0  0  0  0  0  0  0  0  0  0  0
    6.8327    1.0621   -0.8748 H   0  0  0  0  0  0  0  0  0  0  0  0
  1  2  1  0
  2  3  2  0
  3  4  1  0
  4  5  1  0
  5  6  1  0
  6  7  1  0
  6  8  1  0
  8  9  1  0
  9 10  2  0
  9 11  1  0
 11 12  1  0
 12 13  1  0
 13 14  1  0
 14 15  1  0
 15 16  2  0
 16 17  1  0
 16 18  1  0
 18 19  2  0
 19 20  1  0
 20 21  2  0
  4 22  2  0
 22 23  1  0
 23  2  1  0
 21 12  1  0
 21 15  1  0
  1 24  1  0
  1 25  1  0
  1 26  1  0
  3 27  1  0
  5 28  1  0
  5 29  1  0
  6 30  1  0
  7 31  1  0
  7 32  1  0
  7 33  1  0
  8 34  1  0
 11 35  1  0
 12 36  1  0
 13 37  1  0
 13 38  1  0
 14 39  1  0
 14 40  1  0
 18 41  1  0
 19 42  1  0
 20 43  1  0
 23 44  1  0
M  END
$$$$
OCNT-2316262
     RDKit          3D

 40 42  0  0  0  0  0  0  0  0999 V2000
   -3.2898   -3.3531   -0.9329 C   0  0  0  0  0  0  0  0  0  0  0  0
   -2.8694   -2.0116   -1.3161 N   0  0  0  0  0  0  0  0  0  0  0  0
   -2.9071   -0.9831   -0.3440 C   0  0  0  0  0  0  0  0  0  0  0  0
   -3.4488   -1.1375    0.9362 C   0  0  0  0  0  0  0  0  0  0  0  0
   -3.5110   -0.0536    1.8196 C   0  0  0  0  0  0  0  0  0  0  0  0
   -3.0420    1.2049    1.4319 C   0  0  0  0  0  0  0  0  0  0  0  0
   -3.1408    2.3149    2.3339 C   0  0  0  0  0  0  0  0  0  0  0  0
   -3.2323    3.2020    3.0764 N   0  0  0  0  0  0  0  0  0  0  0  0
   -2.4811    1.3757    0.1650 C   0  0  0  0  0  0  0  0  0  0  0  0
   -2.3737    0.2830   -0.6970 C   0  0  0  0  0  0  0  0  0  0  0  0
   -1.7791    0.3922   -2.0041 N   0  0  0  0  0  0  0  0  0  0  0  0
   -0.2199    1.0467   -2.1244 S   0  0  0  0  0  0  0  0  0  0  0  0
   -0.2207    2.4009   -1.6179 O   0  0  0  0  0  0  0  0  0  0  0  0
    0.2574    0.7262   -3.4523 O   0  0  0  0  0  0  0  0  0  0  0  0
    0.8456    0.1589   -1.0901 C   0  0  0  0  0  0  0  0  0  0  0  0
    0.7776   -1.1999   -0.8466 C   0  0  0  0  0  0  0  0  0  0  0  0
    1.7945   -1.5198    0.0105 N   0  0  0  0  0  0  0  0  0  0  0  0
    2.5290   -0.3963    0.3189 C   0  0  0  0  0  0  0  0  0  0  0  0
    3.6527   -0.2622    1.1455 C   0  0  0  0  0  0  0  0  0  0  0  0
    4.2254    1.0137    1.2920 C   0  0  0  0  0  0  0  0  0  0  0  0
    5.4506    1.1961    2.1568 C   0  0  0  0  0  0  0  0  0  0  0  0
    6.6065    0.9886    1.4677 F   0  0  0  0  0  0  0  0  0  0  0  0
    5.4882    0.3353    3.2135 F   0  0  0  0  0  0  0  0  0  0  0  0
    5.5521    2.4441    2.6931 F   0  0  0  0  0  0  0  0  0  0  0  0
    3.6782    2.1028    0.6030 C   0  0  0  0  0  0  0  0  0  0  0  0
    2.5549    1.9501   -0.2206 C   0  0  0  0  0  0  0  0  0  0  0  0
    1.9592    0.6799   -0.3677 C   0  0  0  0  0  0  0  0  0  0  0  0
   -4.3514   -3.3790   -0.6661 H   0  0  0  0  0  0  0  0  0  0  0  0
   -3.1452   -4.0261   -1.7840 H   0  0  0  0  0  0  0  0  0  0  0  0
   -2.6865   -3.7375   -0.1040 H   0  0  0  0  0  0  0  0  0  0  0  0
   -3.4162   -1.6944   -2.1219 H   0  0  0  0  0  0  0  0  0  0  0  0
   -3.8519   -2.0882    1.2718 H   0  0  0  0  0  0  0  0  0  0  0  0
   -3.9465   -0.1970    2.8078 H   0  0  0  0  0  0  0  0  0  0  0  0
   -2.1350    2.3606   -0.1391 H   0  0  0  0  0  0  0  0  0  0  0  0
   -1.7620   -0.5182   -2.4705 H   0  0  0  0  0  0  0  0  0  0  0  0
    0.0980   -1.9599   -1.2091 H   0  0  0  0  0  0  0  0  0  0  0  0
    1.9920   -2.4472    0.3627 H   0  0  0  0  0  0  0  0  0  0  0  0
    4.0728   -1.1222    1.6620 H   0  0  0  0  0  0  0  0  0  0  0  0
    4.1233    3.0927    0.7020 H   0  0  0  0  0  0  0  0  0  0  0  0
    2.1522    2.8177   -0.7395 H   0  0  0  0  0  0  0  0  0  0  0  0
  1  2  1  0
  2  3  1  0
  3  4  1  0
  4  5  2  0
  5  6  1  0
  6  7  1  0
  7  8  3  0
  6  9  2  0
  9 10  1  0
 10 11  1  0
 11 12  1  0
 12 13  2  0
 12 14  2  0
 12 15  1  0
 15 16  2  0
 16 17  1  0
 17 18  1  0
 18 19  2  0
 19 20  1  0
 20 21  1  0
 21 22  1  0
 21 23  1  0
 21 24  1  0
 20 25  2  0
 25 26  1  0
 26 27  2  0
 10  3  2  0
 27 15  1  0
 27 18  1  0
  1 28  1  0
  1 29  1  0
  1 30  1  0
  2 31  1  0
  4 32  1  0
  5 33  1  0
  9 34  1  0
 11 35  1  0
 16 36  1  0
 17 37  1  0
 19 38  1  0
 25 39  1  0
 26 40  1  0
M  END
$$$$
OCNT-2316287
     RDKit          3D

 43 47  0  0  0  0  0  0  0  0999 V2000
    6.1691   -0.9765   -0.9940 C   0  0  0  0  0  0  0  0  0  0  0  0
    5.0255   -1.4474   -1.6320 C   0  0  0  0  0  0  0  0  0  0  0  0
    3.7629   -1.0230   -1.2102 C   0  0  0  0  0  0  0  0  0  0  0  0
    3.6252   -0.1092   -0.1516 C   0  0  0  0  0  0  0  0  0  0  0  0
    4.7852    0.3096    0.5153 C   0  0  0  0  0  0  0  0  0  0  0  0
    6.0477   -0.0999    0.0814 C   0  0  0  0  0  0  0  0  0  0  0  0
    4.7775    1.1399    1.6051 O   0  0  0  0  0  0  0  0  0  0  0  0
    3.5248    1.1651    2.2910 C   0  0  0  0  0  0  0  0  0  0  0  0
    2.3964    1.4946    1.3358 C   0  0  0  0  0  0  0  0  0  0  0  0
    2.2536    0.3698    0.2973 C   0  0  0  0  0  0  0  0  0  0  0  0
    1.3660    0.8538   -0.8746 C   0  0  0  0  0  0  0  0  0  0  0  0
    0.0395    1.2671   -0.4259 N   0  0  0  0  0  0  0  0  0  0  0  0
   -0.9389    0.2701   -0.3705 C   0  0  0  0  0  0  0  0  0  0  0  0
   -2.3022    0.5723   -0.5605 C   0  0  0  0  0  0  0  0  0  0  0  0
   -2.9530    1.7616   -0.8520 N   0  0  0  0  0  0  0  0  0  0  0  0
   -4.2278    1.4326   -0.9233 C   0  0  0  0  0  0  0  0  0  0  0  0
   -4.4140    0.1024   -0.6823 N   0  0  0  0  0  0  0  0  0  0  0  0
   -5.7110   -0.5979   -0.7240 C   0  0  0  0  0  0  0  0  0  0  0  0
   -6.2625   -1.3279    0.4777 C   0  0  0  0  0  0  0  0  0  0  0  0
   -6.9376   -0.0810   -0.0088 C   0  0  0  0  0  0  0  0  0  0  0  0
   -3.1994   -0.4817   -0.4680 C   0  0  0  0  0  0  0  0  0  0  0  0
   -2.9178   -1.7731   -0.2235 N   0  0  0  0  0  0  0  0  0  0  0  0
   -1.5933   -1.9500   -0.0626 C   0  0  0  0  0  0  0  0  0  0  0  0
   -0.6102   -1.0254   -0.1252 N   0  0  0  0  0  0  0  0  0  0  0  0
    7.1523   -1.3016   -1.3222 H   0  0  0  0  0  0  0  0  0  0  0  0
    5.1142   -2.1484   -2.4581 H   0  0  0  0  0  0  0  0  0  0  0  0
    2.8879   -1.4244   -1.7160 H   0  0  0  0  0  0  0  0  0  0  0  0
    6.9362    0.2544    0.5969 H   0  0  0  0  0  0  0  0  0  0  0  0
    3.5939    1.9410    3.0608 H   0  0  0  0  0  0  0  0  0  0  0  0
    3.3650    0.2094    2.8060 H   0  0  0  0  0  0  0  0  0  0  0  0
    1.4603    1.6274    1.8895 H   0  0  0  0  0  0  0  0  0  0  0  0
    2.6243    2.4432    0.8318 H   0  0  0  0  0  0  0  0  0  0  0  0
    1.7791   -0.4849    0.7967 H   0  0  0  0  0  0  0  0  0  0  0  0
    1.8463    1.7205   -1.3481 H   0  0  0  0  0  0  0  0  0  0  0  0
    1.2782    0.1026   -1.6684 H   0  0  0  0  0  0  0  0  0  0  0  0
   -0.3396    2.0902   -0.8926 H   0  0  0  0  0  0  0  0  0  0  0  0
   -5.0451    2.1067   -1.1420 H   0  0  0  0  0  0  0  0  0  0  0  0
   -5.8728   -1.0749   -1.6873 H   0  0  0  0  0  0  0  0  0  0  0  0
   -5.7095   -1.2808    1.4097 H   0  0  0  0  0  0  0  0  0  0  0  0
   -6.7540   -2.2792    0.3070 H   0  0  0  0  0  0  0  0  0  0  0  0
   -6.8555    0.8047    0.6113 H   0  0  0  0  0  0  0  0  0  0  0  0
   -7.8960   -0.1848   -0.5055 H   0  0  0  0  0  0  0  0  0  0  0  0
   -1.2710   -2.9669    0.1436 H   0  0  0  0  0  0  0  0  0  0  0  0
  1  2  2  0
  2  3  1  0
  3  4  2  0
  4  5  1  0
  5  6  2  0
  5  7  1  0
  7  8  1  0
  8  9  1  0
  9 10  1  0
 10 11  1  0
 11 12  1  0
 12 13  1  0
 13 14  2  0
 14 15  1  0
 15 16  2  0
 16 17  1  0
 17 18  1  0
 18 19  1  0
 19 20  1  0
 17 21  1  0
 21 22  2  0
 22 23  1  0
 23 24  2  0
  6  1  1  0
 24 13  1  0
 10  4  1  0
 21 14  1  0
 20 18  1  0
  1 25  1  0
  2 26  1  0
  3 27  1  0
  6 28  1  0
  8 29  1  0
  8 30  1  0
  9 31  1  0
  9 32  1  0
 10 33  1  0
 11 34  1  0
 11 35  1  0
 12 36  1  0
 16 37  1  0
 18 38  1  0
 19 39  1  0
 19 40  1  0
 20 41  1  0
 20 42  1  0
 23 43  1  0
M  END
$$$$
OCNT-2316288
     RDKit          3D

 45 48  0  0  0  0  0  0  0  0999 V2000
    5.7398    0.4501   -1.4782 C   0  0  0  0  0  0  0  0  0  0  0  0
    4.5549    1.2403   -2.0048 C   0  0  0  0  0  0  0  0  0  0  0  0
    3.4714    0.3843   -2.4332 N   0  0  0  0  0  0  0  0  0  0  0  0
    2.4040   -0.0480   -1.7046 C   0  0  0  0  0  0  0  0  0  0  0  0
    1.6591   -0.7819   -2.6052 C   0  0  0  0  0  0  0  0  0  0  0  0
    0.3906   -1.5323   -2.4511 C   0  0  0  0  0  0  0  0  0  0  0  0
   -0.5905   -0.8675   -1.5015 C   0  0  0  0  0  0  0  0  0  0  0  0
   -1.4459   -0.0866   -1.9058 O   0  0  0  0  0  0  0  0  0  0  0  0
   -0.4282   -1.2735   -0.1795 N   0  0  0  0  0  0  0  0  0  0  0  0
   -1.3395   -0.9250    0.8115 C   0  0  0  0  0  0  0  0  0  0  0  0
   -1.7350   -1.7335    1.8443 C   0  0  0  0  0  0  0  0  0  0  0  0
   -1.5075   -3.0692    2.4241 C   0  0  0  0  0  0  0  0  0  0  0  0
   -2.8238   -3.2992    3.2426 C   0  0  0  0  0  0  0  0  0  0  0  0
   -3.4696   -1.8938    3.4837 C   0  0  0  0  0  0  0  0  0  0  0  0
   -2.8186   -1.0946    2.4305 C   0  0  0  0  0  0  0  0  0  0  0  0
   -3.1176    0.0709    1.8873 N   0  0  0  0  0  0  0  0  0  0  0  0
   -2.0827    0.2725    0.9866 N   0  0  0  0  0  0  0  0  0  0  0  0
   -1.8110    1.6082    0.5612 C   0  0  0  0  0  0  0  0  0  0  0  0
   -2.8189    2.5808    0.6672 C   0  0  0  0  0  0  0  0  0  0  0  0
   -2.5691    3.9028    0.2909 C   0  0  0  0  0  0  0  0  0  0  0  0
   -1.3081    4.2676   -0.1766 C   0  0  0  0  0  0  0  0  0  0  0  0
   -0.2951    3.3137   -0.2625 C   0  0  0  0  0  0  0  0  0  0  0  0
   -0.5415    1.9897    0.1129 C   0  0  0  0  0  0  0  0  0  0  0  0
    2.3228   -0.8057   -3.8071 N   0  0  0  0  0  0  0  0  0  0  0  0
    3.4307   -0.0876   -3.6878 N   0  0  0  0  0  0  0  0  0  0  0  0
    6.1446   -0.2172   -2.2474 H   0  0  0  0  0  0  0  0  0  0  0  0
    6.5379    1.1288   -1.1594 H   0  0  0  0  0  0  0  0  0  0  0  0
    5.4519   -0.1667   -0.6201 H   0  0  0  0  0  0  0  0  0  0  0  0
    4.1639    1.9076   -1.2287 H   0  0  0  0  0  0  0  0  0  0  0  0
    4.8512    1.8593   -2.8588 H   0  0  0  0  0  0  0  0  0  0  0  0
    2.2733    0.2019   -0.6628 H   0  0  0  0  0  0  0  0  0  0  0  0
   -0.1085   -1.6316   -3.4226 H   0  0  0  0  0  0  0  0  0  0  0  0
    0.6052   -2.5522   -2.1107 H   0  0  0  0  0  0  0  0  0  0  0  0
    0.0645   -2.1475   -0.0329 H   0  0  0  0  0  0  0  0  0  0  0  0
   -0.6410   -3.0571    3.0929 H   0  0  0  0  0  0  0  0  0  0  0  0
   -1.3725   -3.8480    1.6684 H   0  0  0  0  0  0  0  0  0  0  0  0
   -3.5124   -3.9077    2.6417 H   0  0  0  0  0  0  0  0  0  0  0  0
   -2.6409   -3.8375    4.1781 H   0  0  0  0  0  0  0  0  0  0  0  0
   -3.2054   -1.5164    4.4764 H   0  0  0  0  0  0  0  0  0  0  0  0
   -4.5572   -1.9353    3.3841 H   0  0  0  0  0  0  0  0  0  0  0  0
   -3.8114    2.3165    1.0283 H   0  0  0  0  0  0  0  0  0  0  0  0
   -3.3614    4.6431    0.3602 H   0  0  0  0  0  0  0  0  0  0  0  0
   -1.1161    5.2951   -0.4735 H   0  0  0  0  0  0  0  0  0  0  0  0
    0.6889    3.6012   -0.6226 H   0  0  0  0  0  0  0  0  0  0  0  0
    0.2748    1.2809    0.0645 H   0  0  0  0  0  0  0  0  0  0  0  0
  1  2  1  0
  2  3  1  0
  3  4  1  0
  4  5  2  0
  5  6  1  0
  6  7  1  0
  7  8  2  0
  7  9  1  0
  9 10  1  0
 10 11  2  0
 11 12  1  0
 12 13  1  0
 13 14  1  0
 14 15  1  0
 15 16  2  0
 16 17  1  0
 17 18  1  0
 18 19  2  0
 19 20  1  0
 20 21  2  0
 21 22  1  0
 22 23  2  0
  5 24  1  0
 24 25  2  0
 25  3  1  0
 17 10  1  0
 23 18  1  0
 15 11  1  0
  1 26  1  0
  1 27  1  0
  1 28  1  0
  2 29  1  0
  2 30  1  0
  4 31  1  0
  6 32  1  0
  6 33  1  0
  9 34  1  0
 12 35  1  0
 12 36  1  0
 13 37  1  0
 13 38  1  0
 14 39  1  0
 14 40  1  0
 19 41  1  0
 20 42  1  0
 21 43  1  0
 22 44  1  0
 23 45  1  0
M  END
$$$$
OCNT-2316296
     RDKit          3D

 36 39  0  0  0  0  0  0  0  0999 V2000
   -6.8918   -0.8997    0.2650 O   0  0  0  0  0  0  0  0  0  0  0  0
   -5.6807   -0.7338    0.1623 C   0  0  0  0  0  0  0  0  0  0  0  0
   -4.8316   -1.5476   -0.7845 C   0  0  0  0  0  0  0  0  0  0  0  0
   -3.3706   -1.5218   -0.3663 C   0  0  0  0  0  0  0  0  0  0  0  0
   -2.8789   -0.0729   -0.2915 C   0  0  0  0  0  0  0  0  0  0  0  0
   -1.4963    0.0295    0.1406 N   0  0  0  0  0  0  0  0  0  0  0  0
   -0.5099    0.8107   -0.3883 C   0  0  0  0  0  0  0  0  0  0  0  0
    0.5998    0.4953    0.3652 C   0  0  0  0  0  0  0  0  0  0  0  0
    1.9214    1.0684    0.2186 C   0  0  0  0  0  0  0  0  0  0  0  0
    2.0455    2.4548    0.1168 C   0  0  0  0  0  0  0  0  0  0  0  0
    3.2149    3.1157   -0.0290 N   0  0  0  0  0  0  0  0  0  0  0  0
    4.3281    2.3525   -0.0611 C   0  0  0  0  0  0  0  0  0  0  0  0
    4.3425    0.9594    0.0352 C   0  0  0  0  0  0  0  0  0  0  0  0
    5.5496    0.2383   -0.0131 C   0  0  0  0  0  0  0  0  0  0  0  0
    5.5526   -1.1519    0.0740 C   0  0  0  0  0  0  0  0  0  0  0  0
    4.3512   -1.8353    0.2079 C   0  0  0  0  0  0  0  0  0  0  0  0
    3.1462   -1.1286    0.2573 C   0  0  0  0  0  0  0  0  0  0  0  0
    3.1061    0.2863    0.1785 C   0  0  0  0  0  0  0  0  0  0  0  0
    0.2589   -0.4510    1.2942 N   0  0  0  0  0  0  0  0  0  0  0  0
   -1.0279   -0.7341    1.1443 N   0  0  0  0  0  0  0  0  0  0  0  0
   -3.7773    0.7652    0.6023 C   0  0  0  0  0  0  0  0  0  0  0  0
   -3.4634    1.8767    1.0242 O   0  0  0  0  0  0  0  0  0  0  0  0
   -5.0413    0.2739    0.8399 N   0  0  0  0  0  0  0  0  0  0  0  0
   -4.9572   -1.1418   -1.7942 H   0  0  0  0  0  0  0  0  0  0  0  0
   -5.1961   -2.5803   -0.7770 H   0  0  0  0  0  0  0  0  0  0  0  0
   -2.7665   -2.0934   -1.0809 H   0  0  0  0  0  0  0  0  0  0  0  0
   -3.2710   -2.0180    0.6082 H   0  0  0  0  0  0  0  0  0  0  0  0
   -2.9294    0.3710   -1.2947 H   0  0  0  0  0  0  0  0  0  0  0  0
   -0.6755    1.4941   -1.2082 H   0  0  0  0  0  0  0  0  0  0  0  0
    1.1739    3.1040    0.1618 H   0  0  0  0  0  0  0  0  0  0  0  0
    5.2511    2.9167   -0.1727 H   0  0  0  0  0  0  0  0  0  0  0  0
    6.4991    0.7592   -0.1196 H   0  0  0  0  0  0  0  0  0  0  0  0
    6.4908   -1.6995    0.0378 H   0  0  0  0  0  0  0  0  0  0  0  0
    4.3446   -2.9202    0.2777 H   0  0  0  0  0  0  0  0  0  0  0  0
    2.2285   -1.7042    0.3632 H   0  0  0  0  0  0  0  0  0  0  0  0
   -5.6395    0.8625    1.4058 H   0  0  0  0  0  0  0  0  0  0  0  0
  1  2  2  0
  2  3  1  0
  3  4  1  0
  4  5  1  0
  5  6  1  0
  6  7  1  0
  7  8  2  0
  8  9  1  0
  9 10  1  0
 10 11  2  0
 11 12  1  0
 12 13  2  0
 13 14  1  0
 14 15  2  0
 15 16  1  0
 16 17  2  0
 17 18  1  0
  8 19  1  0
 19 20  2  0
  5 21  1  0
 21 22  2  0
 21 23  1  0
 23  2  1  0
 20  6  1  0
 18  9  2  0
 18 13  1  0
  3 24  1  0
  3 25  1  0
  4 26  1  0
  4 27  1  0
  5 28  1  0
  7 29  1  0
 10 30  1  0
 12 31  1  0
 14 32  1  0
 15 33  1  0
 16 34  1  0
 17 35  1  0
 23 36  1  0
M  END
$$$$
OCNT-2316305
     RDKit          3D

 45 46  0  0  0  0  0  0  0  0999 V2000
    5.6731   -1.3594   -1.1384 C   0  0  0  0  0  0  0  0  0  0  0  0
    4.1929   -1.1055   -0.9063 C   0  0  0  0  0  0  0  0  0  0  0  0
    3.9702    0.0359    0.0848 C   0  0  0  0  0  0  0  0  0  0  0  0
    2.5500    0.2845    0.3106 N   0  0  0  0  0  0  0  0  0  0  0  0
    1.8551   -0.4920    1.3188 C   0  0  0  0  0  0  0  0  0  0  0  0
    0.4375   -0.8298    0.8723 C   0  0  0  0  0  0  0  0  0  0  0  0
   -0.3436    0.3819    0.6167 N   0  0  0  0  0  0  0  0  0  0  0  0
   -1.6919    0.4979    0.9514 C   0  0  0  0  0  0  0  0  0  0  0  0
   -2.3042    1.5623    0.8790 O   0  0  0  0  0  0  0  0  0  0  0  0
   -2.3947   -0.7506    1.4626 C   0  0  0  0  0  0  0  0  0  0  0  0
   -3.9157   -0.6218    1.4137 C   0  0  0  0  0  0  0  0  0  0  0  0
   -4.4459   -0.8708    0.0860 N   0  0  0  0  0  0  0  0  0  0  0  0
   -4.6507    0.0543   -0.8969 C   0  0  0  0  0  0  0  0  0  0  0  0
   -5.1496   -0.6621   -1.9594 C   0  0  0  0  0  0  0  0  0  0  0  0
   -5.2588   -1.9919   -1.6413 N   0  0  0  0  0  0  0  0  0  0  0  0
   -4.8384   -2.0855   -0.4002 C   0  0  0  0  0  0  0  0  0  0  0  0
    0.3692    1.5088   -0.0817 C   0  0  0  0  0  0  0  0  0  0  0  0
    0.4784    2.7307    0.8526 C   0  0  0  0  0  0  0  0  0  0  0  0
   -0.3647    1.8980   -1.3829 C   0  0  0  0  0  0  0  0  0  0  0  0
    1.8547    1.1786   -0.4962 C   0  0  0  0  0  0  0  0  0  0  0  0
    2.4247    1.7810   -1.4089 O   0  0  0  0  0  0  0  0  0  0  0  0
    6.1752   -1.6317   -0.2045 H   0  0  0  0  0  0  0  0  0  0  0  0
    5.8102   -2.1799   -1.8496 H   0  0  0  0  0  0  0  0  0  0  0  0
    6.1644   -0.4704   -1.5467 H   0  0  0  0  0  0  0  0  0  0  0  0
    3.7227   -2.0235   -0.5350 H   0  0  0  0  0  0  0  0  0  0  0  0
    3.7110   -0.8705   -1.8628 H   0  0  0  0  0  0  0  0  0  0  0  0
    4.4389   -0.1833    1.0512 H   0  0  0  0  0  0  0  0  0  0  0  0
    4.4360    0.9511   -0.2990 H   0  0  0  0  0  0  0  0  0  0  0  0
    2.4072   -1.4194    1.5058 H   0  0  0  0  0  0  0  0  0  0  0  0
    1.8494    0.0963    2.2431 H   0  0  0  0  0  0  0  0  0  0  0  0
   -0.0285   -1.4451    1.6452 H   0  0  0  0  0  0  0  0  0  0  0  0
    0.4499   -1.4059   -0.0605 H   0  0  0  0  0  0  0  0  0  0  0  0
   -2.0817   -1.6243    0.8812 H   0  0  0  0  0  0  0  0  0  0  0  0
   -2.0872   -0.8858    2.5060 H   0  0  0  0  0  0  0  0  0  0  0  0
   -4.2752    0.3599    1.7408 H   0  0  0  0  0  0  0  0  0  0  0  0
   -4.3685   -1.3691    2.0764 H   0  0  0  0  0  0  0  0  0  0  0  0
   -4.4272    1.1054   -0.7700 H   0  0  0  0  0  0  0  0  0  0  0  0
   -5.4356   -0.2908   -2.9349 H   0  0  0  0  0  0  0  0  0  0  0  0
   -4.7953   -2.9976    0.1805 H   0  0  0  0  0  0  0  0  0  0  0  0
   -0.4954    3.1757    1.0756 H   0  0  0  0  0  0  0  0  0  0  0  0
    1.0972    3.5180    0.4059 H   0  0  0  0  0  0  0  0  0  0  0  0
    0.9408    2.4559    1.8075 H   0  0  0  0  0  0  0  0  0  0  0  0
    0.1615    2.6926   -1.9243 H   0  0  0  0  0  0  0  0  0  0  0  0
   -1.3796    2.2638   -1.2065 H   0  0  0  0  0  0  0  0  0  0  0  0
   -0.4377    1.0344   -2.0544 H   0  0  0  0  0  0  0  0  0  0  0  0
  1  2  1  0
  2  3  1  0
  3  4  1  0
  4  5  1  0
  5  6  1  0
  6  7  1  0
  7  8  1  0
  8  9  2  0
  8 10  1  0
 10 11  1  0
 11 12  1  0
 12 13  1  0
 13 14  2  0
 14 15  1  0
 15 16  2  0
  7 17  1  0
 17 18  1  0
 17 19  1  0
 17 20  1  0
 20 21  2  0
 20  4  1  0
 16 12  1  0
  1 22  1  0
  1 23  1  0
  1 24  1  0
  2 25  1  0
  2 26  1  0
  3 27  1  0
  3 28  1  0
  5 29  1  0
  5 30  1  0
  6 31  1  0
  6 32  1  0
 10 33  1  0
 10 34  1  0
 11 35  1  0
 11 36  1  0
 13 37  1  0
 14 38  1  0
 16 39  1  0
 18 40  1  0
 18 41  1  0
 18 42  1  0
 19 43  1  0
 19 44  1  0
 19 45  1  0
M  END
$$$$
OCNT-2316334
     RDKit          3D

 40 42  0  0  0  0  0  0  0  0999 V2000
    1.7182   -1.9056   -0.7832 C   0  0  0  0  0  0  0  0  0  0  0  0
    1.8487   -0.4505   -0.8543 N   0  0  0  0  0  0  0  0  0  0  0  0
    0.9821    0.1150   -1.9164 C   0  0  0  0  0  0  0  0  0  0  0  0
   -0.5008   -0.1600   -1.7904 C   0  0  0  0  0  0  0  0  0  0  0  0
   -1.2581    0.2323   -0.7856 N   0  0  0  0  0  0  0  0  0  0  0  0
   -2.5626   -0.1934   -0.9649 C   0  0  0  0  0  0  0  0  0  0  0  0
   -3.5883    0.0893    0.0244 C   0  0  0  0  0  0  0  0  0  0  0  0
   -3.2992    0.0124    1.3907 C   0  0  0  0  0  0  0  0  0  0  0  0
   -2.0859   -0.3682    1.8197 F   0  0  0  0  0  0  0  0  0  0  0  0
   -4.2677    0.2950    2.3569 C   0  0  0  0  0  0  0  0  0  0  0  0
   -5.5540    0.6631    1.9687 C   0  0  0  0  0  0  0  0  0  0  0  0
   -5.8633    0.7434    0.6129 C   0  0  0  0  0  0  0  0  0  0  0  0
   -4.8862    0.4585   -0.3436 C   0  0  0  0  0  0  0  0  0  0  0  0
   -5.2310    0.5590   -1.6371 F   0  0  0  0  0  0  0  0  0  0  0  0
   -2.7846   -0.8947   -2.1338 C   0  0  0  0  0  0  0  0  0  0  0  0
   -1.3263   -1.0356   -3.0230 S   0  0  0  0  0  0  0  0  0  0  0  0
    1.6120    0.1949    0.4570 C   0  0  0  0  0  0  0  0  0  0  0  0
    2.9022    0.6087    1.2135 C   0  0  0  0  0  0  0  0  0  0  0  0
    2.4977    1.3487    2.3989 O   0  0  0  0  0  0  0  0  0  0  0  0
    3.9896   -0.4716    1.5098 C   0  0  0  0  0  0  0  0  0  0  0  0
    4.7833    0.0298    0.2930 C   0  0  0  0  0  0  0  0  0  0  0  0
    3.9842    1.3429    0.3573 C   0  0  0  0  0  0  0  0  0  0  0  0
    1.9073   -2.3561   -1.7643 H   0  0  0  0  0  0  0  0  0  0  0  0
    2.4588   -2.3369   -0.1056 H   0  0  0  0  0  0  0  0  0  0  0  0
    0.7279   -2.2277   -0.4423 H   0  0  0  0  0  0  0  0  0  0  0  0
    1.3530   -0.2521   -2.8824 H   0  0  0  0  0  0  0  0  0  0  0  0
    1.1278    1.2026   -1.9580 H   0  0  0  0  0  0  0  0  0  0  0  0
   -4.0047    0.2220    3.4084 H   0  0  0  0  0  0  0  0  0  0  0  0
   -6.3092    0.8859    2.7183 H   0  0  0  0  0  0  0  0  0  0  0  0
   -6.8593    1.0311    0.2889 H   0  0  0  0  0  0  0  0  0  0  0  0
   -3.7036   -1.3267   -2.5037 H   0  0  0  0  0  0  0  0  0  0  0  0
    1.0379    1.1209    0.3167 H   0  0  0  0  0  0  0  0  0  0  0  0
    0.9928   -0.4398    1.1047 H   0  0  0  0  0  0  0  0  0  0  0  0
    3.3246    1.6339    2.8222 H   0  0  0  0  0  0  0  0  0  0  0  0
    4.5176   -0.3152    2.4590 H   0  0  0  0  0  0  0  0  0  0  0  0
    3.6745   -1.5159    1.4786 H   0  0  0  0  0  0  0  0  0  0  0  0
    5.8614    0.1300    0.4461 H   0  0  0  0  0  0  0  0  0  0  0  0
    4.6161   -0.5516   -0.6196 H   0  0  0  0  0  0  0  0  0  0  0  0
    4.5072    2.1434    0.8942 H   0  0  0  0  0  0  0  0  0  0  0  0
    3.6599    1.7388   -0.6093 H   0  0  0  0  0  0  0  0  0  0  0  0
  1  2  1  0
  2  3  1  0
  3  4  1  0
  4  5  2  0
  5  6  1  0
  6  7  1  0
  7  8  2  0
  8  9  1  0
  8 10  1  0
 10 11  2  0
 11 12  1  0
 12 13  2  0
 13 14  1  0
  6 15  2  0
 15 16  1  0
  2 17  1  0
 17 18  1  0
 18 19  1  0
 18 20  1  0
 20 21  1  0
 21 22  1  0
 16  4  1  0
 22 18  1  0
 13  7  1  0
  1 23  1  0
  1 24  1  0
  1 25  1  0
  3 26  1  0
  3 27  1  0
 10 28  1  0
 11 29  1  0
 12 30  1  0
 15 31  1  0
 17 32  1  0
 17 33  1  0
 19 34  1  0
 20 35  1  0
 20 36  1  0
 21 37  1  0
 21 38  1  0
 22 39  1  0
 22 40  1  0
M  END
$$$$
OCNT-2316345
     RDKit          3D

 38 41  0  0  0  0  0  0  0  0999 V2000
   -4.6347   -2.0192   -0.5633 C   0  0  0  0  0  0  0  0  0  0  0  0
   -3.1950   -1.9028   -0.6373 N   0  0  0  0  0  0  0  0  0  0  0  0
   -2.5762   -2.5952   -1.6175 N   0  0  0  0  0  0  0  0  0  0  0  0
   -1.3089   -2.2002   -1.5415 C   0  0  0  0  0  0  0  0  0  0  0  0
   -1.0921   -1.2312   -0.5356 C   0  0  0  0  0  0  0  0  0  0  0  0
    0.1875   -0.6461   -0.1627 C   0  0  0  0  0  0  0  0  0  0  0  0
    0.5284   -0.5700    1.0109 O   0  0  0  0  0  0  0  0  0  0  0  0
    0.9137   -0.2162   -1.2551 N   0  0  0  0  0  0  0  0  0  0  0  0
    2.1907    0.3841   -1.2899 C   0  0  0  0  0  0  0  0  0  0  0  0
    2.6789    0.7486   -2.5603 C   0  0  0  0  0  0  0  0  0  0  0  0
    3.9266    1.3453   -2.7320 C   0  0  0  0  0  0  0  0  0  0  0  0
    4.7419    1.6030   -1.6311 C   0  0  0  0  0  0  0  0  0  0  0  0
    4.2918    1.2551   -0.3442 C   0  0  0  0  0  0  0  0  0  0  0  0
    3.0336    0.6566   -0.1969 C   0  0  0  0  0  0  0  0  0  0  0  0
    2.8764    0.4399    1.1567 N   0  0  0  0  0  0  0  0  0  0  0  0
    3.9699    0.8699    1.8565 C   0  0  0  0  0  0  0  0  0  0  0  0
    4.8671    1.3812    0.9515 C   0  0  0  0  0  0  0  0  0  0  0  0
   -2.3428   -1.0687    0.0512 C   0  0  0  0  0  0  0  0  0  0  0  0
   -2.7174   -0.2153    1.0976 N   0  0  0  0  0  0  0  0  0  0  0  0
   -2.0908    0.9632    1.4620 C   0  0  0  0  0  0  0  0  0  0  0  0
   -2.7658    1.5475    2.5105 C   0  0  0  0  0  0  0  0  0  0  0  0
   -3.8443    0.7034    2.8279 C   0  0  0  0  0  0  0  0  0  0  0  0
   -3.7893   -0.3654    1.9605 C   0  0  0  0  0  0  0  0  0  0  0  0
   -4.8824   -2.6987    0.2548 H   0  0  0  0  0  0  0  0  0  0  0  0
   -5.0122   -2.4305   -1.5044 H   0  0  0  0  0  0  0  0  0  0  0  0
   -5.0723   -1.0297   -0.4167 H   0  0  0  0  0  0  0  0  0  0  0  0
   -0.5859   -2.6479   -2.2125 H   0  0  0  0  0  0  0  0  0  0  0  0
    0.4566   -0.3019   -2.1539 H   0  0  0  0  0  0  0  0  0  0  0  0
    2.0795    0.5669   -3.4501 H   0  0  0  0  0  0  0  0  0  0  0  0
    4.2690    1.6122   -3.7286 H   0  0  0  0  0  0  0  0  0  0  0  0
    5.7144    2.0678   -1.7654 H   0  0  0  0  0  0  0  0  0  0  0  0
    2.0442    0.0189    1.5592 H   0  0  0  0  0  0  0  0  0  0  0  0
    4.0095    0.7741    2.9330 H   0  0  0  0  0  0  0  0  0  0  0  0
    5.8343    1.8028    1.1909 H   0  0  0  0  0  0  0  0  0  0  0  0
   -1.2217    1.3227    0.9308 H   0  0  0  0  0  0  0  0  0  0  0  0
   -2.4975    2.4790    2.9923 H   0  0  0  0  0  0  0  0  0  0  0  0
   -4.5726    0.8426    3.6166 H   0  0  0  0  0  0  0  0  0  0  0  0
   -4.4119   -1.2458    1.9363 H   0  0  0  0  0  0  0  0  0  0  0  0
  1  2  1  0
  2  3  1  0
  3  4  2  0
  4  5  1  0
  5  6  1  0
  6  7  2  0
  6  8  1  0
  8  9  1  0
  9 10  1  0
 10 11  2  0
 11 12  1  0
 12 13  2  0
 13 14  1  0
 14 15  1  0
 15 16  1  0
 16 17  2  0
  5 18  2  0
 18 19  1  0
 19 20  1  0
 20 21  2  0
 21 22  1  0
 22 23  2  0
 18  2  1  0
 23 19  1  0
 14  9  2  0
 17 13  1  0
  1 24  1  0
  1 25  1  0
  1 26  1  0
  4 27  1  0
  8 28  1  0
 10 29  1  0
 11 30  1  0
 12 31  1  0
 15 32  1  0
 16 33  1  0
 17 34  1  0
 20 35  1  0
 21 36  1  0
 22 37  1  0
 23 38  1  0
M  END
$$$$
OCNT-2316348
     RDKit          3D

 61 63  0  0  0  0  0  0  0  0999 V2000
    1.8322   -2.4657   -0.6975 C   0  0  0  0  0  0  0  0  0  0  0  0
    2.9875   -1.5118   -0.9748 C   0  0  0  0  0  0  0  0  0  0  0  0
    3.3050   -1.6845   -2.3656 O   0  0  0  0  0  0  0  0  0  0  0  0
    2.6989   -0.0207   -0.6773 C   0  0  0  0  0  0  0  0  0  0  0  0
    3.9360    0.7335   -0.4396 N   0  0  0  0  0  0  0  0  0  0  0  0
    4.8472    1.0095   -1.4198 C   0  0  0  0  0  0  0  0  0  0  0  0
    4.7173    0.6209   -2.5744 O   0  0  0  0  0  0  0  0  0  0  0  0
    6.0439    1.8025   -1.0317 C   0  0  0  0  0  0  0  0  0  0  0  0
    5.9627    2.9413   -0.0423 C   0  0  0  0  0  0  0  0  0  0  0  0
    6.6947    1.6829    0.3266 C   0  0  0  0  0  0  0  0  0  0  0  0
    1.8320    0.1967    0.5739 C   0  0  0  0  0  0  0  0  0  0  0  0
    2.3283    0.4130    1.6788 O   0  0  0  0  0  0  0  0  0  0  0  0
    0.4730    0.1169    0.3567 N   0  0  0  0  0  0  0  0  0  0  0  0
   -0.4770    0.4225    1.4114 C   0  0  0  0  0  0  0  0  0  0  0  0
   -1.8966   -0.2224    1.2257 C   0  0  0  0  0  0  0  0  0  0  0  0
   -2.6058    0.1642   -0.0393 N   0  0  0  0  0  0  0  0  0  0  0  0
   -2.3524   -0.6403   -1.2432 C   0  0  0  0  0  0  0  0  0  0  0  0
   -3.3797   -0.3369   -2.3394 C   0  0  0  0  0  0  0  0  0  0  0  0
   -3.4073    1.1435   -2.6858 C   0  0  0  0  0  0  0  0  0  0  0  0
   -3.5997    1.9705   -1.4234 C   0  0  0  0  0  0  0  0  0  0  0  0
   -2.5693    1.6023   -0.3546 C   0  0  0  0  0  0  0  0  0  0  0  0
   -2.7601    0.2678    2.4389 C   0  0  0  0  0  0  0  0  0  0  0  0
   -4.1179   -0.4279    2.5396 C   0  0  0  0  0  0  0  0  0  0  0  0
   -3.9498   -1.9363    2.6711 C   0  0  0  0  0  0  0  0  0  0  0  0
   -3.0953   -2.5054    1.5462 C   0  0  0  0  0  0  0  0  0  0  0  0
   -1.7570   -1.7684    1.4134 C   0  0  0  0  0  0  0  0  0  0  0  0
    0.9423   -2.1842   -1.2695 H   0  0  0  0  0  0  0  0  0  0  0  0
    2.0947   -3.4802   -1.0167 H   0  0  0  0  0  0  0  0  0  0  0  0
    1.5813   -2.5052    0.3656 H   0  0  0  0  0  0  0  0  0  0  0  0
    3.8593   -1.8478   -0.4015 H   0  0  0  0  0  0  0  0  0  0  0  0
    3.9305   -0.9692   -2.6203 H   0  0  0  0  0  0  0  0  0  0  0  0
    2.2094    0.4480   -1.5398 H   0  0  0  0  0  0  0  0  0  0  0  0
    4.1094    1.0273    0.5162 H   0  0  0  0  0  0  0  0  0  0  0  0
    6.7253    1.9521   -1.8665 H   0  0  0  0  0  0  0  0  0  0  0  0
    5.0208    3.1523    0.4489 H   0  0  0  0  0  0  0  0  0  0  0  0
    6.5507    3.8288   -0.2509 H   0  0  0  0  0  0  0  0  0  0  0  0
    7.7784    1.7201    0.3684 H   0  0  0  0  0  0  0  0  0  0  0  0
    6.2585    1.0321    1.0754 H   0  0  0  0  0  0  0  0  0  0  0  0
    0.1525    0.2618   -0.5905 H   0  0  0  0  0  0  0  0  0  0  0  0
   -0.5470    1.5160    1.4662 H   0  0  0  0  0  0  0  0  0  0  0  0
   -0.0457    0.0998    2.3675 H   0  0  0  0  0  0  0  0  0  0  0  0
   -2.4297   -1.7123   -1.0507 H   0  0  0  0  0  0  0  0  0  0  0  0
   -1.3499   -0.4633   -1.6430 H   0  0  0  0  0  0  0  0  0  0  0  0
   -3.1443   -0.9200   -3.2364 H   0  0  0  0  0  0  0  0  0  0  0  0
   -4.3756   -0.6538   -2.0050 H   0  0  0  0  0  0  0  0  0  0  0  0
   -4.2131    1.3480   -3.3983 H   0  0  0  0  0  0  0  0  0  0  0  0
   -2.4659    1.4259   -3.1720 H   0  0  0  0  0  0  0  0  0  0  0  0
   -4.6112    1.8104   -1.0287 H   0  0  0  0  0  0  0  0  0  0  0  0
   -3.5162    3.0366   -1.6647 H   0  0  0  0  0  0  0  0  0  0  0  0
   -2.7928    2.2134    0.5240 H   0  0  0  0  0  0  0  0  0  0  0  0
   -1.5720    1.8971   -0.7031 H   0  0  0  0  0  0  0  0  0  0  0  0
   -2.2112    0.0785    3.3724 H   0  0  0  0  0  0  0  0  0  0  0  0
   -2.9145    1.3516    2.4142 H   0  0  0  0  0  0  0  0  0  0  0  0
   -4.7318   -0.1939    1.6623 H   0  0  0  0  0  0  0  0  0  0  0  0
   -4.6589   -0.0463    3.4129 H   0  0  0  0  0  0  0  0  0  0  0  0
   -4.9325   -2.4205    2.6735 H   0  0  0  0  0  0  0  0  0  0  0  0
   -3.4797   -2.1670    3.6347 H   0  0  0  0  0  0  0  0  0  0  0  0
   -2.9056   -3.5674    1.7373 H   0  0  0  0  0  0  0  0  0  0  0  0
   -3.6602   -2.4563    0.6101 H   0  0  0  0  0  0  0  0  0  0  0  0
   -1.1663   -2.2151    0.6060 H   0  0  0  0  0  0  0  0  0  0  0  0
   -1.1801   -1.9648    2.3282 H   0  0  0  0  0  0  0  0  0  0  0  0
  1  2  1  0
  2  3  1  0
  2  4  1  0
  4  5  1  0
  5  6  1  0
  6  7  2  0
  6  8  1  0
  8  9  1  0
  9 10  1  0
  4 11  1  0
 11 12  2  0
 11 13  1  0
 13 14  1  0
 14 15  1  0
 15 16  1  0
 16 17  1  0
 17 18  1  0
 18 19  1  0
 19 20  1  0
 20 21  1  0
 15 22  1  0
 22 23  1  0
 23 24  1  0
 24 25  1  0
 25 26  1  0
 10  8  1  0
 26 15  1  0
 21 16  1  0
  1 27  1  0
  1 28  1  0
  1 29  1  0
  2 30  1  0
  3 31  1  0
  4 32  1  0
  5 33  1  0
  8 34  1  0
  9 35  1  0
  9 36  1  0
 10 37  1  0
 10 38  1  0
 13 39  1  0
 14 40  1  0
 14 41  1  0
 17 42  1  0
 17 43  1  0
 18 44  1  0
 18 45  1  0
 19 46  1  0
 19 47  1  0
 20 48  1  0
 20 49  1  0
 21 50  1  0
 21 51  1  0
 22 52  1  0
 22 53  1  0
 23 54  1  0
 23 55  1  0
 24 56  1  0
 24 57  1  0
 25 58  1  0
 25 59  1  0
 26 60  1  0
 26 61  1  0
M  END
$$$$
OCNT-2316349
     RDKit          3D

 45 47  0  0  0  0  0  0  0  0999 V2000
   -0.0261   -0.5833    1.9398 C   0  0  0  0  0  0  0  0  0  0  0  0
    0.5283   -1.7496    1.1342 C   0  0  0  0  0  0  0  0  0  0  0  0
   -0.0015   -1.8180   -0.2319 N   0  0  0  0  0  0  0  0  0  0  0  0
   -1.0885   -2.7741   -0.4706 C   0  0  0  0  0  0  0  0  0  0  0  0
   -2.4521   -2.1994   -0.0816 C   0  0  0  0  0  0  0  0  0  0  0  0
   -2.9015   -2.3287    1.0544 O   0  0  0  0  0  0  0  0  0  0  0  0
   -3.0247   -1.4392   -1.0923 N   0  0  0  0  0  0  0  0  0  0  0  0
   -4.2627   -0.7591   -0.9429 C   0  0  0  0  0  0  0  0  0  0  0  0
   -5.4343   -1.3750   -0.4644 C   0  0  0  0  0  0  0  0  0  0  0  0
   -5.5613   -3.0815   -0.1913 Cl  0  0  0  0  0  0  0  0  0  0  0  0
   -6.6170   -0.6356   -0.3220 C   0  0  0  0  0  0  0  0  0  0  0  0
   -6.6583    0.7111   -0.6782 C   0  0  0  0  0  0  0  0  0  0  0  0
   -5.5208    1.3209   -1.1993 C   0  0  0  0  0  0  0  0  0  0  0  0
   -4.3371    0.5894   -1.3401 C   0  0  0  0  0  0  0  0  0  0  0  0
   -2.9549    1.4177   -1.9755 Cl  0  0  0  0  0  0  0  0  0  0  0  0
    0.2601   -0.8921   -1.2533 C   0  0  0  0  0  0  0  0  0  0  0  0
   -0.4747   -0.8695   -2.2469 O   0  0  0  0  0  0  0  0  0  0  0  0
    1.3670    0.0687   -1.1603 C   0  0  0  0  0  0  0  0  0  0  0  0
    2.3721    0.0555   -0.2687 N   0  0  0  0  0  0  0  0  0  0  0  0
    3.1193    1.1340   -0.6280 N   0  0  0  0  0  0  0  0  0  0  0  0
    4.2937    1.5037    0.0778 C   0  0  0  0  0  0  0  0  0  0  0  0
    4.7189    0.7491    1.1812 C   0  0  0  0  0  0  0  0  0  0  0  0
    5.8750    1.1170    1.8727 C   0  0  0  0  0  0  0  0  0  0  0  0
    6.6071    2.2331    1.4681 C   0  0  0  0  0  0  0  0  0  0  0  0
    6.1877    2.9859    0.3714 C   0  0  0  0  0  0  0  0  0  0  0  0
    5.0331    2.6250   -0.3259 C   0  0  0  0  0  0  0  0  0  0  0  0
    2.6696    1.8347   -1.7008 N   0  0  0  0  0  0  0  0  0  0  0  0
    1.5719    1.1561   -2.0347 C   0  0  0  0  0  0  0  0  0  0  0  0
    0.4134   -0.5776    2.9421 H   0  0  0  0  0  0  0  0  0  0  0  0
    0.1893    0.3809    1.4715 H   0  0  0  0  0  0  0  0  0  0  0  0
   -1.1114   -0.6570    2.0502 H   0  0  0  0  0  0  0  0  0  0  0  0
    0.2888   -2.6868    1.6501 H   0  0  0  0  0  0  0  0  0  0  0  0
    1.6189   -1.7112    1.0992 H   0  0  0  0  0  0  0  0  0  0  0  0
   -1.1106   -3.0637   -1.5281 H   0  0  0  0  0  0  0  0  0  0  0  0
   -0.9081   -3.6929    0.0980 H   0  0  0  0  0  0  0  0  0  0  0  0
   -2.3405   -0.9895   -1.7064 H   0  0  0  0  0  0  0  0  0  0  0  0
   -7.5209   -1.1172    0.0458 H   0  0  0  0  0  0  0  0  0  0  0  0
   -7.5806    1.2766   -0.5675 H   0  0  0  0  0  0  0  0  0  0  0  0
   -5.5591    2.3680   -1.4909 H   0  0  0  0  0  0  0  0  0  0  0  0
    4.1633   -0.1254    1.5128 H   0  0  0  0  0  0  0  0  0  0  0  0
    6.2053    0.5319    2.7275 H   0  0  0  0  0  0  0  0  0  0  0  0
    7.5074    2.5165    2.0082 H   0  0  0  0  0  0  0  0  0  0  0  0
    6.7607    3.8553    0.0580 H   0  0  0  0  0  0  0  0  0  0  0  0
    4.7228    3.2256   -1.1790 H   0  0  0  0  0  0  0  0  0  0  0  0
    0.9730    1.4695   -2.8799 H   0  0  0  0  0  0  0  0  0  0  0  0
  1  2  1  0
  2  3  1  0
  3  4  1  0
  4  5  1  0
  5  6  2  0
  5  7  1  0
  7  8  1  0
  8  9  2  0
  9 10  1  0
  9 11  1  0
 11 12  2  0
 12 13  1  0
 13 14  2  0
 14 15  1  0
  3 16  1  0
 16 17  2  0
 16 18  1  0
 18 19  2  0
 19 20  1  0
 20 21  1  0
 21 22  2  0
 22 23  1  0
 23 24  2  0
 24 25  1  0
 25 26  2  0
 20 27  1  0
 27 28  2  0
 14  8  1  0
 28 18  1  0
 26 21  1  0
  1 29  1  0
  1 30  1  0
  1 31  1  0
  2 32  1  0
  2 33  1  0
  4 34  1  0
  4 35  1  0
  7 36  1  0
 11 37  1  0
 12 38  1  0
 13 39  1  0
 22 40  1  0
 23 41  1  0
 24 42  1  0
 25 43  1  0
 26 44  1  0
 28 45  1  0
M  END
$$$$
OCNT-2316354
     RDKit          3D

  0  0  0  0  0  0  0  0  0  0999 V3000
M  V30 BEGIN CTAB
M  V30 COUNTS 50 51 0 0 0
M  V30 BEGIN ATOM
M  V30 1 C 7.997669 -0.748554 2.118501 0
M  V30 2 O 7.571165 -0.478299 0.791623 0
M  V30 3 C 6.246037 -0.187339 0.601399 0
M  V30 4 C 5.277511 -0.159628 1.607873 0
M  V30 5 C 3.945536 0.149060 1.304242 0
M  V30 6 C 3.559981 0.440491 -0.010693 0
M  V30 7 C 2.119326 0.762191 -0.344209 0
M  V30 8 N 1.514556 -0.341512 -1.082928 0
M  V30 9 C 0.062183 -0.266752 -1.263517 0 CFG=1
M  V30 10 C -0.795819 -0.659053 -0.045440 0
M  V30 11 N -2.114965 -0.128839 -0.352718 0
M  V30 12 C -3.227716 -0.487944 0.360427 0
M  V30 13 O -3.187039 -1.218255 1.340535 0
M  V30 14 O -4.350005 0.067425 -0.158519 0
M  V30 15 C -5.648822 -0.177133 0.439287 0
M  V30 16 C -5.714835 0.365639 1.871032 0
M  V30 17 C -6.023971 -1.661462 0.369861 0
M  V30 18 C -6.632936 0.618398 -0.432139 0
M  V30 19 C -2.100262 0.710053 -1.547961 0
M  V30 20 C -0.614935 1.052642 -1.724881 0 CFG=1
M  V30 21 O -0.298394 2.171022 -0.886208 0
M  V30 22 C 4.529304 0.407247 -1.022486 0
M  V30 23 C 5.855119 0.096901 -0.713898 0
M  V30 24 O 6.792993 0.067125 -1.712771 0
M  V30 25 H 7.505514 -1.641643 2.517473 0
M  V30 26 H 7.836731 0.116732 2.770052 0
M  V30 27 H 9.073391 -0.947263 2.090581 0
M  V30 28 H 5.524231 -0.375252 2.641930 0
M  V30 29 H 3.211931 0.160886 2.107536 0
M  V30 30 H 1.575820 0.964288 0.585656 0
M  V30 31 H 2.116237 1.679869 -0.943016 0
M  V30 32 H 1.756955 -1.218023 -0.620237 0
M  V30 33 H -0.160339 -1.007382 -2.046115 0
M  V30 34 H -0.841085 -1.742730 0.104299 0
M  V30 35 H -0.455678 -0.189392 0.883592 0
M  V30 36 H -6.737445 0.333780 2.262320 0
M  V30 37 H -5.358371 1.401080 1.910973 0
M  V30 38 H -5.084988 -0.209472 2.556323 0
M  V30 39 H -5.885750 -2.050249 -0.645291 0
M  V30 40 H -5.398938 -2.272841 1.027585 0
M  V30 41 H -7.066061 -1.823266 0.666050 0
M  V30 42 H -6.374883 1.683950 -0.437587 0
M  V30 43 H -7.664658 0.514254 -0.080187 0
M  V30 44 H -6.587398 0.284487 -1.475401 0
M  V30 45 H -2.735179 1.589010 -1.402076 0
M  V30 46 H -2.479866 0.107576 -2.380066 0
M  V30 47 H -0.365885 1.317955 -2.756076 0
M  V30 48 H -0.755796 2.041705 -0.035543 0
M  V30 49 H 4.231726 0.619243 -2.045964 0
M  V30 50 H 6.358104 0.269272 -2.555269 0
M  V30 END ATOM
M  V30 BEGIN BOND
M  V30 1 1 1 2
M  V30 2 1 2 3
M  V30 3 1 3 4
M  V30 4 2 4 5
M  V30 5 1 5 6
M  V30 6 1 6 7
M  V30 7 1 7 8
M  V30 8 1 8 9
M  V30 9 1 9 10
M  V30 10 1 10 11
M  V30 11 1 11 12
M  V30 12 2 12 13
M  V30 13 1 12 14
M  V30 14 1 14 15
M  V30 15 1 15 16
M  V30 16 1 15 17
M  V30 17 1 15 18
M  V30 18 1 11 19
M  V30 19 1 19 20
M  V30 20 1 20 21
M  V30 21 2 6 22
M  V30 22 1 22 23
M  V30 23 1 23 24
M  V30 24 2 23 3
M  V30 25 1 20 9
M  V30 26 1 1 25
M  V30 27 1 1 26
M  V30 28 1 1 27
M  V30 29 1 4 28
M  V30 30 1 5 29
M  V30 31 1 7 30
M  V30 32 1 7 31
M  V30 33 1 8 32
M  V30 34 1 9 33 CFG=3
M  V30 35 1 10 34
M  V30 36 1 10 35
M  V30 37 1 16 36
M  V30 38 1 16 37
M  V30 39 1 16 38
M  V30 40 1 17 39
M  V30 41 1 17 40
M  V30 42 1 17 41
M  V30 43 1 18 42
M  V30 44 1 18 43
M  V30 45 1 18 44
M  V30 46 1 19 45
M  V30 47 1 19 46
M  V30 48 1 20 47 CFG=3
M  V30 49 1 21 48
M  V30 50 1 22 49
M  V30 51 1 24 50
M  V30 END BOND
M  V30 BEGIN COLLECTION
M  V30 MDLV30/STERAC1 ATOMS=(2 9 20)
M  V30 END COLLECTION
M  V30 END CTAB
M  END
>  <_CXSMILES_Data>  (1092) 
|&1:8,19|

$$$$
OCNT-2316356
     RDKit          3D

 53 56  0  0  0  0  0  0  0  0999 V2000
   -0.6445   -0.0074   -2.9422 O   0  0  0  0  0  0  0  0  0  0  0  0
   -0.3619   -0.4579   -1.8343 C   0  0  0  0  0  0  0  0  0  0  0  0
    0.6457    0.0402   -1.0486 N   0  0  0  0  0  0  0  0  0  0  0  0
    1.4806    1.1595   -1.2740 C   0  0  0  0  0  0  0  0  0  0  0  0
    1.3588    2.0270   -2.3560 C   0  0  0  0  0  0  0  0  0  0  0  0
    2.1920    3.1385   -2.4345 C   0  0  0  0  0  0  0  0  0  0  0  0
    3.1138    3.3423   -1.4232 C   0  0  0  0  0  0  0  0  0  0  0  0
    3.2678    2.5184   -0.3634 N   0  0  0  0  0  0  0  0  0  0  0  0
    2.4705    1.4290   -0.2960 C   0  0  0  0  0  0  0  0  0  0  0  0
    2.6245    0.5042    0.7736 N   0  0  0  0  0  0  0  0  0  0  0  0
    3.1010    1.1310    2.0304 C   0  0  0  0  0  0  0  0  0  0  0  0
    4.6278    1.3231    2.0913 C   0  0  0  0  0  0  0  0  0  0  0  0
    5.3317    0.1126    1.7697 O   0  0  0  0  0  0  0  0  0  0  0  0
    4.9753   -0.3151    0.4468 C   0  0  0  0  0  0  0  0  0  0  0  0
    3.4765   -0.6421    0.3665 C   0  0  0  0  0  0  0  0  0  0  0  0
   -1.0476   -1.5528   -1.2929 N   0  0  0  0  0  0  0  0  0  0  0  0
   -0.7311   -2.2020   -0.0189 C   0  0  0  0  0  0  0  0  0  0  0  0
   -1.2250   -1.4360    1.2143 C   0  0  0  0  0  0  0  0  0  0  0  0
   -2.7264   -1.5579    1.4918 C   0  0  0  0  0  0  0  0  0  0  0  0
   -3.5967   -0.6882    0.6115 C   0  0  0  0  0  0  0  0  0  0  0  0
   -4.0502    0.5430    1.1211 C   0  0  0  0  0  0  0  0  0  0  0  0
   -4.8498    1.3914    0.3538 C   0  0  0  0  0  0  0  0  0  0  0  0
   -5.2038    1.0267   -0.9392 C   0  0  0  0  0  0  0  0  0  0  0  0
   -4.7567   -0.1857   -1.4642 C   0  0  0  0  0  0  0  0  0  0  0  0
   -3.9564   -1.0552   -0.7012 C   0  0  0  0  0  0  0  0  0  0  0  0
   -3.4609   -2.3290   -1.3453 C   0  0  0  0  0  0  0  0  0  0  0  0
   -2.1345   -2.1367   -2.0913 C   0  0  0  0  0  0  0  0  0  0  0  0
    0.8267   -0.3798   -0.1501 H   0  0  0  0  0  0  0  0  0  0  0  0
    0.6175    1.8755   -3.1328 H   0  0  0  0  0  0  0  0  0  0  0  0
    2.1127    3.8342   -3.2633 H   0  0  0  0  0  0  0  0  0  0  0  0
    3.7778    4.2026   -1.4401 H   0  0  0  0  0  0  0  0  0  0  0  0
    2.8168    0.4484    2.8421 H   0  0  0  0  0  0  0  0  0  0  0  0
    2.5798    2.0759    2.2292 H   0  0  0  0  0  0  0  0  0  0  0  0
    4.9150    1.6032    3.1105 H   0  0  0  0  0  0  0  0  0  0  0  0
    4.9786    2.1231    1.4317 H   0  0  0  0  0  0  0  0  0  0  0  0
    5.2678    0.4541   -0.2764 H   0  0  0  0  0  0  0  0  0  0  0  0
    5.5588   -1.2141    0.2252 H   0  0  0  0  0  0  0  0  0  0  0  0
    3.2602   -1.4587    1.0662 H   0  0  0  0  0  0  0  0  0  0  0  0
    3.2220   -1.0101   -0.6347 H   0  0  0  0  0  0  0  0  0  0  0  0
    0.3583   -2.3094    0.0404 H   0  0  0  0  0  0  0  0  0  0  0  0
   -1.1215   -3.2262   -0.0232 H   0  0  0  0  0  0  0  0  0  0  0  0
   -0.7020   -1.8595    2.0817 H   0  0  0  0  0  0  0  0  0  0  0  0
   -0.9406   -0.3781    1.1660 H   0  0  0  0  0  0  0  0  0  0  0  0
   -3.0523   -2.6035    1.4469 H   0  0  0  0  0  0  0  0  0  0  0  0
   -2.8978   -1.2674    2.5374 H   0  0  0  0  0  0  0  0  0  0  0  0
   -3.7764    0.8543    2.1270 H   0  0  0  0  0  0  0  0  0  0  0  0
   -5.1856    2.3401    0.7649 H   0  0  0  0  0  0  0  0  0  0  0  0
   -5.8163    1.6890   -1.5454 H   0  0  0  0  0  0  0  0  0  0  0  0
   -5.0257   -0.4451   -2.4865 H   0  0  0  0  0  0  0  0  0  0  0  0
   -3.3781   -3.1312   -0.6044 H   0  0  0  0  0  0  0  0  0  0  0  0
   -4.2153   -2.6940   -2.0549 H   0  0  0  0  0  0  0  0  0  0  0  0
   -2.3228   -1.5332   -2.9853 H   0  0  0  0  0  0  0  0  0  0  0  0
   -1.7776   -3.1108   -2.4473 H   0  0  0  0  0  0  0  0  0  0  0  0
  1  2  2  0
  2  3  1  0
  3  4  1  0
  4  5  1  0
  5  6  2  0
  6  7  1  0
  7  8  2  0
  8  9  1  0
  9 10  1  0
 10 11  1  0
 11 12  1  0
 12 13  1  0
 13 14  1  0
 14 15  1  0
  2 16  1  0
 16 17  1  0
 17 18  1  0
 18 19  1  0
 19 20  1  0
 20 21  2  0
 21 22  1  0
 22 23  2  0
 23 24  1  0
 24 25  2  0
 25 26  1  0
 26 27  1  0
  9  4  2  0
 15 10  1  0
 27 16  1  0
 25 20  1  0
  3 28  1  0
  5 29  1  0
  6 30  1  0
  7 31  1  0
 11 32  1  0
 11 33  1  0
 12 34  1  0
 12 35  1  0
 14 36  1  0
 14 37  1  0
 15 38  1  0
 15 39  1  0
 17 40  1  0
 17 41  1  0
 18 42  1  0
 18 43  1  0
 19 44  1  0
 19 45  1  0
 21 46  1  0
 22 47  1  0
 23 48  1  0
 24 49  1  0
 26 50  1  0
 26 51  1  0
 27 52  1  0
 27 53  1  0
M  END
$$$$
OCNT-2316388
     RDKit          3D

 43 45  0  0  0  0  0  0  0  0999 V2000
    7.0676    1.6605    1.3933 C   0  0  0  0  0  0  0  0  0  0  0  0
    6.2863    1.1826    0.3056 O   0  0  0  0  0  0  0  0  0  0  0  0
    5.0089    0.7756    0.5872 C   0  0  0  0  0  0  0  0  0  0  0  0
    4.4051    0.7969    1.8481 C   0  0  0  0  0  0  0  0  0  0  0  0
    3.0863    0.3571    2.0294 C   0  0  0  0  0  0  0  0  0  0  0  0
    2.4163   -0.0984    0.8976 C   0  0  0  0  0  0  0  0  0  0  0  0
    1.1386   -0.5594    0.8723 O   0  0  0  0  0  0  0  0  0  0  0  0
    0.8617   -0.9098   -0.4203 C   0  0  0  0  0  0  0  0  0  0  0  0
   -0.5084   -1.4478   -0.6850 C   0  0  0  0  0  0  0  0  0  0  0  0
   -0.6864   -2.8232   -0.0439 C   0  0  0  0  0  0  0  0  0  0  0  0
   -1.4592   -0.4810   -0.1653 N   0  0  0  0  0  0  0  0  0  0  0  0
   -2.7797   -0.5061   -0.5500 C   0  0  0  0  0  0  0  0  0  0  0  0
   -3.2042   -1.2898   -1.3883 O   0  0  0  0  0  0  0  0  0  0  0  0
   -3.5005    0.4637    0.1114 N   0  0  0  0  0  0  0  0  0  0  0  0
   -4.8873    0.7057    0.0329 C   0  0  0  0  0  0  0  0  0  0  0  0
   -5.7803   -0.1159   -0.6475 C   0  0  0  0  0  0  0  0  0  0  0  0
   -7.1241    0.2246   -0.6446 C   0  0  0  0  0  0  0  0  0  0  0  0
   -7.6272    1.3080   -0.0158 N   0  0  0  0  0  0  0  0  0  0  0  0
   -6.7437    2.0864    0.6395 C   0  0  0  0  0  0  0  0  0  0  0  0
   -5.3827    1.8302    0.6942 C   0  0  0  0  0  0  0  0  0  0  0  0
    1.9604   -0.6707   -1.2323 C   0  0  0  0  0  0  0  0  0  0  0  0
    2.0518   -0.9123   -2.6937 C   0  0  0  0  0  0  0  0  0  0  0  0
    2.9722   -0.1411   -0.3733 C   0  0  0  0  0  0  0  0  0  0  0  0
    4.2974    0.3077   -0.5304 C   0  0  0  0  0  0  0  0  0  0  0  0
    8.0511    1.9379    1.0019 H   0  0  0  0  0  0  0  0  0  0  0  0
    7.2172    0.8789    2.1455 H   0  0  0  0  0  0  0  0  0  0  0  0
    6.6208    2.5567    1.8363 H   0  0  0  0  0  0  0  0  0  0  0  0
    4.9368    1.1535    2.7249 H   0  0  0  0  0  0  0  0  0  0  0  0
    2.6076    0.3674    3.0008 H   0  0  0  0  0  0  0  0  0  0  0  0
   -0.6707   -1.5372   -1.7656 H   0  0  0  0  0  0  0  0  0  0  0  0
    0.0606   -3.5305   -0.4209 H   0  0  0  0  0  0  0  0  0  0  0  0
   -0.5814   -2.7752    1.0463 H   0  0  0  0  0  0  0  0  0  0  0  0
   -1.6779   -3.2354   -0.2581 H   0  0  0  0  0  0  0  0  0  0  0  0
   -1.2459   -0.1256    0.7547 H   0  0  0  0  0  0  0  0  0  0  0  0
   -2.9470    1.1439    0.6102 H   0  0  0  0  0  0  0  0  0  0  0  0
   -5.4707   -1.0095   -1.1746 H   0  0  0  0  0  0  0  0  0  0  0  0
   -7.8533   -0.3896   -1.1655 H   0  0  0  0  0  0  0  0  0  0  0  0
   -7.1709    2.9519    1.1379 H   0  0  0  0  0  0  0  0  0  0  0  0
   -4.7360    2.5044    1.2431 H   0  0  0  0  0  0  0  0  0  0  0  0
    1.4222   -0.1997   -3.2361 H   0  0  0  0  0  0  0  0  0  0  0  0
    1.7167   -1.9256   -2.9382 H   0  0  0  0  0  0  0  0  0  0  0  0
    3.0782   -0.8041   -3.0571 H   0  0  0  0  0  0  0  0  0  0  0  0
    4.7735    0.2943   -1.5064 H   0  0  0  0  0  0  0  0  0  0  0  0
  1  2  1  0
  2  3  1  0
  3  4  2  0
  4  5  1  0
  5  6  2  0
  6  7  1  0
  7  8  1  0
  8  9  1  0
  9 10  1  0
  9 11  1  0
 11 12  1  0
 12 13  2  0
 12 14  1  0
 14 15  1  0
 15 16  2  0
 16 17  1  0
 17 18  2  0
 18 19  1  0
 19 20  2  0
  8 21  2  0
 21 22  1  0
 21 23  1  0
 23 24  2  0
 24  3  1  0
 23  6  1  0
 20 15  1  0
  1 25  1  0
  1 26  1  0
  1 27  1  0
  4 28  1  0
  5 29  1  0
  9 30  1  0
 10 31  1  0
 10 32  1  0
 10 33  1  0
 11 34  1  0
 14 35  1  0
 16 36  1  0
 17 37  1  0
 19 38  1  0
 20 39  1  0
 22 40  1  0
 22 41  1  0
 22 42  1  0
 24 43  1  0
M  END
$$$$
OCNT-2316398
     RDKit          3D

 44 47  0  0  0  0  0  0  0  0999 V2000
    0.9524   -1.7477   -1.7033 O   0  0  0  0  0  0  0  0  0  0  0  0
    1.7086   -0.9806   -1.1115 C   0  0  0  0  0  0  0  0  0  0  0  0
    1.3282    0.3079   -0.7699 N   0  0  0  0  0  0  0  0  0  0  0  0
    0.0183    0.8465   -1.0718 C   0  0  0  0  0  0  0  0  0  0  0  0
   -0.9313    0.4287    0.0571 C   0  0  0  0  0  0  0  0  0  0  0  0
   -0.7141    1.0814    1.4365 C   0  0  0  0  0  0  0  0  0  0  0  0
   -1.8693    2.0160    1.0774 C   0  0  0  0  0  0  0  0  0  0  0  0
   -2.2424    1.1360   -0.0541 N   0  0  0  0  0  0  0  0  0  0  0  0
   -3.3759    0.2480    0.2925 C   0  0  0  0  0  0  0  0  0  0  0  0
   -3.5336   -0.8685   -0.7646 C   0  0  0  0  0  0  0  0  0  0  0  0
   -4.9627   -1.3969   -0.8478 C   0  0  0  0  0  0  0  0  0  0  0  0
   -5.6189   -1.2456    0.4051 O   0  0  0  0  0  0  0  0  0  0  0  0
   -5.8536    0.1258    0.7262 C   0  0  0  0  0  0  0  0  0  0  0  0
   -4.6905    1.0405    0.3414 C   0  0  0  0  0  0  0  0  0  0  0  0
    3.0553   -1.3148   -0.6950 C   0  0  0  0  0  0  0  0  0  0  0  0
    3.8873   -0.5363   -0.0290 N   0  0  0  0  0  0  0  0  0  0  0  0
    4.9889   -1.3444    0.0834 C   0  0  0  0  0  0  0  0  0  0  0  0
    6.2918   -0.8943    0.7997 C   0  0  0  0  0  0  0  0  0  0  0  0
    7.4025   -0.2869   -0.0242 C   0  0  0  0  0  0  0  0  0  0  0  0
    6.6157    0.5754    0.9229 C   0  0  0  0  0  0  0  0  0  0  0  0
    4.8681   -2.5577   -0.4665 N   0  0  0  0  0  0  0  0  0  0  0  0
    3.5710   -2.5420   -0.9894 O   0  0  0  0  0  0  0  0  0  0  0  0
    1.9965    0.8672   -0.2482 H   0  0  0  0  0  0  0  0  0  0  0  0
   -0.3258    0.4517   -2.0342 H   0  0  0  0  0  0  0  0  0  0  0  0
    0.1192    1.9346   -1.1485 H   0  0  0  0  0  0  0  0  0  0  0  0
   -0.9887   -0.6656    0.1235 H   0  0  0  0  0  0  0  0  0  0  0  0
    0.2496    1.5679    1.6102 H   0  0  0  0  0  0  0  0  0  0  0  0
   -0.9302    0.4139    2.2790 H   0  0  0  0  0  0  0  0  0  0  0  0
   -1.5401    3.0093    0.7480 H   0  0  0  0  0  0  0  0  0  0  0  0
   -2.6033    2.1563    1.8771 H   0  0  0  0  0  0  0  0  0  0  0  0
   -3.2172   -0.2226    1.2740 H   0  0  0  0  0  0  0  0  0  0  0  0
   -3.2259   -0.5338   -1.7639 H   0  0  0  0  0  0  0  0  0  0  0  0
   -2.8664   -1.6997   -0.5040 H   0  0  0  0  0  0  0  0  0  0  0  0
   -4.9564   -2.4598   -1.1106 H   0  0  0  0  0  0  0  0  0  0  0  0
   -5.5346   -0.8755   -1.6252 H   0  0  0  0  0  0  0  0  0  0  0  0
   -6.7790    0.4544    0.2404 H   0  0  0  0  0  0  0  0  0  0  0  0
   -6.0224    0.1726    1.8072 H   0  0  0  0  0  0  0  0  0  0  0  0
   -4.8905    1.4747   -0.6482 H   0  0  0  0  0  0  0  0  0  0  0  0
   -4.6561    1.8846    1.0386 H   0  0  0  0  0  0  0  0  0  0  0  0
    6.5790   -1.5368    1.6254 H   0  0  0  0  0  0  0  0  0  0  0  0
    8.4228   -0.5406    0.2401 H   0  0  0  0  0  0  0  0  0  0  0  0
    7.2441   -0.1507   -1.0897 H   0  0  0  0  0  0  0  0  0  0  0  0
    5.9276    1.2980    0.4994 H   0  0  0  0  0  0  0  0  0  0  0  0
    7.1023    0.9096    1.8314 H   0  0  0  0  0  0  0  0  0  0  0  0
  1  2  2  0
  2  3  1  0
  3  4  1  0
  4  5  1  0
  5  6  1  0
  6  7  1  0
  7  8  1  0
  8  9  1  0
  9 10  1  0
 10 11  1  0
 11 12  1  0
 12 13  1  0
 13 14  1  0
  2 15  1  0
 15 16  2  0
 16 17  1  0
 17 18  1  0
 18 19  1  0
 19 20  1  0
 17 21  2  0
 21 22  1  0
  8  5  1  0
 14  9  1  0
 22 15  1  0
 20 18  1  0
  3 23  1  0
  4 24  1  0
  4 25  1  0
  5 26  1  0
  6 27  1  0
  6 28  1  0
  7 29  1  0
  7 30  1  0
  9 31  1  0
 10 32  1  0
 10 33  1  0
 11 34  1  0
 11 35  1  0
 13 36  1  0
 13 37  1  0
 14 38  1  0
 14 39  1  0
 18 40  1  0
 19 41  1  0
 19 42  1  0
 20 43  1  0
 20 44  1  0
M  END
$$$$
OCNT-2316402
     RDKit          3D

 53 54  0  0  0  0  0  0  0  0999 V2000
    5.1778    3.1727    0.5382 C   0  0  0  0  0  0  0  0  0  0  0  0
    4.5246    2.1235   -0.1668 O   0  0  0  0  0  0  0  0  0  0  0  0
    4.9386    0.8417    0.0875 C   0  0  0  0  0  0  0  0  0  0  0  0
    5.8385    0.4834    1.0978 C   0  0  0  0  0  0  0  0  0  0  0  0
    6.1792   -0.8576    1.3004 C   0  0  0  0  0  0  0  0  0  0  0  0
    5.6158   -1.8464    0.5004 C   0  0  0  0  0  0  0  0  0  0  0  0
    6.0281   -3.4955    0.7638 Cl  0  0  0  0  0  0  0  0  0  0  0  0
    4.7196   -1.5053   -0.5081 C   0  0  0  0  0  0  0  0  0  0  0  0
    4.3813   -0.1584   -0.7334 C   0  0  0  0  0  0  0  0  0  0  0  0
    3.3950    0.1760   -1.8281 C   0  0  0  0  0  0  0  0  0  0  0  0
    2.0505    0.3012   -1.3084 N   0  0  0  0  0  0  0  0  0  0  0  0
    1.2161   -0.7822   -1.2485 C   0  0  0  0  0  0  0  0  0  0  0  0
    1.5453   -1.8876   -1.6720 O   0  0  0  0  0  0  0  0  0  0  0  0
   -0.0280   -0.5327   -0.6825 N   0  0  0  0  0  0  0  0  0  0  0  0
   -0.9682   -1.6582   -0.6677 C   0  0  0  0  0  0  0  0  0  0  0  0
   -2.0763   -1.5043    0.3880 C   0  0  0  0  0  0  0  0  0  0  0  0
   -2.7784   -0.2039    0.2866 N   0  0  0  0  0  0  0  0  0  0  0  0
   -3.8416   -0.0913    1.3139 C   0  0  0  0  0  0  0  0  0  0  0  0
   -5.2524   -0.1943    0.6707 C   0  0  0  0  0  0  0  0  0  0  0  0
   -6.3288    0.1514    1.7001 C   0  0  0  0  0  0  0  0  0  0  0  0
   -5.5341   -1.5690    0.0622 C   0  0  0  0  0  0  0  0  0  0  0  0
   -5.3338    0.7744   -0.3849 O   0  0  0  0  0  0  0  0  0  0  0  0
   -1.7724    0.8707    0.4379 C   0  0  0  0  0  0  0  0  0  0  0  0
   -0.6545    0.8074   -0.6366 C   0  0  0  0  0  0  0  0  0  0  0  0
   -1.1846    1.2135   -2.0176 C   0  0  0  0  0  0  0  0  0  0  0  0
    6.2568    3.1645    0.3516 H   0  0  0  0  0  0  0  0  0  0  0  0
    4.7827    4.1221    0.1636 H   0  0  0  0  0  0  0  0  0  0  0  0
    4.9589    3.1212    1.6096 H   0  0  0  0  0  0  0  0  0  0  0  0
    6.2887    1.2216    1.7535 H   0  0  0  0  0  0  0  0  0  0  0  0
    6.8783   -1.1227    2.0891 H   0  0  0  0  0  0  0  0  0  0  0  0
    4.2692   -2.2856   -1.1200 H   0  0  0  0  0  0  0  0  0  0  0  0
    3.6557    1.1294   -2.3008 H   0  0  0  0  0  0  0  0  0  0  0  0
    3.4260   -0.5808   -2.6210 H   0  0  0  0  0  0  0  0  0  0  0  0
    1.9639    0.9598   -0.5518 H   0  0  0  0  0  0  0  0  0  0  0  0
   -0.4254   -2.5915   -0.4774 H   0  0  0  0  0  0  0  0  0  0  0  0
   -1.4067   -1.7375   -1.6703 H   0  0  0  0  0  0  0  0  0  0  0  0
   -2.7855   -2.3292    0.2608 H   0  0  0  0  0  0  0  0  0  0  0  0
   -1.6290   -1.6133    1.3854 H   0  0  0  0  0  0  0  0  0  0  0  0
   -3.7256   -0.8343    2.1133 H   0  0  0  0  0  0  0  0  0  0  0  0
   -3.7744    0.8914    1.8004 H   0  0  0  0  0  0  0  0  0  0  0  0
   -6.1858    1.1662    2.0894 H   0  0  0  0  0  0  0  0  0  0  0  0
   -6.3204   -0.5487    2.5420 H   0  0  0  0  0  0  0  0  0  0  0  0
   -7.3252    0.1368    1.2444 H   0  0  0  0  0  0  0  0  0  0  0  0
   -5.4305   -2.3663    0.8044 H   0  0  0  0  0  0  0  0  0  0  0  0
   -6.5505   -1.6091   -0.3467 H   0  0  0  0  0  0  0  0  0  0  0  0
   -4.8673   -1.7801   -0.7804 H   0  0  0  0  0  0  0  0  0  0  0  0
   -4.4824    0.6866   -0.8601 H   0  0  0  0  0  0  0  0  0  0  0  0
   -1.3102    0.8103    1.4331 H   0  0  0  0  0  0  0  0  0  0  0  0
   -2.2648    1.8491    0.3692 H   0  0  0  0  0  0  0  0  0  0  0  0
    0.1002    1.5456   -0.3487 H   0  0  0  0  0  0  0  0  0  0  0  0
   -1.9599    0.5286   -2.3764 H   0  0  0  0  0  0  0  0  0  0  0  0
   -1.6137    2.2202   -1.9848 H   0  0  0  0  0  0  0  0  0  0  0  0
   -0.3804    1.2167   -2.7604 H   0  0  0  0  0  0  0  0  0  0  0  0
  1  2  1  0
  2  3  1  0
  3  4  1  0
  4  5  2  0
  5  6  1  0
  6  7  1  0
  6  8  2  0
  8  9  1  0
  9 10  1  0
 10 11  1  0
 11 12  1  0
 12 13  2  0
 12 14  1  0
 14 15  1  0
 15 16  1  0
 16 17  1  0
 17 18  1  0
 18 19  1  0
 19 20  1  0
 19 21  1  0
 19 22  1  0
 17 23  1  0
 23 24  1  0
 24 25  1  0
  9  3  2  0
 24 14  1  0
  1 26  1  0
  1 27  1  0
  1 28  1  0
  4 29  1  0
  5 30  1  0
  8 31  1  0
 10 32  1  0
 10 33  1  0
 11 34  1  0
 15 35  1  0
 15 36  1  0
 16 37  1  0
 16 38  1  0
 18 39  1  0
 18 40  1  0
 20 41  1  0
 20 42  1  0
 20 43  1  0
 21 44  1  0
 21 45  1  0
 21 46  1  0
 22 47  1  0
 23 48  1  0
 23 49  1  0
 24 50  1  0
 25 51  1  0
 25 52  1  0
 25 53  1  0
M  END
$$$$
OCNT-2316408
     RDKit          3D

 50 53  0  0  0  0  0  0  0  0999 V2000
   -3.6412   -2.6236   -0.5878 C   0  0  0  0  0  0  0  0  0  0  0  0
   -3.6558   -1.1489   -0.3418 N   0  0  0  0  0  0  0  0  0  0  0  0
   -4.3433   -0.7638    0.8819 C   0  0  0  0  0  0  0  0  0  0  0  0
   -5.7137   -1.0432    1.0202 C   0  0  0  0  0  0  0  0  0  0  0  0
   -6.4048   -0.6876    2.1781 C   0  0  0  0  0  0  0  0  0  0  0  0
   -5.7354   -0.0516    3.2159 C   0  0  0  0  0  0  0  0  0  0  0  0
   -4.3735    0.2278    3.0951 C   0  0  0  0  0  0  0  0  0  0  0  0
   -3.6548   -0.1240    1.9356 C   0  0  0  0  0  0  0  0  0  0  0  0
   -2.1930    0.2388    1.9263 C   0  0  0  0  0  0  0  0  0  0  0  0
   -1.7661    0.9531    2.8280 O   0  0  0  0  0  0  0  0  0  0  0  0
   -1.4433   -0.2584    0.8803 N   0  0  0  0  0  0  0  0  0  0  0  0
   -0.0799   -0.0456    0.6018 C   0  0  0  0  0  0  0  0  0  0  0  0
    0.4210   -0.6007   -0.5815 C   0  0  0  0  0  0  0  0  0  0  0  0
    1.7656   -0.4362   -0.9414 C   0  0  0  0  0  0  0  0  0  0  0  0
    2.6411    0.2860   -0.1215 C   0  0  0  0  0  0  0  0  0  0  0  0
    4.0579    0.4856   -0.4506 C   0  0  0  0  0  0  0  0  0  0  0  0
    4.8924    1.2912    0.1850 N   0  0  0  0  0  0  0  0  0  0  0  0
    6.1061    1.1645   -0.4420 C   0  0  0  0  0  0  0  0  0  0  0  0
    7.3282    1.7957   -0.1712 C   0  0  0  0  0  0  0  0  0  0  0  0
    8.4358    1.4836   -0.9703 C   0  0  0  0  0  0  0  0  0  0  0  0
    8.3273    0.5625   -2.0156 C   0  0  0  0  0  0  0  0  0  0  0  0
    7.1145   -0.0766   -2.2998 C   0  0  0  0  0  0  0  0  0  0  0  0
    6.0284    0.2555   -1.4874 C   0  0  0  0  0  0  0  0  0  0  0  0
    4.7227   -0.1605   -1.4703 N   0  0  0  0  0  0  0  0  0  0  0  0
    2.1281    0.8420    1.0587 C   0  0  0  0  0  0  0  0  0  0  0  0
    0.7837    0.6785    1.4191 C   0  0  0  0  0  0  0  0  0  0  0  0
   -4.0910   -0.2651   -1.7576 S   0  0  0  0  0  0  0  0  0  0  0  0
   -3.7413    1.4245   -1.3032 C   0  0  0  0  0  0  0  0  0  0  0  0
   -5.5132   -0.4133   -1.9788 O   0  0  0  0  0  0  0  0  0  0  0  0
   -3.1407   -0.6530   -2.7808 O   0  0  0  0  0  0  0  0  0  0  0  0
   -2.8752   -2.8689   -1.3297 H   0  0  0  0  0  0  0  0  0  0  0  0
   -4.6140   -2.9835   -0.9352 H   0  0  0  0  0  0  0  0  0  0  0  0
   -3.3774   -3.1550    0.3332 H   0  0  0  0  0  0  0  0  0  0  0  0
   -6.2650   -1.5347    0.2207 H   0  0  0  0  0  0  0  0  0  0  0  0
   -7.4669   -0.9049    2.2659 H   0  0  0  0  0  0  0  0  0  0  0  0
   -6.2693    0.2300    4.1210 H   0  0  0  0  0  0  0  0  0  0  0  0
   -3.8692    0.7268    3.9227 H   0  0  0  0  0  0  0  0  0  0  0  0
   -1.9473   -0.8235    0.2051 H   0  0  0  0  0  0  0  0  0  0  0  0
   -0.2296   -1.1603   -1.2504 H   0  0  0  0  0  0  0  0  0  0  0  0
    2.0964   -0.8743   -1.8779 H   0  0  0  0  0  0  0  0  0  0  0  0
    7.4036    2.5085    0.6422 H   0  0  0  0  0  0  0  0  0  0  0  0
    9.3901    1.9653   -0.7714 H   0  0  0  0  0  0  0  0  0  0  0  0
    9.2034    0.3372   -2.6209 H   0  0  0  0  0  0  0  0  0  0  0  0
    7.0314   -0.7913   -3.1111 H   0  0  0  0  0  0  0  0  0  0  0  0
    4.3210   -0.8406   -2.0953 H   0  0  0  0  0  0  0  0  0  0  0  0
    2.7819    1.4139    1.7168 H   0  0  0  0  0  0  0  0  0  0  0  0
    0.4515    1.1296    2.3485 H   0  0  0  0  0  0  0  0  0  0  0  0
   -4.4029    1.7313   -0.4926 H   0  0  0  0  0  0  0  0  0  0  0  0
   -3.9326    2.0467   -2.1809 H   0  0  0  0  0  0  0  0  0  0  0  0
   -2.6918    1.5101   -1.0201 H   0  0  0  0  0  0  0  0  0  0  0  0
  1  2  1  0
  2  3  1  0
  3  4  2  0
  4  5  1  0
  5  6  2  0
  6  7  1  0
  7  8  2  0
  8  9  1  0
  9 10  2  0
  9 11  1  0
 11 12  1  0
 12 13  1  0
 13 14  2  0
 14 15  1  0
 15 16  1  0
 16 17  2  0
 17 18  1  0
 18 19  2  0
 19 20  1  0
 20 21  2  0
 21 22  1  0
 22 23  2  0
 23 24  1  0
 15 25  2  0
 25 26  1  0
  2 27  1  0
 27 28  1  0
 27 29  2  0
 27 30  2  0
  8  3  1  0
 26 12  2  0
 24 16  1  0
 23 18  1  0
  1 31  1  0
  1 32  1  0
  1 33  1  0
  4 34  1  0
  5 35  1  0
  6 36  1  0
  7 37  1  0
 11 38  1  0
 13 39  1  0
 14 40  1  0
 19 41  1  0
 20 42  1  0
 21 43  1  0
 22 44  1  0
 24 45  1  0
 25 46  1  0
 26 47  1  0
 28 48  1  0
 28 49  1  0
 28 50  1  0
M  END
$$$$
OCNT-2316412
     RDKit          3D

 38 40  0  0  0  0  0  0  0  0999 V2000
    6.3253   -0.2781   -0.6340 C   0  0  0  0  0  0  0  0  0  0  0  0
    4.9493    0.2196   -0.4214 C   0  0  0  0  0  0  0  0  0  0  0  0
    4.1988    0.3996    0.7182 C   0  0  0  0  0  0  0  0  0  0  0  0
    2.9565    0.9070    0.2693 C   0  0  0  0  0  0  0  0  0  0  0  0
    1.7684    1.2834    1.1022 C   0  0  0  0  0  0  0  0  0  0  0  0
    0.4696    0.5114    0.7748 C   0  0  0  0  0  0  0  0  0  0  0  0
    0.6789   -1.0051    0.8494 C   0  0  0  0  0  0  0  0  0  0  0  0
   -0.0238    0.9255   -0.5348 N   0  0  0  0  0  0  0  0  0  0  0  0
   -1.2492    0.4852   -0.9708 C   0  0  0  0  0  0  0  0  0  0  0  0
   -1.3924    0.3544   -2.2962 N   0  0  0  0  0  0  0  0  0  0  0  0
   -2.5957   -0.0566   -2.7427 C   0  0  0  0  0  0  0  0  0  0  0  0
   -3.6514   -0.3482   -1.9185 C   0  0  0  0  0  0  0  0  0  0  0  0
   -4.8231   -0.7381   -2.4364 F   0  0  0  0  0  0  0  0  0  0  0  0
   -3.4193   -0.1973   -0.5683 C   0  0  0  0  0  0  0  0  0  0  0  0
   -4.4263   -0.4591    0.4645 C   0  0  0  0  0  0  0  0  0  0  0  0
   -5.5385   -1.2588    0.2732 C   0  0  0  0  0  0  0  0  0  0  0  0
   -6.5220   -1.3844    1.6712 S   0  0  0  0  0  0  0  0  0  0  0  0
   -5.4672   -0.3868    2.5687 C   0  0  0  0  0  0  0  0  0  0  0  0
   -4.3924    0.0310    1.8164 C   0  0  0  0  0  0  0  0  0  0  0  0
   -2.2239    0.2247   -0.0875 N   0  0  0  0  0  0  0  0  0  0  0  0
    2.9339    1.0343   -1.0645 N   0  0  0  0  0  0  0  0  0  0  0  0
    4.1490    0.6189   -1.4551 N   0  0  0  0  0  0  0  0  0  0  0  0
    6.7950   -0.5508    0.3165 H   0  0  0  0  0  0  0  0  0  0  0  0
    6.3200   -1.1652   -1.2754 H   0  0  0  0  0  0  0  0  0  0  0  0
    6.9441    0.4895   -1.1095 H   0  0  0  0  0  0  0  0  0  0  0  0
    4.5022    0.1957    1.7357 H   0  0  0  0  0  0  0  0  0  0  0  0
    2.0139    1.1191    2.1596 H   0  0  0  0  0  0  0  0  0  0  0  0
    1.5932    2.3616    0.9902 H   0  0  0  0  0  0  0  0  0  0  0  0
   -0.2633    0.7994    1.5402 H   0  0  0  0  0  0  0  0  0  0  0  0
    1.1495   -1.2861    1.7976 H   0  0  0  0  0  0  0  0  0  0  0  0
    1.3065   -1.3724    0.0302 H   0  0  0  0  0  0  0  0  0  0  0  0
   -0.2743   -1.5405    0.7880 H   0  0  0  0  0  0  0  0  0  0  0  0
    0.6674    0.8594   -1.2823 H   0  0  0  0  0  0  0  0  0  0  0  0
   -2.6914   -0.1447   -3.8194 H   0  0  0  0  0  0  0  0  0  0  0  0
   -5.8441   -1.7938   -0.6154 H   0  0  0  0  0  0  0  0  0  0  0  0
   -5.6805   -0.1561    3.6034 H   0  0  0  0  0  0  0  0  0  0  0  0
   -3.6080    0.6681    2.2092 H   0  0  0  0  0  0  0  0  0  0  0  0
    4.3652    0.6342   -2.4464 H   0  0  0  0  0  0  0  0  0  0  0  0
  1  2  1  0
  2  3  2  0
  3  4  1  0
  4  5  1  0
  5  6  1  0
  6  7  1  0
  6  8  1  0
  8  9  1  0
  9 10  2  0
 10 11  1  0
 11 12  2  0
 12 13  1  0
 12 14  1  0
 14 15  1  0
 15 16  2  0
 16 17  1  0
 17 18  1  0
 18 19  2  0
 14 20  2  0
  4 21  2  0
 21 22  1  0
 22  2  1  0
 20  9  1  0
 19 15  1  0
  1 23  1  0
  1 24  1  0
  1 25  1  0
  3 26  1  0
  5 27  1  0
  5 28  1  0
  6 29  1  0
  7 30  1  0
  7 31  1  0
  7 32  1  0
  8 33  1  0
 11 34  1  0
 16 35  1  0
 18 36  1  0
 19 37  1  0
 22 38  1  0
M  END
$$$$
OCNT-2316420
     RDKit          3D

 61 64  0  0  0  0  0  0  0  0999 V2000
   -4.9222   -5.3387    0.9177 C   0  0  0  0  0  0  0  0  0  0  0  0
   -4.6180   -3.9055    0.4834 C   0  0  0  0  0  0  0  0  0  0  0  0
   -4.3638   -3.8519   -1.0217 C   0  0  0  0  0  0  0  0  0  0  0  0
   -3.4189   -3.3499    1.2470 C   0  0  0  0  0  0  0  0  0  0  0  0
   -2.6661   -4.0443    1.9241 O   0  0  0  0  0  0  0  0  0  0  0  0
   -3.2598   -1.9865    1.1217 N   0  0  0  0  0  0  0  0  0  0  0  0
   -2.0119   -1.3452    1.5358 C   0  0  0  0  0  0  0  0  0  0  0  0
   -2.2426    0.0191    2.2046 C   0  0  0  0  0  0  0  0  0  0  0  0
   -2.9573    1.0316    1.3576 C   0  0  0  0  0  0  0  0  0  0  0  0
   -4.3273    1.1755    1.2425 C   0  0  0  0  0  0  0  0  0  0  0  0
   -4.5826    2.2060    0.3795 N   0  0  0  0  0  0  0  0  0  0  0  0
   -3.4045    2.7569   -0.0652 C   0  0  0  0  0  0  0  0  0  0  0  0
   -3.1865    3.8237   -0.9458 C   0  0  0  0  0  0  0  0  0  0  0  0
   -1.8631    4.1769   -1.2221 C   0  0  0  0  0  0  0  0  0  0  0  0
   -0.8026    3.4919   -0.6365 C   0  0  0  0  0  0  0  0  0  0  0  0
   -1.0394    2.4304    0.2447 C   0  0  0  0  0  0  0  0  0  0  0  0
   -2.3649    2.0464    0.5359 C   0  0  0  0  0  0  0  0  0  0  0  0
   -1.0877   -1.2288    0.3018 C   0  0  0  0  0  0  0  0  0  0  0  0
   -1.5392   -1.3046   -0.8398 O   0  0  0  0  0  0  0  0  0  0  0  0
    0.2419   -1.0169    0.6404 N   0  0  0  0  0  0  0  0  0  0  0  0
    1.3100   -0.7292   -0.2351 C   0  0  0  0  0  0  0  0  0  0  0  0
    1.1502   -0.4636   -1.5972 C   0  0  0  0  0  0  0  0  0  0  0  0
    2.2572   -0.1705   -2.4005 C   0  0  0  0  0  0  0  0  0  0  0  0
    3.5342   -0.1289   -1.8470 C   0  0  0  0  0  0  0  0  0  0  0  0
    3.6966   -0.3648   -0.4824 C   0  0  0  0  0  0  0  0  0  0  0  0
    4.9327   -0.3696    0.1230 O   0  0  0  0  0  0  0  0  0  0  0  0
    5.7464    0.7180   -0.0989 C   0  0  0  0  0  0  0  0  0  0  0  0
    5.2930    2.0365   -0.0041 C   0  0  0  0  0  0  0  0  0  0  0  0
    6.1850    3.0941   -0.2022 C   0  0  0  0  0  0  0  0  0  0  0  0
    7.5326    2.8347   -0.4802 C   0  0  0  0  0  0  0  0  0  0  0  0
    8.4475    3.9212   -0.6790 C   0  0  0  0  0  0  0  0  0  0  0  0
    9.1848    4.8036   -0.8380 N   0  0  0  0  0  0  0  0  0  0  0  0
    7.9848    1.5123   -0.5556 C   0  0  0  0  0  0  0  0  0  0  0  0
    7.0929    0.4554   -0.3567 C   0  0  0  0  0  0  0  0  0  0  0  0
    2.5954   -0.6806    0.3172 C   0  0  0  0  0  0  0  0  0  0  0  0
   -4.0900   -6.0135    0.6857 H   0  0  0  0  0  0  0  0  0  0  0  0
   -5.8170   -5.7175    0.4130 H   0  0  0  0  0  0  0  0  0  0  0  0
   -5.0985   -5.3883    1.9982 H   0  0  0  0  0  0  0  0  0  0  0  0
   -5.4884   -3.2820    0.7249 H   0  0  0  0  0  0  0  0  0  0  0  0
   -3.4411   -4.3792   -1.2851 H   0  0  0  0  0  0  0  0  0  0  0  0
   -5.1898   -4.3101   -1.5746 H   0  0  0  0  0  0  0  0  0  0  0  0
   -4.2640   -2.8210   -1.3743 H   0  0  0  0  0  0  0  0  0  0  0  0
   -3.7062   -1.5424    0.3252 H   0  0  0  0  0  0  0  0  0  0  0  0
   -1.5087   -1.9963    2.2613 H   0  0  0  0  0  0  0  0  0  0  0  0
   -1.2821    0.4397    2.5279 H   0  0  0  0  0  0  0  0  0  0  0  0
   -2.8282   -0.1343    3.1212 H   0  0  0  0  0  0  0  0  0  0  0  0
   -5.1412    0.6299    1.7025 H   0  0  0  0  0  0  0  0  0  0  0  0
   -5.5017    2.5282    0.1098 H   0  0  0  0  0  0  0  0  0  0  0  0
   -4.0113    4.3604   -1.4028 H   0  0  0  0  0  0  0  0  0  0  0  0
   -1.6605    4.9984   -1.9050 H   0  0  0  0  0  0  0  0  0  0  0  0
    0.2199    3.7799   -0.8661 H   0  0  0  0  0  0  0  0  0  0  0  0
   -0.1995    1.9094    0.6917 H   0  0  0  0  0  0  0  0  0  0  0  0
    0.4917   -1.1545    1.6126 H   0  0  0  0  0  0  0  0  0  0  0  0
    0.1722   -0.4710   -2.0695 H   0  0  0  0  0  0  0  0  0  0  0  0
    2.1154    0.0225   -3.4609 H   0  0  0  0  0  0  0  0  0  0  0  0
    4.3894    0.0809   -2.4827 H   0  0  0  0  0  0  0  0  0  0  0  0
    4.2529    2.2504    0.2282 H   0  0  0  0  0  0  0  0  0  0  0  0
    5.8232    4.1180   -0.1305 H   0  0  0  0  0  0  0  0  0  0  0  0
    9.0313    1.2956   -0.7630 H   0  0  0  0  0  0  0  0  0  0  0  0
    7.4454   -0.5718   -0.4072 H   0  0  0  0  0  0  0  0  0  0  0  0
    2.7600   -0.8858    1.3711 H   0  0  0  0  0  0  0  0  0  0  0  0
  1  2  1  0
  2  3  1  0
  2  4  1  0
  4  5  2  0
  4  6  1  0
  6  7  1  0
  7  8  1  0
  8  9  1  0
  9 10  2  0
 10 11  1  0
 11 12  1  0
 12 13  2  0
 13 14  1  0
 14 15  2  0
 15 16  1  0
 16 17  2  0
  7 18  1  0
 18 19  2  0
 18 20  1  0
 20 21  1  0
 21 22  2  0
 22 23  1  0
 23 24  2  0
 24 25  1  0
 25 26  1  0
 26 27  1  0
 27 28  1  0
 28 29  2  0
 29 30  1  0
 30 31  1  0
 31 32  3  0
 30 33  2  0
 33 34  1  0
 25 35  2  0
 17  9  1  0
 35 21  1  0
 17 12  1  0
 34 27  2  0
  1 36  1  0
  1 37  1  0
  1 38  1  0
  2 39  1  0
  3 40  1  0
  3 41  1  0
  3 42  1  0
  6 43  1  0
  7 44  1  0
  8 45  1  0
  8 46  1  0
 10 47  1  0
 11 48  1  0
 13 49  1  0
 14 50  1  0
 15 51  1  0
 16 52  1  0
 20 53  1  0
 22 54  1  0
 23 55  1  0
 24 56  1  0
 28 57  1  0
 29 58  1  0
 33 59  1  0
 34 60  1  0
 35 61  1  0
M  END
$$$$
OCNT-2316424
     RDKit          3D

 49 53  0  0  0  0  0  0  0  0999 V2000
    3.0568   -2.4602   -0.9821 O   0  0  0  0  0  0  0  0  0  0  0  0
    2.5933   -1.4237   -0.5162 C   0  0  0  0  0  0  0  0  0  0  0  0
    3.4847   -0.2449   -0.5149 C   0  0  0  0  0  0  0  0  0  0  0  0
    3.8395    0.3271   -1.7410 C   0  0  0  0  0  0  0  0  0  0  0  0
    4.6832    1.4412   -1.7912 C   0  0  0  0  0  0  0  0  0  0  0  0
    5.1535    1.9360   -0.5697 C   0  0  0  0  0  0  0  0  0  0  0  0
    5.9839    2.9862   -0.2728 N   0  0  0  0  0  0  0  0  0  0  0  0
    6.2096    3.1533    1.0424 N   0  0  0  0  0  0  0  0  0  0  0  0
    5.5165    2.1607    1.6056 C   0  0  0  0  0  0  0  0  0  0  0  0
    4.8286    1.3695    0.6591 C   0  0  0  0  0  0  0  0  0  0  0  0
    3.9834    0.2485    0.7006 C   0  0  0  0  0  0  0  0  0  0  0  0
    1.3137   -1.2404   -0.0193 N   0  0  0  0  0  0  0  0  0  0  0  0
    0.7334    0.0221    0.4711 C   0  0  0  0  0  0  0  0  0  0  0  0
   -0.7898   -0.2010    0.6354 C   0  0  0  0  0  0  0  0  0  0  0  0
   -1.5503    0.5081   -0.5022 C   0  0  0  0  0  0  0  0  0  0  0  0
   -3.0860    0.4136   -0.4537 C   0  0  0  0  0  0  0  0  0  0  0  0
   -3.6813    0.9653    0.8626 C   0  0  0  0  0  0  0  0  0  0  0  0
   -5.1138    0.8980    0.8603 O   0  0  0  0  0  0  0  0  0  0  0  0
   -5.6573    1.6214   -0.2499 C   0  0  0  0  0  0  0  0  0  0  0  0
   -5.1021    1.0944   -1.5795 C   0  0  0  0  0  0  0  0  0  0  0  0
   -3.6294    1.1493   -1.6252 N   0  0  0  0  0  0  0  0  0  0  0  0
   -0.8584   -1.7031    0.5874 C   0  0  0  0  0  0  0  0  0  0  0  0
   -1.9357   -2.5220    0.8996 C   0  0  0  0  0  0  0  0  0  0  0  0
   -1.7982   -3.9015    0.7340 C   0  0  0  0  0  0  0  0  0  0  0  0
   -0.5945   -4.4456    0.2671 C   0  0  0  0  0  0  0  0  0  0  0  0
    0.4932   -3.6188   -0.0253 C   0  0  0  0  0  0  0  0  0  0  0  0
    0.3521   -2.2524    0.1520 C   0  0  0  0  0  0  0  0  0  0  0  0
    3.4595   -0.1031   -2.6662 H   0  0  0  0  0  0  0  0  0  0  0  0
    4.9634    1.8895   -2.7391 H   0  0  0  0  0  0  0  0  0  0  0  0
    6.4281    3.6260   -0.9215 H   0  0  0  0  0  0  0  0  0  0  0  0
    5.5361    2.0537    2.6825 H   0  0  0  0  0  0  0  0  0  0  0  0
    3.7303   -0.2286    1.6424 H   0  0  0  0  0  0  0  0  0  0  0  0
    0.9824    0.8486   -0.2029 H   0  0  0  0  0  0  0  0  0  0  0  0
    1.1876    0.2317    1.4476 H   0  0  0  0  0  0  0  0  0  0  0  0
   -1.0997    0.1789    1.6143 H   0  0  0  0  0  0  0  0  0  0  0  0
   -1.2670    1.5701   -0.4867 H   0  0  0  0  0  0  0  0  0  0  0  0
   -1.2050    0.1134   -1.4686 H   0  0  0  0  0  0  0  0  0  0  0  0
   -3.3894   -0.6326   -0.5721 H   0  0  0  0  0  0  0  0  0  0  0  0
   -3.3732    2.0036    1.0376 H   0  0  0  0  0  0  0  0  0  0  0  0
   -3.3457    0.3726    1.7180 H   0  0  0  0  0  0  0  0  0  0  0  0
   -5.4383    2.6885   -0.1241 H   0  0  0  0  0  0  0  0  0  0  0  0
   -6.7447    1.4993   -0.2258 H   0  0  0  0  0  0  0  0  0  0  0  0
   -5.4198    0.0555   -1.7289 H   0  0  0  0  0  0  0  0  0  0  0  0
   -5.5084    1.6810   -2.4101 H   0  0  0  0  0  0  0  0  0  0  0  0
   -3.3405    2.1258   -1.5675 H   0  0  0  0  0  0  0  0  0  0  0  0
   -2.8745   -2.1146    1.2606 H   0  0  0  0  0  0  0  0  0  0  0  0
   -2.6323   -4.5603    0.9643 H   0  0  0  0  0  0  0  0  0  0  0  0
   -0.5010   -5.5213    0.1382 H   0  0  0  0  0  0  0  0  0  0  0  0
    1.4235   -4.0586   -0.3680 H   0  0  0  0  0  0  0  0  0  0  0  0
  1  2  2  0
  2  3  1  0
  3  4  2  0
  4  5  1  0
  5  6  2  0
  6  7  1  0
  7  8  1  0
  8  9  2  0
  9 10  1  0
 10 11  2  0
  2 12  1  0
 12 13  1  0
 13 14  1  0
 14 15  1  0
 15 16  1  0
 16 17  1  0
 17 18  1  0
 18 19  1  0
 19 20  1  0
 20 21  1  0
 14 22  1  0
 22 23  2  0
 23 24  1  0
 24 25  2  0
 25 26  1  0
 26 27  2  0
 11  3  1  0
 27 12  1  0
 10  6  1  0
 21 16  1  0
 27 22  1  0
  4 28  1  0
  5 29  1  0
  7 30  1  0
  9 31  1  0
 11 32  1  0
 13 33  1  0
 13 34  1  0
 14 35  1  0
 15 36  1  0
 15 37  1  0
 16 38  1  0
 17 39  1  0
 17 40  1  0
 19 41  1  0
 19 42  1  0
 20 43  1  0
 20 44  1  0
 21 45  1  0
 23 46  1  0
 24 47  1  0
 25 48  1  0
 26 49  1  0
M  END
$$$$
