OCNT-2312240
     RDKit          3D

 50 53  0  0  0  0  0  0  0  0999 V2000
   -3.0014    2.1145   -0.4668 O   0  0  0  0  0  0  0  0  0  0  0  0
   -3.1195    0.7113   -0.2016 C   0  0  0  0  0  0  0  0  0  0  0  0
   -4.5672    0.3983    0.1358 C   0  0  0  0  0  0  0  0  0  0  0  0
   -5.2703   -0.5729   -0.5923 C   0  0  0  0  0  0  0  0  0  0  0  0
   -6.5999   -0.8661   -0.2834 C   0  0  0  0  0  0  0  0  0  0  0  0
   -7.2417   -0.1924    0.7538 C   0  0  0  0  0  0  0  0  0  0  0  0
   -6.5563    0.7762    1.4836 C   0  0  0  0  0  0  0  0  0  0  0  0
   -5.2273    1.0709    1.1770 C   0  0  0  0  0  0  0  0  0  0  0  0
   -2.1258    0.2867    0.9221 C   0  0  0  0  0  0  0  0  0  0  0  0
   -2.1371   -1.2252    1.1810 C   0  0  0  0  0  0  0  0  0  0  0  0
   -0.7732   -1.5442    1.7764 C   0  0  0  0  0  0  0  0  0  0  0  0
   -0.0230   -0.2226    1.7862 C   0  0  0  0  0  0  0  0  0  0  0  0
   -0.6808    0.6304    0.7799 N   0  0  0  0  0  0  0  0  0  0  0  0
   -0.1574    0.4023   -0.5778 C   0  0  0  0  0  0  0  0  0  0  0  0
    1.2510    0.8868   -0.6843 C   0  0  0  0  0  0  0  0  0  0  0  0
    1.7372    2.1705   -0.6029 C   0  0  0  0  0  0  0  0  0  0  0  0
    3.0893    2.1231   -0.7476 O   0  0  0  0  0  0  0  0  0  0  0  0
    3.3682    0.7886   -0.9062 C   0  0  0  0  0  0  0  0  0  0  0  0
    4.7778    0.4246   -1.0645 C   0  0  0  0  0  0  0  0  0  0  0  0
    5.7139    1.4197   -1.4143 C   0  0  0  0  0  0  0  0  0  0  0  0
    7.0653    1.1199   -1.5943 C   0  0  0  0  0  0  0  0  0  0  0  0
    7.5110   -0.1840   -1.4293 C   0  0  0  0  0  0  0  0  0  0  0  0
    6.6058   -1.1847   -1.0804 C   0  0  0  0  0  0  0  0  0  0  0  0
    5.2353   -0.9003   -0.8881 C   0  0  0  0  0  0  0  0  0  0  0  0
    4.3105   -2.0324   -0.4917 C   0  0  0  0  0  0  0  0  0  0  0  0
    3.6030   -1.7918    0.6464 F   0  0  0  0  0  0  0  0  0  0  0  0
    4.9946   -3.1903   -0.2282 F   0  0  0  0  0  0  0  0  0  0  0  0
    3.4209   -2.3753   -1.4625 F   0  0  0  0  0  0  0  0  0  0  0  0
    2.3017    0.0166   -0.8895 N   0  0  0  0  0  0  0  0  0  0  0  0
   -3.8611    2.4204   -0.8024 H   0  0  0  0  0  0  0  0  0  0  0  0
   -2.8596    0.2003   -1.1361 H   0  0  0  0  0  0  0  0  0  0  0  0
   -4.7884   -1.1120   -1.4053 H   0  0  0  0  0  0  0  0  0  0  0  0
   -7.1358   -1.6217   -0.8523 H   0  0  0  0  0  0  0  0  0  0  0  0
   -8.2768   -0.4221    0.9933 H   0  0  0  0  0  0  0  0  0  0  0  0
   -7.0565    1.3031    2.2923 H   0  0  0  0  0  0  0  0  0  0  0  0
   -4.7057    1.8330    1.7540 H   0  0  0  0  0  0  0  0  0  0  0  0
   -2.4422    0.7936    1.8455 H   0  0  0  0  0  0  0  0  0  0  0  0
   -2.2715   -1.7938    0.2530 H   0  0  0  0  0  0  0  0  0  0  0  0
   -2.9420   -1.5087    1.8676 H   0  0  0  0  0  0  0  0  0  0  0  0
   -0.2570   -2.2814    1.1508 H   0  0  0  0  0  0  0  0  0  0  0  0
   -0.8602   -1.9615    2.7847 H   0  0  0  0  0  0  0  0  0  0  0  0
   -0.1423    0.2541    2.7677 H   0  0  0  0  0  0  0  0  0  0  0  0
    1.0537   -0.3579    1.6439 H   0  0  0  0  0  0  0  0  0  0  0  0
   -0.7333    0.9749   -1.3132 H   0  0  0  0  0  0  0  0  0  0  0  0
   -0.2155   -0.6526   -0.8716 H   0  0  0  0  0  0  0  0  0  0  0  0
    1.2936    3.1424   -0.4457 H   0  0  0  0  0  0  0  0  0  0  0  0
    5.3916    2.4504   -1.5588 H   0  0  0  0  0  0  0  0  0  0  0  0
    7.7649    1.9067   -1.8660 H   0  0  0  0  0  0  0  0  0  0  0  0
    8.5623   -0.4238   -1.5702 H   0  0  0  0  0  0  0  0  0  0  0  0
    6.9773   -2.2016   -0.9526 H   0  0  0  0  0  0  0  0  0  0  0  0
  1  2  1  0
  2  3  1  0
  3  4  2  0
  4  5  1  0
  5  6  2  0
  6  7  1  0
  7  8  2  0
  2  9  1  0
  9 10  1  0
 10 11  1  0
 11 12  1  0
 12 13  1  0
 13 14  1  0
 14 15  1  0
 15 16  2  0
 16 17  1  0
 17 18  1  0
 18 19  1  0
 19 20  2  0
 20 21  1  0
 21 22  2  0
 22 23  1  0
 23 24  2  0
 24 25  1  0
 25 26  1  0
 25 27  1  0
 25 28  1  0
 18 29  2  0
  8  3  1  0
 13  9  1  0
 29 15  1  0
 24 19  1  0
  1 30  1  0
  2 31  1  0
  4 32  1  0
  5 33  1  0
  6 34  1  0
  7 35  1  0
  8 36  1  0
  9 37  1  0
 10 38  1  0
 10 39  1  0
 11 40  1  0
 11 41  1  0
 12 42  1  0
 12 43  1  0
 14 44  1  0
 14 45  1  0
 16 46  1  0
 20 47  1  0
 21 48  1  0
 22 49  1  0
 23 50  1  0
M  END
$$$$
OCNT-2312247
     RDKit          3D

 48 50  0  0  0  0  0  0  0  0999 V2000
   -5.4646   -2.5928    1.6010 C   0  0  0  0  0  0  0  0  0  0  0  0
   -4.5178   -1.5107    1.1176 C   0  0  0  0  0  0  0  0  0  0  0  0
   -5.0676   -0.9413   -0.0656 O   0  0  0  0  0  0  0  0  0  0  0  0
   -4.4524    0.2607   -0.5718 C   0  0  0  0  0  0  0  0  0  0  0  0
   -2.9729    0.0842   -0.6944 C   0  0  0  0  0  0  0  0  0  0  0  0
   -2.3257   -0.6115   -1.6055 N   0  0  0  0  0  0  0  0  0  0  0  0
   -0.9804   -0.5122   -1.3411 N   0  0  0  0  0  0  0  0  0  0  0  0
   -0.8120    0.2349   -0.2731 C   0  0  0  0  0  0  0  0  0  0  0  0
    0.2892    0.6370    0.3987 N   0  0  0  0  0  0  0  0  0  0  0  0
    1.6362    0.3288    0.1086 C   0  0  0  0  0  0  0  0  0  0  0  0
    2.6391    0.8663    0.9334 C   0  0  0  0  0  0  0  0  0  0  0  0
    3.9988    0.6038    0.7084 C   0  0  0  0  0  0  0  0  0  0  0  0
    4.3878   -0.2091   -0.3505 C   0  0  0  0  0  0  0  0  0  0  0  0
    5.6649   -0.5464   -0.6938 O   0  0  0  0  0  0  0  0  0  0  0  0
    6.7437   -0.1832    0.1728 C   0  0  0  0  0  0  0  0  0  0  0  0
    7.2701    1.1986   -0.2041 C   0  0  0  0  0  0  0  0  0  0  0  0
    7.8379   -1.2299   -0.0268 C   0  0  0  0  0  0  0  0  0  0  0  0
    3.4032   -0.7434   -1.1803 C   0  0  0  0  0  0  0  0  0  0  0  0
    2.0459   -0.4806   -0.9536 C   0  0  0  0  0  0  0  0  0  0  0  0
   -2.0496    0.6280    0.1622 N   0  0  0  0  0  0  0  0  0  0  0  0
   -4.9062    1.4692    0.2340 C   0  0  0  0  0  0  0  0  0  0  0  0
   -6.2952    1.7096   -0.3164 C   0  0  0  0  0  0  0  0  0  0  0  0
   -6.2078    1.4618   -1.7203 O   0  0  0  0  0  0  0  0  0  0  0  0
   -5.0890    0.5707   -1.9407 C   0  0  0  0  0  0  0  0  0  0  0  0
   -5.6013   -3.3586    0.8302 H   0  0  0  0  0  0  0  0  0  0  0  0
   -6.4536   -2.1726    1.8121 H   0  0  0  0  0  0  0  0  0  0  0  0
   -5.0823   -3.0691    2.5081 H   0  0  0  0  0  0  0  0  0  0  0  0
   -3.5436   -1.9599    0.8998 H   0  0  0  0  0  0  0  0  0  0  0  0
   -4.3994   -0.7541    1.8988 H   0  0  0  0  0  0  0  0  0  0  0  0
    0.1973    1.2363    1.2086 H   0  0  0  0  0  0  0  0  0  0  0  0
    2.3762    1.5075    1.7709 H   0  0  0  0  0  0  0  0  0  0  0  0
    4.7200    1.0613    1.3759 H   0  0  0  0  0  0  0  0  0  0  0  0
    6.4492   -0.2201    1.2278 H   0  0  0  0  0  0  0  0  0  0  0  0
    6.4991    1.9648   -0.0783 H   0  0  0  0  0  0  0  0  0  0  0  0
    7.5691    1.2287   -1.2579 H   0  0  0  0  0  0  0  0  0  0  0  0
    8.1316    1.4747    0.4119 H   0  0  0  0  0  0  0  0  0  0  0  0
    8.7089   -1.0202    0.6016 H   0  0  0  0  0  0  0  0  0  0  0  0
    8.1600   -1.2696   -1.0734 H   0  0  0  0  0  0  0  0  0  0  0  0
    7.4598   -2.2272    0.2234 H   0  0  0  0  0  0  0  0  0  0  0  0
    3.6882   -1.3767   -2.0174 H   0  0  0  0  0  0  0  0  0  0  0  0
    1.3267   -0.9283   -1.6334 H   0  0  0  0  0  0  0  0  0  0  0  0
   -2.2359    1.2047    0.9654 H   0  0  0  0  0  0  0  0  0  0  0  0
   -4.9299    1.3229    1.3168 H   0  0  0  0  0  0  0  0  0  0  0  0
   -4.2797    2.3437    0.0169 H   0  0  0  0  0  0  0  0  0  0  0  0
   -6.6422    2.7323   -0.1444 H   0  0  0  0  0  0  0  0  0  0  0  0
   -7.0268    1.0159    0.1124 H   0  0  0  0  0  0  0  0  0  0  0  0
   -5.4622   -0.3260   -2.4463 H   0  0  0  0  0  0  0  0  0  0  0  0
   -4.4049    1.0971   -2.6157 H   0  0  0  0  0  0  0  0  0  0  0  0
  1  2  1  0
  2  3  1  0
  3  4  1  0
  4  5  1  0
  5  6  2  0
  6  7  1  0
  7  8  2  0
  8  9  1  0
  9 10  1  0
 10 11  1  0
 11 12  2  0
 12 13  1  0
 13 14  1  0
 14 15  1  0
 15 16  1  0
 15 17  1  0
 13 18  2  0
 18 19  1  0
  8 20  1  0
  4 21  1  0
 21 22  1  0
 22 23  1  0
 23 24  1  0
 24  4  1  0
 20  5  1  0
 19 10  2  0
  1 25  1  0
  1 26  1  0
  1 27  1  0
  2 28  1  0
  2 29  1  0
  9 30  1  0
 11 31  1  0
 12 32  1  0
 15 33  1  0
 16 34  1  0
 16 35  1  0
 16 36  1  0
 17 37  1  0
 17 38  1  0
 17 39  1  0
 18 40  1  0
 19 41  1  0
 20 42  1  0
 21 43  1  0
 21 44  1  0
 22 45  1  0
 22 46  1  0
 24 47  1  0
 24 48  1  0
M  END
$$$$
OCNT-2312258
     RDKit          3D

 55 57  0  0  0  0  0  0  0  0999 V2000
    8.4439   -1.3108   -2.3448 C   0  0  0  0  0  0  0  0  0  0  0  0
    7.3577   -0.4146   -2.1093 O   0  0  0  0  0  0  0  0  0  0  0  0
    6.8260   -0.5019   -0.8565 C   0  0  0  0  0  0  0  0  0  0  0  0
    7.2242   -1.2482    0.0259 O   0  0  0  0  0  0  0  0  0  0  0  0
    5.6982    0.4964   -0.7164 C   0  0  0  0  0  0  0  0  0  0  0  0
    4.6922    0.1229    0.3909 C   0  0  2  0  0  0  0  0  0  0  0  0
    3.9690   -1.2023    0.0637 C   0  0  0  0  0  0  0  0  0  0  0  0
    2.5851   -1.2627    0.7028 C   0  0  0  0  0  0  0  0  0  0  0  0
    1.6598   -0.1705    0.1354 C   0  0  1  0  0  0  0  0  0  0  0  0
    0.4981    0.0902    1.1077 C   0  0  0  0  0  0  0  0  0  0  0  0
   -0.5689    0.8377    0.4681 N   0  0  0  0  0  0  0  0  0  0  0  0
   -1.3600    1.7215    1.1789 C   0  0  0  0  0  0  0  0  0  0  0  0
   -1.1587    2.0259    2.3508 O   0  0  0  0  0  0  0  0  0  0  0  0
   -2.5071    2.3028    0.3706 C   0  0  0  0  0  0  0  0  0  0  0  0
   -3.7860    1.5195    0.5337 C   0  0  0  0  0  0  0  0  0  0  0  0
   -4.5704    1.6893    1.6831 C   0  0  0  0  0  0  0  0  0  0  0  0
   -5.7518    0.9649    1.8456 C   0  0  0  0  0  0  0  0  0  0  0  0
   -6.1544    0.0537    0.8706 C   0  0  0  0  0  0  0  0  0  0  0  0
   -7.3311   -0.6047    1.1140 O   0  0  0  0  0  0  0  0  0  0  0  0
   -7.5499   -1.7579    0.2948 C   0  0  0  0  0  0  0  0  0  0  0  0
   -7.2843   -1.4717   -1.1747 C   0  0  0  0  0  0  0  0  0  0  0  0
   -5.8192   -1.1004   -1.3479 C   0  0  0  0  0  0  0  0  0  0  0  0
   -5.3913   -0.1230   -0.2901 C   0  0  0  0  0  0  0  0  0  0  0  0
   -4.2009    0.6045   -0.4465 C   0  0  0  0  0  0  0  0  0  0  0  0
    2.4287    1.1261   -0.2013 C   0  0  0  0  0  0  0  0  0  0  0  0
    3.6971    1.2768    0.6341 C   0  0  0  0  0  0  0  0  0  0  0  0
    9.2769   -1.0888   -1.6704 H   0  0  0  0  0  0  0  0  0  0  0  0
    8.7844   -1.1676   -3.3753 H   0  0  0  0  0  0  0  0  0  0  0  0
    8.1154   -2.3485   -2.2301 H   0  0  0  0  0  0  0  0  0  0  0  0
    6.1610    1.4671   -0.4966 H   0  0  0  0  0  0  0  0  0  0  0  0
    5.1742    0.5795   -1.6781 H   0  0  0  0  0  0  0  0  0  0  0  0
    5.2528   -0.0161    1.3267 H   0  0  0  0  0  0  0  0  0  0  0  0
    4.5721   -2.0467    0.4184 H   0  0  0  0  0  0  0  0  0  0  0  0
    3.8651   -1.3291   -1.0226 H   0  0  0  0  0  0  0  0  0  0  0  0
    2.6854   -1.1593    1.7918 H   0  0  0  0  0  0  0  0  0  0  0  0
    2.1356   -2.2482    0.5242 H   0  0  0  0  0  0  0  0  0  0  0  0
    1.2350   -0.5454   -0.8069 H   0  0  0  0  0  0  0  0  0  0  0  0
    0.0536   -0.8563    1.4366 H   0  0  0  0  0  0  0  0  0  0  0  0
    0.8483    0.6203    2.0008 H   0  0  0  0  0  0  0  0  0  0  0  0
   -0.9542    0.4561   -0.3866 H   0  0  0  0  0  0  0  0  0  0  0  0
   -2.6589    3.3434    0.6859 H   0  0  0  0  0  0  0  0  0  0  0  0
   -2.2235    2.3558   -0.6875 H   0  0  0  0  0  0  0  0  0  0  0  0
   -4.2617    2.3845    2.4624 H   0  0  0  0  0  0  0  0  0  0  0  0
   -6.3553    1.1053    2.7393 H   0  0  0  0  0  0  0  0  0  0  0  0
   -6.9308   -2.5856    0.6660 H   0  0  0  0  0  0  0  0  0  0  0  0
   -8.5963   -2.0533    0.4271 H   0  0  0  0  0  0  0  0  0  0  0  0
   -7.9123   -0.6325   -1.5031 H   0  0  0  0  0  0  0  0  0  0  0  0
   -7.5328   -2.3408   -1.7934 H   0  0  0  0  0  0  0  0  0  0  0  0
   -5.1959   -1.9989   -1.2634 H   0  0  0  0  0  0  0  0  0  0  0  0
   -5.6679   -0.6762   -2.3471 H   0  0  0  0  0  0  0  0  0  0  0  0
   -3.6034    0.4597   -1.3450 H   0  0  0  0  0  0  0  0  0  0  0  0
    1.7941    2.0100   -0.0695 H   0  0  0  0  0  0  0  0  0  0  0  0
    2.7063    1.1086   -1.2641 H   0  0  0  0  0  0  0  0  0  0  0  0
    4.1673    2.2472    0.4312 H   0  0  0  0  0  0  0  0  0  0  0  0
    3.4192    1.2919    1.6972 H   0  0  0  0  0  0  0  0  0  0  0  0
  1  2  1  0
  2  3  1  0
  3  4  2  0
  3  5  1  0
  5  6  1  0
  6  7  1  0
  7  8  1  0
  8  9  1  0
  9 10  1  0
 10 11  1  0
 11 12  1  0
 12 13  2  0
 12 14  1  0
 14 15  1  0
 15 16  1  0
 16 17  2  0
 17 18  1  0
 18 19  1  0
 19 20  1  0
 20 21  1  0
 21 22  1  0
 22 23  1  0
 23 24  1  0
  9 25  1  0
 25 26  1  0
 26  6  1  0
 24 15  2  0
 23 18  2  0
  1 27  1  0
  1 28  1  0
  1 29  1  0
  5 30  1  0
  5 31  1  0
  6 32  1  1
  7 33  1  0
  7 34  1  0
  8 35  1  0
  8 36  1  0
  9 37  1  6
 10 38  1  0
 10 39  1  0
 11 40  1  0
 14 41  1  0
 14 42  1  0
 16 43  1  0
 17 44  1  0
 20 45  1  0
 20 46  1  0
 21 47  1  0
 21 48  1  0
 22 49  1  0
 22 50  1  0
 24 51  1  0
 25 52  1  0
 25 53  1  0
 26 54  1  0
 26 55  1  0
M  END
$$$$
OCNT-2312272
     RDKit          3D

 44 47  0  0  0  0  0  0  0  0999 V2000
   -4.5447   -2.8414   -0.3961 C   0  0  0  0  0  0  0  0  0  0  0  0
   -4.8631   -1.5357    0.1238 N   0  0  0  0  0  0  0  0  0  0  0  0
   -6.0955   -1.3046    0.6338 N   0  0  0  0  0  0  0  0  0  0  0  0
   -6.0391   -0.0223    1.0086 C   0  0  0  0  0  0  0  0  0  0  0  0
   -4.7843    0.5671    0.7492 C   0  0  0  0  0  0  0  0  0  0  0  0
   -4.1744    1.8131    0.9114 C   0  0  0  0  0  0  0  0  0  0  0  0
   -2.8419    1.9372    0.4809 C   0  0  0  0  0  0  0  0  0  0  0  0
   -2.2230    3.2250    0.5904 C   0  0  0  0  0  0  0  0  0  0  0  0
   -1.7527    4.2795    0.7158 N   0  0  0  0  0  0  0  0  0  0  0  0
   -2.1624    0.8321   -0.0778 C   0  0  0  0  0  0  0  0  0  0  0  0
   -0.8249    0.9487   -0.4986 N   0  0  0  0  0  0  0  0  0  0  0  0
   -0.4248    0.0040   -1.5497 C   0  0  0  0  0  0  0  0  0  0  0  0
    1.0574    0.1923   -1.8481 C   0  0  0  0  0  0  0  0  0  0  0  0
    1.8974   -0.2176   -0.6263 C   0  0  0  0  0  0  0  0  0  0  0  0
    3.1708    0.5148   -0.6421 N   0  0  0  0  0  0  0  0  0  0  0  0
    4.3487   -0.0386   -0.1333 C   0  0  0  0  0  0  0  0  0  0  0  0
    4.3910   -1.1201    0.7457 C   0  0  0  0  0  0  0  0  0  0  0  0
    5.6163   -1.5449    1.2434 C   0  0  0  0  0  0  0  0  0  0  0  0
    6.7942   -0.9605    0.9490 N   0  0  0  0  0  0  0  0  0  0  0  0
    6.7366    0.1100    0.1335 C   0  0  0  0  0  0  0  0  0  0  0  0
    5.5596    0.6029   -0.4112 C   0  0  0  0  0  0  0  0  0  0  0  0
    1.1506    0.0344    0.6936 C   0  0  0  0  0  0  0  0  0  0  0  0
    0.1573    1.1867    0.5783 C   0  0  0  0  0  0  0  0  0  0  0  0
   -2.7623   -0.3706   -0.2544 N   0  0  0  0  0  0  0  0  0  0  0  0
   -4.0365   -0.4448    0.1717 C   0  0  0  0  0  0  0  0  0  0  0  0
   -4.6512   -3.5686    0.4127 H   0  0  0  0  0  0  0  0  0  0  0  0
   -5.2411   -3.0676   -1.2075 H   0  0  0  0  0  0  0  0  0  0  0  0
   -3.5199   -2.8552   -0.7738 H   0  0  0  0  0  0  0  0  0  0  0  0
   -6.9156    0.4295    1.4552 H   0  0  0  0  0  0  0  0  0  0  0  0
   -4.7138    2.6519    1.3413 H   0  0  0  0  0  0  0  0  0  0  0  0
   -1.0023    0.2048   -2.4602 H   0  0  0  0  0  0  0  0  0  0  0  0
   -0.6032   -1.0396   -1.2589 H   0  0  0  0  0  0  0  0  0  0  0  0
    1.2424    1.2395   -2.1229 H   0  0  0  0  0  0  0  0  0  0  0  0
    1.3514   -0.4127   -2.7142 H   0  0  0  0  0  0  0  0  0  0  0  0
    2.0908   -1.2944   -0.7188 H   0  0  0  0  0  0  0  0  0  0  0  0
    3.3385    1.0375   -1.4997 H   0  0  0  0  0  0  0  0  0  0  0  0
    3.4975   -1.6440    1.0597 H   0  0  0  0  0  0  0  0  0  0  0  0
    5.6776   -2.3917    1.9209 H   0  0  0  0  0  0  0  0  0  0  0  0
    7.6901    0.5859   -0.0760 H   0  0  0  0  0  0  0  0  0  0  0  0
    5.5954    1.4832   -1.0435 H   0  0  0  0  0  0  0  0  0  0  0  0
    0.5982   -0.8758    0.9635 H   0  0  0  0  0  0  0  0  0  0  0  0
    1.8432    0.2317    1.5197 H   0  0  0  0  0  0  0  0  0  0  0  0
    0.6956    2.1161    0.3562 H   0  0  0  0  0  0  0  0  0  0  0  0
   -0.3238    1.3232    1.5550 H   0  0  0  0  0  0  0  0  0  0  0  0
  1  2  1  0
  2  3  1  0
  3  4  2  0
  4  5  1  0
  5  6  1  0
  6  7  2  0
  7  8  1  0
  8  9  3  0
  7 10  1  0
 10 11  1  0
 11 12  1  0
 12 13  1  0
 13 14  1  0
 14 15  1  0
 15 16  1  0
 16 17  2  0
 17 18  1  0
 18 19  2  0
 19 20  1  0
 20 21  2  0
 14 22  1  0
 22 23  1  0
 10 24  2  0
 24 25  1  0
 25  2  1  0
 25  5  2  0
 23 11  1  0
 21 16  1  0
  1 26  1  0
  1 27  1  0
  1 28  1  0
  4 29  1  0
  6 30  1  0
 12 31  1  0
 12 32  1  0
 13 33  1  0
 13 34  1  0
 14 35  1  0
 15 36  1  0
 17 37  1  0
 18 38  1  0
 20 39  1  0
 21 40  1  0
 22 41  1  0
 22 42  1  0
 23 43  1  0
 23 44  1  0
M  END
$$$$
OCNT-2312280
     RDKit          3D

 48 50  0  0  0  0  0  0  0  0999 V2000
    5.5002    1.8007   -0.6633 C   0  0  0  0  0  0  0  0  0  0  0  0
    4.2465    2.1882    0.1044 C   0  0  0  0  0  0  0  0  0  0  0  0
    4.1417    1.5517    1.4855 C   0  0  0  0  0  0  0  0  0  0  0  0
    3.8234   -0.2081    1.5051 S   0  0  0  0  0  0  0  0  0  0  0  0
    4.9422   -0.8938    0.8938 O   0  0  0  0  0  0  0  0  0  0  0  0
    3.3858   -0.5579    2.8402 O   0  0  0  0  0  0  0  0  0  0  0  0
    2.4751   -0.3234    0.4715 N   0  0  0  0  0  0  0  0  0  0  0  0
    1.8206   -1.6167    0.4734 C   0  0  0  0  0  0  0  0  0  0  0  0
    2.5290   -2.7360    0.0196 C   0  0  0  0  0  0  0  0  0  0  0  0
    1.9443   -4.0020    0.0421 C   0  0  0  0  0  0  0  0  0  0  0  0
    0.6453   -4.1604    0.5153 C   0  0  0  0  0  0  0  0  0  0  0  0
   -0.0842   -3.0485    0.9428 C   0  0  0  0  0  0  0  0  0  0  0  0
    0.4823   -1.7628    0.9004 C   0  0  0  0  0  0  0  0  0  0  0  0
   -0.3123   -0.5597    1.3075 C   0  0  0  0  0  0  0  0  0  0  0  0
    0.2605    0.5029    1.5443 O   0  0  0  0  0  0  0  0  0  0  0  0
   -1.6845   -0.6906    1.3385 N   0  0  0  0  0  0  0  0  0  0  0  0
   -2.5475    0.4512    1.5481 C   0  0  0  0  0  0  0  0  0  0  0  0
   -2.9289    1.0860    0.2434 C   0  0  0  0  0  0  0  0  0  0  0  0
   -2.3231    2.2743   -0.1932 C   0  0  0  0  0  0  0  0  0  0  0  0
   -2.6818    2.8620   -1.4189 C   0  0  0  0  0  0  0  0  0  0  0  0
   -3.6479    2.2716   -2.2359 C   0  0  0  0  0  0  0  0  0  0  0  0
   -4.2218    1.0864   -1.8132 C   0  0  0  0  0  0  0  0  0  0  0  0
   -3.8636    0.5089   -0.6025 C   0  0  0  0  0  0  0  0  0  0  0  0
   -4.5309   -0.6645   -0.3431 O   0  0  0  0  0  0  0  0  0  0  0  0
   -5.1526   -0.9919   -1.6087 C   0  0  0  0  0  0  0  0  0  0  0  0
   -5.2890    0.2800   -2.4449 C   0  0  0  0  0  0  0  0  0  0  0  0
    5.5896    2.4143   -1.5660 H   0  0  0  0  0  0  0  0  0  0  0  0
    6.3987    1.9579   -0.0588 H   0  0  0  0  0  0  0  0  0  0  0  0
    5.4703    0.7555   -0.9825 H   0  0  0  0  0  0  0  0  0  0  0  0
    3.3643    1.9611   -0.5025 H   0  0  0  0  0  0  0  0  0  0  0  0
    4.2593    3.2765    0.2380 H   0  0  0  0  0  0  0  0  0  0  0  0
    5.0588    1.7119    2.0620 H   0  0  0  0  0  0  0  0  0  0  0  0
    3.3164    2.0148    2.0382 H   0  0  0  0  0  0  0  0  0  0  0  0
    1.7915    0.3945    0.7688 H   0  0  0  0  0  0  0  0  0  0  0  0
    3.5478   -2.6332   -0.3480 H   0  0  0  0  0  0  0  0  0  0  0  0
    2.5126   -4.8653   -0.2961 H   0  0  0  0  0  0  0  0  0  0  0  0
    0.2006   -5.1519    0.5554 H   0  0  0  0  0  0  0  0  0  0  0  0
   -1.0857   -3.2144    1.3287 H   0  0  0  0  0  0  0  0  0  0  0  0
   -2.1201   -1.4680    0.8626 H   0  0  0  0  0  0  0  0  0  0  0  0
   -2.0569    1.1759    2.2079 H   0  0  0  0  0  0  0  0  0  0  0  0
   -3.4437    0.0971    2.0691 H   0  0  0  0  0  0  0  0  0  0  0  0
   -1.5608    2.7516    0.4207 H   0  0  0  0  0  0  0  0  0  0  0  0
   -2.2038    3.7885   -1.7284 H   0  0  0  0  0  0  0  0  0  0  0  0
   -3.9355    2.7343   -3.1744 H   0  0  0  0  0  0  0  0  0  0  0  0
   -4.5133   -1.7288   -2.1122 H   0  0  0  0  0  0  0  0  0  0  0  0
   -6.1250   -1.4602   -1.4243 H   0  0  0  0  0  0  0  0  0  0  0  0
   -5.1298    0.0871   -3.5086 H   0  0  0  0  0  0  0  0  0  0  0  0
   -6.2637    0.7532   -2.2893 H   0  0  0  0  0  0  0  0  0  0  0  0
  1  2  1  0
  2  3  1  0
  3  4  1  0
  4  5  2  0
  4  6  2  0
  4  7  1  0
  7  8  1  0
  8  9  2  0
  9 10  1  0
 10 11  2  0
 11 12  1  0
 12 13  2  0
 13 14  1  0
 14 15  2  0
 14 16  1  0
 16 17  1  0
 17 18  1  0
 18 19  1  0
 19 20  2  0
 20 21  1  0
 21 22  2  0
 22 23  1  0
 23 24  1  0
 24 25  1  0
 25 26  1  0
 13  8  1  0
 23 18  2  0
 26 22  1  0
  1 27  1  0
  1 28  1  0
  1 29  1  0
  2 30  1  0
  2 31  1  0
  3 32  1  0
  3 33  1  0
  7 34  1  0
  9 35  1  0
 10 36  1  0
 11 37  1  0
 12 38  1  0
 16 39  1  0
 17 40  1  0
 17 41  1  0
 19 42  1  0
 20 43  1  0
 21 44  1  0
 25 45  1  0
 25 46  1  0
 26 47  1  0
 26 48  1  0
M  END
$$$$
OCNT-2312281
     RDKit          3D

 40 43  0  0  0  0  0  0  0  0999 V2000
   -6.1016    1.8092   -0.7814 F   0  0  0  0  0  0  0  0  0  0  0  0
   -5.6488    0.7359   -0.1193 C   0  0  0  0  0  0  0  0  0  0  0  0
   -6.5349   -0.0189    0.6403 C   0  0  0  0  0  0  0  0  0  0  0  0
   -6.0621   -1.1284    1.3343 C   0  0  0  0  0  0  0  0  0  0  0  0
   -4.7090   -1.4679    1.2554 C   0  0  0  0  0  0  0  0  0  0  0  0
   -3.8212   -0.7099    0.4823 C   0  0  0  0  0  0  0  0  0  0  0  0
   -2.5290   -1.1545    0.5060 O   0  0  0  0  0  0  0  0  0  0  0  0
   -1.5801   -0.5875   -0.4087 C   0  0  0  0  0  0  0  0  0  0  0  0
   -0.5437   -1.6789   -0.6933 C   0  0  0  0  0  0  0  0  0  0  0  0
    0.7928   -1.0767   -1.0968 C   0  0  0  0  0  0  0  0  0  0  0  0
    1.3368   -0.2538   -0.0076 N   0  0  0  0  0  0  0  0  0  0  0  0
    2.7064    0.0020    0.0386 C   0  0  0  0  0  0  0  0  0  0  0  0
    3.4257   -0.2657   -1.0328 N   0  0  0  0  0  0  0  0  0  0  0  0
    4.7658   -0.0079   -0.9978 C   0  0  0  0  0  0  0  0  0  0  0  0
    5.7534   -0.1696   -1.9416 C   0  0  0  0  0  0  0  0  0  0  0  0
    6.9285    0.2737   -1.3175 C   0  0  0  0  0  0  0  0  0  0  0  0
    6.7249    0.6910   -0.0670 N   0  0  0  0  0  0  0  0  0  0  0  0
    5.3932    0.5175    0.1297 N   0  0  0  0  0  0  0  0  0  0  0  0
    4.6599    0.7901    1.2720 C   0  0  0  0  0  0  0  0  0  0  0  0
    3.3416    0.5577    1.2961 C   0  0  0  0  0  0  0  0  0  0  0  0
    0.3703    0.3477    0.9124 C   0  0  0  0  0  0  0  0  0  0  0  0
   -0.9378    0.6664    0.1946 C   0  0  0  0  0  0  0  0  0  0  0  0
   -4.2983    0.4042   -0.2043 C   0  0  0  0  0  0  0  0  0  0  0  0
   -7.5814    0.2641    0.6876 H   0  0  0  0  0  0  0  0  0  0  0  0
   -6.7400   -1.7284    1.9356 H   0  0  0  0  0  0  0  0  0  0  0  0
   -4.3414   -2.3353    1.7997 H   0  0  0  0  0  0  0  0  0  0  0  0
   -2.0635   -0.3394   -1.3620 H   0  0  0  0  0  0  0  0  0  0  0  0
   -0.9185   -2.3381   -1.4857 H   0  0  0  0  0  0  0  0  0  0  0  0
   -0.4118   -2.3207    0.1885 H   0  0  0  0  0  0  0  0  0  0  0  0
    0.6837   -0.4662   -2.0011 H   0  0  0  0  0  0  0  0  0  0  0  0
    1.4781   -1.9004   -1.3300 H   0  0  0  0  0  0  0  0  0  0  0  0
    5.6264   -0.5564   -2.9412 H   0  0  0  0  0  0  0  0  0  0  0  0
    7.9311    0.3104   -1.7240 H   0  0  0  0  0  0  0  0  0  0  0  0
    5.2161    1.1792    2.1130 H   0  0  0  0  0  0  0  0  0  0  0  0
    2.7424    0.7287    2.1768 H   0  0  0  0  0  0  0  0  0  0  0  0
    0.7544    1.2903    1.3173 H   0  0  0  0  0  0  0  0  0  0  0  0
    0.1957   -0.3289    1.7570 H   0  0  0  0  0  0  0  0  0  0  0  0
   -0.7244    1.3764   -0.6152 H   0  0  0  0  0  0  0  0  0  0  0  0
   -1.6179    1.1670    0.8924 H   0  0  0  0  0  0  0  0  0  0  0  0
   -3.6614    1.0436   -0.8023 H   0  0  0  0  0  0  0  0  0  0  0  0
  1  2  1  0
  2  3  1  0
  3  4  2  0
  4  5  1  0
  5  6  2  0
  6  7  1  0
  7  8  1  0
  8  9  1  0
  9 10  1  0
 10 11  1  0
 11 12  1  0
 12 13  2  0
 13 14  1  0
 14 15  2  0
 15 16  1  0
 16 17  2  0
 17 18  1  0
 18 19  1  0
 19 20  2  0
 11 21  1  0
 21 22  1  0
  6 23  1  0
 23  2  2  0
 22  8  1  0
 20 12  1  0
 18 14  1  0
  3 24  1  0
  4 25  1  0
  5 26  1  0
  8 27  1  0
  9 28  1  0
  9 29  1  0
 10 30  1  0
 10 31  1  0
 15 32  1  0
 16 33  1  0
 19 34  1  0
 20 35  1  0
 21 36  1  0
 21 37  1  0
 22 38  1  0
 22 39  1  0
 23 40  1  0
M  END
$$$$
OCNT-2312285
     RDKit          3D

 38 41  0  0  0  0  0  0  0  0999 V2000
    5.6122   -2.3960   -0.4328 C   0  0  0  0  0  0  0  0  0  0  0  0
    4.9251   -1.2111   -0.4657 C   0  0  0  0  0  0  0  0  0  0  0  0
    3.7853   -1.4917   -1.2560 C   0  0  0  0  0  0  0  0  0  0  0  0
    2.6341   -0.4880   -1.6316 C   0  0  0  0  0  0  0  0  0  0  0  0
    1.6031   -0.8301   -2.3748 N   0  0  0  0  0  0  0  0  0  0  0  0
    0.7270    0.2197   -2.5615 N   0  0  0  0  0  0  0  0  0  0  0  0
    1.1003    1.3180   -1.9394 C   0  0  0  0  0  0  0  0  0  0  0  0
    0.3572    2.4544   -1.9796 N   0  0  0  0  0  0  0  0  0  0  0  0
    0.3022    3.3733   -0.8464 C   0  0  0  0  0  0  0  0  0  0  0  0
   -0.2032    2.7450    0.4417 C   0  0  0  0  0  0  0  0  0  0  0  0
   -1.3139    1.9015    0.4451 C   0  0  0  0  0  0  0  0  0  0  0  0
   -1.7166    1.3348    1.6484 C   0  0  0  0  0  0  0  0  0  0  0  0
   -2.7694    0.4654    1.7842 O   0  0  0  0  0  0  0  0  0  0  0  0
   -3.1578   -0.3229    0.6374 C   0  0  0  0  0  0  0  0  0  0  0  0
   -2.1395   -1.3726    0.1138 C   0  0  0  0  0  0  0  0  0  0  0  0
   -3.3303   -2.3188   -0.1195 C   0  0  0  0  0  0  0  0  0  0  0  0
   -4.0842   -1.5242    0.9622 C   0  0  0  0  0  0  0  0  0  0  0  0
   -1.0453    1.6575    2.8193 C   0  0  0  0  0  0  0  0  0  0  0  0
    0.0320    2.5171    2.7349 C   0  0  0  0  0  0  0  0  0  0  0  0
    0.4692    3.0607    1.5784 N   0  0  0  0  0  0  0  0  0  0  0  0
    2.6031    1.1466   -1.1133 S   0  0  0  0  0  0  0  0  0  0  0  0
    3.7887   -2.7663   -1.6700 N   0  0  0  0  0  0  0  0  0  0  0  0
    4.9404   -3.3289   -1.1489 O   0  0  0  0  0  0  0  0  0  0  0  0
    6.5331   -2.7293    0.0225 H   0  0  0  0  0  0  0  0  0  0  0  0
    5.2076   -0.2853    0.0108 H   0  0  0  0  0  0  0  0  0  0  0  0
   -0.5361    2.3295   -2.4453 H   0  0  0  0  0  0  0  0  0  0  0  0
   -0.3731    4.1985   -1.1027 H   0  0  0  0  0  0  0  0  0  0  0  0
    1.2879    3.8251   -0.6811 H   0  0  0  0  0  0  0  0  0  0  0  0
   -1.8344    1.6894   -0.4798 H   0  0  0  0  0  0  0  0  0  0  0  0
   -3.5941    0.3021   -0.1546 H   0  0  0  0  0  0  0  0  0  0  0  0
   -1.4302   -1.7266    0.8707 H   0  0  0  0  0  0  0  0  0  0  0  0
   -1.5877   -1.0918   -0.7874 H   0  0  0  0  0  0  0  0  0  0  0  0
   -3.1507   -3.3734    0.1021 H   0  0  0  0  0  0  0  0  0  0  0  0
   -3.7726   -2.2322   -1.1189 H   0  0  0  0  0  0  0  0  0  0  0  0
   -3.9614   -1.9232    1.9759 H   0  0  0  0  0  0  0  0  0  0  0  0
   -5.1488   -1.3666    0.7689 H   0  0  0  0  0  0  0  0  0  0  0  0
   -1.3513    1.2405    3.7716 H   0  0  0  0  0  0  0  0  0  0  0  0
    0.5923    2.7983    3.6216 H   0  0  0  0  0  0  0  0  0  0  0  0
  1  2  2  0
  2  3  1  0
  3  4  1  0
  4  5  2  0
  5  6  1  0
  6  7  2  0
  7  8  1  0
  8  9  1  0
  9 10  1  0
 10 11  2  0
 11 12  1  0
 12 13  1  0
 13 14  1  0
 14 15  1  0
 15 16  1  0
 16 17  1  0
 12 18  2  0
 18 19  1  0
 19 20  2  0
  7 21  1  0
  3 22  2  0
 22 23  1  0
 23  1  1  0
 21  4  1  0
 20 10  1  0
 17 14  1  0
  1 24  1  0
  2 25  1  0
  8 26  1  0
  9 27  1  0
  9 28  1  0
 11 29  1  0
 14 30  1  0
 15 31  1  0
 15 32  1  0
 16 33  1  0
 16 34  1  0
 17 35  1  0
 17 36  1  0
 18 37  1  0
 19 38  1  0
M  END
$$$$
OCNT-2312286
     RDKit          3D

 41 42  0  0  0  0  0  0  0  0999 V2000
    8.3635   -0.0552    0.6074 C   0  0  0  0  0  0  0  0  0  0  0  0
    6.9776    0.2430    0.4331 O   0  0  0  0  0  0  0  0  0  0  0  0
    6.2107   -0.8420    0.1612 C   0  0  0  0  0  0  0  0  0  0  0  0
    6.6086   -1.9922    0.0627 O   0  0  0  0  0  0  0  0  0  0  0  0
    4.7845   -0.4505   -0.0072 C   0  0  0  0  0  0  0  0  0  0  0  0
    4.3464    0.8726    0.1129 C   0  0  0  0  0  0  0  0  0  0  0  0
    2.9912    1.1829   -0.0557 C   0  0  0  0  0  0  0  0  0  0  0  0
    2.0500    0.1833   -0.3462 C   0  0  0  0  0  0  0  0  0  0  0  0
    0.6520    0.5436   -0.5139 C   0  0  0  0  0  0  0  0  0  0  0  0
   -0.4023   -0.2945   -0.8059 C   0  0  0  0  0  0  0  0  0  0  0  0
   -1.4821    0.5381   -0.8517 N   0  0  0  0  0  0  0  0  0  0  0  0
   -2.8654    0.1887   -1.1091 C   0  0  0  0  0  0  0  0  0  0  0  0
   -3.7571    0.3271    0.1466 C   0  0  0  0  0  0  0  0  0  0  0  0
   -4.1273    1.7321    0.3796 N   0  0  0  0  0  0  0  0  0  0  0  0
   -5.0200   -0.5725    0.0437 C   0  0  0  0  0  0  0  0  0  0  0  0
   -5.8175   -0.5936    1.3532 C   0  0  0  0  0  0  0  0  0  0  0  0
   -5.9454   -0.1959   -1.1188 C   0  0  0  0  0  0  0  0  0  0  0  0
   -1.1308    1.8121   -0.6089 N   0  0  0  0  0  0  0  0  0  0  0  0
    0.1775    1.8273   -0.3954 N   0  0  0  0  0  0  0  0  0  0  0  0
    2.4976   -1.1399   -0.4651 C   0  0  0  0  0  0  0  0  0  0  0  0
    3.8521   -1.4542   -0.2971 C   0  0  0  0  0  0  0  0  0  0  0  0
    8.8871    0.8809    0.8199 H   0  0  0  0  0  0  0  0  0  0  0  0
    8.5062   -0.7323    1.4555 H   0  0  0  0  0  0  0  0  0  0  0  0
    8.7812   -0.4857   -0.3081 H   0  0  0  0  0  0  0  0  0  0  0  0
    5.0430    1.6769    0.3368 H   0  0  0  0  0  0  0  0  0  0  0  0
    2.6761    2.2213    0.0424 H   0  0  0  0  0  0  0  0  0  0  0  0
   -0.4819   -1.3567   -0.9778 H   0  0  0  0  0  0  0  0  0  0  0  0
   -2.8651   -0.8474   -1.4681 H   0  0  0  0  0  0  0  0  0  0  0  0
   -3.2124    0.8226   -1.9340 H   0  0  0  0  0  0  0  0  0  0  0  0
   -3.1782   -0.0094    1.0175 H   0  0  0  0  0  0  0  0  0  0  0  0
   -4.5097    1.8423    1.3183 H   0  0  0  0  0  0  0  0  0  0  0  0
   -3.2785    2.3099    0.3609 H   0  0  0  0  0  0  0  0  0  0  0  0
   -4.6768   -1.6013   -0.1320 H   0  0  0  0  0  0  0  0  0  0  0  0
   -6.6195   -1.3382    1.3013 H   0  0  0  0  0  0  0  0  0  0  0  0
   -5.1731   -0.8594    2.1977 H   0  0  0  0  0  0  0  0  0  0  0  0
   -6.2803    0.3754    1.5660 H   0  0  0  0  0  0  0  0  0  0  0  0
   -6.7937   -0.8873   -1.1724 H   0  0  0  0  0  0  0  0  0  0  0  0
   -6.3492    0.8154   -1.0049 H   0  0  0  0  0  0  0  0  0  0  0  0
   -5.4222   -0.2490   -2.0784 H   0  0  0  0  0  0  0  0  0  0  0  0
    1.8079   -1.9491   -0.6896 H   0  0  0  0  0  0  0  0  0  0  0  0
    4.1753   -2.4894   -0.3945 H   0  0  0  0  0  0  0  0  0  0  0  0
  1  2  1  0
  2  3  1  0
  3  4  2  0
  3  5  1  0
  5  6  1  0
  6  7  2  0
  7  8  1  0
  8  9  1  0
  9 10  2  0
 10 11  1  0
 11 12  1  0
 12 13  1  0
 13 14  1  0
 13 15  1  0
 15 16  1  0
 15 17  1  0
 11 18  1  0
 18 19  2  0
  8 20  2  0
 20 21  1  0
 21  5  2  0
 19  9  1  0
  1 22  1  0
  1 23  1  0
  1 24  1  0
  6 25  1  0
  7 26  1  0
 10 27  1  0
 12 28  1  0
 12 29  1  0
 13 30  1  0
 14 31  1  0
 14 32  1  0
 15 33  1  0
 16 34  1  0
 16 35  1  0
 16 36  1  0
 17 37  1  0
 17 38  1  0
 17 39  1  0
 20 40  1  0
 21 41  1  0
M  END
$$$$
OCNT-2312293
     RDKit          3D

 40 43  0  0  0  0  0  0  0  0999 V2000
    0.4476   -3.2954    0.5916 O   0  0  0  0  0  0  0  0  0  0  0  0
    0.5414   -2.0798    0.3965 C   0  0  0  0  0  0  0  0  0  0  0  0
    1.7334   -1.4210    0.1660 N   0  0  0  0  0  0  0  0  0  0  0  0
    2.9910   -1.9988    0.1135 C   0  0  0  0  0  0  0  0  0  0  0  0
    3.3525   -3.3129    0.2692 C   0  0  0  0  0  0  0  0  0  0  0  0
    4.7077   -3.3549    0.1246 N   0  0  0  0  0  0  0  0  0  0  0  0
    5.2666   -2.1548   -0.1144 N   0  0  0  0  0  0  0  0  0  0  0  0
    4.2182   -1.3181   -0.1238 C   0  0  0  0  0  0  0  0  0  0  0  0
    4.3235    0.2416   -0.3697 C   0  0  0  0  0  0  0  0  0  0  0  0
    3.2421    1.0042   -0.3620 N   0  0  0  0  0  0  0  0  0  0  0  0
    3.6029    2.3147   -0.6080 C   0  0  0  0  0  0  0  0  0  0  0  0
    4.9501    2.5369   -0.7938 C   0  0  0  0  0  0  0  0  0  0  0  0
    5.8052    1.0568   -0.6600 S   0  0  0  0  0  0  0  0  0  0  0  0
   -0.7011   -1.1547    0.4007 C   0  0  2  0  0  0  0  0  0  0  0  0
   -0.9095   -0.1522   -0.7556 C   0  0  0  0  0  0  0  0  0  0  0  0
   -1.5039    0.8707    0.2796 C   0  0  1  0  0  0  0  0  0  0  0  0
   -0.9692    2.2070    0.1071 O   0  0  0  0  0  0  0  0  0  0  0  0
   -3.1135    0.9184    0.3507 C   0  0  0  0  0  0  0  0  0  0  0  0
   -3.8517    0.7026    1.5328 C   0  0  0  0  0  0  0  0  0  0  0  0
   -5.2501    0.7637    1.5607 C   0  0  0  0  0  0  0  0  0  0  0  0
   -5.9591    1.0549    0.4001 C   0  0  0  0  0  0  0  0  0  0  0  0
   -5.2650    1.2889   -0.7798 C   0  0  0  0  0  0  0  0  0  0  0  0
   -6.1275    1.6628   -2.2206 Cl  0  0  0  0  0  0  0  0  0  0  0  0
   -3.8701    1.2260   -0.8024 C   0  0  0  0  0  0  0  0  0  0  0  0
   -0.7256    0.0503    1.3661 C   0  0  0  0  0  0  0  0  0  0  0  0
    1.7298   -0.4122    0.0159 H   0  0  0  0  0  0  0  0  0  0  0  0
    2.7806   -4.2091    0.4651 H   0  0  0  0  0  0  0  0  0  0  0  0
    5.3141   -4.1671    0.1768 H   0  0  0  0  0  0  0  0  0  0  0  0
    2.8348    3.0787   -0.6420 H   0  0  0  0  0  0  0  0  0  0  0  0
    5.4589    3.4681   -0.9965 H   0  0  0  0  0  0  0  0  0  0  0  0
   -1.6072   -1.7677    0.5361 H   0  0  0  0  0  0  0  0  0  0  0  0
   -1.5898   -0.5035   -1.5378 H   0  0  0  0  0  0  0  0  0  0  0  0
    0.0045    0.2020   -1.2462 H   0  0  0  0  0  0  0  0  0  0  0  0
   -1.3818    2.7290    0.8173 H   0  0  0  0  0  0  0  0  0  0  0  0
   -3.3361    0.4821    2.4652 H   0  0  0  0  0  0  0  0  0  0  0  0
   -5.7827    0.5847    2.4919 H   0  0  0  0  0  0  0  0  0  0  0  0
   -7.0442    1.1020    0.4232 H   0  0  0  0  0  0  0  0  0  0  0  0
   -3.3440    1.4252   -1.7354 H   0  0  0  0  0  0  0  0  0  0  0  0
   -1.2323   -0.1399    2.3153 H   0  0  0  0  0  0  0  0  0  0  0  0
    0.2594    0.4710    1.6043 H   0  0  0  0  0  0  0  0  0  0  0  0
  1  2  2  0
  2  3  1  0
  3  4  1  0
  4  5  2  0
  5  6  1  0
  6  7  1  0
  7  8  2  0
  8  9  1  0
  9 10  2  0
 10 11  1  0
 11 12  2  0
 12 13  1  0
  2 14  1  0
 14 15  1  0
 15 16  1  0
 16 17  1  6
 16 18  1  0
 18 19  2  0
 19 20  1  0
 20 21  2  0
 21 22  1  0
 22 23  1  0
 22 24  2  0
 16 25  1  0
  8  4  1  0
 13  9  1  0
 25 14  1  0
 24 18  1  0
  3 26  1  0
  5 27  1  0
  6 28  1  0
 11 29  1  0
 12 30  1  0
 14 31  1  1
 15 32  1  0
 15 33  1  0
 17 34  1  0
 19 35  1  0
 20 36  1  0
 21 37  1  0
 24 38  1  0
 25 39  1  0
 25 40  1  0
M  END
$$$$
OCNT-2312302
     RDKit          3D

 60 64  0  0  0  0  0  0  0  0999 V2000
   -5.1859   -1.4845   -1.8135 O   0  0  0  0  0  0  0  0  0  0  0  0
   -5.1473   -0.7952   -0.8031 C   0  0  0  0  0  0  0  0  0  0  0  0
   -6.1166   -0.8715    0.1778 N   0  0  0  0  0  0  0  0  0  0  0  0
   -7.1905   -1.8314    0.0450 C   0  0  0  0  0  0  0  0  0  0  0  0
   -8.2888   -1.5219    1.0252 C   0  0  0  0  0  0  0  0  0  0  0  0
   -9.2008   -0.4977    0.7571 C   0  0  0  0  0  0  0  0  0  0  0  0
  -10.1800   -0.2164    1.6970 C   0  0  0  0  0  0  0  0  0  0  0  0
  -10.3048   -0.8723    2.8717 N   0  0  0  0  0  0  0  0  0  0  0  0
   -9.4133   -1.8564    3.1125 C   0  0  0  0  0  0  0  0  0  0  0  0
   -8.3998   -2.2128    2.2365 C   0  0  0  0  0  0  0  0  0  0  0  0
   -4.2032    0.1534   -0.4771 N   0  0  0  0  0  0  0  0  0  0  0  0
   -3.0628    0.5276   -1.2169 C   0  0  0  0  0  0  0  0  0  0  0  0
   -2.6668   -0.0922   -2.4019 C   0  0  0  0  0  0  0  0  0  0  0  0
   -1.5276    0.3452   -3.0835 C   0  0  0  0  0  0  0  0  0  0  0  0
   -0.7715    1.4033   -2.5841 C   0  0  0  0  0  0  0  0  0  0  0  0
   -1.1437    2.0349   -1.3908 C   0  0  0  0  0  0  0  0  0  0  0  0
   -0.3094    3.1628   -0.8380 C   0  0  0  0  0  0  0  0  0  0  0  0
    0.9429    2.6630   -0.3123 N   0  0  0  0  0  0  0  0  0  0  0  0
    2.1177    2.7925   -1.0228 C   0  0  0  0  0  0  0  0  0  0  0  0
    2.2164    3.4227   -2.0696 O   0  0  0  0  0  0  0  0  0  0  0  0
    3.2981    2.0630   -0.4800 C   0  0  0  0  0  0  0  0  0  0  0  0
    4.2863    1.6376   -1.3743 C   0  0  0  0  0  0  0  0  0  0  0  0
    5.4024    0.9293   -0.9146 C   0  0  0  0  0  0  0  0  0  0  0  0
    5.5451    0.6426    0.4482 C   0  0  0  0  0  0  0  0  0  0  0  0
    6.6730   -0.0838    0.9279 N   0  0  0  0  0  0  0  0  0  0  0  0
    7.2047    0.0250    2.1959 C   0  0  0  0  0  0  0  0  0  0  0  0
    8.2802   -0.7042    2.3679 N   0  0  0  0  0  0  0  0  0  0  0  0
    8.4508   -1.3594    1.1811 C   0  0  0  0  0  0  0  0  0  0  0  0
    9.4413   -2.2905    0.8328 C   0  0  0  0  0  0  0  0  0  0  0  0
    9.3984   -2.8906   -0.4276 C   0  0  0  0  0  0  0  0  0  0  0  0
    8.3778   -2.5829   -1.3208 C   0  0  0  0  0  0  0  0  0  0  0  0
    7.3845   -1.6528   -0.9933 C   0  0  0  0  0  0  0  0  0  0  0  0
    7.4569   -1.0212    0.2611 C   0  0  0  0  0  0  0  0  0  0  0  0
    4.5752    1.1105    1.3502 C   0  0  0  0  0  0  0  0  0  0  0  0
    3.4560    1.8153    0.8871 C   0  0  0  0  0  0  0  0  0  0  0  0
   -2.2916    1.5873   -0.7151 C   0  0  0  0  0  0  0  0  0  0  0  0
   -5.8107   -0.6770    1.1196 H   0  0  0  0  0  0  0  0  0  0  0  0
   -6.7766   -2.8337    0.2175 H   0  0  0  0  0  0  0  0  0  0  0  0
   -7.5799   -1.8156   -0.9804 H   0  0  0  0  0  0  0  0  0  0  0  0
   -9.1484    0.0717   -0.1661 H   0  0  0  0  0  0  0  0  0  0  0  0
  -10.9104    0.5702    1.5271 H   0  0  0  0  0  0  0  0  0  0  0  0
   -9.5394   -2.3665    4.0641 H   0  0  0  0  0  0  0  0  0  0  0  0
   -7.7152   -3.0130    2.4974 H   0  0  0  0  0  0  0  0  0  0  0  0
   -4.4223    0.7205    0.3278 H   0  0  0  0  0  0  0  0  0  0  0  0
   -3.2262   -0.9187   -2.8301 H   0  0  0  0  0  0  0  0  0  0  0  0
   -1.2361   -0.1427   -4.0100 H   0  0  0  0  0  0  0  0  0  0  0  0
    0.1125    1.7353   -3.1275 H   0  0  0  0  0  0  0  0  0  0  0  0
   -0.8285    3.6513   -0.0063 H   0  0  0  0  0  0  0  0  0  0  0  0
   -0.1432    3.9220   -1.6103 H   0  0  0  0  0  0  0  0  0  0  0  0
    0.8784    1.9321    0.3800 H   0  0  0  0  0  0  0  0  0  0  0  0
    4.1947    1.8640   -2.4372 H   0  0  0  0  0  0  0  0  0  0  0  0
    6.1660    0.6698   -1.6423 H   0  0  0  0  0  0  0  0  0  0  0  0
    6.7974    0.6871    2.9464 H   0  0  0  0  0  0  0  0  0  0  0  0
   10.2163   -2.5451    1.5461 H   0  0  0  0  0  0  0  0  0  0  0  0
   10.1583   -3.6161   -0.7020 H   0  0  0  0  0  0  0  0  0  0  0  0
    8.3444   -3.0822   -2.2874 H   0  0  0  0  0  0  0  0  0  0  0  0
    6.5796   -1.4648   -1.6939 H   0  0  0  0  0  0  0  0  0  0  0  0
    4.6408    0.9157    2.4178 H   0  0  0  0  0  0  0  0  0  0  0  0
    2.7296    2.1789    1.6095 H   0  0  0  0  0  0  0  0  0  0  0  0
   -2.5844    2.0782    0.2102 H   0  0  0  0  0  0  0  0  0  0  0  0
  1  2  2  0
  2  3  1  0
  3  4  1  0
  4  5  1  0
  5  6  2  0
  6  7  1  0
  7  8  2  0
  8  9  1  0
  9 10  2  0
  2 11  1  0
 11 12  1  0
 12 13  1  0
 13 14  2  0
 14 15  1  0
 15 16  2  0
 16 17  1  0
 17 18  1  0
 18 19  1  0
 19 20  2  0
 19 21  1  0
 21 22  1  0
 22 23  2  0
 23 24  1  0
 24 25  1  0
 25 26  1  0
 26 27  2  0
 27 28  1  0
 28 29  2  0
 29 30  1  0
 30 31  2  0
 31 32  1  0
 32 33  2  0
 24 34  2  0
 34 35  1  0
 16 36  1  0
 10  5  1  0
 36 12  2  0
 35 21  2  0
 33 25  1  0
 33 28  1  0
  3 37  1  0
  4 38  1  0
  4 39  1  0
  6 40  1  0
  7 41  1  0
  9 42  1  0
 10 43  1  0
 11 44  1  0
 13 45  1  0
 14 46  1  0
 15 47  1  0
 17 48  1  0
 17 49  1  0
 18 50  1  0
 22 51  1  0
 23 52  1  0
 26 53  1  0
 29 54  1  0
 30 55  1  0
 31 56  1  0
 32 57  1  0
 34 58  1  0
 35 59  1  0
 36 60  1  0
M  END
$$$$
OCNT-2312303
     RDKit          3D

 42 44  0  0  0  0  0  0  0  0999 V2000
   -5.5422    2.1230    0.9487 C   0  0  0  0  0  0  0  0  0  0  0  0
   -4.9473    0.8247    0.6694 N   0  0  0  0  0  0  0  0  0  0  0  0
   -5.7859   -0.2871    0.6095 C   0  0  0  0  0  0  0  0  0  0  0  0
   -6.9953   -0.2446    0.8404 O   0  0  0  0  0  0  0  0  0  0  0  0
   -5.1551   -1.5719    0.1269 C   0  0  0  0  0  0  0  0  0  0  0  0
   -3.7763   -1.7620    0.7170 C   0  0  0  0  0  0  0  0  0  0  0  0
   -2.9376   -0.5447    0.4557 C   0  0  0  0  0  0  0  0  0  0  0  0
   -1.5452   -0.6722    0.2924 C   0  0  0  0  0  0  0  0  0  0  0  0
   -0.7281    0.4441    0.0954 C   0  0  0  0  0  0  0  0  0  0  0  0
    0.6630    0.3802   -0.0103 N   0  0  0  0  0  0  0  0  0  0  0  0
    1.2997   -0.8593   -0.4342 C   0  0  0  0  0  0  0  0  0  0  0  0
    2.7795   -0.6158   -0.6223 C   0  0  0  0  0  0  0  0  0  0  0  0
    3.6130   -0.4288    0.4896 C   0  0  0  0  0  0  0  0  0  0  0  0
    4.9828   -0.1942    0.3284 C   0  0  0  0  0  0  0  0  0  0  0  0
    5.5356   -0.1307   -0.9507 C   0  0  0  0  0  0  0  0  0  0  0  0
    6.8512    0.0883   -1.2484 O   0  0  0  0  0  0  0  0  0  0  0  0
    7.6559    0.6073   -0.2037 C   0  0  0  0  0  0  0  0  0  0  0  0
    7.9116   -0.3758    0.6944 F   0  0  0  0  0  0  0  0  0  0  0  0
    8.8502    0.9544   -0.7478 F   0  0  0  0  0  0  0  0  0  0  0  0
    4.7095   -0.3218   -2.0613 C   0  0  0  0  0  0  0  0  0  0  0  0
    3.3413   -0.5556   -1.9027 C   0  0  0  0  0  0  0  0  0  0  0  0
   -1.3358    1.7029    0.1550 C   0  0  0  0  0  0  0  0  0  0  0  0
   -2.7183    1.8442    0.3332 C   0  0  0  0  0  0  0  0  0  0  0  0
   -3.5377    0.7212    0.4735 C   0  0  0  0  0  0  0  0  0  0  0  0
   -6.6039    2.0409    1.1976 H   0  0  0  0  0  0  0  0  0  0  0  0
   -5.4533    2.7580    0.0617 H   0  0  0  0  0  0  0  0  0  0  0  0
   -5.0338    2.5852    1.8010 H   0  0  0  0  0  0  0  0  0  0  0  0
   -5.1180   -1.5363   -0.9686 H   0  0  0  0  0  0  0  0  0  0  0  0
   -5.7962   -2.4121    0.4157 H   0  0  0  0  0  0  0  0  0  0  0  0
   -3.8379   -1.9178    1.8010 H   0  0  0  0  0  0  0  0  0  0  0  0
   -3.3159   -2.6530    0.2749 H   0  0  0  0  0  0  0  0  0  0  0  0
   -1.1127   -1.6678    0.3338 H   0  0  0  0  0  0  0  0  0  0  0  0
    1.0472    1.1910   -0.4898 H   0  0  0  0  0  0  0  0  0  0  0  0
    1.1715   -1.6469    0.3183 H   0  0  0  0  0  0  0  0  0  0  0  0
    0.8598   -1.2183   -1.3730 H   0  0  0  0  0  0  0  0  0  0  0  0
    3.1914   -0.4673    1.4932 H   0  0  0  0  0  0  0  0  0  0  0  0
    5.5849   -0.0858    1.2256 H   0  0  0  0  0  0  0  0  0  0  0  0
    7.2239    1.4860    0.2880 H   0  0  0  0  0  0  0  0  0  0  0  0
    5.1342   -0.2848   -3.0623 H   0  0  0  0  0  0  0  0  0  0  0  0
    2.7218   -0.6924   -2.7864 H   0  0  0  0  0  0  0  0  0  0  0  0
   -0.7301    2.6021    0.0664 H   0  0  0  0  0  0  0  0  0  0  0  0
   -3.1215    2.8516    0.3551 H   0  0  0  0  0  0  0  0  0  0  0  0
  1  2  1  0
  2  3  1  0
  3  4  2  0
  3  5  1  0
  5  6  1  0
  6  7  1  0
  7  8  1  0
  8  9  2  0
  9 10  1  0
 10 11  1  0
 11 12  1  0
 12 13  1  0
 13 14  2  0
 14 15  1  0
 15 16  1  0
 16 17  1  0
 17 18  1  0
 17 19  1  0
 15 20  2  0
 20 21  1  0
  9 22  1  0
 22 23  2  0
 23 24  1  0
 24  2  1  0
 24  7  2  0
 21 12  2  0
  1 25  1  0
  1 26  1  0
  1 27  1  0
  5 28  1  0
  5 29  1  0
  6 30  1  0
  6 31  1  0
  8 32  1  0
 10 33  1  0
 11 34  1  0
 11 35  1  0
 13 36  1  0
 14 37  1  0
 17 38  1  0
 20 39  1  0
 21 40  1  0
 22 41  1  0
 23 42  1  0
M  END
$$$$
OCNT-2312312
     RDKit          3D

 47 50  0  0  0  0  0  0  0  0999 V2000
    4.1468    0.7882    2.7651 N   0  0  0  0  0  0  0  0  0  0  0  0
    3.4336    1.4547    1.7993 C   0  0  0  0  0  0  0  0  0  0  0  0
    3.3922    2.6813    1.8219 O   0  0  0  0  0  0  0  0  0  0  0  0
    2.7707    0.5610    0.7257 C   0  0  0  0  0  0  0  0  0  0  0  0
    3.8613   -0.1143   -0.1302 C   0  0  0  0  0  0  0  0  0  0  0  0
    4.8868    0.6829   -0.6814 C   0  0  0  0  0  0  0  0  0  0  0  0
    5.8988    0.1260   -1.4666 C   0  0  0  0  0  0  0  0  0  0  0  0
    5.9034   -1.2407   -1.7269 C   0  0  0  0  0  0  0  0  0  0  0  0
    4.8938   -2.0453   -1.2069 C   0  0  0  0  0  0  0  0  0  0  0  0
    3.8761   -1.4873   -0.4230 C   0  0  0  0  0  0  0  0  0  0  0  0
    1.7676   -0.3761    1.4458 C   0  0  0  0  0  0  0  0  0  0  0  0
    0.5324   -0.3745    0.5614 C   0  0  0  0  0  0  0  0  0  0  0  0
    0.4656    1.0317    0.1643 N   0  0  0  0  0  0  0  0  0  0  0  0
   -0.4834    1.2813   -0.9265 C   0  0  0  0  0  0  0  0  0  0  0  0
   -1.8846    1.1525   -0.4317 C   0  0  0  0  0  0  0  0  0  0  0  0
   -2.5317    1.8891    0.5344 C   0  0  0  0  0  0  0  0  0  0  0  0
   -3.8022    1.4177    0.6510 O   0  0  0  0  0  0  0  0  0  0  0  0
   -3.8724    0.4016   -0.2674 C   0  0  0  0  0  0  0  0  0  0  0  0
   -5.1516   -0.2961   -0.3805 C   0  0  0  0  0  0  0  0  0  0  0  0
   -5.2881   -1.3510   -1.2986 C   0  0  0  0  0  0  0  0  0  0  0  0
   -6.5011   -2.0345   -1.4309 C   0  0  0  0  0  0  0  0  0  0  0  0
   -7.5902   -1.6679   -0.6450 C   0  0  0  0  0  0  0  0  0  0  0  0
   -9.0832   -2.5071   -0.8052 Cl  0  0  0  0  0  0  0  0  0  0  0  0
   -7.4775   -0.6222    0.2697 C   0  0  0  0  0  0  0  0  0  0  0  0
   -6.2629    0.0595    0.4015 C   0  0  0  0  0  0  0  0  0  0  0  0
   -2.7514    0.2026   -0.9368 N   0  0  0  0  0  0  0  0  0  0  0  0
    1.8467    1.3859   -0.2157 C   0  0  0  0  0  0  0  0  0  0  0  0
    4.6964    1.3849    3.3690 H   0  0  0  0  0  0  0  0  0  0  0  0
    4.5464   -0.1163    2.5423 H   0  0  0  0  0  0  0  0  0  0  0  0
    4.9103    1.7582   -0.5017 H   0  0  0  0  0  0  0  0  0  0  0  0
    6.6797    0.7615   -1.8774 H   0  0  0  0  0  0  0  0  0  0  0  0
    6.6924   -1.6775   -2.3359 H   0  0  0  0  0  0  0  0  0  0  0  0
    4.8936   -3.1147   -1.4176 H   0  0  0  0  0  0  0  0  0  0  0  0
    3.1007   -2.1599   -0.0652 H   0  0  0  0  0  0  0  0  0  0  0  0
    2.1369   -1.3852    1.6443 H   0  0  0  0  0  0  0  0  0  0  0  0
    1.4863    0.0360    2.4268 H   0  0  0  0  0  0  0  0  0  0  0  0
   -0.3535   -0.6973    1.1197 H   0  0  0  0  0  0  0  0  0  0  0  0
    0.6716   -1.0431   -0.2981 H   0  0  0  0  0  0  0  0  0  0  0  0
   -0.3554    2.3055   -1.3014 H   0  0  0  0  0  0  0  0  0  0  0  0
   -0.3121    0.6035   -1.7731 H   0  0  0  0  0  0  0  0  0  0  0  0
   -2.2510    2.7075    1.1815 H   0  0  0  0  0  0  0  0  0  0  0  0
   -4.4412   -1.6440   -1.9190 H   0  0  0  0  0  0  0  0  0  0  0  0
   -6.5863   -2.8452   -2.1497 H   0  0  0  0  0  0  0  0  0  0  0  0
   -8.3267   -0.3319    0.8828 H   0  0  0  0  0  0  0  0  0  0  0  0
   -6.1941    0.8750    1.1205 H   0  0  0  0  0  0  0  0  0  0  0  0
    1.9889    2.4688   -0.1342 H   0  0  0  0  0  0  0  0  0  0  0  0
    2.0217    1.1151   -1.2671 H   0  0  0  0  0  0  0  0  0  0  0  0
  1  2  1  0
  2  3  2  0
  2  4  1  0
  4  5  1  0
  5  6  2  0
  6  7  1  0
  7  8  2  0
  8  9  1  0
  9 10  2  0
  4 11  1  0
 11 12  1  0
 12 13  1  0
 13 14  1  0
 14 15  1  0
 15 16  2  0
 16 17  1  0
 17 18  1  0
 18 19  1  0
 19 20  1  0
 20 21  2  0
 21 22  1  0
 22 23  1  0
 22 24  2  0
 24 25  1  0
 18 26  2  0
 13 27  1  0
 27  4  1  0
 10  5  1  0
 26 15  1  0
 25 19  2  0
  1 28  1  0
  1 29  1  0
  6 30  1  0
  7 31  1  0
  8 32  1  0
  9 33  1  0
 10 34  1  0
 11 35  1  0
 11 36  1  0
 12 37  1  0
 12 38  1  0
 14 39  1  0
 14 40  1  0
 16 41  1  0
 20 42  1  0
 21 43  1  0
 24 44  1  0
 25 45  1  0
 27 46  1  0
 27 47  1  0
M  END
$$$$
OCNT-2312315
     RDKit          3D

 35 38  0  0  0  0  0  0  0  0999 V2000
   -1.4815   -2.7325    1.8061 O   0  0  0  0  0  0  0  0  0  0  0  0
   -0.6580   -1.5989    1.4354 S   0  0  0  0  0  0  0  0  0  0  0  0
   -0.0441   -0.7361    2.4211 O   0  0  0  0  0  0  0  0  0  0  0  0
    0.5935   -2.2792    0.5308 N   0  0  0  0  0  0  0  0  0  0  0  0
    1.7889   -1.5943    0.1573 C   0  0  0  0  0  0  0  0  0  0  0  0
    2.8337   -2.3910   -0.3355 C   0  0  0  0  0  0  0  0  0  0  0  0
    4.0302   -1.8364   -0.8092 C   0  0  0  0  0  0  0  0  0  0  0  0
    4.1185   -0.4496   -0.7831 C   0  0  0  0  0  0  0  0  0  0  0  0
    5.1870    0.2847   -1.1977 O   0  0  0  0  0  0  0  0  0  0  0  0
    4.8665    1.5911   -1.0056 C   0  0  0  0  0  0  0  0  0  0  0  0
    3.6016    1.7072   -0.4763 C   0  0  0  0  0  0  0  0  0  0  0  0
    3.1062    0.3845   -0.3274 C   0  0  0  0  0  0  0  0  0  0  0  0
    1.9106   -0.1962    0.1406 C   0  0  0  0  0  0  0  0  0  0  0  0
   -1.5885   -0.6497    0.2641 C   0  0  0  0  0  0  0  0  0  0  0  0
   -1.4298   -0.8900   -1.1122 C   0  0  0  0  0  0  0  0  0  0  0  0
   -2.1406   -0.1326   -2.0337 C   0  0  0  0  0  0  0  0  0  0  0  0
   -3.0109    0.8516   -1.5803 C   0  0  0  0  0  0  0  0  0  0  0  0
   -3.1832    1.0759   -0.2036 C   0  0  0  0  0  0  0  0  0  0  0  0
   -4.0756    2.0594    0.2453 C   0  0  0  0  0  0  0  0  0  0  0  0
   -4.2534    2.2706    1.6050 C   0  0  0  0  0  0  0  0  0  0  0  0
   -3.5302    1.4842    2.4743 C   0  0  0  0  0  0  0  0  0  0  0  0
   -2.6633    0.5299    2.0736 N   0  0  0  0  0  0  0  0  0  0  0  0
   -2.4701    0.3165    0.7538 C   0  0  0  0  0  0  0  0  0  0  0  0
    0.6168   -3.2926    0.6341 H   0  0  0  0  0  0  0  0  0  0  0  0
    2.7324   -3.4742   -0.3551 H   0  0  0  0  0  0  0  0  0  0  0  0
    4.8436   -2.4477   -1.1803 H   0  0  0  0  0  0  0  0  0  0  0  0
    5.6286    2.3041   -1.2882 H   0  0  0  0  0  0  0  0  0  0  0  0
    3.0987    2.6299   -0.2240 H   0  0  0  0  0  0  0  0  0  0  0  0
    1.1232    0.4599    0.4921 H   0  0  0  0  0  0  0  0  0  0  0  0
   -0.7615   -1.6649   -1.4774 H   0  0  0  0  0  0  0  0  0  0  0  0
   -2.0202   -0.3092   -3.0998 H   0  0  0  0  0  0  0  0  0  0  0  0
   -3.5653    1.4401   -2.3090 H   0  0  0  0  0  0  0  0  0  0  0  0
   -4.6396    2.6635   -0.4614 H   0  0  0  0  0  0  0  0  0  0  0  0
   -4.9388    3.0244    1.9745 H   0  0  0  0  0  0  0  0  0  0  0  0
   -3.6255    1.5974    3.5506 H   0  0  0  0  0  0  0  0  0  0  0  0
  1  2  2  0
  2  3  2  0
  2  4  1  0
  4  5  1  0
  5  6  2  0
  6  7  1  0
  7  8  2  0
  8  9  1  0
  9 10  1  0
 10 11  2  0
 11 12  1  0
 12 13  2  0
  2 14  1  0
 14 15  1  0
 15 16  2  0
 16 17  1  0
 17 18  2  0
 18 19  1  0
 19 20  2  0
 20 21  1  0
 21 22  2  0
 22 23  1  0
 13  5  1  0
 23 14  2  0
 12  8  1  0
 23 18  1  0
  4 24  1  0
  6 25  1  0
  7 26  1  0
 10 27  1  0
 11 28  1  0
 13 29  1  0
 15 30  1  0
 16 31  1  0
 17 32  1  0
 19 33  1  0
 20 34  1  0
 21 35  1  0
M  END
$$$$
OCNT-2312337
     RDKit          3D

 38 40  0  0  0  0  0  0  0  0999 V2000
   -1.8289   -1.1957   -1.6406 O   0  0  0  0  0  0  0  0  0  0  0  0
   -1.9721   -1.1603   -0.4187 C   0  0  0  0  0  0  0  0  0  0  0  0
   -1.0108   -0.6176    0.4295 N   0  0  0  0  0  0  0  0  0  0  0  0
    0.2901   -0.2172   -0.0791 C   0  0  0  0  0  0  0  0  0  0  0  0
    1.0145    0.7198    0.8871 C   0  0  0  0  0  0  0  0  0  0  0  0
    2.3691    1.1133    0.3928 C   0  0  0  0  0  0  0  0  0  0  0  0
    2.6793    2.2583   -0.3152 C   0  0  0  0  0  0  0  0  0  0  0  0
    4.0205    2.2484   -0.5851 N   0  0  0  0  0  0  0  0  0  0  0  0
    4.6025    1.1155   -0.0652 C   0  0  0  0  0  0  0  0  0  0  0  0
    5.9326    0.6808   -0.0936 C   0  0  0  0  0  0  0  0  0  0  0  0
    7.1562    1.6078   -0.8657 Cl  0  0  0  0  0  0  0  0  0  0  0  0
    6.2470   -0.5316    0.5237 C   0  0  0  0  0  0  0  0  0  0  0  0
    5.2572   -1.2853    1.1506 C   0  0  0  0  0  0  0  0  0  0  0  0
    3.9291   -0.8407    1.1736 C   0  0  0  0  0  0  0  0  0  0  0  0
    3.5902    0.3821    0.5559 C   0  0  0  0  0  0  0  0  0  0  0  0
   -3.2346   -1.7043    0.3145 C   0  0  0  0  0  0  0  0  0  0  0  0
   -2.9969   -1.7243    1.6719 F   0  0  0  0  0  0  0  0  0  0  0  0
   -3.4313   -3.0223   -0.0054 F   0  0  0  0  0  0  0  0  0  0  0  0
   -4.4431   -0.8668   -0.0205 C   0  0  0  0  0  0  0  0  0  0  0  0
   -5.0735   -1.0064   -1.2518 C   0  0  0  0  0  0  0  0  0  0  0  0
   -6.1575   -0.2908   -1.6302 N   0  0  0  0  0  0  0  0  0  0  0  0
   -6.6366    0.6088   -0.7454 C   0  0  0  0  0  0  0  0  0  0  0  0
   -6.0813    0.8270    0.5038 C   0  0  0  0  0  0  0  0  0  0  0  0
   -4.9672    0.0771    0.8698 C   0  0  0  0  0  0  0  0  0  0  0  0
   -1.0864   -0.8831    1.4078 H   0  0  0  0  0  0  0  0  0  0  0  0
    0.1585    0.2634   -1.0559 H   0  0  0  0  0  0  0  0  0  0  0  0
    0.8680   -1.1343   -0.2434 H   0  0  0  0  0  0  0  0  0  0  0  0
    1.1083    0.2402    1.8697 H   0  0  0  0  0  0  0  0  0  0  0  0
    0.4059    1.6189    1.0495 H   0  0  0  0  0  0  0  0  0  0  0  0
    2.0581    3.0781   -0.6524 H   0  0  0  0  0  0  0  0  0  0  0  0
    4.5253    2.9623   -1.0940 H   0  0  0  0  0  0  0  0  0  0  0  0
    7.2719   -0.8944    0.5167 H   0  0  0  0  0  0  0  0  0  0  0  0
    5.5165   -2.2281    1.6266 H   0  0  0  0  0  0  0  0  0  0  0  0
    3.1683   -1.4394    1.6661 H   0  0  0  0  0  0  0  0  0  0  0  0
   -4.7164   -1.7167   -1.9955 H   0  0  0  0  0  0  0  0  0  0  0  0
   -7.5069    1.1672   -1.0783 H   0  0  0  0  0  0  0  0  0  0  0  0
   -6.5085    1.5625    1.1765 H   0  0  0  0  0  0  0  0  0  0  0  0
   -4.5173    0.2276    1.8487 H   0  0  0  0  0  0  0  0  0  0  0  0
  1  2  2  0
  2  3  1  0
  3  4  1  0
  4  5  1  0
  5  6  1  0
  6  7  2  0
  7  8  1  0
  8  9  1  0
  9 10  2  0
 10 11  1  0
 10 12  1  0
 12 13  2  0
 13 14  1  0
 14 15  2  0
  2 16  1  0
 16 17  1  0
 16 18  1  0
 16 19  1  0
 19 20  2  0
 20 21  1  0
 21 22  2  0
 22 23  1  0
 23 24  2  0
 15  6  1  0
 24 19  1  0
 15  9  1  0
  3 25  1  0
  4 26  1  0
  4 27  1  0
  5 28  1  0
  5 29  1  0
  7 30  1  0
  8 31  1  0
 12 32  1  0
 13 33  1  0
 14 34  1  0
 20 35  1  0
 22 36  1  0
 23 37  1  0
 24 38  1  0
M  END
$$$$
OCNT-2312338
     RDKit          3D

 54 57  0  0  0  0  0  0  0  0999 V2000
    0.8867   -0.5452   -1.7617 O   0  0  0  0  0  0  0  0  0  0  0  0
    0.4461    0.3541   -1.0521 C   0  0  0  0  0  0  0  0  0  0  0  0
    1.2601    1.1640   -0.2994 N   0  0  0  0  0  0  0  0  0  0  0  0
    2.7078    1.0190   -0.3402 C   0  0  0  0  0  0  0  0  0  0  0  0
    3.2615    0.1648    0.8208 C   0  0  0  0  0  0  0  0  0  0  0  0
    2.8365   -1.3058    0.7709 C   0  0  0  0  0  0  0  0  0  0  0  0
    3.6045   -2.0279   -0.3237 C   0  0  0  0  0  0  0  0  0  0  0  0
    5.0151   -2.0284   -0.0844 O   0  0  0  0  0  0  0  0  0  0  0  0
    5.5406   -0.8502    0.3723 C   0  0  0  0  0  0  0  0  0  0  0  0
    6.9346   -0.7833    0.3972 C   0  0  0  0  0  0  0  0  0  0  0  0
    7.5766    0.3602    0.8707 C   0  0  0  0  0  0  0  0  0  0  0  0
    6.8237    1.4380    1.3298 C   0  0  0  0  0  0  0  0  0  0  0  0
    5.4297    1.3720    1.3147 C   0  0  0  0  0  0  0  0  0  0  0  0
    4.7738    0.2265    0.8344 C   0  0  0  0  0  0  0  0  0  0  0  0
   -0.9132    0.6450   -0.9388 N   0  0  0  0  0  0  0  0  0  0  0  0
   -1.8053   -0.1979   -1.7330 C   0  0  0  0  0  0  0  0  0  0  0  0
   -3.1672    0.4516   -1.9608 C   0  0  0  0  0  0  0  0  0  0  0  0
   -3.8335    0.8997   -0.6492 C   0  0  0  0  0  0  0  0  0  0  0  0
   -4.3177   -0.2825    0.2200 C   0  0  0  0  0  0  0  0  0  0  0  0
   -5.3035   -1.2142   -0.4804 C   0  0  0  0  0  0  0  0  0  0  0  0
   -6.0134   -1.8729    0.6841 C   0  0  0  0  0  0  0  0  0  0  0  0
   -6.2190   -0.7686    1.6153 N   0  0  0  0  0  0  0  0  0  0  0  0
   -5.0784    0.1406    1.4850 C   0  0  0  0  0  0  0  0  0  0  0  0
   -2.8481    1.8189    0.0943 C   0  0  0  0  0  0  0  0  0  0  0  0
   -1.4804    1.1723    0.3056 C   0  0  0  0  0  0  0  0  0  0  0  0
    0.9235    2.1136   -0.2443 H   0  0  0  0  0  0  0  0  0  0  0  0
    3.0181    0.6344   -1.3180 H   0  0  0  0  0  0  0  0  0  0  0  0
    3.1057    2.0389   -0.2705 H   0  0  0  0  0  0  0  0  0  0  0  0
    2.8855    0.5784    1.7669 H   0  0  0  0  0  0  0  0  0  0  0  0
    3.0778   -1.7744    1.7350 H   0  0  0  0  0  0  0  0  0  0  0  0
    1.7575   -1.4143    0.6320 H   0  0  0  0  0  0  0  0  0  0  0  0
    3.4158   -1.6088   -1.3176 H   0  0  0  0  0  0  0  0  0  0  0  0
    3.2872   -3.0758   -0.3561 H   0  0  0  0  0  0  0  0  0  0  0  0
    7.5205   -1.6285    0.0459 H   0  0  0  0  0  0  0  0  0  0  0  0
    8.6621    0.4059    0.8850 H   0  0  0  0  0  0  0  0  0  0  0  0
    7.3225    2.3283    1.7040 H   0  0  0  0  0  0  0  0  0  0  0  0
    4.8569    2.2188    1.6858 H   0  0  0  0  0  0  0  0  0  0  0  0
   -1.9069   -1.1599   -1.2170 H   0  0  0  0  0  0  0  0  0  0  0  0
   -1.3447   -0.4031   -2.7066 H   0  0  0  0  0  0  0  0  0  0  0  0
   -3.8153   -0.2294   -2.5224 H   0  0  0  0  0  0  0  0  0  0  0  0
   -3.0288    1.3357   -2.5978 H   0  0  0  0  0  0  0  0  0  0  0  0
   -4.7142    1.5005   -0.9145 H   0  0  0  0  0  0  0  0  0  0  0  0
   -3.4599   -0.8914    0.5351 H   0  0  0  0  0  0  0  0  0  0  0  0
   -4.8018   -1.9486   -1.1179 H   0  0  0  0  0  0  0  0  0  0  0  0
   -6.0147   -0.6483   -1.0949 H   0  0  0  0  0  0  0  0  0  0  0  0
   -6.9608   -2.3298    0.3853 H   0  0  0  0  0  0  0  0  0  0  0  0
   -5.3802   -2.6430    1.1401 H   0  0  0  0  0  0  0  0  0  0  0  0
   -6.3155   -1.1081    2.5706 H   0  0  0  0  0  0  0  0  0  0  0  0
   -5.4541    1.1669    1.4221 H   0  0  0  0  0  0  0  0  0  0  0  0
   -4.4244    0.0730    2.3616 H   0  0  0  0  0  0  0  0  0  0  0  0
   -3.2570    2.1392    1.0585 H   0  0  0  0  0  0  0  0  0  0  0  0
   -2.7118    2.7322   -0.5004 H   0  0  0  0  0  0  0  0  0  0  0  0
   -0.8142    1.9102    0.7606 H   0  0  0  0  0  0  0  0  0  0  0  0
   -1.5460    0.3373    1.0131 H   0  0  0  0  0  0  0  0  0  0  0  0
  1  2  2  0
  2  3  1  0
  3  4  1  0
  4  5  1  0
  5  6  1  0
  6  7  1  0
  7  8  1  0
  8  9  1  0
  9 10  2  0
 10 11  1  0
 11 12  2  0
 12 13  1  0
 13 14  2  0
  2 15  1  0
 15 16  1  0
 16 17  1  0
 17 18  1  0
 18 19  1  0
 19 20  1  0
 20 21  1  0
 21 22  1  0
 22 23  1  0
 18 24  1  0
 24 25  1  0
 14  5  1  0
 25 15  1  0
 14  9  1  0
 23 19  1  0
  3 26  1  0
  4 27  1  0
  4 28  1  0
  5 29  1  0
  6 30  1  0
  6 31  1  0
  7 32  1  0
  7 33  1  0
 10 34  1  0
 11 35  1  0
 12 36  1  0
 13 37  1  0
 16 38  1  0
 16 39  1  0
 17 40  1  0
 17 41  1  0
 18 42  1  0
 19 43  1  0
 20 44  1  0
 20 45  1  0
 21 46  1  0
 21 47  1  0
 22 48  1  0
 23 49  1  0
 23 50  1  0
 24 51  1  0
 24 52  1  0
 25 53  1  0
 25 54  1  0
M  END
$$$$
OCNT-2312351
     RDKit          3D

 41 42  0  0  0  0  0  0  0  0999 V2000
   -6.4323   -0.6727   -0.3885 C   0  0  0  0  0  0  0  0  0  0  0  0
   -5.0122   -0.9736   -0.5408 N   0  0  0  0  0  0  0  0  0  0  0  0
   -4.1389    0.1268   -0.0722 C   0  0  2  0  0  0  0  0  0  0  0  0
   -4.2995    1.3710   -0.9572 C   0  0  0  0  0  0  0  0  0  0  0  0
   -2.6800   -0.3717   -0.1121 C   0  0  0  0  0  0  0  0  0  0  0  0
   -1.7216    0.5174    0.6726 C   0  0  0  0  0  0  0  0  0  0  0  0
   -2.1325    1.4518    1.3612 O   0  0  0  0  0  0  0  0  0  0  0  0
   -0.3630    0.2090    0.5794 N   0  0  0  0  0  0  0  0  0  0  0  0
    0.1115   -1.0807    0.0835 C   0  0  0  0  0  0  0  0  0  0  0  0
    1.5914   -1.0962   -0.1653 C   0  0  0  0  0  0  0  0  0  0  0  0
    2.4314   -0.0811    0.1109 C   0  0  0  0  0  0  0  0  0  0  0  0
    3.8738   -0.1641   -0.1962 C   0  0  0  0  0  0  0  0  0  0  0  0
    4.6140   -1.3117    0.1236 C   0  0  0  0  0  0  0  0  0  0  0  0
    5.9827   -1.3824   -0.1544 C   0  0  0  0  0  0  0  0  0  0  0  0
    6.6340   -0.3032   -0.7543 C   0  0  0  0  0  0  0  0  0  0  0  0
    8.3251   -0.4574   -1.0694 Cl  0  0  0  0  0  0  0  0  0  0  0  0
    5.9108    0.8494   -1.0733 C   0  0  0  0  0  0  0  0  0  0  0  0
    6.6458    2.2266   -1.8157 Cl  0  0  0  0  0  0  0  0  0  0  0  0
    4.5402    0.9164   -0.7922 C   0  0  0  0  0  0  0  0  0  0  0  0
    1.9049    1.1897    0.7281 C   0  0  0  0  0  0  0  0  0  0  0  0
    0.5624    0.9635    1.4234 C   0  0  0  0  0  0  0  0  0  0  0  0
   -6.6785   -0.3935    0.6409 H   0  0  0  0  0  0  0  0  0  0  0  0
   -6.7565    0.1196   -1.0689 H   0  0  0  0  0  0  0  0  0  0  0  0
   -7.0159   -1.5643   -0.6401 H   0  0  0  0  0  0  0  0  0  0  0  0
   -4.8118   -1.8094    0.0092 H   0  0  0  0  0  0  0  0  0  0  0  0
   -4.4059    0.3798    0.9616 H   0  0  0  0  0  0  0  0  0  0  0  0
   -5.2952    1.8132   -0.8517 H   0  0  0  0  0  0  0  0  0  0  0  0
   -4.1456    1.1293   -2.0150 H   0  0  0  0  0  0  0  0  0  0  0  0
   -3.5792    2.1503   -0.6894 H   0  0  0  0  0  0  0  0  0  0  0  0
   -2.6201   -1.3711    0.3372 H   0  0  0  0  0  0  0  0  0  0  0  0
   -2.3453   -0.4348   -1.1540 H   0  0  0  0  0  0  0  0  0  0  0  0
   -0.4027   -1.3314   -0.8481 H   0  0  0  0  0  0  0  0  0  0  0  0
   -0.1451   -1.8417    0.8291 H   0  0  0  0  0  0  0  0  0  0  0  0
    1.9637   -2.0062   -0.6305 H   0  0  0  0  0  0  0  0  0  0  0  0
    4.1357   -2.1610    0.6078 H   0  0  0  0  0  0  0  0  0  0  0  0
    6.5347   -2.2829    0.1048 H   0  0  0  0  0  0  0  0  0  0  0  0
    3.9910    1.8173   -1.0576 H   0  0  0  0  0  0  0  0  0  0  0  0
    1.7807    1.9433   -0.0598 H   0  0  0  0  0  0  0  0  0  0  0  0
    2.6140    1.5897    1.4626 H   0  0  0  0  0  0  0  0  0  0  0  0
    0.1381    1.9344    1.7011 H   0  0  0  0  0  0  0  0  0  0  0  0
    0.6960    0.3927    2.3513 H   0  0  0  0  0  0  0  0  0  0  0  0
  1  2  1  0
  2  3  1  0
  3  4  1  0
  3  5  1  0
  5  6  1  0
  6  7  2  0
  6  8  1  0
  8  9  1  0
  9 10  1  0
 10 11  2  0
 11 12  1  0
 12 13  1  0
 13 14  2  0
 14 15  1  0
 15 16  1  0
 15 17  2  0
 17 18  1  0
 17 19  1  0
 11 20  1  0
 20 21  1  0
 21  8  1  0
 19 12  2  0
  1 22  1  0
  1 23  1  0
  1 24  1  0
  2 25  1  0
  3 26  1  1
  4 27  1  0
  4 28  1  0
  4 29  1  0
  5 30  1  0
  5 31  1  0
  9 32  1  0
  9 33  1  0
 10 34  1  0
 13 35  1  0
 14 36  1  0
 19 37  1  0
 20 38  1  0
 20 39  1  0
 21 40  1  0
 21 41  1  0
M  END
$$$$
OCNT-2312355
     RDKit          3D

 40 42  0  0  0  0  0  0  0  0999 V2000
    1.0701   -2.1765    1.5982 C   0  0  0  0  0  0  0  0  0  0  0  0
    1.3818   -1.0456    0.6883 C   0  0  0  0  0  0  0  0  0  0  0  0
    2.4685   -0.2957    0.8965 N   0  0  0  0  0  0  0  0  0  0  0  0
    2.4455    0.6457   -0.0802 N   0  0  0  0  0  0  0  0  0  0  0  0
    3.4671    1.6345   -0.1660 C   0  0  0  0  0  0  0  0  0  0  0  0
    4.5042    1.6371    0.7800 C   0  0  0  0  0  0  0  0  0  0  0  0
    5.5170    2.5965    0.7149 C   0  0  0  0  0  0  0  0  0  0  0  0
    5.5027    3.5589   -0.2920 C   0  0  0  0  0  0  0  0  0  0  0  0
    4.4764    3.5642   -1.2352 C   0  0  0  0  0  0  0  0  0  0  0  0
    3.4591    2.6062   -1.1767 C   0  0  0  0  0  0  0  0  0  0  0  0
    1.3506    0.4814   -0.9008 C   0  0  0  0  0  0  0  0  0  0  0  0
    0.6390   -0.6066   -0.4365 C   0  0  0  0  0  0  0  0  0  0  0  0
   -0.6172   -1.1832   -0.9904 C   0  0  0  0  0  0  0  0  0  0  0  0
   -1.7009   -0.8242   -0.0881 N   0  0  0  0  0  0  0  0  0  0  0  0
   -3.0023   -1.3482   -0.5298 C   0  0  0  0  0  0  0  0  0  0  0  0
   -3.6092   -0.4904   -1.6448 C   0  0  0  0  0  0  0  0  0  0  0  0
   -3.9363   -1.4073    0.6544 C   0  0  0  0  0  0  0  0  0  0  0  0
   -3.8726   -0.7746    1.8820 C   0  0  0  0  0  0  0  0  0  0  0  0
   -4.9749   -1.1955    2.5701 N   0  0  0  0  0  0  0  0  0  0  0  0
   -5.6700   -2.0417    1.7563 C   0  0  0  0  0  0  0  0  0  0  0  0
   -5.0751   -2.1892    0.5959 N   0  0  0  0  0  0  0  0  0  0  0  0
    1.9116   -2.4013    2.2619 H   0  0  0  0  0  0  0  0  0  0  0  0
    0.2022   -1.9352    2.2201 H   0  0  0  0  0  0  0  0  0  0  0  0
    0.8451   -3.0820    1.0259 H   0  0  0  0  0  0  0  0  0  0  0  0
    4.5359    0.8948    1.5757 H   0  0  0  0  0  0  0  0  0  0  0  0
    6.3158    2.5899    1.4521 H   0  0  0  0  0  0  0  0  0  0  0  0
    6.2922    4.3045   -0.3415 H   0  0  0  0  0  0  0  0  0  0  0  0
    4.4690    4.3153   -2.0213 H   0  0  0  0  0  0  0  0  0  0  0  0
    2.6826    2.6474   -1.9333 H   0  0  0  0  0  0  0  0  0  0  0  0
    1.1586    1.1351   -1.7371 H   0  0  0  0  0  0  0  0  0  0  0  0
   -0.7864   -0.7918   -1.9996 H   0  0  0  0  0  0  0  0  0  0  0  0
   -0.5149   -2.2720   -1.0649 H   0  0  0  0  0  0  0  0  0  0  0  0
   -1.7578    0.1883   -0.0032 H   0  0  0  0  0  0  0  0  0  0  0  0
   -2.8840   -2.3783   -0.8909 H   0  0  0  0  0  0  0  0  0  0  0  0
   -4.5928   -0.8744   -1.9394 H   0  0  0  0  0  0  0  0  0  0  0  0
   -2.9796   -0.4860   -2.5399 H   0  0  0  0  0  0  0  0  0  0  0  0
   -3.7495    0.5481   -1.3223 H   0  0  0  0  0  0  0  0  0  0  0  0
   -3.1473   -0.0978    2.3108 H   0  0  0  0  0  0  0  0  0  0  0  0
   -5.2317   -0.9336    3.5115 H   0  0  0  0  0  0  0  0  0  0  0  0
   -6.5924   -2.5170    2.0616 H   0  0  0  0  0  0  0  0  0  0  0  0
  1  2  1  0
  2  3  2  0
  3  4  1  0
  4  5  1  0
  5  6  2  0
  6  7  1  0
  7  8  2  0
  8  9  1  0
  9 10  2  0
  4 11  1  0
 11 12  2  0
 12 13  1  0
 13 14  1  0
 14 15  1  0
 15 16  1  0
 15 17  1  0
 17 18  2  0
 18 19  1  0
 19 20  1  0
 20 21  2  0
 12  2  1  0
 21 17  1  0
 10  5  1  0
  1 22  1  0
  1 23  1  0
  1 24  1  0
  6 25  1  0
  7 26  1  0
  8 27  1  0
  9 28  1  0
 10 29  1  0
 11 30  1  0
 13 31  1  0
 13 32  1  0
 14 33  1  0
 15 34  1  0
 16 35  1  0
 16 36  1  0
 16 37  1  0
 18 38  1  0
 19 39  1  0
 20 40  1  0
M  END
$$$$
OCNT-2312358
     RDKit          3D

 48 51  0  0  0  0  0  0  0  0999 V2000
   -1.0270    2.5383   -1.7912 O   0  0  0  0  0  0  0  0  0  0  0  0
   -0.7765    1.5357   -1.1172 C   0  0  0  0  0  0  0  0  0  0  0  0
   -1.8822    0.6685   -0.6460 C   0  0  0  0  0  0  0  0  0  0  0  0
   -1.7534   -0.3746    0.1962 N   0  0  0  0  0  0  0  0  0  0  0  0
   -3.0064   -0.8354    0.3457 N   0  0  0  0  0  0  0  0  0  0  0  0
   -3.9632   -0.1504   -0.3546 C   0  0  0  0  0  0  0  0  0  0  0  0
   -5.3905   -0.4981   -0.3224 C   0  0  0  0  0  0  0  0  0  0  0  0
   -6.3077    0.2601   -1.0681 C   0  0  0  0  0  0  0  0  0  0  0  0
   -7.6730   -0.0423   -1.0607 C   0  0  0  0  0  0  0  0  0  0  0  0
   -8.1481   -1.1107   -0.3062 C   0  0  0  0  0  0  0  0  0  0  0  0
   -7.2605   -1.8799    0.4430 C   0  0  0  0  0  0  0  0  0  0  0  0
   -5.8954   -1.5747    0.4336 C   0  0  0  0  0  0  0  0  0  0  0  0
   -5.0412   -2.3499    1.1820 O   0  0  0  0  0  0  0  0  0  0  0  0
   -3.2521    0.8381   -1.0053 C   0  0  0  0  0  0  0  0  0  0  0  0
    0.5357    1.2203   -0.7917 N   0  0  0  0  0  0  0  0  0  0  0  0
    1.6314    2.0688   -1.2183 C   0  0  0  0  0  0  0  0  0  0  0  0
    2.8271    1.5868   -0.4080 C   0  0  0  0  0  0  0  0  0  0  0  0
    2.5688    0.0815   -0.2866 C   0  0  0  0  0  0  0  0  0  0  0  0
    2.9425   -0.5395   -1.5283 O   0  0  0  0  0  0  0  0  0  0  0  0
    3.2935   -0.6056    0.8854 C   0  0  0  0  0  0  0  0  0  0  0  0
    4.7795   -0.3251    0.9740 C   0  0  0  0  0  0  0  0  0  0  0  0
    5.6695   -0.8616    0.0308 C   0  0  0  0  0  0  0  0  0  0  0  0
    7.0374   -0.5985    0.1181 C   0  0  0  0  0  0  0  0  0  0  0  0
    7.5175    0.1987    1.1488 C   0  0  0  0  0  0  0  0  0  0  0  0
    8.8305    0.4505    1.2326 F   0  0  0  0  0  0  0  0  0  0  0  0
    6.6555    0.7392    2.0944 C   0  0  0  0  0  0  0  0  0  0  0  0
    5.2870    0.4780    2.0084 C   0  0  0  0  0  0  0  0  0  0  0  0
    1.0322    0.0252   -0.1198 C   0  0  0  0  0  0  0  0  0  0  0  0
   -3.1738   -1.6361    0.9483 H   0  0  0  0  0  0  0  0  0  0  0  0
   -5.9726    1.1022   -1.6689 H   0  0  0  0  0  0  0  0  0  0  0  0
   -8.3629    0.5605   -1.6467 H   0  0  0  0  0  0  0  0  0  0  0  0
   -9.2101   -1.3431   -0.3027 H   0  0  0  0  0  0  0  0  0  0  0  0
   -7.6499   -2.7095    1.0254 H   0  0  0  0  0  0  0  0  0  0  0  0
   -5.5681   -3.0329    1.6329 H   0  0  0  0  0  0  0  0  0  0  0  0
   -3.6401    1.6037   -1.6631 H   0  0  0  0  0  0  0  0  0  0  0  0
    1.4032    3.1247   -1.0439 H   0  0  0  0  0  0  0  0  0  0  0  0
    1.7824    1.9130   -2.2925 H   0  0  0  0  0  0  0  0  0  0  0  0
    3.7663    1.8329   -0.9129 H   0  0  0  0  0  0  0  0  0  0  0  0
    2.8155    2.0635    0.5798 H   0  0  0  0  0  0  0  0  0  0  0  0
    2.5452   -1.4270   -1.5541 H   0  0  0  0  0  0  0  0  0  0  0  0
    2.8273   -0.3068    1.8334 H   0  0  0  0  0  0  0  0  0  0  0  0
    3.1631   -1.6937    0.8144 H   0  0  0  0  0  0  0  0  0  0  0  0
    5.3013   -1.4810   -0.7842 H   0  0  0  0  0  0  0  0  0  0  0  0
    7.7276   -1.0073   -0.6125 H   0  0  0  0  0  0  0  0  0  0  0  0
    7.0533    1.3600    2.8905 H   0  0  0  0  0  0  0  0  0  0  0  0
    4.6208    0.9077    2.7532 H   0  0  0  0  0  0  0  0  0  0  0  0
    0.6060   -0.8687   -0.5842 H   0  0  0  0  0  0  0  0  0  0  0  0
    0.7344    0.0948    0.9316 H   0  0  0  0  0  0  0  0  0  0  0  0
  1  2  2  0
  2  3  1  0
  3  4  2  0
  4  5  1  0
  5  6  1  0
  6  7  1  0
  7  8  2  0
  8  9  1  0
  9 10  2  0
 10 11  1  0
 11 12  2  0
 12 13  1  0
  6 14  2  0
  2 15  1  0
 15 16  1  0
 16 17  1  0
 17 18  1  0
 18 19  1  0
 18 20  1  0
 20 21  1  0
 21 22  1  0
 22 23  2  0
 23 24  1  0
 24 25  1  0
 24 26  2  0
 26 27  1  0
 18 28  1  0
 14  3  1  0
 28 15  1  0
 12  7  1  0
 27 21  2  0
  5 29  1  0
  8 30  1  0
  9 31  1  0
 10 32  1  0
 11 33  1  0
 13 34  1  0
 14 35  1  0
 16 36  1  0
 16 37  1  0
 17 38  1  0
 17 39  1  0
 19 40  1  0
 20 41  1  0
 20 42  1  0
 22 43  1  0
 23 44  1  0
 26 45  1  0
 27 46  1  0
 28 47  1  0
 28 48  1  0
M  END
$$$$
OCNT-2312364
     RDKit          3D

 35 37  0  0  0  0  0  0  0  0999 V2000
    1.3895   -2.0804    0.7236 O   0  0  0  0  0  0  0  0  0  0  0  0
    1.1930   -0.6816    0.4683 C   0  0  1  0  0  0  0  0  0  0  0  0
    0.3377   -0.0608    1.5959 C   0  0  0  0  0  0  0  0  0  0  0  0
   -0.9971   -0.6579    1.6734 N   0  0  0  0  0  0  0  0  0  0  0  0
   -1.8859   -0.3554    0.6427 C   0  0  0  0  0  0  0  0  0  0  0  0
   -1.7564    0.7957   -0.0701 N   0  0  0  0  0  0  0  0  0  0  0  0
   -2.6382    1.0941   -1.0720 C   0  0  0  0  0  0  0  0  0  0  0  0
   -2.4262    2.4229   -1.8111 C   0  0  0  0  0  0  0  0  0  0  0  0
   -3.0275    2.4706   -3.0392 F   0  0  0  0  0  0  0  0  0  0  0  0
   -1.1074    2.7004   -2.0519 F   0  0  0  0  0  0  0  0  0  0  0  0
   -2.9105    3.5015   -1.1264 F   0  0  0  0  0  0  0  0  0  0  0  0
   -3.6896    0.3196   -1.4542 N   0  0  0  0  0  0  0  0  0  0  0  0
   -3.7675   -0.8049   -0.7327 C   0  0  0  0  0  0  0  0  0  0  0  0
   -2.9411   -1.2166    0.2956 C   0  0  0  0  0  0  0  0  0  0  0  0
   -3.3423   -2.4473    0.7772 N   0  0  0  0  0  0  0  0  0  0  0  0
   -4.4004   -2.7626    0.0607 C   0  0  0  0  0  0  0  0  0  0  0  0
   -4.6952   -1.7979   -0.8639 N   0  0  0  0  0  0  0  0  0  0  0  0
    2.5366    0.0084    0.3367 C   0  0  0  0  0  0  0  0  0  0  0  0
    2.7343    0.9709   -0.6658 C   0  0  0  0  0  0  0  0  0  0  0  0
    3.9621    1.6265   -0.7879 C   0  0  0  0  0  0  0  0  0  0  0  0
    4.9980    1.3283    0.0943 C   0  0  0  0  0  0  0  0  0  0  0  0
    6.5096    2.1357   -0.0575 Cl  0  0  0  0  0  0  0  0  0  0  0  0
    4.8163    0.3826    1.1005 C   0  0  0  0  0  0  0  0  0  0  0  0
    3.5890   -0.2727    1.2236 C   0  0  0  0  0  0  0  0  0  0  0  0
    2.0804   -2.3805    0.1079 H   0  0  0  0  0  0  0  0  0  0  0  0
    0.6647   -0.6229   -0.4902 H   0  0  0  0  0  0  0  0  0  0  0  0
    0.8229   -0.2497    2.5616 H   0  0  0  0  0  0  0  0  0  0  0  0
    0.2715    1.0295    1.4918 H   0  0  0  0  0  0  0  0  0  0  0  0
   -0.9871   -1.6642    1.8473 H   0  0  0  0  0  0  0  0  0  0  0  0
   -4.9886   -3.6656    0.1635 H   0  0  0  0  0  0  0  0  0  0  0  0
   -5.4541   -1.8057   -1.5287 H   0  0  0  0  0  0  0  0  0  0  0  0
    1.9308    1.2227   -1.3565 H   0  0  0  0  0  0  0  0  0  0  0  0
    4.1011    2.3695   -1.5689 H   0  0  0  0  0  0  0  0  0  0  0  0
    5.6220    0.1531    1.7928 H   0  0  0  0  0  0  0  0  0  0  0  0
    3.4555   -1.0053    2.0185 H   0  0  0  0  0  0  0  0  0  0  0  0
  1  2  1  0
  2  3  1  0
  3  4  1  0
  4  5  1  0
  5  6  1  0
  6  7  2  0
  7  8  1  0
  8  9  1  0
  8 10  1  0
  8 11  1  0
  7 12  1  0
 12 13  2  0
 13 14  1  0
 14 15  1  0
 15 16  2  0
 16 17  1  0
  2 18  1  0
 18 19  1  0
 19 20  2  0
 20 21  1  0
 21 22  1  0
 21 23  2  0
 23 24  1  0
 14  5  2  0
 24 18  2  0
 17 13  1  0
  1 25  1  0
  2 26  1  6
  3 27  1  0
  3 28  1  0
  4 29  1  0
 16 30  1  0
 17 31  1  0
 19 32  1  0
 20 33  1  0
 23 34  1  0
 24 35  1  0
M  END
$$$$
OCNT-2312368
     RDKit          3D

 48 51  0  0  0  0  0  0  0  0999 V2000
   -7.0219   -0.0406   -1.3388 C   0  0  0  0  0  0  0  0  0  0  0  0
   -5.9085   -0.3544   -0.5167 O   0  0  0  0  0  0  0  0  0  0  0  0
   -4.6666    0.1074   -0.9030 C   0  0  0  0  0  0  0  0  0  0  0  0
   -4.4473    0.8300   -2.0839 C   0  0  0  0  0  0  0  0  0  0  0  0
   -3.1695    1.2662   -2.4073 C   0  0  0  0  0  0  0  0  0  0  0  0
   -2.1108    0.9758   -1.5548 C   0  0  0  0  0  0  0  0  0  0  0  0
   -2.3036    0.2404   -0.3644 C   0  0  0  0  0  0  0  0  0  0  0  0
   -1.2335   -0.0653    0.5176 C   0  0  0  0  0  0  0  0  0  0  0  0
    0.0901    0.3151    0.1929 N   0  0  0  0  0  0  0  0  0  0  0  0
    0.7979   -0.7395   -0.5532 C   0  0  0  0  0  0  0  0  0  0  0  0
    2.2473   -0.3256   -0.7597 C   0  0  0  0  0  0  0  0  0  0  0  0
    2.9808   -0.1891    0.5830 C   0  0  0  0  0  0  0  0  0  0  0  0
    3.9644    0.8564    0.4991 O   0  0  0  0  0  0  0  0  0  0  0  0
    5.1589    0.4944   -0.0860 C   0  0  0  0  0  0  0  0  0  0  0  0
    6.1433    1.4694   -0.1816 C   0  0  0  0  0  0  0  0  0  0  0  0
    7.3572    1.2350   -0.7393 N   0  0  0  0  0  0  0  0  0  0  0  0
    7.5394   -0.0227   -1.1992 C   0  0  0  0  0  0  0  0  0  0  0  0
    6.5572   -0.9963   -1.1054 C   0  0  0  0  0  0  0  0  0  0  0  0
    5.3459   -0.7620   -0.5481 N   0  0  0  0  0  0  0  0  0  0  0  0
    2.0274    0.1756    1.7322 C   0  0  0  0  0  0  0  0  0  0  0  0
    0.8540    1.0151    1.2393 C   0  0  0  0  0  0  0  0  0  0  0  0
   -1.5109   -0.7792    1.6852 C   0  0  0  0  0  0  0  0  0  0  0  0
   -2.8129   -1.1680    1.9475 C   0  0  0  0  0  0  0  0  0  0  0  0
   -3.1350   -1.9396    3.1913 C   0  0  0  0  0  0  0  0  0  0  0  0
   -3.8354   -0.8891    1.1143 N   0  0  0  0  0  0  0  0  0  0  0  0
   -3.6052   -0.1968   -0.0251 C   0  0  0  0  0  0  0  0  0  0  0  0
   -7.1687    1.0420   -1.4109 H   0  0  0  0  0  0  0  0  0  0  0  0
   -6.9213   -0.4949   -2.3299 H   0  0  0  0  0  0  0  0  0  0  0  0
   -7.9145   -0.4652   -0.8693 H   0  0  0  0  0  0  0  0  0  0  0  0
   -5.2534    1.0696   -2.7683 H   0  0  0  0  0  0  0  0  0  0  0  0
   -2.9959    1.8331   -3.3180 H   0  0  0  0  0  0  0  0  0  0  0  0
   -1.1162    1.3334   -1.8147 H   0  0  0  0  0  0  0  0  0  0  0  0
    0.3260   -0.8853   -1.5322 H   0  0  0  0  0  0  0  0  0  0  0  0
    0.7580   -1.6991   -0.0207 H   0  0  0  0  0  0  0  0  0  0  0  0
    2.7563   -1.0685   -1.3846 H   0  0  0  0  0  0  0  0  0  0  0  0
    2.2899    0.6204   -1.3156 H   0  0  0  0  0  0  0  0  0  0  0  0
    3.4530   -1.1386    0.8692 H   0  0  0  0  0  0  0  0  0  0  0  0
    5.9777    2.4734    0.1914 H   0  0  0  0  0  0  0  0  0  0  0  0
    8.5035   -0.2305   -1.6493 H   0  0  0  0  0  0  0  0  0  0  0  0
    6.7212   -2.0004   -1.4802 H   0  0  0  0  0  0  0  0  0  0  0  0
    2.5630    0.7204    2.5184 H   0  0  0  0  0  0  0  0  0  0  0  0
    1.6433   -0.7476    2.1832 H   0  0  0  0  0  0  0  0  0  0  0  0
    0.2213    1.3110    2.0853 H   0  0  0  0  0  0  0  0  0  0  0  0
    1.2329    1.9502    0.8081 H   0  0  0  0  0  0  0  0  0  0  0  0
   -0.7220   -1.0462    2.3777 H   0  0  0  0  0  0  0  0  0  0  0  0
   -2.5947   -2.8913    3.1963 H   0  0  0  0  0  0  0  0  0  0  0  0
   -2.8553   -1.3622    4.0779 H   0  0  0  0  0  0  0  0  0  0  0  0
   -4.2067   -2.1557    3.2502 H   0  0  0  0  0  0  0  0  0  0  0  0
  1  2  1  0
  2  3  1  0
  3  4  1  0
  4  5  2  0
  5  6  1  0
  6  7  2  0
  7  8  1  0
  8  9  1  0
  9 10  1  0
 10 11  1  0
 11 12  1  0
 12 13  1  0
 13 14  1  0
 14 15  2  0
 15 16  1  0
 16 17  2  0
 17 18  1  0
 18 19  2  0
 12 20  1  0
 20 21  1  0
  8 22  2  0
 22 23  1  0
 23 24  1  0
 23 25  2  0
 25 26  1  0
 26  3  2  0
 26  7  1  0
 21  9  1  0
 19 14  1  0
  1 27  1  0
  1 28  1  0
  1 29  1  0
  4 30  1  0
  5 31  1  0
  6 32  1  0
 10 33  1  0
 10 34  1  0
 11 35  1  0
 11 36  1  0
 12 37  1  0
 15 38  1  0
 17 39  1  0
 18 40  1  0
 20 41  1  0
 20 42  1  0
 21 43  1  0
 21 44  1  0
 22 45  1  0
 24 46  1  0
 24 47  1  0
 24 48  1  0
M  END
$$$$
OCNT-2312372
     RDKit          3D

 51 54  0  0  0  0  0  0  0  0999 V2000
   -6.4657    2.6675    1.0704 O   0  0  0  0  0  0  0  0  0  0  0  0
   -5.8556    1.6171    0.8657 C   0  0  0  0  0  0  0  0  0  0  0  0
   -4.3956    1.6303    0.4629 C   0  0  0  0  0  0  0  0  0  0  0  0
   -3.5537    0.5443    1.1143 C   0  0  0  0  0  0  0  0  0  0  0  0
   -3.5581   -0.7854    0.3413 C   0  0  0  0  0  0  0  0  0  0  0  0
   -2.6551   -0.8154   -0.9247 C   0  0  0  0  0  0  0  0  0  0  0  0
   -1.2132   -0.6044   -0.8024 N   0  0  0  0  0  0  0  0  0  0  0  0
   -0.7819    0.7738   -1.0309 C   0  0  0  0  0  0  0  0  0  0  0  0
    0.6874    1.0001   -0.8019 C   0  0  0  0  0  0  0  0  0  0  0  0
    1.5064    0.0891   -0.2429 C   0  0  0  0  0  0  0  0  0  0  0  0
    2.9488    0.3496   -0.0539 C   0  0  0  0  0  0  0  0  0  0  0  0
    3.4004    1.5854    0.4387 C   0  0  0  0  0  0  0  0  0  0  0  0
    4.7642    1.8293    0.6284 C   0  0  0  0  0  0  0  0  0  0  0  0
    5.6932    0.8385    0.3288 C   0  0  0  0  0  0  0  0  0  0  0  0
    7.0145    1.1527    0.5169 O   0  0  0  0  0  0  0  0  0  0  0  0
    7.8707    0.2093   -0.1373 C   0  0  0  0  0  0  0  0  0  0  0  0
    7.4132   -1.2127    0.1415 C   0  0  0  0  0  0  0  0  0  0  0  0
    6.1127   -1.4437   -0.4120 O   0  0  0  0  0  0  0  0  0  0  0  0
    5.2583   -0.4074   -0.1296 C   0  0  0  0  0  0  0  0  0  0  0  0
    3.8975   -0.6457   -0.3310 C   0  0  0  0  0  0  0  0  0  0  0  0
    0.9547   -1.2474    0.1928 C   0  0  0  0  0  0  0  0  0  0  0  0
   -0.5754   -1.2273    0.3539 C   0  0  0  0  0  0  0  0  0  0  0  0
   -4.9825   -1.2185   -0.0764 C   0  0  0  0  0  0  0  0  0  0  0  0
   -6.0459   -0.9156    0.9678 C   0  0  0  0  0  0  0  0  0  0  0  0
   -6.5448    0.4453    0.9222 N   0  0  0  0  0  0  0  0  0  0  0  0
   -4.3299    1.6105   -0.6294 H   0  0  0  0  0  0  0  0  0  0  0  0
   -3.9979    2.6002    0.7885 H   0  0  0  0  0  0  0  0  0  0  0  0
   -2.5295    0.9028    1.2419 H   0  0  0  0  0  0  0  0  0  0  0  0
   -3.9113    0.3689    2.1374 H   0  0  0  0  0  0  0  0  0  0  0  0
   -3.1865   -1.5513    1.0356 H   0  0  0  0  0  0  0  0  0  0  0  0
   -3.0618   -0.1341   -1.6838 H   0  0  0  0  0  0  0  0  0  0  0  0
   -2.7689   -1.8140   -1.3694 H   0  0  0  0  0  0  0  0  0  0  0  0
   -1.3266    1.4837   -0.4020 H   0  0  0  0  0  0  0  0  0  0  0  0
   -0.9988    1.0387   -2.0729 H   0  0  0  0  0  0  0  0  0  0  0  0
    1.0686    1.9613   -1.1358 H   0  0  0  0  0  0  0  0  0  0  0  0
    2.6916    2.3711    0.6903 H   0  0  0  0  0  0  0  0  0  0  0  0
    5.0980    2.7929    1.0025 H   0  0  0  0  0  0  0  0  0  0  0  0
    8.8851    0.3622    0.2442 H   0  0  0  0  0  0  0  0  0  0  0  0
    7.8733    0.4273   -1.2126 H   0  0  0  0  0  0  0  0  0  0  0  0
    7.3753   -1.4187    1.2184 H   0  0  0  0  0  0  0  0  0  0  0  0
    8.1012   -1.9288   -0.3188 H   0  0  0  0  0  0  0  0  0  0  0  0
    3.5899   -1.6155   -0.7125 H   0  0  0  0  0  0  0  0  0  0  0  0
    1.3958   -1.5478    1.1513 H   0  0  0  0  0  0  0  0  0  0  0  0
    1.2273   -2.0083   -0.5496 H   0  0  0  0  0  0  0  0  0  0  0  0
   -0.8354   -0.7014    1.2807 H   0  0  0  0  0  0  0  0  0  0  0  0
   -0.9131   -2.2652    0.4627 H   0  0  0  0  0  0  0  0  0  0  0  0
   -5.2650   -0.7561   -1.0310 H   0  0  0  0  0  0  0  0  0  0  0  0
   -4.9631   -2.3018   -0.2532 H   0  0  0  0  0  0  0  0  0  0  0  0
   -6.9172   -1.5547    0.7858 H   0  0  0  0  0  0  0  0  0  0  0  0
   -5.6960   -1.1244    1.9840 H   0  0  0  0  0  0  0  0  0  0  0  0
   -7.4996    0.5933    1.2299 H   0  0  0  0  0  0  0  0  0  0  0  0
  1  2  2  0
  2  3  1  0
  3  4  1  0
  4  5  1  0
  5  6  1  0
  6  7  1  0
  7  8  1  0
  8  9  1  0
  9 10  2  0
 10 11  1  0
 11 12  1  0
 12 13  2  0
 13 14  1  0
 14 15  1  0
 15 16  1  0
 16 17  1  0
 17 18  1  0
 18 19  1  0
 19 20  1  0
 10 21  1  0
 21 22  1  0
  5 23  1  0
 23 24  1  0
 24 25  1  0
 25  2  1  0
 22  7  1  0
 20 11  2  0
 19 14  2  0
  3 26  1  0
  3 27  1  0
  4 28  1  0
  4 29  1  0
  5 30  1  0
  6 31  1  0
  6 32  1  0
  8 33  1  0
  8 34  1  0
  9 35  1  0
 12 36  1  0
 13 37  1  0
 16 38  1  0
 16 39  1  0
 17 40  1  0
 17 41  1  0
 20 42  1  0
 21 43  1  0
 21 44  1  0
 22 45  1  0
 22 46  1  0
 23 47  1  0
 23 48  1  0
 24 49  1  0
 24 50  1  0
 25 51  1  0
M  END
$$$$
OCNT-2312385
     RDKit          3D

 41 43  0  0  0  0  0  0  0  0999 V2000
   -1.1670   -0.9439   -2.8181 O   0  0  0  0  0  0  0  0  0  0  0  0
   -0.4213   -1.5157   -2.0299 C   0  0  0  0  0  0  0  0  0  0  0  0
   -0.8642   -2.5177   -1.1801 N   0  0  0  0  0  0  0  0  0  0  0  0
   -2.2688   -2.8954   -1.1122 C   0  0  0  0  0  0  0  0  0  0  0  0
   -2.9907   -2.3322    0.1315 C   0  0  0  0  0  0  0  0  0  0  0  0
   -4.3225   -2.8474    0.1787 O   0  0  0  0  0  0  0  0  0  0  0  0
   -3.0202   -0.8185    0.2164 C   0  0  0  0  0  0  0  0  0  0  0  0
   -2.4194   -0.1591    1.3021 C   0  0  0  0  0  0  0  0  0  0  0  0
   -2.4328    1.2370    1.3860 C   0  0  0  0  0  0  0  0  0  0  0  0
   -3.0546    1.9879    0.3893 C   0  0  0  0  0  0  0  0  0  0  0  0
   -3.0693    3.7047    0.5113 Cl  0  0  0  0  0  0  0  0  0  0  0  0
   -3.6603    1.3427   -0.6848 C   0  0  0  0  0  0  0  0  0  0  0  0
   -4.2773    2.0458   -1.6459 F   0  0  0  0  0  0  0  0  0  0  0  0
   -3.6469   -0.0480   -0.7760 C   0  0  0  0  0  0  0  0  0  0  0  0
    1.0638   -1.1859   -1.8650 C   0  0  0  0  0  0  0  0  0  0  0  0
    1.3048   -0.4745   -0.5539 C   0  0  0  0  0  0  0  0  0  0  0  0
    2.4018    0.4363   -0.9860 C   0  0  0  0  0  0  0  0  0  0  0  0
    3.2380    1.1709   -0.0155 C   0  0  0  0  0  0  0  0  0  0  0  0
    4.4567    1.7307   -0.4066 C   0  0  0  0  0  0  0  0  0  0  0  0
    4.9254    1.5871   -1.6538 F   0  0  0  0  0  0  0  0  0  0  0  0
    5.2492    2.4387    0.4996 C   0  0  0  0  0  0  0  0  0  0  0  0
    4.8308    2.5981    1.8187 C   0  0  0  0  0  0  0  0  0  0  0  0
    3.6195    2.0431    2.2247 C   0  0  0  0  0  0  0  0  0  0  0  0
    2.8345    1.3367    1.3113 C   0  0  0  0  0  0  0  0  0  0  0  0
    1.6742    0.8298    1.7536 F   0  0  0  0  0  0  0  0  0  0  0  0
    2.5391    0.5287   -2.2693 N   0  0  0  0  0  0  0  0  0  0  0  0
    1.5415   -0.2854   -2.8588 O   0  0  0  0  0  0  0  0  0  0  0  0
   -0.2039   -3.0196   -0.6011 H   0  0  0  0  0  0  0  0  0  0  0  0
   -2.7883   -2.5983   -2.0304 H   0  0  0  0  0  0  0  0  0  0  0  0
   -2.3023   -3.9908   -1.0838 H   0  0  0  0  0  0  0  0  0  0  0  0
   -2.4826   -2.7251    1.0210 H   0  0  0  0  0  0  0  0  0  0  0  0
   -4.8942   -2.1688    0.5778 H   0  0  0  0  0  0  0  0  0  0  0  0
   -1.9297   -0.7261    2.0920 H   0  0  0  0  0  0  0  0  0  0  0  0
   -1.9583    1.7317    2.2299 H   0  0  0  0  0  0  0  0  0  0  0  0
   -4.1164   -0.5169   -1.6378 H   0  0  0  0  0  0  0  0  0  0  0  0
    1.6473   -2.1115   -1.9398 H   0  0  0  0  0  0  0  0  0  0  0  0
    1.6080   -1.1618    0.2394 H   0  0  0  0  0  0  0  0  0  0  0  0
    0.4429    0.1196   -0.2341 H   0  0  0  0  0  0  0  0  0  0  0  0
    6.1924    2.8607    0.1625 H   0  0  0  0  0  0  0  0  0  0  0  0
    5.4454    3.1524    2.5242 H   0  0  0  0  0  0  0  0  0  0  0  0
    3.2759    2.1601    3.2489 H   0  0  0  0  0  0  0  0  0  0  0  0
  1  2  2  0
  2  3  1  0
  3  4  1  0
  4  5  1  0
  5  6  1  0
  5  7  1  0
  7  8  1  0
  8  9  2  0
  9 10  1  0
 10 11  1  0
 10 12  2  0
 12 13  1  0
 12 14  1  0
  2 15  1  0
 15 16  1  0
 16 17  1  0
 17 18  1  0
 18 19  2  0
 19 20  1  0
 19 21  1  0
 21 22  2  0
 22 23  1  0
 23 24  2  0
 24 25  1  0
 17 26  2  0
 26 27  1  0
 14  7  2  0
 27 15  1  0
 24 18  1  0
  3 28  1  0
  4 29  1  0
  4 30  1  0
  5 31  1  0
  6 32  1  0
  8 33  1  0
  9 34  1  0
 14 35  1  0
 15 36  1  0
 16 37  1  0
 16 38  1  0
 21 39  1  0
 22 40  1  0
 23 41  1  0
M  END
$$$$
OCNT-2312389
     RDKit          3D

 42 44  0  0  0  0  0  0  0  0999 V2000
   -3.1244    2.3695   -0.5000 C   0  0  0  0  0  0  0  0  0  0  0  0
   -2.9218    0.8790   -0.8014 C   0  0  0  0  0  0  0  0  0  0  0  0
   -4.2676    0.1765   -1.0237 C   0  0  0  0  0  0  0  0  0  0  0  0
   -5.1155    0.0743    0.2431 C   0  0  0  0  0  0  0  0  0  0  0  0
   -4.2935   -0.1802    1.5049 C   0  0  0  0  0  0  0  0  0  0  0  0
   -2.9218   -0.7615    1.1898 C   0  0  0  0  0  0  0  0  0  0  0  0
   -2.0799    0.1947    0.3165 C   0  0  0  0  0  0  0  0  0  0  0  0
   -0.8826   -0.5569   -0.2995 C   0  0  0  0  0  0  0  0  0  0  0  0
    0.1617   -0.9904    0.7160 C   0  0  0  0  0  0  0  0  0  0  0  0
    0.2040   -0.5890    1.8728 O   0  0  0  0  0  0  0  0  0  0  0  0
    1.0825   -1.8702    0.1906 N   0  0  0  0  0  0  0  0  0  0  0  0
    2.2689   -2.2350    0.9402 C   0  0  0  0  0  0  0  0  0  0  0  0
    3.3931   -1.3285    0.5293 C   0  0  0  0  0  0  0  0  0  0  0  0
    3.7481   -1.1184   -0.7236 N   0  0  0  0  0  0  0  0  0  0  0  0
    4.8100   -0.2237   -0.7706 C   0  0  0  0  0  0  0  0  0  0  0  0
    5.4586    0.2481   -1.9203 C   0  0  0  0  0  0  0  0  0  0  0  0
    6.4897    1.1259   -1.8318 N   0  0  0  0  0  0  0  0  0  0  0  0
    6.8858    1.5437   -0.6119 C   0  0  0  0  0  0  0  0  0  0  0  0
    6.3152    1.1395    0.5830 C   0  0  0  0  0  0  0  0  0  0  0  0
    5.2562    0.2349    0.4700 C   0  0  0  0  0  0  0  0  0  0  0  0
    4.3090   -0.4884    1.7118 S   0  0  0  0  0  0  0  0  0  0  0  0
   -3.6392    2.5319    0.4516 H   0  0  0  0  0  0  0  0  0  0  0  0
   -3.7136    2.8480   -1.2895 H   0  0  0  0  0  0  0  0  0  0  0  0
   -2.1586    2.8842   -0.4501 H   0  0  0  0  0  0  0  0  0  0  0  0
   -2.3740    0.8352   -1.7520 H   0  0  0  0  0  0  0  0  0  0  0  0
   -4.0736   -0.8359   -1.4022 H   0  0  0  0  0  0  0  0  0  0  0  0
   -4.8424    0.6846   -1.8075 H   0  0  0  0  0  0  0  0  0  0  0  0
   -5.8457   -0.7332    0.1099 H   0  0  0  0  0  0  0  0  0  0  0  0
   -5.7022    0.9910    0.3785 H   0  0  0  0  0  0  0  0  0  0  0  0
   -4.8443   -0.8541    2.1712 H   0  0  0  0  0  0  0  0  0  0  0  0
   -4.1681    0.7598    2.0563 H   0  0  0  0  0  0  0  0  0  0  0  0
   -2.3969   -0.9661    2.1299 H   0  0  0  0  0  0  0  0  0  0  0  0
   -3.0474   -1.7300    0.6889 H   0  0  0  0  0  0  0  0  0  0  0  0
   -1.6786    0.9760    0.9766 H   0  0  0  0  0  0  0  0  0  0  0  0
   -1.2323   -1.4359   -0.8544 H   0  0  0  0  0  0  0  0  0  0  0  0
   -0.3624    0.1000   -1.0084 H   0  0  0  0  0  0  0  0  0  0  0  0
    1.1661   -1.9214   -0.8174 H   0  0  0  0  0  0  0  0  0  0  0  0
    2.0686   -2.1977    2.0156 H   0  0  0  0  0  0  0  0  0  0  0  0
    2.5186   -3.2657    0.6685 H   0  0  0  0  0  0  0  0  0  0  0  0
    5.1676   -0.0646   -2.9157 H   0  0  0  0  0  0  0  0  0  0  0  0
    7.7152    2.2471   -0.6168 H   0  0  0  0  0  0  0  0  0  0  0  0
    6.6674    1.5028    1.5399 H   0  0  0  0  0  0  0  0  0  0  0  0
  1  2  1  0
  2  3  1  0
  3  4  1  0
  4  5  1  0
  5  6  1  0
  6  7  1  0
  7  8  1  0
  8  9  1  0
  9 10  2  0
  9 11  1  0
 11 12  1  0
 12 13  1  0
 13 14  2  0
 14 15  1  0
 15 16  2  0
 16 17  1  0
 17 18  2  0
 18 19  1  0
 19 20  2  0
 20 21  1  0
  7  2  1  0
 21 13  1  0
 20 15  1  0
  1 22  1  0
  1 23  1  0
  1 24  1  0
  2 25  1  0
  3 26  1  0
  3 27  1  0
  4 28  1  0
  4 29  1  0
  5 30  1  0
  5 31  1  0
  6 32  1  0
  6 33  1  0
  7 34  1  0
  8 35  1  0
  8 36  1  0
 11 37  1  0
 12 38  1  0
 12 39  1  0
 16 40  1  0
 18 41  1  0
 19 42  1  0
M  END
$$$$
OCNT-2312400
     RDKit          3D

 51 54  0  0  0  0  0  0  0  0999 V2000
   -4.1694    0.1308    0.6058 C   0  0  0  0  0  0  0  0  0  0  0  0
   -3.3035   -1.1006    0.6391 C   0  0  0  0  0  0  0  0  0  0  0  0
   -3.8626   -2.3137    1.0718 C   0  0  0  0  0  0  0  0  0  0  0  0
   -3.1012   -3.4820    1.1065 C   0  0  0  0  0  0  0  0  0  0  0  0
   -1.7701   -3.4561    0.7052 C   0  0  0  0  0  0  0  0  0  0  0  0
   -1.2007   -2.2618    0.2670 C   0  0  0  0  0  0  0  0  0  0  0  0
   -1.9563   -1.0763    0.2229 C   0  0  0  0  0  0  0  0  0  0  0  0
   -1.2790    0.1946   -0.2403 C   0  0  0  0  0  0  0  0  0  0  0  0
   -0.5801    0.9111    0.9230 C   0  0  0  0  0  0  0  0  0  0  0  0
    0.1562    2.1190    0.5131 N   0  0  0  0  0  0  0  0  0  0  0  0
   -0.5630    3.3920    0.5980 C   0  0  0  0  0  0  0  0  0  0  0  0
   -1.4221    3.6019   -0.6022 C   0  0  0  0  0  0  0  0  0  0  0  0
   -2.7354    3.5081   -0.6813 N   0  0  0  0  0  0  0  0  0  0  0  0
   -3.0448    3.7874   -1.9881 C   0  0  0  0  0  0  0  0  0  0  0  0
   -1.9083    4.0472   -2.7155 C   0  0  0  0  0  0  0  0  0  0  0  0
   -0.8816    3.9297   -1.8231 N   0  0  0  0  0  0  0  0  0  0  0  0
    1.3268    2.0968   -0.2456 C   0  0  0  0  0  0  0  0  0  0  0  0
    1.7186    3.0593   -0.9050 O   0  0  0  0  0  0  0  0  0  0  0  0
    2.1330    0.8584   -0.2964 C   0  0  0  0  0  0  0  0  0  0  0  0
    2.4259    0.2941   -1.5400 C   0  0  0  0  0  0  0  0  0  0  0  0
    3.2023   -0.8636   -1.6087 C   0  0  0  0  0  0  0  0  0  0  0  0
    3.6862   -1.4560   -0.4367 C   0  0  0  0  0  0  0  0  0  0  0  0
    4.4679   -2.6119   -0.5643 N   0  0  0  0  0  0  0  0  0  0  0  0
    4.8905   -3.4231    0.4527 C   0  0  0  0  0  0  0  0  0  0  0  0
    5.6411   -4.3662    0.1944 O   0  0  0  0  0  0  0  0  0  0  0  0
    4.3109   -3.2304    1.8353 C   0  0  0  0  0  0  0  0  0  0  0  0
    4.1272   -1.4998    2.3150 S   0  0  0  0  0  0  0  0  0  0  0  0
    3.4236   -0.8666    0.8089 C   0  0  0  0  0  0  0  0  0  0  0  0
    2.6569    0.3017    0.8737 C   0  0  0  0  0  0  0  0  0  0  0  0
   -4.3500    0.4375   -0.4292 H   0  0  0  0  0  0  0  0  0  0  0  0
   -3.6970    0.9511    1.1545 H   0  0  0  0  0  0  0  0  0  0  0  0
   -5.1426   -0.0512    1.0744 H   0  0  0  0  0  0  0  0  0  0  0  0
   -4.9034   -2.3564    1.3865 H   0  0  0  0  0  0  0  0  0  0  0  0
   -3.5502   -4.4119    1.4454 H   0  0  0  0  0  0  0  0  0  0  0  0
   -1.1768   -4.3660    0.7310 H   0  0  0  0  0  0  0  0  0  0  0  0
   -0.1583   -2.2599   -0.0447 H   0  0  0  0  0  0  0  0  0  0  0  0
   -2.0038    0.8510   -0.7295 H   0  0  0  0  0  0  0  0  0  0  0  0
   -0.5583   -0.0553   -1.0280 H   0  0  0  0  0  0  0  0  0  0  0  0
   -1.3027    1.1910    1.6987 H   0  0  0  0  0  0  0  0  0  0  0  0
    0.1168    0.2236    1.4100 H   0  0  0  0  0  0  0  0  0  0  0  0
    0.1627    4.2104    0.6789 H   0  0  0  0  0  0  0  0  0  0  0  0
   -1.1631    3.4050    1.5141 H   0  0  0  0  0  0  0  0  0  0  0  0
   -4.0695    3.7829   -2.3364 H   0  0  0  0  0  0  0  0  0  0  0  0
   -1.7456    4.2951   -3.7542 H   0  0  0  0  0  0  0  0  0  0  0  0
    0.1138    4.0197   -2.0025 H   0  0  0  0  0  0  0  0  0  0  0  0
    2.0523    0.7547   -2.4521 H   0  0  0  0  0  0  0  0  0  0  0  0
    3.4189   -1.2952   -2.5831 H   0  0  0  0  0  0  0  0  0  0  0  0
    4.7876   -2.8959   -1.4824 H   0  0  0  0  0  0  0  0  0  0  0  0
    4.9703   -3.7148    2.5619 H   0  0  0  0  0  0  0  0  0  0  0  0
    3.3357   -3.7269    1.8713 H   0  0  0  0  0  0  0  0  0  0  0  0
    2.4745    0.7874    1.8302 H   0  0  0  0  0  0  0  0  0  0  0  0
  1  2  1  0
  2  3  2  0
  3  4  1  0
  4  5  2  0
  5  6  1  0
  6  7  2  0
  7  8  1  0
  8  9  1  0
  9 10  1  0
 10 11  1  0
 11 12  1  0
 12 13  2  0
 13 14  1  0
 14 15  2  0
 15 16  1  0
 10 17  1  0
 17 18  2  0
 17 19  1  0
 19 20  1  0
 20 21  2  0
 21 22  1  0
 22 23  1  0
 23 24  1  0
 24 25  2  0
 24 26  1  0
 26 27  1  0
 27 28  1  0
 28 29  1  0
  7  2  1  0
 16 12  1  0
 29 19  2  0
 28 22  2  0
  1 30  1  0
  1 31  1  0
  1 32  1  0
  3 33  1  0
  4 34  1  0
  5 35  1  0
  6 36  1  0
  8 37  1  0
  8 38  1  0
  9 39  1  0
  9 40  1  0
 11 41  1  0
 11 42  1  0
 14 43  1  0
 15 44  1  0
 16 45  1  0
 20 46  1  0
 21 47  1  0
 23 48  1  0
 26 49  1  0
 26 50  1  0
 29 51  1  0
M  END
$$$$
OCNT-2312401
     RDKit          3D

 50 52  0  0  0  0  0  0  0  0999 V2000
    5.9195    1.3866   -0.2065 C   0  0  0  0  0  0  0  0  0  0  0  0
    4.7056    0.4607   -0.1601 C   0  0  0  0  0  0  0  0  0  0  0  0
    3.4116    1.2656    0.0489 C   0  0  0  0  0  0  0  0  0  0  0  0
    2.3028    0.4759    0.7542 C   0  0  0  0  0  0  0  0  0  0  0  0
    2.3605   -1.0243    0.4508 C   0  0  0  0  0  0  0  0  0  0  0  0
    2.2704   -1.2582   -0.9608 O   0  0  0  0  0  0  0  0  0  0  0  0
    0.9932   -1.2807   -1.4759 C   0  0  0  0  0  0  0  0  0  0  0  0
    0.9332   -1.4967   -2.7932 N   0  0  0  0  0  0  0  0  0  0  0  0
   -0.3002   -1.5197   -3.3126 C   0  0  0  0  0  0  0  0  0  0  0  0
   -1.4425   -1.3215   -2.5698 C   0  0  0  0  0  0  0  0  0  0  0  0
   -1.2898   -1.0846   -1.2158 C   0  0  0  0  0  0  0  0  0  0  0  0
   -2.3807   -0.8843   -0.3839 N   0  0  0  0  0  0  0  0  0  0  0  0
   -2.1139   -0.8192    1.0587 C   0  0  0  0  0  0  0  0  0  0  0  0
   -3.4312   -0.6944    1.8447 C   0  0  0  0  0  0  0  0  0  0  0  0
   -4.2129    0.5108    1.5254 N   0  0  0  0  0  0  0  0  0  0  0  0
   -4.1602    0.8662    0.0862 C   0  0  0  0  0  0  0  0  0  0  0  0
   -3.2843    2.1289   -0.0391 C   0  0  0  0  0  0  0  0  0  0  0  0
   -5.5875    1.2347   -0.3661 C   0  0  0  0  0  0  0  0  0  0  0  0
   -3.6173   -0.2543   -0.8686 C   0  0  0  0  0  0  0  0  0  0  0  0
   -0.0609   -1.0853   -0.6683 N   0  0  0  0  0  0  0  0  0  0  0  0
    3.7035   -1.6127    0.9245 C   0  0  0  0  0  0  0  0  0  0  0  0
    4.8661   -0.6113    0.9188 C   0  0  0  0  0  0  0  0  0  0  0  0
    6.8323    0.8191   -0.4162 H   0  0  0  0  0  0  0  0  0  0  0  0
    6.0586    1.9094    0.7458 H   0  0  0  0  0  0  0  0  0  0  0  0
    5.8035    2.1387   -0.9940 H   0  0  0  0  0  0  0  0  0  0  0  0
    4.6455   -0.0437   -1.1338 H   0  0  0  0  0  0  0  0  0  0  0  0
    3.6053    2.1761    0.6298 H   0  0  0  0  0  0  0  0  0  0  0  0
    3.0518    1.6052   -0.9309 H   0  0  0  0  0  0  0  0  0  0  0  0
    1.3367    0.9022    0.4621 H   0  0  0  0  0  0  0  0  0  0  0  0
    2.3902    0.6220    1.8385 H   0  0  0  0  0  0  0  0  0  0  0  0
    1.5710   -1.5670    0.9866 H   0  0  0  0  0  0  0  0  0  0  0  0
   -0.3520   -1.7136   -4.3796 H   0  0  0  0  0  0  0  0  0  0  0  0
   -2.4112   -1.3802   -3.0446 H   0  0  0  0  0  0  0  0  0  0  0  0
   -1.4614    0.0296    1.2984 H   0  0  0  0  0  0  0  0  0  0  0  0
   -1.6071   -1.7355    1.3871 H   0  0  0  0  0  0  0  0  0  0  0  0
   -3.2142   -0.6904    2.9183 H   0  0  0  0  0  0  0  0  0  0  0  0
   -4.0517   -1.5780    1.6475 H   0  0  0  0  0  0  0  0  0  0  0  0
   -5.1731    0.3663    1.8335 H   0  0  0  0  0  0  0  0  0  0  0  0
   -3.6753    2.9480    0.5766 H   0  0  0  0  0  0  0  0  0  0  0  0
   -2.2503    1.9500    0.2719 H   0  0  0  0  0  0  0  0  0  0  0  0
   -3.2569    2.4857   -1.0753 H   0  0  0  0  0  0  0  0  0  0  0  0
   -5.5976    1.5594   -1.4130 H   0  0  0  0  0  0  0  0  0  0  0  0
   -6.2658    0.3779   -0.2782 H   0  0  0  0  0  0  0  0  0  0  0  0
   -6.0024    2.0519    0.2358 H   0  0  0  0  0  0  0  0  0  0  0  0
   -4.3701   -1.0476   -0.9642 H   0  0  0  0  0  0  0  0  0  0  0  0
   -3.4906    0.1829   -1.8666 H   0  0  0  0  0  0  0  0  0  0  0  0
    3.5948   -1.9910    1.9486 H   0  0  0  0  0  0  0  0  0  0  0  0
    3.9700   -2.4732    0.2980 H   0  0  0  0  0  0  0  0  0  0  0  0
    5.8084   -1.1567    0.7867 H   0  0  0  0  0  0  0  0  0  0  0  0
    4.9267   -0.1290    1.9036 H   0  0  0  0  0  0  0  0  0  0  0  0
  1  2  1  0
  2  3  1  0
  3  4  1  0
  4  5  1  0
  5  6  1  0
  6  7  1  0
  7  8  2  0
  8  9  1  0
  9 10  2  0
 10 11  1  0
 11 12  1  0
 12 13  1  0
 13 14  1  0
 14 15  1  0
 15 16  1  0
 16 17  1  0
 16 18  1  0
 16 19  1  0
 11 20  2  0
  5 21  1  0
 21 22  1  0
 22  2  1  0
 20  7  1  0
 19 12  1  0
  1 23  1  0
  1 24  1  0
  1 25  1  0
  2 26  1  0
  3 27  1  0
  3 28  1  0
  4 29  1  0
  4 30  1  0
  5 31  1  0
  9 32  1  0
 10 33  1  0
 13 34  1  0
 13 35  1  0
 14 36  1  0
 14 37  1  0
 15 38  1  0
 17 39  1  0
 17 40  1  0
 17 41  1  0
 18 42  1  0
 18 43  1  0
 18 44  1  0
 19 45  1  0
 19 46  1  0
 21 47  1  0
 21 48  1  0
 22 49  1  0
 22 50  1  0
M  END
$$$$
OCNT-2312407
     RDKit          3D

 41 44  0  0  0  0  0  0  0  0999 V2000
   -1.5682   -0.7390   -3.4897 O   0  0  0  0  0  0  0  0  0  0  0  0
   -1.4495   -0.7784   -2.2694 C   0  0  0  0  0  0  0  0  0  0  0  0
   -0.3037   -0.3909   -1.6191 N   0  0  0  0  0  0  0  0  0  0  0  0
    0.8637    0.0194   -2.3608 C   0  0  0  0  0  0  0  0  0  0  0  0
    1.8554    0.5527   -1.3866 C   0  0  0  0  0  0  0  0  0  0  0  0
    2.1171    0.0660   -0.1826 N   0  0  0  0  0  0  0  0  0  0  0  0
    3.0808    0.8851    0.3308 C   0  0  0  0  0  0  0  0  0  0  0  0
    3.4024    1.8832   -0.5564 C   0  0  0  0  0  0  0  0  0  0  0  0
    4.3790    2.9728   -0.3336 C   0  0  0  0  0  0  0  0  0  0  0  0
    5.2899    2.5996    0.8559 C   0  0  0  0  0  0  0  0  0  0  0  0
    4.5013    1.9975    2.0417 C   0  0  0  0  0  0  0  0  0  0  0  0
    3.7307    0.7172    1.6544 C   0  0  0  0  0  0  0  0  0  0  0  0
    2.6200    1.6680   -1.6509 N   0  0  0  0  0  0  0  0  0  0  0  0
   -2.5636   -1.2811   -1.4174 C   0  0  0  0  0  0  0  0  0  0  0  0
   -3.5263   -2.1081   -2.0050 C   0  0  0  0  0  0  0  0  0  0  0  0
   -4.6036   -2.5829   -1.2521 C   0  0  0  0  0  0  0  0  0  0  0  0
   -4.7428   -2.2293    0.0994 C   0  0  0  0  0  0  0  0  0  0  0  0
   -5.8183   -2.6809    0.8738 C   0  0  0  0  0  0  0  0  0  0  0  0
   -5.9016   -2.2812    2.1986 C   0  0  0  0  0  0  0  0  0  0  0  0
   -4.9999   -1.4782    2.8011 N   0  0  0  0  0  0  0  0  0  0  0  0
   -3.9657   -1.0524    2.0384 C   0  0  0  0  0  0  0  0  0  0  0  0
   -3.7797   -1.3886    0.6939 C   0  0  0  0  0  0  0  0  0  0  0  0
   -2.6940   -0.9168   -0.0689 C   0  0  0  0  0  0  0  0  0  0  0  0
   -0.1235   -0.6886   -0.6671 H   0  0  0  0  0  0  0  0  0  0  0  0
    1.2689   -0.8551   -2.8818 H   0  0  0  0  0  0  0  0  0  0  0  0
    0.5715    0.7690   -3.1048 H   0  0  0  0  0  0  0  0  0  0  0  0
    3.8379    3.8969   -0.1013 H   0  0  0  0  0  0  0  0  0  0  0  0
    4.9857    3.1593   -1.2270 H   0  0  0  0  0  0  0  0  0  0  0  0
    6.0384    1.8669    0.5250 H   0  0  0  0  0  0  0  0  0  0  0  0
    5.8379    3.4881    1.1876 H   0  0  0  0  0  0  0  0  0  0  0  0
    3.7909    2.7500    2.4085 H   0  0  0  0  0  0  0  0  0  0  0  0
    5.1854    1.7733    2.8692 H   0  0  0  0  0  0  0  0  0  0  0  0
    2.9879    0.4840    2.4229 H   0  0  0  0  0  0  0  0  0  0  0  0
    4.4291   -0.1255    1.6006 H   0  0  0  0  0  0  0  0  0  0  0  0
    2.5907    2.2228   -2.4973 H   0  0  0  0  0  0  0  0  0  0  0  0
   -3.4404   -2.3856   -3.0541 H   0  0  0  0  0  0  0  0  0  0  0  0
   -5.3372   -3.2249   -1.7346 H   0  0  0  0  0  0  0  0  0  0  0  0
   -6.5839   -3.3264    0.4579 H   0  0  0  0  0  0  0  0  0  0  0  0
   -6.7237   -2.6069    2.8304 H   0  0  0  0  0  0  0  0  0  0  0  0
   -3.2636   -0.4053    2.5596 H   0  0  0  0  0  0  0  0  0  0  0  0
   -1.9754   -0.2454    0.3929 H   0  0  0  0  0  0  0  0  0  0  0  0
  1  2  2  0
  2  3  1  0
  3  4  1  0
  4  5  1  0
  5  6  2  0
  6  7  1  0
  7  8  2  0
  8  9  1  0
  9 10  1  0
 10 11  1  0
 11 12  1  0
  8 13  1  0
  2 14  1  0
 14 15  1  0
 15 16  2  0
 16 17  1  0
 17 18  2  0
 18 19  1  0
 19 20  2  0
 20 21  1  0
 21 22  2  0
 22 23  1  0
 13  5  1  0
 23 14  2  0
 12  7  1  0
 22 17  1  0
  3 24  1  0
  4 25  1  0
  4 26  1  0
  9 27  1  0
  9 28  1  0
 10 29  1  0
 10 30  1  0
 11 31  1  0
 11 32  1  0
 12 33  1  0
 12 34  1  0
 13 35  1  0
 15 36  1  0
 16 37  1  0
 18 38  1  0
 19 39  1  0
 21 40  1  0
 23 41  1  0
M  END
$$$$
OCNT-2312410
     RDKit          3D

 52 55  0  0  0  0  0  0  0  0999 V2000
   -3.2597   -3.9821   -0.0551 C   0  0  0  0  0  0  0  0  0  0  0  0
   -2.6433   -2.7906   -0.6312 N   0  0  0  0  0  0  0  0  0  0  0  0
   -1.2642   -2.5927   -0.1452 C   0  0  0  0  0  0  0  0  0  0  0  0
   -1.1122   -1.5669    1.0024 C   0  0  0  0  0  0  0  0  0  0  0  0
   -1.7109   -0.2426    0.7562 N   0  0  0  0  0  0  0  0  0  0  0  0
   -0.7362    0.8603    0.7218 C   0  0  0  0  0  0  0  0  0  0  0  0
    0.1653    1.0451   -0.5218 C   0  0  0  0  0  0  0  0  0  0  0  0
    1.0191   -0.1185   -0.7742 N   0  0  0  0  0  0  0  0  0  0  0  0
    2.3872    0.0666   -0.5806 C   0  0  0  0  0  0  0  0  0  0  0  0
    2.9177    0.5101    0.6206 C   0  0  0  0  0  0  0  0  0  0  0  0
    4.2996    0.6505    0.7586 C   0  0  0  0  0  0  0  0  0  0  0  0
    5.1069    0.3323   -0.3214 C   0  0  0  0  0  0  0  0  0  0  0  0
    6.5162    0.4529   -0.2517 N   0  0  0  0  0  0  0  0  0  0  0  0
    7.2968    0.8749    0.8029 C   0  0  0  0  0  0  0  0  0  0  0  0
    8.5965    0.8105    0.3562 C   0  0  0  0  0  0  0  0  0  0  0  0
    8.6462    0.3649   -0.9339 N   0  0  0  0  0  0  0  0  0  0  0  0
    7.3921    0.1577   -1.2728 C   0  0  0  0  0  0  0  0  0  0  0  0
    4.5713   -0.1077   -1.4797 N   0  0  0  0  0  0  0  0  0  0  0  0
    3.2073   -0.2475   -1.6008 N   0  0  0  0  0  0  0  0  0  0  0  0
   -2.6782   -0.2598   -0.3668 C   0  0  0  0  0  0  0  0  0  0  0  0
   -3.6440    0.9185   -0.3131 C   0  0  0  0  0  0  0  0  0  0  0  0
   -4.3290    1.2490    0.8678 C   0  0  0  0  0  0  0  0  0  0  0  0
   -5.2199    2.3228    0.8980 C   0  0  0  0  0  0  0  0  0  0  0  0
   -5.4414    3.0774   -0.2519 C   0  0  0  0  0  0  0  0  0  0  0  0
   -4.7734    2.7590   -1.4325 C   0  0  0  0  0  0  0  0  0  0  0  0
   -3.8811    1.6856   -1.4647 C   0  0  0  0  0  0  0  0  0  0  0  0
   -3.4843   -1.5972   -0.3802 C   0  0  0  0  0  0  0  0  0  0  0  0
   -2.6937   -4.8786   -0.3314 H   0  0  0  0  0  0  0  0  0  0  0  0
   -3.3148   -3.9328    1.0383 H   0  0  0  0  0  0  0  0  0  0  0  0
   -4.2737   -4.1189   -0.4474 H   0  0  0  0  0  0  0  0  0  0  0  0
   -0.6727   -2.2485   -1.0017 H   0  0  0  0  0  0  0  0  0  0  0  0
   -0.8084   -3.5450    0.1543 H   0  0  0  0  0  0  0  0  0  0  0  0
   -0.0551   -1.4944    1.2838 H   0  0  0  0  0  0  0  0  0  0  0  0
   -1.6139   -1.9792    1.8878 H   0  0  0  0  0  0  0  0  0  0  0  0
   -1.2840    1.8008    0.8625 H   0  0  0  0  0  0  0  0  0  0  0  0
   -0.1022    0.7855    1.6145 H   0  0  0  0  0  0  0  0  0  0  0  0
   -0.4568    1.2183   -1.4072 H   0  0  0  0  0  0  0  0  0  0  0  0
    0.7547    1.9638   -0.4008 H   0  0  0  0  0  0  0  0  0  0  0  0
    0.9254   -0.4438   -1.7373 H   0  0  0  0  0  0  0  0  0  0  0  0
    2.2708    0.7307    1.4620 H   0  0  0  0  0  0  0  0  0  0  0  0
    4.6957    0.9956    1.7058 H   0  0  0  0  0  0  0  0  0  0  0  0
    6.8948    1.1790    1.7568 H   0  0  0  0  0  0  0  0  0  0  0  0
    9.4989    1.0626    0.8989 H   0  0  0  0  0  0  0  0  0  0  0  0
    7.0561   -0.2031   -2.2372 H   0  0  0  0  0  0  0  0  0  0  0  0
   -2.1318   -0.2158   -1.3182 H   0  0  0  0  0  0  0  0  0  0  0  0
   -4.1605    0.6702    1.7740 H   0  0  0  0  0  0  0  0  0  0  0  0
   -5.7404    2.5692    1.8197 H   0  0  0  0  0  0  0  0  0  0  0  0
   -6.1366    3.9124   -0.2283 H   0  0  0  0  0  0  0  0  0  0  0  0
   -4.9503    3.3450   -2.3308 H   0  0  0  0  0  0  0  0  0  0  0  0
   -3.3756    1.4485   -2.3983 H   0  0  0  0  0  0  0  0  0  0  0  0
   -4.2563   -1.5586   -1.1593 H   0  0  0  0  0  0  0  0  0  0  0  0
   -4.0142   -1.6954    0.5786 H   0  0  0  0  0  0  0  0  0  0  0  0
  1  2  1  0
  2  3  1  0
  3  4  1  0
  4  5  1  0
  5  6  1  0
  6  7  1  0
  7  8  1  0
  8  9  1  0
  9 10  2  0
 10 11  1  0
 11 12  2  0
 12 13  1  0
 13 14  1  0
 14 15  2  0
 15 16  1  0
 16 17  2  0
 12 18  1  0
 18 19  2  0
  5 20  1  0
 20 21  1  0
 21 22  2  0
 22 23  1  0
 23 24  2  0
 24 25  1  0
 25 26  2  0
 20 27  1  0
 27  2  1  0
 19  9  1  0
 26 21  1  0
 17 13  1  0
  1 28  1  0
  1 29  1  0
  1 30  1  0
  3 31  1  0
  3 32  1  0
  4 33  1  0
  4 34  1  0
  6 35  1  0
  6 36  1  0
  7 37  1  0
  7 38  1  0
  8 39  1  0
 10 40  1  0
 11 41  1  0
 14 42  1  0
 15 43  1  0
 17 44  1  0
 20 45  1  0
 22 46  1  0
 23 47  1  0
 24 48  1  0
 25 49  1  0
 26 50  1  0
 27 51  1  0
 27 52  1  0
M  END
$$$$
OCNT-2312411
     RDKit          3D

 43 45  0  0  0  0  0  0  0  0999 V2000
   -3.7121    1.4686    0.9120 O   0  0  0  0  0  0  0  0  0  0  0  0
   -3.0884    0.5795    0.3361 C   0  0  0  0  0  0  0  0  0  0  0  0
   -3.8274   -0.4915   -0.3492 C   0  0  0  0  0  0  0  0  0  0  0  0
   -5.2220   -0.5833   -0.2617 C   0  0  0  0  0  0  0  0  0  0  0  0
   -5.8883   -1.6059   -0.9354 C   0  0  0  0  0  0  0  0  0  0  0  0
   -5.1619   -2.5251   -1.6917 C   0  0  0  0  0  0  0  0  0  0  0  0
   -3.7703   -2.4201   -1.7738 C   0  0  0  0  0  0  0  0  0  0  0  0
   -3.0915   -1.4002   -1.1020 C   0  0  0  0  0  0  0  0  0  0  0  0
   -1.6993   -1.3292   -1.2108 N   0  0  0  0  0  0  0  0  0  0  0  0
   -1.0614   -0.4176   -0.5386 C   0  0  0  0  0  0  0  0  0  0  0  0
    0.3037   -0.4104   -0.6778 N   0  0  0  0  0  0  0  0  0  0  0  0
    1.1056   -1.0476    0.3778 C   0  0  0  0  0  0  0  0  0  0  0  0
    2.6026   -0.7340    0.2047 C   0  0  0  0  0  0  0  0  0  0  0  0
    2.9161    0.7433    0.4576 C   0  0  0  0  0  0  0  0  0  0  0  0
    4.3999    1.0299    0.2291 C   0  0  0  0  0  0  0  0  0  0  0  0
    5.2673   -0.1989    0.4879 C   0  0  0  0  0  0  0  0  0  0  0  0
    4.6115   -1.1117    1.5109 C   0  0  0  0  0  0  0  0  0  0  0  0
    3.3354   -1.5960    1.0905 O   0  0  0  0  0  0  0  0  0  0  0  0
   -1.6987    0.5261    0.2510 N   0  0  0  0  0  0  0  0  0  0  0  0
   -0.9666    1.6440    0.8443 C   0  0  0  0  0  0  0  0  0  0  0  0
   -0.8276    2.8176   -0.1257 C   0  0  0  0  0  0  0  0  0  0  0  0
   -0.0053    3.8286    0.4516 O   0  0  0  0  0  0  0  0  0  0  0  0
   -5.7839    0.1379    0.3273 H   0  0  0  0  0  0  0  0  0  0  0  0
   -6.9708   -1.6851   -0.8717 H   0  0  0  0  0  0  0  0  0  0  0  0
   -5.6764   -3.3244   -2.2195 H   0  0  0  0  0  0  0  0  0  0  0  0
   -3.2068   -3.1375   -2.3649 H   0  0  0  0  0  0  0  0  0  0  0  0
    0.4945   -0.9353   -1.5323 H   0  0  0  0  0  0  0  0  0  0  0  0
    0.9541   -2.1340    0.3347 H   0  0  0  0  0  0  0  0  0  0  0  0
    0.7739   -0.7401    1.3764 H   0  0  0  0  0  0  0  0  0  0  0  0
    2.8982   -0.9974   -0.8194 H   0  0  0  0  0  0  0  0  0  0  0  0
    2.6706    0.9918    1.4983 H   0  0  0  0  0  0  0  0  0  0  0  0
    2.3159    1.4006   -0.1808 H   0  0  0  0  0  0  0  0  0  0  0  0
    4.5639    1.3725   -0.7995 H   0  0  0  0  0  0  0  0  0  0  0  0
    4.7086    1.8548    0.8824 H   0  0  0  0  0  0  0  0  0  0  0  0
    5.3912   -0.7479   -0.4540 H   0  0  0  0  0  0  0  0  0  0  0  0
    6.2654    0.1065    0.8191 H   0  0  0  0  0  0  0  0  0  0  0  0
    4.4805   -0.5909    2.4664 H   0  0  0  0  0  0  0  0  0  0  0  0
    5.2458   -1.9829    1.7034 H   0  0  0  0  0  0  0  0  0  0  0  0
    0.0258    1.3275    1.1729 H   0  0  0  0  0  0  0  0  0  0  0  0
   -1.4781    1.9835    1.7535 H   0  0  0  0  0  0  0  0  0  0  0  0
   -0.3651    2.4982   -1.0652 H   0  0  0  0  0  0  0  0  0  0  0  0
   -1.8070    3.2507   -0.3540 H   0  0  0  0  0  0  0  0  0  0  0  0
   -0.0215    4.5852   -0.1600 H   0  0  0  0  0  0  0  0  0  0  0  0
  1  2  2  0
  2  3  1  0
  3  4  2  0
  4  5  1  0
  5  6  2  0
  6  7  1  0
  7  8  2  0
  8  9  1  0
  9 10  2  0
 10 11  1  0
 11 12  1  0
 12 13  1  0
 13 14  1  0
 14 15  1  0
 15 16  1  0
 16 17  1  0
 17 18  1  0
 10 19  1  0
 19 20  1  0
 20 21  1  0
 21 22  1  0
 19  2  1  0
  8  3  1  0
 18 13  1  0
  4 23  1  0
  5 24  1  0
  6 25  1  0
  7 26  1  0
 11 27  1  0
 12 28  1  0
 12 29  1  0
 13 30  1  0
 14 31  1  0
 14 32  1  0
 15 33  1  0
 15 34  1  0
 16 35  1  0
 16 36  1  0
 17 37  1  0
 17 38  1  0
 20 39  1  0
 20 40  1  0
 21 41  1  0
 21 42  1  0
 22 43  1  0
M  END
$$$$
OCNT-2312415
     RDKit          3D

 39 41  0  0  0  0  0  0  0  0999 V2000
    6.6600    1.4196   -0.2673 F   0  0  0  0  0  0  0  0  0  0  0  0
    5.7737    1.1777   -1.2735 C   0  0  0  0  0  0  0  0  0  0  0  0
    6.4282    0.3868   -2.1674 F   0  0  0  0  0  0  0  0  0  0  0  0
    5.5881    2.3746   -1.8981 F   0  0  0  0  0  0  0  0  0  0  0  0
    4.4851    0.5571   -0.7922 C   0  0  0  0  0  0  0  0  0  0  0  0
    4.4695   -0.2674    0.3422 C   0  0  0  0  0  0  0  0  0  0  0  0
    3.2806   -0.8597    0.7744 C   0  0  0  0  0  0  0  0  0  0  0  0
    2.0872   -0.6463    0.0740 C   0  0  0  0  0  0  0  0  0  0  0  0
    0.7982   -1.2659    0.5542 C   0  0  0  0  0  0  0  0  0  0  0  0
    0.1047   -0.3764    1.5822 C   0  0  0  0  0  0  0  0  0  0  0  0
   -1.1554   -0.9335    2.0084 N   0  0  0  0  0  0  0  0  0  0  0  0
   -1.2198   -1.6819    3.1235 N   0  0  0  0  0  0  0  0  0  0  0  0
   -2.4490   -2.1738    3.1362 N   0  0  0  0  0  0  0  0  0  0  0  0
   -3.1602   -1.7523    2.0398 N   0  0  0  0  0  0  0  0  0  0  0  0
   -2.3690   -0.9488    1.3592 C   0  0  0  0  0  0  0  0  0  0  0  0
   -2.6067   -0.3028    0.1793 N   0  0  0  0  0  0  0  0  0  0  0  0
   -3.7333   -0.8476   -0.6150 C   0  0  0  0  0  0  0  0  0  0  0  0
   -3.9597    0.0200   -1.8613 C   0  0  0  0  0  0  0  0  0  0  0  0
   -4.2984    1.3839   -1.5625 O   0  0  0  0  0  0  0  0  0  0  0  0
   -3.9017    1.7903   -0.2459 C   0  0  0  0  0  0  0  0  0  0  0  0
   -2.5614    1.1795    0.1925 C   0  0  0  0  0  0  0  0  0  0  0  0
    2.0993    0.1725   -1.0618 C   0  0  0  0  0  0  0  0  0  0  0  0
    3.2883    0.7644   -1.4938 C   0  0  0  0  0  0  0  0  0  0  0  0
    5.3886   -0.4527    0.8971 H   0  0  0  0  0  0  0  0  0  0  0  0
    3.2954   -1.4935    1.6595 H   0  0  0  0  0  0  0  0  0  0  0  0
    0.1419   -1.4503   -0.3062 H   0  0  0  0  0  0  0  0  0  0  0  0
    1.0040   -2.2560    0.9818 H   0  0  0  0  0  0  0  0  0  0  0  0
    0.7307   -0.2480    2.4740 H   0  0  0  0  0  0  0  0  0  0  0  0
   -0.0805    0.6260    1.1847 H   0  0  0  0  0  0  0  0  0  0  0  0
   -3.5034   -1.8742   -0.9232 H   0  0  0  0  0  0  0  0  0  0  0  0
   -4.6505   -0.8635   -0.0121 H   0  0  0  0  0  0  0  0  0  0  0  0
   -3.0564    0.0361   -2.4822 H   0  0  0  0  0  0  0  0  0  0  0  0
   -4.7697   -0.3941   -2.4699 H   0  0  0  0  0  0  0  0  0  0  0  0
   -3.8323    2.8828   -0.2479 H   0  0  0  0  0  0  0  0  0  0  0  0
   -4.7012    1.5162    0.4524 H   0  0  0  0  0  0  0  0  0  0  0  0
   -2.2997    1.5705    1.1830 H   0  0  0  0  0  0  0  0  0  0  0  0
   -1.7782    1.4893   -0.5095 H   0  0  0  0  0  0  0  0  0  0  0  0
    1.1842    0.3505   -1.6238 H   0  0  0  0  0  0  0  0  0  0  0  0
    3.2786    1.3911   -2.3849 H   0  0  0  0  0  0  0  0  0  0  0  0
  1  2  1  0
  2  3  1  0
  2  4  1  0
  2  5  1  0
  5  6  1  0
  6  7  2  0
  7  8  1  0
  8  9  1  0
  9 10  1  0
 10 11  1  0
 11 12  1  0
 12 13  2  0
 13 14  1  0
 14 15  2  0
 15 16  1  0
 16 17  1  0
 17 18  1  0
 18 19  1  0
 19 20  1  0
 20 21  1  0
  8 22  2  0
 22 23  1  0
 23  5  2  0
 15 11  1  0
 21 16  1  0
  6 24  1  0
  7 25  1  0
  9 26  1  0
  9 27  1  0
 10 28  1  0
 10 29  1  0
 17 30  1  0
 17 31  1  0
 18 32  1  0
 18 33  1  0
 20 34  1  0
 20 35  1  0
 21 36  1  0
 21 37  1  0
 22 38  1  0
 23 39  1  0
M  END
$$$$
OCNT-2312429
     RDKit          3D

 39 41  0  0  0  0  0  0  0  0999 V2000
    0.5220    4.9355    0.9699 O   0  0  0  0  0  0  0  0  0  0  0  0
    0.4818    3.7381    0.1988 C   0  0  0  0  0  0  0  0  0  0  0  0
   -0.5237    2.7630    0.7993 C   0  0  0  0  0  0  0  0  0  0  0  0
   -0.7391    1.5154   -0.0690 C   0  0  0  0  0  0  0  0  0  0  0  0
   -1.7848    0.5649    0.5553 C   0  0  0  0  0  0  0  0  0  0  0  0
   -2.1181   -0.6116   -0.3374 C   0  0  0  0  0  0  0  0  0  0  0  0
   -2.9189   -0.4420   -1.4749 C   0  0  0  0  0  0  0  0  0  0  0  0
   -3.1888   -1.5227   -2.3158 C   0  0  0  0  0  0  0  0  0  0  0  0
   -2.6623   -2.7807   -2.0283 C   0  0  0  0  0  0  0  0  0  0  0  0
   -1.8693   -2.9613   -0.8971 C   0  0  0  0  0  0  0  0  0  0  0  0
   -1.5999   -1.8830   -0.0540 C   0  0  0  0  0  0  0  0  0  0  0  0
    0.5051    0.8150   -0.3968 N   0  0  0  0  0  0  0  0  0  0  0  0
    1.3026    0.1508    0.5141 C   0  0  0  0  0  0  0  0  0  0  0  0
    1.2588    0.4727    1.7844 N   0  0  0  0  0  0  0  0  0  0  0  0
    2.0696   -0.1805    2.6855 C   0  0  0  0  0  0  0  0  0  0  0  0
    2.9186   -1.1578    2.3463 C   0  0  0  0  0  0  0  0  0  0  0  0
    2.9886   -1.5406    1.0217 N   0  0  0  0  0  0  0  0  0  0  0  0
    3.7603   -2.5107    0.4652 N   0  0  0  0  0  0  0  0  0  0  0  0
    3.4322   -2.4895   -0.8292 C   0  0  0  0  0  0  0  0  0  0  0  0
    2.4631   -1.5213   -1.1118 C   0  0  0  0  0  0  0  0  0  0  0  0
    1.7385   -1.2151   -2.8062 Br  0  0  0  0  0  0  0  0  0  0  0  0
    2.1921   -0.9112    0.0851 C   0  0  0  0  0  0  0  0  0  0  0  0
   -0.3704    5.3196    0.9707 H   0  0  0  0  0  0  0  0  0  0  0  0
    1.4907    3.3153    0.1912 H   0  0  0  0  0  0  0  0  0  0  0  0
    0.2130    4.0049   -0.8283 H   0  0  0  0  0  0  0  0  0  0  0  0
   -1.4847    3.2800    0.9237 H   0  0  0  0  0  0  0  0  0  0  0  0
   -0.2138    2.5057    1.8181 H   0  0  0  0  0  0  0  0  0  0  0  0
   -1.1440    1.8719   -1.0261 H   0  0  0  0  0  0  0  0  0  0  0  0
   -1.4451    0.2010    1.5328 H   0  0  0  0  0  0  0  0  0  0  0  0
   -2.7132    1.1166    0.7541 H   0  0  0  0  0  0  0  0  0  0  0  0
   -3.3392    0.5320   -1.7144 H   0  0  0  0  0  0  0  0  0  0  0  0
   -3.8117   -1.3844   -3.1958 H   0  0  0  0  0  0  0  0  0  0  0  0
   -2.8737   -3.6217   -2.6835 H   0  0  0  0  0  0  0  0  0  0  0  0
   -1.4607   -3.9426   -0.6699 H   0  0  0  0  0  0  0  0  0  0  0  0
   -0.9767   -2.0395    0.8245 H   0  0  0  0  0  0  0  0  0  0  0  0
    0.4349    0.3287   -1.2878 H   0  0  0  0  0  0  0  0  0  0  0  0
    1.9905    0.1475    3.7184 H   0  0  0  0  0  0  0  0  0  0  0  0
    3.5603   -1.6759    3.0439 H   0  0  0  0  0  0  0  0  0  0  0  0
    3.9154   -3.1863   -1.5022 H   0  0  0  0  0  0  0  0  0  0  0  0
  1  2  1  0
  2  3  1  0
  3  4  1  0
  4  5  1  0
  5  6  1  0
  6  7  2  0
  7  8  1  0
  8  9  2  0
  9 10  1  0
 10 11  2  0
  4 12  1  0
 12 13  1  0
 13 14  2  0
 14 15  1  0
 15 16  2  0
 16 17  1  0
 17 18  1  0
 18 19  2  0
 19 20  1  0
 20 21  1  0
 20 22  2  0
 11  6  1  0
 22 13  1  0
 22 17  1  0
  1 23  1  0
  2 24  1  0
  2 25  1  0
  3 26  1  0
  3 27  1  0
  4 28  1  0
  5 29  1  0
  5 30  1  0
  7 31  1  0
  8 32  1  0
  9 33  1  0
 10 34  1  0
 11 35  1  0
 12 36  1  0
 15 37  1  0
 16 38  1  0
 19 39  1  0
M  END
$$$$
OCNT-2312433
     RDKit          3D

 51 53  0  0  0  0  0  0  0  0999 V2000
   -6.9750    2.4074    1.3698 C   0  0  0  0  0  0  0  0  0  0  0  0
   -6.9470    1.4308    0.2248 C   0  0  0  0  0  0  0  0  0  0  0  0
   -7.9568    1.1344   -0.4046 O   0  0  0  0  0  0  0  0  0  0  0  0
   -5.7000    0.9061   -0.0341 N   0  0  0  0  0  0  0  0  0  0  0  0
   -5.5381   -0.1686   -0.9979 C   0  0  0  0  0  0  0  0  0  0  0  0
   -4.1005   -0.2914   -1.5099 C   0  0  0  0  0  0  0  0  0  0  0  0
   -3.1041   -0.6383   -0.4260 C   0  0  0  0  0  0  0  0  0  0  0  0
   -2.2013    0.3291    0.0412 C   0  0  0  0  0  0  0  0  0  0  0  0
   -1.2919    0.0189    1.0531 C   0  0  0  0  0  0  0  0  0  0  0  0
   -1.2771   -1.2691    1.5934 C   0  0  0  0  0  0  0  0  0  0  0  0
   -0.1348   -1.6690    2.8912 S   0  0  0  0  0  0  0  0  0  0  0  0
    0.4470   -0.4448    3.3980 O   0  0  0  0  0  0  0  0  0  0  0  0
   -0.8026   -2.5969    3.7804 O   0  0  0  0  0  0  0  0  0  0  0  0
    1.0482   -2.5675    2.0822 N   0  0  0  0  0  0  0  0  0  0  0  0
    2.0399   -1.8552    1.3559 C   0  0  0  0  0  0  0  0  0  0  0  0
    1.8152   -1.5255    0.0224 C   0  0  0  0  0  0  0  0  0  0  0  0
    2.7701   -0.7866   -0.6821 C   0  0  0  0  0  0  0  0  0  0  0  0
    3.9564   -0.3592   -0.0626 C   0  0  0  0  0  0  0  0  0  0  0  0
    4.9561    0.4269   -0.8032 C   0  0  0  0  0  0  0  0  0  0  0  0
    5.5001   -0.0489   -2.0093 C   0  0  0  0  0  0  0  0  0  0  0  0
    6.4500    0.6954   -2.7147 C   0  0  0  0  0  0  0  0  0  0  0  0
    6.8695    1.9292   -2.2251 C   0  0  0  0  0  0  0  0  0  0  0  0
    6.3380    2.4104   -1.0360 C   0  0  0  0  0  0  0  0  0  0  0  0
    6.7731    3.6250   -0.5931 O   0  0  0  0  0  0  0  0  0  0  0  0
    5.3918    1.6748   -0.3244 C   0  0  0  0  0  0  0  0  0  0  0  0
    4.1574   -0.6982    1.2862 C   0  0  0  0  0  0  0  0  0  0  0  0
    3.2054   -1.4390    1.9933 C   0  0  0  0  0  0  0  0  0  0  0  0
   -2.1760   -2.2406    1.1471 C   0  0  0  0  0  0  0  0  0  0  0  0
   -3.0837   -1.9242    0.1353 C   0  0  0  0  0  0  0  0  0  0  0  0
   -7.4256    1.9249    2.2409 H   0  0  0  0  0  0  0  0  0  0  0  0
   -5.9697    2.7501    1.6306 H   0  0  0  0  0  0  0  0  0  0  0  0
   -7.5685    3.2795    1.0818 H   0  0  0  0  0  0  0  0  0  0  0  0
   -5.0150    0.9612    0.7103 H   0  0  0  0  0  0  0  0  0  0  0  0
   -6.2096    0.0132   -1.8449 H   0  0  0  0  0  0  0  0  0  0  0  0
   -5.8685   -1.0931   -0.5106 H   0  0  0  0  0  0  0  0  0  0  0  0
   -4.0542   -1.0669   -2.2848 H   0  0  0  0  0  0  0  0  0  0  0  0
   -3.8046    0.6458   -1.9982 H   0  0  0  0  0  0  0  0  0  0  0  0
   -2.2022    1.3330   -0.3800 H   0  0  0  0  0  0  0  0  0  0  0  0
   -0.5981    0.7789    1.4070 H   0  0  0  0  0  0  0  0  0  0  0  0
    1.3602   -3.3483    2.6587 H   0  0  0  0  0  0  0  0  0  0  0  0
    0.9070   -1.8434   -0.4822 H   0  0  0  0  0  0  0  0  0  0  0  0
    2.5750   -0.5325   -1.7225 H   0  0  0  0  0  0  0  0  0  0  0  0
    5.1935   -1.0159   -2.4037 H   0  0  0  0  0  0  0  0  0  0  0  0
    6.8633    0.3107   -3.6432 H   0  0  0  0  0  0  0  0  0  0  0  0
    7.6072    2.5135   -2.7676 H   0  0  0  0  0  0  0  0  0  0  0  0
    6.3113    3.8384    0.2343 H   0  0  0  0  0  0  0  0  0  0  0  0
    4.9767    2.0679    0.5996 H   0  0  0  0  0  0  0  0  0  0  0  0
    5.0662   -0.3874    1.7984 H   0  0  0  0  0  0  0  0  0  0  0  0
    3.3785   -1.6690    3.0409 H   0  0  0  0  0  0  0  0  0  0  0  0
   -2.1741   -3.2387    1.5799 H   0  0  0  0  0  0  0  0  0  0  0  0
   -3.7782   -2.6876   -0.2111 H   0  0  0  0  0  0  0  0  0  0  0  0
  1  2  1  0
  2  3  2  0
  2  4  1  0
  4  5  1  0
  5  6  1  0
  6  7  1  0
  7  8  1  0
  8  9  2  0
  9 10  1  0
 10 11  1  0
 11 12  2  0
 11 13  2  0
 11 14  1  0
 14 15  1  0
 15 16  1  0
 16 17  2  0
 17 18  1  0
 18 19  1  0
 19 20  2  0
 20 21  1  0
 21 22  2  0
 22 23  1  0
 23 24  1  0
 23 25  2  0
 18 26  2  0
 26 27  1  0
 10 28  2  0
 28 29  1  0
 29  7  2  0
 27 15  2  0
 25 19  1  0
  1 30  1  0
  1 31  1  0
  1 32  1  0
  4 33  1  0
  5 34  1  0
  5 35  1  0
  6 36  1  0
  6 37  1  0
  8 38  1  0
  9 39  1  0
 14 40  1  0
 16 41  1  0
 17 42  1  0
 20 43  1  0
 21 44  1  0
 22 45  1  0
 24 46  1  0
 25 47  1  0
 26 48  1  0
 27 49  1  0
 28 50  1  0
 29 51  1  0
M  END
$$$$
OCNT-2312442
     RDKit          3D

 44 46  0  0  0  0  0  0  0  0999 V2000
    7.9138    0.5268    2.0091 C   0  0  0  0  0  0  0  0  0  0  0  0
    6.6063    0.1658    1.3683 C   0  0  0  0  0  0  0  0  0  0  0  0
    6.5685   -0.6947    0.2666 C   0  0  0  0  0  0  0  0  0  0  0  0
    5.3518   -1.0050   -0.3509 C   0  0  0  0  0  0  0  0  0  0  0  0
    4.1496   -0.4533    0.1134 C   0  0  0  0  0  0  0  0  0  0  0  0
    2.8653   -0.7545   -0.5131 C   0  0  0  0  0  0  0  0  0  0  0  0
    1.6581   -0.3222   -0.1942 N   0  0  0  0  0  0  0  0  0  0  0  0
    0.8279   -0.9122   -1.1206 C   0  0  0  0  0  0  0  0  0  0  0  0
   -0.6395   -0.6731   -1.1292 C   0  0  0  0  0  0  0  0  0  0  0  0
   -1.2053   -0.3588    0.2580 C   0  0  0  0  0  0  0  0  0  0  0  0
   -2.6603   -0.3367    0.2798 N   0  0  0  0  0  0  0  0  0  0  0  0
   -3.3714    0.7173   -0.2493 C   0  0  0  0  0  0  0  0  0  0  0  0
   -2.8264    1.6721   -0.7939 O   0  0  0  0  0  0  0  0  0  0  0  0
   -4.8228    0.6025   -0.1718 C   0  0  0  0  0  0  0  0  0  0  0  0
   -5.7196    1.1822   -1.0578 C   0  0  0  0  0  0  0  0  0  0  0  0
   -5.5096    2.0191   -2.2650 C   0  0  0  0  0  0  0  0  0  0  0  0
   -6.9657    0.8479   -0.6179 N   0  0  0  0  0  0  0  0  0  0  0  0
   -6.9605    0.0994    0.4918 N   0  0  0  0  0  0  0  0  0  0  0  0
   -5.6544   -0.0409    0.8001 C   0  0  0  0  0  0  0  0  0  0  0  0
   -5.1936   -0.7714    2.0326 C   0  0  0  0  0  0  0  0  0  0  0  0
   -4.4529    0.0243    2.8504 F   0  0  0  0  0  0  0  0  0  0  0  0
   -4.3935   -1.8281    1.7001 F   0  0  0  0  0  0  0  0  0  0  0  0
   -6.2031   -1.2781    2.7881 F   0  0  0  0  0  0  0  0  0  0  0  0
    1.5792   -1.6902   -1.9707 C   0  0  0  0  0  0  0  0  0  0  0  0
    2.8824   -1.6043   -1.5902 O   0  0  0  0  0  0  0  0  0  0  0  0
    4.1976    0.4189    1.2101 C   0  0  0  0  0  0  0  0  0  0  0  0
    5.4126    0.7302    1.8282 C   0  0  0  0  0  0  0  0  0  0  0  0
    8.6315   -0.2958    1.9228 H   0  0  0  0  0  0  0  0  0  0  0  0
    8.3339    1.4159    1.5280 H   0  0  0  0  0  0  0  0  0  0  0  0
    7.7817    0.7310    3.0779 H   0  0  0  0  0  0  0  0  0  0  0  0
    7.4862   -1.1311   -0.1206 H   0  0  0  0  0  0  0  0  0  0  0  0
    5.3550   -1.6815   -1.2032 H   0  0  0  0  0  0  0  0  0  0  0  0
   -1.1450   -1.5604   -1.5323 H   0  0  0  0  0  0  0  0  0  0  0  0
   -0.8591    0.1496   -1.8203 H   0  0  0  0  0  0  0  0  0  0  0  0
   -0.8942   -1.1177    0.9858 H   0  0  0  0  0  0  0  0  0  0  0  0
   -0.8394    0.6136    0.6104 H   0  0  0  0  0  0  0  0  0  0  0  0
   -3.1297   -1.1932    0.5490 H   0  0  0  0  0  0  0  0  0  0  0  0
   -6.4332    2.1278   -2.8427 H   0  0  0  0  0  0  0  0  0  0  0  0
   -4.7575    1.5696   -2.9212 H   0  0  0  0  0  0  0  0  0  0  0  0
   -5.1671    3.0191   -1.9794 H   0  0  0  0  0  0  0  0  0  0  0  0
   -7.8624    1.1009   -1.0234 H   0  0  0  0  0  0  0  0  0  0  0  0
    1.3678   -2.3152   -2.8255 H   0  0  0  0  0  0  0  0  0  0  0  0
    3.2799    0.8673    1.5884 H   0  0  0  0  0  0  0  0  0  0  0  0
    5.4175    1.4170    2.6712 H   0  0  0  0  0  0  0  0  0  0  0  0
  1  2  1  0
  2  3  1  0
  3  4  2  0
  4  5  1  0
  5  6  1  0
  6  7  2  0
  7  8  1  0
  8  9  1  0
  9 10  1  0
 10 11  1  0
 11 12  1  0
 12 13  2  0
 12 14  1  0
 14 15  2  0
 15 16  1  0
 15 17  1  0
 17 18  1  0
 18 19  2  0
 19 20  1  0
 20 21  1  0
 20 22  1  0
 20 23  1  0
  8 24  2  0
 24 25  1  0
  5 26  2  0
 26 27  1  0
 27  2  2  0
 25  6  1  0
 19 14  1  0
  1 28  1  0
  1 29  1  0
  1 30  1  0
  3 31  1  0
  4 32  1  0
  9 33  1  0
  9 34  1  0
 10 35  1  0
 10 36  1  0
 11 37  1  0
 16 38  1  0
 16 39  1  0
 16 40  1  0
 17 41  1  0
 24 42  1  0
 26 43  1  0
 27 44  1  0
M  END
$$$$
OCNT-2312448
     RDKit          3D

  0  0  0  0  0  0  0  0  0  0999 V3000
M  V30 BEGIN CTAB
M  V30 COUNTS 44 46 0 0 0
M  V30 BEGIN ATOM
M  V30 1 C 2.385492 0.482251 -1.870321 0
M  V30 2 C 3.090209 0.265132 -0.581109 0
M  V30 3 C 2.723570 -0.586964 0.446339 0
M  V30 4 C 1.583794 -1.534253 0.606222 0
M  V30 5 N 0.304585 -0.863265 0.392346 0
M  V30 6 C -0.051450 0.083012 1.452376 0
M  V30 7 C -1.543723 0.349217 1.210345 0 CFG=1
M  V30 8 C -1.771907 1.698004 0.510288 0
M  V30 9 C -3.178841 1.782486 -0.066668 0
M  V30 10 C -3.447375 0.689587 -1.101086 0
M  V30 11 C -2.424429 -0.446076 -1.060807 0
M  V30 12 C -2.044679 -0.870246 0.380208 0 CFG=2
M  V30 13 C -3.229601 -1.562489 1.082751 0
M  V30 14 O -3.710717 -2.680735 0.348079 0
M  V30 15 C -0.818653 -1.801764 0.346011 0
M  V30 16 N 3.670936 -0.429555 1.415628 0
M  V30 17 N 4.623316 0.460044 1.106502 0
M  V30 18 C 4.280365 0.910683 -0.117512 0
M  V30 19 C 5.081006 1.952595 -0.859898 0
M  V30 20 F 5.690560 1.428566 -1.959552 0
M  V30 21 F 6.058825 2.530192 -0.111631 0
M  V30 22 F 4.291441 2.967644 -1.310899 0
M  V30 23 H 1.913498 -0.440824 -2.221800 0
M  V30 24 H 3.078418 0.814911 -2.649307 0
M  V30 25 H 1.608967 1.244741 -1.752673 0
M  V30 26 H 1.615971 -2.024447 1.587971 0
M  V30 27 H 1.710397 -2.325159 -0.144648 0
M  V30 28 H 0.546126 0.999726 1.413311 0
M  V30 29 H 0.079870 -0.368358 2.444787 0
M  V30 30 H -2.052144 0.384108 2.183191 0
M  V30 31 H -1.618808 2.510801 1.230408 0
M  V30 32 H -1.037384 1.853525 -0.290341 0
M  V30 33 H -3.340545 2.766965 -0.520604 0
M  V30 34 H -3.908274 1.696614 0.748453 0
M  V30 35 H -3.442691 1.128049 -2.106560 0
M  V30 36 H -4.458729 0.292921 -0.951810 0
M  V30 37 H -1.525544 -0.116139 -1.599708 0
M  V30 38 H -2.807247 -1.299483 -1.633707 0
M  V30 39 H -2.952636 -1.908618 2.085315 0
M  V30 40 H -4.067913 -0.869562 1.207679 0
M  V30 41 H -3.036536 -3.379356 0.376081 0
M  V30 42 H -0.803681 -2.470934 1.216743 0
M  V30 43 H -0.792369 -2.418737 -0.559085 0
M  V30 44 H 3.728532 -0.894808 2.315684 0
M  V30 END ATOM
M  V30 BEGIN BOND
M  V30 1 1 1 2
M  V30 2 2 2 3
M  V30 3 1 3 4
M  V30 4 1 4 5
M  V30 5 1 5 6
M  V30 6 1 6 7
M  V30 7 1 7 8
M  V30 8 1 8 9
M  V30 9 1 9 10
M  V30 10 1 10 11
M  V30 11 1 11 12
M  V30 12 1 12 13 CFG=1
M  V30 13 1 13 14
M  V30 14 1 12 15
M  V30 15 1 3 16
M  V30 16 1 16 17
M  V30 17 2 17 18
M  V30 18 1 18 19
M  V30 19 1 19 20
M  V30 20 1 19 21
M  V30 21 1 19 22
M  V30 22 1 18 2
M  V30 23 1 15 5
M  V30 24 1 12 7
M  V30 25 1 1 23
M  V30 26 1 1 24
M  V30 27 1 1 25
M  V30 28 1 4 26
M  V30 29 1 4 27
M  V30 30 1 6 28
M  V30 31 1 6 29
M  V30 32 1 7 30 CFG=1
M  V30 33 1 8 31
M  V30 34 1 8 32
M  V30 35 1 9 33
M  V30 36 1 9 34
M  V30 37 1 10 35
M  V30 38 1 10 36
M  V30 39 1 11 37
M  V30 40 1 11 38
M  V30 41 1 13 39
M  V30 42 1 13 40
M  V30 43 1 14 41
M  V30 44 1 15 42
M  V30 45 1 15 43
M  V30 46 1 16 44
M  V30 END BOND
M  V30 BEGIN COLLECTION
M  V30 MDLV30/STERAC1 ATOMS=(2 7 12)
M  V30 END COLLECTION
M  V30 END CTAB
M  END
>  <_CXSMILES_Data>  (633) 
|&1:6,11|

$$$$
OCNT-2312463
     RDKit          3D

 39 42  0  0  0  0  0  0  0  0999 V2000
   -1.5358    1.5017   -2.7366 C   0  0  0  0  0  0  0  0  0  0  0  0
   -1.6152    1.7794   -1.3232 N   0  0  0  0  0  0  0  0  0  0  0  0
   -2.2316    2.8633   -0.7624 C   0  0  0  0  0  0  0  0  0  0  0  0
   -2.0586    2.7158    0.5919 C   0  0  0  0  0  0  0  0  0  0  0  0
   -1.3592    1.5724    0.8697 N   0  0  0  0  0  0  0  0  0  0  0  0
   -1.0938    1.0153   -0.3041 C   0  0  0  0  0  0  0  0  0  0  0  0
   -0.3253   -0.2757   -0.5168 C   0  0  0  0  0  0  0  0  0  0  0  0
    0.6585   -0.5157    0.5313 N   0  0  0  0  0  0  0  0  0  0  0  0
    1.8808    0.1158    0.5043 C   0  0  0  0  0  0  0  0  0  0  0  0
    2.4077    0.4494   -0.6538 N   0  0  0  0  0  0  0  0  0  0  0  0
    3.6363    1.0724   -0.6855 C   0  0  0  0  0  0  0  0  0  0  0  0
    4.3495    1.3657    0.4086 C   0  0  0  0  0  0  0  0  0  0  0  0
    3.8330    1.0311    1.6448 N   0  0  0  0  0  0  0  0  0  0  0  0
    4.3839    1.2341    2.8704 N   0  0  0  0  0  0  0  0  0  0  0  0
    3.4804    0.7392    3.7211 C   0  0  0  0  0  0  0  0  0  0  0  0
    2.3629    0.2178    3.0604 C   0  0  0  0  0  0  0  0  0  0  0  0
    0.8926   -0.5530    3.9167 Br  0  0  0  0  0  0  0  0  0  0  0  0
    2.6038    0.4080    1.7252 C   0  0  0  0  0  0  0  0  0  0  0  0
   -1.2408   -1.4984   -0.5787 C   0  0  0  0  0  0  0  0  0  0  0  0
   -0.9647   -2.5246   -1.4998 C   0  0  0  0  0  0  0  0  0  0  0  0
   -1.7733   -3.6607   -1.5675 C   0  0  0  0  0  0  0  0  0  0  0  0
   -2.8621   -3.7943   -0.7091 C   0  0  0  0  0  0  0  0  0  0  0  0
   -3.1388   -2.7973    0.2236 C   0  0  0  0  0  0  0  0  0  0  0  0
   -2.3311   -1.6606    0.2943 C   0  0  0  0  0  0  0  0  0  0  0  0
   -1.9527    0.5092   -2.9234 H   0  0  0  0  0  0  0  0  0  0  0  0
   -2.1115    2.2494   -3.2884 H   0  0  0  0  0  0  0  0  0  0  0  0
   -0.4870    1.5468   -3.0400 H   0  0  0  0  0  0  0  0  0  0  0  0
   -2.7238    3.6269   -1.3481 H   0  0  0  0  0  0  0  0  0  0  0  0
   -2.4010    3.3728    1.3809 H   0  0  0  0  0  0  0  0  0  0  0  0
    0.1824   -0.2095   -1.4872 H   0  0  0  0  0  0  0  0  0  0  0  0
    0.2019   -0.4727    1.4380 H   0  0  0  0  0  0  0  0  0  0  0  0
    4.0166    1.3223   -1.6721 H   0  0  0  0  0  0  0  0  0  0  0  0
    5.3139    1.8523    0.3944 H   0  0  0  0  0  0  0  0  0  0  0  0
    3.6829    0.7844    4.7834 H   0  0  0  0  0  0  0  0  0  0  0  0
   -0.1050   -2.4490   -2.1633 H   0  0  0  0  0  0  0  0  0  0  0  0
   -1.5470   -4.4466   -2.2836 H   0  0  0  0  0  0  0  0  0  0  0  0
   -3.4887   -4.6809   -0.7586 H   0  0  0  0  0  0  0  0  0  0  0  0
   -3.9805   -2.9060    0.9028 H   0  0  0  0  0  0  0  0  0  0  0  0
   -2.5598   -0.9006    1.0404 H   0  0  0  0  0  0  0  0  0  0  0  0
  1  2  1  0
  2  3  1  0
  3  4  2  0
  4  5  1  0
  5  6  2  0
  6  7  1  0
  7  8  1  0
  8  9  1  0
  9 10  2  0
 10 11  1  0
 11 12  2  0
 12 13  1  0
 13 14  1  0
 14 15  2  0
 15 16  1  0
 16 17  1  0
 16 18  2  0
  7 19  1  0
 19 20  2  0
 20 21  1  0
 21 22  2  0
 22 23  1  0
 23 24  2  0
  6  2  1  0
 18  9  1  0
 24 19  1  0
 18 13  1  0
  1 25  1  0
  1 26  1  0
  1 27  1  0
  3 28  1  0
  4 29  1  0
  7 30  1  0
  8 31  1  0
 11 32  1  0
 12 33  1  0
 15 34  1  0
 20 35  1  0
 21 36  1  0
 22 37  1  0
 23 38  1  0
 24 39  1  0
M  END
$$$$
OCNT-2312465
     RDKit          3D

 33 35  0  0  0  0  0  0  0  0999 V2000
    4.2883   -0.6308    2.0940 C   0  0  0  0  0  0  0  0  0  0  0  0
    3.8537   -0.5760    0.7283 N   0  0  0  0  0  0  0  0  0  0  0  0
    4.5648   -1.0048   -0.3744 C   0  0  0  0  0  0  0  0  0  0  0  0
    5.6843   -1.4978   -0.3664 O   0  0  0  0  0  0  0  0  0  0  0  0
    3.8300   -0.8007   -1.5529 O   0  0  0  0  0  0  0  0  0  0  0  0
    2.6567   -0.2321   -1.0828 C   0  0  0  0  0  0  0  0  0  0  0  0
    1.5888    0.1584   -1.8625 C   0  0  0  0  0  0  0  0  0  0  0  0
    0.4913    0.7171   -1.2028 C   0  0  0  0  0  0  0  0  0  0  0  0
   -0.6578    1.1016   -1.9479 N   0  0  0  0  0  0  0  0  0  0  0  0
   -1.8562   -0.0658   -2.2061 S   0  0  0  0  0  0  0  0  0  0  0  0
   -1.2437   -1.3712   -2.3126 O   0  0  0  0  0  0  0  0  0  0  0  0
   -2.7078    0.4544   -3.2538 O   0  0  0  0  0  0  0  0  0  0  0  0
   -2.7883    0.0040   -0.6975 C   0  0  0  0  0  0  0  0  0  0  0  0
   -2.6929   -1.0375    0.2332 C   0  0  0  0  0  0  0  0  0  0  0  0
   -3.4382   -0.9769    1.4138 C   0  0  0  0  0  0  0  0  0  0  0  0
   -4.2753    0.1155    1.6517 C   0  0  0  0  0  0  0  0  0  0  0  0
   -5.1809    0.1824    3.1135 Cl  0  0  0  0  0  0  0  0  0  0  0  0
   -4.3694    1.1400    0.7085 C   0  0  0  0  0  0  0  0  0  0  0  0
   -5.1687    2.1951    0.9233 F   0  0  0  0  0  0  0  0  0  0  0  0
   -3.6343    1.0923   -0.4711 C   0  0  0  0  0  0  0  0  0  0  0  0
    0.4795    0.8579    0.1997 C   0  0  0  0  0  0  0  0  0  0  0  0
    1.5765    0.4528    0.9677 C   0  0  0  0  0  0  0  0  0  0  0  0
    2.6472   -0.0878    0.2902 C   0  0  0  0  0  0  0  0  0  0  0  0
    4.3114    0.3817    2.5076 H   0  0  0  0  0  0  0  0  0  0  0  0
    5.2898   -1.0649    2.1597 H   0  0  0  0  0  0  0  0  0  0  0  0
    3.5939   -1.2494    2.6702 H   0  0  0  0  0  0  0  0  0  0  0  0
    1.6057    0.0172   -2.9368 H   0  0  0  0  0  0  0  0  0  0  0  0
   -0.5024    1.6395   -2.8017 H   0  0  0  0  0  0  0  0  0  0  0  0
   -2.0453   -1.8933    0.0481 H   0  0  0  0  0  0  0  0  0  0  0  0
   -3.3654   -1.7834    2.1400 H   0  0  0  0  0  0  0  0  0  0  0  0
   -3.7289    1.8971   -1.1948 H   0  0  0  0  0  0  0  0  0  0  0  0
   -0.3807    1.3000    0.6967 H   0  0  0  0  0  0  0  0  0  0  0  0
    1.5742    0.5655    2.0454 H   0  0  0  0  0  0  0  0  0  0  0  0
  1  2  1  0
  2  3  1  0
  3  4  2  0
  3  5  1  0
  5  6  1  0
  6  7  1  0
  7  8  2  0
  8  9  1  0
  9 10  1  0
 10 11  2  0
 10 12  2  0
 10 13  1  0
 13 14  1  0
 14 15  2  0
 15 16  1  0
 16 17  1  0
 16 18  2  0
 18 19  1  0
 18 20  1  0
  8 21  1  0
 21 22  2  0
 22 23  1  0
 23  2  1  0
 23  6  2  0
 20 13  2  0
  1 24  1  0
  1 25  1  0
  1 26  1  0
  7 27  1  0
  9 28  1  0
 14 29  1  0
 15 30  1  0
 20 31  1  0
 21 32  1  0
 22 33  1  0
M  END
$$$$
OCNT-2312472
     RDKit          3D

 46 49  0  0  0  0  0  0  0  0999 V2000
   -4.2434   -2.4093    0.6637 C   0  0  0  0  0  0  0  0  0  0  0  0
   -3.1877   -1.6532    1.2306 O   0  0  0  0  0  0  0  0  0  0  0  0
   -2.6159   -0.5830    0.3990 C   0  0  0  0  0  0  0  0  0  0  0  0
   -3.7366    0.5250    0.0226 C   0  0  0  0  0  0  0  0  0  0  0  0
   -4.2697    1.3776    1.0119 C   0  0  0  0  0  0  0  0  0  0  0  0
   -5.2613    2.3245    0.7280 C   0  0  0  0  0  0  0  0  0  0  0  0
   -5.7549    2.4505   -0.5643 C   0  0  0  0  0  0  0  0  0  0  0  0
   -5.2575    1.6292   -1.5675 C   0  0  0  0  0  0  0  0  0  0  0  0
   -4.2672    0.6786   -1.2748 C   0  0  0  0  0  0  0  0  0  0  0  0
   -1.3069    0.0171    1.0374 C   0  0  0  0  0  0  0  0  0  0  0  0
   -0.5575   -0.8402    0.1452 N   0  0  0  0  0  0  0  0  0  0  0  0
    0.5988   -1.5522    0.2720 C   0  0  0  0  0  0  0  0  0  0  0  0
    0.9209   -2.4222   -0.5409 O   0  0  0  0  0  0  0  0  0  0  0  0
    1.4977   -1.1984    1.4457 C   0  0  0  0  0  0  0  0  0  0  0  0
    2.4938   -0.1678    1.0410 C   0  0  0  0  0  0  0  0  0  0  0  0
    2.5271    1.1894    1.2910 C   0  0  0  0  0  0  0  0  0  0  0  0
    3.6328    1.7742    0.7396 N   0  0  0  0  0  0  0  0  0  0  0  0
    4.2883    0.7972    0.1437 C   0  0  0  0  0  0  0  0  0  0  0  0
    5.5196    0.8202   -0.6024 C   0  0  0  0  0  0  0  0  0  0  0  0
    6.2926    2.0914   -0.8370 C   0  0  0  0  0  0  0  0  0  0  0  0
    5.9735   -0.3553   -1.1055 C   0  0  0  0  0  0  0  0  0  0  0  0
    5.2666   -1.6123   -0.9244 C   0  0  0  0  0  0  0  0  0  0  0  0
    4.1181   -1.6210   -0.2306 C   0  0  0  0  0  0  0  0  0  0  0  0
    3.6326   -0.4249    0.2992 N   0  0  0  0  0  0  0  0  0  0  0  0
   -1.6712   -1.0888   -0.7496 C   0  0  0  0  0  0  0  0  0  0  0  0
   -5.1860   -1.8759    0.7788 H   0  0  0  0  0  0  0  0  0  0  0  0
   -4.3093   -3.3555    1.2033 H   0  0  0  0  0  0  0  0  0  0  0  0
   -4.0611   -2.6189   -0.3935 H   0  0  0  0  0  0  0  0  0  0  0  0
   -3.9117    1.2836    2.0353 H   0  0  0  0  0  0  0  0  0  0  0  0
   -5.6516    2.9514    1.5210 H   0  0  0  0  0  0  0  0  0  0  0  0
   -6.5316    3.1824   -0.7880 H   0  0  0  0  0  0  0  0  0  0  0  0
   -5.6435    1.7186   -2.5797 H   0  0  0  0  0  0  0  0  0  0  0  0
   -3.9120    0.0413   -2.0830 H   0  0  0  0  0  0  0  0  0  0  0  0
   -1.1873   -0.2026    2.1003 H   0  0  0  0  0  0  0  0  0  0  0  0
   -1.1224    1.0804    0.8574 H   0  0  0  0  0  0  0  0  0  0  0  0
    0.9061   -0.8469    2.2945 H   0  0  0  0  0  0  0  0  0  0  0  0
    1.9935   -2.1145    1.7880 H   0  0  0  0  0  0  0  0  0  0  0  0
    1.8084    1.7785    1.8460 H   0  0  0  0  0  0  0  0  0  0  0  0
    6.6350    2.5126    0.1131 H   0  0  0  0  0  0  0  0  0  0  0  0
    7.1690    1.9342   -1.4702 H   0  0  0  0  0  0  0  0  0  0  0  0
    5.6580    2.8315   -1.3284 H   0  0  0  0  0  0  0  0  0  0  0  0
    6.8973   -0.4005   -1.6774 H   0  0  0  0  0  0  0  0  0  0  0  0
    5.6771   -2.5125   -1.3676 H   0  0  0  0  0  0  0  0  0  0  0  0
    3.5400   -2.5238   -0.0730 H   0  0  0  0  0  0  0  0  0  0  0  0
   -1.7866   -2.1375   -1.0316 H   0  0  0  0  0  0  0  0  0  0  0  0
   -1.6142   -0.4717   -1.6499 H   0  0  0  0  0  0  0  0  0  0  0  0
  1  2  1  0
  2  3  1  0
  3  4  1  0
  4  5  2  0
  5  6  1  0
  6  7  2  0
  7  8  1  0
  8  9  2  0
  3 10  1  0
 10 11  1  0
 11 12  1  0
 12 13  2  0
 12 14  1  0
 14 15  1  0
 15 16  2  0
 16 17  1  0
 17 18  2  0
 18 19  1  0
 19 20  1  0
 19 21  2  0
 21 22  1  0
 22 23  2  0
 23 24  1  0
 11 25  1  0
 25  3  1  0
  9  4  1  0
 24 15  1  0
 24 18  1  0
  1 26  1  0
  1 27  1  0
  1 28  1  0
  5 29  1  0
  6 30  1  0
  7 31  1  0
  8 32  1  0
  9 33  1  0
 10 34  1  0
 10 35  1  0
 14 36  1  0
 14 37  1  0
 16 38  1  0
 20 39  1  0
 20 40  1  0
 20 41  1  0
 21 42  1  0
 22 43  1  0
 23 44  1  0
 25 45  1  0
 25 46  1  0
M  END
$$$$
OCNT-2312476
     RDKit          3D

 41 44  0  0  0  0  0  0  0  0999 V2000
    4.9702   -0.2787   -2.6904 C   0  0  0  0  0  0  0  0  0  0  0  0
    5.0345   -1.1290   -1.5893 C   0  0  0  0  0  0  0  0  0  0  0  0
    4.1598   -0.9510   -0.5131 C   0  0  0  0  0  0  0  0  0  0  0  0
    3.2109    0.0817   -0.5247 C   0  0  0  0  0  0  0  0  0  0  0  0
    2.2913    0.2824    0.5937 C   0  0  0  0  0  0  0  0  0  0  0  0
    1.0124    0.8014    0.6473 C   0  0  0  0  0  0  0  0  0  0  0  0
    0.6225    0.7445    2.0082 C   0  0  0  0  0  0  0  0  0  0  0  0
   -0.6886    1.1792    2.6121 C   0  0  0  0  0  0  0  0  0  0  0  0
   -1.9170    1.0173    1.8189 N   0  0  0  0  0  0  0  0  0  0  0  0
   -2.2674   -0.2771    1.3810 C   0  0  0  0  0  0  0  0  0  0  0  0
   -2.2001   -1.3577    2.2808 C   0  0  0  0  0  0  0  0  0  0  0  0
   -2.6225   -2.6395    1.9254 C   0  0  0  0  0  0  0  0  0  0  0  0
   -3.1460   -2.8690    0.6620 C   0  0  0  0  0  0  0  0  0  0  0  0
   -3.2502   -1.8165   -0.2477 C   0  0  0  0  0  0  0  0  0  0  0  0
   -2.8203   -0.5171    0.0944 C   0  0  0  0  0  0  0  0  0  0  0  0
   -2.9216    0.5217   -0.8883 N   0  0  0  0  0  0  0  0  0  0  0  0
   -3.5352    0.4659   -2.1284 C   0  0  0  0  0  0  0  0  0  0  0  0
   -3.3606    1.6861   -2.7355 C   0  0  0  0  0  0  0  0  0  0  0  0
   -2.6289    2.4359   -1.8094 C   0  0  0  0  0  0  0  0  0  0  0  0
   -2.3510    1.7517   -0.7002 N   0  0  0  0  0  0  0  0  0  0  0  0
    1.6068    0.2484    2.7725 N   0  0  0  0  0  0  0  0  0  0  0  0
    2.5899   -0.0202    1.8974 N   0  0  0  0  0  0  0  0  0  0  0  0
    3.1539    0.9242   -1.6440 C   0  0  0  0  0  0  0  0  0  0  0  0
    4.0291    0.7471   -2.7190 C   0  0  0  0  0  0  0  0  0  0  0  0
    5.6496   -0.4180   -3.5273 H   0  0  0  0  0  0  0  0  0  0  0  0
    5.7617   -1.9368   -1.5696 H   0  0  0  0  0  0  0  0  0  0  0  0
    4.2204   -1.6466    0.3196 H   0  0  0  0  0  0  0  0  0  0  0  0
    0.4185    1.1559   -0.1838 H   0  0  0  0  0  0  0  0  0  0  0  0
   -0.5951    2.2523    2.8253 H   0  0  0  0  0  0  0  0  0  0  0  0
   -0.8189    0.7098    3.5949 H   0  0  0  0  0  0  0  0  0  0  0  0
   -1.8974    1.6489    1.0056 H   0  0  0  0  0  0  0  0  0  0  0  0
   -1.8307   -1.2109    3.2923 H   0  0  0  0  0  0  0  0  0  0  0  0
   -2.5498   -3.4509    2.6447 H   0  0  0  0  0  0  0  0  0  0  0  0
   -3.4765   -3.8664    0.3834 H   0  0  0  0  0  0  0  0  0  0  0  0
   -3.6572   -2.0527   -1.2254 H   0  0  0  0  0  0  0  0  0  0  0  0
   -4.0559   -0.4129   -2.4739 H   0  0  0  0  0  0  0  0  0  0  0  0
   -3.7200    1.9888   -3.7086 H   0  0  0  0  0  0  0  0  0  0  0  0
   -2.2834    3.4585   -1.8944 H   0  0  0  0  0  0  0  0  0  0  0  0
    3.4574   -0.3988    2.2588 H   0  0  0  0  0  0  0  0  0  0  0  0
    2.4315    1.7361   -1.6865 H   0  0  0  0  0  0  0  0  0  0  0  0
    3.9739    1.4118   -3.5772 H   0  0  0  0  0  0  0  0  0  0  0  0
  1  2  2  0
  2  3  1  0
  3  4  2  0
  4  5  1  0
  5  6  2  0
  6  7  1  0
  7  8  1  0
  8  9  1  0
  9 10  1  0
 10 11  2  0
 11 12  1  0
 12 13  2  0
 13 14  1  0
 14 15  2  0
 15 16  1  0
 16 17  1  0
 17 18  2  0
 18 19  1  0
 19 20  2  0
  7 21  2  0
 21 22  1  0
  4 23  1  0
 23 24  2  0
 24  1  1  0
 22  5  1  0
 15 10  1  0
 20 16  1  0
  1 25  1  0
  2 26  1  0
  3 27  1  0
  6 28  1  0
  8 29  1  0
  8 30  1  0
  9 31  1  0
 11 32  1  0
 12 33  1  0
 13 34  1  0
 14 35  1  0
 17 36  1  0
 18 37  1  0
 19 38  1  0
 22 39  1  0
 23 40  1  0
 24 41  1  0
M  END
$$$$
OCNT-2312485
     RDKit          3D

 51 53  0  0  0  0  0  0  0  0999 V2000
   -5.6473    1.7775    3.1455 C   0  0  0  0  0  0  0  0  0  0  0  0
   -4.6869    1.8164    2.0998 O   0  0  0  0  0  0  0  0  0  0  0  0
   -3.6941    0.8683    2.1106 C   0  0  0  0  0  0  0  0  0  0  0  0
   -3.5502   -0.1136    3.0968 C   0  0  0  0  0  0  0  0  0  0  0  0
   -2.5050   -1.0376    3.0247 C   0  0  0  0  0  0  0  0  0  0  0  0
   -1.6014   -0.9960    1.9603 C   0  0  0  0  0  0  0  0  0  0  0  0
   -0.5019   -2.0008    1.9236 C   0  0  0  0  0  0  0  0  0  0  0  0
   -0.0967   -2.5155    2.9585 O   0  0  0  0  0  0  0  0  0  0  0  0
   -0.0175   -2.3209    0.6773 N   0  0  0  0  0  0  0  0  0  0  0  0
    0.9704   -3.3751    0.4953 C   0  0  0  0  0  0  0  0  0  0  0  0
    1.6856   -3.2268   -0.8512 C   0  0  0  0  0  0  0  0  0  0  0  0
    2.1039   -4.2070   -1.4606 O   0  0  0  0  0  0  0  0  0  0  0  0
    1.8715   -1.9038   -1.2065 N   0  0  0  0  0  0  0  0  0  0  0  0
    2.3696   -1.3693   -2.4166 C   0  0  0  0  0  0  0  0  0  0  0  0
    2.6072   -2.1767   -3.5362 C   0  0  0  0  0  0  0  0  0  0  0  0
    3.0567   -1.6221   -4.7357 C   0  0  0  0  0  0  0  0  0  0  0  0
    3.2670   -0.2526   -4.8344 C   0  0  0  0  0  0  0  0  0  0  0  0
    3.0401    0.5667   -3.7276 C   0  0  0  0  0  0  0  0  0  0  0  0
    2.6010    0.0282   -2.5023 C   0  0  0  0  0  0  0  0  0  0  0  0
    2.4140    0.9080   -1.3315 C   0  0  0  0  0  0  0  0  0  0  0  0
    1.7053    0.6295   -0.2461 N   0  0  0  0  0  0  0  0  0  0  0  0
    1.8931    1.6791    0.6262 C   0  0  0  0  0  0  0  0  0  0  0  0
    1.2846    1.6782    1.9752 C   0  0  0  0  0  0  0  0  0  0  0  0
    2.6962    2.6335    0.0488 C   0  0  0  0  0  0  0  0  0  0  0  0
    3.0221    2.1352   -1.1801 N   0  0  0  0  0  0  0  0  0  0  0  0
   -1.7294   -0.0058    0.9770 C   0  0  0  0  0  0  0  0  0  0  0  0
   -2.7701    0.9277    1.0461 C   0  0  0  0  0  0  0  0  0  0  0  0
   -2.9692    1.9308    0.1289 O   0  0  0  0  0  0  0  0  0  0  0  0
   -1.9989    2.0923   -0.8972 C   0  0  0  0  0  0  0  0  0  0  0  0
   -6.3633    2.5867    2.9721 H   0  0  0  0  0  0  0  0  0  0  0  0
   -5.1780    1.9525    4.1191 H   0  0  0  0  0  0  0  0  0  0  0  0
   -6.2037    0.8344    3.1369 H   0  0  0  0  0  0  0  0  0  0  0  0
   -4.2317   -0.1865    3.9378 H   0  0  0  0  0  0  0  0  0  0  0  0
   -2.3999   -1.7937    3.8010 H   0  0  0  0  0  0  0  0  0  0  0  0
   -0.5548   -2.0545   -0.1384 H   0  0  0  0  0  0  0  0  0  0  0  0
    1.7075   -3.3463    1.3034 H   0  0  0  0  0  0  0  0  0  0  0  0
    0.4374   -4.3305    0.5168 H   0  0  0  0  0  0  0  0  0  0  0  0
    1.6523   -1.2103   -0.4837 H   0  0  0  0  0  0  0  0  0  0  0  0
    2.4379   -3.2491   -3.5089 H   0  0  0  0  0  0  0  0  0  0  0  0
    3.2326   -2.2664   -5.5939 H   0  0  0  0  0  0  0  0  0  0  0  0
    3.6063    0.1776   -5.7735 H   0  0  0  0  0  0  0  0  0  0  0  0
    3.2024    1.6339   -3.8491 H   0  0  0  0  0  0  0  0  0  0  0  0
    0.2979    2.1491    1.9478 H   0  0  0  0  0  0  0  0  0  0  0  0
    1.9085    2.2302    2.6854 H   0  0  0  0  0  0  0  0  0  0  0  0
    1.1753    0.6563    2.3495 H   0  0  0  0  0  0  0  0  0  0  0  0
    3.0723    3.5822    0.4052 H   0  0  0  0  0  0  0  0  0  0  0  0
    3.6504    2.5649   -1.8430 H   0  0  0  0  0  0  0  0  0  0  0  0
   -0.9921    0.0495    0.1840 H   0  0  0  0  0  0  0  0  0  0  0  0
   -1.0134    2.3167   -0.4776 H   0  0  0  0  0  0  0  0  0  0  0  0
   -2.3003    2.9474   -1.5097 H   0  0  0  0  0  0  0  0  0  0  0  0
   -1.9633    1.2137   -1.5496 H   0  0  0  0  0  0  0  0  0  0  0  0
  1  2  1  0
  2  3  1  0
  3  4  1  0
  4  5  2  0
  5  6  1  0
  6  7  1  0
  7  8  2  0
  7  9  1  0
  9 10  1  0
 10 11  1  0
 11 12  2  0
 11 13  1  0
 13 14  1  0
 14 15  2  0
 15 16  1  0
 16 17  2  0
 17 18  1  0
 18 19  2  0
 19 20  1  0
 20 21  2  0
 21 22  1  0
 22 23  1  0
 22 24  2  0
 24 25  1  0
  6 26  2  0
 26 27  1  0
 27 28  1  0
 28 29  1  0
 27  3  2  0
 19 14  1  0
 25 20  1  0
  1 30  1  0
  1 31  1  0
  1 32  1  0
  4 33  1  0
  5 34  1  0
  9 35  1  0
 10 36  1  0
 10 37  1  0
 13 38  1  0
 15 39  1  0
 16 40  1  0
 17 41  1  0
 18 42  1  0
 23 43  1  0
 23 44  1  0
 23 45  1  0
 24 46  1  0
 25 47  1  0
 26 48  1  0
 29 49  1  0
 29 50  1  0
 29 51  1  0
M  END
$$$$
OCNT-2312497
     RDKit          3D

 45 47  0  0  0  0  0  0  0  0999 V2000
   -5.3163   -1.0816   -1.1511 C   0  0  0  0  0  0  0  0  0  0  0  0
   -3.9338   -1.5314   -1.6362 C   0  0  0  0  0  0  0  0  0  0  0  0
   -3.7450   -3.0372   -1.4287 C   0  0  0  0  0  0  0  0  0  0  0  0
   -2.8162   -0.7441   -0.9729 C   0  0  0  0  0  0  0  0  0  0  0  0
   -2.6636   -0.7126    0.4209 C   0  0  0  0  0  0  0  0  0  0  0  0
   -1.6269    0.0172    1.0120 C   0  0  0  0  0  0  0  0  0  0  0  0
   -0.7071    0.7272    0.2238 C   0  0  0  0  0  0  0  0  0  0  0  0
    0.3959    1.5331    0.8930 C   0  0  0  0  0  0  0  0  0  0  0  0
    0.0265    3.0257    0.8992 C   0  0  0  0  0  0  0  0  0  0  0  0
    0.9732    3.8543    1.7603 C   0  0  0  0  0  0  0  0  0  0  0  0
    0.5715    5.2185    1.7396 O   0  0  0  0  0  0  0  0  0  0  0  0
    1.6658    1.3328    0.2291 N   0  0  0  0  0  0  0  0  0  0  0  0
    2.4935    0.2439    0.2675 C   0  0  0  0  0  0  0  0  0  0  0  0
    3.5942    0.3649   -0.4442 N   0  0  0  0  0  0  0  0  0  0  0  0
    4.4726   -0.6850   -0.4419 C   0  0  0  0  0  0  0  0  0  0  0  0
    5.6835   -0.8930   -1.0558 C   0  0  0  0  0  0  0  0  0  0  0  0
    6.6252    0.2519   -2.1948 Br  0  0  0  0  0  0  0  0  0  0  0  0
    6.1075   -2.1658   -0.6650 C   0  0  0  0  0  0  0  0  0  0  0  0
    5.2334   -2.7618    0.1503 N   0  0  0  0  0  0  0  0  0  0  0  0
    4.2263   -1.8555    0.2801 N   0  0  0  0  0  0  0  0  0  0  0  0
    3.0633   -1.9860    1.0281 C   0  0  0  0  0  0  0  0  0  0  0  0
    2.1696   -0.9898    1.0662 C   0  0  0  0  0  0  0  0  0  0  0  0
   -0.8608    0.6952   -1.1708 C   0  0  0  0  0  0  0  0  0  0  0  0
   -1.8996   -0.0329   -1.7606 C   0  0  0  0  0  0  0  0  0  0  0  0
   -5.4606   -0.0076   -1.3214 H   0  0  0  0  0  0  0  0  0  0  0  0
   -6.1070   -1.6141   -1.6895 H   0  0  0  0  0  0  0  0  0  0  0  0
   -5.4569   -1.2727   -0.0810 H   0  0  0  0  0  0  0  0  0  0  0  0
   -3.8994   -1.3438   -2.7188 H   0  0  0  0  0  0  0  0  0  0  0  0
   -2.7725   -3.3678   -1.8123 H   0  0  0  0  0  0  0  0  0  0  0  0
   -4.5205   -3.5975   -1.9572 H   0  0  0  0  0  0  0  0  0  0  0  0
   -3.7944   -3.3137   -0.3696 H   0  0  0  0  0  0  0  0  0  0  0  0
   -3.3536   -1.2570    1.0626 H   0  0  0  0  0  0  0  0  0  0  0  0
   -1.5473    0.0243    2.0980 H   0  0  0  0  0  0  0  0  0  0  0  0
    0.4944    1.2063    1.9379 H   0  0  0  0  0  0  0  0  0  0  0  0
   -0.9957    3.1590    1.2794 H   0  0  0  0  0  0  0  0  0  0  0  0
    0.0123    3.4351   -0.1214 H   0  0  0  0  0  0  0  0  0  0  0  0
    1.9993    3.8076    1.3827 H   0  0  0  0  0  0  0  0  0  0  0  0
    0.9734    3.5092    2.7995 H   0  0  0  0  0  0  0  0  0  0  0  0
   -0.3250    5.2743    2.1130 H   0  0  0  0  0  0  0  0  0  0  0  0
    1.9607    2.0405   -0.4413 H   0  0  0  0  0  0  0  0  0  0  0  0
    7.0152   -2.6924   -0.9383 H   0  0  0  0  0  0  0  0  0  0  0  0
    2.9402   -2.9210    1.5578 H   0  0  0  0  0  0  0  0  0  0  0  0
    1.2561   -1.0513    1.6343 H   0  0  0  0  0  0  0  0  0  0  0  0
   -0.1675    1.2338   -1.8147 H   0  0  0  0  0  0  0  0  0  0  0  0
   -1.9838   -0.0394   -2.8457 H   0  0  0  0  0  0  0  0  0  0  0  0
  1  2  1  0
  2  3  1  0
  2  4  1  0
  4  5  1  0
  5  6  2  0
  6  7  1  0
  7  8  1  0
  8  9  1  0
  9 10  1  0
 10 11  1  0
  8 12  1  0
 12 13  1  0
 13 14  2  0
 14 15  1  0
 15 16  2  0
 16 17  1  0
 16 18  1  0
 18 19  2  0
 19 20  1  0
 20 21  1  0
 21 22  2  0
  7 23  2  0
 23 24  1  0
 24  4  2  0
 22 13  1  0
 20 15  1  0
  1 25  1  0
  1 26  1  0
  1 27  1  0
  2 28  1  0
  3 29  1  0
  3 30  1  0
  3 31  1  0
  5 32  1  0
  6 33  1  0
  8 34  1  0
  9 35  1  0
  9 36  1  0
 10 37  1  0
 10 38  1  0
 11 39  1  0
 12 40  1  0
 18 41  1  0
 21 42  1  0
 22 43  1  0
 23 44  1  0
 24 45  1  0
M  END
$$$$
OCNT-2312506
     RDKit          3D

 52 55  0  0  0  0  0  0  0  0999 V2000
   -7.3125    0.3882   -0.5468 C   0  0  0  0  0  0  0  0  0  0  0  0
   -7.1931    0.2971    0.9016 N   0  0  0  0  0  0  0  0  0  0  0  0
   -5.8076    0.8875    1.6386 S   0  0  0  0  0  0  0  0  0  0  0  0
   -6.1236    1.0366    3.0419 O   0  0  0  0  0  0  0  0  0  0  0  0
   -5.3053    1.9916    0.8509 O   0  0  0  0  0  0  0  0  0  0  0  0
   -4.6889   -0.4808    1.4809 C   0  0  0  0  0  0  0  0  0  0  0  0
   -4.7830   -1.5499    2.3738 C   0  0  0  0  0  0  0  0  0  0  0  0
   -3.8821   -2.6078    2.2709 C   0  0  0  0  0  0  0  0  0  0  0  0
   -2.8899   -2.5917    1.2864 C   0  0  0  0  0  0  0  0  0  0  0  0
   -2.7829   -1.5182    0.3867 C   0  0  0  0  0  0  0  0  0  0  0  0
   -1.6798   -1.5104   -0.6589 C   0  0  0  0  0  0  0  0  0  0  0  0
   -2.2527   -1.4185   -2.0767 C   0  0  0  0  0  0  0  0  0  0  0  0
   -0.7522   -0.4237   -0.3828 N   0  0  0  0  0  0  0  0  0  0  0  0
    0.5117   -0.4000   -0.9293 C   0  0  0  0  0  0  0  0  0  0  0  0
    0.9358   -1.2509   -1.7020 O   0  0  0  0  0  0  0  0  0  0  0  0
    1.3972    0.7200   -0.4974 C   0  0  0  0  0  0  0  0  0  0  0  0
    2.7859    0.4469   -0.4634 C   0  0  0  0  0  0  0  0  0  0  0  0
    3.5211    1.5608   -0.0606 C   0  0  0  0  0  0  0  0  0  0  0  0
    4.8809    1.6492    0.0899 C   0  0  0  0  0  0  0  0  0  0  0  0
    6.0370    0.7857   -0.1059 C   0  0  0  0  0  0  0  0  0  0  0  0
    6.1042   -0.0978   -1.1951 C   0  0  0  0  0  0  0  0  0  0  0  0
    7.2170   -0.9248   -1.3737 C   0  0  0  0  0  0  0  0  0  0  0  0
    8.2672   -0.8680   -0.4665 C   0  0  0  0  0  0  0  0  0  0  0  0
    9.3329   -1.6604   -0.6389 F   0  0  0  0  0  0  0  0  0  0  0  0
    8.2285    0.0026    0.6145 C   0  0  0  0  0  0  0  0  0  0  0  0
    7.1163    0.8295    0.7932 C   0  0  0  0  0  0  0  0  0  0  0  0
    5.1636    2.9128    0.5329 O   0  0  0  0  0  0  0  0  0  0  0  0
    4.0046    3.6578    0.6584 N   0  0  0  0  0  0  0  0  0  0  0  0
    2.9918    2.8539    0.3012 C   0  0  0  0  0  0  0  0  0  0  0  0
    1.6107    3.1092    0.2486 C   0  0  0  0  0  0  0  0  0  0  0  0
    0.8364    2.0015   -0.1696 C   0  0  0  0  0  0  0  0  0  0  0  0
   -3.6923   -0.4533    0.4993 C   0  0  0  0  0  0  0  0  0  0  0  0
   -6.3872    0.0927   -1.0478 H   0  0  0  0  0  0  0  0  0  0  0  0
   -7.5858    1.4051   -0.8408 H   0  0  0  0  0  0  0  0  0  0  0  0
   -8.1051   -0.2875   -0.8808 H   0  0  0  0  0  0  0  0  0  0  0  0
   -8.0294    0.4236    1.4700 H   0  0  0  0  0  0  0  0  0  0  0  0
   -5.5471   -1.5612    3.1479 H   0  0  0  0  0  0  0  0  0  0  0  0
   -3.9465   -3.4451    2.9622 H   0  0  0  0  0  0  0  0  0  0  0  0
   -2.1930   -3.4269    1.2303 H   0  0  0  0  0  0  0  0  0  0  0  0
   -1.1112   -2.4468   -0.5902 H   0  0  0  0  0  0  0  0  0  0  0  0
   -2.7487   -0.4580   -2.2555 H   0  0  0  0  0  0  0  0  0  0  0  0
   -1.4626   -1.5151   -2.8286 H   0  0  0  0  0  0  0  0  0  0  0  0
   -2.9835   -2.2147   -2.2568 H   0  0  0  0  0  0  0  0  0  0  0  0
   -0.9479    0.1621    0.4181 H   0  0  0  0  0  0  0  0  0  0  0  0
    3.1959   -0.5228   -0.7147 H   0  0  0  0  0  0  0  0  0  0  0  0
    5.3021   -0.1407   -1.9287 H   0  0  0  0  0  0  0  0  0  0  0  0
    7.2715   -1.6063   -2.2169 H   0  0  0  0  0  0  0  0  0  0  0  0
    9.0610    0.0349    1.3102 H   0  0  0  0  0  0  0  0  0  0  0  0
    7.0964    1.5072    1.6453 H   0  0  0  0  0  0  0  0  0  0  0  0
    1.1832    4.0715    0.4973 H   0  0  0  0  0  0  0  0  0  0  0  0
   -0.2387    2.1552   -0.2646 H   0  0  0  0  0  0  0  0  0  0  0  0
   -3.6203    0.3983   -0.1750 H   0  0  0  0  0  0  0  0  0  0  0  0
  1  2  1  0
  2  3  1  0
  3  4  2  0
  3  5  2  0
  3  6  1  0
  6  7  2  0
  7  8  1  0
  8  9  2  0
  9 10  1  0
 10 11  1  0
 11 12  1  0
 11 13  1  0
 13 14  1  0
 14 15  2  0
 14 16  1  0
 16 17  2  0
 17 18  1  0
 18 19  2  0
 19 20  1  0
 20 21  1  0
 21 22  2  0
 22 23  1  0
 23 24  1  0
 23 25  2  0
 25 26  1  0
 19 27  1  0
 27 28  1  0
 28 29  2  0
 29 30  1  0
 30 31  2  0
 10 32  2  0
 32  6  1  0
 31 16  1  0
 29 18  1  0
 26 20  2  0
  1 33  1  0
  1 34  1  0
  1 35  1  0
  2 36  1  0
  7 37  1  0
  8 38  1  0
  9 39  1  0
 11 40  1  0
 12 41  1  0
 12 42  1  0
 12 43  1  0
 13 44  1  0
 17 45  1  0
 21 46  1  0
 22 47  1  0
 25 48  1  0
 26 49  1  0
 30 50  1  0
 31 51  1  0
 32 52  1  0
M  END
$$$$
OCNT-2312510
     RDKit          3D

 53 56  0  0  0  0  0  0  0  0999 V2000
    3.9315    1.0175   -1.1117 O   0  0  0  0  0  0  0  0  0  0  0  0
    3.8636    0.6988    0.0670 C   0  0  0  0  0  0  0  0  0  0  0  0
    4.8979    0.2752    0.8728 N   0  0  0  0  0  0  0  0  0  0  0  0
    6.2307    0.0203    0.4943 C   0  0  0  0  0  0  0  0  0  0  0  0
    7.1489   -0.2476    1.5204 C   0  0  0  0  0  0  0  0  0  0  0  0
    8.4873   -0.5181    1.2236 C   0  0  0  0  0  0  0  0  0  0  0  0
    8.9057   -0.5263   -0.0999 C   0  0  0  0  0  0  0  0  0  0  0  0
   10.1883   -0.7849   -0.3854 F   0  0  0  0  0  0  0  0  0  0  0  0
    8.0105   -0.2709   -1.1297 C   0  0  0  0  0  0  0  0  0  0  0  0
    6.6714    0.0014   -0.8327 C   0  0  0  0  0  0  0  0  0  0  0  0
    2.6784    0.7365    0.7798 N   0  0  0  0  0  0  0  0  0  0  0  0
    1.4253    1.1217    0.1296 C   0  0  0  0  0  0  0  0  0  0  0  0
    0.4100    1.5785    1.1827 C   0  0  0  0  0  0  0  0  0  0  0  0
   -1.0178    1.2715    0.7479 C   0  0  0  0  0  0  0  0  0  0  0  0
   -1.1708   -0.1794    0.6031 N   0  0  0  0  0  0  0  0  0  0  0  0
   -2.4776   -0.6440    0.4587 C   0  0  0  0  0  0  0  0  0  0  0  0
   -2.7605   -1.9955    0.5124 C   0  0  0  0  0  0  0  0  0  0  0  0
   -4.0820   -2.3921    0.3901 C   0  0  0  0  0  0  0  0  0  0  0  0
   -4.4086   -3.8741    0.4260 C   0  0  0  0  0  0  0  0  0  0  0  0
   -5.7079   -4.1504    0.7299 F   0  0  0  0  0  0  0  0  0  0  0  0
   -4.1612   -4.4893   -0.7662 F   0  0  0  0  0  0  0  0  0  0  0  0
   -3.6632   -4.5541    1.3473 F   0  0  0  0  0  0  0  0  0  0  0  0
   -5.0798   -1.4956    0.2105 N   0  0  0  0  0  0  0  0  0  0  0  0
   -4.7332   -0.1997    0.1847 C   0  0  0  0  0  0  0  0  0  0  0  0
   -5.8035    0.7982    0.0069 C   0  0  0  0  0  0  0  0  0  0  0  0
   -5.5219    2.1708   -0.0681 C   0  0  0  0  0  0  0  0  0  0  0  0
   -6.5608    3.0734   -0.2345 C   0  0  0  0  0  0  0  0  0  0  0  0
   -7.8564    2.7153   -0.3316 N   0  0  0  0  0  0  0  0  0  0  0  0
   -8.1229    1.3960   -0.2602 C   0  0  0  0  0  0  0  0  0  0  0  0
   -7.1514    0.4209   -0.0951 C   0  0  0  0  0  0  0  0  0  0  0  0
   -3.4711    0.2483    0.3114 N   0  0  0  0  0  0  0  0  0  0  0  0
   -0.0812   -0.9225   -0.0416 C   0  0  0  0  0  0  0  0  0  0  0  0
    0.8781    0.0090   -0.7761 C   0  0  0  0  0  0  0  0  0  0  0  0
    4.7076    0.3019    1.8631 H   0  0  0  0  0  0  0  0  0  0  0  0
    6.8382   -0.2444    2.5619 H   0  0  0  0  0  0  0  0  0  0  0  0
    9.2026   -0.7208    2.0140 H   0  0  0  0  0  0  0  0  0  0  0  0
    8.3546   -0.2821   -2.1589 H   0  0  0  0  0  0  0  0  0  0  0  0
    5.9961    0.1931   -1.6608 H   0  0  0  0  0  0  0  0  0  0  0  0
    2.6096    0.0676    1.5326 H   0  0  0  0  0  0  0  0  0  0  0  0
    1.6613    1.9777   -0.5164 H   0  0  0  0  0  0  0  0  0  0  0  0
    0.6023    1.0819    2.1436 H   0  0  0  0  0  0  0  0  0  0  0  0
    0.5277    2.6535    1.3651 H   0  0  0  0  0  0  0  0  0  0  0  0
   -1.2530    1.7874   -0.1918 H   0  0  0  0  0  0  0  0  0  0  0  0
   -1.6946    1.6541    1.5226 H   0  0  0  0  0  0  0  0  0  0  0  0
   -1.9802   -2.7295    0.6736 H   0  0  0  0  0  0  0  0  0  0  0  0
   -4.5026    2.5388    0.0015 H   0  0  0  0  0  0  0  0  0  0  0  0
   -6.3686    4.1409   -0.2954 H   0  0  0  0  0  0  0  0  0  0  0  0
   -9.1730    1.1296   -0.3411 H   0  0  0  0  0  0  0  0  0  0  0  0
   -7.4486   -0.6226   -0.0461 H   0  0  0  0  0  0  0  0  0  0  0  0
   -0.4564   -1.6491   -0.7728 H   0  0  0  0  0  0  0  0  0  0  0  0
    0.4612   -1.4848    0.7277 H   0  0  0  0  0  0  0  0  0  0  0  0
    0.3334    0.4752   -1.6084 H   0  0  0  0  0  0  0  0  0  0  0  0
    1.6864   -0.5768   -1.2284 H   0  0  0  0  0  0  0  0  0  0  0  0
  1  2  2  0
  2  3  1  0
  3  4  1  0
  4  5  1  0
  5  6  2  0
  6  7  1  0
  7  8  1  0
  7  9  2  0
  9 10  1  0
  2 11  1  0
 11 12  1  0
 12 13  1  0
 13 14  1  0
 14 15  1  0
 15 16  1  0
 16 17  2  0
 17 18  1  0
 18 19  1  0
 19 20  1  0
 19 21  1  0
 19 22  1  0
 18 23  2  0
 23 24  1  0
 24 25  1  0
 25 26  2  0
 26 27  1  0
 27 28  2  0
 28 29  1  0
 29 30  2  0
 24 31  2  0
 15 32  1  0
 32 33  1  0
 10  4  2  0
 33 12  1  0
 31 16  1  0
 30 25  1  0
  3 34  1  0
  5 35  1  0
  6 36  1  0
  9 37  1  0
 10 38  1  0
 11 39  1  0
 12 40  1  0
 13 41  1  0
 13 42  1  0
 14 43  1  0
 14 44  1  0
 17 45  1  0
 26 46  1  0
 27 47  1  0
 29 48  1  0
 30 49  1  0
 32 50  1  0
 32 51  1  0
 33 52  1  0
 33 53  1  0
M  END
$$$$
OCNT-2312526
     RDKit          3D

 45 47  0  0  0  0  0  0  0  0999 V2000
    1.8053    0.0705    1.9501 O   0  0  0  0  0  0  0  0  0  0  0  0
    1.8503   -0.1074    0.7380 C   0  0  0  0  0  0  0  0  0  0  0  0
    0.7146   -0.1448   -0.0491 N   0  0  0  0  0  0  0  0  0  0  0  0
   -0.5909    0.1436    0.5177 C   0  0  0  0  0  0  0  0  0  0  0  0
   -1.6343   -0.4903   -0.3981 C   0  0  0  0  0  0  0  0  0  0  0  0
   -1.7019   -2.0404   -0.3331 C   0  0  0  0  0  0  0  0  0  0  0  0
   -3.2271   -1.8486   -0.3457 C   0  0  0  0  0  0  0  0  0  0  0  0
   -3.0036   -0.4842    0.1825 N   0  0  0  0  0  0  0  0  0  0  0  0
   -3.9463    0.4837   -0.3764 C   0  0  0  0  0  0  0  0  0  0  0  0
   -4.1051    0.6760   -1.8903 C   0  0  0  0  0  0  0  0  0  0  0  0
   -4.9294    1.9574   -2.0040 C   0  0  0  0  0  0  0  0  0  0  0  0
   -4.6305    2.7673   -0.7422 C   0  0  0  0  0  0  0  0  0  0  0  0
   -3.6743    1.9166    0.0907 C   0  0  0  0  0  0  0  0  0  0  0  0
    3.1008   -0.2819    0.0166 C   0  0  0  0  0  0  0  0  0  0  0  0
    3.3024   -0.6411   -1.3067 C   0  0  0  0  0  0  0  0  0  0  0  0
    4.6545   -0.6847   -1.4969 N   0  0  0  0  0  0  0  0  0  0  0  0
    5.3582   -0.3605   -0.4035 N   0  0  0  0  0  0  0  0  0  0  0  0
    4.4167   -0.1500    0.5174 C   0  0  0  0  0  0  0  0  0  0  0  0
    4.7659    0.1974    1.7743 O   0  0  0  0  0  0  0  0  0  0  0  0
    6.1357   -0.0432    2.1142 C   0  0  0  0  0  0  0  0  0  0  0  0
    6.4399   -1.4976    2.4449 C   0  0  0  0  0  0  0  0  0  0  0  0
    6.2971   -2.3412    1.4023 F   0  0  0  0  0  0  0  0  0  0  0  0
    7.7241   -1.6143    2.8722 F   0  0  0  0  0  0  0  0  0  0  0  0
    5.6543   -1.9513    3.4498 F   0  0  0  0  0  0  0  0  0  0  0  0
    0.8318   -0.0590   -1.0475 H   0  0  0  0  0  0  0  0  0  0  0  0
   -0.6481   -0.2436    1.5411 H   0  0  0  0  0  0  0  0  0  0  0  0
   -0.6936    1.2321    0.5537 H   0  0  0  0  0  0  0  0  0  0  0  0
   -1.5565   -0.1277   -1.4296 H   0  0  0  0  0  0  0  0  0  0  0  0
   -1.3216   -2.4851    0.5944 H   0  0  0  0  0  0  0  0  0  0  0  0
   -1.2798   -2.5751   -1.1879 H   0  0  0  0  0  0  0  0  0  0  0  0
   -3.7845   -2.5109    0.3229 H   0  0  0  0  0  0  0  0  0  0  0  0
   -3.6580   -1.9243   -1.3499 H   0  0  0  0  0  0  0  0  0  0  0  0
   -4.9346    0.2040    0.0189 H   0  0  0  0  0  0  0  0  0  0  0  0
   -3.1455    0.8324   -2.3921 H   0  0  0  0  0  0  0  0  0  0  0  0
   -4.6113   -0.1619   -2.3784 H   0  0  0  0  0  0  0  0  0  0  0  0
   -5.9981    1.7189   -2.0463 H   0  0  0  0  0  0  0  0  0  0  0  0
   -4.6809    2.5127   -2.9136 H   0  0  0  0  0  0  0  0  0  0  0  0
   -5.5583    2.9518   -0.1896 H   0  0  0  0  0  0  0  0  0  0  0  0
   -4.1912    3.7415   -0.9788 H   0  0  0  0  0  0  0  0  0  0  0  0
   -3.8415    2.0492    1.1642 H   0  0  0  0  0  0  0  0  0  0  0  0
   -2.6456    2.2199   -0.1320 H   0  0  0  0  0  0  0  0  0  0  0  0
    2.6266   -0.8845   -2.1130 H   0  0  0  0  0  0  0  0  0  0  0  0
    5.1635   -0.9247   -2.3423 H   0  0  0  0  0  0  0  0  0  0  0  0
    6.3220    0.5462    3.0196 H   0  0  0  0  0  0  0  0  0  0  0  0
    6.8286    0.3568    1.3637 H   0  0  0  0  0  0  0  0  0  0  0  0
  1  2  2  0
  2  3  1  0
  3  4  1  0
  4  5  1  0
  5  6  1  0
  6  7  1  0
  7  8  1  0
  8  9  1  0
  9 10  1  0
 10 11  1  0
 11 12  1  0
 12 13  1  0
  2 14  1  0
 14 15  2  0
 15 16  1  0
 16 17  1  0
 17 18  2  0
 18 19  1  0
 19 20  1  0
 20 21  1  0
 21 22  1  0
 21 23  1  0
 21 24  1  0
  8  5  1  0
 13  9  1  0
 18 14  1  0
  3 25  1  0
  4 26  1  0
  4 27  1  0
  5 28  1  0
  6 29  1  0
  6 30  1  0
  7 31  1  0
  7 32  1  0
  9 33  1  0
 10 34  1  0
 10 35  1  0
 11 36  1  0
 11 37  1  0
 12 38  1  0
 12 39  1  0
 13 40  1  0
 13 41  1  0
 15 42  1  0
 16 43  1  0
 20 44  1  0
 20 45  1  0
M  END
$$$$
OCNT-2312546
     RDKit          3D

 50 53  0  0  0  0  0  0  0  0999 V2000
   -6.1453   -1.1147    2.3491 C   0  0  0  0  0  0  0  0  0  0  0  0
   -5.2166   -0.2481    1.7133 O   0  0  0  0  0  0  0  0  0  0  0  0
   -5.3198   -0.0890    0.3525 C   0  0  0  0  0  0  0  0  0  0  0  0
   -6.3667   -0.6160   -0.4172 C   0  0  0  0  0  0  0  0  0  0  0  0
   -6.4001   -0.4253   -1.8002 C   0  0  0  0  0  0  0  0  0  0  0  0
   -5.3905    0.2934   -2.4284 C   0  0  0  0  0  0  0  0  0  0  0  0
   -4.3473    0.8267   -1.6720 C   0  0  0  0  0  0  0  0  0  0  0  0
   -4.2907    0.6524   -0.2744 C   0  0  0  0  0  0  0  0  0  0  0  0
   -3.1636    1.2466    0.4751 C   0  0  0  0  0  0  0  0  0  0  0  0
   -3.3873    2.1767    1.5015 C   0  0  0  0  0  0  0  0  0  0  0  0
   -2.3213    2.7431    2.1994 C   0  0  0  0  0  0  0  0  0  0  0  0
   -1.0114    2.3923    1.8742 C   0  0  0  0  0  0  0  0  0  0  0  0
   -0.7552    1.4781    0.8466 C   0  0  0  0  0  0  0  0  0  0  0  0
    0.5936    1.1678    0.5809 N   0  0  0  0  0  0  0  0  0  0  0  0
    1.0960    0.4571   -0.4864 C   0  0  0  0  0  0  0  0  0  0  0  0
    0.4765    0.0547   -1.4615 O   0  0  0  0  0  0  0  0  0  0  0  0
    2.4511    0.2527   -0.3366 N   0  0  0  0  0  0  0  0  0  0  0  0
    3.1881   -0.5068   -1.3239 C   0  0  0  0  0  0  0  0  0  0  0  0
    2.9432   -2.0280   -1.2234 C   0  0  0  0  0  0  0  0  0  0  0  0
    3.9869   -2.5821   -0.2414 C   0  0  0  0  0  0  0  0  0  0  0  0
    5.1134   -1.6149   -0.4303 C   0  0  0  0  0  0  0  0  0  0  0  0
    6.4355   -1.7584   -0.0422 C   0  0  0  0  0  0  0  0  0  0  0  0
    7.3179   -0.7022   -0.2860 C   0  0  0  0  0  0  0  0  0  0  0  0
    6.8571    0.4713   -0.8975 C   0  0  0  0  0  0  0  0  0  0  0  0
    7.7006    1.5174   -1.1374 O   0  0  0  0  0  0  0  0  0  0  0  0
    5.5262    0.6191   -1.2767 C   0  0  0  0  0  0  0  0  0  0  0  0
    4.6615   -0.4377   -1.0410 C   0  0  0  0  0  0  0  0  0  0  0  0
   -1.8325    0.9077    0.1616 C   0  0  0  0  0  0  0  0  0  0  0  0
   -5.8717   -1.1792    3.4066 H   0  0  0  0  0  0  0  0  0  0  0  0
   -6.0967   -2.1259    1.9315 H   0  0  0  0  0  0  0  0  0  0  0  0
   -7.1612   -0.7103    2.2940 H   0  0  0  0  0  0  0  0  0  0  0  0
   -7.1763   -1.1820    0.0309 H   0  0  0  0  0  0  0  0  0  0  0  0
   -7.2158   -0.8408   -2.3862 H   0  0  0  0  0  0  0  0  0  0  0  0
   -5.4113    0.4421   -3.5047 H   0  0  0  0  0  0  0  0  0  0  0  0
   -3.5673    1.3925   -2.1796 H   0  0  0  0  0  0  0  0  0  0  0  0
   -4.4048    2.4601    1.7632 H   0  0  0  0  0  0  0  0  0  0  0  0
   -2.5143    3.4572    2.9952 H   0  0  0  0  0  0  0  0  0  0  0  0
   -0.1976    2.8475    2.4317 H   0  0  0  0  0  0  0  0  0  0  0  0
    1.2848    1.6506    1.1343 H   0  0  0  0  0  0  0  0  0  0  0  0
    2.8000    0.2167    0.6088 H   0  0  0  0  0  0  0  0  0  0  0  0
    2.9433   -0.1440   -2.3284 H   0  0  0  0  0  0  0  0  0  0  0  0
    1.9235   -2.2955   -0.9282 H   0  0  0  0  0  0  0  0  0  0  0  0
    3.1223   -2.4787   -2.2101 H   0  0  0  0  0  0  0  0  0  0  0  0
    4.2691   -3.6075   -0.4964 H   0  0  0  0  0  0  0  0  0  0  0  0
    3.6223   -2.5383    0.7901 H   0  0  0  0  0  0  0  0  0  0  0  0
    6.7818   -2.6674    0.4397 H   0  0  0  0  0  0  0  0  0  0  0  0
    8.3574   -0.8052    0.0101 H   0  0  0  0  0  0  0  0  0  0  0  0
    8.5945    1.2648   -0.8547 H   0  0  0  0  0  0  0  0  0  0  0  0
    5.1804    1.5367   -1.7408 H   0  0  0  0  0  0  0  0  0  0  0  0
   -1.6619    0.1732   -0.6210 H   0  0  0  0  0  0  0  0  0  0  0  0
  1  2  1  0
  2  3  1  0
  3  4  2  0
  4  5  1  0
  5  6  2  0
  6  7  1  0
  7  8  2  0
  8  9  1  0
  9 10  1  0
 10 11  2  0
 11 12  1  0
 12 13  2  0
 13 14  1  0
 14 15  1  0
 15 16  2  0
 15 17  1  0
 17 18  1  0
 18 19  1  0
 19 20  1  0
 20 21  1  0
 21 22  1  0
 22 23  2  0
 23 24  1  0
 24 25  1  0
 24 26  2  0
 26 27  1  0
 13 28  1  0
  8  3  1  0
 28  9  2  0
 27 18  1  0
 27 21  2  0
  1 29  1  0
  1 30  1  0
  1 31  1  0
  4 32  1  0
  5 33  1  0
  6 34  1  0
  7 35  1  0
 10 36  1  0
 11 37  1  0
 12 38  1  0
 14 39  1  0
 17 40  1  0
 18 41  1  0
 19 42  1  0
 19 43  1  0
 20 44  1  0
 20 45  1  0
 22 46  1  0
 23 47  1  0
 25 48  1  0
 26 49  1  0
 28 50  1  0
M  END
$$$$
OCNT-2312554
     RDKit          3D

 42 45  0  0  0  0  0  0  0  0999 V2000
   -0.9634    0.5665    1.5139 O   0  0  0  0  0  0  0  0  0  0  0  0
   -0.9107    0.1494    0.3635 C   0  0  0  0  0  0  0  0  0  0  0  0
    0.2627   -0.1898   -0.2793 N   0  0  0  0  0  0  0  0  0  0  0  0
    1.5278   -0.1709    0.4405 C   0  0  0  0  0  0  0  0  0  0  0  0
    2.7231   -0.0696   -0.5121 C   0  0  0  0  0  0  0  0  0  0  0  0
    2.8498    1.3242   -1.1695 C   0  0  0  0  0  0  0  0  0  0  0  0
    3.7397    2.1726   -0.2488 C   0  0  0  0  0  0  0  0  0  0  0  0
    4.6085    1.1190    0.3623 C   0  0  0  0  0  0  0  0  0  0  0  0
    5.8051    1.2906    1.0370 C   0  0  0  0  0  0  0  0  0  0  0  0
    6.4384    0.1616    1.5604 C   0  0  0  0  0  0  0  0  0  0  0  0
    5.8676   -1.1121    1.4125 C   0  0  0  0  0  0  0  0  0  0  0  0
    4.6540   -1.2748    0.7412 C   0  0  0  0  0  0  0  0  0  0  0  0
    4.0338   -0.1498    0.2214 C   0  0  0  0  0  0  0  0  0  0  0  0
   -2.1688   -0.0510   -0.4035 C   0  0  0  0  0  0  0  0  0  0  0  0
   -2.1976    0.0013   -1.7957 C   0  0  0  0  0  0  0  0  0  0  0  0
   -3.4146   -0.1880   -2.4189 C   0  0  0  0  0  0  0  0  0  0  0  0
   -4.5669   -0.4170   -1.7552 N   0  0  0  0  0  0  0  0  0  0  0  0
   -4.5296   -0.4443   -0.3962 C   0  0  0  0  0  0  0  0  0  0  0  0
   -5.7593   -0.6709    0.2835 N   0  0  0  0  0  0  0  0  0  0  0  0
   -6.9836   -0.8725   -0.3196 C   0  0  0  0  0  0  0  0  0  0  0  0
   -7.8842   -1.0555    0.7007 C   0  0  0  0  0  0  0  0  0  0  0  0
   -7.2620   -0.9735    1.9152 N   0  0  0  0  0  0  0  0  0  0  0  0
   -5.9966   -0.7401    1.6375 C   0  0  0  0  0  0  0  0  0  0  0  0
   -3.3512   -0.2629    0.3142 C   0  0  0  0  0  0  0  0  0  0  0  0
    0.2003   -0.8092   -1.0761 H   0  0  0  0  0  0  0  0  0  0  0  0
    1.5220    0.6531    1.1642 H   0  0  0  0  0  0  0  0  0  0  0  0
    1.5722   -1.1029    1.0169 H   0  0  0  0  0  0  0  0  0  0  0  0
    2.6661   -0.8399   -1.2904 H   0  0  0  0  0  0  0  0  0  0  0  0
    3.3561    1.2108   -2.1390 H   0  0  0  0  0  0  0  0  0  0  0  0
    1.8873    1.8053   -1.3707 H   0  0  0  0  0  0  0  0  0  0  0  0
    3.1490    2.6720    0.5258 H   0  0  0  0  0  0  0  0  0  0  0  0
    4.3129    2.9098   -0.8179 H   0  0  0  0  0  0  0  0  0  0  0  0
    6.2434    2.2758    1.1601 H   0  0  0  0  0  0  0  0  0  0  0  0
    7.3807    0.2697    2.0920 H   0  0  0  0  0  0  0  0  0  0  0  0
    6.3745   -1.9788    1.8301 H   0  0  0  0  0  0  0  0  0  0  0  0
    4.2131   -2.2608    0.6362 H   0  0  0  0  0  0  0  0  0  0  0  0
   -1.3150    0.2113   -2.3878 H   0  0  0  0  0  0  0  0  0  0  0  0
   -3.5039   -0.1536   -3.5016 H   0  0  0  0  0  0  0  0  0  0  0  0
   -7.0965   -0.8676   -1.3946 H   0  0  0  0  0  0  0  0  0  0  0  0
   -8.9477   -1.2418    0.6226 H   0  0  0  0  0  0  0  0  0  0  0  0
   -5.2262   -0.6154    2.3854 H   0  0  0  0  0  0  0  0  0  0  0  0
   -3.3107   -0.2801    1.3978 H   0  0  0  0  0  0  0  0  0  0  0  0
  1  2  2  0
  2  3  1  0
  3  4  1  0
  4  5  1  0
  5  6  1  0
  6  7  1  0
  7  8  1  0
  8  9  2  0
  9 10  1  0
 10 11  2  0
 11 12  1  0
 12 13  2  0
  2 14  1  0
 14 15  2  0
 15 16  1  0
 16 17  2  0
 17 18  1  0
 18 19  1  0
 19 20  1  0
 20 21  2  0
 21 22  1  0
 22 23  2  0
 18 24  2  0
 13  5  1  0
 24 14  1  0
 13  8  1  0
 23 19  1  0
  3 25  1  0
  4 26  1  0
  4 27  1  0
  5 28  1  0
  6 29  1  0
  6 30  1  0
  7 31  1  0
  7 32  1  0
  9 33  1  0
 10 34  1  0
 11 35  1  0
 12 36  1  0
 15 37  1  0
 16 38  1  0
 20 39  1  0
 21 40  1  0
 23 41  1  0
 24 42  1  0
M  END
$$$$
OCNT-2312556
     RDKit          3D

 53 55  0  0  0  0  0  0  0  0999 V2000
   -3.0791    2.3661   -1.7475 C   0  0  0  0  0  0  0  0  0  0  0  0
   -3.2442    0.9159   -2.1884 C   0  0  0  0  0  0  0  0  0  0  0  0
   -3.4132   -0.1558   -1.0795 C   0  0  0  0  0  0  0  0  0  0  0  0
   -4.0749    0.3143    0.2062 C   0  0  0  0  0  0  0  0  0  0  0  0
   -5.4595    0.1769    0.3729 C   0  0  0  0  0  0  0  0  0  0  0  0
   -6.0426    0.6132    1.5535 C   0  0  0  0  0  0  0  0  0  0  0  0
   -5.3548    1.1742    2.5682 N   0  0  0  0  0  0  0  0  0  0  0  0
   -4.0246    1.3125    2.3889 C   0  0  0  0  0  0  0  0  0  0  0  0
   -3.3512    0.9052    1.2471 C   0  0  0  0  0  0  0  0  0  0  0  0
   -2.2443   -1.0414   -0.8373 N   0  0  0  0  0  0  0  0  0  0  0  0
   -2.5462   -2.4742   -0.7040 C   0  0  0  0  0  0  0  0  0  0  0  0
   -2.5897   -3.1733   -2.0552 C   0  0  0  0  0  0  0  0  0  0  0  0
   -0.9565   -0.5232   -0.7189 C   0  0  0  0  0  0  0  0  0  0  0  0
   -0.7162    0.6797   -0.7906 O   0  0  0  0  0  0  0  0  0  0  0  0
    0.1758   -1.5127   -0.4711 C   0  0  0  0  0  0  0  0  0  0  0  0
    1.5718   -0.8838   -0.4957 C   0  0  0  0  0  0  0  0  0  0  0  0
    1.8476    0.0147    0.7142 C   0  0  0  0  0  0  0  0  0  0  0  0
    3.2667    0.2866    0.8547 N   0  0  0  0  0  0  0  0  0  0  0  0
    4.1309   -0.5268    1.5370 C   0  0  0  0  0  0  0  0  0  0  0  0
    3.9020   -1.5577    2.1407 O   0  0  0  0  0  0  0  0  0  0  0  0
    5.4588    0.0667    1.3959 C   0  0  0  0  0  0  0  0  0  0  0  0
    6.6795   -0.3383    1.8994 C   0  0  0  0  0  0  0  0  0  0  0  0
    7.7933    0.4453    1.5804 C   0  0  0  0  0  0  0  0  0  0  0  0
    7.6617    1.5964    0.7754 C   0  0  0  0  0  0  0  0  0  0  0  0
    6.4141    1.9836    0.2757 C   0  0  0  0  0  0  0  0  0  0  0  0
    5.3296    1.1949    0.6067 C   0  0  0  0  0  0  0  0  0  0  0  0
    3.9192    1.3228    0.2439 C   0  0  0  0  0  0  0  0  0  0  0  0
    3.4822    2.1972   -0.4786 O   0  0  0  0  0  0  0  0  0  0  0  0
   -2.2271    2.5140   -1.0820 H   0  0  0  0  0  0  0  0  0  0  0  0
   -3.9788    2.7303   -1.2411 H   0  0  0  0  0  0  0  0  0  0  0  0
   -2.9251    3.0019   -2.6261 H   0  0  0  0  0  0  0  0  0  0  0  0
   -4.1509    0.8934   -2.8098 H   0  0  0  0  0  0  0  0  0  0  0  0
   -2.4260    0.6368   -2.8632 H   0  0  0  0  0  0  0  0  0  0  0  0
   -4.1396   -0.8448   -1.5363 H   0  0  0  0  0  0  0  0  0  0  0  0
   -6.0831   -0.2611   -0.3995 H   0  0  0  0  0  0  0  0  0  0  0  0
   -7.1125    0.5203    1.7165 H   0  0  0  0  0  0  0  0  0  0  0  0
   -3.4917    1.7791    3.2126 H   0  0  0  0  0  0  0  0  0  0  0  0
   -2.2813    1.0667    1.1760 H   0  0  0  0  0  0  0  0  0  0  0  0
   -1.8071   -2.9665   -0.0680 H   0  0  0  0  0  0  0  0  0  0  0  0
   -3.5082   -2.5850   -0.1901 H   0  0  0  0  0  0  0  0  0  0  0  0
   -3.3694   -2.7506   -2.6967 H   0  0  0  0  0  0  0  0  0  0  0  0
   -1.6377   -3.0755   -2.5858 H   0  0  0  0  0  0  0  0  0  0  0  0
   -2.8004   -4.2390   -1.9234 H   0  0  0  0  0  0  0  0  0  0  0  0
    0.1428   -2.2759   -1.2553 H   0  0  0  0  0  0  0  0  0  0  0  0
    0.0192   -1.9956    0.4994 H   0  0  0  0  0  0  0  0  0  0  0  0
    2.3054   -1.7001   -0.5134 H   0  0  0  0  0  0  0  0  0  0  0  0
    1.7220   -0.3136   -1.4207 H   0  0  0  0  0  0  0  0  0  0  0  0
    1.5062   -0.4755    1.6330 H   0  0  0  0  0  0  0  0  0  0  0  0
    1.3237    0.9705    0.6181 H   0  0  0  0  0  0  0  0  0  0  0  0
    6.7661   -1.2273    2.5155 H   0  0  0  0  0  0  0  0  0  0  0  0
    8.7757    0.1644    1.9564 H   0  0  0  0  0  0  0  0  0  0  0  0
    8.5440    2.1894    0.5402 H   0  0  0  0  0  0  0  0  0  0  0  0
    6.2976    2.8651   -0.3466 H   0  0  0  0  0  0  0  0  0  0  0  0
  1  2  1  0
  2  3  1  0
  3  4  1  0
  4  5  2  0
  5  6  1  0
  6  7  2  0
  7  8  1  0
  8  9  2  0
  3 10  1  0
 10 11  1  0
 11 12  1  0
 10 13  1  0
 13 14  2  0
 13 15  1  0
 15 16  1  0
 16 17  1  0
 17 18  1  0
 18 19  1  0
 19 20  2  0
 19 21  1  0
 21 22  2  0
 22 23  1  0
 23 24  2  0
 24 25  1  0
 25 26  2  0
 26 27  1  0
 27 28  2  0
  9  4  1  0
 27 18  1  0
 26 21  1  0
  1 29  1  0
  1 30  1  0
  1 31  1  0
  2 32  1  0
  2 33  1  0
  3 34  1  0
  5 35  1  0
  6 36  1  0
  8 37  1  0
  9 38  1  0
 11 39  1  0
 11 40  1  0
 12 41  1  0
 12 42  1  0
 12 43  1  0
 15 44  1  0
 15 45  1  0
 16 46  1  0
 16 47  1  0
 17 48  1  0
 17 49  1  0
 22 50  1  0
 23 51  1  0
 24 52  1  0
 25 53  1  0
M  END
$$$$
OCNT-2312575
     RDKit          3D

 49 51  0  0  0  0  0  0  0  0999 V2000
    6.2447    0.6337    1.6201 C   0  0  0  0  0  0  0  0  0  0  0  0
    6.2798   -0.1553    0.3407 C   0  0  0  0  0  0  0  0  0  0  0  0
    7.4927   -0.2637   -0.3601 C   0  0  0  0  0  0  0  0  0  0  0  0
    7.5711   -0.9901   -1.5498 C   0  0  0  0  0  0  0  0  0  0  0  0
    6.4420   -1.6292   -2.0536 C   0  0  0  0  0  0  0  0  0  0  0  0
    5.2310   -1.5423   -1.3675 C   0  0  0  0  0  0  0  0  0  0  0  0
    5.1412   -0.8060   -0.1739 C   0  0  0  0  0  0  0  0  0  0  0  0
    3.8323   -0.7526    0.5377 C   0  0  0  0  0  0  0  0  0  0  0  0
    3.7605   -0.8546    1.7561 O   0  0  0  0  0  0  0  0  0  0  0  0
    2.7310   -0.5698   -0.2630 N   0  0  0  0  0  0  0  0  0  0  0  0
    1.3994   -0.4659    0.2993 C   0  0  0  0  0  0  0  0  0  0  0  0
    0.3804   -0.1906   -0.8128 C   0  0  0  0  0  0  0  0  0  0  0  0
    0.7353   -0.1693   -1.9956 O   0  0  0  0  0  0  0  0  0  0  0  0
   -0.9361    0.0340   -0.4230 N   0  0  0  0  0  0  0  0  0  0  0  0
   -1.9327    0.3577   -1.4426 C   0  0  0  0  0  0  0  0  0  0  0  0
   -2.9180    1.4122   -0.9485 C   0  0  0  0  0  0  0  0  0  0  0  0
   -3.6127    1.0103    0.3694 C   0  0  0  0  0  0  0  0  0  0  0  0
   -5.0921    0.7111    0.1908 C   0  0  0  0  0  0  0  0  0  0  0  0
   -6.0426    1.4221    0.9395 C   0  0  0  0  0  0  0  0  0  0  0  0
   -7.4065    1.1596    0.7952 C   0  0  0  0  0  0  0  0  0  0  0  0
   -7.8388    0.1818   -0.0971 C   0  0  0  0  0  0  0  0  0  0  0  0
   -6.9078   -0.5349   -0.8447 C   0  0  0  0  0  0  0  0  0  0  0  0
   -5.5436   -0.2735   -0.7016 C   0  0  0  0  0  0  0  0  0  0  0  0
   -2.9008   -0.1519    1.0827 C   0  0  0  0  0  0  0  0  0  0  0  0
   -1.3871   -0.0230    0.9677 C   0  0  0  0  0  0  0  0  0  0  0  0
    7.1457    1.2465    1.7334 H   0  0  0  0  0  0  0  0  0  0  0  0
    6.1881   -0.0402    2.4804 H   0  0  0  0  0  0  0  0  0  0  0  0
    5.3926    1.3210    1.6302 H   0  0  0  0  0  0  0  0  0  0  0  0
    8.3903    0.2212    0.0194 H   0  0  0  0  0  0  0  0  0  0  0  0
    8.5181   -1.0619   -2.0792 H   0  0  0  0  0  0  0  0  0  0  0  0
    6.5065   -2.2036   -2.9743 H   0  0  0  0  0  0  0  0  0  0  0  0
    4.3659   -2.0728   -1.7582 H   0  0  0  0  0  0  0  0  0  0  0  0
    2.8241   -0.3832   -1.2573 H   0  0  0  0  0  0  0  0  0  0  0  0
    1.3947    0.3516    1.0264 H   0  0  0  0  0  0  0  0  0  0  0  0
    1.1694   -1.4142    0.7935 H   0  0  0  0  0  0  0  0  0  0  0  0
   -1.4444    0.7155   -2.3552 H   0  0  0  0  0  0  0  0  0  0  0  0
   -2.4506   -0.5734   -1.6985 H   0  0  0  0  0  0  0  0  0  0  0  0
   -2.3540    2.3376   -0.7662 H   0  0  0  0  0  0  0  0  0  0  0  0
   -3.6407    1.6510   -1.7376 H   0  0  0  0  0  0  0  0  0  0  0  0
   -3.5334    1.8873    1.0283 H   0  0  0  0  0  0  0  0  0  0  0  0
   -5.7294    2.1899    1.6437 H   0  0  0  0  0  0  0  0  0  0  0  0
   -8.1315    1.7192    1.3804 H   0  0  0  0  0  0  0  0  0  0  0  0
   -8.9003   -0.0221   -0.2091 H   0  0  0  0  0  0  0  0  0  0  0  0
   -7.2436   -1.2998   -1.5402 H   0  0  0  0  0  0  0  0  0  0  0  0
   -4.8385   -0.8506   -1.2943 H   0  0  0  0  0  0  0  0  0  0  0  0
   -3.1949   -0.1769    2.1393 H   0  0  0  0  0  0  0  0  0  0  0  0
   -3.2041   -1.1174    0.6570 H   0  0  0  0  0  0  0  0  0  0  0  0
   -1.0427    0.8943    1.4596 H   0  0  0  0  0  0  0  0  0  0  0  0
   -0.9093   -0.8688    1.4712 H   0  0  0  0  0  0  0  0  0  0  0  0
  1  2  1  0
  2  3  2  0
  3  4  1  0
  4  5  2  0
  5  6  1  0
  6  7  2  0
  7  8  1  0
  8  9  2  0
  8 10  1  0
 10 11  1  0
 11 12  1  0
 12 13  2  0
 12 14  1  0
 14 15  1  0
 15 16  1  0
 16 17  1  0
 17 18  1  0
 18 19  2  0
 19 20  1  0
 20 21  2  0
 21 22  1  0
 22 23  2  0
 17 24  1  0
 24 25  1  0
  7  2  1  0
 25 14  1  0
 23 18  1  0
  1 26  1  0
  1 27  1  0
  1 28  1  0
  3 29  1  0
  4 30  1  0
  5 31  1  0
  6 32  1  0
 10 33  1  0
 11 34  1  0
 11 35  1  0
 15 36  1  0
 15 37  1  0
 16 38  1  0
 16 39  1  0
 17 40  1  0
 19 41  1  0
 20 42  1  0
 21 43  1  0
 22 44  1  0
 23 45  1  0
 24 46  1  0
 24 47  1  0
 25 48  1  0
 25 49  1  0
M  END
$$$$
OCNT-2312594
     RDKit          3D

 45 48  0  0  0  0  0  0  0  0999 V2000
   -2.1776    0.8875   -2.3829 O   0  0  0  0  0  0  0  0  0  0  0  0
   -1.9342    0.5038   -1.2463 C   0  0  0  0  0  0  0  0  0  0  0  0
   -1.0226    1.0919   -0.4049 N   0  0  0  0  0  0  0  0  0  0  0  0
   -0.2553    2.2629   -0.7880 C   0  0  0  0  0  0  0  0  0  0  0  0
    0.8080    1.9865   -1.8544 C   0  0  0  0  0  0  0  0  0  0  0  0
    1.8047    0.9716   -1.4224 C   0  0  0  0  0  0  0  0  0  0  0  0
    2.7704    1.2589   -0.5412 N   0  0  0  0  0  0  0  0  0  0  0  0
    3.4336    0.0716   -0.4323 N   0  0  0  0  0  0  0  0  0  0  0  0
    4.5629   -0.0883    0.4118 C   0  0  0  0  0  0  0  0  0  0  0  0
    5.0411    0.9971    1.1602 C   0  0  0  0  0  0  0  0  0  0  0  0
    6.1522    0.8350    1.9904 C   0  0  0  0  0  0  0  0  0  0  0  0
    6.7869   -0.4041    2.0762 C   0  0  0  0  0  0  0  0  0  0  0  0
    6.3147   -1.4858    1.3328 C   0  0  0  0  0  0  0  0  0  0  0  0
    5.2043   -1.3323    0.5001 C   0  0  0  0  0  0  0  0  0  0  0  0
    2.9279   -0.9549   -1.1718 N   0  0  0  0  0  0  0  0  0  0  0  0
    1.9094   -0.3736   -1.8058 C   0  0  0  0  0  0  0  0  0  0  0  0
   -2.6307   -0.6997   -0.6663 C   0  0  0  0  0  0  0  0  0  0  0  0
   -3.9030   -0.4088    0.1251 C   0  0  0  0  0  0  0  0  0  0  0  0
   -5.1192   -0.1543   -0.5357 C   0  0  0  0  0  0  0  0  0  0  0  0
   -6.2918    0.1256    0.1723 C   0  0  0  0  0  0  0  0  0  0  0  0
   -6.2653    0.1596    1.5623 C   0  0  0  0  0  0  0  0  0  0  0  0
   -7.7042    0.5032    2.4395 Cl  0  0  0  0  0  0  0  0  0  0  0  0
   -5.0777   -0.0805    2.2461 C   0  0  0  0  0  0  0  0  0  0  0  0
   -3.9083   -0.3590    1.5311 C   0  0  0  0  0  0  0  0  0  0  0  0
   -2.6103   -1.9778   -1.5046 C   0  0  0  0  0  0  0  0  0  0  0  0
   -1.7747   -1.9017   -0.2681 C   0  0  0  0  0  0  0  0  0  0  0  0
   -0.8769    0.6937    0.5138 H   0  0  0  0  0  0  0  0  0  0  0  0
    0.2041    2.6551    0.1261 H   0  0  0  0  0  0  0  0  0  0  0  0
   -0.9570    3.0169   -1.1625 H   0  0  0  0  0  0  0  0  0  0  0  0
    1.3262    2.9239   -2.0915 H   0  0  0  0  0  0  0  0  0  0  0  0
    0.3325    1.6535   -2.7846 H   0  0  0  0  0  0  0  0  0  0  0  0
    4.5611    1.9721    1.1052 H   0  0  0  0  0  0  0  0  0  0  0  0
    6.5237    1.6768    2.5696 H   0  0  0  0  0  0  0  0  0  0  0  0
    7.6524   -0.5268    2.7227 H   0  0  0  0  0  0  0  0  0  0  0  0
    6.8124   -2.4501    1.4003 H   0  0  0  0  0  0  0  0  0  0  0  0
    4.8520   -2.1877   -0.0732 H   0  0  0  0  0  0  0  0  0  0  0  0
    1.2997   -0.9429   -2.4945 H   0  0  0  0  0  0  0  0  0  0  0  0
   -5.1487   -0.1677   -1.6248 H   0  0  0  0  0  0  0  0  0  0  0  0
   -7.2143    0.3183   -0.3686 H   0  0  0  0  0  0  0  0  0  0  0  0
   -5.0523   -0.0520    3.3321 H   0  0  0  0  0  0  0  0  0  0  0  0
   -2.9885   -0.5413    2.0826 H   0  0  0  0  0  0  0  0  0  0  0  0
   -2.1098   -1.9465   -2.4667 H   0  0  0  0  0  0  0  0  0  0  0  0
   -3.4807   -2.6244   -1.4903 H   0  0  0  0  0  0  0  0  0  0  0  0
   -2.0781   -2.5128    0.5747 H   0  0  0  0  0  0  0  0  0  0  0  0
   -0.6990   -1.8422   -0.3939 H   0  0  0  0  0  0  0  0  0  0  0  0
  1  2  2  0
  2  3  1  0
  3  4  1  0
  4  5  1  0
  5  6  1  0
  6  7  2  0
  7  8  1  0
  8  9  1  0
  9 10  2  0
 10 11  1  0
 11 12  2  0
 12 13  1  0
 13 14  2  0
  8 15  1  0
 15 16  2  0
  2 17  1  0
 17 18  1  0
 18 19  1  0
 19 20  2  0
 20 21  1  0
 21 22  1  0
 21 23  2  0
 23 24  1  0
 17 25  1  0
 25 26  1  0
 16  6  1  0
 26 17  1  0
 14  9  1  0
 24 18  2  0
  3 27  1  0
  4 28  1  0
  4 29  1  0
  5 30  1  0
  5 31  1  0
 10 32  1  0
 11 33  1  0
 12 34  1  0
 13 35  1  0
 14 36  1  0
 16 37  1  0
 19 38  1  0
 20 39  1  0
 23 40  1  0
 24 41  1  0
 25 42  1  0
 25 43  1  0
 26 44  1  0
 26 45  1  0
M  END
$$$$
OCNT-2312606
     RDKit          3D

 47 51  0  0  0  0  0  0  0  0999 V2000
   -2.8044   -0.0053   -2.2556 O   0  0  0  0  0  0  0  0  0  0  0  0
   -2.2714    0.0227   -1.1477 C   0  0  0  0  0  0  0  0  0  0  0  0
   -3.0358    0.4186    0.0362 C   0  0  0  0  0  0  0  0  0  0  0  0
   -2.5787    1.1861    1.0962 C   0  0  0  0  0  0  0  0  0  0  0  0
   -3.6066    1.3626    1.9820 N   0  0  0  0  0  0  0  0  0  0  0  0
   -4.7454    0.7501    1.5154 C   0  0  0  0  0  0  0  0  0  0  0  0
   -6.0273    0.6812    2.0772 C   0  0  0  0  0  0  0  0  0  0  0  0
   -7.0088   -0.0067    1.3581 C   0  0  0  0  0  0  0  0  0  0  0  0
   -8.6011   -0.1183    2.0080 Cl  0  0  0  0  0  0  0  0  0  0  0  0
   -6.7279   -0.5994    0.1308 C   0  0  0  0  0  0  0  0  0  0  0  0
   -5.4402   -0.5205   -0.4135 C   0  0  0  0  0  0  0  0  0  0  0  0
   -4.4247    0.1641    0.2891 C   0  0  0  0  0  0  0  0  0  0  0  0
   -0.9074   -0.2755   -0.9739 N   0  0  0  0  0  0  0  0  0  0  0  0
   -0.4664   -1.0801    0.1679 C   0  0  0  0  0  0  0  0  0  0  0  0
    1.0105   -0.8574    0.4682 C   0  0  0  0  0  0  0  0  0  0  0  0
    1.8542   -1.0958   -0.7891 C   0  0  0  0  0  0  0  0  0  0  0  0
    3.2768   -0.9517   -0.5489 N   0  0  0  0  0  0  0  0  0  0  0  0
    4.1994   -2.0196   -0.6557 C   0  0  0  0  0  0  0  0  0  0  0  0
    3.9699   -3.1797   -0.9542 O   0  0  0  0  0  0  0  0  0  0  0  0
    5.4601   -1.4950   -0.3459 N   0  0  0  0  0  0  0  0  0  0  0  0
    5.3295   -0.1450   -0.0510 C   0  0  0  0  0  0  0  0  0  0  0  0
    6.3096    0.7533    0.3067 C   0  0  0  0  0  0  0  0  0  0  0  0
    5.9010    2.0657    0.5534 C   0  0  0  0  0  0  0  0  0  0  0  0
    4.5451    2.4341    0.4374 C   0  0  0  0  0  0  0  0  0  0  0  0
    3.5683    1.4982    0.0718 C   0  0  0  0  0  0  0  0  0  0  0  0
    3.9826    0.2058   -0.1709 C   0  0  0  0  0  0  0  0  0  0  0  0
    1.3537   -0.2563   -1.9692 C   0  0  0  0  0  0  0  0  0  0  0  0
   -0.1370   -0.4793   -2.1981 C   0  0  0  0  0  0  0  0  0  0  0  0
   -1.6090    1.6277    1.2840 H   0  0  0  0  0  0  0  0  0  0  0  0
   -3.5504    1.8864    2.8452 H   0  0  0  0  0  0  0  0  0  0  0  0
   -6.2528    1.1465    3.0308 H   0  0  0  0  0  0  0  0  0  0  0  0
   -7.5049   -1.1260   -0.4171 H   0  0  0  0  0  0  0  0  0  0  0  0
   -5.2261   -0.9792   -1.3761 H   0  0  0  0  0  0  0  0  0  0  0  0
   -0.6511   -2.1315   -0.0878 H   0  0  0  0  0  0  0  0  0  0  0  0
   -1.0553   -0.8810    1.0647 H   0  0  0  0  0  0  0  0  0  0  0  0
    1.1463    0.1636    0.8405 H   0  0  0  0  0  0  0  0  0  0  0  0
    1.3308   -1.5315    1.2716 H   0  0  0  0  0  0  0  0  0  0  0  0
    1.6986   -2.1468   -1.0710 H   0  0  0  0  0  0  0  0  0  0  0  0
    6.3054   -2.0413   -0.3451 H   0  0  0  0  0  0  0  0  0  0  0  0
    7.3494    0.4628    0.3941 H   0  0  0  0  0  0  0  0  0  0  0  0
    6.6366    2.8153    0.8384 H   0  0  0  0  0  0  0  0  0  0  0  0
    4.2542    3.4643    0.6344 H   0  0  0  0  0  0  0  0  0  0  0  0
    2.5335    1.8037   -0.0113 H   0  0  0  0  0  0  0  0  0  0  0  0
    1.9104   -0.5101   -2.8792 H   0  0  0  0  0  0  0  0  0  0  0  0
    1.5236    0.8098   -1.7860 H   0  0  0  0  0  0  0  0  0  0  0  0
   -0.3301   -1.4992   -2.5531 H   0  0  0  0  0  0  0  0  0  0  0  0
   -0.4868    0.2095   -2.9758 H   0  0  0  0  0  0  0  0  0  0  0  0
  1  2  2  0
  2  3  1  0
  3  4  2  0
  4  5  1  0
  5  6  1  0
  6  7  2  0
  7  8  1  0
  8  9  1  0
  8 10  2  0
 10 11  1  0
 11 12  2  0
  2 13  1  0
 13 14  1  0
 14 15  1  0
 15 16  1  0
 16 17  1  0
 17 18  1  0
 18 19  2  0
 18 20  1  0
 20 21  1  0
 21 22  2  0
 22 23  1  0
 23 24  2  0
 24 25  1  0
 25 26  2  0
 16 27  1  0
 27 28  1  0
 12  3  1  0
 28 13  1  0
 12  6  1  0
 26 17  1  0
 26 21  1  0
  4 29  1  0
  5 30  1  0
  7 31  1  0
 10 32  1  0
 11 33  1  0
 14 34  1  0
 14 35  1  0
 15 36  1  0
 15 37  1  0
 16 38  1  0
 20 39  1  0
 22 40  1  0
 23 41  1  0
 24 42  1  0
 25 43  1  0
 27 44  1  0
 27 45  1  0
 28 46  1  0
 28 47  1  0
M  END
$$$$
OCNT-2312607
     RDKit          3D

 43 46  0  0  0  0  0  0  0  0999 V2000
   -2.2039    1.8126   -2.2130 C   0  0  0  0  0  0  0  0  0  0  0  0
   -1.8190    1.4579   -0.8869 O   0  0  0  0  0  0  0  0  0  0  0  0
   -2.4802    0.3560   -0.4724 C   0  0  0  0  0  0  0  0  0  0  0  0
   -1.9577   -0.9228   -0.4907 C   0  0  0  0  0  0  0  0  0  0  0  0
   -0.6914   -1.4862   -0.8999 C   0  0  0  0  0  0  0  0  0  0  0  0
   -0.6571   -2.5868   -1.4537 O   0  0  0  0  0  0  0  0  0  0  0  0
    0.4837   -0.8156   -0.6094 N   0  0  0  0  0  0  0  0  0  0  0  0
    0.6632    0.2956    0.3150 C   0  0  0  0  0  0  0  0  0  0  0  0
    2.1167    0.1827    0.7596 C   0  0  0  0  0  0  0  0  0  0  0  0
    2.8039   -0.3923   -0.4847 C   0  0  0  0  0  0  0  0  0  0  0  0
    4.1558   -1.0485   -0.2138 C   0  0  0  0  0  0  0  0  0  0  0  0
    5.1913   -0.0479    0.2004 C   0  0  0  0  0  0  0  0  0  0  0  0
    5.3973    0.3254    1.4462 N   0  0  0  0  0  0  0  0  0  0  0  0
    6.4140    1.2582    1.4902 C   0  0  0  0  0  0  0  0  0  0  0  0
    6.9729    1.5871    0.2750 C   0  0  0  0  0  0  0  0  0  0  0  0
    6.2042    0.7001   -0.9729 S   0  0  0  0  0  0  0  0  0  0  0  0
    1.7628   -1.3939   -0.9815 C   0  0  0  0  0  0  0  0  0  0  0  0
   -2.9916   -1.7466   -0.0889 N   0  0  0  0  0  0  0  0  0  0  0  0
   -4.0960   -1.0213    0.2906 C   0  0  0  0  0  0  0  0  0  0  0  0
   -5.3270   -1.4470    0.8025 C   0  0  0  0  0  0  0  0  0  0  0  0
   -6.2788   -0.4649    1.0945 C   0  0  0  0  0  0  0  0  0  0  0  0
   -6.0088    0.8851    0.8793 C   0  0  0  0  0  0  0  0  0  0  0  0
   -4.7736    1.2914    0.3618 C   0  0  0  0  0  0  0  0  0  0  0  0
   -3.7977    0.3201    0.0627 C   0  0  0  0  0  0  0  0  0  0  0  0
   -3.2602    2.0983   -2.2571 H   0  0  0  0  0  0  0  0  0  0  0  0
   -2.0008    0.9961   -2.9150 H   0  0  0  0  0  0  0  0  0  0  0  0
   -1.6061    2.6772   -2.5165 H   0  0  0  0  0  0  0  0  0  0  0  0
    0.5229    1.2263   -0.2417 H   0  0  0  0  0  0  0  0  0  0  0  0
   -0.0350    0.2478    1.1546 H   0  0  0  0  0  0  0  0  0  0  0  0
    2.5269    1.1477    1.0713 H   0  0  0  0  0  0  0  0  0  0  0  0
    2.1969   -0.5146    1.6027 H   0  0  0  0  0  0  0  0  0  0  0  0
    2.9105    0.4094   -1.2289 H   0  0  0  0  0  0  0  0  0  0  0  0
    4.0603   -1.8026    0.5779 H   0  0  0  0  0  0  0  0  0  0  0  0
    4.4909   -1.5869   -1.1093 H   0  0  0  0  0  0  0  0  0  0  0  0
    6.7120    1.6713    2.4461 H   0  0  0  0  0  0  0  0  0  0  0  0
    7.7718    2.2839    0.0675 H   0  0  0  0  0  0  0  0  0  0  0  0
    1.8074   -1.5476   -2.0645 H   0  0  0  0  0  0  0  0  0  0  0  0
    1.8558   -2.3670   -0.4844 H   0  0  0  0  0  0  0  0  0  0  0  0
   -2.9194   -2.7550   -0.0613 H   0  0  0  0  0  0  0  0  0  0  0  0
   -5.5415   -2.4976    0.9695 H   0  0  0  0  0  0  0  0  0  0  0  0
   -7.2454   -0.7611    1.4960 H   0  0  0  0  0  0  0  0  0  0  0  0
   -6.7635    1.6315    1.1145 H   0  0  0  0  0  0  0  0  0  0  0  0
   -4.5666    2.3445    0.1965 H   0  0  0  0  0  0  0  0  0  0  0  0
  1  2  1  0
  2  3  1  0
  3  4  2  0
  4  5  1  0
  5  6  2  0
  5  7  1  0
  7  8  1  0
  8  9  1  0
  9 10  1  0
 10 11  1  0
 11 12  1  0
 12 13  2  0
 13 14  1  0
 14 15  2  0
 15 16  1  0
 10 17  1  0
  4 18  1  0
 18 19  1  0
 19 20  2  0
 20 21  1  0
 21 22  2  0
 22 23  1  0
 23 24  2  0
 24  3  1  0
 17  7  1  0
 24 19  1  0
 16 12  1  0
  1 25  1  0
  1 26  1  0
  1 27  1  0
  8 28  1  0
  8 29  1  0
  9 30  1  0
  9 31  1  0
 10 32  1  0
 11 33  1  0
 11 34  1  0
 14 35  1  0
 15 36  1  0
 17 37  1  0
 17 38  1  0
 18 39  1  0
 20 40  1  0
 21 41  1  0
 22 42  1  0
 23 43  1  0
M  END
$$$$
OCNT-2312608
     RDKit          3D

 38 40  0  0  0  0  0  0  0  0999 V2000
   -1.2484    4.3299   -1.0436 C   0  0  0  0  0  0  0  0  0  0  0  0
   -0.8219    3.2577   -1.3763 C   0  0  0  0  0  0  0  0  0  0  0  0
   -0.2932    1.9427   -1.7927 C   0  0  0  0  0  0  0  0  0  0  0  0
   -0.7598    0.7763   -0.8875 C   0  0  0  0  0  0  0  0  0  0  0  0
   -2.3039    0.6445   -0.9153 C   0  0  0  0  0  0  0  0  0  0  0  0
   -2.7991   -0.7146   -0.4693 C   0  0  0  0  0  0  0  0  0  0  0  0
   -2.9745   -0.9988    0.8914 C   0  0  0  0  0  0  0  0  0  0  0  0
   -3.4237   -2.2551    1.3010 C   0  0  0  0  0  0  0  0  0  0  0  0
   -3.6995   -3.2404    0.3551 C   0  0  0  0  0  0  0  0  0  0  0  0
   -3.5229   -2.9712   -1.0006 C   0  0  0  0  0  0  0  0  0  0  0  0
   -3.0730   -1.7154   -1.4120 C   0  0  0  0  0  0  0  0  0  0  0  0
   -0.3102    0.9599    0.5115 N   0  0  0  0  0  0  0  0  0  0  0  0
    1.0317    0.6662    0.7839 C   0  0  0  0  0  0  0  0  0  0  0  0
    1.4833    0.8368    2.0848 C   0  0  0  0  0  0  0  0  0  0  0  0
    2.8017    0.5184    2.3917 C   0  0  0  0  0  0  0  0  0  0  0  0
    3.6449    0.0317    1.4121 C   0  0  0  0  0  0  0  0  0  0  0  0
    4.9263   -0.2720    1.7206 N   0  0  0  0  0  0  0  0  0  0  0  0
    5.6767   -0.7414    0.7053 C   0  0  0  0  0  0  0  0  0  0  0  0
    5.1643   -0.8957   -0.5647 C   0  0  0  0  0  0  0  0  0  0  0  0
    3.8847   -0.5888   -0.8728 N   0  0  0  0  0  0  0  0  0  0  0  0
    3.1058   -0.1239    0.1116 C   0  0  0  0  0  0  0  0  0  0  0  0
    1.8370    0.1833   -0.1786 N   0  0  0  0  0  0  0  0  0  0  0  0
   -1.6245    5.2850   -0.7559 H   0  0  0  0  0  0  0  0  0  0  0  0
    0.8011    1.9961   -1.8113 H   0  0  0  0  0  0  0  0  0  0  0  0
   -0.6075    1.7424   -2.8245 H   0  0  0  0  0  0  0  0  0  0  0  0
   -0.3455   -0.1559   -1.2960 H   0  0  0  0  0  0  0  0  0  0  0  0
   -2.7751    1.4136   -0.2890 H   0  0  0  0  0  0  0  0  0  0  0  0
   -2.6734    0.8210   -1.9343 H   0  0  0  0  0  0  0  0  0  0  0  0
   -2.7502   -0.2432    1.6406 H   0  0  0  0  0  0  0  0  0  0  0  0
   -3.5522   -2.4658    2.3592 H   0  0  0  0  0  0  0  0  0  0  0  0
   -4.0460   -4.2192    0.6749 H   0  0  0  0  0  0  0  0  0  0  0  0
   -3.7319   -3.7410   -1.7386 H   0  0  0  0  0  0  0  0  0  0  0  0
   -2.9357   -1.5250   -2.4738 H   0  0  0  0  0  0  0  0  0  0  0  0
   -0.5476    1.8819    0.8682 H   0  0  0  0  0  0  0  0  0  0  0  0
    0.8160    1.1997    2.8594 H   0  0  0  0  0  0  0  0  0  0  0  0
    3.1721    0.6443    3.4046 H   0  0  0  0  0  0  0  0  0  0  0  0
    6.7046   -0.9907    0.9416 H   0  0  0  0  0  0  0  0  0  0  0  0
    5.7698   -1.2734   -1.3807 H   0  0  0  0  0  0  0  0  0  0  0  0
  1  2  3  0
  2  3  1  0
  3  4  1  0
  4  5  1  0
  5  6  1  0
  6  7  2  0
  7  8  1  0
  8  9  2  0
  9 10  1  0
 10 11  2  0
  4 12  1  0
 12 13  1  0
 13 14  2  0
 14 15  1  0
 15 16  2  0
 16 17  1  0
 17 18  2  0
 18 19  1  0
 19 20  2  0
 20 21  1  0
 21 22  2  0
 11  6  1  0
 22 13  1  0
 21 16  1  0
  1 23  1  0
  3 24  1  0
  3 25  1  0
  4 26  1  0
  5 27  1  0
  5 28  1  0
  7 29  1  0
  8 30  1  0
  9 31  1  0
 10 32  1  0
 11 33  1  0
 12 34  1  0
 14 35  1  0
 15 36  1  0
 18 37  1  0
 19 38  1  0
M  END
$$$$
OCNT-2312650
     RDKit          3D

 44 46  0  0  0  0  0  0  0  0999 V2000
    1.3467    1.0642   -1.8776 O   0  0  0  0  0  0  0  0  0  0  0  0
    1.1155    0.7835   -0.7075 C   0  0  0  0  0  0  0  0  0  0  0  0
    0.0184    1.2489   -0.0106 N   0  0  0  0  0  0  0  0  0  0  0  0
   -0.9026    2.1803   -0.6280 C   0  0  0  0  0  0  0  0  0  0  0  0
   -2.2439    2.2352    0.1029 C   0  0  0  0  0  0  0  0  0  0  0  0
   -2.9886    0.8865    0.1787 C   0  0  0  0  0  0  0  0  0  0  0  0
   -3.2428    0.2768   -1.2140 C   0  0  0  0  0  0  0  0  0  0  0  0
   -4.3716   -0.7582   -1.2448 C   0  0  0  0  0  0  0  0  0  0  0  0
   -4.6510   -1.3448    0.1239 C   0  0  0  0  0  0  0  0  0  0  0  0
   -5.6354   -2.2729    0.0395 F   0  0  0  0  0  0  0  0  0  0  0  0
   -3.5437   -2.0032    0.5590 F   0  0  0  0  0  0  0  0  0  0  0  0
   -5.0391   -0.2867    1.1456 C   0  0  0  0  0  0  0  0  0  0  0  0
   -4.3070    1.0445    0.9479 C   0  0  0  0  0  0  0  0  0  0  0  0
    2.0638   -0.0724    0.0563 C   0  0  0  0  0  0  0  0  0  0  0  0
    1.6388   -0.8742    1.1209 C   0  0  0  0  0  0  0  0  0  0  0  0
    2.5630   -1.6623    1.8042 C   0  0  0  0  0  0  0  0  0  0  0  0
    3.9074   -1.6569    1.4210 C   0  0  0  0  0  0  0  0  0  0  0  0
    4.3512   -0.8735    0.3441 C   0  0  0  0  0  0  0  0  0  0  0  0
    5.7488   -0.8743   -0.0670 C   0  0  0  0  0  0  0  0  0  0  0  0
    6.4842   -0.2866   -1.0758 C   0  0  0  0  0  0  0  0  0  0  0  0
    7.8065   -0.6429   -0.9762 N   0  0  0  0  0  0  0  0  0  0  0  0
    7.8283   -1.4282    0.0754 C   0  0  0  0  0  0  0  0  0  0  0  0
    6.6261   -1.6183    0.6826 O   0  0  0  0  0  0  0  0  0  0  0  0
    3.4111   -0.0854   -0.3353 C   0  0  0  0  0  0  0  0  0  0  0  0
    0.0621    1.2319    0.9997 H   0  0  0  0  0  0  0  0  0  0  0  0
   -1.0384    1.9162   -1.6822 H   0  0  0  0  0  0  0  0  0  0  0  0
   -0.4276    3.1676   -0.6017 H   0  0  0  0  0  0  0  0  0  0  0  0
   -2.0739    2.6003    1.1242 H   0  0  0  0  0  0  0  0  0  0  0  0
   -2.8804    2.9789   -0.3929 H   0  0  0  0  0  0  0  0  0  0  0  0
   -2.3594    0.1884    0.7476 H   0  0  0  0  0  0  0  0  0  0  0  0
   -2.3176   -0.1988   -1.5630 H   0  0  0  0  0  0  0  0  0  0  0  0
   -3.4752    1.0629   -1.9433 H   0  0  0  0  0  0  0  0  0  0  0  0
   -4.1164   -1.5561   -1.9517 H   0  0  0  0  0  0  0  0  0  0  0  0
   -5.2878   -0.2940   -1.6309 H   0  0  0  0  0  0  0  0  0  0  0  0
   -6.1206   -0.1089    1.1166 H   0  0  0  0  0  0  0  0  0  0  0  0
   -4.8176   -0.6726    2.1480 H   0  0  0  0  0  0  0  0  0  0  0  0
   -4.9641    1.7301    0.3965 H   0  0  0  0  0  0  0  0  0  0  0  0
   -4.1327    1.5075    1.9266 H   0  0  0  0  0  0  0  0  0  0  0  0
    0.5920   -0.9195    1.4089 H   0  0  0  0  0  0  0  0  0  0  0  0
    2.2386   -2.2927    2.6290 H   0  0  0  0  0  0  0  0  0  0  0  0
    4.6074   -2.2852    1.9694 H   0  0  0  0  0  0  0  0  0  0  0  0
    6.1363    0.3681   -1.8628 H   0  0  0  0  0  0  0  0  0  0  0  0
    8.6768   -1.9356    0.5122 H   0  0  0  0  0  0  0  0  0  0  0  0
    3.7143    0.5326   -1.1788 H   0  0  0  0  0  0  0  0  0  0  0  0
  1  2  2  0
  2  3  1  0
  3  4  1  0
  4  5  1  0
  5  6  1  0
  6  7  1  0
  7  8  1  0
  8  9  1  0
  9 10  1  0
  9 11  1  0
  9 12  1  0
 12 13  1  0
  2 14  1  0
 14 15  1  0
 15 16  2  0
 16 17  1  0
 17 18  2  0
 18 19  1  0
 19 20  2  0
 20 21  1  0
 21 22  2  0
 22 23  1  0
 18 24  1  0
 13  6  1  0
 24 14  2  0
 23 19  1  0
  3 25  1  0
  4 26  1  0
  4 27  1  0
  5 28  1  0
  5 29  1  0
  6 30  1  0
  7 31  1  0
  7 32  1  0
  8 33  1  0
  8 34  1  0
 12 35  1  0
 12 36  1  0
 13 37  1  0
 13 38  1  0
 15 39  1  0
 16 40  1  0
 17 41  1  0
 20 42  1  0
 22 43  1  0
 24 44  1  0
M  END
$$$$
OCNT-2312662
     RDKit          3D

  0  0  0  0  0  0  0  0  0  0999 V3000
M  V30 BEGIN CTAB
M  V30 COUNTS 51 53 0 0 0
M  V30 BEGIN ATOM
M  V30 1 C 6.205083 -2.090564 0.908744 0
M  V30 2 N 5.185945 -1.177415 0.442732 0
M  V30 3 C 3.844208 -1.450172 0.424144 0
M  V30 4 C 3.184600 -0.348814 -0.085708 0
M  V30 5 C 1.709457 -0.204247 -0.283242 0
M  V30 6 C 1.048984 0.589581 0.846710 0
M  V30 7 N -0.384299 0.702218 0.674405 0
M  V30 8 C -0.949756 1.583516 -0.224416 0
M  V30 9 O -0.313029 2.431507 -0.842202 0
M  V30 10 C -2.474762 1.445381 -0.334511 0
M  V30 11 N -2.896887 0.020533 -0.176362 0
M  V30 12 C -2.564917 -0.708642 -1.415392 0
M  V30 13 C -4.354508 -0.062671 0.098376 0 CFG=2
M  V30 14 C -4.723491 0.483491 1.484651 0
M  V30 15 C -6.141486 -0.023075 1.695702 0
M  V30 16 C -6.147387 -1.427639 1.107001 0
M  V30 17 C -4.934491 -1.502278 0.173588 0 CFG=1
M  V30 18 O -5.333989 -1.965802 -1.111895 0
M  V30 19 C 4.183608 0.630503 -0.389000 0
M  V30 20 C 4.137486 1.935250 -0.923414 0
M  V30 21 C 5.324845 2.653519 -1.098989 0
M  V30 22 C 6.549305 2.091697 -0.750941 0
M  V30 23 C 6.623064 0.801301 -0.218377 0
M  V30 24 C 5.425299 0.088390 -0.046803 0
M  V30 25 H 6.917004 -2.260527 0.096699 0
M  V30 26 H 6.702208 -1.641130 1.772040 0
M  V30 27 H 5.744051 -3.038019 1.198833 0
M  V30 28 H 3.461471 -2.401416 0.771138 0
M  V30 29 H 1.247639 -1.198144 -0.348603 0
M  V30 30 H 1.516781 0.279117 -1.249220 0
M  V30 31 H 1.470875 1.599583 0.905565 0
M  V30 32 H 1.217378 0.100189 1.812369 0
M  V30 33 H -0.990587 -0.067918 0.946779 0
M  V30 34 H -2.809069 1.856136 -1.294476 0
M  V30 35 H -2.874464 2.075179 0.466211 0
M  V30 36 H -2.716543 -1.785101 -1.288959 0
M  V30 37 H -1.506347 -0.594161 -1.674103 0
M  V30 38 H -3.160266 -0.364177 -2.268815 0
M  V30 39 H -4.900446 0.494416 -0.677435 0
M  V30 40 H -4.058729 0.077341 2.257481 0
M  V30 41 H -4.690932 1.575073 1.543013 0
M  V30 42 H -6.848407 0.610510 1.146925 0
M  V30 43 H -6.433448 -0.013436 2.750121 0
M  V30 44 H -6.033586 -2.165318 1.910251 0
M  V30 45 H -7.094472 -1.641179 0.600550 0
M  V30 46 H -4.196350 -2.203537 0.581936 0
M  V30 47 H -5.683360 -2.866080 -0.997676 0
M  V30 48 H 3.185727 2.383363 -1.197903 0
M  V30 49 H 5.286176 3.658048 -1.511940 0
M  V30 50 H 7.462446 2.664008 -0.895254 0
M  V30 51 H 7.582369 0.371610 0.049874 0
M  V30 END ATOM
M  V30 BEGIN BOND
M  V30 1 1 1 2
M  V30 2 1 2 3
M  V30 3 2 3 4
M  V30 4 1 4 5
M  V30 5 1 5 6
M  V30 6 1 6 7
M  V30 7 1 7 8
M  V30 8 2 8 9
M  V30 9 1 8 10
M  V30 10 1 10 11
M  V30 11 1 11 12
M  V30 12 1 11 13
M  V30 13 1 13 14
M  V30 14 1 14 15
M  V30 15 1 15 16
M  V30 16 1 16 17
M  V30 17 1 17 18
M  V30 18 1 4 19
M  V30 19 2 19 20
M  V30 20 1 20 21
M  V30 21 2 21 22
M  V30 22 1 22 23
M  V30 23 2 23 24
M  V30 24 1 24 2
M  V30 25 1 17 13
M  V30 26 1 24 19
M  V30 27 1 1 25
M  V30 28 1 1 26
M  V30 29 1 1 27
M  V30 30 1 3 28
M  V30 31 1 5 29
M  V30 32 1 5 30
M  V30 33 1 6 31
M  V30 34 1 6 32
M  V30 35 1 7 33
M  V30 36 1 10 34
M  V30 37 1 10 35
M  V30 38 1 12 36
M  V30 39 1 12 37
M  V30 40 1 12 38
M  V30 41 1 13 39 CFG=3
M  V30 42 1 14 40
M  V30 43 1 14 41
M  V30 44 1 15 42
M  V30 45 1 15 43
M  V30 46 1 16 44
M  V30 47 1 16 45
M  V30 48 1 17 46 CFG=1
M  V30 49 1 18 47
M  V30 50 1 20 48
M  V30 51 1 21 49
M  V30 52 1 22 50
M  V30 53 1 23 51
M  V30 END BOND
M  V30 BEGIN COLLECTION
M  V30 MDLV30/STERAC1 ATOMS=(2 13 17)
M  V30 END COLLECTION
M  V30 END CTAB
M  END
>  <_CXSMILES_Data>  (652) 
|&1:12,16|

$$$$
OCNT-2312702
     RDKit          3D

 40 41  0  0  0  0  0  0  0  0999 V2000
   -2.7660   -2.4436    0.9179 C   0  0  0  0  0  0  0  0  0  0  0  0
   -2.1802   -1.4673   -0.0944 C   0  0  0  0  0  0  0  0  0  0  0  0
   -2.6156    0.0018    0.1200 C   0  0  2  0  0  0  0  0  0  0  0  0
   -4.1476    0.1250    0.0283 C   0  0  0  0  0  0  0  0  0  0  0  0
   -1.9379    0.9604   -0.9075 C   0  0  2  0  0  0  0  0  0  0  0  0
   -0.4625    0.8652   -1.0279 N   0  0  0  0  0  0  0  0  0  0  0  0
    0.2630    1.1485    0.2147 C   0  0  0  0  0  0  0  0  0  0  0  0
    1.7563    0.9892   -0.0033 C   0  0  0  0  0  0  0  0  0  0  0  0
    2.4641    2.0600   -0.5762 C   0  0  0  0  0  0  0  0  0  0  0  0
    3.8281    1.9582   -0.8036 C   0  0  0  0  0  0  0  0  0  0  0  0
    4.4936    0.7806   -0.4677 C   0  0  0  0  0  0  0  0  0  0  0  0
    6.3669    0.7404   -0.8181 Br  0  0  0  0  0  0  0  0  0  0  0  0
    3.7988   -0.3197    0.0966 C   0  0  0  0  0  0  0  0  0  0  0  0
    4.4082   -1.5459    0.4504 C   0  0  0  0  0  0  0  0  0  0  0  0
    3.6630   -2.5850    0.9922 C   0  0  0  0  0  0  0  0  0  0  0  0
    2.3152   -2.3782    1.1698 C   0  0  0  0  0  0  0  0  0  0  0  0
    1.6891   -1.2277    0.8488 N   0  0  0  0  0  0  0  0  0  0  0  0
    2.4053   -0.2090    0.3263 C   0  0  0  0  0  0  0  0  0  0  0  0
   -2.3318    2.4242   -0.6473 C   0  0  0  0  0  0  0  0  0  0  0  0
   -2.3730    2.9930    0.4335 O   0  0  0  0  0  0  0  0  0  0  0  0
   -2.6325    3.0986   -1.7781 O   0  0  0  0  0  0  0  0  0  0  0  0
   -2.3081   -3.4304    0.7929 H   0  0  0  0  0  0  0  0  0  0  0  0
   -2.5749   -2.1097    1.9425 H   0  0  0  0  0  0  0  0  0  0  0  0
   -3.8445   -2.5664    0.7840 H   0  0  0  0  0  0  0  0  0  0  0  0
   -1.0913   -1.5476   -0.0186 H   0  0  0  0  0  0  0  0  0  0  0  0
   -2.4514   -1.7938   -1.1058 H   0  0  0  0  0  0  0  0  0  0  0  0
   -2.3304    0.3046    1.1359 H   0  0  0  0  0  0  0  0  0  0  0  0
   -4.4803    1.1591    0.1599 H   0  0  0  0  0  0  0  0  0  0  0  0
   -4.5134   -0.2263   -0.9425 H   0  0  0  0  0  0  0  0  0  0  0  0
   -4.6415   -0.4591    0.8107 H   0  0  0  0  0  0  0  0  0  0  0  0
   -2.3409    0.7030   -1.8967 H   0  0  0  0  0  0  0  0  0  0  0  0
   -0.2152   -0.0815   -1.3164 H   0  0  0  0  0  0  0  0  0  0  0  0
    0.0836    2.1782    0.5450 H   0  0  0  0  0  0  0  0  0  0  0  0
   -0.0664    0.5055    1.0372 H   0  0  0  0  0  0  0  0  0  0  0  0
    1.9391    2.9734   -0.8500 H   0  0  0  0  0  0  0  0  0  0  0  0
    4.3598    2.7972   -1.2453 H   0  0  0  0  0  0  0  0  0  0  0  0
    5.4732   -1.7069    0.3061 H   0  0  0  0  0  0  0  0  0  0  0  0
    4.1254   -3.5265    1.2649 H   0  0  0  0  0  0  0  0  0  0  0  0
    1.6776   -3.1517    1.5880 H   0  0  0  0  0  0  0  0  0  0  0  0
   -2.8053    4.0104   -1.4664 H   0  0  0  0  0  0  0  0  0  0  0  0
  1  2  1  0
  2  3  1  0
  3  4  1  0
  3  5  1  0
  5  6  1  0
  6  7  1  0
  7  8  1  0
  8  9  1  0
  9 10  2  0
 10 11  1  0
 11 12  1  0
 11 13  2  0
 13 14  1  0
 14 15  2  0
 15 16  1  0
 16 17  2  0
 17 18  1  0
  5 19  1  0
 19 20  2  0
 19 21  1  0
 18  8  2  0
 18 13  1  0
  1 22  1  0
  1 23  1  0
  1 24  1  0
  2 25  1  0
  2 26  1  0
  3 27  1  1
  4 28  1  0
  4 29  1  0
  4 30  1  0
  5 31  1  6
  6 32  1  0
  7 33  1  0
  7 34  1  0
  9 35  1  0
 10 36  1  0
 14 37  1  0
 15 38  1  0
 16 39  1  0
 21 40  1  0
M  END
$$$$
OCNT-2312704
     RDKit          3D

 40 41  0  0  0  0  0  0  0  0999 V2000
   -0.7397    0.5598   -1.5479 C   0  0  0  0  0  0  0  0  0  0  0  0
   -0.5861    0.2208   -0.0592 C   0  0  0  0  0  0  0  0  0  0  0  0
    0.8237   -0.3304    0.2426 C   0  0  0  0  0  0  0  0  0  0  0  0
    1.8157    0.7300    0.1610 N   0  0  0  0  0  0  0  0  0  0  0  0
    3.1239    0.3195    0.3656 C   0  0  0  0  0  0  0  0  0  0  0  0
    3.4043   -0.6874    1.2021 N   0  0  0  0  0  0  0  0  0  0  0  0
    4.6976   -1.0150    1.3606 C   0  0  0  0  0  0  0  0  0  0  0  0
    5.7226   -0.3792    0.7079 C   0  0  0  0  0  0  0  0  0  0  0  0
    5.3533    0.6432   -0.1462 C   0  0  0  0  0  0  0  0  0  0  0  0
    6.4356    1.3896   -0.9058 C   0  0  0  0  0  0  0  0  0  0  0  0
    5.9765    2.3914   -1.7069 F   0  0  0  0  0  0  0  0  0  0  0  0
    7.3511    1.9671   -0.0731 F   0  0  0  0  0  0  0  0  0  0  0  0
    7.1578    0.5640   -1.7199 F   0  0  0  0  0  0  0  0  0  0  0  0
    4.0517    0.9919   -0.3235 N   0  0  0  0  0  0  0  0  0  0  0  0
   -1.6359   -0.8249    0.3886 C   0  0  0  0  0  0  0  0  0  0  0  0
   -3.0352   -0.4391    0.1357 N   0  0  0  0  0  0  0  0  0  0  0  0
   -3.9370   -1.5853    0.3927 C   0  0  0  0  0  0  0  0  0  0  0  0
   -5.4105   -1.2009    0.1895 C   0  0  0  0  0  0  0  0  0  0  0  0
   -5.7824   -0.1133    1.0454 O   0  0  0  0  0  0  0  0  0  0  0  0
   -4.9530    1.0240    0.7749 C   0  0  0  0  0  0  0  0  0  0  0  0
   -3.4650    0.6949    0.9845 C   0  0  0  0  0  0  0  0  0  0  0  0
   -0.0017    1.3018   -1.8675 H   0  0  0  0  0  0  0  0  0  0  0  0
   -0.6132   -0.3320   -2.1711 H   0  0  0  0  0  0  0  0  0  0  0  0
   -1.7272    0.9826   -1.7589 H   0  0  0  0  0  0  0  0  0  0  0  0
   -0.7228    1.1427    0.5196 H   0  0  0  0  0  0  0  0  0  0  0  0
    1.0649   -1.1415   -0.4570 H   0  0  0  0  0  0  0  0  0  0  0  0
    0.8261   -0.7495    1.2570 H   0  0  0  0  0  0  0  0  0  0  0  0
    1.8272    1.2674   -0.6988 H   0  0  0  0  0  0  0  0  0  0  0  0
    4.8878   -1.8303    2.0526 H   0  0  0  0  0  0  0  0  0  0  0  0
    6.7561   -0.6655    0.8579 H   0  0  0  0  0  0  0  0  0  0  0  0
   -1.4271   -1.7550   -0.1579 H   0  0  0  0  0  0  0  0  0  0  0  0
   -1.4960   -1.0526    1.4540 H   0  0  0  0  0  0  0  0  0  0  0  0
   -3.8017   -1.9420    1.4223 H   0  0  0  0  0  0  0  0  0  0  0  0
   -3.6944   -2.4102   -0.2870 H   0  0  0  0  0  0  0  0  0  0  0  0
   -6.0526   -2.0517    0.4388 H   0  0  0  0  0  0  0  0  0  0  0  0
   -5.6109   -0.9273   -0.8535 H   0  0  0  0  0  0  0  0  0  0  0  0
   -5.1415    1.3745   -0.2471 H   0  0  0  0  0  0  0  0  0  0  0  0
   -5.2546    1.8226    1.4602 H   0  0  0  0  0  0  0  0  0  0  0  0
   -2.8862    1.5933    0.7480 H   0  0  0  0  0  0  0  0  0  0  0  0
   -3.3012    0.4517    2.0423 H   0  0  0  0  0  0  0  0  0  0  0  0
  1  2  1  0
  2  3  1  0
  3  4  1  0
  4  5  1  0
  5  6  2  0
  6  7  1  0
  7  8  2  0
  8  9  1  0
  9 10  1  0
 10 11  1  0
 10 12  1  0
 10 13  1  0
  9 14  2  0
  2 15  1  0
 15 16  1  0
 16 17  1  0
 17 18  1  0
 18 19  1  0
 19 20  1  0
 20 21  1  0
 14  5  1  0
 21 16  1  0
  1 22  1  0
  1 23  1  0
  1 24  1  0
  2 25  1  0
  3 26  1  0
  3 27  1  0
  4 28  1  0
  7 29  1  0
  8 30  1  0
 15 31  1  0
 15 32  1  0
 17 33  1  0
 17 34  1  0
 18 35  1  0
 18 36  1  0
 20 37  1  0
 20 38  1  0
 21 39  1  0
 21 40  1  0
M  END
$$$$
OCNT-2312712
     RDKit          3D

 47 49  0  0  0  0  0  0  0  0999 V2000
    7.1948   -1.8276   -2.4201 C   0  0  0  0  0  0  0  0  0  0  0  0
    7.3045   -0.8226   -1.2828 C   0  0  0  0  0  0  0  0  0  0  0  0
    5.9531   -0.3328   -0.8279 C   0  0  0  0  0  0  0  0  0  0  0  0
    5.1301   -1.1487   -0.0422 C   0  0  0  0  0  0  0  0  0  0  0  0
    3.8688   -0.7028    0.3663 C   0  0  0  0  0  0  0  0  0  0  0  0
    3.4057    0.5682   -0.0003 C   0  0  0  0  0  0  0  0  0  0  0  0
    2.0867    1.0219    0.4284 C   0  0  0  0  0  0  0  0  0  0  0  0
    1.5897    2.2444    0.1699 N   0  0  0  0  0  0  0  0  0  0  0  0
    0.3281    2.2250    0.7561 O   0  0  0  0  0  0  0  0  0  0  0  0
    0.1795    0.9911    1.3145 C   0  0  0  0  0  0  0  0  0  0  0  0
   -1.1263    0.7092    1.9827 C   0  0  0  0  0  0  0  0  0  0  0  0
   -0.9185    0.4613    3.4728 C   0  0  0  0  0  0  0  0  0  0  0  0
   -1.7062   -0.4902    1.3561 N   0  0  0  0  0  0  0  0  0  0  0  0
   -3.3655   -0.6193    1.2029 S   0  0  0  0  0  0  0  0  0  0  0  0
   -3.6114   -2.0403    1.0827 O   0  0  0  0  0  0  0  0  0  0  0  0
   -3.9506    0.1750    2.2606 O   0  0  0  0  0  0  0  0  0  0  0  0
   -3.6317    0.1710   -0.3930 C   0  0  0  0  0  0  0  0  0  0  0  0
   -5.1031    0.1674   -0.7098 C   0  0  0  0  0  0  0  0  0  0  0  0
   -5.9203    1.2368   -0.3124 C   0  0  0  0  0  0  0  0  0  0  0  0
   -7.2857    1.2294   -0.6014 C   0  0  0  0  0  0  0  0  0  0  0  0
   -7.8482    0.1546   -1.2872 C   0  0  0  0  0  0  0  0  0  0  0  0
   -7.0472   -0.9155   -1.6826 C   0  0  0  0  0  0  0  0  0  0  0  0
   -5.6814   -0.9113   -1.3949 C   0  0  0  0  0  0  0  0  0  0  0  0
    1.2257    0.2126    1.1431 N   0  0  0  0  0  0  0  0  0  0  0  0
    4.2345    1.3846   -0.7837 C   0  0  0  0  0  0  0  0  0  0  0  0
    5.4940    0.9367   -1.1964 C   0  0  0  0  0  0  0  0  0  0  0  0
    6.6408   -2.7189   -2.1097 H   0  0  0  0  0  0  0  0  0  0  0  0
    8.1914   -2.1458   -2.7416 H   0  0  0  0  0  0  0  0  0  0  0  0
    6.6786   -1.3949   -3.2832 H   0  0  0  0  0  0  0  0  0  0  0  0
    7.8287   -1.2751   -0.4330 H   0  0  0  0  0  0  0  0  0  0  0  0
    7.9216    0.0251   -1.6031 H   0  0  0  0  0  0  0  0  0  0  0  0
    5.4633   -2.1404    0.2566 H   0  0  0  0  0  0  0  0  0  0  0  0
    3.2492   -1.3616    0.9727 H   0  0  0  0  0  0  0  0  0  0  0  0
   -1.7870    1.5723    1.8383 H   0  0  0  0  0  0  0  0  0  0  0  0
   -1.8643    0.2349    3.9750 H   0  0  0  0  0  0  0  0  0  0  0  0
   -0.4829    1.3416    3.9580 H   0  0  0  0  0  0  0  0  0  0  0  0
   -0.2433   -0.3831    3.6524 H   0  0  0  0  0  0  0  0  0  0  0  0
   -1.2137   -1.3769    1.4817 H   0  0  0  0  0  0  0  0  0  0  0  0
   -3.2464    1.1942   -0.3346 H   0  0  0  0  0  0  0  0  0  0  0  0
   -3.0627   -0.3821   -1.1470 H   0  0  0  0  0  0  0  0  0  0  0  0
   -5.5039    2.0805    0.2355 H   0  0  0  0  0  0  0  0  0  0  0  0
   -7.9123    2.0600   -0.2835 H   0  0  0  0  0  0  0  0  0  0  0  0
   -8.9126    0.1471   -1.5065 H   0  0  0  0  0  0  0  0  0  0  0  0
   -7.4877   -1.7592   -2.2085 H   0  0  0  0  0  0  0  0  0  0  0  0
   -5.0760   -1.7634   -1.7009 H   0  0  0  0  0  0  0  0  0  0  0  0
    3.9078    2.3778   -1.0850 H   0  0  0  0  0  0  0  0  0  0  0  0
    6.1123    1.5898   -1.8093 H   0  0  0  0  0  0  0  0  0  0  0  0
  1  2  1  0
  2  3  1  0
  3  4  1  0
  4  5  2  0
  5  6  1  0
  6  7  1  0
  7  8  2  0
  8  9  1  0
  9 10  1  0
 10 11  1  0
 11 12  1  0
 11 13  1  0
 13 14  1  0
 14 15  2  0
 14 16  2  0
 14 17  1  0
 17 18  1  0
 18 19  2  0
 19 20  1  0
 20 21  2  0
 21 22  1  0
 22 23  2  0
 10 24  2  0
  6 25  2  0
 25 26  1  0
 26  3  2  0
 24  7  1  0
 23 18  1  0
  1 27  1  0
  1 28  1  0
  1 29  1  0
  2 30  1  0
  2 31  1  0
  4 32  1  0
  5 33  1  0
 11 34  1  0
 12 35  1  0
 12 36  1  0
 12 37  1  0
 13 38  1  0
 17 39  1  0
 17 40  1  0
 19 41  1  0
 20 42  1  0
 21 43  1  0
 22 44  1  0
 23 45  1  0
 25 46  1  0
 26 47  1  0
M  END
$$$$
OCNT-2312713
     RDKit          3D

 51 53  0  0  0  0  0  0  0  0999 V2000
   -6.6653    1.0820    1.5808 C   0  0  0  0  0  0  0  0  0  0  0  0
   -5.3193    0.3680    1.6588 C   0  0  0  0  0  0  0  0  0  0  0  0
   -4.8459   -0.0839    0.3407 N   0  0  0  0  0  0  0  0  0  0  0  0
   -4.3892    1.0291   -0.5182 C   0  0  0  0  0  0  0  0  0  0  0  0
   -2.9963    1.6153   -0.1613 C   0  0  0  0  0  0  0  0  0  0  0  0
   -1.9057    0.6142   -0.0279 N   0  0  0  0  0  0  0  0  0  0  0  0
   -1.4553    0.1203   -1.3571 C   0  0  0  0  0  0  0  0  0  0  0  0
   -0.5118    1.1653   -1.9922 C   0  0  0  0  0  0  0  0  0  0  0  0
    0.8338    0.8744   -1.3359 C   0  0  0  0  0  0  0  0  0  0  0  0
    0.8231   -0.5635   -1.1274 N   0  0  0  0  0  0  0  0  0  0  0  0
    1.8646   -1.3560   -0.7057 C   0  0  0  0  0  0  0  0  0  0  0  0
    1.7413   -2.5713   -0.5599 O   0  0  0  0  0  0  0  0  0  0  0  0
    3.1758   -0.6395   -0.4411 C   0  0  0  0  0  0  0  0  0  0  0  0
    4.2432   -1.5947    0.0894 C   0  0  0  0  0  0  0  0  0  0  0  0
    5.5424   -0.8775    0.3547 C   0  0  0  0  0  0  0  0  0  0  0  0
    5.7886   -0.2798    1.5931 C   0  0  0  0  0  0  0  0  0  0  0  0
    6.9890    0.3881    1.7815 C   0  0  0  0  0  0  0  0  0  0  0  0
    7.9429    0.5034    0.8331 N   0  0  0  0  0  0  0  0  0  0  0  0
    7.6847   -0.0807   -0.3563 C   0  0  0  0  0  0  0  0  0  0  0  0
    6.5157   -0.7698   -0.6415 C   0  0  0  0  0  0  0  0  0  0  0  0
   -0.5028   -1.1051   -1.3715 C   0  0  0  0  0  0  0  0  0  0  0  0
   -2.3885   -0.4438    0.8852 C   0  0  0  0  0  0  0  0  0  0  0  0
   -3.7454   -1.0641    0.4798 C   0  0  0  0  0  0  0  0  0  0  0  0
   -7.4068    0.4708    1.0555 H   0  0  0  0  0  0  0  0  0  0  0  0
   -6.5905    2.0484    1.0743 H   0  0  0  0  0  0  0  0  0  0  0  0
   -7.0444    1.2710    2.5908 H   0  0  0  0  0  0  0  0  0  0  0  0
   -4.5914    1.0119    2.1647 H   0  0  0  0  0  0  0  0  0  0  0  0
   -5.4696   -0.5060    2.3053 H   0  0  0  0  0  0  0  0  0  0  0  0
   -4.3622    0.6573   -1.5502 H   0  0  0  0  0  0  0  0  0  0  0  0
   -5.1248    1.8402   -0.5385 H   0  0  0  0  0  0  0  0  0  0  0  0
   -2.7376    2.3832   -0.8983 H   0  0  0  0  0  0  0  0  0  0  0  0
   -3.0727    2.1543    0.7919 H   0  0  0  0  0  0  0  0  0  0  0  0
   -2.3115   -0.0910   -2.0058 H   0  0  0  0  0  0  0  0  0  0  0  0
   -0.4448    0.9782   -3.0722 H   0  0  0  0  0  0  0  0  0  0  0  0
   -0.8104    2.2089   -1.8654 H   0  0  0  0  0  0  0  0  0  0  0  0
    0.9244    1.3627   -0.3598 H   0  0  0  0  0  0  0  0  0  0  0  0
    1.6769    1.1713   -1.9655 H   0  0  0  0  0  0  0  0  0  0  0  0
    3.5175   -0.1843   -1.3781 H   0  0  0  0  0  0  0  0  0  0  0  0
    2.9977    0.1607    0.2869 H   0  0  0  0  0  0  0  0  0  0  0  0
    4.4161   -2.4104   -0.6247 H   0  0  0  0  0  0  0  0  0  0  0  0
    3.8987   -2.0784    1.0128 H   0  0  0  0  0  0  0  0  0  0  0  0
    5.0646   -0.3316    2.3995 H   0  0  0  0  0  0  0  0  0  0  0  0
    7.2206    0.8635    2.7302 H   0  0  0  0  0  0  0  0  0  0  0  0
    8.4678    0.0228   -1.1017 H   0  0  0  0  0  0  0  0  0  0  0  0
    6.3731   -1.2134   -1.6212 H   0  0  0  0  0  0  0  0  0  0  0  0
   -0.4826   -1.5448   -2.3772 H   0  0  0  0  0  0  0  0  0  0  0  0
   -0.7496   -1.9127   -0.6801 H   0  0  0  0  0  0  0  0  0  0  0  0
   -1.6411   -1.2301    1.0223 H   0  0  0  0  0  0  0  0  0  0  0  0
   -2.4849   -0.0026    1.8864 H   0  0  0  0  0  0  0  0  0  0  0  0
   -4.0217   -1.8435    1.2007 H   0  0  0  0  0  0  0  0  0  0  0  0
   -3.6304   -1.5870   -0.4783 H   0  0  0  0  0  0  0  0  0  0  0  0
  1  2  1  0
  2  3  1  0
  3  4  1  0
  4  5  1  0
  5  6  1  0
  6  7  1  0
  7  8  1  0
  8  9  1  0
  9 10  1  0
 10 11  1  0
 11 12  2  0
 11 13  1  0
 13 14  1  0
 14 15  1  0
 15 16  2  0
 16 17  1  0
 17 18  2  0
 18 19  1  0
 19 20  2  0
 10 21  1  0
  6 22  1  0
 22 23  1  0
 23  3  1  0
 21  7  1  0
 20 15  1  0
  1 24  1  0
  1 25  1  0
  1 26  1  0
  2 27  1  0
  2 28  1  0
  4 29  1  0
  4 30  1  0
  5 31  1  0
  5 32  1  0
  7 33  1  0
  8 34  1  0
  8 35  1  0
  9 36  1  0
  9 37  1  0
 13 38  1  0
 13 39  1  0
 14 40  1  0
 14 41  1  0
 16 42  1  0
 17 43  1  0
 19 44  1  0
 20 45  1  0
 21 46  1  0
 21 47  1  0
 22 48  1  0
 22 49  1  0
 23 50  1  0
 23 51  1  0
M  END
$$$$
OCNT-2312719
     RDKit          3D

 49 51  0  0  0  0  0  0  0  0999 V2000
    7.8441   -1.8422   -0.1711 C   0  0  0  0  0  0  0  0  0  0  0  0
    6.4539   -1.5283   -0.1061 O   0  0  0  0  0  0  0  0  0  0  0  0
    6.1661   -0.4780    0.6998 C   0  0  0  0  0  0  0  0  0  0  0  0
    6.9527    0.1410    1.3988 O   0  0  0  0  0  0  0  0  0  0  0  0
    4.7076   -0.2438    0.7203 C   0  0  0  0  0  0  0  0  0  0  0  0
    4.1013   -0.1376    1.9778 C   0  0  0  0  0  0  0  0  0  0  0  0
    2.7265    0.0789    2.0741 C   0  0  0  0  0  0  0  0  0  0  0  0
    1.9472    0.2044    0.9198 C   0  0  0  0  0  0  0  0  0  0  0  0
    0.5643    0.4130    1.1017 N   0  0  0  0  0  0  0  0  0  0  0  0
   -0.3862    0.6716    0.1374 C   0  0  0  0  0  0  0  0  0  0  0  0
   -0.1888    0.8320   -1.0585 O   0  0  0  0  0  0  0  0  0  0  0  0
   -1.6420    0.7475    0.7016 N   0  0  0  0  0  0  0  0  0  0  0  0
   -2.8371    0.9606   -0.1110 C   0  0  2  0  0  0  0  0  0  0  0  0
   -3.6818    2.0451    0.5536 C   0  0  0  0  0  0  0  0  0  0  0  0
   -5.0846    2.0839   -0.0359 C   0  0  1  0  0  0  0  0  0  0  0  0
   -5.1423    2.5237   -1.4974 C   0  0  0  0  0  0  0  0  0  0  0  0
   -5.7639    0.8352    0.1381 O   0  0  0  0  0  0  0  0  0  0  0  0
   -5.0340   -0.2914   -0.1306 C   0  0  0  0  0  0  0  0  0  0  0  0
   -5.7760   -1.4678   -0.2569 C   0  0  0  0  0  0  0  0  0  0  0  0
   -5.1420   -2.6700   -0.5644 C   0  0  0  0  0  0  0  0  0  0  0  0
   -3.7633   -2.6959   -0.7511 C   0  0  0  0  0  0  0  0  0  0  0  0
   -3.0182   -1.5238   -0.6101 C   0  0  0  0  0  0  0  0  0  0  0  0
   -3.6409   -0.3100   -0.2691 C   0  0  0  0  0  0  0  0  0  0  0  0
    2.5643    0.1105   -0.3344 C   0  0  0  0  0  0  0  0  0  0  0  0
    3.9473   -0.1012   -0.4502 C   0  0  0  0  0  0  0  0  0  0  0  0
    4.6238   -0.1494   -1.6412 O   0  0  0  0  0  0  0  0  0  0  0  0
    3.8705   -0.0013   -2.8389 C   0  0  0  0  0  0  0  0  0  0  0  0
    8.2167   -2.1376    0.8147 H   0  0  0  0  0  0  0  0  0  0  0  0
    8.4119   -0.9913   -0.5610 H   0  0  0  0  0  0  0  0  0  0  0  0
    7.9703   -2.6859   -0.8545 H   0  0  0  0  0  0  0  0  0  0  0  0
    4.7008   -0.2257    2.8817 H   0  0  0  0  0  0  0  0  0  0  0  0
    2.2804    0.1514    3.0625 H   0  0  0  0  0  0  0  0  0  0  0  0
    0.2438    0.4971    2.0544 H   0  0  0  0  0  0  0  0  0  0  0  0
   -1.7867    0.2169    1.5470 H   0  0  0  0  0  0  0  0  0  0  0  0
   -2.5448    1.2981   -1.1124 H   0  0  0  0  0  0  0  0  0  0  0  0
   -3.7665    1.8330    1.6292 H   0  0  0  0  0  0  0  0  0  0  0  0
   -3.1884    3.0204    0.4645 H   0  0  0  0  0  0  0  0  0  0  0  0
   -5.6610    2.8170    0.5421 H   0  0  0  0  0  0  0  0  0  0  0  0
   -4.6725    1.7973   -2.1685 H   0  0  0  0  0  0  0  0  0  0  0  0
   -4.6543    3.4934   -1.6359 H   0  0  0  0  0  0  0  0  0  0  0  0
   -6.1857    2.6118   -1.8216 H   0  0  0  0  0  0  0  0  0  0  0  0
   -6.8551   -1.4419   -0.1300 H   0  0  0  0  0  0  0  0  0  0  0  0
   -5.7249   -3.5806   -0.6713 H   0  0  0  0  0  0  0  0  0  0  0  0
   -3.2663   -3.6272   -1.0114 H   0  0  0  0  0  0  0  0  0  0  0  0
   -1.9436   -1.5637   -0.7782 H   0  0  0  0  0  0  0  0  0  0  0  0
    1.9619    0.2066   -1.2289 H   0  0  0  0  0  0  0  0  0  0  0  0
    4.5670   -0.0680   -3.6801 H   0  0  0  0  0  0  0  0  0  0  0  0
    3.3886    0.9811   -2.8841 H   0  0  0  0  0  0  0  0  0  0  0  0
    3.1396   -0.8090   -2.9493 H   0  0  0  0  0  0  0  0  0  0  0  0
  1  2  1  0
  2  3  1  0
  3  4  2  0
  3  5  1  0
  5  6  1  0
  6  7  2  0
  7  8  1  0
  8  9  1  0
  9 10  1  0
 10 11  2  0
 10 12  1  0
 12 13  1  0
 13 14  1  0
 14 15  1  0
 15 16  1  0
 15 17  1  0
 17 18  1  0
 18 19  2  0
 19 20  1  0
 20 21  2  0
 21 22  1  0
 22 23  2  0
  8 24  2  0
 24 25  1  0
 25 26  1  0
 26 27  1  0
 25  5  2  0
 23 13  1  0
 23 18  1  0
  1 28  1  0
  1 29  1  0
  1 30  1  0
  6 31  1  0
  7 32  1  0
  9 33  1  0
 12 34  1  0
 13 35  1  6
 14 36  1  0
 14 37  1  0
 15 38  1  1
 16 39  1  0
 16 40  1  0
 16 41  1  0
 19 42  1  0
 20 43  1  0
 21 44  1  0
 22 45  1  0
 24 46  1  0
 27 47  1  0
 27 48  1  0
 27 49  1  0
M  END
$$$$
OCNT-2312721
     RDKit          3D

  0  0  0  0  0  0  0  0  0  0999 V3000
M  V30 BEGIN CTAB
M  V30 COUNTS 42 44 0 0 0
M  V30 BEGIN ATOM
M  V30 1 C 7.673404 0.871011 -0.026929 0
M  V30 2 O 6.282681 1.176930 -0.147759 0
M  V30 3 C 5.467068 0.259437 0.427762 0
M  V30 4 O 5.823380 -0.751878 1.009443 0
M  V30 5 C 4.042570 0.646628 0.259175 0
M  V30 6 C 3.659728 1.814685 -0.406528 0
M  V30 7 C 2.309043 2.094899 -0.516241 0
M  V30 8 N 1.338168 1.304199 -0.015979 0
M  V30 9 C 1.741039 0.172718 0.628849 0
M  V30 10 C 0.648532 -0.698666 1.168849 0
M  V30 11 O 0.879534 -1.773730 1.708417 0
M  V30 12 N -0.624697 -0.201847 0.982091 0
M  V30 13 C -1.824649 -1.003219 1.257010 0 CFG=1
M  V30 14 C -3.040007 -0.089049 1.411344 0
M  V30 15 C -3.575422 0.325465 0.070697 0
M  V30 16 C -4.458196 1.411385 -0.019477 0
M  V30 17 C -4.967854 1.808157 -1.256269 0
M  V30 18 C -4.603386 1.121426 -2.411725 0
M  V30 19 C -3.735173 0.033700 -2.327882 0
M  V30 20 C -3.232445 -0.371473 -1.091040 0
M  V30 21 O -2.388285 -1.445831 -1.120129 0
M  V30 22 C -2.059172 -2.046641 0.151796 0 CFG=2
M  V30 23 C -3.082127 -3.105967 0.559666 0
M  V30 24 F -3.192660 -4.070971 -0.383851 0
M  V30 25 F -2.709475 -3.720000 1.708444 0
M  V30 26 F -4.317536 -2.601896 0.766441 0
M  V30 27 C 3.065417 -0.196305 0.789353 0
M  V30 28 H 7.901991 -0.076677 -0.524553 0
M  V30 29 H 8.238805 1.666409 -0.520266 0
M  V30 30 H 7.968433 0.838152 1.026574 0
M  V30 31 H 4.386647 2.497403 -0.834052 0
M  V30 32 H 1.963548 2.990897 -1.026073 0
M  V30 33 H -0.688755 0.604071 0.359777 0
M  V30 34 H -1.638192 -1.510359 2.211877 0
M  V30 35 H -3.836127 -0.608808 1.956835 0
M  V30 36 H -2.769371 0.798336 1.997382 0
M  V30 37 H -4.752173 1.956312 0.875189 0
M  V30 38 H -5.649875 2.652430 -1.317940 0
M  V30 39 H -4.997801 1.428480 -3.376685 0
M  V30 40 H -3.454968 -0.505081 -3.229444 0
M  V30 41 H -1.118800 -2.582101 -0.026943 0
M  V30 42 H 3.327159 -1.112634 1.310939 0
M  V30 END ATOM
M  V30 BEGIN BOND
M  V30 1 1 1 2
M  V30 2 1 2 3
M  V30 3 2 3 4
M  V30 4 1 3 5
M  V30 5 2 5 6
M  V30 6 1 6 7
M  V30 7 2 7 8
M  V30 8 1 8 9
M  V30 9 1 9 10
M  V30 10 2 10 11
M  V30 11 1 10 12
M  V30 12 1 12 13
M  V30 13 1 13 14
M  V30 14 1 14 15
M  V30 15 2 15 16
M  V30 16 1 16 17
M  V30 17 2 17 18
M  V30 18 1 18 19
M  V30 19 2 19 20
M  V30 20 1 20 21
M  V30 21 1 21 22
M  V30 22 1 22 23
M  V30 23 1 23 24
M  V30 24 1 23 25
M  V30 25 1 23 26
M  V30 26 2 9 27
M  V30 27 1 27 5
M  V30 28 1 22 13
M  V30 29 1 20 15
M  V30 30 1 1 28
M  V30 31 1 1 29
M  V30 32 1 1 30
M  V30 33 1 6 31
M  V30 34 1 7 32
M  V30 35 1 12 33
M  V30 36 1 13 34 CFG=1
M  V30 37 1 14 35
M  V30 38 1 14 36
M  V30 39 1 16 37
M  V30 40 1 17 38
M  V30 41 1 18 39
M  V30 42 1 19 40
M  V30 43 1 22 41 CFG=3
M  V30 44 1 27 42
M  V30 END BOND
M  V30 BEGIN COLLECTION
M  V30 MDLV30/STERAC1 ATOMS=(2 13 22)
M  V30 END COLLECTION
M  V30 END CTAB
M  END
>  <_CXSMILES_Data>  (658) 
|&1:12,21|

$$$$
OCNT-2312735
     RDKit          3D

 40 43  0  0  0  0  0  0  0  0999 V2000
    1.5241   -2.5784    1.7078 C   0  0  0  0  0  0  0  0  0  0  0  0
    1.1133   -1.2087    1.2498 C   0  0  0  0  0  0  0  0  0  0  0  0
   -0.2334   -0.9386    0.9447 C   0  0  0  0  0  0  0  0  0  0  0  0
   -0.6560    0.3293    0.5258 C   0  0  0  0  0  0  0  0  0  0  0  0
   -1.9858    0.6437    0.1894 N   0  0  0  0  0  0  0  0  0  0  0  0
   -3.1320   -0.1471    0.0194 C   0  0  0  0  0  0  0  0  0  0  0  0
   -4.3997    0.4164   -0.1998 C   0  0  0  0  0  0  0  0  0  0  0  0
   -4.9993    1.6995   -0.3019 C   0  0  0  0  0  0  0  0  0  0  0  0
   -4.3693    3.0349   -0.1867 C   0  0  0  0  0  0  0  0  0  0  0  0
   -6.3161    1.6117   -0.5304 N   0  0  0  0  0  0  0  0  0  0  0  0
   -6.5974    0.2560   -0.5741 O   0  0  0  0  0  0  0  0  0  0  0  0
   -5.4555   -0.4588   -0.3763 C   0  0  0  0  0  0  0  0  0  0  0  0
   -5.4160   -1.7977   -0.3653 N   0  0  0  0  0  0  0  0  0  0  0  0
   -4.1748   -2.2390   -0.1532 C   0  0  0  0  0  0  0  0  0  0  0  0
   -3.0627   -1.5043    0.0334 N   0  0  0  0  0  0  0  0  0  0  0  0
    0.3164    1.3367    0.4079 C   0  0  0  0  0  0  0  0  0  0  0  0
    1.6596    1.0881    0.7004 C   0  0  0  0  0  0  0  0  0  0  0  0
    2.0571   -0.1877    1.0998 C   0  0  0  0  0  0  0  0  0  0  0  0
    3.3702   -0.4453    1.4221 O   0  0  0  0  0  0  0  0  0  0  0  0
    4.3068   -0.2493    0.4373 C   0  0  0  0  0  0  0  0  0  0  0  0
    4.1120   -0.5613   -0.9068 C   0  0  0  0  0  0  0  0  0  0  0  0
    5.1499   -0.3497   -1.8120 C   0  0  0  0  0  0  0  0  0  0  0  0
    6.3496    0.1558   -1.3349 C   0  0  0  0  0  0  0  0  0  0  0  0
    6.5770    0.4521   -0.0369 N   0  0  0  0  0  0  0  0  0  0  0  0
    5.5511    0.2327    0.8205 C   0  0  0  0  0  0  0  0  0  0  0  0
    2.1904   -3.0387    0.9714 H   0  0  0  0  0  0  0  0  0  0  0  0
    0.6584   -3.2366    1.8345 H   0  0  0  0  0  0  0  0  0  0  0  0
    2.0365   -2.5190    2.6734 H   0  0  0  0  0  0  0  0  0  0  0  0
   -0.9556   -1.7414    1.0601 H   0  0  0  0  0  0  0  0  0  0  0  0
   -2.1436    1.6319    0.0653 H   0  0  0  0  0  0  0  0  0  0  0  0
   -3.6372    3.1821   -0.9870 H   0  0  0  0  0  0  0  0  0  0  0  0
   -3.8578    3.1351    0.7758 H   0  0  0  0  0  0  0  0  0  0  0  0
   -5.1087    3.8398   -0.2563 H   0  0  0  0  0  0  0  0  0  0  0  0
   -4.0433   -3.3168   -0.1284 H   0  0  0  0  0  0  0  0  0  0  0  0
    0.0382    2.3361    0.0831 H   0  0  0  0  0  0  0  0  0  0  0  0
    2.3873    1.8903    0.6149 H   0  0  0  0  0  0  0  0  0  0  0  0
    3.1705   -0.9746   -1.2562 H   0  0  0  0  0  0  0  0  0  0  0  0
    5.0275   -0.5810   -2.8640 H   0  0  0  0  0  0  0  0  0  0  0  0
    7.1863    0.3360   -2.0040 H   0  0  0  0  0  0  0  0  0  0  0  0
    5.7616    0.4661    1.8600 H   0  0  0  0  0  0  0  0  0  0  0  0
  1  2  1  0
  2  3  1  0
  3  4  2  0
  4  5  1  0
  5  6  1  0
  6  7  2  0
  7  8  1  0
  8  9  1  0
  8 10  2  0
 10 11  1  0
 11 12  1  0
 12 13  2  0
 13 14  1  0
 14 15  2  0
  4 16  1  0
 16 17  2  0
 17 18  1  0
 18 19  1  0
 19 20  1  0
 20 21  1  0
 21 22  2  0
 22 23  1  0
 23 24  2  0
 24 25  1  0
 18  2  2  0
 25 20  2  0
 15  6  1  0
 12  7  1  0
  1 26  1  0
  1 27  1  0
  1 28  1  0
  3 29  1  0
  5 30  1  0
  9 31  1  0
  9 32  1  0
  9 33  1  0
 14 34  1  0
 16 35  1  0
 17 36  1  0
 21 37  1  0
 22 38  1  0
 23 39  1  0
 25 40  1  0
M  END
$$$$
OCNT-2312738
     RDKit          3D

  0  0  0  0  0  0  0  0  0  0999 V3000
M  V30 BEGIN CTAB
M  V30 COUNTS 43 44 0 0 0
M  V30 BEGIN ATOM
M  V30 1 C -4.696295 1.702878 -1.279603 0
M  V30 2 C -4.778367 0.374217 -1.428852 0
M  V30 3 C -4.044656 -0.696306 -0.671819 0 CFG=2
M  V30 4 O -5.031814 -1.639163 -0.196077 0
M  V30 5 C -4.791196 -1.880973 1.194305 0
M  V30 6 C -3.347218 -1.518190 1.440624 0
M  V30 7 C -3.179158 -0.305645 0.546695 0 CFG=1
M  V30 8 N -1.777306 -0.078775 0.226804 0
M  V30 9 C -1.185263 1.158156 0.314565 0
M  V30 10 O -1.785778 2.153130 0.707063 0
M  V30 11 C 0.204647 1.241648 -0.115547 0
M  V30 12 C 1.172579 0.255070 -0.296671 0
M  V30 13 C 1.113471 -1.205201 -0.082501 0
M  V30 14 F 0.065121 -1.735074 -0.774102 0
M  V30 15 F 0.869207 -1.483448 1.224754 0
M  V30 16 N 2.311427 0.916207 -0.691578 0
M  V30 17 C 3.621725 0.383043 -1.034252 0
M  V30 18 C 4.661634 0.530046 0.089384 0
M  V30 19 C 6.048729 0.157887 -0.438381 0
M  V30 20 C 4.324314 -0.330955 1.307943 0
M  V30 21 N 2.149459 2.248399 -0.776045 0
M  V30 22 C 0.884872 2.444454 -0.409132 0
M  V30 23 H -5.292735 2.363679 -1.902037 0
M  V30 24 H -4.048097 2.176624 -0.549856 0
M  V30 25 H -5.456876 -0.005300 -2.191907 0
M  V30 26 H -3.430546 -1.246317 -1.396966 0
M  V30 27 H -5.468389 -1.242980 1.772729 0
M  V30 28 H -5.009157 -2.926322 1.429354 0
M  V30 29 H -3.129918 -1.316211 2.493375 0
M  V30 30 H -2.693828 -2.336077 1.111305 0
M  V30 31 H -3.596152 0.566686 1.063364 0
M  V30 32 H -1.282239 -0.829105 -0.239809 0
M  V30 33 H 2.008597 -1.752673 -0.376110 0
M  V30 34 H 3.510364 -0.659453 -1.345047 0
M  V30 35 H 3.949632 0.933945 -1.925746 0
M  V30 36 H 4.695241 1.577724 0.414911 0
M  V30 37 H 6.079705 -0.884168 -0.774617 0
M  V30 38 H 6.808908 0.285974 0.339537 0
M  V30 39 H 6.327422 0.795801 -1.283818 0
M  V30 40 H 5.102183 -0.239837 2.073795 0
M  V30 41 H 4.241245 -1.388832 1.037052 0
M  V30 42 H 3.380358 -0.019320 1.765395 0
M  V30 43 H 0.494151 3.454755 -0.372479 0
M  V30 END ATOM
M  V30 BEGIN BOND
M  V30 1 2 1 2
M  V30 2 1 2 3
M  V30 3 1 3 4
M  V30 4 1 4 5
M  V30 5 1 5 6
M  V30 6 1 6 7
M  V30 7 1 7 8
M  V30 8 1 8 9
M  V30 9 2 9 10
M  V30 10 1 9 11
M  V30 11 2 11 12
M  V30 12 1 12 13
M  V30 13 1 13 14
M  V30 14 1 13 15
M  V30 15 1 12 16
M  V30 16 1 16 17
M  V30 17 1 17 18
M  V30 18 1 18 19
M  V30 19 1 18 20
M  V30 20 1 16 21
M  V30 21 2 21 22
M  V30 22 1 7 3
M  V30 23 1 22 11
M  V30 24 1 1 23
M  V30 25 1 1 24
M  V30 26 1 2 25
M  V30 27 1 3 26 CFG=3
M  V30 28 1 5 27
M  V30 29 1 5 28
M  V30 30 1 6 29
M  V30 31 1 6 30
M  V30 32 1 7 31 CFG=1
M  V30 33 1 8 32
M  V30 34 1 13 33
M  V30 35 1 17 34
M  V30 36 1 17 35
M  V30 37 1 18 36
M  V30 38 1 19 37
M  V30 39 1 19 38
M  V30 40 1 19 39
M  V30 41 1 20 40
M  V30 42 1 20 41
M  V30 43 1 20 42
M  V30 44 1 22 43
M  V30 END BOND
M  V30 BEGIN COLLECTION
M  V30 MDLV30/STERAC1 ATOMS=(2 3 7)
M  V30 END COLLECTION
M  V30 END CTAB
M  END
>  <_CXSMILES_Data>  (660) 
|&1:2,6|

$$$$
OCNT-2312743
     RDKit          3D

 49 51  0  0  0  0  0  0  0  0999 V2000
    6.3102    2.1657    0.8985 C   0  0  0  0  0  0  0  0  0  0  0  0
    6.5878    1.0638    0.0441 O   0  0  0  0  0  0  0  0  0  0  0  0
    5.4095    0.4959   -0.5379 C   0  0  0  0  0  0  0  0  0  0  0  0
    4.7635   -0.5232    0.3919 C   0  0  0  0  0  0  0  0  0  0  0  0
    3.5111   -1.0221   -0.1433 N   0  0  0  0  0  0  0  0  0  0  0  0
    3.5531   -2.0387   -1.0215 N   0  0  0  0  0  0  0  0  0  0  0  0
    2.2693   -2.2999   -1.2782 C   0  0  0  0  0  0  0  0  0  0  0  0
    1.9141   -3.4016   -2.2065 C   0  0  0  0  0  0  0  0  0  0  0  0
    1.3965   -1.4342   -0.5593 C   0  0  0  0  0  0  0  0  0  0  0  0
    0.0117   -1.4751   -0.6194 N   0  0  0  0  0  0  0  0  0  0  0  0
   -0.8708   -0.9487    0.2964 C   0  0  0  0  0  0  0  0  0  0  0  0
   -0.6039   -0.4628    1.3859 O   0  0  0  0  0  0  0  0  0  0  0  0
   -2.1681   -1.0707   -0.1621 N   0  0  0  0  0  0  0  0  0  0  0  0
   -3.2612   -0.4382    0.5635 C   0  0  1  0  0  0  0  0  0  0  0  0
   -3.6441    0.8892   -0.0385 C   0  0  0  0  0  0  0  0  0  0  0  0
   -2.8124    1.9439   -0.3900 C   0  0  0  0  0  0  0  0  0  0  0  0
   -3.3884    3.1045   -0.9105 C   0  0  0  0  0  0  0  0  0  0  0  0
   -4.7793    3.2055   -1.0595 C   0  0  0  0  0  0  0  0  0  0  0  0
   -5.6127    2.1502   -0.6845 C   0  0  0  0  0  0  0  0  0  0  0  0
   -5.0318    0.9980   -0.1785 C   0  0  0  0  0  0  0  0  0  0  0  0
   -5.7331   -0.2235    0.3344 C   0  0  0  0  0  0  0  0  0  0  0  0
   -4.5862   -1.2445    0.4222 C   0  0  1  0  0  0  0  0  0  0  0  0
   -4.5799   -2.0555   -0.7681 O   0  0  0  0  0  0  0  0  0  0  0  0
    2.2382   -0.5691    0.1165 C   0  0  0  0  0  0  0  0  0  0  0  0
    1.9771    0.6326    0.9531 C   0  0  0  0  0  0  0  0  0  0  0  0
    7.2586    2.5397    1.2935 H   0  0  0  0  0  0  0  0  0  0  0  0
    5.6809    1.8622    1.7394 H   0  0  0  0  0  0  0  0  0  0  0  0
    5.8263    2.9713    0.3379 H   0  0  0  0  0  0  0  0  0  0  0  0
    4.7102    1.2890   -0.8299 H   0  0  0  0  0  0  0  0  0  0  0  0
    5.7210   -0.0028   -1.4629 H   0  0  0  0  0  0  0  0  0  0  0  0
    5.4319   -1.3792    0.5456 H   0  0  0  0  0  0  0  0  0  0  0  0
    4.5733   -0.1108    1.3874 H   0  0  0  0  0  0  0  0  0  0  0  0
    1.3218   -4.1614   -1.6867 H   0  0  0  0  0  0  0  0  0  0  0  0
    1.3248   -3.0175   -3.0454 H   0  0  0  0  0  0  0  0  0  0  0  0
    2.8050   -3.8894   -2.6158 H   0  0  0  0  0  0  0  0  0  0  0  0
   -0.3783   -2.1710   -1.2367 H   0  0  0  0  0  0  0  0  0  0  0  0
   -2.2654   -1.0044   -1.1666 H   0  0  0  0  0  0  0  0  0  0  0  0
   -3.0204   -0.2905    1.6226 H   0  0  0  0  0  0  0  0  0  0  0  0
   -1.7365    1.8783   -0.2557 H   0  0  0  0  0  0  0  0  0  0  0  0
   -2.7546    3.9411   -1.1946 H   0  0  0  0  0  0  0  0  0  0  0  0
   -5.2121    4.1187   -1.4610 H   0  0  0  0  0  0  0  0  0  0  0  0
   -6.6901    2.2365   -0.7856 H   0  0  0  0  0  0  0  0  0  0  0  0
   -6.5272   -0.5465   -0.3452 H   0  0  0  0  0  0  0  0  0  0  0  0
   -6.1415   -0.0091    1.3275 H   0  0  0  0  0  0  0  0  0  0  0  0
   -4.7289   -1.9335    1.2616 H   0  0  0  0  0  0  0  0  0  0  0  0
   -3.7991   -2.6314   -0.6821 H   0  0  0  0  0  0  0  0  0  0  0  0
    1.1031    1.1816    0.5897 H   0  0  0  0  0  0  0  0  0  0  0  0
    2.8108    1.3409    0.9222 H   0  0  0  0  0  0  0  0  0  0  0  0
    1.8161    0.3467    1.9968 H   0  0  0  0  0  0  0  0  0  0  0  0
  1  2  1  0
  2  3  1  0
  3  4  1  0
  4  5  1  0
  5  6  1  0
  6  7  2  0
  7  8  1  0
  7  9  1  0
  9 10  1  0
 10 11  1  0
 11 12  2  0
 11 13  1  0
 13 14  1  0
 14 15  1  0
 15 16  2  0
 16 17  1  0
 17 18  2  0
 18 19  1  0
 19 20  2  0
 20 21  1  0
 21 22  1  0
 22 23  1  0
  9 24  2  0
 24 25  1  0
 24  5  1  0
 22 14  1  0
 20 15  1  0
  1 26  1  0
  1 27  1  0
  1 28  1  0
  3 29  1  0
  3 30  1  0
  4 31  1  0
  4 32  1  0
  8 33  1  0
  8 34  1  0
  8 35  1  0
 10 36  1  0
 13 37  1  0
 14 38  1  1
 16 39  1  0
 17 40  1  0
 18 41  1  0
 19 42  1  0
 21 43  1  0
 21 44  1  0
 22 45  1  1
 23 46  1  0
 25 47  1  0
 25 48  1  0
 25 49  1  0
M  END
$$$$
OCNT-2312773
     RDKit          3D

 49 52  0  0  0  0  0  0  0  0999 V2000
    2.5505    0.1222   -1.6023 C   0  0  0  0  0  0  0  0  0  0  0  0
    2.5248   -0.5360   -0.2767 C   0  0  0  0  0  0  0  0  0  0  0  0
    1.5479   -1.3589    0.2638 C   0  0  0  0  0  0  0  0  0  0  0  0
    0.2431   -1.8117   -0.2903 C   0  0  0  0  0  0  0  0  0  0  0  0
   -0.7712   -0.6882   -0.4711 C   0  0  0  0  0  0  0  0  0  0  0  0
   -0.4694    0.4999   -0.3422 O   0  0  0  0  0  0  0  0  0  0  0  0
   -2.0666   -1.0642   -0.8425 N   0  0  0  0  0  0  0  0  0  0  0  0
   -2.5605   -2.4483   -0.8111 C   0  0  0  0  0  0  0  0  0  0  0  0
   -3.7317   -2.6669   -1.7737 C   0  0  0  0  0  0  0  0  0  0  0  0
   -4.7599   -1.6894   -1.5810 O   0  0  0  0  0  0  0  0  0  0  0  0
   -4.2393   -0.3734   -1.8205 C   0  0  0  0  0  0  0  0  0  0  0  0
   -3.1192   -0.0185   -0.8229 C   0  0  0  0  0  0  0  0  0  0  0  0
   -3.6548    0.1779    0.6155 C   0  0  0  0  0  0  0  0  0  0  0  0
   -4.4767    1.4286    0.7687 C   0  0  0  0  0  0  0  0  0  0  0  0
   -3.8048    2.7741    0.8556 C   0  0  0  0  0  0  0  0  0  0  0  0
   -4.4592    2.1831    2.0734 C   0  0  0  0  0  0  0  0  0  0  0  0
    1.9744   -1.8414    1.4643 N   0  0  0  0  0  0  0  0  0  0  0  0
    3.1703   -1.3373    1.7078 N   0  0  0  0  0  0  0  0  0  0  0  0
    3.5059   -0.4728    0.7103 N   0  0  0  0  0  0  0  0  0  0  0  0
    4.7116    0.2838    0.8147 C   0  0  0  0  0  0  0  0  0  0  0  0
    5.0101    1.3531   -0.0373 C   0  0  0  0  0  0  0  0  0  0  0  0
    6.2082    2.0629    0.1088 C   0  0  0  0  0  0  0  0  0  0  0  0
    7.1148    1.7192    1.1082 C   0  0  0  0  0  0  0  0  0  0  0  0
    6.8234    0.6696    1.9730 C   0  0  0  0  0  0  0  0  0  0  0  0
    5.6285   -0.0410    1.8321 C   0  0  0  0  0  0  0  0  0  0  0  0
    2.3042    1.1846   -1.5162 H   0  0  0  0  0  0  0  0  0  0  0  0
    3.5226    0.0038   -2.0900 H   0  0  0  0  0  0  0  0  0  0  0  0
    1.8104   -0.3260   -2.2741 H   0  0  0  0  0  0  0  0  0  0  0  0
   -0.1781   -2.5566    0.3943 H   0  0  0  0  0  0  0  0  0  0  0  0
    0.4099   -2.2880   -1.2629 H   0  0  0  0  0  0  0  0  0  0  0  0
   -1.7618   -3.1528   -1.0553 H   0  0  0  0  0  0  0  0  0  0  0  0
   -2.8791   -2.6431    0.2194 H   0  0  0  0  0  0  0  0  0  0  0  0
   -4.1712   -3.6554   -1.6073 H   0  0  0  0  0  0  0  0  0  0  0  0
   -3.3924   -2.6262   -2.8158 H   0  0  0  0  0  0  0  0  0  0  0  0
   -5.0716    0.3330   -1.7563 H   0  0  0  0  0  0  0  0  0  0  0  0
   -3.8621   -0.3284   -2.8501 H   0  0  0  0  0  0  0  0  0  0  0  0
   -2.6708    0.9258   -1.1558 H   0  0  0  0  0  0  0  0  0  0  0  0
   -2.8096    0.2119    1.3151 H   0  0  0  0  0  0  0  0  0  0  0  0
   -4.2623   -0.6829    0.9200 H   0  0  0  0  0  0  0  0  0  0  0  0
   -5.4322    1.3641    0.2603 H   0  0  0  0  0  0  0  0  0  0  0  0
   -2.7205    2.8171    0.8355 H   0  0  0  0  0  0  0  0  0  0  0  0
   -4.2894    3.6178    0.3776 H   0  0  0  0  0  0  0  0  0  0  0  0
   -5.3870    2.6268    2.4166 H   0  0  0  0  0  0  0  0  0  0  0  0
   -3.8154    1.8338    2.8731 H   0  0  0  0  0  0  0  0  0  0  0  0
    4.3299    1.6986   -0.8042 H   0  0  0  0  0  0  0  0  0  0  0  0
    6.4276    2.8959   -0.5552 H   0  0  0  0  0  0  0  0  0  0  0  0
    8.0420    2.2754    1.2191 H   0  0  0  0  0  0  0  0  0  0  0  0
    7.5227    0.4017    2.7611 H   0  0  0  0  0  0  0  0  0  0  0  0
    5.4339   -0.8572    2.5268 H   0  0  0  0  0  0  0  0  0  0  0  0
  1  2  1  0
  2  3  2  0
  3  4  1  0
  4  5  1  0
  5  6  2  0
  5  7  1  0
  7  8  1  0
  8  9  1  0
  9 10  1  0
 10 11  1  0
 11 12  1  0
 12 13  1  0
 13 14  1  0
 14 15  1  0
 15 16  1  0
  3 17  1  0
 17 18  2  0
 18 19  1  0
 19 20  1  0
 20 21  2  0
 21 22  1  0
 22 23  2  0
 23 24  1  0
 24 25  2  0
 19  2  1  0
 25 20  1  0
 12  7  1  0
 16 14  1  0
  1 26  1  0
  1 27  1  0
  1 28  1  0
  4 29  1  0
  4 30  1  0
  8 31  1  0
  8 32  1  0
  9 33  1  0
  9 34  1  0
 11 35  1  0
 11 36  1  0
 12 37  1  0
 13 38  1  0
 13 39  1  0
 14 40  1  0
 15 41  1  0
 15 42  1  0
 16 43  1  0
 16 44  1  0
 21 45  1  0
 22 46  1  0
 23 47  1  0
 24 48  1  0
 25 49  1  0
M  END
$$$$
OCNT-2312798
     RDKit          3D

 45 47  0  0  0  0  0  0  0  0999 V2000
   -0.5506   -1.0332    1.1156 C   0  0  0  0  0  0  0  0  0  0  0  0
   -0.9727   -0.4318   -0.2359 C   0  0  0  0  0  0  0  0  0  0  0  0
   -1.8351    0.8565   -0.0617 C   0  0  0  0  0  0  0  0  0  0  0  0
   -3.1550    0.7056    0.6637 C   0  0  0  0  0  0  0  0  0  0  0  0
   -3.2076    0.7750    2.0650 C   0  0  0  0  0  0  0  0  0  0  0  0
   -4.4240    0.6396    2.7355 C   0  0  0  0  0  0  0  0  0  0  0  0
   -5.5896    0.4427    2.0066 C   0  0  0  0  0  0  0  0  0  0  0  0
   -6.7572    0.3126    2.6501 F   0  0  0  0  0  0  0  0  0  0  0  0
   -5.5631    0.3831    0.6190 C   0  0  0  0  0  0  0  0  0  0  0  0
   -4.3475    0.5184   -0.0533 C   0  0  0  0  0  0  0  0  0  0  0  0
   -1.6924   -1.5294   -1.0616 C   0  0  0  0  0  0  0  0  0  0  0  0
   -1.3608   -1.1807   -2.5039 C   0  0  0  0  0  0  0  0  0  0  0  0
    0.0900   -0.7447   -2.4080 C   0  0  0  0  0  0  0  0  0  0  0  0
    0.2102   -0.1298   -1.0919 N   0  0  0  0  0  0  0  0  0  0  0  0
    1.2476    0.7033   -0.6946 C   0  0  0  0  0  0  0  0  0  0  0  0
    1.2453    1.2772    0.3936 O   0  0  0  0  0  0  0  0  0  0  0  0
    2.4146    0.8565   -1.6876 C   0  0  0  0  0  0  0  0  0  0  0  0
    3.5477    1.5684   -1.2129 O   0  0  0  0  0  0  0  0  0  0  0  0
    4.4494    0.8924   -0.4444 C   0  0  0  0  0  0  0  0  0  0  0  0
    4.2839   -0.3679    0.1222 C   0  0  0  0  0  0  0  0  0  0  0  0
    5.3122   -0.9183    0.8888 C   0  0  0  0  0  0  0  0  0  0  0  0
    6.4757   -0.1866    1.0633 C   0  0  0  0  0  0  0  0  0  0  0  0
    6.6734    1.0374    0.5344 N   0  0  0  0  0  0  0  0  0  0  0  0
    5.6519    1.5477   -0.1965 C   0  0  0  0  0  0  0  0  0  0  0  0
   -1.4018   -1.4879    1.6334 H   0  0  0  0  0  0  0  0  0  0  0  0
    0.2062   -1.8147    0.9792 H   0  0  0  0  0  0  0  0  0  0  0  0
   -0.1199   -0.2805    1.7832 H   0  0  0  0  0  0  0  0  0  0  0  0
   -2.0320    1.3014   -1.0471 H   0  0  0  0  0  0  0  0  0  0  0  0
   -1.2553    1.6253    0.4658 H   0  0  0  0  0  0  0  0  0  0  0  0
   -2.2998    0.9418    2.6421 H   0  0  0  0  0  0  0  0  0  0  0  0
   -4.4687    0.6916    3.8185 H   0  0  0  0  0  0  0  0  0  0  0  0
   -6.4879    0.2362    0.0707 H   0  0  0  0  0  0  0  0  0  0  0  0
   -4.3371    0.4792   -1.1403 H   0  0  0  0  0  0  0  0  0  0  0  0
   -1.2685   -2.5182   -0.8388 H   0  0  0  0  0  0  0  0  0  0  0  0
   -2.7674   -1.5988   -0.8844 H   0  0  0  0  0  0  0  0  0  0  0  0
   -1.9891   -0.3508   -2.8471 H   0  0  0  0  0  0  0  0  0  0  0  0
   -1.5004   -2.0214   -3.1890 H   0  0  0  0  0  0  0  0  0  0  0  0
    0.7668   -1.6056   -2.4363 H   0  0  0  0  0  0  0  0  0  0  0  0
    0.3635   -0.0461   -3.2030 H   0  0  0  0  0  0  0  0  0  0  0  0
    2.7133   -0.1188   -2.0897 H   0  0  0  0  0  0  0  0  0  0  0  0
    2.0275    1.4419   -2.5297 H   0  0  0  0  0  0  0  0  0  0  0  0
    3.3696   -0.9384    0.0088 H   0  0  0  0  0  0  0  0  0  0  0  0
    5.2030   -1.8947    1.3478 H   0  0  0  0  0  0  0  0  0  0  0  0
    7.3000   -0.5757    1.6539 H   0  0  0  0  0  0  0  0  0  0  0  0
    5.8318    2.5400   -0.6013 H   0  0  0  0  0  0  0  0  0  0  0  0
  1  2  1  0
  2  3  1  0
  3  4  1  0
  4  5  1  0
  5  6  2  0
  6  7  1  0
  7  8  1  0
  7  9  2  0
  9 10  1  0
  2 11  1  0
 11 12  1  0
 12 13  1  0
 13 14  1  0
 14 15  1  0
 15 16  2  0
 15 17  1  0
 17 18  1  0
 18 19  1  0
 19 20  1  0
 20 21  2  0
 21 22  1  0
 22 23  2  0
 23 24  1  0
 14  2  1  0
 24 19  2  0
 10  4  2  0
  1 25  1  0
  1 26  1  0
  1 27  1  0
  3 28  1  0
  3 29  1  0
  5 30  1  0
  6 31  1  0
  9 32  1  0
 10 33  1  0
 11 34  1  0
 11 35  1  0
 12 36  1  0
 12 37  1  0
 13 38  1  0
 13 39  1  0
 17 40  1  0
 17 41  1  0
 20 42  1  0
 21 43  1  0
 22 44  1  0
 24 45  1  0
M  END
$$$$
OCNT-2312800
     RDKit          3D

 48 50  0  0  0  0  0  0  0  0999 V2000
    9.4367    0.1702   -0.3003 C   0  0  0  0  0  0  0  0  0  0  0  0
    8.2892    0.9887   -0.1178 O   0  0  0  0  0  0  0  0  0  0  0  0
    7.1076    0.3294   -0.0076 C   0  0  0  0  0  0  0  0  0  0  0  0
    6.9031   -1.0313   -0.0692 C   0  0  0  0  0  0  0  0  0  0  0  0
    5.2507   -1.4421    0.1162 S   0  0  0  0  0  0  0  0  0  0  0  0
    4.7877    0.2003    0.2827 C   0  0  0  0  0  0  0  0  0  0  0  0
    3.4034    0.6097    0.4862 C   0  0  0  0  0  0  0  0  0  0  0  0
    3.0692    1.7877    0.5897 O   0  0  0  0  0  0  0  0  0  0  0  0
    2.4768   -0.4139    0.5432 N   0  0  0  0  0  0  0  0  0  0  0  0
    1.0421   -0.1678    0.6106 C   0  0  0  0  0  0  0  0  0  0  0  0
    0.3067   -1.3798    1.2010 C   0  0  0  0  0  0  0  0  0  0  0  0
   -1.0964   -1.5711    0.6150 C   0  0  0  0  0  0  0  0  0  0  0  0
   -1.7302   -0.2752    0.3755 N   0  0  0  0  0  0  0  0  0  0  0  0
   -3.1677   -0.4257    0.0842 C   0  0  0  0  0  0  0  0  0  0  0  0
   -3.9249    0.9132    0.0498 C   0  0  0  0  0  0  0  0  0  0  0  0
   -5.4066    0.7068   -0.1607 C   0  0  0  0  0  0  0  0  0  0  0  0
   -6.2660    0.5622    0.9366 C   0  0  0  0  0  0  0  0  0  0  0  0
   -7.6318    0.3518    0.7416 C   0  0  0  0  0  0  0  0  0  0  0  0
   -8.1498    0.2801   -0.5503 C   0  0  0  0  0  0  0  0  0  0  0  0
   -7.3027    0.4176   -1.6484 C   0  0  0  0  0  0  0  0  0  0  0  0
   -5.9365    0.6281   -1.4557 C   0  0  0  0  0  0  0  0  0  0  0  0
   -1.0260    0.4935   -0.6656 C   0  0  0  0  0  0  0  0  0  0  0  0
    0.4732    0.1863   -0.7615 C   0  0  0  0  0  0  0  0  0  0  0  0
    5.8881    1.0335    0.1940 C   0  0  0  0  0  0  0  0  0  0  0  0
    9.3745   -0.3960   -1.2359 H   0  0  0  0  0  0  0  0  0  0  0  0
   10.3094    0.8271   -0.3665 H   0  0  0  0  0  0  0  0  0  0  0  0
    9.5870   -0.4979    0.5545 H   0  0  0  0  0  0  0  0  0  0  0  0
    7.6242   -1.8226   -0.2128 H   0  0  0  0  0  0  0  0  0  0  0  0
    2.8081   -1.3433    0.3187 H   0  0  0  0  0  0  0  0  0  0  0  0
    0.8908    0.6917    1.2774 H   0  0  0  0  0  0  0  0  0  0  0  0
    0.8742   -2.3054    1.0411 H   0  0  0  0  0  0  0  0  0  0  0  0
    0.2416   -1.2495    2.2892 H   0  0  0  0  0  0  0  0  0  0  0  0
   -1.0454   -2.1563   -0.3127 H   0  0  0  0  0  0  0  0  0  0  0  0
   -1.6773   -2.1661    1.3306 H   0  0  0  0  0  0  0  0  0  0  0  0
   -3.3118   -0.9669   -0.8607 H   0  0  0  0  0  0  0  0  0  0  0  0
   -3.6222   -1.0459    0.8687 H   0  0  0  0  0  0  0  0  0  0  0  0
   -3.5440    1.5601   -0.7499 H   0  0  0  0  0  0  0  0  0  0  0  0
   -3.7638    1.4617    0.9869 H   0  0  0  0  0  0  0  0  0  0  0  0
   -5.8751    0.6137    1.9505 H   0  0  0  0  0  0  0  0  0  0  0  0
   -8.2917    0.2440    1.5984 H   0  0  0  0  0  0  0  0  0  0  0  0
   -9.2136    0.1172   -0.7010 H   0  0  0  0  0  0  0  0  0  0  0  0
   -7.7065    0.3616   -2.6558 H   0  0  0  0  0  0  0  0  0  0  0  0
   -5.2877    0.7324   -2.3223 H   0  0  0  0  0  0  0  0  0  0  0  0
   -1.1493    1.5600   -0.4424 H   0  0  0  0  0  0  0  0  0  0  0  0
   -1.4633    0.3194   -1.6572 H   0  0  0  0  0  0  0  0  0  0  0  0
    0.9946    1.0478   -1.1952 H   0  0  0  0  0  0  0  0  0  0  0  0
    0.6368   -0.6514   -1.4530 H   0  0  0  0  0  0  0  0  0  0  0  0
    5.8149    2.1124    0.2730 H   0  0  0  0  0  0  0  0  0  0  0  0
  1  2  1  0
  2  3  1  0
  3  4  2  0
  4  5  1  0
  5  6  1  0
  6  7  1  0
  7  8  2  0
  7  9  1  0
  9 10  1  0
 10 11  1  0
 11 12  1  0
 12 13  1  0
 13 14  1  0
 14 15  1  0
 15 16  1  0
 16 17  2  0
 17 18  1  0
 18 19  2  0
 19 20  1  0
 20 21  2  0
 13 22  1  0
 22 23  1  0
  6 24  2  0
 24  3  1  0
 23 10  1  0
 21 16  1  0
  1 25  1  0
  1 26  1  0
  1 27  1  0
  4 28  1  0
  9 29  1  0
 10 30  1  0
 11 31  1  0
 11 32  1  0
 12 33  1  0
 12 34  1  0
 14 35  1  0
 14 36  1  0
 15 37  1  0
 15 38  1  0
 17 39  1  0
 18 40  1  0
 19 41  1  0
 20 42  1  0
 21 43  1  0
 22 44  1  0
 22 45  1  0
 23 46  1  0
 23 47  1  0
 24 48  1  0
M  END
$$$$
OCNT-2312825
     RDKit          3D

 36 39  0  0  0  0  0  0  0  0999 V2000
    0.6464   -2.6207   -0.6898 O   0  0  0  0  0  0  0  0  0  0  0  0
    0.5041   -1.6247    0.0129 C   0  0  0  0  0  0  0  0  0  0  0  0
   -0.6746   -1.2856    0.6359 N   0  0  0  0  0  0  0  0  0  0  0  0
   -1.9120   -1.9692    0.3815 C   0  0  0  0  0  0  0  0  0  0  0  0
   -2.6733   -1.1998   -0.6528 C   0  0  0  0  0  0  0  0  0  0  0  0
   -2.5518   -1.4233   -2.0114 C   0  0  0  0  0  0  0  0  0  0  0  0
   -3.5407   -0.4020   -2.9441 S   0  0  0  0  0  0  0  0  0  0  0  0
   -4.1656    0.3876   -1.5498 C   0  0  0  0  0  0  0  0  0  0  0  0
   -5.1102    1.4335   -1.5270 C   0  0  0  0  0  0  0  0  0  0  0  0
   -5.5064    1.9641   -0.2984 C   0  0  0  0  0  0  0  0  0  0  0  0
   -4.9771    1.4693    0.8836 C   0  0  0  0  0  0  0  0  0  0  0  0
   -4.0405    0.4311    0.8566 C   0  0  0  0  0  0  0  0  0  0  0  0
   -3.6162   -0.1345   -0.3744 C   0  0  0  0  0  0  0  0  0  0  0  0
    1.5863   -0.6600    0.2655 C   0  0  0  0  0  0  0  0  0  0  0  0
    1.3986    0.4424    1.0266 N   0  0  0  0  0  0  0  0  0  0  0  0
    2.5956    1.0576    1.0043 N   0  0  0  0  0  0  0  0  0  0  0  0
    3.5331    0.3921    0.2766 C   0  0  0  0  0  0  0  0  0  0  0  0
    4.9926    0.8324    0.0397 C   0  0  0  0  0  0  0  0  0  0  0  0
    6.1070   -0.1090    0.4106 C   0  0  0  0  0  0  0  0  0  0  0  0
    5.8682    1.1263    1.2285 C   0  0  0  0  0  0  0  0  0  0  0  0
    2.9166   -0.7235   -0.2268 C   0  0  0  0  0  0  0  0  0  0  0  0
   -0.6767   -0.3714    1.0792 H   0  0  0  0  0  0  0  0  0  0  0  0
   -2.4647   -2.0221    1.3242 H   0  0  0  0  0  0  0  0  0  0  0  0
   -1.7221   -2.9944    0.0452 H   0  0  0  0  0  0  0  0  0  0  0  0
   -1.9127   -2.1481   -2.4997 H   0  0  0  0  0  0  0  0  0  0  0  0
   -5.5240    1.8230   -2.4528 H   0  0  0  0  0  0  0  0  0  0  0  0
   -6.2343    2.7715   -0.2717 H   0  0  0  0  0  0  0  0  0  0  0  0
   -5.2897    1.8891    1.8366 H   0  0  0  0  0  0  0  0  0  0  0  0
   -3.6378    0.0608    1.7959 H   0  0  0  0  0  0  0  0  0  0  0  0
    2.7043    1.9300    1.5102 H   0  0  0  0  0  0  0  0  0  0  0  0
    5.1412    1.4409   -0.8479 H   0  0  0  0  0  0  0  0  0  0  0  0
    5.8581   -1.0664    0.8547 H   0  0  0  0  0  0  0  0  0  0  0  0
    6.9802   -0.1354   -0.2312 H   0  0  0  0  0  0  0  0  0  0  0  0
    6.5851    1.9351    1.1428 H   0  0  0  0  0  0  0  0  0  0  0  0
    5.4709    0.9917    2.2279 H   0  0  0  0  0  0  0  0  0  0  0  0
    3.3424   -1.4884   -0.8613 H   0  0  0  0  0  0  0  0  0  0  0  0
  1  2  2  0
  2  3  1  0
  3  4  1  0
  4  5  1  0
  5  6  2  0
  6  7  1  0
  7  8  1  0
  8  9  2  0
  9 10  1  0
 10 11  2  0
 11 12  1  0
 12 13  2  0
  2 14  1  0
 14 15  2  0
 15 16  1  0
 16 17  1  0
 17 18  1  0
 18 19  1  0
 19 20  1  0
 17 21  2  0
 13  5  1  0
 21 14  1  0
 13  8  1  0
 20 18  1  0
  3 22  1  0
  4 23  1  0
  4 24  1  0
  6 25  1  0
  9 26  1  0
 10 27  1  0
 11 28  1  0
 12 29  1  0
 16 30  1  0
 18 31  1  0
 19 32  1  0
 19 33  1  0
 20 34  1  0
 20 35  1  0
 21 36  1  0
M  END
$$$$
OCNT-2312831
     RDKit          3D

 41 43  0  0  0  0  0  0  0  0999 V2000
   -4.9173   -0.6960   -2.6695 C   0  0  0  0  0  0  0  0  0  0  0  0
   -3.9384   -1.0271   -1.5435 C   0  0  0  0  0  0  0  0  0  0  0  0
   -2.5129   -0.5596   -1.8515 C   0  0  0  0  0  0  0  0  0  0  0  0
   -2.2406    0.0157   -2.9031 O   0  0  0  0  0  0  0  0  0  0  0  0
   -1.6052   -0.9074   -0.8590 N   0  0  0  0  0  0  0  0  0  0  0  0
   -0.2156   -0.6830   -0.8328 C   0  0  0  0  0  0  0  0  0  0  0  0
    0.4747   -1.1013    0.3099 C   0  0  0  0  0  0  0  0  0  0  0  0
    1.8571   -0.9216    0.4170 C   0  0  0  0  0  0  0  0  0  0  0  0
    2.5765   -0.3056   -0.6140 C   0  0  0  0  0  0  0  0  0  0  0  0
    4.0752   -0.1193   -0.5188 C   0  0  0  0  0  0  0  0  0  0  0  0
    4.5424    0.6150    0.7168 C   0  0  0  0  0  0  0  0  0  0  0  0
    4.1147    1.9197    0.9849 C   0  0  0  0  0  0  0  0  0  0  0  0
    4.5768    2.5514    2.1292 C   0  0  0  0  0  0  0  0  0  0  0  0
    5.4274    1.9830    3.0099 N   0  0  0  0  0  0  0  0  0  0  0  0
    5.8350    0.7274    2.7307 C   0  0  0  0  0  0  0  0  0  0  0  0
    5.4294    0.0127    1.6133 C   0  0  0  0  0  0  0  0  0  0  0  0
    1.8840    0.1014   -1.7615 C   0  0  0  0  0  0  0  0  0  0  0  0
    0.5004   -0.0846   -1.8687 C   0  0  0  0  0  0  0  0  0  0  0  0
   -4.3584   -0.5169   -0.2428 N   0  0  0  0  0  0  0  0  0  0  0  0
   -4.9886    0.6593    0.0485 C   0  0  0  0  0  0  0  0  0  0  0  0
   -5.1045    0.7047    1.4179 C   0  0  0  0  0  0  0  0  0  0  0  0
   -4.4968   -0.4791    1.8693 C   0  0  0  0  0  0  0  0  0  0  0  0
   -4.0200   -1.2205    0.8651 N   0  0  0  0  0  0  0  0  0  0  0  0
   -5.9305   -1.0298   -2.4222 H   0  0  0  0  0  0  0  0  0  0  0  0
   -4.6164   -1.1917   -3.5986 H   0  0  0  0  0  0  0  0  0  0  0  0
   -4.9549    0.3793   -2.8729 H   0  0  0  0  0  0  0  0  0  0  0  0
   -3.9075   -2.1221   -1.4492 H   0  0  0  0  0  0  0  0  0  0  0  0
   -2.0067   -1.3269   -0.0180 H   0  0  0  0  0  0  0  0  0  0  0  0
   -0.0530   -1.5723    1.1360 H   0  0  0  0  0  0  0  0  0  0  0  0
    2.3653   -1.2590    1.3179 H   0  0  0  0  0  0  0  0  0  0  0  0
    4.4480    0.4311   -1.3931 H   0  0  0  0  0  0  0  0  0  0  0  0
    4.5392   -1.1130   -0.5714 H   0  0  0  0  0  0  0  0  0  0  0  0
    3.4282    2.4353    0.3211 H   0  0  0  0  0  0  0  0  0  0  0  0
    4.2653    3.5627    2.3727 H   0  0  0  0  0  0  0  0  0  0  0  0
    6.5181    0.2930    3.4538 H   0  0  0  0  0  0  0  0  0  0  0  0
    5.8001   -0.9945    1.4518 H   0  0  0  0  0  0  0  0  0  0  0  0
    2.4128    0.5687   -2.5897 H   0  0  0  0  0  0  0  0  0  0  0  0
    0.0146    0.2497   -2.7804 H   0  0  0  0  0  0  0  0  0  0  0  0
   -5.2928    1.3592   -0.7181 H   0  0  0  0  0  0  0  0  0  0  0  0
   -5.5552    1.4898    2.0081 H   0  0  0  0  0  0  0  0  0  0  0  0
   -4.3697   -0.8274    2.8866 H   0  0  0  0  0  0  0  0  0  0  0  0
  1  2  1  0
  2  3  1  0
  3  4  2  0
  3  5  1  0
  5  6  1  0
  6  7  1  0
  7  8  2  0
  8  9  1  0
  9 10  1  0
 10 11  1  0
 11 12  2  0
 12 13  1  0
 13 14  2  0
 14 15  1  0
 15 16  2  0
  9 17  2  0
 17 18  1  0
  2 19  1  0
 19 20  1  0
 20 21  2  0
 21 22  1  0
 22 23  2  0
 18  6  2  0
 23 19  1  0
 16 11  1  0
  1 24  1  0
  1 25  1  0
  1 26  1  0
  2 27  1  0
  5 28  1  0
  7 29  1  0
  8 30  1  0
 10 31  1  0
 10 32  1  0
 12 33  1  0
 13 34  1  0
 15 35  1  0
 16 36  1  0
 17 37  1  0
 18 38  1  0
 20 39  1  0
 21 40  1  0
 22 41  1  0
M  END
$$$$
OCNT-2312832
     RDKit          3D

 42 45  0  0  0  0  0  0  0  0999 V2000
    7.6233    2.6311    1.0668 Cl  0  0  0  0  0  0  0  0  0  0  0  0
    6.5683    1.5782    0.2054 C   0  0  0  0  0  0  0  0  0  0  0  0
    6.9375    1.1141   -1.0554 C   0  0  0  0  0  0  0  0  0  0  0  0
    6.0844    0.2618   -1.7530 C   0  0  0  0  0  0  0  0  0  0  0  0
    4.8670   -0.1215   -1.1844 C   0  0  0  0  0  0  0  0  0  0  0  0
    4.4852    0.3401    0.0862 C   0  0  0  0  0  0  0  0  0  0  0  0
    3.2056   -0.0820    0.6492 C   0  0  0  0  0  0  0  0  0  0  0  0
    2.3010   -0.8968    0.1407 N   0  0  0  0  0  0  0  0  0  0  0  0
    1.2910   -0.9184    1.0841 C   0  0  0  0  0  0  0  0  0  0  0  0
    0.0590   -1.7410    0.8925 C   0  0  0  0  0  0  0  0  0  0  0  0
   -0.9680   -0.9801    0.1661 N   0  0  0  0  0  0  0  0  0  0  0  0
   -1.6913   -0.0077    0.9974 C   0  0  0  0  0  0  0  0  0  0  0  0
   -3.1257   -0.4285    1.3166 C   0  0  0  0  0  0  0  0  0  0  0  0
   -3.9466   -0.6476    0.0367 C   0  0  0  0  0  0  0  0  0  0  0  0
   -4.6899    0.5845   -0.3644 C   0  0  0  0  0  0  0  0  0  0  0  0
   -4.3865    1.8506   -0.1550 N   0  0  0  0  0  0  0  0  0  0  0  0
   -5.4132    2.5361   -0.7515 C   0  0  0  0  0  0  0  0  0  0  0  0
   -6.3073    1.6526   -1.2997 C   0  0  0  0  0  0  0  0  0  0  0  0
   -5.8558    0.3913   -1.0577 O   0  0  0  0  0  0  0  0  0  0  0  0
   -3.0721   -1.1406   -1.1256 C   0  0  0  0  0  0  0  0  0  0  0  0
   -1.8370   -1.8714   -0.6084 C   0  0  0  0  0  0  0  0  0  0  0  0
    1.6570   -0.1274    2.1492 C   0  0  0  0  0  0  0  0  0  0  0  0
    2.8761    0.4151    1.8837 O   0  0  0  0  0  0  0  0  0  0  0  0
    5.3532    1.1982    0.7769 C   0  0  0  0  0  0  0  0  0  0  0  0
    7.8842    1.4125   -1.4979 H   0  0  0  0  0  0  0  0  0  0  0  0
    6.3627   -0.1045   -2.7381 H   0  0  0  0  0  0  0  0  0  0  0  0
    4.2062   -0.7869   -1.7398 H   0  0  0  0  0  0  0  0  0  0  0  0
   -0.3227   -2.1121    1.8517 H   0  0  0  0  0  0  0  0  0  0  0  0
    0.3576   -2.6252    0.3133 H   0  0  0  0  0  0  0  0  0  0  0  0
   -1.7083    0.9466    0.4566 H   0  0  0  0  0  0  0  0  0  0  0  0
   -1.1699    0.1982    1.9387 H   0  0  0  0  0  0  0  0  0  0  0  0
   -3.5968    0.3114    1.9753 H   0  0  0  0  0  0  0  0  0  0  0  0
   -3.0951   -1.3659    1.8886 H   0  0  0  0  0  0  0  0  0  0  0  0
   -4.6936   -1.4204    0.2648 H   0  0  0  0  0  0  0  0  0  0  0  0
   -5.4517    3.6162   -0.7541 H   0  0  0  0  0  0  0  0  0  0  0  0
   -7.2330    1.7389   -1.8483 H   0  0  0  0  0  0  0  0  0  0  0  0
   -3.6592   -1.8088   -1.7680 H   0  0  0  0  0  0  0  0  0  0  0  0
   -2.7543   -0.3066   -1.7667 H   0  0  0  0  0  0  0  0  0  0  0  0
   -2.1572   -2.7318   -0.0054 H   0  0  0  0  0  0  0  0  0  0  0  0
   -1.2751   -2.2670   -1.4628 H   0  0  0  0  0  0  0  0  0  0  0  0
    1.2054    0.1412    3.0922 H   0  0  0  0  0  0  0  0  0  0  0  0
    5.0856    1.5736    1.7617 H   0  0  0  0  0  0  0  0  0  0  0  0
  1  2  1  0
  2  3  1  0
  3  4  2  0
  4  5  1  0
  5  6  2  0
  6  7  1  0
  7  8  2  0
  8  9  1  0
  9 10  1  0
 10 11  1  0
 11 12  1  0
 12 13  1  0
 13 14  1  0
 14 15  1  0
 15 16  2  0
 16 17  1  0
 17 18  2  0
 18 19  1  0
 14 20  1  0
 20 21  1  0
  9 22  2  0
 22 23  1  0
  6 24  1  0
 24  2  2  0
 23  7  1  0
 21 11  1  0
 19 15  1  0
  3 25  1  0
  4 26  1  0
  5 27  1  0
 10 28  1  0
 10 29  1  0
 12 30  1  0
 12 31  1  0
 13 32  1  0
 13 33  1  0
 14 34  1  0
 17 35  1  0
 18 36  1  0
 20 37  1  0
 20 38  1  0
 21 39  1  0
 21 40  1  0
 22 41  1  0
 24 42  1  0
M  END
$$$$
OCNT-2312836
     RDKit          3D

 39 41  0  0  0  0  0  0  0  0999 V2000
    3.7088    2.3029   -1.3448 C   0  0  0  0  0  0  0  0  0  0  0  0
    3.4665    0.8975   -0.8823 C   0  0  0  0  0  0  0  0  0  0  0  0
    4.5018   -0.0246   -0.8769 C   0  0  0  0  0  0  0  0  0  0  0  0
    4.2305   -1.3180   -0.4489 C   0  0  0  0  0  0  0  0  0  0  0  0
    2.9370   -1.6552   -0.0336 C   0  0  0  0  0  0  0  0  0  0  0  0
    2.6722   -3.0047    0.3621 C   0  0  0  0  0  0  0  0  0  0  0  0
    2.5097   -4.1063    0.6934 N   0  0  0  0  0  0  0  0  0  0  0  0
    1.9371   -0.6733   -0.0517 C   0  0  0  0  0  0  0  0  0  0  0  0
    0.6201   -0.9575    0.3711 N   0  0  0  0  0  0  0  0  0  0  0  0
    0.5303   -1.0648    1.8414 C   0  0  0  0  0  0  0  0  0  0  0  0
   -0.8471   -0.6507    2.3695 C   0  0  0  0  0  0  0  0  0  0  0  0
   -1.9717   -1.1404    1.4623 C   0  0  0  0  0  0  0  0  0  0  0  0
   -1.7932   -0.6597    0.0044 C   0  0  0  0  0  0  0  0  0  0  0  0
   -2.8756    0.3158   -0.4259 C   0  0  0  0  0  0  0  0  0  0  0  0
   -3.6788    0.0277   -1.5345 C   0  0  0  0  0  0  0  0  0  0  0  0
   -4.6551    0.9386   -1.9103 C   0  0  0  0  0  0  0  0  0  0  0  0
   -4.8842    2.1032   -1.2688 N   0  0  0  0  0  0  0  0  0  0  0  0
   -4.1004    2.3672   -0.2030 C   0  0  0  0  0  0  0  0  0  0  0  0
   -3.0992    1.5205    0.2499 C   0  0  0  0  0  0  0  0  0  0  0  0
   -0.3838   -0.0762   -0.2476 C   0  0  0  0  0  0  0  0  0  0  0  0
    2.2110    0.5853   -0.4805 N   0  0  0  0  0  0  0  0  0  0  0  0
    4.0489    2.3053   -2.3850 H   0  0  0  0  0  0  0  0  0  0  0  0
    4.4662    2.7824   -0.7169 H   0  0  0  0  0  0  0  0  0  0  0  0
    2.7908    2.8965   -1.2849 H   0  0  0  0  0  0  0  0  0  0  0  0
    5.4988    0.2511   -1.2056 H   0  0  0  0  0  0  0  0  0  0  0  0
    5.0239   -2.0625   -0.4487 H   0  0  0  0  0  0  0  0  0  0  0  0
    0.7091   -2.1073    2.1285 H   0  0  0  0  0  0  0  0  0  0  0  0
    1.2895   -0.4510    2.3446 H   0  0  0  0  0  0  0  0  0  0  0  0
   -0.8948    0.4420    2.4528 H   0  0  0  0  0  0  0  0  0  0  0  0
   -0.9828   -1.0432    3.3839 H   0  0  0  0  0  0  0  0  0  0  0  0
   -2.9431   -0.8478    1.8779 H   0  0  0  0  0  0  0  0  0  0  0  0
   -1.9614   -2.2388    1.4703 H   0  0  0  0  0  0  0  0  0  0  0  0
   -1.8876   -1.5588   -0.6223 H   0  0  0  0  0  0  0  0  0  0  0  0
   -3.5542   -0.8886   -2.1027 H   0  0  0  0  0  0  0  0  0  0  0  0
   -5.2975    0.7473   -2.7652 H   0  0  0  0  0  0  0  0  0  0  0  0
   -4.3027    3.3102    0.2969 H   0  0  0  0  0  0  0  0  0  0  0  0
   -2.5107    1.8061    1.1150 H   0  0  0  0  0  0  0  0  0  0  0  0
   -0.2299   -0.0147   -1.3342 H   0  0  0  0  0  0  0  0  0  0  0  0
   -0.2985    0.9444    0.1504 H   0  0  0  0  0  0  0  0  0  0  0  0
  1  2  1  0
  2  3  2  0
  3  4  1  0
  4  5  2  0
  5  6  1  0
  6  7  3  0
  5  8  1  0
  8  9  1  0
  9 10  1  0
 10 11  1  0
 11 12  1  0
 12 13  1  0
 13 14  1  0
 14 15  2  0
 15 16  1  0
 16 17  2  0
 17 18  1  0
 18 19  2  0
 13 20  1  0
  8 21  2  0
 21  2  1  0
 20  9  1  0
 19 14  1  0
  1 22  1  0
  1 23  1  0
  1 24  1  0
  3 25  1  0
  4 26  1  0
 10 27  1  0
 10 28  1  0
 11 29  1  0
 11 30  1  0
 12 31  1  0
 12 32  1  0
 13 33  1  0
 15 34  1  0
 16 35  1  0
 18 36  1  0
 19 37  1  0
 20 38  1  0
 20 39  1  0
M  END
$$$$
OCNT-2312847
     RDKit          3D

 40 43  0  0  0  0  0  0  0  0999 V2000
    0.0872    1.2428   -2.3882 O   0  0  0  0  0  0  0  0  0  0  0  0
    0.2451   -0.0653   -1.7900 S   0  0  0  0  0  0  0  0  0  0  0  0
    0.2553   -1.2619   -2.6048 O   0  0  0  0  0  0  0  0  0  0  0  0
    1.7627   -0.0754   -0.8640 C   0  0  0  0  0  0  0  0  0  0  0  0
    2.1200   -1.2488   -0.1664 C   0  0  0  0  0  0  0  0  0  0  0  0
    3.3055   -1.2885    0.5714 C   0  0  0  0  0  0  0  0  0  0  0  0
    4.0913   -0.1545    0.5802 C   0  0  0  0  0  0  0  0  0  0  0  0
    5.2716   -0.0142    1.2410 O   0  0  0  0  0  0  0  0  0  0  0  0
    5.6287    1.3363    0.8795 C   0  0  0  0  0  0  0  0  0  0  0  0
    4.6522    1.9808    0.0351 O   0  0  0  0  0  0  0  0  0  0  0  0
    3.7377    0.9847   -0.1088 C   0  0  0  0  0  0  0  0  0  0  0  0
    2.5773    1.0614   -0.8471 C   0  0  0  0  0  0  0  0  0  0  0  0
   -0.9204   -0.2395   -0.5749 N   0  0  0  0  0  0  0  0  0  0  0  0
   -1.0578    0.8361    0.4259 C   0  0  0  0  0  0  0  0  0  0  0  0
   -1.9557    1.9558   -0.0140 C   0  0  0  0  0  0  0  0  0  0  0  0
   -2.3382    3.0284    0.9773 C   0  0  0  0  0  0  0  0  0  0  0  0
   -3.3787    2.0673    0.4795 C   0  0  0  0  0  0  0  0  0  0  0  0
   -2.1692   -0.9204   -0.9605 C   0  0  0  0  0  0  0  0  0  0  0  0
   -2.0799   -2.3636   -0.5623 C   0  0  0  0  0  0  0  0  0  0  0  0
   -2.2490   -2.7800    0.8777 C   0  0  0  0  0  0  0  0  0  0  0  0
   -3.3115   -3.1198   -0.1309 C   0  0  0  0  0  0  0  0  0  0  0  0
    1.4740   -2.1242   -0.2035 H   0  0  0  0  0  0  0  0  0  0  0  0
    3.6019   -2.1786    1.1152 H   0  0  0  0  0  0  0  0  0  0  0  0
    6.5897    1.3162    0.3527 H   0  0  0  0  0  0  0  0  0  0  0  0
    5.7423    1.9258    1.7965 H   0  0  0  0  0  0  0  0  0  0  0  0
    2.3184    1.9660   -1.3866 H   0  0  0  0  0  0  0  0  0  0  0  0
   -1.4261    0.3873    1.3571 H   0  0  0  0  0  0  0  0  0  0  0  0
   -0.0745    1.2484    0.6745 H   0  0  0  0  0  0  0  0  0  0  0  0
   -1.7371    2.2973   -1.0195 H   0  0  0  0  0  0  0  0  0  0  0  0
   -2.3808    4.0523    0.6218 H   0  0  0  0  0  0  0  0  0  0  0  0
   -2.0101    2.9326    2.0062 H   0  0  0  0  0  0  0  0  0  0  0  0
   -4.1244    2.4398   -0.2143 H   0  0  0  0  0  0  0  0  0  0  0  0
   -3.7545    1.3260    1.1755 H   0  0  0  0  0  0  0  0  0  0  0  0
   -2.3460   -0.8388   -2.0389 H   0  0  0  0  0  0  0  0  0  0  0  0
   -3.0374   -0.4591   -0.4811 H   0  0  0  0  0  0  0  0  0  0  0  0
   -1.3541   -2.9029   -1.1619 H   0  0  0  0  0  0  0  0  0  0  0  0
   -1.6208   -3.5831    1.2463 H   0  0  0  0  0  0  0  0  0  0  0  0
   -2.4750   -2.0201    1.6165 H   0  0  0  0  0  0  0  0  0  0  0  0
   -4.2564   -2.5923   -0.0696 H   0  0  0  0  0  0  0  0  0  0  0  0
   -3.4033   -4.1544   -0.4428 H   0  0  0  0  0  0  0  0  0  0  0  0
  1  2  2  0
  2  3  2  0
  2  4  1  0
  4  5  1  0
  5  6  2  0
  6  7  1  0
  7  8  1  0
  8  9  1  0
  9 10  1  0
 10 11  1  0
 11 12  1  0
  2 13  1  0
 13 14  1  0
 14 15  1  0
 15 16  1  0
 16 17  1  0
 13 18  1  0
 18 19  1  0
 19 20  1  0
 20 21  1  0
 12  4  2  0
 17 15  1  0
 21 19  1  0
 11  7  2  0
  5 22  1  0
  6 23  1  0
  9 24  1  0
  9 25  1  0
 12 26  1  0
 14 27  1  0
 14 28  1  0
 15 29  1  0
 16 30  1  0
 16 31  1  0
 17 32  1  0
 17 33  1  0
 18 34  1  0
 18 35  1  0
 19 36  1  0
 20 37  1  0
 20 38  1  0
 21 39  1  0
 21 40  1  0
M  END
$$$$
OCNT-2312850
     RDKit          3D

 39 40  0  0  0  0  0  0  0  0999 V2000
    1.2509    1.0889    1.4765 C   0  0  0  0  0  0  0  0  0  0  0  0
    2.2875    0.4076    0.7318 N   0  0  0  0  0  0  0  0  0  0  0  0
    3.2288    1.1400    0.1053 N   0  0  0  0  0  0  0  0  0  0  0  0
    4.0309    0.2367   -0.4903 C   0  0  0  0  0  0  0  0  0  0  0  0
    5.2270    0.6297   -1.3158 C   0  0  0  0  0  0  0  0  0  0  0  0
    4.9128    1.4835   -2.3262 F   0  0  0  0  0  0  0  0  0  0  0  0
    6.1993    1.2259   -0.5753 F   0  0  0  0  0  0  0  0  0  0  0  0
    5.8077   -0.4563   -1.9026 F   0  0  0  0  0  0  0  0  0  0  0  0
    3.5798   -1.0819   -0.2192 C   0  0  0  0  0  0  0  0  0  0  0  0
    2.4546   -0.9444    0.5687 C   0  0  0  0  0  0  0  0  0  0  0  0
    1.5577   -1.9664    1.1626 C   0  0  0  0  0  0  0  0  0  0  0  0
    0.4588   -2.1562    0.2483 N   0  0  0  0  0  0  0  0  0  0  0  0
   -0.8389   -1.8689    0.5902 C   0  0  0  0  0  0  0  0  0  0  0  0
   -1.1834   -1.5444    1.7229 O   0  0  0  0  0  0  0  0  0  0  0  0
   -1.8160   -2.0068   -0.5582 C   0  0  0  0  0  0  0  0  0  0  0  0
   -3.1309   -1.2746   -0.2891 C   0  0  0  0  0  0  0  0  0  0  0  0
   -2.9974    0.2297   -0.3765 C   0  0  0  0  0  0  0  0  0  0  0  0
   -3.0318    0.8415   -1.6410 C   0  0  0  0  0  0  0  0  0  0  0  0
   -2.9561    2.2327   -1.7665 C   0  0  0  0  0  0  0  0  0  0  0  0
   -2.8475    3.0326   -0.6318 C   0  0  0  0  0  0  0  0  0  0  0  0
   -2.8040    2.4413    0.6273 C   0  0  0  0  0  0  0  0  0  0  0  0
   -2.8603    1.0526    0.7489 C   0  0  0  0  0  0  0  0  0  0  0  0
   -2.7689    0.5630    2.0224 O   0  0  0  0  0  0  0  0  0  0  0  0
    1.3478    2.1683    1.3307 H   0  0  0  0  0  0  0  0  0  0  0  0
    1.3713    0.8452    2.5357 H   0  0  0  0  0  0  0  0  0  0  0  0
    0.2778    0.7597    1.1083 H   0  0  0  0  0  0  0  0  0  0  0  0
    4.0303   -2.0046   -0.5628 H   0  0  0  0  0  0  0  0  0  0  0  0
    1.2113   -1.6756    2.1592 H   0  0  0  0  0  0  0  0  0  0  0  0
    2.0753   -2.9278    1.2509 H   0  0  0  0  0  0  0  0  0  0  0  0
    0.6819   -2.3862   -0.7109 H   0  0  0  0  0  0  0  0  0  0  0  0
   -2.0163   -3.0781   -0.6836 H   0  0  0  0  0  0  0  0  0  0  0  0
   -1.3508   -1.6433   -1.4823 H   0  0  0  0  0  0  0  0  0  0  0  0
   -3.5565   -1.5624    0.6788 H   0  0  0  0  0  0  0  0  0  0  0  0
   -3.8728   -1.5957   -1.0326 H   0  0  0  0  0  0  0  0  0  0  0  0
   -3.1338    0.2397   -2.5422 H   0  0  0  0  0  0  0  0  0  0  0  0
   -2.9930    2.6932   -2.7514 H   0  0  0  0  0  0  0  0  0  0  0  0
   -2.7936    4.1138   -0.7274 H   0  0  0  0  0  0  0  0  0  0  0  0
   -2.7161    3.0582    1.5181 H   0  0  0  0  0  0  0  0  0  0  0  0
   -2.3235   -0.3102    1.9991 H   0  0  0  0  0  0  0  0  0  0  0  0
  1  2  1  0
  2  3  1  0
  3  4  2  0
  4  5  1  0
  5  6  1  0
  5  7  1  0
  5  8  1  0
  4  9  1  0
  9 10  2  0
 10 11  1  0
 11 12  1  0
 12 13  1  0
 13 14  2  0
 13 15  1  0
 15 16  1  0
 16 17  1  0
 17 18  2  0
 18 19  1  0
 19 20  2  0
 20 21  1  0
 21 22  2  0
 22 23  1  0
 10  2  1  0
 22 17  1  0
  1 24  1  0
  1 25  1  0
  1 26  1  0
  9 27  1  0
 11 28  1  0
 11 29  1  0
 12 30  1  0
 15 31  1  0
 15 32  1  0
 16 33  1  0
 16 34  1  0
 18 35  1  0
 19 36  1  0
 20 37  1  0
 21 38  1  0
 23 39  1  0
M  END
$$$$
OCNT-2312851
     RDKit          3D

 54 57  0  0  0  0  0  0  0  0999 V2000
    2.3443   -3.1129    2.3729 C   0  0  0  0  0  0  0  0  0  0  0  0
    2.1897   -1.7331    1.9205 N   0  0  0  0  0  0  0  0  0  0  0  0
    2.8640   -0.7765    2.8225 C   0  0  0  0  0  0  0  0  0  0  0  0
    1.9041    0.1782    3.5504 C   0  0  0  0  0  0  0  0  0  0  0  0
    1.0688    0.9151    2.6519 O   0  0  0  0  0  0  0  0  0  0  0  0
    0.5482    0.1274    1.5572 C   0  0  0  0  0  0  0  0  0  0  0  0
    1.1629    0.6239    0.2303 C   0  0  0  0  0  0  0  0  0  0  0  0
    0.5003    1.8973   -0.1925 N   0  0  0  0  0  0  0  0  0  0  0  0
    1.2429    3.1215    0.1756 C   0  0  0  0  0  0  0  0  0  0  0  0
    2.3819    3.4158   -0.7563 C   0  0  0  0  0  0  0  0  0  0  0  0
    2.2170    4.3763   -1.9080 C   0  0  0  0  0  0  0  0  0  0  0  0
    3.0501    4.7682   -0.7210 C   0  0  0  0  0  0  0  0  0  0  0  0
   -0.2859    1.9101   -1.6920 S   0  0  0  0  0  0  0  0  0  0  0  0
   -0.9620    3.1787   -1.8607 O   0  0  0  0  0  0  0  0  0  0  0  0
    0.6346    1.4042   -2.6890 O   0  0  0  0  0  0  0  0  0  0  0  0
   -1.5551    0.6848   -1.4470 C   0  0  0  0  0  0  0  0  0  0  0  0
   -2.6124    0.9718   -0.5800 C   0  0  0  0  0  0  0  0  0  0  0  0
   -3.6008    0.0119   -0.3676 C   0  0  0  0  0  0  0  0  0  0  0  0
   -3.5385   -1.2175   -1.0272 C   0  0  0  0  0  0  0  0  0  0  0  0
   -4.5484   -2.0991   -0.7456 O   0  0  0  0  0  0  0  0  0  0  0  0
   -4.6660   -3.1859   -1.6687 C   0  0  0  0  0  0  0  0  0  0  0  0
   -3.3251   -3.8464   -1.9400 C   0  0  0  0  0  0  0  0  0  0  0  0
   -2.4021   -2.8334   -2.6003 C   0  0  0  0  0  0  0  0  0  0  0  0
   -2.4747   -1.5111   -1.8910 C   0  0  0  0  0  0  0  0  0  0  0  0
   -1.4863   -0.5428   -2.1136 C   0  0  0  0  0  0  0  0  0  0  0  0
    0.7661   -1.3904    1.7521 C   0  0  0  0  0  0  0  0  0  0  0  0
    1.8656   -3.8043    1.6706 H   0  0  0  0  0  0  0  0  0  0  0  0
    1.9098   -3.2728    3.3662 H   0  0  0  0  0  0  0  0  0  0  0  0
    3.4044   -3.3871    2.4106 H   0  0  0  0  0  0  0  0  0  0  0  0
    3.4994   -1.2840    3.5584 H   0  0  0  0  0  0  0  0  0  0  0  0
    3.5349   -0.1755    2.1968 H   0  0  0  0  0  0  0  0  0  0  0  0
    1.2657   -0.3670    4.2556 H   0  0  0  0  0  0  0  0  0  0  0  0
    2.4774    0.9065    4.1332 H   0  0  0  0  0  0  0  0  0  0  0  0
   -0.5324    0.3097    1.5434 H   0  0  0  0  0  0  0  0  0  0  0  0
    1.0333   -0.1377   -0.5453 H   0  0  0  0  0  0  0  0  0  0  0  0
    2.2408    0.7831    0.3378 H   0  0  0  0  0  0  0  0  0  0  0  0
    0.5391    3.9612    0.2249 H   0  0  0  0  0  0  0  0  0  0  0  0
    1.6410    3.0144    1.1907 H   0  0  0  0  0  0  0  0  0  0  0  0
    3.0311    2.5606   -0.9041 H   0  0  0  0  0  0  0  0  0  0  0  0
    2.7209    4.1344   -2.8372 H   0  0  0  0  0  0  0  0  0  0  0  0
    1.2615    4.8712   -2.0448 H   0  0  0  0  0  0  0  0  0  0  0  0
    2.6551    5.5300   -0.0583 H   0  0  0  0  0  0  0  0  0  0  0  0
    4.1259    4.8068   -0.8495 H   0  0  0  0  0  0  0  0  0  0  0  0
   -2.6654    1.9315   -0.0706 H   0  0  0  0  0  0  0  0  0  0  0  0
   -4.4274    0.2229    0.3063 H   0  0  0  0  0  0  0  0  0  0  0  0
   -5.3500   -3.9153   -1.2220 H   0  0  0  0  0  0  0  0  0  0  0  0
   -5.1346   -2.8241   -2.5925 H   0  0  0  0  0  0  0  0  0  0  0  0
   -3.4435   -4.7267   -2.5801 H   0  0  0  0  0  0  0  0  0  0  0  0
   -2.8833   -4.1765   -0.9912 H   0  0  0  0  0  0  0  0  0  0  0  0
   -1.3757   -3.2176   -2.5913 H   0  0  0  0  0  0  0  0  0  0  0  0
   -2.6991   -2.6853   -3.6457 H   0  0  0  0  0  0  0  0  0  0  0  0
   -0.6644   -0.7504   -2.7964 H   0  0  0  0  0  0  0  0  0  0  0  0
    0.3566   -1.9348    0.8925 H   0  0  0  0  0  0  0  0  0  0  0  0
    0.1961   -1.7098    2.6353 H   0  0  0  0  0  0  0  0  0  0  0  0
  1  2  1  0
  2  3  1  0
  3  4  1  0
  4  5  1  0
  5  6  1  0
  6  7  1  0
  7  8  1  0
  8  9  1  0
  9 10  1  0
 10 11  1  0
 11 12  1  0
  8 13  1  0
 13 14  2  0
 13 15  2  0
 13 16  1  0
 16 17  1  0
 17 18  2  0
 18 19  1  0
 19 20  1  0
 20 21  1  0
 21 22  1  0
 22 23  1  0
 23 24  1  0
 24 25  1  0
  6 26  1  0
 26  2  1  0
 12 10  1  0
 25 16  2  0
 24 19  2  0
  1 27  1  0
  1 28  1  0
  1 29  1  0
  3 30  1  0
  3 31  1  0
  4 32  1  0
  4 33  1  0
  6 34  1  0
  7 35  1  0
  7 36  1  0
  9 37  1  0
  9 38  1  0
 10 39  1  0
 11 40  1  0
 11 41  1  0
 12 42  1  0
 12 43  1  0
 17 44  1  0
 18 45  1  0
 21 46  1  0
 21 47  1  0
 22 48  1  0
 22 49  1  0
 23 50  1  0
 23 51  1  0
 25 52  1  0
 26 53  1  0
 26 54  1  0
M  END
$$$$
OCNT-2312874
     RDKit          3D

 35 39  0  0  0  0  0  0  0  0999 V2000
   -2.7334    0.1464   -0.9081 C   0  0  0  0  0  0  0  0  0  0  0  0
   -4.0255    0.4988   -1.0303 C   0  0  0  0  0  0  0  0  0  0  0  0
   -4.9054    0.2028    0.0019 N   0  0  0  0  0  0  0  0  0  0  0  0
   -6.2492    0.4494    0.1232 C   0  0  0  0  0  0  0  0  0  0  0  0
   -6.7318    0.0118    1.2671 N   0  0  0  0  0  0  0  0  0  0  0  0
   -5.6597   -0.5456    1.9211 C   0  0  0  0  0  0  0  0  0  0  0  0
   -4.5168   -0.4430    1.1621 C   0  0  0  0  0  0  0  0  0  0  0  0
   -3.1506   -0.8192    1.2945 C   0  0  0  0  0  0  0  0  0  0  0  0
   -2.2572   -0.5477    0.3071 C   0  0  0  0  0  0  0  0  0  0  0  0
   -0.8666   -0.9233    0.4233 C   0  0  0  0  0  0  0  0  0  0  0  0
   -0.2999   -1.5770    1.4507 N   0  0  0  0  0  0  0  0  0  0  0  0
    1.0358   -1.6901    1.0736 O   0  0  0  0  0  0  0  0  0  0  0  0
    1.1495   -1.0911   -0.1464 C   0  0  0  0  0  0  0  0  0  0  0  0
    2.4916   -0.9961   -0.9274 C   0  0  0  0  0  0  0  0  0  0  0  0
    2.7194    0.1623   -1.8638 C   0  0  0  0  0  0  0  0  0  0  0  0
    3.5051    0.0761   -0.5749 C   0  0  0  0  0  0  0  0  0  0  0  0
    3.2769    1.0721    0.5171 C   0  0  0  0  0  0  0  0  0  0  0  0
    4.6649    1.6635    0.6888 C   0  0  0  0  0  0  0  0  0  0  0  0
    5.5617    0.5692    0.4433 O   0  0  0  0  0  0  0  0  0  0  0  0
    4.9751   -0.2220   -0.6044 C   0  0  0  0  0  0  0  0  0  0  0  0
    0.0122   -0.6070   -0.5894 N   0  0  0  0  0  0  0  0  0  0  0  0
   -2.0208    0.3632   -1.6985 H   0  0  0  0  0  0  0  0  0  0  0  0
   -4.4218    1.0067   -1.9003 H   0  0  0  0  0  0  0  0  0  0  0  0
   -6.8175    0.9483   -0.6499 H   0  0  0  0  0  0  0  0  0  0  0  0
   -5.7716   -0.9899    2.9019 H   0  0  0  0  0  0  0  0  0  0  0  0
   -2.8450   -1.3281    2.2053 H   0  0  0  0  0  0  0  0  0  0  0  0
    2.8694   -1.9629   -1.2419 H   0  0  0  0  0  0  0  0  0  0  0  0
    3.2263   -0.0439   -2.8003 H   0  0  0  0  0  0  0  0  0  0  0  0
    1.9431    0.9161   -1.9504 H   0  0  0  0  0  0  0  0  0  0  0  0
    2.9829    0.5531    1.4363 H   0  0  0  0  0  0  0  0  0  0  0  0
    2.5306    1.8379    0.2879 H   0  0  0  0  0  0  0  0  0  0  0  0
    4.8652    2.4456   -0.0523 H   0  0  0  0  0  0  0  0  0  0  0  0
    4.8329    2.0679    1.6906 H   0  0  0  0  0  0  0  0  0  0  0  0
    5.1961   -1.2747   -0.4041 H   0  0  0  0  0  0  0  0  0  0  0  0
    5.4341    0.0703   -1.5543 H   0  0  0  0  0  0  0  0  0  0  0  0
  1  2  2  0
  2  3  1  0
  3  4  1  0
  4  5  2  0
  5  6  1  0
  6  7  2  0
  7  8  1  0
  8  9  2  0
  9 10  1  0
 10 11  2  0
 11 12  1  0
 12 13  1  0
 13 14  1  0
 14 15  1  0
 15 16  1  0
 16 17  1  0
 17 18  1  0
 18 19  1  0
 19 20  1  0
 13 21  2  0
  9  1  1  0
 21 10  1  0
  7  3  1  0
 16 14  1  0
 20 16  1  0
  1 22  1  0
  2 23  1  0
  4 24  1  0
  6 25  1  0
  8 26  1  0
 14 27  1  0
 15 28  1  0
 15 29  1  0
 17 30  1  0
 17 31  1  0
 18 32  1  0
 18 33  1  0
 20 34  1  0
 20 35  1  0
M  END
$$$$
OCNT-2312890
     RDKit          3D

 43 44  0  0  0  0  0  0  0  0999 V2000
   -1.7531    1.4209   -0.9250 C   0  0  0  0  0  0  0  0  0  0  0  0
   -2.5709    0.1489   -0.6564 C   0  0  0  0  0  0  0  0  0  0  0  0
   -1.6217   -0.8866   -0.0353 C   0  0  0  0  0  0  0  0  0  0  0  0
   -1.5771   -1.1533    1.1600 O   0  0  0  0  0  0  0  0  0  0  0  0
   -0.7698   -1.4697   -0.9521 N   0  0  0  0  0  0  0  0  0  0  0  0
    0.2843   -2.3681   -0.5401 C   0  0  0  0  0  0  0  0  0  0  0  0
    1.5847   -1.6356   -0.3845 C   0  0  0  0  0  0  0  0  0  0  0  0
    2.5314   -1.5873   -1.4094 C   0  0  0  0  0  0  0  0  0  0  0  0
    3.7204   -0.8777   -1.2296 C   0  0  0  0  0  0  0  0  0  0  0  0
    3.9310   -0.2224   -0.0192 C   0  0  0  0  0  0  0  0  0  0  0  0
    5.1274    0.5134    0.2091 N   0  0  0  0  0  0  0  0  0  0  0  0
    5.4404    1.2018    1.3629 C   0  0  0  0  0  0  0  0  0  0  0  0
    6.6764    1.7605    1.1490 C   0  0  0  0  0  0  0  0  0  0  0  0
    7.1420    1.4431   -0.0971 N   0  0  0  0  0  0  0  0  0  0  0  0
    6.1991    0.6984   -0.6344 C   0  0  0  0  0  0  0  0  0  0  0  0
    3.0193   -0.2490    0.9869 N   0  0  0  0  0  0  0  0  0  0  0  0
    1.8765   -0.9443    0.7845 C   0  0  0  0  0  0  0  0  0  0  0  0
   -3.8945    0.3954    0.1474 C   0  0  0  0  0  0  0  0  0  0  0  0
   -4.6188   -0.9437    0.4084 C   0  0  0  0  0  0  0  0  0  0  0  0
   -3.6698    1.1157    1.4900 C   0  0  0  0  0  0  0  0  0  0  0  0
   -4.8561    1.2672   -0.6952 C   0  0  0  0  0  0  0  0  0  0  0  0
   -0.8923    1.2069   -1.5686 H   0  0  0  0  0  0  0  0  0  0  0  0
   -2.3441    2.1878   -1.4319 H   0  0  0  0  0  0  0  0  0  0  0  0
   -1.3538    1.8439    0.0026 H   0  0  0  0  0  0  0  0  0  0  0  0
   -2.8667   -0.2588   -1.6346 H   0  0  0  0  0  0  0  0  0  0  0  0
   -0.7444   -1.1106   -1.8965 H   0  0  0  0  0  0  0  0  0  0  0  0
    0.3719   -3.1401   -1.3127 H   0  0  0  0  0  0  0  0  0  0  0  0
    0.0182   -2.8767    0.3935 H   0  0  0  0  0  0  0  0  0  0  0  0
    2.3536   -2.1017   -2.3510 H   0  0  0  0  0  0  0  0  0  0  0  0
    4.4392   -0.8611   -2.0401 H   0  0  0  0  0  0  0  0  0  0  0  0
    4.7675    1.2281    2.2088 H   0  0  0  0  0  0  0  0  0  0  0  0
    7.2536    2.3744    1.8285 H   0  0  0  0  0  0  0  0  0  0  0  0
    6.2552    0.2765   -1.6273 H   0  0  0  0  0  0  0  0  0  0  0  0
    1.1752   -0.9247    1.6172 H   0  0  0  0  0  0  0  0  0  0  0  0
   -4.7743   -1.4956   -0.5254 H   0  0  0  0  0  0  0  0  0  0  0  0
   -4.0605   -1.5897    1.0923 H   0  0  0  0  0  0  0  0  0  0  0  0
   -5.6033   -0.7784    0.8618 H   0  0  0  0  0  0  0  0  0  0  0  0
   -3.2283    2.1075    1.3486 H   0  0  0  0  0  0  0  0  0  0  0  0
   -4.6206    1.2613    2.0166 H   0  0  0  0  0  0  0  0  0  0  0  0
   -3.0179    0.5502    2.1609 H   0  0  0  0  0  0  0  0  0  0  0  0
   -4.4698    2.2811   -0.8391 H   0  0  0  0  0  0  0  0  0  0  0  0
   -5.8321    1.3658   -0.2051 H   0  0  0  0  0  0  0  0  0  0  0  0
   -5.0273    0.8264   -1.6836 H   0  0  0  0  0  0  0  0  0  0  0  0
  1  2  1  0
  2  3  1  0
  3  4  2  0
  3  5  1  0
  5  6  1  0
  6  7  1  0
  7  8  2  0
  8  9  1  0
  9 10  2  0
 10 11  1  0
 11 12  1  0
 12 13  2  0
 13 14  1  0
 14 15  2  0
 10 16  1  0
 16 17  2  0
  2 18  1  0
 18 19  1  0
 18 20  1  0
 18 21  1  0
 17  7  1  0
 15 11  1  0
  1 22  1  0
  1 23  1  0
  1 24  1  0
  2 25  1  0
  5 26  1  0
  6 27  1  0
  6 28  1  0
  8 29  1  0
  9 30  1  0
 12 31  1  0
 13 32  1  0
 15 33  1  0
 17 34  1  0
 19 35  1  0
 19 36  1  0
 19 37  1  0
 20 38  1  0
 20 39  1  0
 20 40  1  0
 21 41  1  0
 21 42  1  0
 21 43  1  0
M  END
$$$$
OCNT-2312921
     RDKit          3D

 42 44  0  0  0  0  0  0  0  0999 V2000
   -1.1696   -0.9317    1.0137 C   0  0  0  0  0  0  0  0  0  0  0  0
   -1.4048   -0.6419   -0.3978 N   0  0  0  0  0  0  0  0  0  0  0  0
   -2.5513   -1.2903   -1.0339 C   0  0  0  0  0  0  0  0  0  0  0  0
   -3.8591   -0.9638   -0.3719 C   0  0  0  0  0  0  0  0  0  0  0  0
   -4.4293    0.3042   -0.4935 C   0  0  0  0  0  0  0  0  0  0  0  0
   -3.8086    1.2530   -1.2084 F   0  0  0  0  0  0  0  0  0  0  0  0
   -5.6425    0.6191    0.1178 C   0  0  0  0  0  0  0  0  0  0  0  0
   -6.3109   -0.3447    0.8708 C   0  0  0  0  0  0  0  0  0  0  0  0
   -5.7568   -1.6165    1.0060 C   0  0  0  0  0  0  0  0  0  0  0  0
   -4.5429   -1.9136    0.3874 C   0  0  0  0  0  0  0  0  0  0  0  0
   -4.0293   -3.1422    0.5418 F   0  0  0  0  0  0  0  0  0  0  0  0
   -0.4658   -0.0262   -1.2232 C   0  0  0  0  0  0  0  0  0  0  0  0
   -0.4558   -0.1355   -2.4473 O   0  0  0  0  0  0  0  0  0  0  0  0
    0.5742    0.8299   -0.6075 C   0  0  0  0  0  0  0  0  0  0  0  0
    0.2237    1.8517    0.2803 C   0  0  0  0  0  0  0  0  0  0  0  0
    1.2182    2.6597    0.8289 C   0  0  0  0  0  0  0  0  0  0  0  0
    2.5563    2.4584    0.4797 C   0  0  0  0  0  0  0  0  0  0  0  0
    2.9159    1.4544   -0.4337 C   0  0  0  0  0  0  0  0  0  0  0  0
    4.3590    1.2369   -0.8111 C   0  0  0  0  0  0  0  0  0  0  0  0
    4.9448    0.1473   -0.0518 N   0  0  0  0  0  0  0  0  0  0  0  0
    5.1230   -1.1396   -0.4795 C   0  0  0  0  0  0  0  0  0  0  0  0
    5.7462   -1.7771    0.5680 C   0  0  0  0  0  0  0  0  0  0  0  0
    5.9586   -0.9103    1.6089 N   0  0  0  0  0  0  0  0  0  0  0  0
    5.4679    0.2405    1.2067 C   0  0  0  0  0  0  0  0  0  0  0  0
    1.9098    0.6428   -0.9792 C   0  0  0  0  0  0  0  0  0  0  0  0
   -1.3336   -1.9994    1.1904 H   0  0  0  0  0  0  0  0  0  0  0  0
   -0.1472   -0.7004    1.3191 H   0  0  0  0  0  0  0  0  0  0  0  0
   -1.8700   -0.3489    1.6180 H   0  0  0  0  0  0  0  0  0  0  0  0
   -2.6235   -1.0071   -2.0908 H   0  0  0  0  0  0  0  0  0  0  0  0
   -2.3598   -2.3703   -1.0251 H   0  0  0  0  0  0  0  0  0  0  0  0
   -6.0569    1.6160   -0.0006 H   0  0  0  0  0  0  0  0  0  0  0  0
   -7.2576   -0.1061    1.3488 H   0  0  0  0  0  0  0  0  0  0  0  0
   -6.2614   -2.3812    1.5893 H   0  0  0  0  0  0  0  0  0  0  0  0
   -0.8191    2.0252    0.5345 H   0  0  0  0  0  0  0  0  0  0  0  0
    0.9512    3.4522    1.5242 H   0  0  0  0  0  0  0  0  0  0  0  0
    3.3160    3.1006    0.9219 H   0  0  0  0  0  0  0  0  0  0  0  0
    4.9604    2.1348   -0.6263 H   0  0  0  0  0  0  0  0  0  0  0  0
    4.4498    1.0021   -1.8782 H   0  0  0  0  0  0  0  0  0  0  0  0
    4.8033   -1.4863   -1.4521 H   0  0  0  0  0  0  0  0  0  0  0  0
    6.0560   -2.8125    0.6268 H   0  0  0  0  0  0  0  0  0  0  0  0
    5.4654    1.1577    1.7809 H   0  0  0  0  0  0  0  0  0  0  0  0
    2.1563   -0.1408   -1.6939 H   0  0  0  0  0  0  0  0  0  0  0  0
  1  2  1  0
  2  3  1  0
  3  4  1  0
  4  5  2  0
  5  6  1  0
  5  7  1  0
  7  8  2  0
  8  9  1  0
  9 10  2  0
 10 11  1  0
  2 12  1  0
 12 13  2  0
 12 14  1  0
 14 15  1  0
 15 16  2  0
 16 17  1  0
 17 18  2  0
 18 19  1  0
 19 20  1  0
 20 21  1  0
 21 22  2  0
 22 23  1  0
 23 24  2  0
 18 25  1  0
 10  4  1  0
 25 14  2  0
 24 20  1  0
  1 26  1  0
  1 27  1  0
  1 28  1  0
  3 29  1  0
  3 30  1  0
  7 31  1  0
  8 32  1  0
  9 33  1  0
 15 34  1  0
 16 35  1  0
 17 36  1  0
 19 37  1  0
 19 38  1  0
 21 39  1  0
 22 40  1  0
 24 41  1  0
 25 42  1  0
M  END
$$$$
OCNT-2312925
     RDKit          3D

 47 50  0  0  0  0  0  0  0  0999 V2000
    0.2556    4.3787   -2.2294 C   0  0  0  0  0  0  0  0  0  0  0  0
   -0.7615    3.5620   -1.6651 O   0  0  0  0  0  0  0  0  0  0  0  0
   -0.3233    2.8618   -0.5046 C   0  0  1  0  0  0  0  0  0  0  0  0
   -1.5052    2.1547    0.1445 C   0  0  0  0  0  0  0  0  0  0  0  0
   -0.7973    1.1405    1.0448 C   0  0  1  0  0  0  0  0  0  0  0  0
   -1.7142    0.0091    1.5710 C   0  0  0  0  0  0  0  0  0  0  0  0
   -2.5668   -0.6838    0.5882 N   0  0  0  0  0  0  0  0  0  0  0  0
   -3.4607   -1.6472    1.2344 C   0  0  0  0  0  0  0  0  0  0  0  0
   -3.9781   -2.4576    0.0598 C   0  0  0  0  0  0  0  0  0  0  0  0
   -2.8362   -2.4486   -0.9480 C   0  0  0  0  0  0  0  0  0  0  0  0
   -1.8091   -1.4709   -0.3876 C   0  0  0  0  0  0  0  0  0  0  0  0
    0.3248    0.6512    0.2042 N   0  0  0  0  0  0  0  0  0  0  0  0
    1.4624    0.1828    0.8853 C   0  0  0  0  0  0  0  0  0  0  0  0
    1.6531    0.5804    2.1568 N   0  0  0  0  0  0  0  0  0  0  0  0
    2.7638    0.1518    2.7647 C   0  0  0  0  0  0  0  0  0  0  0  0
    3.7060   -0.6343    2.2361 N   0  0  0  0  0  0  0  0  0  0  0  0
    3.5008   -1.0480    0.9831 C   0  0  0  0  0  0  0  0  0  0  0  0
    4.4439   -1.8870    0.4005 C   0  0  0  0  0  0  0  0  0  0  0  0
    4.2948   -2.3810   -0.8982 C   0  0  0  0  0  0  0  0  0  0  0  0
    3.1733   -2.0379   -1.6390 C   0  0  0  0  0  0  0  0  0  0  0  0
    2.2169   -1.1956   -1.0769 C   0  0  0  0  0  0  0  0  0  0  0  0
    2.3739   -0.6777    0.2352 C   0  0  0  0  0  0  0  0  0  0  0  0
    0.6352    1.6921   -0.7996 C   0  0  0  0  0  0  0  0  0  0  0  0
    0.6021    5.1186   -1.5016 H   0  0  0  0  0  0  0  0  0  0  0  0
    1.0949    3.7699   -2.5774 H   0  0  0  0  0  0  0  0  0  0  0  0
   -0.1669    4.9074   -3.0882 H   0  0  0  0  0  0  0  0  0  0  0  0
    0.1251    3.5604    0.2145 H   0  0  0  0  0  0  0  0  0  0  0  0
   -2.1415    2.8450    0.7074 H   0  0  0  0  0  0  0  0  0  0  0  0
   -2.1319    1.6819   -0.6211 H   0  0  0  0  0  0  0  0  0  0  0  0
   -0.4209    1.7011    1.9123 H   0  0  0  0  0  0  0  0  0  0  0  0
   -1.1051   -0.7190    2.1233 H   0  0  0  0  0  0  0  0  0  0  0  0
   -2.3826    0.4740    2.3083 H   0  0  0  0  0  0  0  0  0  0  0  0
   -2.9202   -2.3009    1.9311 H   0  0  0  0  0  0  0  0  0  0  0  0
   -4.2767   -1.1565    1.7742 H   0  0  0  0  0  0  0  0  0  0  0  0
   -4.2588   -3.4737    0.3536 H   0  0  0  0  0  0  0  0  0  0  0  0
   -4.8616   -1.9777   -0.3785 H   0  0  0  0  0  0  0  0  0  0  0  0
   -3.2025   -2.1222   -1.9279 H   0  0  0  0  0  0  0  0  0  0  0  0
   -2.4015   -3.4467   -1.0670 H   0  0  0  0  0  0  0  0  0  0  0  0
   -0.9941   -2.0327    0.0858 H   0  0  0  0  0  0  0  0  0  0  0  0
   -1.3942   -0.8531   -1.1891 H   0  0  0  0  0  0  0  0  0  0  0  0
    2.9172    0.4775    3.7877 H   0  0  0  0  0  0  0  0  0  0  0  0
    5.3208   -2.1711    0.9785 H   0  0  0  0  0  0  0  0  0  0  0  0
    5.0510   -3.0384   -1.3191 H   0  0  0  0  0  0  0  0  0  0  0  0
    3.0377   -2.4266   -2.6448 H   0  0  0  0  0  0  0  0  0  0  0  0
    1.3294   -0.9498   -1.6552 H   0  0  0  0  0  0  0  0  0  0  0  0
    1.6740    2.0439   -0.7629 H   0  0  0  0  0  0  0  0  0  0  0  0
    0.4541    1.2932   -1.8045 H   0  0  0  0  0  0  0  0  0  0  0  0
  1  2  1  0
  2  3  1  0
  3  4  1  0
  4  5  1  0
  5  6  1  0
  6  7  1  0
  7  8  1  0
  8  9  1  0
  9 10  1  0
 10 11  1  0
  5 12  1  0
 12 13  1  0
 13 14  1  0
 14 15  2  0
 15 16  1  0
 16 17  2  0
 17 18  1  0
 18 19  2  0
 19 20  1  0
 20 21  2  0
 21 22  1  0
 12 23  1  0
 23  3  1  0
 11  7  1  0
 22 13  2  0
 22 17  1  0
  1 24  1  0
  1 25  1  0
  1 26  1  0
  3 27  1  1
  4 28  1  0
  4 29  1  0
  5 30  1  1
  6 31  1  0
  6 32  1  0
  8 33  1  0
  8 34  1  0
  9 35  1  0
  9 36  1  0
 10 37  1  0
 10 38  1  0
 11 39  1  0
 11 40  1  0
 15 41  1  0
 18 42  1  0
 19 43  1  0
 20 44  1  0
 21 45  1  0
 23 46  1  0
 23 47  1  0
M  END
$$$$
OCNT-2312932
     RDKit          3D

 40 42  0  0  0  0  0  0  0  0999 V2000
   -4.7324   -1.2749   -1.8779 C   0  0  0  0  0  0  0  0  0  0  0  0
   -3.9914   -0.4337   -0.8834 C   0  0  0  0  0  0  0  0  0  0  0  0
   -4.6715    0.4177   -0.0450 C   0  0  0  0  0  0  0  0  0  0  0  0
   -3.9025    1.1514    0.8368 C   0  0  0  0  0  0  0  0  0  0  0  0
   -4.5880    2.1248    1.7775 C   0  0  0  0  0  0  0  0  0  0  0  0
   -5.6929    1.5827    2.3723 F   0  0  0  0  0  0  0  0  0  0  0  0
   -3.8031    2.5678    2.7997 F   0  0  0  0  0  0  0  0  0  0  0  0
   -5.0360    3.2427    1.1357 F   0  0  0  0  0  0  0  0  0  0  0  0
   -2.5495    1.0455    0.8649 N   0  0  0  0  0  0  0  0  0  0  0  0
   -1.9511    0.1959    0.0190 C   0  0  0  0  0  0  0  0  0  0  0  0
   -0.5657    0.0974    0.0223 N   0  0  0  0  0  0  0  0  0  0  0  0
    0.1474    0.7062    1.1347 C   0  0  0  0  0  0  0  0  0  0  0  0
    1.5901    1.0185    0.7231 C   0  0  0  0  0  0  0  0  0  0  0  0
    2.2006   -0.0342   -0.2218 C   0  0  0  0  0  0  0  0  0  0  0  0
    3.6878   -0.2104    0.0195 C   0  0  0  0  0  0  0  0  0  0  0  0
    4.6114    0.2692   -0.9152 C   0  0  0  0  0  0  0  0  0  0  0  0
    5.9659    0.1000   -0.6680 C   0  0  0  0  0  0  0  0  0  0  0  0
    6.4601   -0.5034    0.4328 N   0  0  0  0  0  0  0  0  0  0  0  0
    5.5569   -0.9546    1.3275 C   0  0  0  0  0  0  0  0  0  0  0  0
    4.1839   -0.8331    1.1700 C   0  0  0  0  0  0  0  0  0  0  0  0
    1.4289   -1.3568   -0.1548 C   0  0  0  0  0  0  0  0  0  0  0  0
   -0.0369   -1.1440   -0.5407 C   0  0  0  0  0  0  0  0  0  0  0  0
   -2.6494   -0.5479   -0.8551 N   0  0  0  0  0  0  0  0  0  0  0  0
   -5.2845   -0.6376   -2.5756 H   0  0  0  0  0  0  0  0  0  0  0  0
   -4.0403   -1.8947   -2.4571 H   0  0  0  0  0  0  0  0  0  0  0  0
   -5.4346   -1.9385   -1.3637 H   0  0  0  0  0  0  0  0  0  0  0  0
   -5.7509    0.5082   -0.0747 H   0  0  0  0  0  0  0  0  0  0  0  0
   -0.3037    1.6497    1.4654 H   0  0  0  0  0  0  0  0  0  0  0  0
    0.1402    0.0262    1.9962 H   0  0  0  0  0  0  0  0  0  0  0  0
    2.1851    1.1512    1.6353 H   0  0  0  0  0  0  0  0  0  0  0  0
    1.6173    1.9906    0.2120 H   0  0  0  0  0  0  0  0  0  0  0  0
    2.0746    0.3433   -1.2476 H   0  0  0  0  0  0  0  0  0  0  0  0
    4.2908    0.7681   -1.8240 H   0  0  0  0  0  0  0  0  0  0  0  0
    6.7107    0.4587   -1.3727 H   0  0  0  0  0  0  0  0  0  0  0  0
    5.9777   -1.4323    2.2078 H   0  0  0  0  0  0  0  0  0  0  0  0
    3.5230   -1.2156    1.9402 H   0  0  0  0  0  0  0  0  0  0  0  0
    1.4750   -1.7763    0.8586 H   0  0  0  0  0  0  0  0  0  0  0  0
    1.8753   -2.1069   -0.8192 H   0  0  0  0  0  0  0  0  0  0  0  0
   -0.6050   -2.0189   -0.1977 H   0  0  0  0  0  0  0  0  0  0  0  0
   -0.1133   -1.1021   -1.6346 H   0  0  0  0  0  0  0  0  0  0  0  0
  1  2  1  0
  2  3  2  0
  3  4  1  0
  4  5  1  0
  5  6  1  0
  5  7  1  0
  5  8  1  0
  4  9  2  0
  9 10  1  0
 10 11  1  0
 11 12  1  0
 12 13  1  0
 13 14  1  0
 14 15  1  0
 15 16  2  0
 16 17  1  0
 17 18  2  0
 18 19  1  0
 19 20  2  0
 14 21  1  0
 21 22  1  0
 10 23  2  0
 23  2  1  0
 22 11  1  0
 20 15  1  0
  1 24  1  0
  1 25  1  0
  1 26  1  0
  3 27  1  0
 12 28  1  0
 12 29  1  0
 13 30  1  0
 13 31  1  0
 14 32  1  0
 16 33  1  0
 17 34  1  0
 19 35  1  0
 20 36  1  0
 21 37  1  0
 21 38  1  0
 22 39  1  0
 22 40  1  0
M  END
$$$$
OCNT-2312941
     RDKit          3D

 53 56  0  0  0  0  0  0  0  0999 V2000
    6.1114    2.4125    0.5239 O   0  0  0  0  0  0  0  0  0  0  0  0
    5.1105    1.7043    0.5397 C   0  0  0  0  0  0  0  0  0  0  0  0
    3.8866    2.2356    0.8545 N   0  0  0  0  0  0  0  0  0  0  0  0
    2.7206    1.4355    1.1542 C   0  0  0  0  0  0  0  0  0  0  0  0
    2.1261    0.7419   -0.0947 C   0  0  0  0  0  0  0  0  0  0  0  0
    1.1050   -0.3227    0.3713 C   0  0  0  0  0  0  0  0  0  0  0  0
    0.0298   -0.5620   -0.6866 C   0  0  0  0  0  0  0  0  0  0  0  0
   -0.7652    0.6401   -0.9920 N   0  0  0  0  0  0  0  0  0  0  0  0
   -2.1002    0.6311   -0.3476 C   0  0  0  0  0  0  0  0  0  0  0  0
   -3.0733   -0.3504   -1.0541 C   0  0  0  0  0  0  0  0  0  0  0  0
   -3.1154   -0.0241   -2.4492 O   0  0  0  0  0  0  0  0  0  0  0  0
   -4.4734   -0.2799   -0.4644 C   0  0  0  0  0  0  0  0  0  0  0  0
   -5.3567    0.7264   -0.9014 C   0  0  0  0  0  0  0  0  0  0  0  0
   -6.6410    0.8422   -0.3709 C   0  0  0  0  0  0  0  0  0  0  0  0
   -7.0694   -0.0442    0.6095 C   0  0  0  0  0  0  0  0  0  0  0  0
   -6.2126   -1.0472    1.0603 C   0  0  0  0  0  0  0  0  0  0  0  0
   -4.9094   -1.1785    0.5405 C   0  0  0  0  0  0  0  0  0  0  0  0
   -4.0234   -2.2890    1.0606 C   0  0  0  0  0  0  0  0  0  0  0  0
   -3.7925   -3.2586    0.1339 F   0  0  0  0  0  0  0  0  0  0  0  0
   -4.5293   -2.9308    2.1515 F   0  0  0  0  0  0  0  0  0  0  0  0
   -2.7933   -1.8400    1.4439 F   0  0  0  0  0  0  0  0  0  0  0  0
   -0.0582    1.8960   -0.6958 C   0  0  0  0  0  0  0  0  0  0  0  0
    1.4311    1.7862   -1.0051 C   0  0  0  0  0  0  0  0  0  0  0  0
    3.1016    0.1014   -0.9509 O   0  0  0  0  0  0  0  0  0  0  0  0
    4.1959   -0.4700   -0.3699 C   0  0  0  0  0  0  0  0  0  0  0  0
    4.3655   -1.8373   -0.6069 C   0  0  0  0  0  0  0  0  0  0  0  0
    5.5075   -2.4977   -0.1511 C   0  0  0  0  0  0  0  0  0  0  0  0
    6.5023   -1.7876    0.5177 C   0  0  0  0  0  0  0  0  0  0  0  0
    6.3537   -0.4164    0.7303 C   0  0  0  0  0  0  0  0  0  0  0  0
    5.1981    0.2470    0.2916 C   0  0  0  0  0  0  0  0  0  0  0  0
    3.9105    3.2183    1.0996 H   0  0  0  0  0  0  0  0  0  0  0  0
    1.9820    2.0931    1.6264 H   0  0  0  0  0  0  0  0  0  0  0  0
    3.0173    0.6938    1.9066 H   0  0  0  0  0  0  0  0  0  0  0  0
    1.6080   -1.2724    0.5865 H   0  0  0  0  0  0  0  0  0  0  0  0
    0.6139   -0.0097    1.3024 H   0  0  0  0  0  0  0  0  0  0  0  0
    0.5092   -0.8928   -1.6165 H   0  0  0  0  0  0  0  0  0  0  0  0
   -0.6001   -1.3998   -0.3683 H   0  0  0  0  0  0  0  0  0  0  0  0
   -2.0203    0.4166    0.7250 H   0  0  0  0  0  0  0  0  0  0  0  0
   -2.5296    1.6385   -0.4392 H   0  0  0  0  0  0  0  0  0  0  0  0
   -2.7020   -1.3772   -1.0083 H   0  0  0  0  0  0  0  0  0  0  0  0
   -2.1904    0.2063   -2.6711 H   0  0  0  0  0  0  0  0  0  0  0  0
   -5.0436    1.4243   -1.6774 H   0  0  0  0  0  0  0  0  0  0  0  0
   -7.3074    1.6220   -0.7312 H   0  0  0  0  0  0  0  0  0  0  0  0
   -8.0727    0.0417    1.0195 H   0  0  0  0  0  0  0  0  0  0  0  0
   -6.5704   -1.7351    1.8261 H   0  0  0  0  0  0  0  0  0  0  0  0
   -0.4918    2.6967   -1.3064 H   0  0  0  0  0  0  0  0  0  0  0  0
   -0.1880    2.1862    0.3552 H   0  0  0  0  0  0  0  0  0  0  0  0
    1.5594    1.5205   -2.0639 H   0  0  0  0  0  0  0  0  0  0  0  0
    1.9005    2.7716   -0.8989 H   0  0  0  0  0  0  0  0  0  0  0  0
    3.6102   -2.3882   -1.1619 H   0  0  0  0  0  0  0  0  0  0  0  0
    5.6300   -3.5621   -0.3368 H   0  0  0  0  0  0  0  0  0  0  0  0
    7.4007   -2.2960    0.8594 H   0  0  0  0  0  0  0  0  0  0  0  0
    7.1423    0.1394    1.2342 H   0  0  0  0  0  0  0  0  0  0  0  0
  1  2  2  0
  2  3  1  0
  3  4  1  0
  4  5  1  0
  5  6  1  0
  6  7  1  0
  7  8  1  0
  8  9  1  0
  9 10  1  0
 10 11  1  0
 10 12  1  0
 12 13  2  0
 13 14  1  0
 14 15  2  0
 15 16  1  0
 16 17  2  0
 17 18  1  0
 18 19  1  0
 18 20  1  0
 18 21  1  0
  8 22  1  0
 22 23  1  0
  5 24  1  0
 24 25  1  0
 25 26  2  0
 26 27  1  0
 27 28  2  0
 28 29  1  0
 29 30  2  0
 30  2  1  0
 23  5  1  0
 30 25  1  0
 17 12  1  0
  3 31  1  0
  4 32  1  0
  4 33  1  0
  6 34  1  0
  6 35  1  0
  7 36  1  0
  7 37  1  0
  9 38  1  0
  9 39  1  0
 10 40  1  0
 11 41  1  0
 13 42  1  0
 14 43  1  0
 15 44  1  0
 16 45  1  0
 22 46  1  0
 22 47  1  0
 23 48  1  0
 23 49  1  0
 26 50  1  0
 27 51  1  0
 28 52  1  0
 29 53  1  0
M  END
$$$$
OCNT-2312943
     RDKit          3D

 55 58  0  0  0  0  0  0  0  0999 V2000
   -3.0443   -1.0978    1.8197 C   0  0  0  0  0  0  0  0  0  0  0  0
   -3.7296   -0.2194    0.8067 C   0  0  0  0  0  0  0  0  0  0  0  0
   -3.3560    1.0485    0.5379 C   0  0  0  0  0  0  0  0  0  0  0  0
   -2.1791    1.6833    1.2146 C   0  0  0  0  0  0  0  0  0  0  0  0
   -2.3625    2.4481    2.1581 O   0  0  0  0  0  0  0  0  0  0  0  0
   -0.9275    1.3847    0.7000 N   0  0  0  0  0  0  0  0  0  0  0  0
   -0.6927    0.5772   -0.5053 C   0  0  0  0  0  0  0  0  0  0  0  0
    0.6984    0.7873   -1.1133 C   0  0  0  0  0  0  0  0  0  0  0  0
    1.7982    0.6768   -0.1457 N   0  0  0  0  0  0  0  0  0  0  0  0
    3.0796    0.4830   -0.6644 C   0  0  0  0  0  0  0  0  0  0  0  0
    3.2534    0.3317   -1.8756 O   0  0  0  0  0  0  0  0  0  0  0  0
    4.2508    0.5119    0.3146 C   0  0  0  0  0  0  0  0  0  0  0  0
    5.5303   -0.0775   -0.2358 C   0  0  0  0  0  0  0  0  0  0  0  0
    6.4623    0.7332   -0.9000 C   0  0  0  0  0  0  0  0  0  0  0  0
    7.6384    0.1854   -1.4167 C   0  0  0  0  0  0  0  0  0  0  0  0
    7.8930   -1.1788   -1.2797 C   0  0  0  0  0  0  0  0  0  0  0  0
    6.9666   -1.9913   -0.6304 C   0  0  0  0  0  0  0  0  0  0  0  0
    7.2764   -3.6764   -0.4643 Cl  0  0  0  0  0  0  0  0  0  0  0  0
    5.7895   -1.4507   -0.1119 C   0  0  0  0  0  0  0  0  0  0  0  0
    1.4927    1.0247    1.2597 C   0  0  0  0  0  0  0  0  0  0  0  0
    1.2988   -0.2405    2.1055 C   0  0  0  0  0  0  0  0  0  0  0  0
    0.2525    1.9415    1.3635 C   0  0  0  0  0  0  0  0  0  0  0  0
   -4.0361    1.8395   -0.3547 N   0  0  0  0  0  0  0  0  0  0  0  0
   -5.1346    1.4441   -1.0701 C   0  0  0  0  0  0  0  0  0  0  0  0
   -5.7005    2.1985   -1.8521 O   0  0  0  0  0  0  0  0  0  0  0  0
   -5.5885    0.0502   -0.8508 C   0  0  0  0  0  0  0  0  0  0  0  0
   -6.6954   -0.4264   -1.5664 C   0  0  0  0  0  0  0  0  0  0  0  0
   -7.1332   -1.7336   -1.3749 C   0  0  0  0  0  0  0  0  0  0  0  0
   -6.4669   -2.5585   -0.4727 C   0  0  0  0  0  0  0  0  0  0  0  0
   -5.3618   -2.0802    0.2417 C   0  0  0  0  0  0  0  0  0  0  0  0
   -4.9008   -0.7651    0.0676 C   0  0  0  0  0  0  0  0  0  0  0  0
   -2.2381   -0.5901    2.3568 H   0  0  0  0  0  0  0  0  0  0  0  0
   -3.7556   -1.4365    2.5808 H   0  0  0  0  0  0  0  0  0  0  0  0
   -2.6020   -1.9734    1.3325 H   0  0  0  0  0  0  0  0  0  0  0  0
   -1.4568    0.8011   -1.2563 H   0  0  0  0  0  0  0  0  0  0  0  0
   -0.8113   -0.4725   -0.2140 H   0  0  0  0  0  0  0  0  0  0  0  0
    0.8510    0.0764   -1.9330 H   0  0  0  0  0  0  0  0  0  0  0  0
    0.7630    1.7962   -1.5403 H   0  0  0  0  0  0  0  0  0  0  0  0
    3.9993   -0.0328    1.2280 H   0  0  0  0  0  0  0  0  0  0  0  0
    4.4272    1.5560    0.6006 H   0  0  0  0  0  0  0  0  0  0  0  0
    6.2720    1.7967   -1.0306 H   0  0  0  0  0  0  0  0  0  0  0  0
    8.3521    0.8220   -1.9338 H   0  0  0  0  0  0  0  0  0  0  0  0
    8.8075   -1.6011   -1.6866 H   0  0  0  0  0  0  0  0  0  0  0  0
    5.0727   -2.1010    0.3833 H   0  0  0  0  0  0  0  0  0  0  0  0
    2.3435    1.5775    1.6720 H   0  0  0  0  0  0  0  0  0  0  0  0
    2.1803   -0.8870    2.0732 H   0  0  0  0  0  0  0  0  0  0  0  0
    0.4544   -0.8421    1.7554 H   0  0  0  0  0  0  0  0  0  0  0  0
    1.1144    0.0211    3.1527 H   0  0  0  0  0  0  0  0  0  0  0  0
    0.4613    2.8978    0.8673 H   0  0  0  0  0  0  0  0  0  0  0  0
    0.0314    2.1640    2.4134 H   0  0  0  0  0  0  0  0  0  0  0  0
   -3.7467    2.8034   -0.4784 H   0  0  0  0  0  0  0  0  0  0  0  0
   -7.2142    0.2215   -2.2701 H   0  0  0  0  0  0  0  0  0  0  0  0
   -7.9921   -2.1069   -1.9273 H   0  0  0  0  0  0  0  0  0  0  0  0
   -6.8080   -3.5804   -0.3210 H   0  0  0  0  0  0  0  0  0  0  0  0
   -4.8767   -2.7633    0.9340 H   0  0  0  0  0  0  0  0  0  0  0  0
  1  2  1  0
  2  3  2  0
  3  4  1  0
  4  5  2  0
  4  6  1  0
  6  7  1  0
  7  8  1  0
  8  9  1  0
  9 10  1  0
 10 11  2  0
 10 12  1  0
 12 13  1  0
 13 14  2  0
 14 15  1  0
 15 16  2  0
 16 17  1  0
 17 18  1  0
 17 19  2  0
  9 20  1  0
 20 21  1  0
 20 22  1  0
  3 23  1  0
 23 24  1  0
 24 25  2  0
 24 26  1  0
 26 27  2  0
 27 28  1  0
 28 29  2  0
 29 30  1  0
 30 31  2  0
 31  2  1  0
 22  6  1  0
 31 26  1  0
 19 13  1  0
  1 32  1  0
  1 33  1  0
  1 34  1  0
  7 35  1  0
  7 36  1  0
  8 37  1  0
  8 38  1  0
 12 39  1  0
 12 40  1  0
 14 41  1  0
 15 42  1  0
 16 43  1  0
 19 44  1  0
 20 45  1  0
 21 46  1  0
 21 47  1  0
 21 48  1  0
 22 49  1  0
 22 50  1  0
 23 51  1  0
 27 52  1  0
 28 53  1  0
 29 54  1  0
 30 55  1  0
M  END
$$$$
OCNT-2312947
     RDKit          3D

 60 64  0  0  0  0  0  0  0  0999 V2000
   -2.9192   -1.5330   -2.9630 O   0  0  0  0  0  0  0  0  0  0  0  0
   -2.5602   -1.1354   -1.8557 C   0  0  0  0  0  0  0  0  0  0  0  0
   -3.0101    0.0130   -1.2240 N   0  0  0  0  0  0  0  0  0  0  0  0
   -3.8724    1.0034   -1.7281 C   0  0  0  0  0  0  0  0  0  0  0  0
   -4.4438    0.9671   -3.0032 C   0  0  0  0  0  0  0  0  0  0  0  0
   -5.2935    1.9941   -3.4272 C   0  0  0  0  0  0  0  0  0  0  0  0
   -5.5700    3.0548   -2.5755 C   0  0  0  0  0  0  0  0  0  0  0  0
   -6.3844    4.0369   -2.9826 F   0  0  0  0  0  0  0  0  0  0  0  0
   -5.0121    3.1101   -1.3057 C   0  0  0  0  0  0  0  0  0  0  0  0
   -4.1631    2.0846   -0.8825 C   0  0  0  0  0  0  0  0  0  0  0  0
   -1.6882   -2.0417   -0.9479 C   0  0  0  0  0  0  0  0  0  0  0  0
   -2.6142   -3.1442   -0.4093 C   0  0  0  0  0  0  0  0  0  0  0  0
   -2.0719   -3.7561    0.8667 C   0  0  0  0  0  0  0  0  0  0  0  0
   -1.9118   -2.6477    1.8664 C   0  0  0  0  0  0  0  0  0  0  0  0
   -2.2876   -2.8317    3.2034 C   0  0  0  0  0  0  0  0  0  0  0  0
   -2.1426   -1.7940    4.1214 C   0  0  0  0  0  0  0  0  0  0  0  0
   -1.6267   -0.5692    3.7082 C   0  0  0  0  0  0  0  0  0  0  0  0
   -1.2354   -0.3870    2.3800 C   0  0  0  0  0  0  0  0  0  0  0  0
   -1.3452   -1.4318    1.4547 C   0  0  0  0  0  0  0  0  0  0  0  0
   -0.9585   -1.2718    0.0942 N   0  0  0  0  0  0  0  0  0  0  0  0
    0.1466   -0.5459   -0.3587 C   0  0  0  0  0  0  0  0  0  0  0  0
    0.2384   -0.2191   -1.5461 O   0  0  0  0  0  0  0  0  0  0  0  0
    1.3313   -0.2990    0.5806 C   0  0  0  0  0  0  0  0  0  0  0  0
    1.6913    1.1931    0.5920 C   0  0  0  0  0  0  0  0  0  0  0  0
    3.1491    1.4354    0.9769 C   0  0  0  0  0  0  0  0  0  0  0  0
    4.0452    0.6913    0.1058 N   0  0  0  0  0  0  0  0  0  0  0  0
    5.2468    1.2705   -0.2513 C   0  0  0  0  0  0  0  0  0  0  0  0
    5.7017    2.3149    0.4648 N   0  0  0  0  0  0  0  0  0  0  0  0
    6.8818    2.8565    0.1085 C   0  0  0  0  0  0  0  0  0  0  0  0
    7.6400    2.4008   -0.9371 C   0  0  0  0  0  0  0  0  0  0  0  0
    7.1089    1.3329   -1.6101 C   0  0  0  0  0  0  0  0  0  0  0  0
    5.9345    0.7595   -1.2878 N   0  0  0  0  0  0  0  0  0  0  0  0
    3.5277   -0.3974   -0.7081 C   0  0  0  0  0  0  0  0  0  0  0  0
    2.5019   -1.1833    0.1075 C   0  0  0  0  0  0  0  0  0  0  0  0
   -2.6239    0.1740   -0.3020 H   0  0  0  0  0  0  0  0  0  0  0  0
   -4.2445    0.1557   -3.6960 H   0  0  0  0  0  0  0  0  0  0  0  0
   -5.7356    1.9680   -4.4179 H   0  0  0  0  0  0  0  0  0  0  0  0
   -5.2397    3.9482   -0.6553 H   0  0  0  0  0  0  0  0  0  0  0  0
   -3.7347    2.1425    0.1145 H   0  0  0  0  0  0  0  0  0  0  0  0
   -0.9246   -2.4988   -1.5923 H   0  0  0  0  0  0  0  0  0  0  0  0
   -2.7470   -3.9194   -1.1740 H   0  0  0  0  0  0  0  0  0  0  0  0
   -3.6175   -2.7386   -0.2149 H   0  0  0  0  0  0  0  0  0  0  0  0
   -2.7713   -4.5166    1.2318 H   0  0  0  0  0  0  0  0  0  0  0  0
   -1.1047   -4.2430    0.6963 H   0  0  0  0  0  0  0  0  0  0  0  0
   -2.7029   -3.7813    3.5344 H   0  0  0  0  0  0  0  0  0  0  0  0
   -2.4426   -1.9380    5.1567 H   0  0  0  0  0  0  0  0  0  0  0  0
   -1.5328    0.2471    4.4206 H   0  0  0  0  0  0  0  0  0  0  0  0
   -0.8729    0.5924    2.0836 H   0  0  0  0  0  0  0  0  0  0  0  0
    1.1133   -0.6223    1.5990 H   0  0  0  0  0  0  0  0  0  0  0  0
    1.5092    1.6453   -0.3919 H   0  0  0  0  0  0  0  0  0  0  0  0
    1.0348    1.7270    1.2887 H   0  0  0  0  0  0  0  0  0  0  0  0
    3.3207    2.5179    0.9294 H   0  0  0  0  0  0  0  0  0  0  0  0
    3.3169    1.1231    2.0146 H   0  0  0  0  0  0  0  0  0  0  0  0
    7.2052    3.6971    0.7145 H   0  0  0  0  0  0  0  0  0  0  0  0
    8.5843    2.8481   -1.2092 H   0  0  0  0  0  0  0  0  0  0  0  0
    7.6229    0.8869   -2.4559 H   0  0  0  0  0  0  0  0  0  0  0  0
    3.0785   -0.0084   -1.6298 H   0  0  0  0  0  0  0  0  0  0  0  0
    4.3228   -1.0973   -0.9934 H   0  0  0  0  0  0  0  0  0  0  0  0
    2.1470   -2.0440   -0.4723 H   0  0  0  0  0  0  0  0  0  0  0  0
    3.0052   -1.5962    0.9927 H   0  0  0  0  0  0  0  0  0  0  0  0
  1  2  2  0
  2  3  1  0
  3  4  1  0
  4  5  1  0
  5  6  2  0
  6  7  1  0
  7  8  1  0
  7  9  2  0
  9 10  1  0
  2 11  1  0
 11 12  1  0
 12 13  1  0
 13 14  1  0
 14 15  2  0
 15 16  1  0
 16 17  2  0
 17 18  1  0
 18 19  2  0
 19 20  1  0
 20 21  1  0
 21 22  2  0
 21 23  1  0
 23 24  1  0
 24 25  1  0
 25 26  1  0
 26 27  1  0
 27 28  2  0
 28 29  1  0
 29 30  2  0
 30 31  1  0
 31 32  2  0
 26 33  1  0
 33 34  1  0
 10  4  2  0
 20 11  1  0
 34 23  1  0
 19 14  1  0
 32 27  1  0
  3 35  1  0
  5 36  1  0
  6 37  1  0
  9 38  1  0
 10 39  1  0
 11 40  1  0
 12 41  1  0
 12 42  1  0
 13 43  1  0
 13 44  1  0
 15 45  1  0
 16 46  1  0
 17 47  1  0
 18 48  1  0
 23 49  1  0
 24 50  1  0
 24 51  1  0
 25 52  1  0
 25 53  1  0
 29 54  1  0
 30 55  1  0
 31 56  1  0
 33 57  1  0
 33 58  1  0
 34 59  1  0
 34 60  1  0
M  END
$$$$
OCNT-2312951
     RDKit          3D

 51 53  0  0  0  0  0  0  0  0999 V2000
    7.1725    2.0910    1.0656 C   0  0  0  0  0  0  0  0  0  0  0  0
    5.9552    1.2910    0.7324 C   0  0  0  0  0  0  0  0  0  0  0  0
    5.3265    0.4884    1.6809 C   0  0  0  0  0  0  0  0  0  0  0  0
    4.2103   -0.2665    1.3209 C   0  0  0  0  0  0  0  0  0  0  0  0
    3.7445   -0.2233    0.0045 C   0  0  0  0  0  0  0  0  0  0  0  0
    2.4959   -1.0089   -0.4304 C   0  0  0  0  0  0  0  0  0  0  0  0
    2.5576   -2.4675    0.0736 C   0  0  0  0  0  0  0  0  0  0  0  0
    2.3998   -1.0581   -1.9753 C   0  0  0  0  0  0  0  0  0  0  0  0
    1.2603   -0.2705    0.1424 C   0  0  0  0  0  0  0  0  0  0  0  0
   -0.0080   -0.9407   -0.0996 N   0  0  0  0  0  0  0  0  0  0  0  0
   -1.1405   -0.5475    0.5910 C   0  0  0  0  0  0  0  0  0  0  0  0
   -1.1083    0.2402    1.5317 O   0  0  0  0  0  0  0  0  0  0  0  0
   -2.3722   -1.1562    0.0852 C   0  0  0  0  0  0  0  0  0  0  0  0
   -3.6366   -0.5659    0.0670 C   0  0  0  0  0  0  0  0  0  0  0  0
   -4.0524    0.7806    0.4667 C   0  0  0  0  0  0  0  0  0  0  0  0
   -4.4013    1.7257   -0.5071 C   0  0  0  0  0  0  0  0  0  0  0  0
   -4.8150    3.0062   -0.1337 C   0  0  0  0  0  0  0  0  0  0  0  0
   -4.8770    3.3529    1.2158 C   0  0  0  0  0  0  0  0  0  0  0  0
   -4.5246    2.4205    2.1910 C   0  0  0  0  0  0  0  0  0  0  0  0
   -4.1137    1.1383    1.8178 C   0  0  0  0  0  0  0  0  0  0  0  0
   -4.5153   -1.4936   -0.4624 N   0  0  0  0  0  0  0  0  0  0  0  0
   -5.9461   -1.3154   -0.6143 C   0  0  0  0  0  0  0  0  0  0  0  0
   -3.8427   -2.6351   -0.8152 C   0  0  0  0  0  0  0  0  0  0  0  0
   -2.5188   -2.4579   -0.4931 C   0  0  0  0  0  0  0  0  0  0  0  0
    4.3512    0.5554   -0.9258 N   0  0  0  0  0  0  0  0  0  0  0  0
    5.4314    1.2796   -0.5515 C   0  0  0  0  0  0  0  0  0  0  0  0
    8.0755    1.5169    0.8366 H   0  0  0  0  0  0  0  0  0  0  0  0
    7.1929    3.0243    0.4956 H   0  0  0  0  0  0  0  0  0  0  0  0
    7.1854    2.3581    2.1272 H   0  0  0  0  0  0  0  0  0  0  0  0
    5.6923    0.4479    2.7037 H   0  0  0  0  0  0  0  0  0  0  0  0
    3.7161   -0.8704    2.0769 H   0  0  0  0  0  0  0  0  0  0  0  0
    3.4938   -2.9484   -0.2352 H   0  0  0  0  0  0  0  0  0  0  0  0
    2.4930   -2.5346    1.1653 H   0  0  0  0  0  0  0  0  0  0  0  0
    1.7343   -3.0689   -0.3293 H   0  0  0  0  0  0  0  0  0  0  0  0
    2.2677   -0.0562   -2.3991 H   0  0  0  0  0  0  0  0  0  0  0  0
    1.5549   -1.6690   -2.3120 H   0  0  0  0  0  0  0  0  0  0  0  0
    3.3067   -1.4907   -2.4173 H   0  0  0  0  0  0  0  0  0  0  0  0
    1.1792    0.7290   -0.2982 H   0  0  0  0  0  0  0  0  0  0  0  0
    1.3603   -0.1221    1.2233 H   0  0  0  0  0  0  0  0  0  0  0  0
   -0.1800   -1.3182   -1.0178 H   0  0  0  0  0  0  0  0  0  0  0  0
   -4.3445    1.4682   -1.5626 H   0  0  0  0  0  0  0  0  0  0  0  0
   -5.0801    3.7350   -0.8955 H   0  0  0  0  0  0  0  0  0  0  0  0
   -5.1896    4.3521    1.5074 H   0  0  0  0  0  0  0  0  0  0  0  0
   -4.5568    2.6922    3.2428 H   0  0  0  0  0  0  0  0  0  0  0  0
   -3.8243    0.4239    2.5849 H   0  0  0  0  0  0  0  0  0  0  0  0
   -6.1227   -0.6028   -1.4257 H   0  0  0  0  0  0  0  0  0  0  0  0
   -6.3591   -0.9473    0.3291 H   0  0  0  0  0  0  0  0  0  0  0  0
   -6.4067   -2.2757   -0.8596 H   0  0  0  0  0  0  0  0  0  0  0  0
   -4.3579   -3.4812   -1.2537 H   0  0  0  0  0  0  0  0  0  0  0  0
   -1.7394   -3.1965   -0.6320 H   0  0  0  0  0  0  0  0  0  0  0  0
    5.8760    1.8715   -1.3479 H   0  0  0  0  0  0  0  0  0  0  0  0
  1  2  1  0
  2  3  2  0
  3  4  1  0
  4  5  2  0
  5  6  1  0
  6  7  1  0
  6  8  1  0
  6  9  1  0
  9 10  1  0
 10 11  1  0
 11 12  2  0
 11 13  1  0
 13 14  2  0
 14 15  1  0
 15 16  2  0
 16 17  1  0
 17 18  2  0
 18 19  1  0
 19 20  2  0
 14 21  1  0
 21 22  1  0
 21 23  1  0
 23 24  2  0
  5 25  1  0
 25 26  2  0
 26  2  1  0
 24 13  1  0
 20 15  1  0
  1 27  1  0
  1 28  1  0
  1 29  1  0
  3 30  1  0
  4 31  1  0
  7 32  1  0
  7 33  1  0
  7 34  1  0
  8 35  1  0
  8 36  1  0
  8 37  1  0
  9 38  1  0
  9 39  1  0
 10 40  1  0
 16 41  1  0
 17 42  1  0
 18 43  1  0
 19 44  1  0
 20 45  1  0
 22 46  1  0
 22 47  1  0
 22 48  1  0
 23 49  1  0
 24 50  1  0
 26 51  1  0
M  END
$$$$
OCNT-2312959
     RDKit          3D

 37 39  0  0  0  0  0  0  0  0999 V2000
    5.0564    1.3940   -0.6707 C   0  0  0  0  0  0  0  0  0  0  0  0
    4.5623    0.0922   -0.1230 C   0  0  0  0  0  0  0  0  0  0  0  0
    5.4791   -0.8316    0.2106 N   0  0  0  0  0  0  0  0  0  0  0  0
    4.9988   -1.9796    0.7128 C   0  0  0  0  0  0  0  0  0  0  0  0
    3.6591   -2.2196    0.9055 C   0  0  0  0  0  0  0  0  0  0  0  0
    2.7889   -1.2055    0.5566 C   0  0  0  0  0  0  0  0  0  0  0  0
    1.4097   -1.4334    0.7293 N   0  0  0  0  0  0  0  0  0  0  0  0
    0.5324   -0.3221    0.3406 C   0  0  0  0  0  0  0  0  0  0  0  0
    0.3509   -0.2278   -1.1720 C   0  0  0  0  0  0  0  0  0  0  0  0
   -0.9436    0.5660   -1.3188 C   0  0  0  0  0  0  0  0  0  0  0  0
   -1.7465    0.1682   -0.1629 N   0  0  0  0  0  0  0  0  0  0  0  0
   -3.0795    0.4538   -0.0010 C   0  0  0  0  0  0  0  0  0  0  0  0
   -3.8213   -0.0673    1.0745 C   0  0  0  0  0  0  0  0  0  0  0  0
   -5.1809    0.2177    1.2476 C   0  0  0  0  0  0  0  0  0  0  0  0
   -5.8300    1.0378    0.3382 C   0  0  0  0  0  0  0  0  0  0  0  0
   -7.1324    1.3019    0.5176 F   0  0  0  0  0  0  0  0  0  0  0  0
   -5.1330    1.5709   -0.7370 C   0  0  0  0  0  0  0  0  0  0  0  0
   -5.9244    2.5937   -1.8754 Cl  0  0  0  0  0  0  0  0  0  0  0  0
   -3.7739    1.2798   -0.9022 C   0  0  0  0  0  0  0  0  0  0  0  0
   -0.9232   -0.5520    0.8110 C   0  0  0  0  0  0  0  0  0  0  0  0
    3.2328   -0.0500    0.0387 N   0  0  0  0  0  0  0  0  0  0  0  0
    5.9862    1.2490   -1.2291 H   0  0  0  0  0  0  0  0  0  0  0  0
    4.3162    1.8331   -1.3465 H   0  0  0  0  0  0  0  0  0  0  0  0
    5.2426    2.0921    0.1504 H   0  0  0  0  0  0  0  0  0  0  0  0
    5.7448   -2.7280    0.9620 H   0  0  0  0  0  0  0  0  0  0  0  0
    3.3100   -3.1642    1.2988 H   0  0  0  0  0  0  0  0  0  0  0  0
    1.2581   -1.7187    1.6936 H   0  0  0  0  0  0  0  0  0  0  0  0
    0.8788    0.6347    0.7556 H   0  0  0  0  0  0  0  0  0  0  0  0
    1.1849    0.2627   -1.6821 H   0  0  0  0  0  0  0  0  0  0  0  0
    0.2322   -1.2266   -1.6119 H   0  0  0  0  0  0  0  0  0  0  0  0
   -1.4280    0.3218   -2.2703 H   0  0  0  0  0  0  0  0  0  0  0  0
   -0.7403    1.6424   -1.2814 H   0  0  0  0  0  0  0  0  0  0  0  0
   -3.3511   -0.7233    1.8025 H   0  0  0  0  0  0  0  0  0  0  0  0
   -5.7312   -0.1994    2.0848 H   0  0  0  0  0  0  0  0  0  0  0  0
   -3.2575    1.7196   -1.7504 H   0  0  0  0  0  0  0  0  0  0  0  0
   -1.1808   -1.6183    0.8048 H   0  0  0  0  0  0  0  0  0  0  0  0
   -1.0465   -0.1641    1.8287 H   0  0  0  0  0  0  0  0  0  0  0  0
  1  2  1  0
  2  3  2  0
  3  4  1  0
  4  5  2  0
  5  6  1  0
  6  7  1  0
  7  8  1  0
  8  9  1  0
  9 10  1  0
 10 11  1  0
 11 12  1  0
 12 13  1  0
 13 14  2  0
 14 15  1  0
 15 16  1  0
 15 17  2  0
 17 18  1  0
 17 19  1  0
 11 20  1  0
  6 21  2  0
 21  2  1  0
 20  8  1  0
 19 12  2  0
  1 22  1  0
  1 23  1  0
  1 24  1  0
  4 25  1  0
  5 26  1  0
  7 27  1  0
  8 28  1  0
  9 29  1  0
  9 30  1  0
 10 31  1  0
 10 32  1  0
 13 33  1  0
 14 34  1  0
 19 35  1  0
 20 36  1  0
 20 37  1  0
M  END
$$$$
OCNT-2312961
     RDKit          3D

 41 43  0  0  0  0  0  0  0  0999 V2000
   -1.6111   -1.9851   -0.1919 C   0  0  0  0  0  0  0  0  0  0  0  0
   -1.3091   -0.6114   -0.4003 O   0  0  0  0  0  0  0  0  0  0  0  0
   -1.9953    0.0557   -1.3803 C   0  0  0  0  0  0  0  0  0  0  0  0
   -2.8272   -0.5772   -2.3152 C   0  0  0  0  0  0  0  0  0  0  0  0
   -3.5215    0.1731   -3.2680 C   0  0  0  0  0  0  0  0  0  0  0  0
   -3.3899    1.5547   -3.2880 C   0  0  0  0  0  0  0  0  0  0  0  0
   -4.0634    2.2666   -4.2003 F   0  0  0  0  0  0  0  0  0  0  0  0
   -2.5686    2.2045   -2.3799 C   0  0  0  0  0  0  0  0  0  0  0  0
   -1.8540    1.4586   -1.4307 C   0  0  0  0  0  0  0  0  0  0  0  0
   -0.9942    2.2347   -0.4939 C   0  0  0  0  0  0  0  0  0  0  0  0
   -1.3266    3.3658   -0.1538 O   0  0  0  0  0  0  0  0  0  0  0  0
    0.1705    1.6370   -0.0798 N   0  0  0  0  0  0  0  0  0  0  0  0
    1.0189    2.2163    0.9524 C   0  0  0  0  0  0  0  0  0  0  0  0
    0.5016    1.8855    2.3468 C   0  0  0  0  0  0  0  0  0  0  0  0
    0.9817    0.4497    2.5633 C   0  0  0  0  0  0  0  0  0  0  0  0
    2.2417    0.3323    1.7933 N   0  0  0  0  0  0  0  0  0  0  0  0
    2.2732   -0.8690    1.0548 C   0  0  0  0  0  0  0  0  0  0  0  0
    1.9983   -0.8193   -0.2753 N   0  0  0  0  0  0  0  0  0  0  0  0
    2.0350   -1.9678   -0.9878 C   0  0  0  0  0  0  0  0  0  0  0  0
    2.3123   -3.2055   -0.4403 C   0  0  0  0  0  0  0  0  0  0  0  0
    2.5767   -3.2689    0.9212 C   0  0  0  0  0  0  0  0  0  0  0  0
    2.5607   -2.0972    1.6809 C   0  0  0  0  0  0  0  0  0  0  0  0
    2.9275   -2.2270    3.3656 Cl  0  0  0  0  0  0  0  0  0  0  0  0
    2.4092    1.5668    0.9924 C   0  0  0  0  0  0  0  0  0  0  0  0
   -1.2870   -2.5906   -1.0443 H   0  0  0  0  0  0  0  0  0  0  0  0
   -2.6760   -2.1314    0.0169 H   0  0  0  0  0  0  0  0  0  0  0  0
   -1.0510   -2.3203    0.6864 H   0  0  0  0  0  0  0  0  0  0  0  0
   -2.9598   -1.6542   -2.3290 H   0  0  0  0  0  0  0  0  0  0  0  0
   -4.1692   -0.3124   -3.9919 H   0  0  0  0  0  0  0  0  0  0  0  0
   -2.4835    3.2872   -2.4165 H   0  0  0  0  0  0  0  0  0  0  0  0
    0.3385    0.6583   -0.3170 H   0  0  0  0  0  0  0  0  0  0  0  0
    1.0798    3.2971    0.7883 H   0  0  0  0  0  0  0  0  0  0  0  0
   -0.5838    1.9746    2.4536 H   0  0  0  0  0  0  0  0  0  0  0  0
    0.9725    2.5458    3.0856 H   0  0  0  0  0  0  0  0  0  0  0  0
    1.1588    0.2601    3.6270 H   0  0  0  0  0  0  0  0  0  0  0  0
    0.2093   -0.2486    2.2144 H   0  0  0  0  0  0  0  0  0  0  0  0
    1.8254   -1.8579   -2.0484 H   0  0  0  0  0  0  0  0  0  0  0  0
    2.3302   -4.0963   -1.0580 H   0  0  0  0  0  0  0  0  0  0  0  0
    2.8066   -4.2237    1.3857 H   0  0  0  0  0  0  0  0  0  0  0  0
    3.0963    2.2195    1.5457 H   0  0  0  0  0  0  0  0  0  0  0  0
    2.8463    1.4201   -0.0018 H   0  0  0  0  0  0  0  0  0  0  0  0
  1  2  1  0
  2  3  1  0
  3  4  1  0
  4  5  2  0
  5  6  1  0
  6  7  1  0
  6  8  2  0
  8  9  1  0
  9 10  1  0
 10 11  2  0
 10 12  1  0
 12 13  1  0
 13 14  1  0
 14 15  1  0
 15 16  1  0
 16 17  1  0
 17 18  1  0
 18 19  2  0
 19 20  1  0
 20 21  2  0
 21 22  1  0
 22 23  1  0
 16 24  1  0
  9  3  2  0
 24 13  1  0
 22 17  2  0
  1 25  1  0
  1 26  1  0
  1 27  1  0
  4 28  1  0
  5 29  1  0
  8 30  1  0
 12 31  1  0
 13 32  1  0
 14 33  1  0
 14 34  1  0
 15 35  1  0
 15 36  1  0
 19 37  1  0
 20 38  1  0
 21 39  1  0
 24 40  1  0
 24 41  1  0
M  END
$$$$
OCNT-2312969
     RDKit          3D

 40 42  0  0  0  0  0  0  0  0999 V2000
    7.7198   -0.1635    1.2417 C   0  0  0  0  0  0  0  0  0  0  0  0
    7.0532   -0.1500   -0.0133 O   0  0  0  0  0  0  0  0  0  0  0  0
    5.6861   -0.2364   -0.0102 C   0  0  0  0  0  0  0  0  0  0  0  0
    4.9003   -0.3408    1.1395 C   0  0  0  0  0  0  0  0  0  0  0  0
    3.5043   -0.4248    1.0427 C   0  0  0  0  0  0  0  0  0  0  0  0
    2.8544   -0.4075   -0.2013 C   0  0  0  0  0  0  0  0  0  0  0  0
    1.3909   -0.4979   -0.2967 C   0  0  0  0  0  0  0  0  0  0  0  0
    0.7573   -1.4187   -1.1334 C   0  0  0  0  0  0  0  0  0  0  0  0
   -0.6370   -1.4744   -1.1883 C   0  0  0  0  0  0  0  0  0  0  0  0
   -1.3950   -0.6012   -0.4136 C   0  0  0  0  0  0  0  0  0  0  0  0
   -2.7918   -0.7099   -0.4704 N   0  0  0  0  0  0  0  0  0  0  0  0
   -3.5091    0.2958    0.3120 C   0  0  0  0  0  0  0  0  0  0  0  0
   -4.9997    0.2268    0.1780 C   0  0  0  0  0  0  0  0  0  0  0  0
   -5.7992   -0.8989    0.1746 C   0  0  0  0  0  0  0  0  0  0  0  0
   -7.0803   -0.4625    0.0357 N   0  0  0  0  0  0  0  0  0  0  0  0
   -7.1831    0.8712   -0.0559 N   0  0  0  0  0  0  0  0  0  0  0  0
   -5.9195    1.3039    0.0380 C   0  0  0  0  0  0  0  0  0  0  0  0
   -5.6260    2.7583   -0.0131 C   0  0  0  0  0  0  0  0  0  0  0  0
   -0.8097    0.2890    0.4091 N   0  0  0  0  0  0  0  0  0  0  0  0
    0.5466    0.3248    0.4458 C   0  0  0  0  0  0  0  0  0  0  0  0
    3.6506   -0.3037   -1.3514 C   0  0  0  0  0  0  0  0  0  0  0  0
    5.0453   -0.2189   -1.2577 C   0  0  0  0  0  0  0  0  0  0  0  0
    5.9444   -0.0909   -2.7311 Cl  0  0  0  0  0  0  0  0  0  0  0  0
    7.4269    0.6959    1.8536 H   0  0  0  0  0  0  0  0  0  0  0  0
    8.7943   -0.0846    1.0504 H   0  0  0  0  0  0  0  0  0  0  0  0
    7.5447   -1.1057    1.7713 H   0  0  0  0  0  0  0  0  0  0  0  0
    5.3383   -0.3643    2.1323 H   0  0  0  0  0  0  0  0  0  0  0  0
    2.9261   -0.5207    1.9613 H   0  0  0  0  0  0  0  0  0  0  0  0
    1.3373   -2.1149   -1.7345 H   0  0  0  0  0  0  0  0  0  0  0  0
   -1.1240   -2.2080   -1.8225 H   0  0  0  0  0  0  0  0  0  0  0  0
   -3.0967   -0.6967   -1.4381 H   0  0  0  0  0  0  0  0  0  0  0  0
   -3.1827    1.2988    0.0070 H   0  0  0  0  0  0  0  0  0  0  0  0
   -3.2701    0.1774    1.3773 H   0  0  0  0  0  0  0  0  0  0  0  0
   -5.5616   -1.9498    0.2604 H   0  0  0  0  0  0  0  0  0  0  0  0
   -7.9309   -1.0139   -0.0042 H   0  0  0  0  0  0  0  0  0  0  0  0
   -5.0423    3.0613    0.8620 H   0  0  0  0  0  0  0  0  0  0  0  0
   -5.0510    2.9979   -0.9132 H   0  0  0  0  0  0  0  0  0  0  0  0
   -6.5440    3.3549   -0.0282 H   0  0  0  0  0  0  0  0  0  0  0  0
    0.9488    1.0785    1.1188 H   0  0  0  0  0  0  0  0  0  0  0  0
    3.1841   -0.2759   -2.3344 H   0  0  0  0  0  0  0  0  0  0  0  0
  1  2  1  0
  2  3  1  0
  3  4  1  0
  4  5  2  0
  5  6  1  0
  6  7  1  0
  7  8  2  0
  8  9  1  0
  9 10  2  0
 10 11  1  0
 11 12  1  0
 12 13  1  0
 13 14  2  0
 14 15  1  0
 15 16  1  0
 16 17  2  0
 17 18  1  0
 10 19  1  0
 19 20  2  0
  6 21  2  0
 21 22  1  0
 22 23  1  0
 22  3  2  0
 20  7  1  0
 17 13  1  0
  1 24  1  0
  1 25  1  0
  1 26  1  0
  4 27  1  0
  5 28  1  0
  8 29  1  0
  9 30  1  0
 11 31  1  0
 12 32  1  0
 12 33  1  0
 14 34  1  0
 15 35  1  0
 18 36  1  0
 18 37  1  0
 18 38  1  0
 20 39  1  0
 21 40  1  0
M  END
$$$$
OCNT-2312992
     RDKit          3D

 54 57  0  0  0  0  0  0  0  0999 V2000
    2.8999    2.6206    0.9937 C   0  0  0  0  0  0  0  0  0  0  0  0
    3.9323    1.9079    0.2394 N   0  0  0  0  0  0  0  0  0  0  0  0
    5.2558    2.5340    0.2461 C   0  0  0  0  0  0  0  0  0  0  0  0
    3.8357    0.5203    0.0884 C   0  0  0  0  0  0  0  0  0  0  0  0
    4.9022   -0.2529   -0.4105 C   0  0  0  0  0  0  0  0  0  0  0  0
    4.8129   -1.6471   -0.5756 C   0  0  0  0  0  0  0  0  0  0  0  0
    5.9415   -2.3803   -1.0690 C   0  0  0  0  0  0  0  0  0  0  0  0
    6.8577   -2.9661   -1.4741 N   0  0  0  0  0  0  0  0  0  0  0  0
    3.6316   -2.3113   -0.2650 C   0  0  0  0  0  0  0  0  0  0  0  0
    2.5464   -1.5689    0.1897 C   0  0  0  0  0  0  0  0  0  0  0  0
    1.2953   -2.2752    0.5389 C   0  0  0  0  0  0  0  0  0  0  0  0
    1.3793   -3.2289    1.3091 O   0  0  0  0  0  0  0  0  0  0  0  0
    0.0887   -1.8166    0.0135 N   0  0  0  0  0  0  0  0  0  0  0  0
   -0.0373   -1.0460   -1.2174 C   0  0  0  0  0  0  0  0  0  0  0  0
   -1.0632    0.0750   -1.0660 C   0  0  0  0  0  0  0  0  0  0  0  0
   -2.1933   -0.2526   -0.0573 C   0  0  0  0  0  0  0  0  0  0  0  0
   -2.4098   -1.7818   -0.0244 C   0  0  0  0  0  0  0  0  0  0  0  0
   -3.6016   -2.1764    0.8466 C   0  0  0  0  0  0  0  0  0  0  0  0
   -4.8340   -1.3969    0.4198 C   0  0  0  0  0  0  0  0  0  0  0  0
   -4.5683    0.1055    0.4639 C   0  0  0  0  0  0  0  0  0  0  0  0
   -3.4307    0.5007   -0.3755 N   0  0  0  0  0  0  0  0  0  0  0  0
   -3.2195    1.9647   -0.4927 C   0  0  0  0  0  0  0  0  0  0  0  0
   -4.0937    3.0100    0.1496 C   0  0  0  0  0  0  0  0  0  0  0  0
   -2.7102    2.7721    0.6743 C   0  0  0  0  0  0  0  0  0  0  0  0
   -1.1301   -2.4800    0.4668 C   0  0  0  0  0  0  0  0  0  0  0  0
    2.6545   -0.1814    0.3826 C   0  0  0  0  0  0  0  0  0  0  0  0
    2.8587    2.2702    2.0308 H   0  0  0  0  0  0  0  0  0  0  0  0
    3.0960    3.6985    1.0151 H   0  0  0  0  0  0  0  0  0  0  0  0
    1.9163    2.5050    0.5255 H   0  0  0  0  0  0  0  0  0  0  0  0
    5.1842    3.6168    0.3989 H   0  0  0  0  0  0  0  0  0  0  0  0
    5.7614    2.4000   -0.7161 H   0  0  0  0  0  0  0  0  0  0  0  0
    5.8788    2.1276    1.0505 H   0  0  0  0  0  0  0  0  0  0  0  0
    5.8425    0.2210   -0.6829 H   0  0  0  0  0  0  0  0  0  0  0  0
    3.5464   -3.3906   -0.3743 H   0  0  0  0  0  0  0  0  0  0  0  0
    0.9160   -0.6429   -1.5655 H   0  0  0  0  0  0  0  0  0  0  0  0
   -0.3610   -1.7490   -1.9960 H   0  0  0  0  0  0  0  0  0  0  0  0
   -1.4686    0.2924   -2.0625 H   0  0  0  0  0  0  0  0  0  0  0  0
   -0.5517    0.9877   -0.7339 H   0  0  0  0  0  0  0  0  0  0  0  0
   -1.8519    0.0553    0.9421 H   0  0  0  0  0  0  0  0  0  0  0  0
   -2.6175   -2.1202   -1.0505 H   0  0  0  0  0  0  0  0  0  0  0  0
   -3.7933   -3.2524    0.7621 H   0  0  0  0  0  0  0  0  0  0  0  0
   -3.3883   -1.9693    1.9029 H   0  0  0  0  0  0  0  0  0  0  0  0
   -5.1292   -1.6932   -0.5947 H   0  0  0  0  0  0  0  0  0  0  0  0
   -5.6728   -1.6421    1.0811 H   0  0  0  0  0  0  0  0  0  0  0  0
   -5.4783    0.6045    0.1100 H   0  0  0  0  0  0  0  0  0  0  0  0
   -4.4046    0.4130    1.5046 H   0  0  0  0  0  0  0  0  0  0  0  0
   -2.8336    2.2471   -1.4725 H   0  0  0  0  0  0  0  0  0  0  0  0
   -4.2746    3.9214   -0.4103 H   0  0  0  0  0  0  0  0  0  0  0  0
   -4.9226    2.7300    0.7858 H   0  0  0  0  0  0  0  0  0  0  0  0
   -1.9537    3.5217    0.4745 H   0  0  0  0  0  0  0  0  0  0  0  0
   -2.6180    2.2983    1.6440 H   0  0  0  0  0  0  0  0  0  0  0  0
   -1.1094   -3.5173    0.1103 H   0  0  0  0  0  0  0  0  0  0  0  0
   -1.0975   -2.5161    1.5629 H   0  0  0  0  0  0  0  0  0  0  0  0
    1.7841    0.3340    0.7778 H   0  0  0  0  0  0  0  0  0  0  0  0
  1  2  1  0
  2  3  1  0
  2  4  1  0
  4  5  2  0
  5  6  1  0
  6  7  1  0
  7  8  3  0
  6  9  2  0
  9 10  1  0
 10 11  1  0
 11 12  2  0
 11 13  1  0
 13 14  1  0
 14 15  1  0
 15 16  1  0
 16 17  1  0
 17 18  1  0
 18 19  1  0
 19 20  1  0
 20 21  1  0
 21 22  1  0
 22 23  1  0
 23 24  1  0
 17 25  1  0
 10 26  2  0
 26  4  1  0
 25 13  1  0
 21 16  1  0
 24 22  1  0
  1 27  1  0
  1 28  1  0
  1 29  1  0
  3 30  1  0
  3 31  1  0
  3 32  1  0
  5 33  1  0
  9 34  1  0
 14 35  1  0
 14 36  1  0
 15 37  1  0
 15 38  1  0
 16 39  1  0
 17 40  1  0
 18 41  1  0
 18 42  1  0
 19 43  1  0
 19 44  1  0
 20 45  1  0
 20 46  1  0
 22 47  1  0
 23 48  1  0
 23 49  1  0
 24 50  1  0
 24 51  1  0
 25 52  1  0
 25 53  1  0
 26 54  1  0
M  END
$$$$
OCNT-2312995
     RDKit          3D

  0  0  0  0  0  0  0  0  0  0999 V3000
M  V30 BEGIN CTAB
M  V30 COUNTS 40 43 0 0 0
M  V30 BEGIN ATOM
M  V30 1 O -2.583417 -3.846526 -0.074259 0
M  V30 2 C -2.765860 -2.437048 -0.125082 0
M  V30 3 C -1.458322 -1.728106 0.192713 0 CFG=1
M  V30 4 C -0.364369 -2.009948 -0.846452 0
M  V30 5 N 0.519202 -0.862983 -0.723466 0
M  V30 6 C 1.678765 -0.754810 -1.404633 0
M  V30 7 N 2.194440 -1.712963 -2.181940 0
M  V30 8 S 3.624295 -1.126912 -2.803377 0
M  V30 9 C 3.470603 0.363318 -1.990772 0
M  V30 10 C 4.506551 1.519913 -2.093534 0
M  V30 11 C 4.740410 2.409696 -0.898967 0
M  V30 12 C 5.792915 1.423038 -1.312594 0
M  V30 13 N 2.376194 0.440686 -1.271970 0
M  V30 14 C -0.101127 0.249653 -0.022228 0
M  V30 15 C -1.568293 -0.193573 0.148180 0 CFG=2
M  V30 16 C -2.274500 0.422921 1.334036 0
M  V30 17 C -1.818645 0.236246 2.648058 0
M  V30 18 C -2.495878 0.809380 3.726474 0
M  V30 19 C -3.637551 1.575716 3.506825 0
M  V30 20 C -4.102283 1.770882 2.208564 0
M  V30 21 C -3.425531 1.199046 1.129243 0
M  V30 22 H -2.432845 -4.088501 0.856383 0
M  V30 23 H -3.551018 -2.168688 0.589396 0
M  V30 24 H -3.124678 -2.181042 -1.127421 0
M  V30 25 H -1.089755 -2.070104 1.169622 0
M  V30 26 H -0.778138 -2.060434 -1.860906 0
M  V30 27 H 0.149203 -2.952149 -0.624594 0
M  V30 28 H 4.544296 1.993010 -3.068950 0
M  V30 29 H 4.924945 3.461840 -1.082039 0
M  V30 30 H 4.179383 2.211355 0.007620 0
M  V30 31 H 6.695971 1.805609 -1.773694 0
M  V30 32 H 5.952920 0.563073 -0.671460 0
M  V30 33 H 0.407052 0.407714 0.935518 0
M  V30 34 H -0.058315 1.185239 -0.593155 0
M  V30 35 H -2.102991 0.084538 -0.772241 0
M  V30 36 H -0.928016 -0.356095 2.848765 0
M  V30 37 H -2.130183 0.658157 4.738952 0
M  V30 38 H -4.164026 2.021902 4.346455 0
M  V30 39 H -4.992883 2.370137 2.034902 0
M  V30 40 H -3.808520 1.366813 0.124402 0
M  V30 END ATOM
M  V30 BEGIN BOND
M  V30 1 1 1 2
M  V30 2 1 2 3
M  V30 3 1 3 4
M  V30 4 1 4 5
M  V30 5 1 5 6
M  V30 6 2 6 7
M  V30 7 1 7 8
M  V30 8 1 8 9
M  V30 9 1 9 10
M  V30 10 1 10 11
M  V30 11 1 11 12
M  V30 12 2 9 13
M  V30 13 1 5 14
M  V30 14 1 14 15
M  V30 15 1 15 16
M  V30 16 2 16 17
M  V30 17 1 17 18
M  V30 18 2 18 19
M  V30 19 1 19 20
M  V30 20 2 20 21
M  V30 21 1 15 3
M  V30 22 1 21 16
M  V30 23 1 13 6
M  V30 24 1 12 10
M  V30 25 1 1 22
M  V30 26 1 2 23
M  V30 27 1 2 24
M  V30 28 1 3 25 CFG=1
M  V30 29 1 4 26
M  V30 30 1 4 27
M  V30 31 1 10 28
M  V30 32 1 11 29
M  V30 33 1 11 30
M  V30 34 1 12 31
M  V30 35 1 12 32
M  V30 36 1 14 33
M  V30 37 1 14 34
M  V30 38 1 15 35 CFG=3
M  V30 39 1 17 36
M  V30 40 1 18 37
M  V30 41 1 19 38
M  V30 42 1 20 39
M  V30 43 1 21 40
M  V30 END BOND
M  V30 BEGIN COLLECTION
M  V30 MDLV30/STERAC1 ATOMS=(2 3 15)
M  V30 END COLLECTION
M  V30 END CTAB
M  END
>  <_CXSMILES_Data>  (685) 
|&1:2,14|

$$$$
OCNT-2312996
     RDKit          3D

 39 40  0  0  0  0  0  0  0  0999 V2000
   -1.3982    1.1589    1.2648 O   0  0  0  0  0  0  0  0  0  0  0  0
   -1.8876    1.4153    0.1692 C   0  0  0  0  0  0  0  0  0  0  0  0
   -3.3701    1.6759   -0.0293 C   0  0  0  0  0  0  0  0  0  0  0  0
   -4.2195    0.4939    0.3712 C   0  0  0  0  0  0  0  0  0  0  0  0
   -4.9220    0.4843    1.5819 C   0  0  0  0  0  0  0  0  0  0  0  0
   -5.6866   -0.6281    1.9391 C   0  0  0  0  0  0  0  0  0  0  0  0
   -5.7470   -1.7354    1.0904 C   0  0  0  0  0  0  0  0  0  0  0  0
   -6.7832   -3.2356    1.5818 Br  0  0  0  0  0  0  0  0  0  0  0  0
   -5.0479   -1.7433   -0.1105 C   0  0  0  0  0  0  0  0  0  0  0  0
   -4.2903   -0.6307   -0.4565 C   0  0  0  0  0  0  0  0  0  0  0  0
   -3.6185   -0.6453   -1.6140 F   0  0  0  0  0  0  0  0  0  0  0  0
   -1.1463    1.4847   -0.9913 N   0  0  0  0  0  0  0  0  0  0  0  0
    0.2847    1.2350   -0.9998 C   0  0  0  0  0  0  0  0  0  0  0  0
    0.5904   -0.2581   -1.0974 C   0  0  0  0  0  0  0  0  0  0  0  0
    2.0945   -0.5313   -1.1919 C   0  0  0  0  0  0  0  0  0  0  0  0
    2.7458   -0.1328    0.0533 N   0  0  0  0  0  0  0  0  0  0  0  0
    4.1420   -0.2801    0.0615 C   0  0  0  0  0  0  0  0  0  0  0  0
    4.8161    0.0133    1.2487 C   0  0  0  0  0  0  0  0  0  0  0  0
    6.2045   -0.0796    1.2888 C   0  0  0  0  0  0  0  0  0  0  0  0
    6.8928   -0.4495    0.1371 C   0  0  0  0  0  0  0  0  0  0  0  0
    6.1549   -0.7121   -1.0030 C   0  0  0  0  0  0  0  0  0  0  0  0
    4.8070   -0.6323   -1.0630 N   0  0  0  0  0  0  0  0  0  0  0  0
   -3.6330    2.5679    0.5562 H   0  0  0  0  0  0  0  0  0  0  0  0
   -3.5830    1.9284   -1.0762 H   0  0  0  0  0  0  0  0  0  0  0  0
   -4.8684    1.3308    2.2562 H   0  0  0  0  0  0  0  0  0  0  0  0
   -6.2289   -0.6262    2.8873 H   0  0  0  0  0  0  0  0  0  0  0  0
   -5.0794   -2.5947   -0.7799 H   0  0  0  0  0  0  0  0  0  0  0  0
   -1.6271    1.5319   -1.8834 H   0  0  0  0  0  0  0  0  0  0  0  0
    0.7193    1.6654   -0.0891 H   0  0  0  0  0  0  0  0  0  0  0  0
    0.6988    1.7734   -1.8578 H   0  0  0  0  0  0  0  0  0  0  0  0
    0.1631   -0.7827   -0.2335 H   0  0  0  0  0  0  0  0  0  0  0  0
    0.0986   -0.6726   -1.9876 H   0  0  0  0  0  0  0  0  0  0  0  0
    2.5101    0.0196   -2.0503 H   0  0  0  0  0  0  0  0  0  0  0  0
    2.2447   -1.6075   -1.3688 H   0  0  0  0  0  0  0  0  0  0  0  0
    2.3562   -0.6166    0.8603 H   0  0  0  0  0  0  0  0  0  0  0  0
    4.2637    0.3216    2.1353 H   0  0  0  0  0  0  0  0  0  0  0  0
    6.7347    0.1413    2.2069 H   0  0  0  0  0  0  0  0  0  0  0  0
    7.9734   -0.5272    0.1266 H   0  0  0  0  0  0  0  0  0  0  0  0
    6.6415   -1.0032   -1.9335 H   0  0  0  0  0  0  0  0  0  0  0  0
  1  2  2  0
  2  3  1  0
  3  4  1  0
  4  5  1  0
  5  6  2  0
  6  7  1  0
  7  8  1  0
  7  9  2  0
  9 10  1  0
 10 11  1  0
  2 12  1  0
 12 13  1  0
 13 14  1  0
 14 15  1  0
 15 16  1  0
 16 17  1  0
 17 18  2  0
 18 19  1  0
 19 20  2  0
 20 21  1  0
 21 22  2  0
 10  4  2  0
 22 17  1  0
  3 23  1  0
  3 24  1  0
  5 25  1  0
  6 26  1  0
  9 27  1  0
 12 28  1  0
 13 29  1  0
 13 30  1  0
 14 31  1  0
 14 32  1  0
 15 33  1  0
 15 34  1  0
 16 35  1  0
 18 36  1  0
 19 37  1  0
 20 38  1  0
 21 39  1  0
M  END
$$$$
OCNT-2313019
     RDKit          3D

 33 36  0  0  0  0  0  0  0  0999 V2000
    0.6134    2.9368    0.4236 O   0  0  0  0  0  0  0  0  0  0  0  0
   -0.0038    1.9688   -0.0105 C   0  0  0  0  0  0  0  0  0  0  0  0
   -1.3457    1.6318    0.3930 C   0  0  0  0  0  0  0  0  0  0  0  0
   -1.9497    0.5285   -0.1584 C   0  0  0  0  0  0  0  0  0  0  0  0
   -1.4448   -0.3319   -1.0769 N   0  0  0  0  0  0  0  0  0  0  0  0
   -0.2319   -0.0207   -1.4295 C   0  0  0  0  0  0  0  0  0  0  0  0
    0.5082    1.0655   -0.9589 N   0  0  0  0  0  0  0  0  0  0  0  0
    1.8622    1.2689   -1.4454 C   0  0  0  0  0  0  0  0  0  0  0  0
    2.8667    0.4416   -0.6751 C   0  0  0  0  0  0  0  0  0  0  0  0
    3.3433    0.8817    0.5696 C   0  0  0  0  0  0  0  0  0  0  0  0
    4.2537    0.1114    1.2962 C   0  0  0  0  0  0  0  0  0  0  0  0
    4.6971   -1.1091    0.7892 C   0  0  0  0  0  0  0  0  0  0  0  0
    4.2273   -1.5544   -0.4437 C   0  0  0  0  0  0  0  0  0  0  0  0
    4.7703   -3.0614   -1.0722 Cl  0  0  0  0  0  0  0  0  0  0  0  0
    3.3171   -0.7897   -1.1753 C   0  0  0  0  0  0  0  0  0  0  0  0
   -3.1761    0.5129    0.4474 N   0  0  0  0  0  0  0  0  0  0  0  0
   -4.2412   -0.4747    0.1873 C   0  0  0  0  0  0  0  0  0  0  0  0
   -4.1327   -1.9103    0.6464 C   0  0  0  0  0  0  0  0  0  0  0  0
   -5.1427   -1.0010    1.2802 C   0  0  0  0  0  0  0  0  0  0  0  0
   -3.3203    1.5550    1.2935 N   0  0  0  0  0  0  0  0  0  0  0  0
   -2.1824    2.2506    1.2732 N   0  0  0  0  0  0  0  0  0  0  0  0
    0.2979   -0.6432   -2.1690 H   0  0  0  0  0  0  0  0  0  0  0  0
    2.1385    2.3284   -1.3873 H   0  0  0  0  0  0  0  0  0  0  0  0
    1.8992    0.9962   -2.5077 H   0  0  0  0  0  0  0  0  0  0  0  0
    3.0076    1.8321    0.9850 H   0  0  0  0  0  0  0  0  0  0  0  0
    4.6151    0.4642    2.2595 H   0  0  0  0  0  0  0  0  0  0  0  0
    5.4049   -1.7053    1.3588 H   0  0  0  0  0  0  0  0  0  0  0  0
    2.9643   -1.1579   -2.1357 H   0  0  0  0  0  0  0  0  0  0  0  0
   -4.7037   -0.3070   -0.7806 H   0  0  0  0  0  0  0  0  0  0  0  0
   -4.4887   -2.6824   -0.0259 H   0  0  0  0  0  0  0  0  0  0  0  0
   -3.2696   -2.2000    1.2355 H   0  0  0  0  0  0  0  0  0  0  0  0
   -6.1892   -1.1523    1.0422 H   0  0  0  0  0  0  0  0  0  0  0  0
   -4.9644   -0.6728    2.2987 H   0  0  0  0  0  0  0  0  0  0  0  0
  1  2  2  0
  2  3  1  0
  3  4  2  0
  4  5  1  0
  5  6  2  0
  6  7  1  0
  7  8  1  0
  8  9  1  0
  9 10  2  0
 10 11  1  0
 11 12  2  0
 12 13  1  0
 13 14  1  0
 13 15  2  0
  4 16  1  0
 16 17  1  0
 17 18  1  0
 18 19  1  0
 16 20  1  0
 20 21  2  0
  7  2  1  0
 15  9  1  0
 19 17  1  0
 21  3  1  0
  6 22  1  0
  8 23  1  0
  8 24  1  0
 10 25  1  0
 11 26  1  0
 12 27  1  0
 15 28  1  0
 17 29  1  0
 18 30  1  0
 18 31  1  0
 19 32  1  0
 19 33  1  0
M  END
$$$$
OCNT-2313023
     RDKit          3D

 48 50  0  0  0  0  0  0  0  0999 V2000
   -3.5777    1.9924   -0.9269 C   0  0  0  0  0  0  0  0  0  0  0  0
   -4.2503    0.6341   -1.0217 C   0  0  0  0  0  0  0  0  0  0  0  0
   -3.3298   -0.3396   -0.5189 O   0  0  0  0  0  0  0  0  0  0  0  0
   -3.8232   -1.6317   -0.5131 C   0  0  0  0  0  0  0  0  0  0  0  0
   -5.0560   -1.8382   -1.0409 N   0  0  0  0  0  0  0  0  0  0  0  0
   -5.5301   -3.1020   -1.0353 C   0  0  0  0  0  0  0  0  0  0  0  0
   -4.8293   -4.1790   -0.5272 C   0  0  0  0  0  0  0  0  0  0  0  0
   -3.5647   -3.9460    0.0072 C   0  0  0  0  0  0  0  0  0  0  0  0
   -3.0303   -2.6485    0.0233 C   0  0  0  0  0  0  0  0  0  0  0  0
   -1.6661   -2.4635    0.6118 C   0  0  0  0  0  0  0  0  0  0  0  0
   -1.0817   -3.4507    1.0505 O   0  0  0  0  0  0  0  0  0  0  0  0
   -1.1448   -1.1897    0.6204 N   0  0  0  0  0  0  0  0  0  0  0  0
    0.0909   -0.7032    1.1136 C   0  0  0  0  0  0  0  0  0  0  0  0
    0.2909    0.6756    0.9215 C   0  0  0  0  0  0  0  0  0  0  0  0
    1.4663    1.3014    1.3566 C   0  0  0  0  0  0  0  0  0  0  0  0
    1.6698    3.0483    1.0969 S   0  0  0  0  0  0  0  0  0  0  0  0
    0.3456    3.6229    0.9755 O   0  0  0  0  0  0  0  0  0  0  0  0
    2.6164    3.5434    2.0719 O   0  0  0  0  0  0  0  0  0  0  0  0
    2.3504    3.1250   -0.4465 N   0  0  0  0  0  0  0  0  0  0  0  0
    3.5427    2.4026   -0.7296 C   0  0  0  0  0  0  0  0  0  0  0  0
    4.7362    2.7043   -0.0718 C   0  0  0  0  0  0  0  0  0  0  0  0
    5.8896    1.9647   -0.3392 C   0  0  0  0  0  0  0  0  0  0  0  0
    5.8491    0.9241   -1.2667 C   0  0  0  0  0  0  0  0  0  0  0  0
    4.6553    0.6309   -1.9241 C   0  0  0  0  0  0  0  0  0  0  0  0
    4.6049   -0.6521   -3.0697 Cl  0  0  0  0  0  0  0  0  0  0  0  0
    3.4997    1.3659   -1.6617 C   0  0  0  0  0  0  0  0  0  0  0  0
    2.4520    0.5780    2.0211 C   0  0  0  0  0  0  0  0  0  0  0  0
    2.2685   -0.7882    2.2112 C   0  0  0  0  0  0  0  0  0  0  0  0
    1.1051   -1.4264    1.7602 C   0  0  0  0  0  0  0  0  0  0  0  0
    1.0832   -2.7639    2.0256 O   0  0  0  0  0  0  0  0  0  0  0  0
   -2.6505    2.0046   -1.5095 H   0  0  0  0  0  0  0  0  0  0  0  0
   -3.3043    2.2155    0.1098 H   0  0  0  0  0  0  0  0  0  0  0  0
   -4.2382    2.7817   -1.2965 H   0  0  0  0  0  0  0  0  0  0  0  0
   -4.4915    0.4261   -2.0709 H   0  0  0  0  0  0  0  0  0  0  0  0
   -5.1652    0.6448   -0.4174 H   0  0  0  0  0  0  0  0  0  0  0  0
   -6.5206   -3.2294   -1.4641 H   0  0  0  0  0  0  0  0  0  0  0  0
   -5.2531   -5.1775   -0.5451 H   0  0  0  0  0  0  0  0  0  0  0  0
   -2.9976   -4.7825    0.4118 H   0  0  0  0  0  0  0  0  0  0  0  0
   -1.7490   -0.4798    0.2142 H   0  0  0  0  0  0  0  0  0  0  0  0
   -0.4736    1.2762    0.4322 H   0  0  0  0  0  0  0  0  0  0  0  0
    1.6446    3.1976   -1.1772 H   0  0  0  0  0  0  0  0  0  0  0  0
    4.7823    3.5201    0.6468 H   0  0  0  0  0  0  0  0  0  0  0  0
    6.8179    2.2021    0.1751 H   0  0  0  0  0  0  0  0  0  0  0  0
    6.7482    0.3485   -1.4725 H   0  0  0  0  0  0  0  0  0  0  0  0
    2.5762    1.1182   -2.1756 H   0  0  0  0  0  0  0  0  0  0  0  0
    3.3570    1.0582    2.3852 H   0  0  0  0  0  0  0  0  0  0  0  0
    3.0334   -1.3714    2.7200 H   0  0  0  0  0  0  0  0  0  0  0  0
    0.2514   -3.1438    1.6726 H   0  0  0  0  0  0  0  0  0  0  0  0
  1  2  1  0
  2  3  1  0
  3  4  1  0
  4  5  1  0
  5  6  2  0
  6  7  1  0
  7  8  2  0
  8  9  1  0
  9 10  1  0
 10 11  2  0
 10 12  1  0
 12 13  1  0
 13 14  1  0
 14 15  2  0
 15 16  1  0
 16 17  2  0
 16 18  2  0
 16 19  1  0
 19 20  1  0
 20 21  2  0
 21 22  1  0
 22 23  2  0
 23 24  1  0
 24 25  1  0
 24 26  2  0
 15 27  1  0
 27 28  2  0
 28 29  1  0
 29 30  1  0
  9  4  2  0
 29 13  2  0
 26 20  1  0
  1 31  1  0
  1 32  1  0
  1 33  1  0
  2 34  1  0
  2 35  1  0
  6 36  1  0
  7 37  1  0
  8 38  1  0
 12 39  1  0
 14 40  1  0
 19 41  1  0
 21 42  1  0
 22 43  1  0
 23 44  1  0
 26 45  1  0
 27 46  1  0
 28 47  1  0
 30 48  1  0
M  END
$$$$
OCNT-2313024
     RDKit          3D

 51 56  0  0  0  0  0  0  0  0999 V2000
   -2.7958   -1.6472    0.3729 C   0  0  0  0  0  0  0  0  0  0  0  0
   -2.7177   -0.4303   -0.4695 C   0  0  0  0  0  0  0  0  0  0  0  0
   -1.6151    0.2161   -0.9974 C   0  0  0  0  0  0  0  0  0  0  0  0
   -0.1183   -0.0945   -0.6903 C   0  0  0  0  0  0  0  0  0  0  0  0
    0.8962    0.5363   -1.2435 N   0  0  0  0  0  0  0  0  0  0  0  0
    1.9934   -0.0650   -0.6706 C   0  0  0  0  0  0  0  0  0  0  0  0
    3.3587    0.3331   -0.9997 C   0  0  0  0  0  0  0  0  0  0  0  0
    3.5899    1.3650   -1.9194 C   0  0  0  0  0  0  0  0  0  0  0  0
    4.8916    1.7553   -2.2388 C   0  0  0  0  0  0  0  0  0  0  0  0
    5.9797    1.1177   -1.6438 C   0  0  0  0  0  0  0  0  0  0  0  0
    5.7781    0.0795   -0.7243 C   0  0  0  0  0  0  0  0  0  0  0  0
    6.9507   -0.6063   -0.0708 C   0  0  0  0  0  0  0  0  0  0  0  0
    7.2052   -0.0798    1.2576 N   0  0  0  0  0  0  0  0  0  0  0  0
    6.8145   -0.6390    2.4434 C   0  0  0  0  0  0  0  0  0  0  0  0
    7.3344    0.1877    3.4122 C   0  0  0  0  0  0  0  0  0  0  0  0
    8.0381    1.2195    2.8462 N   0  0  0  0  0  0  0  0  0  0  0  0
    7.9406    1.0343    1.5488 C   0  0  0  0  0  0  0  0  0  0  0  0
    4.4623   -0.3016   -0.4069 C   0  0  0  0  0  0  0  0  0  0  0  0
    1.6841   -1.0399    0.1991 N   0  0  0  0  0  0  0  0  0  0  0  0
    0.2928   -1.0574    0.1922 O   0  0  0  0  0  0  0  0  0  0  0  0
   -2.0134    1.1645   -1.8883 N   0  0  0  0  0  0  0  0  0  0  0  0
   -3.3351    1.1401   -1.9406 N   0  0  0  0  0  0  0  0  0  0  0  0
   -3.7967    0.2819   -0.9865 N   0  0  0  0  0  0  0  0  0  0  0  0
   -5.1948    0.2080   -0.7421 C   0  0  0  0  0  0  0  0  0  0  0  0
   -6.0528    0.4911   -1.8270 C   0  0  0  0  0  0  0  0  0  0  0  0
   -7.4309    0.4137   -1.6754 C   0  0  0  0  0  0  0  0  0  0  0  0
   -7.9610    0.0791   -0.4371 C   0  0  0  0  0  0  0  0  0  0  0  0
   -7.1175   -0.1527    0.6610 C   0  0  0  0  0  0  0  0  0  0  0  0
   -7.6720   -0.4349    1.9169 C   0  0  0  0  0  0  0  0  0  0  0  0
   -6.8492   -0.6106    3.0188 C   0  0  0  0  0  0  0  0  0  0  0  0
   -5.4916   -0.4943    2.8246 C   0  0  0  0  0  0  0  0  0  0  0  0
   -4.9240   -0.2370    1.6248 N   0  0  0  0  0  0  0  0  0  0  0  0
   -5.7079   -0.0825    0.5322 C   0  0  0  0  0  0  0  0  0  0  0  0
   -3.7569   -2.1604    0.2796 H   0  0  0  0  0  0  0  0  0  0  0  0
   -2.0377   -2.3733    0.0591 H   0  0  0  0  0  0  0  0  0  0  0  0
   -2.6061   -1.4095    1.4235 H   0  0  0  0  0  0  0  0  0  0  0  0
    2.7534    1.8771   -2.3929 H   0  0  0  0  0  0  0  0  0  0  0  0
    5.0541    2.5609   -2.9509 H   0  0  0  0  0  0  0  0  0  0  0  0
    6.9855    1.4417   -1.9040 H   0  0  0  0  0  0  0  0  0  0  0  0
    7.8663   -0.4811   -0.6611 H   0  0  0  0  0  0  0  0  0  0  0  0
    6.7692   -1.6842    0.0149 H   0  0  0  0  0  0  0  0  0  0  0  0
    6.2196   -1.5396    2.5021 H   0  0  0  0  0  0  0  0  0  0  0  0
    7.2432    0.0927    4.4865 H   0  0  0  0  0  0  0  0  0  0  0  0
    8.3783    1.6686    0.7889 H   0  0  0  0  0  0  0  0  0  0  0  0
    4.2986   -1.1006    0.3156 H   0  0  0  0  0  0  0  0  0  0  0  0
   -5.6524    0.7467   -2.8077 H   0  0  0  0  0  0  0  0  0  0  0  0
   -8.0869    0.6140   -2.5190 H   0  0  0  0  0  0  0  0  0  0  0  0
   -9.0424    0.0246   -0.3265 H   0  0  0  0  0  0  0  0  0  0  0  0
   -8.7497   -0.5019    2.0467 H   0  0  0  0  0  0  0  0  0  0  0  0
   -7.2579   -0.8189    4.0007 H   0  0  0  0  0  0  0  0  0  0  0  0
   -4.7951   -0.6069    3.6509 H   0  0  0  0  0  0  0  0  0  0  0  0
  1  2  1  0
  2  3  2  0
  3  4  1  0
  4  5  2  0
  5  6  1  0
  6  7  1  0
  7  8  1  0
  8  9  2  0
  9 10  1  0
 10 11  2  0
 11 12  1  0
 12 13  1  0
 13 14  1  0
 14 15  2  0
 15 16  1  0
 16 17  2  0
 11 18  1  0
  6 19  2  0
 19 20  1  0
  3 21  1  0
 21 22  2  0
 22 23  1  0
 23 24  1  0
 24 25  1  0
 25 26  2  0
 26 27  1  0
 27 28  2  0
 28 29  1  0
 29 30  2  0
 30 31  1  0
 31 32  2  0
 32 33  1  0
 23  2  1  0
 33 24  2  0
 20  4  1  0
 33 28  1  0
 18  7  2  0
 17 13  1  0
  1 34  1  0
  1 35  1  0
  1 36  1  0
  8 37  1  0
  9 38  1  0
 10 39  1  0
 12 40  1  0
 12 41  1  0
 14 42  1  0
 15 43  1  0
 17 44  1  0
 18 45  1  0
 25 46  1  0
 26 47  1  0
 27 48  1  0
 29 49  1  0
 30 50  1  0
 31 51  1  0
M  END
$$$$
OCNT-2313032
     RDKit          3D

 38 40  0  0  0  0  0  0  0  0999 V2000
    4.9136    1.3586   -0.0445 C   0  0  0  0  0  0  0  0  0  0  0  0
    3.5747    0.7409    0.2454 C   0  0  0  0  0  0  0  0  0  0  0  0
    2.4354    1.5546    0.2716 C   0  0  0  0  0  0  0  0  0  0  0  0
    1.1688    1.0161    0.5333 C   0  0  0  0  0  0  0  0  0  0  0  0
    0.9885   -0.3540    0.7359 C   0  0  0  0  0  0  0  0  0  0  0  0
   -0.2351   -0.9449    1.0502 N   0  0  0  0  0  0  0  0  0  0  0  0
   -1.5117   -0.2647    0.8201 C   0  0  0  0  0  0  0  0  0  0  0  0
   -2.0205   -0.1920   -0.5849 C   0  0  0  0  0  0  0  0  0  0  0  0
   -1.3278   -0.4345   -1.7579 C   0  0  0  0  0  0  0  0  0  0  0  0
   -2.2171   -0.2855   -2.7772 N   0  0  0  0  0  0  0  0  0  0  0  0
   -3.4530    0.0216   -2.3639 N   0  0  0  0  0  0  0  0  0  0  0  0
   -3.3383    0.1114   -1.0331 C   0  0  0  0  0  0  0  0  0  0  0  0
   -4.4969    0.4417   -0.1920 C   0  0  0  0  0  0  0  0  0  0  0  0
   -5.7805   -0.0017   -0.4379 C   0  0  0  0  0  0  0  0  0  0  0  0
   -6.8979    0.5581    0.7299 S   0  0  0  0  0  0  0  0  0  0  0  0
   -5.6803    1.4357    1.5503 C   0  0  0  0  0  0  0  0  0  0  0  0
   -4.4462    1.2962    0.9505 C   0  0  0  0  0  0  0  0  0  0  0  0
    2.1344   -1.1609    0.7405 C   0  0  0  0  0  0  0  0  0  0  0  0
    3.4142   -0.6317    0.4919 C   0  0  0  0  0  0  0  0  0  0  0  0
    4.5771   -1.5596    0.4844 C   0  0  0  0  0  0  0  0  0  0  0  0
    4.5971   -2.5108    1.4680 N   0  0  0  0  0  0  0  0  0  0  0  0
    5.4825   -1.4764   -0.3330 O   0  0  0  0  0  0  0  0  0  0  0  0
    4.8635    2.4523   -0.0072 H   0  0  0  0  0  0  0  0  0  0  0  0
    5.2541    1.0750   -1.0450 H   0  0  0  0  0  0  0  0  0  0  0  0
    5.6535    1.0497    0.7009 H   0  0  0  0  0  0  0  0  0  0  0  0
    2.5215    2.6252    0.0947 H   0  0  0  0  0  0  0  0  0  0  0  0
    0.3289    1.7038    0.5552 H   0  0  0  0  0  0  0  0  0  0  0  0
   -0.2801   -1.9194    0.7637 H   0  0  0  0  0  0  0  0  0  0  0  0
   -1.4887    0.7373    1.2619 H   0  0  0  0  0  0  0  0  0  0  0  0
   -2.2537   -0.8204    1.4082 H   0  0  0  0  0  0  0  0  0  0  0  0
   -0.2973   -0.7007   -1.9479 H   0  0  0  0  0  0  0  0  0  0  0  0
   -2.0535   -0.3885   -3.7737 H   0  0  0  0  0  0  0  0  0  0  0  0
   -6.1121   -0.6358   -1.2495 H   0  0  0  0  0  0  0  0  0  0  0  0
   -5.9303    2.0204    2.4250 H   0  0  0  0  0  0  0  0  0  0  0  0
   -3.5651    1.8062    1.3164 H   0  0  0  0  0  0  0  0  0  0  0  0
    2.0262   -2.2287    0.9174 H   0  0  0  0  0  0  0  0  0  0  0  0
    4.0055   -2.4396    2.2846 H   0  0  0  0  0  0  0  0  0  0  0  0
    5.4468   -3.0548    1.5464 H   0  0  0  0  0  0  0  0  0  0  0  0
  1  2  1  0
  2  3  1  0
  3  4  2  0
  4  5  1  0
  5  6  1  0
  6  7  1  0
  7  8  1  0
  8  9  2  0
  9 10  1  0
 10 11  1  0
 11 12  2  0
 12 13  1  0
 13 14  2  0
 14 15  1  0
 15 16  1  0
 16 17  2  0
  5 18  2  0
 18 19  1  0
 19 20  1  0
 20 21  1  0
 20 22  2  0
 19  2  2  0
 12  8  1  0
 17 13  1  0
  1 23  1  0
  1 24  1  0
  1 25  1  0
  3 26  1  0
  4 27  1  0
  6 28  1  0
  7 29  1  0
  7 30  1  0
  9 31  1  0
 10 32  1  0
 14 33  1  0
 16 34  1  0
 17 35  1  0
 18 36  1  0
 21 37  1  0
 21 38  1  0
M  END
$$$$
OCNT-2313035
     RDKit          3D

 40 42  0  0  0  0  0  0  0  0999 V2000
   -3.2383   -0.0697    1.7085 C   0  0  0  0  0  0  0  0  0  0  0  0
   -3.5532    0.6500    0.4198 C   0  0  0  0  0  0  0  0  0  0  0  0
   -4.8662    1.0983    0.1629 C   0  0  0  0  0  0  0  0  0  0  0  0
   -6.1723    0.7905    1.2576 Cl  0  0  0  0  0  0  0  0  0  0  0  0
   -5.1709    1.8079   -0.9992 C   0  0  0  0  0  0  0  0  0  0  0  0
   -4.1745    2.0720   -1.9281 C   0  0  0  0  0  0  0  0  0  0  0  0
   -2.8780    1.6075   -1.7037 C   0  0  0  0  0  0  0  0  0  0  0  0
   -2.5410    0.8776   -0.5488 C   0  0  0  0  0  0  0  0  0  0  0  0
   -1.2498    0.3674   -0.3666 N   0  0  0  0  0  0  0  0  0  0  0  0
   -1.1361   -1.1051   -0.4802 C   0  0  0  0  0  0  0  0  0  0  0  0
    0.0415   -1.5256   -1.3912 C   0  0  0  0  0  0  0  0  0  0  0  0
    1.3601   -0.9445   -1.0531 N   0  0  0  0  0  0  0  0  0  0  0  0
    2.1318   -1.8396   -0.1642 C   0  0  0  0  0  0  0  0  0  0  0  0
    3.5537   -1.3985   -0.0152 C   0  0  0  0  0  0  0  0  0  0  0  0
    3.9952   -0.6037    0.9768 N   0  0  0  0  0  0  0  0  0  0  0  0
    5.2981   -0.5333    0.6462 N   0  0  0  0  0  0  0  0  0  0  0  0
    6.2495    0.2083    1.4272 C   0  0  0  0  0  0  0  0  0  0  0  0
    5.6702   -1.2492   -0.4260 N   0  0  0  0  0  0  0  0  0  0  0  0
    4.5500   -1.8059   -0.8659 N   0  0  0  0  0  0  0  0  0  0  0  0
    1.2110    0.4088   -0.4564 C   0  0  0  0  0  0  0  0  0  0  0  0
   -0.0921    1.1275   -0.8731 C   0  0  0  0  0  0  0  0  0  0  0  0
   -2.1825    0.0226    1.9816 H   0  0  0  0  0  0  0  0  0  0  0  0
   -3.7882    0.3592    2.5522 H   0  0  0  0  0  0  0  0  0  0  0  0
   -3.4899   -1.1308    1.6169 H   0  0  0  0  0  0  0  0  0  0  0  0
   -6.1838    2.1557   -1.1840 H   0  0  0  0  0  0  0  0  0  0  0  0
   -4.4051    2.6236   -2.8355 H   0  0  0  0  0  0  0  0  0  0  0  0
   -2.1369    1.8015   -2.4735 H   0  0  0  0  0  0  0  0  0  0  0  0
   -2.0560   -1.5524   -0.8786 H   0  0  0  0  0  0  0  0  0  0  0  0
   -0.9766   -1.5207    0.5217 H   0  0  0  0  0  0  0  0  0  0  0  0
    0.0919   -2.6202   -1.4434 H   0  0  0  0  0  0  0  0  0  0  0  0
   -0.1939   -1.2031   -2.4145 H   0  0  0  0  0  0  0  0  0  0  0  0
    1.6550   -1.9300    0.8201 H   0  0  0  0  0  0  0  0  0  0  0  0
    2.1569   -2.8482   -0.5966 H   0  0  0  0  0  0  0  0  0  0  0  0
    6.7178   -0.4778    2.1366 H   0  0  0  0  0  0  0  0  0  0  0  0
    6.9999    0.6377    0.7587 H   0  0  0  0  0  0  0  0  0  0  0  0
    5.7301    1.0090    1.9597 H   0  0  0  0  0  0  0  0  0  0  0  0
    1.2154    0.3528    0.6408 H   0  0  0  0  0  0  0  0  0  0  0  0
    2.0668    1.0223   -0.7600 H   0  0  0  0  0  0  0  0  0  0  0  0
   -0.0968    2.1357   -0.4423 H   0  0  0  0  0  0  0  0  0  0  0  0
   -0.1128    1.2223   -1.9653 H   0  0  0  0  0  0  0  0  0  0  0  0
  1  2  1  0
  2  3  2  0
  3  4  1  0
  3  5  1  0
  5  6  2  0
  6  7  1  0
  7  8  2  0
  8  9  1  0
  9 10  1  0
 10 11  1  0
 11 12  1  0
 12 13  1  0
 13 14  1  0
 14 15  2  0
 15 16  1  0
 16 17  1  0
 16 18  1  0
 18 19  2  0
 12 20  1  0
 20 21  1  0
  8  2  1  0
 21  9  1  0
 19 14  1  0
  1 22  1  0
  1 23  1  0
  1 24  1  0
  5 25  1  0
  6 26  1  0
  7 27  1  0
 10 28  1  0
 10 29  1  0
 11 30  1  0
 11 31  1  0
 13 32  1  0
 13 33  1  0
 17 34  1  0
 17 35  1  0
 17 36  1  0
 20 37  1  0
 20 38  1  0
 21 39  1  0
 21 40  1  0
M  END
$$$$
OCNT-2313041
     RDKit          3D

 41 43  0  0  0  0  0  0  0  0999 V2000
   -5.6813    2.0072   -0.7862 C   0  0  0  0  0  0  0  0  0  0  0  0
   -4.9269    0.8311   -0.3979 N   0  0  0  0  0  0  0  0  0  0  0  0
   -5.5868   -0.3469   -0.1474 C   0  0  0  0  0  0  0  0  0  0  0  0
   -4.9211   -1.4299    0.2612 C   0  0  0  0  0  0  0  0  0  0  0  0
   -3.5705   -1.4978    0.4547 N   0  0  0  0  0  0  0  0  0  0  0  0
   -2.8521   -0.4197    0.2433 C   0  0  0  0  0  0  0  0  0  0  0  0
   -1.4661   -0.4814    0.4144 N   0  0  0  0  0  0  0  0  0  0  0  0
   -0.5427    0.5583   -0.0556 C   0  0  0  0  0  0  0  0  0  0  0  0
    0.8794    0.0098   -0.2714 C   0  0  0  0  0  0  0  0  0  0  0  0
    1.4574   -0.5974    0.9740 N   0  0  0  0  0  0  0  0  0  0  0  0
    2.8037   -1.6175    0.7189 S   0  0  0  0  0  0  0  0  0  0  0  0
    2.3967   -2.6310   -0.2319 O   0  0  0  0  0  0  0  0  0  0  0  0
    3.3425   -1.9808    2.0120 O   0  0  0  0  0  0  0  0  0  0  0  0
    3.9748   -0.5383   -0.0616 C   0  0  0  0  0  0  0  0  0  0  0  0
    4.3297   -0.7362   -1.3987 C   0  0  0  0  0  0  0  0  0  0  0  0
    5.2521    0.1236   -1.9950 C   0  0  0  0  0  0  0  0  0  0  0  0
    5.8157    1.1664   -1.2562 C   0  0  0  0  0  0  0  0  0  0  0  0
    5.4638    1.3530    0.0820 C   0  0  0  0  0  0  0  0  0  0  0  0
    4.5425    0.4982    0.6859 C   0  0  0  0  0  0  0  0  0  0  0  0
    0.4078   -1.2129    1.8573 C   0  0  0  0  0  0  0  0  0  0  0  0
   -0.8457   -1.6382    1.0784 C   0  0  0  0  0  0  0  0  0  0  0  0
   -3.5533    0.9266   -0.1846 C   0  0  0  0  0  0  0  0  0  0  0  0
   -2.9098    1.9637   -0.2952 O   0  0  0  0  0  0  0  0  0  0  0  0
   -5.0247    2.7903   -1.1761 H   0  0  0  0  0  0  0  0  0  0  0  0
   -6.2073    2.3931    0.0926 H   0  0  0  0  0  0  0  0  0  0  0  0
   -6.4063    1.7412   -1.5620 H   0  0  0  0  0  0  0  0  0  0  0  0
   -6.6631   -0.3631   -0.2868 H   0  0  0  0  0  0  0  0  0  0  0  0
   -5.4646   -2.3512    0.4569 H   0  0  0  0  0  0  0  0  0  0  0  0
   -0.5173    1.3745    0.6755 H   0  0  0  0  0  0  0  0  0  0  0  0
   -0.8760    0.9571   -1.0196 H   0  0  0  0  0  0  0  0  0  0  0  0
    1.5253    0.8345   -0.5907 H   0  0  0  0  0  0  0  0  0  0  0  0
    0.8504   -0.7353   -1.0750 H   0  0  0  0  0  0  0  0  0  0  0  0
    3.9003   -1.5514   -1.9766 H   0  0  0  0  0  0  0  0  0  0  0  0
    5.5374   -0.0208   -3.0344 H   0  0  0  0  0  0  0  0  0  0  0  0
    6.5378    1.8322   -1.7236 H   0  0  0  0  0  0  0  0  0  0  0  0
    5.9123    2.1614    0.6543 H   0  0  0  0  0  0  0  0  0  0  0  0
    4.2719    0.6382    1.7303 H   0  0  0  0  0  0  0  0  0  0  0  0
    0.8034   -2.0762    2.4026 H   0  0  0  0  0  0  0  0  0  0  0  0
    0.1447   -0.4630    2.6141 H   0  0  0  0  0  0  0  0  0  0  0  0
   -1.5400   -2.0959    1.7923 H   0  0  0  0  0  0  0  0  0  0  0  0
   -0.5939   -2.3939    0.3254 H   0  0  0  0  0  0  0  0  0  0  0  0
  1  2  1  0
  2  3  1  0
  3  4  2  0
  4  5  1  0
  5  6  2  0
  6  7  1  0
  7  8  1  0
  8  9  1  0
  9 10  1  0
 10 11  1  0
 11 12  2  0
 11 13  2  0
 11 14  1  0
 14 15  2  0
 15 16  1  0
 16 17  2  0
 17 18  1  0
 18 19  2  0
 10 20  1  0
 20 21  1  0
  6 22  1  0
 22 23  2  0
 22  2  1  0
 21  7  1  0
 19 14  1  0
  1 24  1  0
  1 25  1  0
  1 26  1  0
  3 27  1  0
  4 28  1  0
  8 29  1  0
  8 30  1  0
  9 31  1  0
  9 32  1  0
 15 33  1  0
 16 34  1  0
 17 35  1  0
 18 36  1  0
 19 37  1  0
 20 38  1  0
 20 39  1  0
 21 40  1  0
 21 41  1  0
M  END
$$$$
OCNT-2313046
     RDKit          3D

 53 55  0  0  0  0  0  0  0  0999 V2000
   -6.6254   -1.0992   -3.2346 C   0  0  0  0  0  0  0  0  0  0  0  0
   -6.9508   -0.6260   -1.8263 C   0  0  0  0  0  0  0  0  0  0  0  0
   -5.7428   -0.6736   -0.9265 C   0  0  0  0  0  0  0  0  0  0  0  0
   -4.8645    0.4113   -0.8593 C   0  0  0  0  0  0  0  0  0  0  0  0
   -3.7336    0.3567   -0.0381 C   0  0  0  0  0  0  0  0  0  0  0  0
   -3.4424   -0.7809    0.7343 C   0  0  0  0  0  0  0  0  0  0  0  0
   -2.2283   -0.7744    1.5777 C   0  0  0  0  0  0  0  0  0  0  0  0
   -1.4331    0.2722    1.7096 N   0  0  0  0  0  0  0  0  0  0  0  0
   -0.3557   -0.0125    2.5381 C   0  0  0  0  0  0  0  0  0  0  0  0
    0.6684    1.0548    2.8111 C   0  0  0  0  0  0  0  0  0  0  0  0
    1.7314    1.1408    1.7970 N   0  0  0  0  0  0  0  0  0  0  0  0
    2.4945   -0.0828    1.6006 C   0  0  0  0  0  0  0  0  0  0  0  0
    3.8117    0.2422    0.8873 C   0  0  0  0  0  0  0  0  0  0  0  0
    3.6551    1.3335   -0.1862 C   0  0  0  0  0  0  0  0  0  0  0  0
    4.6638    1.1878   -1.2830 N   0  0  0  0  0  0  0  0  0  0  0  0
    6.0689    1.2735   -0.8312 C   0  0  0  0  0  0  0  0  0  0  0  0
    4.3911    0.3634   -2.7333 S   0  0  0  0  0  0  0  0  0  0  0  0
    4.2633   -1.3334   -2.2109 C   0  0  0  0  0  0  0  0  0  0  0  0
    3.1099    0.7519   -3.2790 O   0  0  0  0  0  0  0  0  0  0  0  0
    5.5920    0.4719   -3.5368 O   0  0  0  0  0  0  0  0  0  0  0  0
    2.2069    1.4441   -0.6477 C   0  0  0  0  0  0  0  0  0  0  0  0
    1.2816    1.7515    0.5387 C   0  0  0  0  0  0  0  0  0  0  0  0
   -0.3685   -1.2907    3.0617 C   0  0  0  0  0  0  0  0  0  0  0  0
   -1.7201   -2.1567    2.4762 S   0  0  0  0  0  0  0  0  0  0  0  0
   -4.3304   -1.8653    0.6550 C   0  0  0  0  0  0  0  0  0  0  0  0
   -5.4640   -1.8138   -0.1665 C   0  0  0  0  0  0  0  0  0  0  0  0
   -7.5172   -1.0463   -3.8669 H   0  0  0  0  0  0  0  0  0  0  0  0
   -5.8474   -0.4795   -3.6921 H   0  0  0  0  0  0  0  0  0  0  0  0
   -6.2714   -2.1356   -3.2325 H   0  0  0  0  0  0  0  0  0  0  0  0
   -7.3440    0.3974   -1.8600 H   0  0  0  0  0  0  0  0  0  0  0  0
   -7.7519   -1.2445   -1.4040 H   0  0  0  0  0  0  0  0  0  0  0  0
   -5.0498    1.3083   -1.4460 H   0  0  0  0  0  0  0  0  0  0  0  0
   -3.0685    1.2189   -0.0066 H   0  0  0  0  0  0  0  0  0  0  0  0
    1.1297    0.8701    3.7898 H   0  0  0  0  0  0  0  0  0  0  0  0
    0.1657    2.0257    2.9047 H   0  0  0  0  0  0  0  0  0  0  0  0
    2.7404   -0.5526    2.5609 H   0  0  0  0  0  0  0  0  0  0  0  0
    1.9266   -0.8200    1.0186 H   0  0  0  0  0  0  0  0  0  0  0  0
    4.5465    0.5877    1.6265 H   0  0  0  0  0  0  0  0  0  0  0  0
    4.2209   -0.6845    0.4730 H   0  0  0  0  0  0  0  0  0  0  0  0
    3.8860    2.2994    0.2894 H   0  0  0  0  0  0  0  0  0  0  0  0
    6.4574    0.2804   -0.5890 H   0  0  0  0  0  0  0  0  0  0  0  0
    6.1561    1.9040    0.0594 H   0  0  0  0  0  0  0  0  0  0  0  0
    6.6922    1.7357   -1.6020 H   0  0  0  0  0  0  0  0  0  0  0  0
    3.3732   -1.4576   -1.5932 H   0  0  0  0  0  0  0  0  0  0  0  0
    4.1700   -1.9498   -3.1086 H   0  0  0  0  0  0  0  0  0  0  0  0
    5.1684   -1.6139   -1.6707 H   0  0  0  0  0  0  0  0  0  0  0  0
    2.0937    2.2308   -1.4021 H   0  0  0  0  0  0  0  0  0  0  0  0
    1.8804    0.5013   -1.1021 H   0  0  0  0  0  0  0  0  0  0  0  0
    0.2732    1.4358    0.2528 H   0  0  0  0  0  0  0  0  0  0  0  0
    1.2418    2.8375    0.6865 H   0  0  0  0  0  0  0  0  0  0  0  0
    0.3412   -1.7455    3.7373 H   0  0  0  0  0  0  0  0  0  0  0  0
   -4.1650   -2.7743    1.2272 H   0  0  0  0  0  0  0  0  0  0  0  0
   -6.1274   -2.6752   -0.2075 H   0  0  0  0  0  0  0  0  0  0  0  0
  1  2  1  0
  2  3  1  0
  3  4  1  0
  4  5  2  0
  5  6  1  0
  6  7  1  0
  7  8  2  0
  8  9  1  0
  9 10  1  0
 10 11  1  0
 11 12  1  0
 12 13  1  0
 13 14  1  0
 14 15  1  0
 15 16  1  0
 15 17  1  0
 17 18  1  0
 17 19  2  0
 17 20  2  0
 14 21  1  0
 21 22  1  0
  9 23  2  0
 23 24  1  0
  6 25  2  0
 25 26  1  0
 26  3  2  0
 24  7  1  0
 22 11  1  0
  1 27  1  0
  1 28  1  0
  1 29  1  0
  2 30  1  0
  2 31  1  0
  4 32  1  0
  5 33  1  0
 10 34  1  0
 10 35  1  0
 12 36  1  0
 12 37  1  0
 13 38  1  0
 13 39  1  0
 14 40  1  0
 16 41  1  0
 16 42  1  0
 16 43  1  0
 18 44  1  0
 18 45  1  0
 18 46  1  0
 21 47  1  0
 21 48  1  0
 22 49  1  0
 22 50  1  0
 23 51  1  0
 25 52  1  0
 26 53  1  0
M  END
$$$$
OCNT-2313053
     RDKit          3D

 56 59  0  0  0  0  0  0  0  0999 V2000
    3.9946   -0.6482   -1.5235 O   0  0  0  0  0  0  0  0  0  0  0  0
    3.2124    0.1992   -0.6536 C   0  0  0  0  0  0  0  0  0  0  0  0
    1.7430    0.1370   -1.1757 C   0  0  0  0  0  0  0  0  0  0  0  0
    1.2925   -1.2628   -1.3129 N   0  0  0  0  0  0  0  0  0  0  0  0
    0.1697   -1.4202   -2.2451 C   0  0  0  0  0  0  0  0  0  0  0  0
   -1.1122   -0.9264   -1.6581 C   0  0  0  0  0  0  0  0  0  0  0  0
   -1.5515    0.3860   -1.6065 C   0  0  0  0  0  0  0  0  0  0  0  0
   -2.7915    0.3612   -1.0396 N   0  0  0  0  0  0  0  0  0  0  0  0
   -3.6469    1.5100   -0.7624 C   0  0  0  0  0  0  0  0  0  0  0  0
   -3.1941    2.2541    0.4718 C   0  0  0  0  0  0  0  0  0  0  0  0
   -2.7217    3.5713    0.3775 C   0  0  0  0  0  0  0  0  0  0  0  0
   -2.3043    4.2568    1.5207 C   0  0  0  0  0  0  0  0  0  0  0  0
   -2.3628    3.6378    2.7695 C   0  0  0  0  0  0  0  0  0  0  0  0
   -2.8339    2.3313    2.8779 C   0  0  0  0  0  0  0  0  0  0  0  0
   -3.2470    1.6424    1.7352 C   0  0  0  0  0  0  0  0  0  0  0  0
   -3.2288   -0.8828   -0.7788 N   0  0  0  0  0  0  0  0  0  0  0  0
   -2.2013   -1.6838   -1.1102 C   0  0  0  0  0  0  0  0  0  0  0  0
   -2.3187   -3.1260   -0.9309 C   0  0  0  0  0  0  0  0  0  0  0  0
   -3.4662   -3.8107   -1.3517 C   0  0  0  0  0  0  0  0  0  0  0  0
   -3.5594   -5.1889   -1.1625 C   0  0  0  0  0  0  0  0  0  0  0  0
   -2.4973   -5.8404   -0.5478 C   0  0  0  0  0  0  0  0  0  0  0  0
   -1.3756   -5.2160   -0.1185 N   0  0  0  0  0  0  0  0  0  0  0  0
   -1.3174   -3.8738   -0.3151 C   0  0  0  0  0  0  0  0  0  0  0  0
    3.3823   -0.3444    0.7856 C   0  0  0  0  0  0  0  0  0  0  0  0
    3.5195    0.7753    1.8158 C   0  0  0  0  0  0  0  0  0  0  0  0
    4.7481    1.6418    1.5371 C   0  0  0  0  0  0  0  0  0  0  0  0
    5.0026    1.8675    0.0418 C   0  0  0  0  0  0  0  0  0  0  0  0
    3.7486    1.6387   -0.8029 C   0  0  0  0  0  0  0  0  0  0  0  0
    3.4124   -1.4216   -1.6880 H   0  0  0  0  0  0  0  0  0  0  0  0
    1.7166    0.6153   -2.1643 H   0  0  0  0  0  0  0  0  0  0  0  0
    1.0782    0.6980   -0.5032 H   0  0  0  0  0  0  0  0  0  0  0  0
    1.0240   -1.6184   -0.3959 H   0  0  0  0  0  0  0  0  0  0  0  0
    0.3785   -0.9130   -3.1959 H   0  0  0  0  0  0  0  0  0  0  0  0
    0.0808   -2.4834   -2.4962 H   0  0  0  0  0  0  0  0  0  0  0  0
   -1.0889    1.3129   -1.9179 H   0  0  0  0  0  0  0  0  0  0  0  0
   -3.6170    2.1496   -1.6528 H   0  0  0  0  0  0  0  0  0  0  0  0
   -4.6784    1.1577   -0.6411 H   0  0  0  0  0  0  0  0  0  0  0  0
   -2.6805    4.0784   -0.5871 H   0  0  0  0  0  0  0  0  0  0  0  0
   -1.9388    5.2771    1.4399 H   0  0  0  0  0  0  0  0  0  0  0  0
   -2.0446    4.1738    3.6606 H   0  0  0  0  0  0  0  0  0  0  0  0
   -2.8812    1.8488    3.8527 H   0  0  0  0  0  0  0  0  0  0  0  0
   -3.6115    0.6206    1.8346 H   0  0  0  0  0  0  0  0  0  0  0  0
   -4.2882   -3.2691   -1.8213 H   0  0  0  0  0  0  0  0  0  0  0  0
   -4.4418   -5.7371   -1.4819 H   0  0  0  0  0  0  0  0  0  0  0  0
   -2.5238   -6.9133   -0.3730 H   0  0  0  0  0  0  0  0  0  0  0  0
   -0.4119   -3.4093    0.0678 H   0  0  0  0  0  0  0  0  0  0  0  0
    4.2732   -0.9860    0.8435 H   0  0  0  0  0  0  0  0  0  0  0  0
    2.5385   -0.9833    1.0677 H   0  0  0  0  0  0  0  0  0  0  0  0
    2.6168    1.3984    1.7930 H   0  0  0  0  0  0  0  0  0  0  0  0
    3.5850    0.3602    2.8282 H   0  0  0  0  0  0  0  0  0  0  0  0
    5.6424    1.1779    1.9744 H   0  0  0  0  0  0  0  0  0  0  0  0
    4.6244    2.6056    2.0475 H   0  0  0  0  0  0  0  0  0  0  0  0
    5.3859    2.8839   -0.1174 H   0  0  0  0  0  0  0  0  0  0  0  0
    5.7920    1.1830   -0.3007 H   0  0  0  0  0  0  0  0  0  0  0  0
    3.9933    1.8366   -1.8572 H   0  0  0  0  0  0  0  0  0  0  0  0
    2.9819    2.3706   -0.5059 H   0  0  0  0  0  0  0  0  0  0  0  0
  1  2  1  0
  2  3  1  0
  3  4  1  0
  4  5  1  0
  5  6  1  0
  6  7  2  0
  7  8  1  0
  8  9  1  0
  9 10  1  0
 10 11  2  0
 11 12  1  0
 12 13  2  0
 13 14  1  0
 14 15  2  0
  8 16  1  0
 16 17  2  0
 17 18  1  0
 18 19  1  0
 19 20  2  0
 20 21  1  0
 21 22  2  0
 22 23  1  0
  2 24  1  0
 24 25  1  0
 25 26  1  0
 26 27  1  0
 27 28  1  0
 28  2  1  0
 17  6  1  0
 23 18  2  0
 15 10  1  0
  1 29  1  0
  3 30  1  0
  3 31  1  0
  4 32  1  0
  5 33  1  0
  5 34  1  0
  7 35  1  0
  9 36  1  0
  9 37  1  0
 11 38  1  0
 12 39  1  0
 13 40  1  0
 14 41  1  0
 15 42  1  0
 19 43  1  0
 20 44  1  0
 21 45  1  0
 23 46  1  0
 24 47  1  0
 24 48  1  0
 25 49  1  0
 25 50  1  0
 26 51  1  0
 26 52  1  0
 27 53  1  0
 27 54  1  0
 28 55  1  0
 28 56  1  0
M  END
$$$$
OCNT-2313058
     RDKit          3D

 44 46  0  0  0  0  0  0  0  0999 V2000
    0.0752   -0.0179    1.6354 O   0  0  0  0  0  0  0  0  0  0  0  0
   -0.1135   -0.0938    0.4274 C   0  0  0  0  0  0  0  0  0  0  0  0
   -1.5086   -0.2224   -0.1705 C   0  0  0  0  0  0  0  0  0  0  0  0
   -2.5959   -0.3100    0.9019 C   0  0  0  0  0  0  0  0  0  0  0  0
   -4.0007   -0.5721    0.3302 C   0  0  0  0  0  0  0  0  0  0  0  0
   -5.0017   -0.7972    1.4759 C   0  0  0  0  0  0  0  0  0  0  0  0
   -6.4259   -0.9697    0.9510 C   0  0  0  0  0  0  0  0  0  0  0  0
   -6.8430    0.1703    0.1334 N   0  0  0  0  0  0  0  0  0  0  0  0
   -5.9459    0.3496   -1.0076 C   0  0  0  0  0  0  0  0  0  0  0  0
   -4.4975    0.5705   -0.5692 C   0  0  0  0  0  0  0  0  0  0  0  0
    0.8575   -0.0688   -0.5623 N   0  0  0  0  0  0  0  0  0  0  0  0
    2.2527    0.0430   -0.3945 C   0  0  0  0  0  0  0  0  0  0  0  0
    2.8868    0.1485    0.8416 C   0  0  0  0  0  0  0  0  0  0  0  0
    4.2829    0.2565    0.9254 C   0  0  0  0  0  0  0  0  0  0  0  0
    5.0707    0.2604   -0.2326 C   0  0  0  0  0  0  0  0  0  0  0  0
    6.4895    0.3703   -0.1450 N   0  0  0  0  0  0  0  0  0  0  0  0
    7.2543    0.4820    0.9979 C   0  0  0  0  0  0  0  0  0  0  0  0
    8.5621    0.5596    0.5814 C   0  0  0  0  0  0  0  0  0  0  0  0
    8.6410    0.5005   -0.7785 N   0  0  0  0  0  0  0  0  0  0  0  0
    7.3954    0.3881   -1.1859 C   0  0  0  0  0  0  0  0  0  0  0  0
    4.4347    0.1542   -1.4758 C   0  0  0  0  0  0  0  0  0  0  0  0
    3.0391    0.0467   -1.5511 C   0  0  0  0  0  0  0  0  0  0  0  0
   -1.5322   -1.1228   -0.7955 H   0  0  0  0  0  0  0  0  0  0  0  0
   -1.6757    0.6504   -0.8111 H   0  0  0  0  0  0  0  0  0  0  0  0
   -2.6000    0.6146    1.4937 H   0  0  0  0  0  0  0  0  0  0  0  0
   -2.3419   -1.1193    1.5992 H   0  0  0  0  0  0  0  0  0  0  0  0
   -3.9630   -1.4910   -0.2709 H   0  0  0  0  0  0  0  0  0  0  0  0
   -4.9706    0.0520    2.1713 H   0  0  0  0  0  0  0  0  0  0  0  0
   -4.7180   -1.6876    2.0497 H   0  0  0  0  0  0  0  0  0  0  0  0
   -7.1157   -1.0690    1.7964 H   0  0  0  0  0  0  0  0  0  0  0  0
   -6.5086   -1.8958    0.3693 H   0  0  0  0  0  0  0  0  0  0  0  0
   -6.8225    1.0133    0.7082 H   0  0  0  0  0  0  0  0  0  0  0  0
   -6.0124   -0.5200   -1.6728 H   0  0  0  0  0  0  0  0  0  0  0  0
   -6.2842    1.2137   -1.5901 H   0  0  0  0  0  0  0  0  0  0  0  0
   -4.4193    1.5264   -0.0351 H   0  0  0  0  0  0  0  0  0  0  0  0
   -3.8710    0.6520   -1.4643 H   0  0  0  0  0  0  0  0  0  0  0  0
    0.5305   -0.1389   -1.5177 H   0  0  0  0  0  0  0  0  0  0  0  0
    2.3259    0.1506    1.7715 H   0  0  0  0  0  0  0  0  0  0  0  0
    4.7113    0.3354    1.9202 H   0  0  0  0  0  0  0  0  0  0  0  0
    6.8371    0.4985    1.9924 H   0  0  0  0  0  0  0  0  0  0  0  0
    9.4488    0.6552    1.1949 H   0  0  0  0  0  0  0  0  0  0  0  0
    7.1078    0.3170   -2.2246 H   0  0  0  0  0  0  0  0  0  0  0  0
    4.9838    0.1508   -2.4124 H   0  0  0  0  0  0  0  0  0  0  0  0
    2.5808   -0.0339   -2.5340 H   0  0  0  0  0  0  0  0  0  0  0  0
  1  2  2  0
  2  3  1  0
  3  4  1  0
  4  5  1  0
  5  6  1  0
  6  7  1  0
  7  8  1  0
  8  9  1  0
  9 10  1  0
  2 11  1  0
 11 12  1  0
 12 13  1  0
 13 14  2  0
 14 15  1  0
 15 16  1  0
 16 17  1  0
 17 18  2  0
 18 19  1  0
 19 20  2  0
 15 21  2  0
 21 22  1  0
 10  5  1  0
 22 12  2  0
 20 16  1  0
  3 23  1  0
  3 24  1  0
  4 25  1  0
  4 26  1  0
  5 27  1  0
  6 28  1  0
  6 29  1  0
  7 30  1  0
  7 31  1  0
  8 32  1  0
  9 33  1  0
  9 34  1  0
 10 35  1  0
 10 36  1  0
 11 37  1  0
 13 38  1  0
 14 39  1  0
 17 40  1  0
 18 41  1  0
 20 42  1  0
 21 43  1  0
 22 44  1  0
M  END
$$$$
OCNT-2313062
     RDKit          3D

 45 47  0  0  0  0  0  0  0  0999 V2000
   -4.9474   -0.4068   -1.7323 C   0  0  0  0  0  0  0  0  0  0  0  0
   -4.4814    0.9758   -1.2659 C   0  0  0  0  0  0  0  0  0  0  0  0
   -5.1482    1.3894    0.0514 C   0  0  0  0  0  0  0  0  0  0  0  0
   -4.6118    0.5918    1.2356 C   0  0  0  0  0  0  0  0  0  0  0  0
   -3.0897    0.6512    1.3097 C   0  0  0  0  0  0  0  0  0  0  0  0
   -2.4554    0.3049    0.0359 N   0  0  0  0  0  0  0  0  0  0  0  0
   -1.1683   -0.2324   -0.0494 C   0  0  0  0  0  0  0  0  0  0  0  0
   -0.5110   -0.1986   -1.0915 O   0  0  0  0  0  0  0  0  0  0  0  0
   -0.6044   -0.8689    1.2091 C   0  0  0  0  0  0  0  0  0  0  0  0
    0.7270   -1.5806    0.9664 C   0  0  0  0  0  0  0  0  0  0  0  0
    1.7810   -0.6090    0.6681 N   0  0  0  0  0  0  0  0  0  0  0  0
    3.1175   -1.0334    0.4986 C   0  0  0  0  0  0  0  0  0  0  0  0
    3.5529   -2.2986    0.8954 C   0  0  0  0  0  0  0  0  0  0  0  0
    4.8835   -2.6356    0.7320 C   0  0  0  0  0  0  0  0  0  0  0  0
    5.8156   -1.8071    0.2270 N   0  0  0  0  0  0  0  0  0  0  0  0
    5.4302   -0.5713   -0.1177 C   0  0  0  0  0  0  0  0  0  0  0  0
    6.3992    0.2887   -0.6086 C   0  0  0  0  0  0  0  0  0  0  0  0
    6.0850    1.5920   -0.9682 C   0  0  0  0  0  0  0  0  0  0  0  0
    7.0464    2.3989   -1.4362 F   0  0  0  0  0  0  0  0  0  0  0  0
    4.7942    2.0725   -0.8429 C   0  0  0  0  0  0  0  0  0  0  0  0
    3.8028    1.2240   -0.3548 C   0  0  0  0  0  0  0  0  0  0  0  0
    4.0932   -0.1162    0.0079 C   0  0  0  0  0  0  0  0  0  0  0  0
   -2.9537    1.0266   -1.1372 C   0  0  0  0  0  0  0  0  0  0  0  0
   -4.5291   -0.6390   -2.7178 H   0  0  0  0  0  0  0  0  0  0  0  0
   -6.0385   -0.4385   -1.8194 H   0  0  0  0  0  0  0  0  0  0  0  0
   -4.6386   -1.2018   -1.0466 H   0  0  0  0  0  0  0  0  0  0  0  0
   -4.7828    1.6934   -2.0400 H   0  0  0  0  0  0  0  0  0  0  0  0
   -6.2358    1.2704   -0.0151 H   0  0  0  0  0  0  0  0  0  0  0  0
   -4.9588    2.4562    0.2271 H   0  0  0  0  0  0  0  0  0  0  0  0
   -4.9325   -0.4532    1.1515 H   0  0  0  0  0  0  0  0  0  0  0  0
   -5.0410    0.9785    2.1669 H   0  0  0  0  0  0  0  0  0  0  0  0
   -2.7537   -0.0092    2.1122 H   0  0  0  0  0  0  0  0  0  0  0  0
   -2.7587    1.6646    1.5678 H   0  0  0  0  0  0  0  0  0  0  0  0
   -1.3256   -1.6104    1.5708 H   0  0  0  0  0  0  0  0  0  0  0  0
   -0.4726   -0.0900    1.9686 H   0  0  0  0  0  0  0  0  0  0  0  0
    0.9713   -2.1275    1.8842 H   0  0  0  0  0  0  0  0  0  0  0  0
    0.6332   -2.3011    0.1450 H   0  0  0  0  0  0  0  0  0  0  0  0
    1.5030   -0.0589   -0.1527 H   0  0  0  0  0  0  0  0  0  0  0  0
    2.8853   -3.0382    1.3170 H   0  0  0  0  0  0  0  0  0  0  0  0
    5.2470   -3.6191    1.0165 H   0  0  0  0  0  0  0  0  0  0  0  0
    7.4234   -0.0566   -0.7099 H   0  0  0  0  0  0  0  0  0  0  0  0
    4.5663    3.0964   -1.1199 H   0  0  0  0  0  0  0  0  0  0  0  0
    2.7962    1.6203   -0.2472 H   0  0  0  0  0  0  0  0  0  0  0  0
   -2.6220    2.0675   -1.0316 H   0  0  0  0  0  0  0  0  0  0  0  0
   -2.4930    0.6388   -2.0528 H   0  0  0  0  0  0  0  0  0  0  0  0
  1  2  1  0
  2  3  1  0
  3  4  1  0
  4  5  1  0
  5  6  1  0
  6  7  1  0
  7  8  2  0
  7  9  1  0
  9 10  1  0
 10 11  1  0
 11 12  1  0
 12 13  2  0
 13 14  1  0
 14 15  2  0
 15 16  1  0
 16 17  2  0
 17 18  1  0
 18 19  1  0
 18 20  2  0
 20 21  1  0
 21 22  2  0
  6 23  1  0
 23  2  1  0
 22 12  1  0
 22 16  1  0
  1 24  1  0
  1 25  1  0
  1 26  1  0
  2 27  1  0
  3 28  1  0
  3 29  1  0
  4 30  1  0
  4 31  1  0
  5 32  1  0
  5 33  1  0
  9 34  1  0
  9 35  1  0
 10 36  1  0
 10 37  1  0
 11 38  1  0
 13 39  1  0
 14 40  1  0
 17 41  1  0
 20 42  1  0
 21 43  1  0
 23 44  1  0
 23 45  1  0
M  END
$$$$
OCNT-2313080
     RDKit          3D

 43 45  0  0  0  0  0  0  0  0999 V2000
    3.2176   -3.1670    0.9623 C   0  0  0  0  0  0  0  0  0  0  0  0
    2.6816   -2.8489   -0.4209 C   0  0  0  0  0  0  0  0  0  0  0  0
    2.2336   -1.4897   -0.4220 O   0  0  0  0  0  0  0  0  0  0  0  0
    1.8875   -1.0219   -1.6478 C   0  0  0  0  0  0  0  0  0  0  0  0
    2.0091   -1.6005   -2.7147 O   0  0  0  0  0  0  0  0  0  0  0  0
    1.4322    0.3691   -1.5356 C   0  0  0  0  0  0  0  0  0  0  0  0
    2.1263    1.3112   -2.2688 C   0  0  0  0  0  0  0  0  0  0  0  0
    1.8336    2.6288   -2.2632 N   0  0  0  0  0  0  0  0  0  0  0  0
    0.7957    3.0375   -1.5227 C   0  0  0  0  0  0  0  0  0  0  0  0
    0.5136    4.3982   -1.5296 C   0  0  0  0  0  0  0  0  0  0  0  0
   -0.5501    4.9339   -0.8056 C   0  0  0  0  0  0  0  0  0  0  0  0
   -1.3480    4.0840   -0.0623 C   0  0  0  0  0  0  0  0  0  0  0  0
   -2.3758    4.5789    0.6430 F   0  0  0  0  0  0  0  0  0  0  0  0
   -1.0917    2.7186   -0.0295 C   0  0  0  0  0  0  0  0  0  0  0  0
   -0.0105    2.1551   -0.7521 C   0  0  0  0  0  0  0  0  0  0  0  0
    0.3257    0.7662   -0.7611 C   0  0  0  0  0  0  0  0  0  0  0  0
   -0.3879   -0.2199   -0.0624 N   0  0  0  0  0  0  0  0  0  0  0  0
   -1.7234   -0.5698   -0.5716 C   0  0  0  0  0  0  0  0  0  0  0  0
   -2.2104   -1.8900    0.0762 C   0  0  0  0  0  0  0  0  0  0  0  0
   -2.1386   -1.9381    1.5558 N   0  0  0  0  0  0  0  0  0  0  0  0
   -3.1547   -1.0889    2.1726 C   0  0  0  0  0  0  0  0  0  0  0  0
   -0.7716   -1.5606    1.9844 C   0  0  0  0  0  0  0  0  0  0  0  0
   -0.2391   -0.2282    1.4016 C   0  0  0  0  0  0  0  0  0  0  0  0
    4.0663   -2.5136    1.2014 H   0  0  0  0  0  0  0  0  0  0  0  0
    2.4567   -2.9906    1.7310 H   0  0  0  0  0  0  0  0  0  0  0  0
    3.5468   -4.2077    1.0203 H   0  0  0  0  0  0  0  0  0  0  0  0
    3.4795   -2.9878   -1.1603 H   0  0  0  0  0  0  0  0  0  0  0  0
    1.8379   -3.5071   -0.6589 H   0  0  0  0  0  0  0  0  0  0  0  0
    2.9675    1.0301   -2.8962 H   0  0  0  0  0  0  0  0  0  0  0  0
    1.1454    5.0628   -2.1165 H   0  0  0  0  0  0  0  0  0  0  0  0
   -0.7542    5.9994   -0.8221 H   0  0  0  0  0  0  0  0  0  0  0  0
   -1.7527    2.1054    0.5731 H   0  0  0  0  0  0  0  0  0  0  0  0
   -1.6880   -0.7113   -1.6591 H   0  0  0  0  0  0  0  0  0  0  0  0
   -2.4477    0.2249   -0.3674 H   0  0  0  0  0  0  0  0  0  0  0  0
   -1.5922   -2.7115   -0.3108 H   0  0  0  0  0  0  0  0  0  0  0  0
   -3.2325   -2.1074   -0.2566 H   0  0  0  0  0  0  0  0  0  0  0  0
   -3.0516   -0.0298    1.9168 H   0  0  0  0  0  0  0  0  0  0  0  0
   -4.1563   -1.4130    1.8704 H   0  0  0  0  0  0  0  0  0  0  0  0
   -3.1142   -1.1813    3.2637 H   0  0  0  0  0  0  0  0  0  0  0  0
   -0.7147   -1.5318    3.0804 H   0  0  0  0  0  0  0  0  0  0  0  0
   -0.0930   -2.3675    1.6758 H   0  0  0  0  0  0  0  0  0  0  0  0
    0.8168   -0.1292    1.6766 H   0  0  0  0  0  0  0  0  0  0  0  0
   -0.7743    0.6092    1.8577 H   0  0  0  0  0  0  0  0  0  0  0  0
  1  2  1  0
  2  3  1  0
  3  4  1  0
  4  5  2  0
  4  6  1  0
  6  7  1  0
  7  8  2  0
  8  9  1  0
  9 10  2  0
 10 11  1  0
 11 12  2  0
 12 13  1  0
 12 14  1  0
 14 15  2  0
 15 16  1  0
 16 17  1  0
 17 18  1  0
 18 19  1  0
 19 20  1  0
 20 21  1  0
 20 22  1  0
 22 23  1  0
 16  6  2  0
 23 17  1  0
 15  9  1  0
  1 24  1  0
  1 25  1  0
  1 26  1  0
  2 27  1  0
  2 28  1  0
  7 29  1  0
 10 30  1  0
 11 31  1  0
 14 32  1  0
 18 33  1  0
 18 34  1  0
 19 35  1  0
 19 36  1  0
 21 37  1  0
 21 38  1  0
 21 39  1  0
 22 40  1  0
 22 41  1  0
 23 42  1  0
 23 43  1  0
M  END
$$$$
OCNT-2313085
     RDKit          3D

 47 49  0  0  0  0  0  0  0  0999 V2000
    1.9370   -0.7114   -0.8901 O   0  0  0  0  0  0  0  0  0  0  0  0
    2.1210    0.4645   -0.0961 C   0  0  0  0  0  0  0  0  0  0  0  0
    3.4056    0.3057    0.7266 C   0  0  0  0  0  0  0  0  0  0  0  0
    4.6808    0.3360   -0.1160 C   0  0  0  0  0  0  0  0  0  0  0  0
    4.8849   -0.8410   -1.0557 C   0  0  0  0  0  0  0  0  0  0  0  0
    6.3863   -0.8620   -1.1972 C   0  0  0  0  0  0  0  0  0  0  0  0
    6.8382   -0.5070    0.2019 C   0  0  0  0  0  0  0  0  0  0  0  0
    5.8185    0.3258    0.7731 O   0  0  0  0  0  0  0  0  0  0  0  0
    0.9010    0.6986    0.8385 C   0  0  0  0  0  0  0  0  0  0  0  0
   -0.3048    1.2101    0.1609 N   0  0  0  0  0  0  0  0  0  0  0  0
   -1.3676    1.5767    1.1214 C   0  0  0  0  0  0  0  0  0  0  0  0
   -2.4863    0.5278    1.3285 C   0  0  0  0  0  0  0  0  0  0  0  0
   -3.1129    0.1446    0.0520 N   0  0  0  0  0  0  0  0  0  0  0  0
   -4.4671   -0.1667   -0.0129 C   0  0  0  0  0  0  0  0  0  0  0  0
   -5.1270   -0.7277    1.0972 C   0  0  0  0  0  0  0  0  0  0  0  0
   -6.4871   -1.0668    1.0670 C   0  0  0  0  0  0  0  0  0  0  0  0
   -7.2348   -0.8577   -0.0854 C   0  0  0  0  0  0  0  0  0  0  0  0
   -6.6178   -0.3133   -1.2047 C   0  0  0  0  0  0  0  0  0  0  0  0
   -5.2609    0.0203   -1.1641 C   0  0  0  0  0  0  0  0  0  0  0  0
   -4.7410    0.5625   -2.2779 F   0  0  0  0  0  0  0  0  0  0  0  0
   -2.3327    0.4289   -1.1652 C   0  0  0  0  0  0  0  0  0  0  0  0
   -0.8194    0.2851   -0.8740 C   0  0  0  0  0  0  0  0  0  0  0  0
    1.7157   -1.4440   -0.2899 H   0  0  0  0  0  0  0  0  0  0  0  0
    2.2273    1.3163   -0.7779 H   0  0  0  0  0  0  0  0  0  0  0  0
    3.4740    1.1107    1.4698 H   0  0  0  0  0  0  0  0  0  0  0  0
    3.3770   -0.6307    1.2992 H   0  0  0  0  0  0  0  0  0  0  0  0
    4.7320    1.2776   -0.6771 H   0  0  0  0  0  0  0  0  0  0  0  0
    4.3711   -0.7201   -2.0131 H   0  0  0  0  0  0  0  0  0  0  0  0
    4.5472   -1.7764   -0.5937 H   0  0  0  0  0  0  0  0  0  0  0  0
    6.7042   -0.0845   -1.9020 H   0  0  0  0  0  0  0  0  0  0  0  0
    6.7828   -1.8199   -1.5439 H   0  0  0  0  0  0  0  0  0  0  0  0
    7.7952    0.0222    0.2125 H   0  0  0  0  0  0  0  0  0  0  0  0
    6.9265   -1.4007    0.8286 H   0  0  0  0  0  0  0  0  0  0  0  0
    0.6614   -0.2291    1.3745 H   0  0  0  0  0  0  0  0  0  0  0  0
    1.2000    1.4435    1.5866 H   0  0  0  0  0  0  0  0  0  0  0  0
   -1.8356    2.4931    0.7369 H   0  0  0  0  0  0  0  0  0  0  0  0
   -0.9468    1.8562    2.0952 H   0  0  0  0  0  0  0  0  0  0  0  0
   -3.2211    0.9702    2.0123 H   0  0  0  0  0  0  0  0  0  0  0  0
   -2.0719   -0.3668    1.8081 H   0  0  0  0  0  0  0  0  0  0  0  0
   -4.5782   -0.9385    2.0114 H   0  0  0  0  0  0  0  0  0  0  0  0
   -6.9541   -1.5017    1.9473 H   0  0  0  0  0  0  0  0  0  0  0  0
   -8.2888   -1.1196   -0.1126 H   0  0  0  0  0  0  0  0  0  0  0  0
   -7.1791   -0.1387   -2.1171 H   0  0  0  0  0  0  0  0  0  0  0  0
   -2.5808   -0.2894   -1.9557 H   0  0  0  0  0  0  0  0  0  0  0  0
   -2.5512    1.4402   -1.5290 H   0  0  0  0  0  0  0  0  0  0  0  0
   -0.6524   -0.7560   -0.5666 H   0  0  0  0  0  0  0  0  0  0  0  0
   -0.2682    0.4532   -1.8059 H   0  0  0  0  0  0  0  0  0  0  0  0
  1  2  1  0
  2  3  1  0
  3  4  1  0
  4  5  1  0
  5  6  1  0
  6  7  1  0
  7  8  1  0
  2  9  1  0
  9 10  1  0
 10 11  1  0
 11 12  1  0
 12 13  1  0
 13 14  1  0
 14 15  2  0
 15 16  1  0
 16 17  2  0
 17 18  1  0
 18 19  2  0
 19 20  1  0
 13 21  1  0
 21 22  1  0
  8  4  1  0
 22 10  1  0
 19 14  1  0
  1 23  1  0
  2 24  1  0
  3 25  1  0
  3 26  1  0
  4 27  1  0
  5 28  1  0
  5 29  1  0
  6 30  1  0
  6 31  1  0
  7 32  1  0
  7 33  1  0
  9 34  1  0
  9 35  1  0
 11 36  1  0
 11 37  1  0
 12 38  1  0
 12 39  1  0
 15 40  1  0
 16 41  1  0
 17 42  1  0
 18 43  1  0
 21 44  1  0
 21 45  1  0
 22 46  1  0
 22 47  1  0
M  END
$$$$
OCNT-2313088
     RDKit          3D

 45 48  0  0  0  0  0  0  0  0999 V2000
    6.4029    1.4560    2.2638 C   0  0  0  0  0  0  0  0  0  0  0  0
    6.5806    1.0586    0.8085 C   0  0  0  0  0  0  0  0  0  0  0  0
    6.1845   -0.3112    0.5556 N   0  0  0  0  0  0  0  0  0  0  0  0
    7.1307   -1.2701    0.5687 N   0  0  0  0  0  0  0  0  0  0  0  0
    6.5419   -2.4224    0.2988 N   0  0  0  0  0  0  0  0  0  0  0  0
    5.2149   -2.1774    0.1112 C   0  0  0  0  0  0  0  0  0  0  0  0
    4.9399   -0.8314    0.2754 C   0  0  0  0  0  0  0  0  0  0  0  0
    3.7091   -0.0749    0.1981 C   0  0  0  0  0  0  0  0  0  0  0  0
    3.6897    1.1315    0.4088 O   0  0  0  0  0  0  0  0  0  0  0  0
    2.5907   -0.8288   -0.1191 N   0  0  0  0  0  0  0  0  0  0  0  0
    1.2625   -0.3796   -0.2907 C   0  0  0  0  0  0  0  0  0  0  0  0
    0.2970   -1.3511   -0.5866 C   0  0  0  0  0  0  0  0  0  0  0  0
   -1.0443   -0.9971   -0.7760 C   0  0  0  0  0  0  0  0  0  0  0  0
   -1.4465    0.3364   -0.6678 C   0  0  0  0  0  0  0  0  0  0  0  0
   -2.8367    0.7421   -0.8713 C   0  0  0  0  0  0  0  0  0  0  0  0
   -3.2311    1.6807   -1.7154 N   0  0  0  0  0  0  0  0  0  0  0  0
   -4.5949    1.7527   -1.6093 C   0  0  0  0  0  0  0  0  0  0  0  0
   -5.0561    0.8672   -0.6654 C   0  0  0  0  0  0  0  0  0  0  0  0
   -6.4164    0.5838   -0.1359 C   0  0  0  0  0  0  0  0  0  0  0  0
   -6.4500   -0.7092    0.6822 C   0  0  0  0  0  0  0  0  0  0  0  0
   -5.2540   -0.7838    1.6330 C   0  0  0  0  0  0  0  0  0  0  0  0
   -3.9405   -0.7653    0.8510 C   0  0  0  0  0  0  0  0  0  0  0  0
   -3.9262    0.2427   -0.1922 N   0  0  0  0  0  0  0  0  0  0  0  0
   -0.4789    1.3073   -0.3938 C   0  0  0  0  0  0  0  0  0  0  0  0
    0.8627    0.9530   -0.1991 C   0  0  0  0  0  0  0  0  0  0  0  0
    6.7187    2.4931    2.4122 H   0  0  0  0  0  0  0  0  0  0  0  0
    7.0026    0.8170    2.9211 H   0  0  0  0  0  0  0  0  0  0  0  0
    5.3588    1.3676    2.5795 H   0  0  0  0  0  0  0  0  0  0  0  0
    6.0156    1.7156    0.1398 H   0  0  0  0  0  0  0  0  0  0  0  0
    7.6348    1.1567    0.5237 H   0  0  0  0  0  0  0  0  0  0  0  0
    4.5451   -2.9901   -0.1257 H   0  0  0  0  0  0  0  0  0  0  0  0
    2.7242   -1.8201   -0.2473 H   0  0  0  0  0  0  0  0  0  0  0  0
    0.5715   -2.3980   -0.6859 H   0  0  0  0  0  0  0  0  0  0  0  0
   -1.7629   -1.7699   -1.0350 H   0  0  0  0  0  0  0  0  0  0  0  0
   -5.1683    2.4468   -2.2095 H   0  0  0  0  0  0  0  0  0  0  0  0
   -7.1382    0.5169   -0.9584 H   0  0  0  0  0  0  0  0  0  0  0  0
   -6.7260    1.4229    0.4987 H   0  0  0  0  0  0  0  0  0  0  0  0
   -7.3869   -0.7642    1.2468 H   0  0  0  0  0  0  0  0  0  0  0  0
   -6.4313   -1.5750    0.0101 H   0  0  0  0  0  0  0  0  0  0  0  0
   -5.2865    0.0663    2.3264 H   0  0  0  0  0  0  0  0  0  0  0  0
   -5.3078   -1.6953    2.2381 H   0  0  0  0  0  0  0  0  0  0  0  0
   -3.7921   -1.7301    0.3532 H   0  0  0  0  0  0  0  0  0  0  0  0
   -3.1000   -0.5793    1.5260 H   0  0  0  0  0  0  0  0  0  0  0  0
   -0.7671    2.3556   -0.3367 H   0  0  0  0  0  0  0  0  0  0  0  0
    1.5643    1.7539    0.0107 H   0  0  0  0  0  0  0  0  0  0  0  0
  1  2  1  0
  2  3  1  0
  3  4  1  0
  4  5  2  0
  5  6  1  0
  6  7  2  0
  7  8  1  0
  8  9  2  0
  8 10  1  0
 10 11  1  0
 11 12  1  0
 12 13  2  0
 13 14  1  0
 14 15  1  0
 15 16  2  0
 16 17  1  0
 17 18  2  0
 18 19  1  0
 19 20  1  0
 20 21  1  0
 21 22  1  0
 22 23  1  0
 14 24  2  0
 24 25  1  0
  7  3  1  0
 25 11  2  0
 23 15  1  0
 23 18  1  0
  1 26  1  0
  1 27  1  0
  1 28  1  0
  2 29  1  0
  2 30  1  0
  6 31  1  0
 10 32  1  0
 12 33  1  0
 13 34  1  0
 17 35  1  0
 19 36  1  0
 19 37  1  0
 20 38  1  0
 20 39  1  0
 21 40  1  0
 21 41  1  0
 22 42  1  0
 22 43  1  0
 24 44  1  0
 25 45  1  0
M  END
$$$$
OCNT-2313093
     RDKit          3D

 40 42  0  0  0  0  0  0  0  0999 V2000
   -0.3410   -3.6091   -0.7643 C   0  0  0  0  0  0  0  0  0  0  0  0
   -0.4134   -2.2834   -0.0695 C   0  0  0  0  0  0  0  0  0  0  0  0
    0.5980   -1.8857    0.7743 C   0  0  0  0  0  0  0  0  0  0  0  0
    0.4510   -0.6434    1.3515 C   0  0  0  0  0  0  0  0  0  0  0  0
    1.5231   -0.0792    2.2614 C   0  0  0  0  0  0  0  0  0  0  0  0
    2.0545    1.1805    1.7291 N   0  0  0  0  0  0  0  0  0  0  0  0
    2.9679    1.0490    0.6743 C   0  0  0  0  0  0  0  0  0  0  0  0
    3.3864    2.2058    0.0200 C   0  0  0  0  0  0  0  0  0  0  0  0
    4.3172    2.1208   -1.0160 C   0  0  0  0  0  0  0  0  0  0  0  0
    4.8226    0.8775   -1.3756 C   0  0  0  0  0  0  0  0  0  0  0  0
    5.9658    0.7822   -2.6593 Cl  0  0  0  0  0  0  0  0  0  0  0  0
    4.3736   -0.2295   -0.6683 C   0  0  0  0  0  0  0  0  0  0  0  0
    4.8250   -1.5608   -0.9611 C   0  0  0  0  0  0  0  0  0  0  0  0
    5.1805   -2.6424   -1.1961 N   0  0  0  0  0  0  0  0  0  0  0  0
    3.4704   -0.1579    0.3499 N   0  0  0  0  0  0  0  0  0  0  0  0
   -0.6211    0.1493    1.1096 N   0  0  0  0  0  0  0  0  0  0  0  0
   -1.5706   -0.3124    0.2809 C   0  0  0  0  0  0  0  0  0  0  0  0
   -2.6519    0.4866    0.0134 N   0  0  0  0  0  0  0  0  0  0  0  0
   -3.0036    1.5734    0.9120 C   0  0  0  0  0  0  0  0  0  0  0  0
   -4.5271    1.6718    0.7957 C   0  0  0  0  0  0  0  0  0  0  0  0
   -4.8273    1.0643   -0.5671 C   0  0  0  0  0  0  0  0  0  0  0  0
   -3.8123   -0.0718   -0.6557 C   0  0  0  0  0  0  0  0  0  0  0  0
   -1.4913   -1.5122   -0.3177 N   0  0  0  0  0  0  0  0  0  0  0  0
   -1.2274   -3.7727   -1.3858 H   0  0  0  0  0  0  0  0  0  0  0  0
    0.5409   -3.6493   -1.4113 H   0  0  0  0  0  0  0  0  0  0  0  0
   -0.2862   -4.4191   -0.0303 H   0  0  0  0  0  0  0  0  0  0  0  0
    1.4701   -2.5019    0.9529 H   0  0  0  0  0  0  0  0  0  0  0  0
    1.0494    0.1389    3.2264 H   0  0  0  0  0  0  0  0  0  0  0  0
    2.3153   -0.8070    2.4763 H   0  0  0  0  0  0  0  0  0  0  0  0
    1.2656    1.7494    1.4171 H   0  0  0  0  0  0  0  0  0  0  0  0
    2.9935    3.1741    0.3167 H   0  0  0  0  0  0  0  0  0  0  0  0
    4.6380    3.0240   -1.5281 H   0  0  0  0  0  0  0  0  0  0  0  0
   -2.5290    2.5006    0.5725 H   0  0  0  0  0  0  0  0  0  0  0  0
   -2.7234    1.3938    1.9563 H   0  0  0  0  0  0  0  0  0  0  0  0
   -4.8883    2.6995    0.8928 H   0  0  0  0  0  0  0  0  0  0  0  0
   -4.9992    1.0698    1.5818 H   0  0  0  0  0  0  0  0  0  0  0  0
   -5.8591    0.7145   -0.6594 H   0  0  0  0  0  0  0  0  0  0  0  0
   -4.6395    1.8032   -1.3555 H   0  0  0  0  0  0  0  0  0  0  0  0
   -3.6071   -0.3374   -1.6980 H   0  0  0  0  0  0  0  0  0  0  0  0
   -4.1899   -0.9537   -0.1235 H   0  0  0  0  0  0  0  0  0  0  0  0
  1  2  1  0
  2  3  2  0
  3  4  1  0
  4  5  1  0
  5  6  1  0
  6  7  1  0
  7  8  2  0
  8  9  1  0
  9 10  2  0
 10 11  1  0
 10 12  1  0
 12 13  1  0
 13 14  3  0
 12 15  2  0
  4 16  2  0
 16 17  1  0
 17 18  1  0
 18 19  1  0
 19 20  1  0
 20 21  1  0
 21 22  1  0
 17 23  2  0
 23  2  1  0
 15  7  1  0
 22 18  1  0
  1 24  1  0
  1 25  1  0
  1 26  1  0
  3 27  1  0
  5 28  1  0
  5 29  1  0
  6 30  1  0
  8 31  1  0
  9 32  1  0
 19 33  1  0
 19 34  1  0
 20 35  1  0
 20 36  1  0
 21 37  1  0
 21 38  1  0
 22 39  1  0
 22 40  1  0
M  END
$$$$
