OCNT-2310193
     RDKit          3D

 45 48  0  0  0  0  0  0  0  0999 V2000
   -1.5177   -1.9174    1.0001 O   0  0  0  0  0  0  0  0  0  0  0  0
   -1.2454   -1.1556    0.0784 C   0  0  0  0  0  0  0  0  0  0  0  0
   -2.1666   -0.6490   -0.8158 N   0  0  0  0  0  0  0  0  0  0  0  0
   -3.5854   -0.8321   -0.6655 C   0  0  0  0  0  0  0  0  0  0  0  0
   -4.2365    0.2362    0.2107 C   0  0  0  0  0  0  0  0  0  0  0  0
   -4.4809   -0.0266    1.5745 C   0  0  0  0  0  0  0  0  0  0  0  0
   -5.0662    0.9215    2.4180 C   0  0  0  0  0  0  0  0  0  0  0  0
   -5.4164    2.1717    1.9202 C   0  0  0  0  0  0  0  0  0  0  0  0
   -5.1685    2.4749    0.5841 C   0  0  0  0  0  0  0  0  0  0  0  0
   -4.5785    1.5224   -0.2562 C   0  0  0  0  0  0  0  0  0  0  0  0
   -4.2474    2.0005   -1.8882 Cl  0  0  0  0  0  0  0  0  0  0  0  0
   -4.1629   -2.2390   -0.6662 C   0  0  0  0  0  0  0  0  0  0  0  0
   -4.3664   -1.3648   -1.8586 C   0  0  0  0  0  0  0  0  0  0  0  0
    0.1609   -0.7575   -0.1466 C   0  0  0  0  0  0  0  0  0  0  0  0
    0.5348    0.4681   -0.6864 C   0  0  0  0  0  0  0  0  0  0  0  0
    1.8937    0.7489   -0.8530 C   0  0  0  0  0  0  0  0  0  0  0  0
    2.8620   -0.1853   -0.4744 C   0  0  0  0  0  0  0  0  0  0  0  0
    4.2140    0.0799   -0.6684 N   0  0  0  0  0  0  0  0  0  0  0  0
    5.1280   -1.0510   -0.4283 C   0  0  0  0  0  0  0  0  0  0  0  0
    6.5709   -0.6035   -0.7129 C   0  0  0  0  0  0  0  0  0  0  0  0
    7.0204    0.4910    0.1056 O   0  0  0  0  0  0  0  0  0  0  0  0
    5.9443    1.2394    0.6877 C   0  0  0  0  0  0  0  0  0  0  0  0
    4.7301    1.3954   -0.2454 C   0  0  0  0  0  0  0  0  0  0  0  0
    2.4932   -1.3774    0.0426 N   0  0  0  0  0  0  0  0  0  0  0  0
    1.1705   -1.6335    0.2132 C   0  0  0  0  0  0  0  0  0  0  0  0
   -1.8634   -0.0909   -1.6030 H   0  0  0  0  0  0  0  0  0  0  0  0
   -4.1931   -0.9931    1.9894 H   0  0  0  0  0  0  0  0  0  0  0  0
   -5.2396    0.6800    3.4638 H   0  0  0  0  0  0  0  0  0  0  0  0
   -5.8699    2.9119    2.5761 H   0  0  0  0  0  0  0  0  0  0  0  0
   -5.4288    3.4583    0.2006 H   0  0  0  0  0  0  0  0  0  0  0  0
   -3.4731   -3.0718   -0.7491 H   0  0  0  0  0  0  0  0  0  0  0  0
   -5.0242   -2.4536   -0.0444 H   0  0  0  0  0  0  0  0  0  0  0  0
   -5.3688   -0.9926   -2.0394 H   0  0  0  0  0  0  0  0  0  0  0  0
   -3.8242   -1.6134   -2.7633 H   0  0  0  0  0  0  0  0  0  0  0  0
   -0.1984    1.2189   -0.9632 H   0  0  0  0  0  0  0  0  0  0  0  0
    2.1893    1.6930   -1.2985 H   0  0  0  0  0  0  0  0  0  0  0  0
    4.8792   -1.8886   -1.0918 H   0  0  0  0  0  0  0  0  0  0  0  0
    5.0540   -1.3909    0.6133 H   0  0  0  0  0  0  0  0  0  0  0  0
    7.2621   -1.4361   -0.5545 H   0  0  0  0  0  0  0  0  0  0  0  0
    6.6707   -0.2888   -1.7582 H   0  0  0  0  0  0  0  0  0  0  0  0
    5.6512    0.7426    1.6208 H   0  0  0  0  0  0  0  0  0  0  0  0
    6.3385    2.2249    0.9564 H   0  0  0  0  0  0  0  0  0  0  0  0
    3.9747    1.9963    0.2752 H   0  0  0  0  0  0  0  0  0  0  0  0
    5.0325    1.9401   -1.1480 H   0  0  0  0  0  0  0  0  0  0  0  0
    0.9472   -2.6035    0.6511 H   0  0  0  0  0  0  0  0  0  0  0  0
  1  2  2  0
  2  3  1  0
  3  4  1  0
  4  5  1  0
  5  6  2  0
  6  7  1  0
  7  8  2  0
  8  9  1  0
  9 10  2  0
 10 11  1  0
  4 12  1  0
 12 13  1  0
  2 14  1  0
 14 15  2  0
 15 16  1  0
 16 17  2  0
 17 18  1  0
 18 19  1  0
 19 20  1  0
 20 21  1  0
 21 22  1  0
 22 23  1  0
 17 24  1  0
 24 25  2  0
 13  4  1  0
 25 14  1  0
 10  5  1  0
 23 18  1  0
  3 26  1  0
  6 27  1  0
  7 28  1  0
  8 29  1  0
  9 30  1  0
 12 31  1  0
 12 32  1  0
 13 33  1  0
 13 34  1  0
 15 35  1  0
 16 36  1  0
 19 37  1  0
 19 38  1  0
 20 39  1  0
 20 40  1  0
 22 41  1  0
 22 42  1  0
 23 43  1  0
 23 44  1  0
 25 45  1  0
M  END
$$$$
OCNT-2310197
     RDKit          3D

 38 41  0  0  0  0  0  0  0  0999 V2000
    5.9820   -0.8881   -0.4007 C   0  0  0  0  0  0  0  0  0  0  0  0
    4.4923   -1.0040   -0.1187 C   0  0  0  0  0  0  0  0  0  0  0  0
    3.8825    0.2891    0.2898 C   0  0  0  0  0  0  0  0  0  0  0  0
    4.4673    1.4672    0.4055 N   0  0  0  0  0  0  0  0  0  0  0  0
    3.5191    2.3798    0.8119 N   0  0  0  0  0  0  0  0  0  0  0  0
    2.3772    1.7405    0.9339 C   0  0  0  0  0  0  0  0  0  0  0  0
    1.0888    2.1510    1.3223 C   0  0  0  0  0  0  0  0  0  0  0  0
    0.1021    1.2475    1.3375 C   0  0  0  0  0  0  0  0  0  0  0  0
    0.4079   -0.1582    0.9255 C   0  0  0  0  0  0  0  0  0  0  0  0
   -0.5847   -1.1104    0.9361 N   0  0  0  0  0  0  0  0  0  0  0  0
   -1.4833   -1.2530   -0.2132 C   0  0  0  0  0  0  0  0  0  0  0  0
   -2.5384   -2.3347    0.1106 C   0  0  0  0  0  0  0  0  0  0  0  0
   -3.6931   -1.6127    0.8249 C   0  0  0  0  0  0  0  0  0  0  0  0
   -3.6337   -0.2696    0.1680 C   0  0  0  0  0  0  0  0  0  0  0  0
   -4.6186    0.7036    0.1230 C   0  0  0  0  0  0  0  0  0  0  0  0
   -4.3410    1.8865   -0.5636 C   0  0  0  0  0  0  0  0  0  0  0  0
   -5.5406    3.1188   -0.6487 Cl  0  0  0  0  0  0  0  0  0  0  0  0
   -3.1015    2.0867   -1.1899 C   0  0  0  0  0  0  0  0  0  0  0  0
   -2.1110    1.1025   -1.1281 C   0  0  0  0  0  0  0  0  0  0  0  0
   -2.3826   -0.0665   -0.4303 C   0  0  0  0  0  0  0  0  0  0  0  0
    1.6016   -0.5754    0.5951 N   0  0  0  0  0  0  0  0  0  0  0  0
    2.5498    0.4120    0.6098 N   0  0  0  0  0  0  0  0  0  0  0  0
    6.1782   -0.1785   -1.2118 H   0  0  0  0  0  0  0  0  0  0  0  0
    6.5281   -0.5474    0.4856 H   0  0  0  0  0  0  0  0  0  0  0  0
    6.3884   -1.8607   -0.6960 H   0  0  0  0  0  0  0  0  0  0  0  0
    3.9876   -1.3754   -1.0183 H   0  0  0  0  0  0  0  0  0  0  0  0
    4.3373   -1.7457    0.6736 H   0  0  0  0  0  0  0  0  0  0  0  0
    0.9266    3.1817    1.6137 H   0  0  0  0  0  0  0  0  0  0  0  0
   -0.9062    1.4865    1.6499 H   0  0  0  0  0  0  0  0  0  0  0  0
   -0.1085   -2.0072    1.0295 H   0  0  0  0  0  0  0  0  0  0  0  0
   -0.9246   -1.5184   -1.1177 H   0  0  0  0  0  0  0  0  0  0  0  0
   -2.9159   -2.7578   -0.8316 H   0  0  0  0  0  0  0  0  0  0  0  0
   -2.1474   -3.1673    0.7052 H   0  0  0  0  0  0  0  0  0  0  0  0
   -4.6458   -2.1214    0.6535 H   0  0  0  0  0  0  0  0  0  0  0  0
   -3.5035   -1.5187    1.8990 H   0  0  0  0  0  0  0  0  0  0  0  0
   -5.5803    0.5474    0.6010 H   0  0  0  0  0  0  0  0  0  0  0  0
   -2.9054    3.0122   -1.7262 H   0  0  0  0  0  0  0  0  0  0  0  0
   -1.1508    1.2585   -1.6115 H   0  0  0  0  0  0  0  0  0  0  0  0
  1  2  1  0
  2  3  1  0
  3  4  2  0
  4  5  1  0
  5  6  2  0
  6  7  1  0
  7  8  2  0
  8  9  1  0
  9 10  1  0
 10 11  1  0
 11 12  1  0
 12 13  1  0
 13 14  1  0
 14 15  1  0
 15 16  2  0
 16 17  1  0
 16 18  1  0
 18 19  2  0
 19 20  1  0
  9 21  2  0
 21 22  1  0
 22  3  1  0
 22  6  1  0
 20 11  1  0
 20 14  2  0
  1 23  1  0
  1 24  1  0
  1 25  1  0
  2 26  1  0
  2 27  1  0
  7 28  1  0
  8 29  1  0
 10 30  1  0
 11 31  1  0
 12 32  1  0
 12 33  1  0
 13 34  1  0
 13 35  1  0
 15 36  1  0
 18 37  1  0
 19 38  1  0
M  END
$$$$
OCNT-2310201
     RDKit          3D

 50 52  0  0  0  0  0  0  0  0999 V2000
    8.8042   -0.9290   -0.3586 C   0  0  0  0  0  0  0  0  0  0  0  0
    7.3712   -0.5558   -0.1331 C   0  0  0  0  0  0  0  0  0  0  0  0
    6.6575   -0.9808    0.9215 C   0  0  0  0  0  0  0  0  0  0  0  0
    5.3268   -0.6217    1.1091 N   0  0  0  0  0  0  0  0  0  0  0  0
    4.6486   -1.0922    2.2220 C   0  0  0  0  0  0  0  0  0  0  0  0
    5.1209   -1.8133    3.1001 O   0  0  0  0  0  0  0  0  0  0  0  0
    3.2439   -0.6708    2.3388 C   0  0  0  0  0  0  0  0  0  0  0  0
    2.7219    0.1265    1.3997 C   0  0  0  0  0  0  0  0  0  0  0  0
    1.2706    0.5734    1.4754 C   0  0  0  0  0  0  0  0  0  0  0  0
    0.5847    0.0614    0.2934 N   0  0  0  0  0  0  0  0  0  0  0  0
   -0.7136    0.5008    0.0133 C   0  0  0  0  0  0  0  0  0  0  0  0
   -1.6078    0.9509    0.9895 C   0  0  0  0  0  0  0  0  0  0  0  0
   -2.9219    1.3091    0.6615 C   0  0  0  0  0  0  0  0  0  0  0  0
   -3.3865    1.1942   -0.6518 C   0  0  0  0  0  0  0  0  0  0  0  0
   -4.8034    1.5712   -1.0051 C   0  0  0  0  0  0  0  0  0  0  0  0
   -5.6999    0.3741   -1.3512 C   0  0  0  0  0  0  0  0  0  0  0  0
   -5.9431   -0.6239   -0.2010 C   0  0  0  0  0  0  0  0  0  0  0  0
   -6.7507   -1.8183   -0.7175 C   0  0  0  0  0  0  0  0  0  0  0  0
   -6.6729    0.0161    0.9808 C   0  0  0  0  0  0  0  0  0  0  0  0
   -2.5131    0.7052   -1.6269 C   0  0  0  0  0  0  0  0  0  0  0  0
   -1.2020    0.3504   -1.2913 C   0  0  0  0  0  0  0  0  0  0  0  0
    3.4346    0.5797    0.3124 N   0  0  0  0  0  0  0  0  0  0  0  0
    4.6719    0.2019    0.2034 C   0  0  0  0  0  0  0  0  0  0  0  0
    5.4608    0.6760   -0.9665 C   0  0  0  0  0  0  0  0  0  0  0  0
    6.7389    0.3052   -1.1073 C   0  0  0  0  0  0  0  0  0  0  0  0
    9.4356   -0.0344   -0.3840 H   0  0  0  0  0  0  0  0  0  0  0  0
    9.1848   -1.5815    0.4346 H   0  0  0  0  0  0  0  0  0  0  0  0
    8.9181   -1.4617   -1.3088 H   0  0  0  0  0  0  0  0  0  0  0  0
    7.0936   -1.6295    1.6778 H   0  0  0  0  0  0  0  0  0  0  0  0
    2.6874   -1.0411    3.1889 H   0  0  0  0  0  0  0  0  0  0  0  0
    1.2404    1.6699    1.5018 H   0  0  0  0  0  0  0  0  0  0  0  0
    0.7967    0.1913    2.3870 H   0  0  0  0  0  0  0  0  0  0  0  0
    1.1923    0.1459   -0.5222 H   0  0  0  0  0  0  0  0  0  0  0  0
   -1.3073    1.0302    2.0292 H   0  0  0  0  0  0  0  0  0  0  0  0
   -3.5816    1.6659    1.4489 H   0  0  0  0  0  0  0  0  0  0  0  0
   -4.7661    2.2445   -1.8718 H   0  0  0  0  0  0  0  0  0  0  0  0
   -5.2523    2.1648   -0.2003 H   0  0  0  0  0  0  0  0  0  0  0  0
   -5.2659   -0.1642   -2.2038 H   0  0  0  0  0  0  0  0  0  0  0  0
   -6.6667    0.7626   -1.6973 H   0  0  0  0  0  0  0  0  0  0  0  0
   -4.9801   -1.0088    0.1553 H   0  0  0  0  0  0  0  0  0  0  0  0
   -6.9029   -2.5576    0.0760 H   0  0  0  0  0  0  0  0  0  0  0  0
   -6.2261   -2.3164   -1.5397 H   0  0  0  0  0  0  0  0  0  0  0  0
   -7.7349   -1.5054   -1.0827 H   0  0  0  0  0  0  0  0  0  0  0  0
   -6.0695    0.7993    1.4482 H   0  0  0  0  0  0  0  0  0  0  0  0
   -7.6237    0.4600    0.6670 H   0  0  0  0  0  0  0  0  0  0  0  0
   -6.8883   -0.7302    1.7533 H   0  0  0  0  0  0  0  0  0  0  0  0
   -2.8459    0.5868   -2.6552 H   0  0  0  0  0  0  0  0  0  0  0  0
   -0.5557   -0.0500   -2.0686 H   0  0  0  0  0  0  0  0  0  0  0  0
    4.9579    1.3199   -1.6769 H   0  0  0  0  0  0  0  0  0  0  0  0
    7.3184    0.6490   -1.9590 H   0  0  0  0  0  0  0  0  0  0  0  0
  1  2  1  0
  2  3  2  0
  3  4  1  0
  4  5  1  0
  5  6  2  0
  5  7  1  0
  7  8  2  0
  8  9  1  0
  9 10  1  0
 10 11  1  0
 11 12  1  0
 12 13  2  0
 13 14  1  0
 14 15  1  0
 15 16  1  0
 16 17  1  0
 17 18  1  0
 17 19  1  0
 14 20  2  0
 20 21  1  0
  8 22  1  0
 22 23  2  0
 23 24  1  0
 24 25  2  0
 25  2  1  0
 23  4  1  0
 21 11  2  0
  1 26  1  0
  1 27  1  0
  1 28  1  0
  3 29  1  0
  7 30  1  0
  9 31  1  0
  9 32  1  0
 10 33  1  0
 12 34  1  0
 13 35  1  0
 15 36  1  0
 15 37  1  0
 16 38  1  0
 16 39  1  0
 17 40  1  0
 18 41  1  0
 18 42  1  0
 18 43  1  0
 19 44  1  0
 19 45  1  0
 19 46  1  0
 20 47  1  0
 21 48  1  0
 24 49  1  0
 25 50  1  0
M  END
$$$$
OCNT-2310214
     RDKit          3D

 42 44  0  0  0  0  0  0  0  0999 V2000
    2.5915    3.9894   -1.6370 N   0  0  0  0  0  0  0  0  0  0  0  0
    2.7638    2.6361   -1.6638 C   0  0  0  0  0  0  0  0  0  0  0  0
    3.5450    2.1140   -2.4489 O   0  0  0  0  0  0  0  0  0  0  0  0
    1.9178    1.8871   -0.6687 C   0  0  0  0  0  0  0  0  0  0  0  0
    2.1593    0.3881   -0.7494 C   0  0  0  0  0  0  0  0  0  0  0  0
    1.3628   -0.2297    0.2625 O   0  0  0  0  0  0  0  0  0  0  0  0
    1.3611   -1.6039    0.3101 C   0  0  0  0  0  0  0  0  0  0  0  0
    2.1416   -2.4403   -0.4914 C   0  0  0  0  0  0  0  0  0  0  0  0
    2.0438   -3.8277   -0.3584 C   0  0  0  0  0  0  0  0  0  0  0  0
    1.1730   -4.3841    0.5762 C   0  0  0  0  0  0  0  0  0  0  0  0
    0.3925   -3.5553    1.3824 C   0  0  0  0  0  0  0  0  0  0  0  0
    0.4714   -2.1637    1.2554 C   0  0  0  0  0  0  0  0  0  0  0  0
   -0.3094   -1.3082    2.0733 N   0  0  0  0  0  0  0  0  0  0  0  0
   -1.7591   -1.4611    1.9200 C   0  0  0  0  0  0  0  0  0  0  0  0
   -2.3424   -1.1806    0.5718 C   0  0  0  0  0  0  0  0  0  0  0  0
   -2.8333   -2.1264   -0.3101 C   0  0  0  0  0  0  0  0  0  0  0  0
   -3.2481   -1.4506   -1.4129 N   0  0  0  0  0  0  0  0  0  0  0  0
   -3.0916   -0.1258   -1.3163 N   0  0  0  0  0  0  0  0  0  0  0  0
   -2.5166    0.0551   -0.1164 C   0  0  0  0  0  0  0  0  0  0  0  0
   -2.1287    1.5183    0.3400 C   0  0  0  0  0  0  0  0  0  0  0  0
   -2.3620    2.6294   -0.4513 C   0  0  0  0  0  0  0  0  0  0  0  0
   -1.9096    3.8386    0.1569 C   0  0  0  0  0  0  0  0  0  0  0  0
   -1.3533    3.5885    1.3844 C   0  0  0  0  0  0  0  0  0  0  0  0
   -0.6131    4.9482    2.5034 Br  0  0  0  0  0  0  0  0  0  0  0  0
   -1.3823    1.9514    1.8119 S   0  0  0  0  0  0  0  0  0  0  0  0
    3.1664    4.5480   -2.2542 H   0  0  0  0  0  0  0  0  0  0  0  0
    2.0429    4.4568   -0.9284 H   0  0  0  0  0  0  0  0  0  0  0  0
    2.1422    2.2505    0.3411 H   0  0  0  0  0  0  0  0  0  0  0  0
    0.8622    2.1042   -0.8648 H   0  0  0  0  0  0  0  0  0  0  0  0
    1.8668    0.0233   -1.7420 H   0  0  0  0  0  0  0  0  0  0  0  0
    3.2197    0.1707   -0.5727 H   0  0  0  0  0  0  0  0  0  0  0  0
    2.8365   -2.0460   -1.2249 H   0  0  0  0  0  0  0  0  0  0  0  0
    2.6557   -4.4749   -0.9817 H   0  0  0  0  0  0  0  0  0  0  0  0
    1.1093   -5.4634    0.6863 H   0  0  0  0  0  0  0  0  0  0  0  0
   -0.2612   -4.0001    2.1266 H   0  0  0  0  0  0  0  0  0  0  0  0
   -0.0394   -0.3510    1.8311 H   0  0  0  0  0  0  0  0  0  0  0  0
   -2.0561   -2.4681    2.2419 H   0  0  0  0  0  0  0  0  0  0  0  0
   -2.2414   -0.7980    2.6485 H   0  0  0  0  0  0  0  0  0  0  0  0
   -2.9006   -3.2034   -0.2478 H   0  0  0  0  0  0  0  0  0  0  0  0
   -3.6508   -1.8270   -2.2652 H   0  0  0  0  0  0  0  0  0  0  0  0
   -2.8329    2.5713   -1.4263 H   0  0  0  0  0  0  0  0  0  0  0  0
   -1.9933    4.8205   -0.2913 H   0  0  0  0  0  0  0  0  0  0  0  0
  1  2  1  0
  2  3  2  0
  2  4  1  0
  4  5  1  0
  5  6  1  0
  6  7  1  0
  7  8  2  0
  8  9  1  0
  9 10  2  0
 10 11  1  0
 11 12  2  0
 12 13  1  0
 13 14  1  0
 14 15  1  0
 15 16  2  0
 16 17  1  0
 17 18  1  0
 18 19  2  0
 19 20  1  0
 20 21  2  0
 21 22  1  0
 22 23  2  0
 23 24  1  0
 23 25  1  0
 12  7  1  0
 19 15  1  0
 25 20  1  0
  1 26  1  0
  1 27  1  0
  4 28  1  0
  4 29  1  0
  5 30  1  0
  5 31  1  0
  8 32  1  0
  9 33  1  0
 10 34  1  0
 11 35  1  0
 13 36  1  0
 14 37  1  0
 14 38  1  0
 16 39  1  0
 17 40  1  0
 21 41  1  0
 22 42  1  0
M  END
$$$$
OCNT-2310222
     RDKit          3D

 38 40  0  0  0  0  0  0  0  0999 V2000
    1.4851    2.0921    0.8733 O   0  0  0  0  0  0  0  0  0  0  0  0
    1.0975    1.2557    0.0683 C   0  0  0  0  0  0  0  0  0  0  0  0
   -0.1586    0.6980    0.0792 N   0  0  0  0  0  0  0  0  0  0  0  0
   -1.1086    1.1809    1.0538 C   0  0  0  0  0  0  0  0  0  0  0  0
   -2.4480    0.6720    0.6828 C   0  0  0  0  0  0  0  0  0  0  0  0
   -3.5014    1.3097    0.0559 C   0  0  0  0  0  0  0  0  0  0  0  0
   -4.5695    0.3849   -0.0626 C   0  0  0  0  0  0  0  0  0  0  0  0
   -5.8707    0.4606   -0.5934 C   0  0  0  0  0  0  0  0  0  0  0  0
   -6.6951   -0.6686   -0.5433 C   0  0  0  0  0  0  0  0  0  0  0  0
   -6.2366   -1.8588    0.0213 C   0  0  0  0  0  0  0  0  0  0  0  0
   -4.9482   -1.9548    0.5574 C   0  0  0  0  0  0  0  0  0  0  0  0
   -4.1372   -0.8158    0.5025 C   0  0  0  0  0  0  0  0  0  0  0  0
   -2.8479   -0.6171    0.9441 N   0  0  0  0  0  0  0  0  0  0  0  0
    1.8279    0.8047   -0.9972 N   0  0  0  0  0  0  0  0  0  0  0  0
    3.1339    1.3409   -1.3029 C   0  0  0  0  0  0  0  0  0  0  0  0
    4.2479    0.6059   -0.6114 C   0  0  0  0  0  0  0  0  0  0  0  0
    4.6271    0.9457    0.6962 C   0  0  0  0  0  0  0  0  0  0  0  0
    5.7003    0.3009    1.3167 C   0  0  0  0  0  0  0  0  0  0  0  0
    6.4009   -0.7018    0.6409 C   0  0  0  0  0  0  0  0  0  0  0  0
    6.0172   -1.0522   -0.6498 C   0  0  0  0  0  0  0  0  0  0  0  0
    6.6975   -2.0073   -1.2967 F   0  0  0  0  0  0  0  0  0  0  0  0
    4.9492   -0.4105   -1.2659 C   0  0  0  0  0  0  0  0  0  0  0  0
    4.6118   -0.7474   -2.5216 F   0  0  0  0  0  0  0  0  0  0  0  0
   -0.5337    0.5851   -0.8493 H   0  0  0  0  0  0  0  0  0  0  0  0
   -1.1004    2.2750    1.0618 H   0  0  0  0  0  0  0  0  0  0  0  0
   -0.7974    0.8346    2.0439 H   0  0  0  0  0  0  0  0  0  0  0  0
   -3.5080    2.3368   -0.2776 H   0  0  0  0  0  0  0  0  0  0  0  0
   -6.2291    1.3879   -1.0304 H   0  0  0  0  0  0  0  0  0  0  0  0
   -7.7047   -0.6144   -0.9467 H   0  0  0  0  0  0  0  0  0  0  0  0
   -6.8945   -2.7243    0.0483 H   0  0  0  0  0  0  0  0  0  0  0  0
   -4.6016   -2.8855    0.9968 H   0  0  0  0  0  0  0  0  0  0  0  0
   -2.2809   -1.3227    1.3944 H   0  0  0  0  0  0  0  0  0  0  0  0
    1.6083   -0.1251   -1.3315 H   0  0  0  0  0  0  0  0  0  0  0  0
    3.1705    2.4060   -1.0341 H   0  0  0  0  0  0  0  0  0  0  0  0
    3.2555    1.2892   -2.3886 H   0  0  0  0  0  0  0  0  0  0  0  0
    4.0965    1.7303    1.2336 H   0  0  0  0  0  0  0  0  0  0  0  0
    5.9940    0.5997    2.3246 H   0  0  0  0  0  0  0  0  0  0  0  0
    7.2511   -1.1917    1.1072 H   0  0  0  0  0  0  0  0  0  0  0  0
  1  2  2  0
  2  3  1  0
  3  4  1  0
  4  5  1  0
  5  6  2  0
  6  7  1  0
  7  8  2  0
  8  9  1  0
  9 10  2  0
 10 11  1  0
 11 12  2  0
 12 13  1  0
  2 14  1  0
 14 15  1  0
 15 16  1  0
 16 17  2  0
 17 18  1  0
 18 19  2  0
 19 20  1  0
 20 21  1  0
 20 22  2  0
 22 23  1  0
 13  5  1  0
 22 16  1  0
 12  7  1  0
  3 24  1  0
  4 25  1  0
  4 26  1  0
  6 27  1  0
  8 28  1  0
  9 29  1  0
 10 30  1  0
 11 31  1  0
 13 32  1  0
 14 33  1  0
 15 34  1  0
 15 35  1  0
 17 36  1  0
 18 37  1  0
 19 38  1  0
M  END
$$$$
OCNT-2310250
     RDKit          3D

 45 48  0  0  0  0  0  0  0  0999 V2000
    5.1856    1.7121   -0.6757 C   0  0  0  0  0  0  0  0  0  0  0  0
    5.1523    1.3865    0.7668 C   0  0  0  0  0  0  0  0  0  0  0  0
    6.1739    1.6356    1.6566 C   0  0  0  0  0  0  0  0  0  0  0  0
    5.8238    1.2258    2.8927 O   0  0  0  0  0  0  0  0  0  0  0  0
    4.5562    0.6949    2.8504 N   0  0  0  0  0  0  0  0  0  0  0  0
    4.1465    0.7843    1.5770 C   0  0  0  0  0  0  0  0  0  0  0  0
    2.8838    0.3032    1.3054 N   0  0  0  0  0  0  0  0  0  0  0  0
    2.2260    0.2426    0.1004 C   0  0  0  0  0  0  0  0  0  0  0  0
    2.6594    0.5955   -0.9883 O   0  0  0  0  0  0  0  0  0  0  0  0
    0.8374   -0.3484    0.2617 C   0  0  0  0  0  0  0  0  0  0  0  0
    0.0718   -0.3737   -1.0581 C   0  0  0  0  0  0  0  0  0  0  0  0
   -1.3030   -0.9514   -0.8916 C   0  0  0  0  0  0  0  0  0  0  0  0
   -2.4386   -0.2909   -0.4363 C   0  0  0  0  0  0  0  0  0  0  0  0
   -2.6464    1.0920   -0.0204 C   0  0  0  0  0  0  0  0  0  0  0  0
   -3.0655    1.3802    1.2865 C   0  0  0  0  0  0  0  0  0  0  0  0
   -3.2628    2.7032    1.6863 C   0  0  0  0  0  0  0  0  0  0  0  0
   -3.0437    3.7332    0.7792 C   0  0  0  0  0  0  0  0  0  0  0  0
   -3.2345    5.0017    1.1638 F   0  0  0  0  0  0  0  0  0  0  0  0
   -2.6307    3.4663   -0.5202 C   0  0  0  0  0  0  0  0  0  0  0  0
   -2.4316    2.1437   -0.9209 C   0  0  0  0  0  0  0  0  0  0  0  0
   -3.4639   -1.2077   -0.4224 N   0  0  0  0  0  0  0  0  0  0  0  0
   -3.0288   -2.4410   -0.8405 C   0  0  0  0  0  0  0  0  0  0  0  0
   -3.7280   -3.6467   -0.9720 C   0  0  0  0  0  0  0  0  0  0  0  0
   -3.0169   -4.7614   -1.4248 C   0  0  0  0  0  0  0  0  0  0  0  0
   -1.6625   -4.6697   -1.7339 C   0  0  0  0  0  0  0  0  0  0  0  0
   -0.9809   -3.4545   -1.5976 C   0  0  0  0  0  0  0  0  0  0  0  0
   -1.6755   -2.3137   -1.1437 C   0  0  0  0  0  0  0  0  0  0  0  0
    6.1224    2.2150   -0.9420 H   0  0  0  0  0  0  0  0  0  0  0  0
    4.3716    2.3932   -0.9414 H   0  0  0  0  0  0  0  0  0  0  0  0
    5.1249    0.8041   -1.2828 H   0  0  0  0  0  0  0  0  0  0  0  0
    7.1567    2.0751    1.5706 H   0  0  0  0  0  0  0  0  0  0  0  0
    2.4250   -0.0492    2.1354 H   0  0  0  0  0  0  0  0  0  0  0  0
    0.9400   -1.3668    0.6564 H   0  0  0  0  0  0  0  0  0  0  0  0
    0.2933    0.2479    1.0046 H   0  0  0  0  0  0  0  0  0  0  0  0
    0.6296   -0.9577   -1.8010 H   0  0  0  0  0  0  0  0  0  0  0  0
    0.0036    0.6388   -1.4730 H   0  0  0  0  0  0  0  0  0  0  0  0
   -3.2266    0.5782    2.0032 H   0  0  0  0  0  0  0  0  0  0  0  0
   -3.5826    2.9368    2.6967 H   0  0  0  0  0  0  0  0  0  0  0  0
   -2.4673    4.2855   -1.2126 H   0  0  0  0  0  0  0  0  0  0  0  0
   -2.1139    1.9370   -1.9407 H   0  0  0  0  0  0  0  0  0  0  0  0
   -4.4139   -0.9998   -0.1501 H   0  0  0  0  0  0  0  0  0  0  0  0
   -4.7837   -3.7209   -0.7324 H   0  0  0  0  0  0  0  0  0  0  0  0
   -3.5302   -5.7136   -1.5383 H   0  0  0  0  0  0  0  0  0  0  0  0
   -1.1274   -5.5485   -2.0859 H   0  0  0  0  0  0  0  0  0  0  0  0
    0.0750   -3.3968   -1.8446 H   0  0  0  0  0  0  0  0  0  0  0  0
  1  2  1  0
  2  3  2  0
  3  4  1  0
  4  5  1  0
  5  6  2  0
  6  7  1  0
  7  8  1  0
  8  9  2  0
  8 10  1  0
 10 11  1  0
 11 12  1  0
 12 13  2  0
 13 14  1  0
 14 15  1  0
 15 16  2  0
 16 17  1  0
 17 18  1  0
 17 19  2  0
 19 20  1  0
 13 21  1  0
 21 22  1  0
 22 23  2  0
 23 24  1  0
 24 25  2  0
 25 26  1  0
 26 27  2  0
  6  2  1  0
 27 12  1  0
 20 14  2  0
 27 22  1  0
  1 28  1  0
  1 29  1  0
  1 30  1  0
  3 31  1  0
  7 32  1  0
 10 33  1  0
 10 34  1  0
 11 35  1  0
 11 36  1  0
 15 37  1  0
 16 38  1  0
 19 39  1  0
 20 40  1  0
 21 41  1  0
 23 42  1  0
 24 43  1  0
 25 44  1  0
 26 45  1  0
M  END
$$$$
OCNT-2310252
     RDKit          3D

 49 52  0  0  0  0  0  0  0  0999 V2000
    4.4258   -2.7349    0.2000 O   0  0  0  0  0  0  0  0  0  0  0  0
    3.4252   -2.0649    0.4379 C   0  0  0  0  0  0  0  0  0  0  0  0
    2.0354   -2.7103    0.4832 C   0  0  0  0  0  0  0  0  0  0  0  0
    0.9922   -1.7547    0.1247 N   0  0  0  0  0  0  0  0  0  0  0  0
   -0.2082   -1.7049    0.8042 C   0  0  0  0  0  0  0  0  0  0  0  0
   -0.4059   -2.3431    1.8300 O   0  0  0  0  0  0  0  0  0  0  0  0
   -1.2055   -0.8328    0.2003 C   0  0  0  0  0  0  0  0  0  0  0  0
   -0.9576    0.2531   -0.6233 C   0  0  0  0  0  0  0  0  0  0  0  0
   -2.1707    0.7865   -0.9900 N   0  0  0  0  0  0  0  0  0  0  0  0
   -2.4197    1.9210   -1.8151 C   0  0  0  0  0  0  0  0  0  0  0  0
   -1.3682    2.6710   -2.3661 C   0  0  0  0  0  0  0  0  0  0  0  0
   -1.6482    3.7771   -3.1729 C   0  0  0  0  0  0  0  0  0  0  0  0
   -2.9688    4.1423   -3.4337 C   0  0  0  0  0  0  0  0  0  0  0  0
   -4.0171    3.4050   -2.8890 C   0  0  0  0  0  0  0  0  0  0  0  0
   -3.7464    2.2979   -2.0825 C   0  0  0  0  0  0  0  0  0  0  0  0
   -3.1916    0.0740   -0.4629 N   0  0  0  0  0  0  0  0  0  0  0  0
   -2.6286   -0.8766    0.2962 C   0  0  0  0  0  0  0  0  0  0  0  0
   -3.4886   -1.8026    1.0233 C   0  0  0  0  0  0  0  0  0  0  0  0
   -3.3298   -2.0604    2.3851 C   0  0  0  0  0  0  0  0  0  0  0  0
   -4.1859   -2.9569    3.0235 C   0  0  0  0  0  0  0  0  0  0  0  0
   -5.1830   -3.5629    2.2763 C   0  0  0  0  0  0  0  0  0  0  0  0
   -5.3840   -3.3261    0.9628 N   0  0  0  0  0  0  0  0  0  0  0  0
   -4.5365   -2.4467    0.3712 C   0  0  0  0  0  0  0  0  0  0  0  0
    3.3989   -0.7251    0.7961 N   0  0  0  0  0  0  0  0  0  0  0  0
    4.4789    0.1734    0.8620 C   0  0  0  0  0  0  0  0  0  0  0  0
    5.7737   -0.1295    0.4323 C   0  0  0  0  0  0  0  0  0  0  0  0
    6.7930    0.8240    0.5299 C   0  0  0  0  0  0  0  0  0  0  0  0
    6.5161    2.0776    1.0597 C   0  0  0  0  0  0  0  0  0  0  0  0
    7.4932    2.9870    1.1544 F   0  0  0  0  0  0  0  0  0  0  0  0
    5.2357    2.4001    1.4883 C   0  0  0  0  0  0  0  0  0  0  0  0
    4.2163    1.4489    1.3862 C   0  0  0  0  0  0  0  0  0  0  0  0
    1.9938   -3.5212   -0.2530 H   0  0  0  0  0  0  0  0  0  0  0  0
    1.8718   -3.1184    1.4871 H   0  0  0  0  0  0  0  0  0  0  0  0
    1.0251   -1.3813   -0.8155 H   0  0  0  0  0  0  0  0  0  0  0  0
   -0.0279    0.6877   -0.9572 H   0  0  0  0  0  0  0  0  0  0  0  0
   -0.3241    2.4281   -2.1928 H   0  0  0  0  0  0  0  0  0  0  0  0
   -0.8317    4.3594   -3.5983 H   0  0  0  0  0  0  0  0  0  0  0  0
   -3.1817    5.0054   -4.0614 H   0  0  0  0  0  0  0  0  0  0  0  0
   -5.0474    3.6900   -3.0893 H   0  0  0  0  0  0  0  0  0  0  0  0
   -4.5839    1.7394   -1.6674 H   0  0  0  0  0  0  0  0  0  0  0  0
   -2.5471   -1.5729    2.9606 H   0  0  0  0  0  0  0  0  0  0  0  0
   -4.0706   -3.1817    4.0783 H   0  0  0  0  0  0  0  0  0  0  0  0
   -5.8666   -4.2795    2.7257 H   0  0  0  0  0  0  0  0  0  0  0  0
   -4.7306   -2.2725   -0.6835 H   0  0  0  0  0  0  0  0  0  0  0  0
    2.4942   -0.3832    1.1021 H   0  0  0  0  0  0  0  0  0  0  0  0
    6.0231   -1.0946    0.0012 H   0  0  0  0  0  0  0  0  0  0  0  0
    7.8008    0.5893    0.1999 H   0  0  0  0  0  0  0  0  0  0  0  0
    5.0417    3.3820    1.9060 H   0  0  0  0  0  0  0  0  0  0  0  0
    3.2206    1.7176    1.7320 H   0  0  0  0  0  0  0  0  0  0  0  0
  1  2  2  0
  2  3  1  0
  3  4  1  0
  4  5  1  0
  5  6  2  0
  5  7  1  0
  7  8  2  0
  8  9  1  0
  9 10  1  0
 10 11  2  0
 11 12  1  0
 12 13  2  0
 13 14  1  0
 14 15  2  0
  9 16  1  0
 16 17  2  0
 17 18  1  0
 18 19  1  0
 19 20  2  0
 20 21  1  0
 21 22  2  0
 22 23  1  0
  2 24  1  0
 24 25  1  0
 25 26  1  0
 26 27  2  0
 27 28  1  0
 28 29  1  0
 28 30  2  0
 30 31  1  0
 17  7  1  0
 23 18  2  0
 31 25  2  0
 15 10  1  0
  3 32  1  0
  3 33  1  0
  4 34  1  0
  8 35  1  0
 11 36  1  0
 12 37  1  0
 13 38  1  0
 14 39  1  0
 15 40  1  0
 19 41  1  0
 20 42  1  0
 21 43  1  0
 23 44  1  0
 24 45  1  0
 26 46  1  0
 27 47  1  0
 30 48  1  0
 31 49  1  0
M  END
$$$$
OCNT-2310258
     RDKit          3D

 45 48  0  0  0  0  0  0  0  0999 V2000
   -2.2171    2.0650    0.4372 O   0  0  0  0  0  0  0  0  0  0  0  0
   -2.0395    1.2630   -0.4742 C   0  0  0  0  0  0  0  0  0  0  0  0
   -0.8980    1.4332   -1.4683 C   0  0  0  0  0  0  0  0  0  0  0  0
    0.3033    0.6569   -1.0508 C   0  0  0  0  0  0  0  0  0  0  0  0
    0.6246   -0.6499   -1.3635 C   0  0  0  0  0  0  0  0  0  0  0  0
    1.8236   -0.9396   -0.7451 N   0  0  0  0  0  0  0  0  0  0  0  0
    2.5387   -2.1716   -0.7467 C   0  0  0  0  0  0  0  0  0  0  0  0
    3.7469   -2.2630   -0.0364 C   0  0  0  0  0  0  0  0  0  0  0  0
    4.4633   -3.4620   -0.0143 C   0  0  0  0  0  0  0  0  0  0  0  0
    3.9818   -4.5769   -0.6996 C   0  0  0  0  0  0  0  0  0  0  0  0
    2.7838   -4.4949   -1.4090 C   0  0  0  0  0  0  0  0  0  0  0  0
    2.0603   -3.2975   -1.4352 C   0  0  0  0  0  0  0  0  0  0  0  0
    2.3016    0.1402   -0.0818 N   0  0  0  0  0  0  0  0  0  0  0  0
    1.3870    1.1002   -0.2459 C   0  0  0  0  0  0  0  0  0  0  0  0
    1.5783    2.4151    0.3450 C   0  0  0  0  0  0  0  0  0  0  0  0
    2.3501    3.3758   -0.3267 C   0  0  0  0  0  0  0  0  0  0  0  0
    2.5161    4.6470    0.2265 C   0  0  0  0  0  0  0  0  0  0  0  0
    1.9179    4.9465    1.4480 C   0  0  0  0  0  0  0  0  0  0  0  0
    2.0783    6.1675    1.9766 F   0  0  0  0  0  0  0  0  0  0  0  0
    1.1547    4.0004    2.1273 C   0  0  0  0  0  0  0  0  0  0  0  0
    0.9811    2.7298    1.5740 C   0  0  0  0  0  0  0  0  0  0  0  0
   -2.8046    0.1335   -0.7237 N   0  0  0  0  0  0  0  0  0  0  0  0
   -3.8970   -0.3337    0.0344 C   0  0  0  0  0  0  0  0  0  0  0  0
   -4.5030   -1.5250   -0.3754 C   0  0  0  0  0  0  0  0  0  0  0  0
   -5.5750   -2.0465    0.3440 C   0  0  0  0  0  0  0  0  0  0  0  0
   -6.0147   -1.3532    1.4580 C   0  0  0  0  0  0  0  0  0  0  0  0
   -5.4639   -0.1980    1.8840 N   0  0  0  0  0  0  0  0  0  0  0  0
   -4.4188    0.2877    1.1655 C   0  0  0  0  0  0  0  0  0  0  0  0
   -0.6701    2.5026   -1.5475 H   0  0  0  0  0  0  0  0  0  0  0  0
   -1.2280    1.1192   -2.4659 H   0  0  0  0  0  0  0  0  0  0  0  0
    0.1019   -1.3831   -1.9578 H   0  0  0  0  0  0  0  0  0  0  0  0
    4.1421   -1.4060    0.5099 H   0  0  0  0  0  0  0  0  0  0  0  0
    5.3963   -3.5227    0.5414 H   0  0  0  0  0  0  0  0  0  0  0  0
    4.5401   -5.5098   -0.6804 H   0  0  0  0  0  0  0  0  0  0  0  0
    2.4126   -5.3689   -1.9421 H   0  0  0  0  0  0  0  0  0  0  0  0
    1.1337   -3.2828   -2.0001 H   0  0  0  0  0  0  0  0  0  0  0  0
    2.8225    3.1341   -1.2771 H   0  0  0  0  0  0  0  0  0  0  0  0
    3.1059    5.4026   -0.2853 H   0  0  0  0  0  0  0  0  0  0  0  0
    0.6966    4.2567    3.0785 H   0  0  0  0  0  0  0  0  0  0  0  0
    0.3781    1.9916    2.1013 H   0  0  0  0  0  0  0  0  0  0  0  0
   -2.5245   -0.4473   -1.5039 H   0  0  0  0  0  0  0  0  0  0  0  0
   -4.1505   -2.0620   -1.2507 H   0  0  0  0  0  0  0  0  0  0  0  0
   -6.0537   -2.9715    0.0433 H   0  0  0  0  0  0  0  0  0  0  0  0
   -6.8435   -1.7197    2.0548 H   0  0  0  0  0  0  0  0  0  0  0  0
   -4.0194    1.2173    1.5597 H   0  0  0  0  0  0  0  0  0  0  0  0
  1  2  2  0
  2  3  1  0
  3  4  1  0
  4  5  2  0
  5  6  1  0
  6  7  1  0
  7  8  2  0
  8  9  1  0
  9 10  2  0
 10 11  1  0
 11 12  2  0
  6 13  1  0
 13 14  2  0
 14 15  1  0
 15 16  1  0
 16 17  2  0
 17 18  1  0
 18 19  1  0
 18 20  2  0
 20 21  1  0
  2 22  1  0
 22 23  1  0
 23 24  1  0
 24 25  2  0
 25 26  1  0
 26 27  2  0
 27 28  1  0
 14  4  1  0
 21 15  2  0
 28 23  2  0
 12  7  1  0
  3 29  1  0
  3 30  1  0
  5 31  1  0
  8 32  1  0
  9 33  1  0
 10 34  1  0
 11 35  1  0
 12 36  1  0
 16 37  1  0
 17 38  1  0
 20 39  1  0
 21 40  1  0
 22 41  1  0
 24 42  1  0
 25 43  1  0
 26 44  1  0
 28 45  1  0
M  END
$$$$
OCNT-2310262
     RDKit          3D

 37 39  0  0  0  0  0  0  0  0999 V2000
   -2.1778    1.8361   -1.5051 O   0  0  0  0  0  0  0  0  0  0  0  0
   -1.9401    0.8143   -0.8654 C   0  0  0  0  0  0  0  0  0  0  0  0
   -3.0329    0.2539   -0.0417 C   0  0  0  0  0  0  0  0  0  0  0  0
   -3.6865    1.0866    0.8726 C   0  0  0  0  0  0  0  0  0  0  0  0
   -4.7387    0.5832    1.6380 C   0  0  0  0  0  0  0  0  0  0  0  0
   -5.1444   -0.7434    1.4775 C   0  0  0  0  0  0  0  0  0  0  0  0
   -4.5028   -1.5594    0.5440 C   0  0  0  0  0  0  0  0  0  0  0  0
   -5.0673   -3.3496    0.3202 Br  0  0  0  0  0  0  0  0  0  0  0  0
   -3.4519   -1.0676   -0.2264 C   0  0  0  0  0  0  0  0  0  0  0  0
   -0.7126    0.1491   -0.9000 N   0  0  0  0  0  0  0  0  0  0  0  0
   -0.2063   -0.6215    0.2531 C   0  0  0  0  0  0  0  0  0  0  0  0
    0.9349   -1.5845   -0.1318 C   0  0  0  0  0  0  0  0  0  0  0  0
    1.9965   -0.9185   -0.9182 N   0  0  0  0  0  0  0  0  0  0  0  0
    2.9221   -0.1881   -0.1610 C   0  0  0  0  0  0  0  0  0  0  0  0
    4.0777    0.3165   -0.7657 C   0  0  0  0  0  0  0  0  0  0  0  0
    5.0135    1.0319   -0.0149 C   0  0  0  0  0  0  0  0  0  0  0  0
    4.7839    1.2228    1.3364 C   0  0  0  0  0  0  0  0  0  0  0  0
    5.8995    2.0918    2.3056 Cl  0  0  0  0  0  0  0  0  0  0  0  0
    3.6330    0.6830    1.8780 C   0  0  0  0  0  0  0  0  0  0  0  0
    2.7137   -0.0148    1.1636 N   0  0  0  0  0  0  0  0  0  0  0  0
    1.4515   -0.2191   -2.1029 C   0  0  0  0  0  0  0  0  0  0  0  0
    0.3375    0.7706   -1.7167 C   0  0  0  0  0  0  0  0  0  0  0  0
   -3.3783    2.1242    0.9824 H   0  0  0  0  0  0  0  0  0  0  0  0
   -5.2472    1.2260    2.3527 H   0  0  0  0  0  0  0  0  0  0  0  0
   -5.9672   -1.1273    2.0759 H   0  0  0  0  0  0  0  0  0  0  0  0
   -2.9652   -1.6944   -0.9683 H   0  0  0  0  0  0  0  0  0  0  0  0
   -1.0075   -1.1956    0.7230 H   0  0  0  0  0  0  0  0  0  0  0  0
    0.1261    0.1124    0.9959 H   0  0  0  0  0  0  0  0  0  0  0  0
    0.5148   -2.3817   -0.7594 H   0  0  0  0  0  0  0  0  0  0  0  0
    1.3386   -2.0882    0.7553 H   0  0  0  0  0  0  0  0  0  0  0  0
    4.2749    0.1311   -1.8165 H   0  0  0  0  0  0  0  0  0  0  0  0
    5.9099    1.4188   -0.4896 H   0  0  0  0  0  0  0  0  0  0  0  0
    3.4022    0.7924    2.9335 H   0  0  0  0  0  0  0  0  0  0  0  0
    1.0291   -0.9801   -2.7718 H   0  0  0  0  0  0  0  0  0  0  0  0
    2.2248    0.2947   -2.6836 H   0  0  0  0  0  0  0  0  0  0  0  0
    0.7474    1.6085   -1.1392 H   0  0  0  0  0  0  0  0  0  0  0  0
   -0.1049    1.1858   -2.6294 H   0  0  0  0  0  0  0  0  0  0  0  0
  1  2  2  0
  2  3  1  0
  3  4  2  0
  4  5  1  0
  5  6  2  0
  6  7  1  0
  7  8  1  0
  7  9  2  0
  2 10  1  0
 10 11  1  0
 11 12  1  0
 12 13  1  0
 13 14  1  0
 14 15  2  0
 15 16  1  0
 16 17  2  0
 17 18  1  0
 17 19  1  0
 19 20  2  0
 13 21  1  0
 21 22  1  0
  9  3  1  0
 22 10  1  0
 20 14  1  0
  4 23  1  0
  5 24  1  0
  6 25  1  0
  9 26  1  0
 11 27  1  0
 11 28  1  0
 12 29  1  0
 12 30  1  0
 15 31  1  0
 16 32  1  0
 19 33  1  0
 21 34  1  0
 21 35  1  0
 22 36  1  0
 22 37  1  0
M  END
$$$$
OCNT-2310292
     RDKit          3D

 39 41  0  0  0  0  0  0  0  0999 V2000
    0.2064   -1.1825    0.9580 O   0  0  0  0  0  0  0  0  0  0  0  0
    0.2212   -0.1677    0.2676 C   0  0  0  0  0  0  0  0  0  0  0  0
    1.3458    0.5840    0.0067 N   0  0  0  0  0  0  0  0  0  0  0  0
    2.6829    0.2422    0.2967 C   0  0  0  0  0  0  0  0  0  0  0  0
    3.0964   -1.0483    0.6375 C   0  0  0  0  0  0  0  0  0  0  0  0
    4.4458   -1.3207    0.8979 C   0  0  0  0  0  0  0  0  0  0  0  0
    5.4057   -0.3046    0.8133 C   0  0  0  0  0  0  0  0  0  0  0  0
    6.8588   -0.5514    1.0828 C   0  0  0  0  0  0  0  0  0  0  0  0
    7.1275   -1.8452    1.4227 F   0  0  0  0  0  0  0  0  0  0  0  0
    7.6492   -0.2871    0.0061 F   0  0  0  0  0  0  0  0  0  0  0  0
    7.3446    0.2023    2.1072 F   0  0  0  0  0  0  0  0  0  0  0  0
    4.9838    0.9732    0.4613 C   0  0  0  0  0  0  0  0  0  0  0  0
    5.8759    1.9682    0.3641 F   0  0  0  0  0  0  0  0  0  0  0  0
    3.6429    1.2530    0.2007 C   0  0  0  0  0  0  0  0  0  0  0  0
   -0.9478    0.3493   -0.2993 N   0  0  0  0  0  0  0  0  0  0  0  0
   -0.9540    1.0518   -1.5896 C   0  0  0  0  0  0  0  0  0  0  0  0
   -2.2559    1.8299   -1.7960 C   0  0  0  0  0  0  0  0  0  0  0  0
   -3.3982    0.9796   -1.6507 O   0  0  0  0  0  0  0  0  0  0  0  0
   -3.4511    0.4157   -0.3221 C   0  0  0  0  0  0  0  0  0  0  0  0
   -4.6994   -0.4131   -0.1456 C   0  0  0  0  0  0  0  0  0  0  0  0
   -5.3287   -1.1312   -1.1479 C   0  0  0  0  0  0  0  0  0  0  0  0
   -6.7127   -1.9709   -0.6004 S   0  0  0  0  0  0  0  0  0  0  0  0
   -6.5016   -1.3883    0.9909 C   0  0  0  0  0  0  0  0  0  0  0  0
   -5.3981   -0.5714    1.0995 C   0  0  0  0  0  0  0  0  0  0  0  0
   -2.1789   -0.4150   -0.0466 C   0  0  0  0  0  0  0  0  0  0  0  0
    1.1681    1.5578   -0.1825 H   0  0  0  0  0  0  0  0  0  0  0  0
    2.3890   -1.8715    0.7021 H   0  0  0  0  0  0  0  0  0  0  0  0
    4.7374   -2.3358    1.1656 H   0  0  0  0  0  0  0  0  0  0  0  0
    3.3734    2.2687   -0.0711 H   0  0  0  0  0  0  0  0  0  0  0  0
   -0.1031    1.7298   -1.6854 H   0  0  0  0  0  0  0  0  0  0  0  0
   -0.8511    0.2802   -2.3624 H   0  0  0  0  0  0  0  0  0  0  0  0
   -2.2805    2.2513   -2.8058 H   0  0  0  0  0  0  0  0  0  0  0  0
   -2.3344    2.6615   -1.0856 H   0  0  0  0  0  0  0  0  0  0  0  0
   -3.4963    1.2549    0.3861 H   0  0  0  0  0  0  0  0  0  0  0  0
   -5.0379   -1.1974   -2.1882 H   0  0  0  0  0  0  0  0  0  0  0  0
   -7.1958   -1.6720    1.7701 H   0  0  0  0  0  0  0  0  0  0  0  0
   -5.1021   -0.1078    2.0334 H   0  0  0  0  0  0  0  0  0  0  0  0
   -2.1839   -0.7782    0.9882 H   0  0  0  0  0  0  0  0  0  0  0  0
   -2.1431   -1.2936   -0.7046 H   0  0  0  0  0  0  0  0  0  0  0  0
  1  2  2  0
  2  3  1  0
  3  4  1  0
  4  5  1  0
  5  6  2  0
  6  7  1  0
  7  8  1  0
  8  9  1  0
  8 10  1  0
  8 11  1  0
  7 12  2  0
 12 13  1  0
 12 14  1  0
  2 15  1  0
 15 16  1  0
 16 17  1  0
 17 18  1  0
 18 19  1  0
 19 20  1  0
 20 21  2  0
 21 22  1  0
 22 23  1  0
 23 24  2  0
 19 25  1  0
 14  4  2  0
 25 15  1  0
 24 20  1  0
  3 26  1  0
  5 27  1  0
  6 28  1  0
 14 29  1  0
 16 30  1  0
 16 31  1  0
 17 32  1  0
 17 33  1  0
 19 34  1  0
 21 35  1  0
 23 36  1  0
 24 37  1  0
 25 38  1  0
 25 39  1  0
M  END
$$$$
OCNT-2310303
     RDKit          3D

 42 44  0  0  0  0  0  0  0  0999 V2000
    4.9261   -1.2114    1.1281 C   0  0  0  0  0  0  0  0  0  0  0  0
    3.6801   -0.4242    0.6623 C   0  0  0  0  0  0  0  0  0  0  0  0
    3.6906    0.9149    1.4254 C   0  0  0  0  0  0  0  0  0  0  0  0
    3.7859   -0.2490   -0.7947 N   0  0  0  0  0  0  0  0  0  0  0  0
    2.9626    0.5602   -1.5195 C   0  0  0  0  0  0  0  0  0  0  0  0
    3.1035    0.3776   -2.8587 N   0  0  0  0  0  0  0  0  0  0  0  0
    2.1988    1.4079   -1.0844 O   0  0  0  0  0  0  0  0  0  0  0  0
    2.4382   -1.2444    0.9178 C   0  0  0  0  0  0  0  0  0  0  0  0
    1.2448   -0.9181    1.5283 C   0  0  0  0  0  0  0  0  0  0  0  0
    0.4750   -2.0375    1.3952 N   0  0  0  0  0  0  0  0  0  0  0  0
   -0.8545   -2.3091    1.9155 C   0  0  0  0  0  0  0  0  0  0  0  0
   -1.7801   -1.1530    1.7242 C   0  0  0  0  0  0  0  0  0  0  0  0
   -2.3303   -0.8170    0.5763 N   0  0  0  0  0  0  0  0  0  0  0  0
   -3.1212    0.3105    0.7261 C   0  0  0  0  0  0  0  0  0  0  0  0
   -3.8135    0.9019   -0.4083 C   0  0  0  0  0  0  0  0  0  0  0  0
   -4.3778    0.0933   -1.4008 C   0  0  0  0  0  0  0  0  0  0  0  0
   -4.3401   -1.2450   -1.3057 F   0  0  0  0  0  0  0  0  0  0  0  0
   -5.0268    0.6443   -2.5078 C   0  0  0  0  0  0  0  0  0  0  0  0
   -5.1240    2.0273   -2.6420 C   0  0  0  0  0  0  0  0  0  0  0  0
   -4.5716    2.8511   -1.6635 C   0  0  0  0  0  0  0  0  0  0  0  0
   -3.9258    2.2878   -0.5620 C   0  0  0  0  0  0  0  0  0  0  0  0
   -3.4070    3.1248    0.3512 F   0  0  0  0  0  0  0  0  0  0  0  0
   -3.1855    0.7982    2.0170 C   0  0  0  0  0  0  0  0  0  0  0  0
   -2.2299   -0.1666    3.0624 S   0  0  0  0  0  0  0  0  0  0  0  0
    1.1703   -3.0294    0.8023 N   0  0  0  0  0  0  0  0  0  0  0  0
    2.3601   -2.5468    0.4768 N   0  0  0  0  0  0  0  0  0  0  0  0
    5.8450   -0.6460    0.9320 H   0  0  0  0  0  0  0  0  0  0  0  0
    5.0225   -2.1692    0.6010 H   0  0  0  0  0  0  0  0  0  0  0  0
    4.8843   -1.4307    2.2021 H   0  0  0  0  0  0  0  0  0  0  0  0
    2.8023    1.5239    1.2310 H   0  0  0  0  0  0  0  0  0  0  0  0
    3.7240    0.7505    2.5099 H   0  0  0  0  0  0  0  0  0  0  0  0
    4.5652    1.5162    1.1497 H   0  0  0  0  0  0  0  0  0  0  0  0
    4.0576   -1.0887   -1.2834 H   0  0  0  0  0  0  0  0  0  0  0  0
    2.4193    0.8979   -3.3935 H   0  0  0  0  0  0  0  0  0  0  0  0
    3.2688   -0.5583   -3.1939 H   0  0  0  0  0  0  0  0  0  0  0  0
    0.8903   -0.0063    1.9857 H   0  0  0  0  0  0  0  0  0  0  0  0
   -0.7298   -2.5821    2.9694 H   0  0  0  0  0  0  0  0  0  0  0  0
   -1.2493   -3.1811    1.3821 H   0  0  0  0  0  0  0  0  0  0  0  0
   -5.4545   -0.0172   -3.2561 H   0  0  0  0  0  0  0  0  0  0  0  0
   -5.6286    2.4592   -3.5020 H   0  0  0  0  0  0  0  0  0  0  0  0
   -4.6339    3.9314   -1.7511 H   0  0  0  0  0  0  0  0  0  0  0  0
   -3.7310    1.6522    2.3941 H   0  0  0  0  0  0  0  0  0  0  0  0
  1  2  1  0
  2  3  1  0
  2  4  1  0
  4  5  1  0
  5  6  1  0
  5  7  2  0
  2  8  1  0
  8  9  2  0
  9 10  1  0
 10 11  1  0
 11 12  1  0
 12 13  2  0
 13 14  1  0
 14 15  1  0
 15 16  2  0
 16 17  1  0
 16 18  1  0
 18 19  2  0
 19 20  1  0
 20 21  2  0
 21 22  1  0
 14 23  2  0
 23 24  1  0
 10 25  1  0
 25 26  2  0
 26  8  1  0
 24 12  1  0
 21 15  1  0
  1 27  1  0
  1 28  1  0
  1 29  1  0
  3 30  1  0
  3 31  1  0
  3 32  1  0
  4 33  1  0
  6 34  1  0
  6 35  1  0
  9 36  1  0
 11 37  1  0
 11 38  1  0
 18 39  1  0
 19 40  1  0
 20 41  1  0
 23 42  1  0
M  END
$$$$
OCNT-2310304
     RDKit          3D

 43 46  0  0  0  0  0  0  0  0999 V2000
    4.1200    2.7155    2.4128 C   0  0  0  0  0  0  0  0  0  0  0  0
    3.4916    1.9186    1.3117 C   0  0  0  0  0  0  0  0  0  0  0  0
    2.2822    2.3012    0.7772 C   0  0  0  0  0  0  0  0  0  0  0  0
    1.7943    1.4931   -0.2224 C   0  0  0  0  0  0  0  0  0  0  0  0
    0.6130    1.8491   -0.8374 O   0  0  0  0  0  0  0  0  0  0  0  0
   -0.5396    1.3040   -0.3258 C   0  0  0  0  0  0  0  0  0  0  0  0
   -1.7208    1.9805   -0.6207 C   0  0  0  0  0  0  0  0  0  0  0  0
   -2.9327    1.4941   -0.1348 C   0  0  0  0  0  0  0  0  0  0  0  0
   -2.9207    0.3274    0.6208 C   0  0  0  0  0  0  0  0  0  0  0  0
   -4.0834   -0.1689    1.1719 O   0  0  0  0  0  0  0  0  0  0  0  0
   -5.0803   -0.5009    0.2825 C   0  0  0  0  0  0  0  0  0  0  0  0
   -4.8462   -1.2852   -0.8496 C   0  0  0  0  0  0  0  0  0  0  0  0
   -5.9071   -1.6136   -1.6947 C   0  0  0  0  0  0  0  0  0  0  0  0
   -7.1979   -1.1712   -1.4013 C   0  0  0  0  0  0  0  0  0  0  0  0
   -7.4323   -0.4046   -0.2599 C   0  0  0  0  0  0  0  0  0  0  0  0
   -6.3750   -0.0764    0.5891 C   0  0  0  0  0  0  0  0  0  0  0  0
   -1.7945   -0.3494    0.9296 N   0  0  0  0  0  0  0  0  0  0  0  0
   -0.6317    0.1436    0.4361 C   0  0  0  0  0  0  0  0  0  0  0  0
    2.4245    0.4083   -0.7036 N   0  0  0  0  0  0  0  0  0  0  0  0
    3.5989    0.1107   -0.1247 C   0  0  0  0  0  0  0  0  0  0  0  0
    4.3320   -1.0637   -0.6154 C   0  0  0  0  0  0  0  0  0  0  0  0
    5.5467   -1.4863   -0.0518 C   0  0  0  0  0  0  0  0  0  0  0  0
    6.2170   -2.6034   -0.5513 C   0  0  0  0  0  0  0  0  0  0  0  0
    5.6542   -3.2828   -1.6162 C   0  0  0  0  0  0  0  0  0  0  0  0
    4.4924   -2.9238   -2.1966 N   0  0  0  0  0  0  0  0  0  0  0  0
    3.8645   -1.8322   -1.6832 C   0  0  0  0  0  0  0  0  0  0  0  0
    4.1534    0.8261    0.8778 N   0  0  0  0  0  0  0  0  0  0  0  0
    4.2557    3.7540    2.0964 H   0  0  0  0  0  0  0  0  0  0  0  0
    5.1024    2.3117    2.6789 H   0  0  0  0  0  0  0  0  0  0  0  0
    3.4864    2.6913    3.3047 H   0  0  0  0  0  0  0  0  0  0  0  0
    1.7484    3.1798    1.1127 H   0  0  0  0  0  0  0  0  0  0  0  0
   -1.7003    2.8853   -1.2208 H   0  0  0  0  0  0  0  0  0  0  0  0
   -3.8604    2.0161   -0.3396 H   0  0  0  0  0  0  0  0  0  0  0  0
   -3.8487   -1.6573   -1.0698 H   0  0  0  0  0  0  0  0  0  0  0  0
   -5.7279   -2.2251   -2.5769 H   0  0  0  0  0  0  0  0  0  0  0  0
   -8.0229   -1.4361   -2.0580 H   0  0  0  0  0  0  0  0  0  0  0  0
   -8.4404   -0.0689   -0.0258 H   0  0  0  0  0  0  0  0  0  0  0  0
   -6.5583    0.5090    1.4863 H   0  0  0  0  0  0  0  0  0  0  0  0
    0.2377   -0.4569    0.6825 H   0  0  0  0  0  0  0  0  0  0  0  0
    5.9798   -0.9416    0.7850 H   0  0  0  0  0  0  0  0  0  0  0  0
    7.1556   -2.9304   -0.1181 H   0  0  0  0  0  0  0  0  0  0  0  0
    6.1380   -4.1560   -2.0430 H   0  0  0  0  0  0  0  0  0  0  0  0
    2.9324   -1.5847   -2.1867 H   0  0  0  0  0  0  0  0  0  0  0  0
  1  2  1  0
  2  3  1  0
  3  4  2  0
  4  5  1  0
  5  6  1  0
  6  7  2  0
  7  8  1  0
  8  9  2  0
  9 10  1  0
 10 11  1  0
 11 12  2  0
 12 13  1  0
 13 14  2  0
 14 15  1  0
 15 16  2  0
  9 17  1  0
 17 18  2  0
  4 19  1  0
 19 20  2  0
 20 21  1  0
 21 22  1  0
 22 23  2  0
 23 24  1  0
 24 25  2  0
 25 26  1  0
 20 27  1  0
 27  2  2  0
 18  6  1  0
 26 21  2  0
 16 11  1  0
  1 28  1  0
  1 29  1  0
  1 30  1  0
  3 31  1  0
  7 32  1  0
  8 33  1  0
 12 34  1  0
 13 35  1  0
 14 36  1  0
 15 37  1  0
 16 38  1  0
 18 39  1  0
 22 40  1  0
 23 41  1  0
 24 42  1  0
 26 43  1  0
M  END
$$$$
OCNT-2310310
     RDKit          3D

 47 49  0  0  0  0  0  0  0  0999 V2000
    4.8315   -1.7392    0.3110 C   0  0  0  0  0  0  0  0  0  0  0  0
    4.0695   -0.5843   -0.3552 C   0  0  0  0  0  0  0  0  0  0  0  0
    4.1857   -0.6412   -1.8900 C   0  0  0  0  0  0  0  0  0  0  0  0
    3.3307   -1.7437   -2.5072 C   0  0  0  0  0  0  0  0  0  0  0  0
    1.8977   -1.6718   -1.9937 C   0  0  0  0  0  0  0  0  0  0  0  0
    1.8575   -1.6223   -0.4659 C   0  0  0  0  0  0  0  0  0  0  0  0
    2.6686   -0.5434    0.1229 N   0  0  0  0  0  0  0  0  0  0  0  0
    2.0839    0.7995   -0.0593 C   0  0  0  0  0  0  0  0  0  0  0  0
    0.7337    0.9849    0.6484 C   0  0  0  0  0  0  0  0  0  0  0  0
    0.2861    2.4501    0.6029 C   0  0  0  0  0  0  0  0  0  0  0  0
   -1.0369    2.7007    1.3293 C   0  0  0  0  0  0  0  0  0  0  0  0
   -2.1533    2.1527    0.5722 N   0  0  0  0  0  0  0  0  0  0  0  0
   -2.8195    1.0241    1.1102 C   0  0  0  0  0  0  0  0  0  0  0  0
   -2.1864    0.2680    2.0324 N   0  0  0  0  0  0  0  0  0  0  0  0
   -2.8200   -0.8337    2.4413 C   0  0  0  0  0  0  0  0  0  0  0  0
   -4.0191   -1.2515    2.0235 N   0  0  0  0  0  0  0  0  0  0  0  0
   -4.6243   -0.4829    1.1055 C   0  0  0  0  0  0  0  0  0  0  0  0
   -5.8721   -0.8578    0.6292 C   0  0  0  0  0  0  0  0  0  0  0  0
   -6.5447   -0.0906   -0.3193 C   0  0  0  0  0  0  0  0  0  0  0  0
   -5.9342    1.0606   -0.7704 C   0  0  0  0  0  0  0  0  0  0  0  0
   -4.7264    1.4733   -0.3387 N   0  0  0  0  0  0  0  0  0  0  0  0
   -4.0787    0.6974    0.5830 C   0  0  0  0  0  0  0  0  0  0  0  0
    4.7597   -1.6718    1.4024 H   0  0  0  0  0  0  0  0  0  0  0  0
    4.4628   -2.7239    0.0092 H   0  0  0  0  0  0  0  0  0  0  0  0
    5.8946   -1.6927    0.0496 H   0  0  0  0  0  0  0  0  0  0  0  0
    4.5847    0.3254   -0.0180 H   0  0  0  0  0  0  0  0  0  0  0  0
    5.2323   -0.7831   -2.1850 H   0  0  0  0  0  0  0  0  0  0  0  0
    3.8769    0.3230   -2.3131 H   0  0  0  0  0  0  0  0  0  0  0  0
    3.7579   -2.7244   -2.2668 H   0  0  0  0  0  0  0  0  0  0  0  0
    3.3403   -1.6557   -3.5994 H   0  0  0  0  0  0  0  0  0  0  0  0
    1.3978   -0.7912   -2.4139 H   0  0  0  0  0  0  0  0  0  0  0  0
    1.3397   -2.5466   -2.3471 H   0  0  0  0  0  0  0  0  0  0  0  0
    0.8179   -1.5692   -0.1272 H   0  0  0  0  0  0  0  0  0  0  0  0
    2.2128   -2.5832   -0.0734 H   0  0  0  0  0  0  0  0  0  0  0  0
    2.7750    1.5371    0.3692 H   0  0  0  0  0  0  0  0  0  0  0  0
    1.9765    1.0527   -1.1205 H   0  0  0  0  0  0  0  0  0  0  0  0
    0.8146    0.6608    1.6930 H   0  0  0  0  0  0  0  0  0  0  0  0
   -0.0277    0.3662    0.1639 H   0  0  0  0  0  0  0  0  0  0  0  0
    0.2049    2.7772   -0.4414 H   0  0  0  0  0  0  0  0  0  0  0  0
    1.0580    3.0721    1.0728 H   0  0  0  0  0  0  0  0  0  0  0  0
   -0.9904    2.3549    2.3686 H   0  0  0  0  0  0  0  0  0  0  0  0
   -1.1839    3.7865    1.3867 H   0  0  0  0  0  0  0  0  0  0  0  0
   -2.8621    2.8415    0.3185 H   0  0  0  0  0  0  0  0  0  0  0  0
   -2.3132   -1.4461    3.1792 H   0  0  0  0  0  0  0  0  0  0  0  0
   -6.3298   -1.7693    1.0061 H   0  0  0  0  0  0  0  0  0  0  0  0
   -7.5187   -0.3886   -0.6909 H   0  0  0  0  0  0  0  0  0  0  0  0
   -6.4101    1.6995   -1.5090 H   0  0  0  0  0  0  0  0  0  0  0  0
  1  2  1  0
  2  3  1  0
  3  4  1  0
  4  5  1  0
  5  6  1  0
  6  7  1  0
  7  8  1  0
  8  9  1  0
  9 10  1  0
 10 11  1  0
 11 12  1  0
 12 13  1  0
 13 14  1  0
 14 15  2  0
 15 16  1  0
 16 17  2  0
 17 18  1  0
 18 19  2  0
 19 20  1  0
 20 21  2  0
 21 22  1  0
  7  2  1  0
 22 13  2  0
 22 17  1  0
  1 23  1  0
  1 24  1  0
  1 25  1  0
  2 26  1  0
  3 27  1  0
  3 28  1  0
  4 29  1  0
  4 30  1  0
  5 31  1  0
  5 32  1  0
  6 33  1  0
  6 34  1  0
  8 35  1  0
  8 36  1  0
  9 37  1  0
  9 38  1  0
 10 39  1  0
 10 40  1  0
 11 41  1  0
 11 42  1  0
 12 43  1  0
 15 44  1  0
 18 45  1  0
 19 46  1  0
 20 47  1  0
M  END
$$$$
OCNT-2310311
     RDKit          3D

 45 48  0  0  0  0  0  0  0  0999 V2000
   -4.1437    4.0696   -0.0532 O   0  0  0  0  0  0  0  0  0  0  0  0
   -3.2638    3.0876    0.2961 C   0  0  0  0  0  0  0  0  0  0  0  0
   -2.0743    3.3837    0.9512 C   0  0  0  0  0  0  0  0  0  0  0  0
   -1.1986    2.3473    1.2800 C   0  0  0  0  0  0  0  0  0  0  0  0
   -1.5086    1.0159    0.9548 C   0  0  0  0  0  0  0  0  0  0  0  0
   -0.5494   -0.0826    1.3530 C   0  0  0  0  0  0  0  0  0  0  0  0
   -0.7688   -1.3926    0.5678 C   0  0  0  0  0  0  0  0  0  0  0  0
    0.0135   -2.5217    1.1071 N   0  0  0  0  0  0  0  0  0  0  0  0
    1.4647   -2.3964    0.9330 C   0  0  0  0  0  0  0  0  0  0  0  0
    1.8425   -2.5449   -0.5033 C   0  0  0  0  0  0  0  0  0  0  0  0
    1.8555   -3.7034   -1.2553 C   0  0  0  0  0  0  0  0  0  0  0  0
    2.2496   -3.3426   -2.5084 N   0  0  0  0  0  0  0  0  0  0  0  0
    2.4762   -2.0314   -2.6420 N   0  0  0  0  0  0  0  0  0  0  0  0
    2.2643   -1.5278   -1.4167 C   0  0  0  0  0  0  0  0  0  0  0  0
    2.4463   -0.1072   -1.1500 C   0  0  0  0  0  0  0  0  0  0  0  0
    3.4649    0.3246   -0.2925 C   0  0  0  0  0  0  0  0  0  0  0  0
    3.6127    1.6838   -0.0098 C   0  0  0  0  0  0  0  0  0  0  0  0
    2.7410    2.6155   -0.5777 C   0  0  0  0  0  0  0  0  0  0  0  0
    1.7280    2.1923   -1.4347 C   0  0  0  0  0  0  0  0  0  0  0  0
    1.5844    0.8343   -1.7282 C   0  0  0  0  0  0  0  0  0  0  0  0
   -2.2616   -1.7536    0.6297 C   0  0  0  0  0  0  0  0  0  0  0  0
   -3.0973   -0.6827   -0.0740 C   0  0  0  0  0  0  0  0  0  0  0  0
   -2.7274    0.7259    0.3145 C   0  0  0  0  0  0  0  0  0  0  0  0
   -3.5936    1.7757   -0.0251 C   0  0  0  0  0  0  0  0  0  0  0  0
   -3.8117    4.9159    0.2915 H   0  0  0  0  0  0  0  0  0  0  0  0
   -1.8092    4.4040    1.2090 H   0  0  0  0  0  0  0  0  0  0  0  0
   -0.2670    2.5813    1.7920 H   0  0  0  0  0  0  0  0  0  0  0  0
   -0.6778   -0.2648    2.4286 H   0  0  0  0  0  0  0  0  0  0  0  0
    0.4751    0.2728    1.2018 H   0  0  0  0  0  0  0  0  0  0  0  0
   -0.5186   -1.2358   -0.4887 H   0  0  0  0  0  0  0  0  0  0  0  0
   -0.2873   -3.3886    0.6568 H   0  0  0  0  0  0  0  0  0  0  0  0
    1.8463   -1.4677    1.3719 H   0  0  0  0  0  0  0  0  0  0  0  0
    1.9406   -3.2076    1.5021 H   0  0  0  0  0  0  0  0  0  0  0  0
    1.6154   -4.7280   -1.0106 H   0  0  0  0  0  0  0  0  0  0  0  0
    2.3714   -3.9357   -3.3224 H   0  0  0  0  0  0  0  0  0  0  0  0
    4.1527   -0.3935    0.1538 H   0  0  0  0  0  0  0  0  0  0  0  0
    4.4066    2.0154    0.6557 H   0  0  0  0  0  0  0  0  0  0  0  0
    2.8552    3.6728   -0.3546 H   0  0  0  0  0  0  0  0  0  0  0  0
    1.0477    2.9147   -1.8750 H   0  0  0  0  0  0  0  0  0  0  0  0
    0.7935    0.5105   -2.4009 H   0  0  0  0  0  0  0  0  0  0  0  0
   -2.4534   -2.7208    0.1499 H   0  0  0  0  0  0  0  0  0  0  0  0
   -2.5830   -1.8469    1.6758 H   0  0  0  0  0  0  0  0  0  0  0  0
   -4.1563   -0.8651    0.1455 H   0  0  0  0  0  0  0  0  0  0  0  0
   -2.9646   -0.7785   -1.1588 H   0  0  0  0  0  0  0  0  0  0  0  0
   -4.5318    1.5763   -0.5371 H   0  0  0  0  0  0  0  0  0  0  0  0
  1  2  1  0
  2  3  1  0
  3  4  2  0
  4  5  1  0
  5  6  1  0
  6  7  1  0
  7  8  1  0
  8  9  1  0
  9 10  1  0
 10 11  2  0
 11 12  1  0
 12 13  1  0
 13 14  2  0
 14 15  1  0
 15 16  2  0
 16 17  1  0
 17 18  2  0
 18 19  1  0
 19 20  2  0
  7 21  1  0
 21 22  1  0
 22 23  1  0
 23 24  1  0
 24  2  2  0
 23  5  2  0
 14 10  1  0
 20 15  1  0
  1 25  1  0
  3 26  1  0
  4 27  1  0
  6 28  1  0
  6 29  1  0
  7 30  1  0
  8 31  1  0
  9 32  1  0
  9 33  1  0
 11 34  1  0
 12 35  1  0
 16 36  1  0
 17 37  1  0
 18 38  1  0
 19 39  1  0
 20 40  1  0
 21 41  1  0
 21 42  1  0
 22 43  1  0
 22 44  1  0
 24 45  1  0
M  END
$$$$
OCNT-2310312
     RDKit          3D

 56 61  0  0  0  0  0  0  0  0999 V2000
    3.2098    0.7275   -3.0505 C   0  0  0  0  0  0  0  0  0  0  0  0
    3.1709   -0.3564   -1.9669 C   0  0  0  0  0  0  0  0  0  0  0  0
    4.1901   -0.0569   -0.9164 C   0  0  0  0  0  0  0  0  0  0  0  0
    3.9645    0.5782    0.2832 C   0  0  0  0  0  0  0  0  0  0  0  0
    2.5889    0.9899    0.6376 C   0  0  0  0  0  0  0  0  0  0  0  0
    1.6079   -0.0514    0.0682 C   0  0  0  0  0  0  0  0  0  0  0  0
    1.8201   -0.4378   -1.3535 N   0  0  0  0  0  0  0  0  0  0  0  0
    0.8463   -1.0978   -2.1050 C   0  0  0  0  0  0  0  0  0  0  0  0
    1.0052   -1.4971   -3.2549 O   0  0  0  0  0  0  0  0  0  0  0  0
   -0.4729   -1.3431   -1.4955 C   0  0  0  0  0  0  0  0  0  0  0  0
   -0.6280   -2.4038   -0.5729 C   0  0  0  0  0  0  0  0  0  0  0  0
   -1.8792   -2.6706   -0.0079 C   0  0  0  0  0  0  0  0  0  0  0  0
   -2.9329   -1.8668   -0.4024 C   0  0  0  0  0  0  0  0  0  0  0  0
   -4.3394   -1.8888   -0.0029 C   0  0  0  0  0  0  0  0  0  0  0  0
   -4.8088   -2.6684    0.8036 O   0  0  0  0  0  0  0  0  0  0  0  0
   -4.9540   -0.8861   -0.6993 N   0  0  0  0  0  0  0  0  0  0  0  0
   -6.3478   -0.5355   -0.5477 C   0  0  0  0  0  0  0  0  0  0  0  0
   -6.5427    0.4715    0.5582 C   0  0  0  0  0  0  0  0  0  0  0  0
   -6.4654    1.8430    0.2981 C   0  0  0  0  0  0  0  0  0  0  0  0
   -6.6182    2.7282    1.3532 C   0  0  0  0  0  0  0  0  0  0  0  0
   -6.8329    2.3452    2.6299 N   0  0  0  0  0  0  0  0  0  0  0  0
   -6.8934    1.0168    2.8626 C   0  0  0  0  0  0  0  0  0  0  0  0
   -6.7530    0.0541    1.8759 C   0  0  0  0  0  0  0  0  0  0  0  0
   -4.0793   -0.2055   -1.4994 C   0  0  0  0  0  0  0  0  0  0  0  0
   -4.2819    0.7476   -2.2267 O   0  0  0  0  0  0  0  0  0  0  0  0
   -2.7745   -0.8387   -1.3182 C   0  0  0  0  0  0  0  0  0  0  0  0
   -1.5542   -0.5490   -1.8938 C   0  0  0  0  0  0  0  0  0  0  0  0
    5.2017    0.6840    0.9663 C   0  0  0  0  0  0  0  0  0  0  0  0
    5.6055    1.2219    2.2033 C   0  0  0  0  0  0  0  0  0  0  0  0
    6.9528    1.1494    2.5757 C   0  0  0  0  0  0  0  0  0  0  0  0
    7.8913    0.5516    1.7373 C   0  0  0  0  0  0  0  0  0  0  0  0
    7.5153    0.0088    0.5050 C   0  0  0  0  0  0  0  0  0  0  0  0
    6.1646    0.0886    0.1453 C   0  0  0  0  0  0  0  0  0  0  0  0
    5.5222   -0.3570   -0.9919 N   0  0  0  0  0  0  0  0  0  0  0  0
    2.9579    1.7117   -2.6380 H   0  0  0  0  0  0  0  0  0  0  0  0
    4.2066    0.7995   -3.5000 H   0  0  0  0  0  0  0  0  0  0  0  0
    2.4976    0.5203   -3.8551 H   0  0  0  0  0  0  0  0  0  0  0  0
    3.3946   -1.3290   -2.4234 H   0  0  0  0  0  0  0  0  0  0  0  0
    2.3818    1.9730    0.1985 H   0  0  0  0  0  0  0  0  0  0  0  0
    2.4595    1.0703    1.7218 H   0  0  0  0  0  0  0  0  0  0  0  0
    1.6927   -0.9795    0.6486 H   0  0  0  0  0  0  0  0  0  0  0  0
    0.5854    0.3193    0.1944 H   0  0  0  0  0  0  0  0  0  0  0  0
    0.2290   -3.0216   -0.3098 H   0  0  0  0  0  0  0  0  0  0  0  0
   -2.0234   -3.4784    0.7028 H   0  0  0  0  0  0  0  0  0  0  0  0
   -6.7221   -0.1258   -1.4935 H   0  0  0  0  0  0  0  0  0  0  0  0
   -6.9261   -1.4416   -0.3313 H   0  0  0  0  0  0  0  0  0  0  0  0
   -6.2805    2.2193   -0.7040 H   0  0  0  0  0  0  0  0  0  0  0  0
   -6.5659    3.8015    1.1941 H   0  0  0  0  0  0  0  0  0  0  0  0
   -7.0592    0.7350    3.8985 H   0  0  0  0  0  0  0  0  0  0  0  0
   -6.7980   -0.9996    2.1350 H   0  0  0  0  0  0  0  0  0  0  0  0
   -1.4428    0.2487   -2.6211 H   0  0  0  0  0  0  0  0  0  0  0  0
    4.8827    1.6911    2.8636 H   0  0  0  0  0  0  0  0  0  0  0  0
    7.2684    1.5653    3.5294 H   0  0  0  0  0  0  0  0  0  0  0  0
    8.9334    0.5059    2.0453 H   0  0  0  0  0  0  0  0  0  0  0  0
    8.2498   -0.4561   -0.1445 H   0  0  0  0  0  0  0  0  0  0  0  0
    5.9800   -0.8253   -1.7620 H   0  0  0  0  0  0  0  0  0  0  0  0
  1  2  1  0
  2  3  1  0
  3  4  2  0
  4  5  1  0
  5  6  1  0
  6  7  1  0
  7  8  1  0
  8  9  2  0
  8 10  1  0
 10 11  1  0
 11 12  2  0
 12 13  1  0
 13 14  1  0
 14 15  2  0
 14 16  1  0
 16 17  1  0
 17 18  1  0
 18 19  2  0
 19 20  1  0
 20 21  2  0
 21 22  1  0
 22 23  2  0
 16 24  1  0
 24 25  2  0
 24 26  1  0
 26 27  1  0
  4 28  1  0
 28 29  2  0
 29 30  1  0
 30 31  2  0
 31 32  1  0
 32 33  2  0
 33 34  1  0
  7  2  1  0
 27 10  2  0
 33 28  1  0
 34  3  1  0
 26 13  2  0
 23 18  1  0
  1 35  1  0
  1 36  1  0
  1 37  1  0
  2 38  1  0
  5 39  1  0
  5 40  1  0
  6 41  1  0
  6 42  1  0
 11 43  1  0
 12 44  1  0
 17 45  1  0
 17 46  1  0
 19 47  1  0
 20 48  1  0
 22 49  1  0
 23 50  1  0
 27 51  1  0
 29 52  1  0
 30 53  1  0
 31 54  1  0
 32 55  1  0
 34 56  1  0
M  END
$$$$
OCNT-2310324
     RDKit          3D

 37 40  0  0  0  0  0  0  0  0999 V2000
    1.6144   -2.1711   -1.1986 O   0  0  0  0  0  0  0  0  0  0  0  0
    1.9810   -1.0105   -1.0381 C   0  0  0  0  0  0  0  0  0  0  0  0
    1.3974    0.0496   -1.6858 N   0  0  0  0  0  0  0  0  0  0  0  0
    0.2403   -0.1105   -2.5346 C   0  0  0  0  0  0  0  0  0  0  0  0
   -1.0274    0.1747   -1.7823 C   0  0  0  0  0  0  0  0  0  0  0  0
   -1.6448   -0.8135   -1.0108 C   0  0  0  0  0  0  0  0  0  0  0  0
   -2.8172   -0.5290   -0.2982 C   0  0  0  0  0  0  0  0  0  0  0  0
   -3.4137    0.7457   -0.3211 C   0  0  0  0  0  0  0  0  0  0  0  0
   -4.6821    1.0956    0.4358 C   0  0  0  0  0  0  0  0  0  0  0  0
   -5.7897    0.0868    0.6206 C   0  0  0  0  0  0  0  0  0  0  0  0
   -4.9629    0.5133    1.8000 C   0  0  0  0  0  0  0  0  0  0  0  0
   -2.7689    1.7256   -1.0947 C   0  0  0  0  0  0  0  0  0  0  0  0
   -1.6014    1.4430   -1.8039 C   0  0  0  0  0  0  0  0  0  0  0  0
   -1.0253    2.4245   -2.5135 F   0  0  0  0  0  0  0  0  0  0  0  0
    3.0642   -0.6664   -0.1354 C   0  0  0  0  0  0  0  0  0  0  0  0
    3.6529    0.5602    0.1724 C   0  0  0  0  0  0  0  0  0  0  0  0
    4.6460    0.2417    1.1114 C   0  0  0  0  0  0  0  0  0  0  0  0
    4.6759   -1.0796    1.3662 C   0  0  0  0  0  0  0  0  0  0  0  0
    5.6875   -1.3426    2.3108 C   0  0  0  0  0  0  0  0  0  0  0  0
    6.2062   -0.0899    2.5553 C   0  0  0  0  0  0  0  0  0  0  0  0
    5.5894    0.8942    1.8367 O   0  0  0  0  0  0  0  0  0  0  0  0
    3.7043   -1.6589    0.6013 N   0  0  0  0  0  0  0  0  0  0  0  0
    1.6545    0.9891   -1.4257 H   0  0  0  0  0  0  0  0  0  0  0  0
    0.2102   -1.1217   -2.9564 H   0  0  0  0  0  0  0  0  0  0  0  0
    0.3551    0.5812   -3.3764 H   0  0  0  0  0  0  0  0  0  0  0  0
   -1.2144   -1.8126   -0.9542 H   0  0  0  0  0  0  0  0  0  0  0  0
   -3.2656   -1.3277    0.2892 H   0  0  0  0  0  0  0  0  0  0  0  0
   -5.0242    2.1226    0.3023 H   0  0  0  0  0  0  0  0  0  0  0  0
   -6.8117    0.4450    0.5607 H   0  0  0  0  0  0  0  0  0  0  0  0
   -5.6627   -0.9201    0.2415 H   0  0  0  0  0  0  0  0  0  0  0  0
   -5.4257    1.1600    2.5376 H   0  0  0  0  0  0  0  0  0  0  0  0
   -4.2696   -0.2016    2.2266 H   0  0  0  0  0  0  0  0  0  0  0  0
   -3.1739    2.7325   -1.1502 H   0  0  0  0  0  0  0  0  0  0  0  0
    3.4135    1.5387   -0.2152 H   0  0  0  0  0  0  0  0  0  0  0  0
    5.9969   -2.2800    2.7473 H   0  0  0  0  0  0  0  0  0  0  0  0
    7.0007    0.2607    3.2006 H   0  0  0  0  0  0  0  0  0  0  0  0
    3.4907   -2.6491    0.5789 H   0  0  0  0  0  0  0  0  0  0  0  0
  1  2  2  0
  2  3  1  0
  3  4  1  0
  4  5  1  0
  5  6  1  0
  6  7  2  0
  7  8  1  0
  8  9  1  0
  9 10  1  0
 10 11  1  0
  8 12  2  0
 12 13  1  0
 13 14  1  0
  2 15  1  0
 15 16  2  0
 16 17  1  0
 17 18  2  0
 18 19  1  0
 19 20  2  0
 20 21  1  0
 18 22  1  0
 13  5  2  0
 22 15  1  0
 11  9  1  0
 21 17  1  0
  3 23  1  0
  4 24  1  0
  4 25  1  0
  6 26  1  0
  7 27  1  0
  9 28  1  0
 10 29  1  0
 10 30  1  0
 11 31  1  0
 11 32  1  0
 12 33  1  0
 16 34  1  0
 19 35  1  0
 20 36  1  0
 22 37  1  0
M  END
$$$$
OCNT-2310336
     RDKit          3D

  0  0  0  0  0  0  0  0  0  0999 V3000
M  V30 BEGIN CTAB
M  V30 COUNTS 55 58 0 0 0
M  V30 BEGIN ATOM
M  V30 1 O 0.128935 1.468667 2.216010 0
M  V30 2 C -0.117659 0.432843 1.593136 0
M  V30 3 C -1.518753 -0.184516 1.633186 0 CFG=1
M  V30 4 C -2.378698 0.486320 2.717953 0
M  V30 5 C -3.801516 -0.061749 2.715757 0
M  V30 6 N -4.426209 0.096438 1.406205 0
M  V30 7 C -3.665405 -0.581432 0.350235 0 CFG=1
M  V30 8 C -4.358201 -0.438976 -0.994707 0
M  V30 9 C -4.590396 -1.570072 -1.792958 0
M  V30 10 C -5.214389 -1.447740 -3.036576 0
M  V30 11 C -5.612424 -0.194888 -3.498853 0
M  V30 12 C -5.387153 0.937309 -2.719400 0
M  V30 13 C -4.763204 0.816660 -1.476651 0
M  V30 14 C -2.225957 -0.045625 0.278912 0
M  V30 15 N 0.864422 -0.190680 0.828557 0
M  V30 16 C 0.757467 -1.521533 0.225142 0
M  V30 17 C 2.094572 -2.255003 0.231751 0
M  V30 18 C 3.177644 -1.489750 -0.531706 0
M  V30 19 C 2.961285 0.036240 -0.507355 0
M  V30 20 C 4.259502 0.797853 -0.682109 0
M  V30 21 C 4.485676 1.550088 -1.846765 0
M  V30 22 C 5.679404 2.260767 -2.020841 0
M  V30 23 C 6.666790 2.231236 -1.036390 0
M  V30 24 C 6.452252 1.489677 0.115717 0
M  V30 25 O 7.429247 1.467910 1.070630 0
M  V30 26 C 5.264625 0.781161 0.291336 0
M  V30 27 F 5.106412 0.067944 1.417313 0
M  V30 28 C 2.173205 0.471622 0.740042 0
M  V30 29 H -1.428518 -1.240935 1.908320 0
M  V30 30 H -1.926434 0.326593 3.704561 0
M  V30 31 H -2.410268 1.573099 2.561705 0
M  V30 32 H -4.395974 0.480392 3.459116 0
M  V30 33 H -3.804200 -1.117475 3.012891 0
M  V30 34 H -5.373360 -0.280555 1.425464 0
M  V30 35 H -3.625872 -1.651417 0.598530 0
M  V30 36 H -4.287817 -2.557318 -1.451869 0
M  V30 37 H -5.391027 -2.330845 -3.644957 0
M  V30 38 H -6.099661 -0.100352 -4.465669 0
M  V30 39 H -5.698144 1.915903 -3.075610 0
M  V30 40 H -4.596468 1.708500 -0.874497 0
M  V30 41 H -1.680492 -0.583007 -0.503644 0
M  V30 42 H -2.218202 1.009940 -0.028015 0
M  V30 43 H 0.014725 -2.126537 0.747886 0
M  V30 44 H 0.415709 -1.385342 -0.806977 0
M  V30 45 H 1.980532 -3.257143 -0.196312 0
M  V30 46 H 2.421598 -2.390785 1.270669 0
M  V30 47 H 4.153694 -1.776226 -0.121828 0
M  V30 48 H 3.190613 -1.821839 -1.578343 0
M  V30 49 H 2.319294 0.271994 -1.369510 0
M  V30 50 H 3.732151 1.593604 -2.631247 0
M  V30 51 H 5.837693 2.840987 -2.927195 0
M  V30 52 H 7.593455 2.782249 -1.167310 0
M  V30 53 H 7.093649 0.919260 1.804267 0
M  V30 54 H 2.029788 1.559061 0.731324 0
M  V30 55 H 2.712062 0.227421 1.663290 0
M  V30 END ATOM
M  V30 BEGIN BOND
M  V30 1 2 1 2
M  V30 2 1 2 3
M  V30 3 1 3 4
M  V30 4 1 4 5
M  V30 5 1 5 6
M  V30 6 1 6 7
M  V30 7 1 7 8
M  V30 8 2 8 9
M  V30 9 1 9 10
M  V30 10 2 10 11
M  V30 11 1 11 12
M  V30 12 2 12 13
M  V30 13 1 7 14
M  V30 14 1 2 15
M  V30 15 1 15 16
M  V30 16 1 16 17
M  V30 17 1 17 18
M  V30 18 1 18 19
M  V30 19 1 19 20
M  V30 20 2 20 21
M  V30 21 1 21 22
M  V30 22 2 22 23
M  V30 23 1 23 24
M  V30 24 1 24 25
M  V30 25 2 24 26
M  V30 26 1 26 27
M  V30 27 1 19 28
M  V30 28 1 14 3
M  V30 29 1 28 15
M  V30 30 1 13 8
M  V30 31 1 26 20
M  V30 32 1 3 29 CFG=1
M  V30 33 1 4 30
M  V30 34 1 4 31
M  V30 35 1 5 32
M  V30 36 1 5 33
M  V30 37 1 6 34
M  V30 38 1 7 35 CFG=1
M  V30 39 1 9 36
M  V30 40 1 10 37
M  V30 41 1 11 38
M  V30 42 1 12 39
M  V30 43 1 13 40
M  V30 44 1 14 41
M  V30 45 1 14 42
M  V30 46 1 16 43
M  V30 47 1 16 44
M  V30 48 1 17 45
M  V30 49 1 17 46
M  V30 50 1 18 47
M  V30 51 1 18 48
M  V30 52 1 19 49
M  V30 53 1 21 50
M  V30 54 1 22 51
M  V30 55 1 23 52
M  V30 56 1 25 53
M  V30 57 1 28 54
M  V30 58 1 28 55
M  V30 END BOND
M  V30 BEGIN COLLECTION
M  V30 MDLV30/STERAC1 ATOMS=(2 3 7)
M  V30 END COLLECTION
M  V30 END CTAB
M  END
>  <_CXSMILES_Data>  (317) 
|&1:2,6|

$$$$
OCNT-2310337
     RDKit          3D

 51 54  0  0  0  0  0  0  0  0999 V2000
    8.8242   -0.6813    1.3465 C   0  0  0  0  0  0  0  0  0  0  0  0
    8.0025    0.2625    0.6713 O   0  0  0  0  0  0  0  0  0  0  0  0
    6.6572    0.0082    0.6461 C   0  0  0  0  0  0  0  0  0  0  0  0
    6.0105   -1.0341    1.3114 C   0  0  0  0  0  0  0  0  0  0  0  0
    4.6226   -1.2085    1.2161 C   0  0  0  0  0  0  0  0  0  0  0  0
    3.9063   -0.2947    0.4359 C   0  0  0  0  0  0  0  0  0  0  0  0
    2.5614   -0.2221    0.1568 N   0  0  0  0  0  0  0  0  0  0  0  0
    2.2798    0.8588   -0.6503 C   0  0  0  0  0  0  0  0  0  0  0  0
    0.9722    1.2389   -1.1411 C   0  0  0  0  0  0  0  0  0  0  0  0
    0.8087    1.9573   -2.1211 O   0  0  0  0  0  0  0  0  0  0  0  0
   -0.0837    0.7473   -0.3950 N   0  0  0  0  0  0  0  0  0  0  0  0
   -1.4388    1.2028   -0.6748 C   0  0  0  0  0  0  0  0  0  0  0  0
   -2.5113    0.2213   -0.1768 C   0  0  2  0  0  0  0  0  0  0  0  0
   -2.5407   -1.0743   -0.9936 C   0  0  0  0  0  0  0  0  0  0  0  0
   -3.9594   -1.5700   -0.7554 C   0  0  2  0  0  0  0  0  0  0  0  0
   -4.3882   -2.5055   -1.7373 O   0  0  0  0  0  0  0  0  0  0  0  0
   -3.8233   -3.7980   -1.5591 C   0  0  0  0  0  0  0  0  0  0  0  0
   -4.7595   -0.2636   -0.8635 C   0  0  0  0  0  0  0  0  0  0  0  0
   -3.8674    0.8019   -0.3497 N   0  0  0  0  0  0  0  0  0  0  0  0
   -4.3963    1.3398    0.8419 C   0  0  0  0  0  0  0  0  0  0  0  0
   -5.0654    2.5484    0.7582 C   0  0  0  0  0  0  0  0  0  0  0  0
   -5.5931    3.0432    1.9275 C   0  0  0  0  0  0  0  0  0  0  0  0
   -5.4925    2.4103    3.1091 N   0  0  0  0  0  0  0  0  0  0  0  0
   -4.8375    1.2410    3.0814 C   0  0  0  0  0  0  0  0  0  0  0  0
   -4.2765    0.6704    2.0038 N   0  0  0  0  0  0  0  0  0  0  0  0
    3.4959    1.4637   -0.9245 C   0  0  0  0  0  0  0  0  0  0  0  0
    4.5194    0.7585   -0.2374 C   0  0  0  0  0  0  0  0  0  0  0  0
    5.9143    0.9112   -0.1281 C   0  0  0  0  0  0  0  0  0  0  0  0
    9.8653   -0.3678    1.2237 H   0  0  0  0  0  0  0  0  0  0  0  0
    8.7240   -1.6800    0.9087 H   0  0  0  0  0  0  0  0  0  0  0  0
    8.6052   -0.6955    2.4195 H   0  0  0  0  0  0  0  0  0  0  0  0
    6.5615   -1.7415    1.9234 H   0  0  0  0  0  0  0  0  0  0  0  0
    4.1304   -2.0262    1.7337 H   0  0  0  0  0  0  0  0  0  0  0  0
    1.8789   -0.8950    0.4738 H   0  0  0  0  0  0  0  0  0  0  0  0
    0.1214    0.5370    0.5713 H   0  0  0  0  0  0  0  0  0  0  0  0
   -1.5510    2.1723   -0.1733 H   0  0  0  0  0  0  0  0  0  0  0  0
   -1.5544    1.3869   -1.7503 H   0  0  0  0  0  0  0  0  0  0  0  0
   -2.2971   -0.0468    0.8669 H   0  0  0  0  0  0  0  0  0  0  0  0
   -1.7849   -1.7913   -0.6566 H   0  0  0  0  0  0  0  0  0  0  0  0
   -2.3712   -0.8944   -2.0627 H   0  0  0  0  0  0  0  0  0  0  0  0
   -4.0707   -1.9902    0.2535 H   0  0  0  0  0  0  0  0  0  0  0  0
   -4.0897   -4.2002   -0.5759 H   0  0  0  0  0  0  0  0  0  0  0  0
   -2.7350   -3.7687   -1.6737 H   0  0  0  0  0  0  0  0  0  0  0  0
   -4.2345   -4.4590   -2.3290 H   0  0  0  0  0  0  0  0  0  0  0  0
   -5.7205   -0.3492   -0.3391 H   0  0  0  0  0  0  0  0  0  0  0  0
   -4.9959   -0.0438   -1.9119 H   0  0  0  0  0  0  0  0  0  0  0  0
   -5.1709    3.0750   -0.1800 H   0  0  0  0  0  0  0  0  0  0  0  0
   -6.1360    3.9826    1.9456 H   0  0  0  0  0  0  0  0  0  0  0  0
   -4.7582    0.7029    4.0205 H   0  0  0  0  0  0  0  0  0  0  0  0
    3.6248    2.3362   -1.5550 H   0  0  0  0  0  0  0  0  0  0  0  0
    6.4171    1.7231   -0.6465 H   0  0  0  0  0  0  0  0  0  0  0  0
  1  2  1  0
  2  3  1  0
  3  4  2  0
  4  5  1  0
  5  6  2  0
  6  7  1  0
  7  8  1  0
  8  9  1  0
  9 10  2  0
  9 11  1  0
 11 12  1  0
 12 13  1  0
 13 14  1  0
 14 15  1  0
 15 16  1  0
 16 17  1  0
 15 18  1  0
 18 19  1  0
 19 20  1  0
 20 21  1  0
 21 22  2  0
 22 23  1  0
 23 24  2  0
 24 25  1  0
  8 26  2  0
 26 27  1  0
 27 28  2  0
 28  3  1  0
 27  6  1  0
 19 13  1  0
 25 20  2  0
  1 29  1  0
  1 30  1  0
  1 31  1  0
  4 32  1  0
  5 33  1  0
  7 34  1  0
 11 35  1  0
 12 36  1  0
 12 37  1  0
 13 38  1  1
 14 39  1  0
 14 40  1  0
 15 41  1  1
 17 42  1  0
 17 43  1  0
 17 44  1  0
 18 45  1  0
 18 46  1  0
 21 47  1  0
 22 48  1  0
 24 49  1  0
 26 50  1  0
 28 51  1  0
M  END
$$$$
OCNT-2310340
     RDKit          3D

 41 43  0  0  0  0  0  0  0  0999 V2000
   -0.4826    3.1294   -1.9378 C   0  0  0  0  0  0  0  0  0  0  0  0
   -1.7113    2.8367   -1.2097 N   0  0  0  0  0  0  0  0  0  0  0  0
   -2.7113    3.8944   -1.2331 C   0  0  0  0  0  0  0  0  0  0  0  0
   -1.8704    1.8170   -0.2681 C   0  0  0  0  0  0  0  0  0  0  0  0
   -2.8565    1.7918    0.4775 O   0  0  0  0  0  0  0  0  0  0  0  0
   -0.7987    0.7021   -0.1338 C   0  0  1  0  0  0  0  0  0  0  0  0
   -0.7605   -0.1692   -1.4053 C   0  0  0  0  0  0  0  0  0  0  0  0
   -1.7028   -1.3500   -1.3132 C   0  0  0  0  0  0  0  0  0  0  0  0
   -3.0474   -1.2229   -1.6868 C   0  0  0  0  0  0  0  0  0  0  0  0
   -3.9151   -2.3107   -1.5787 C   0  0  0  0  0  0  0  0  0  0  0  0
   -3.4490   -3.5315   -1.0940 C   0  0  0  0  0  0  0  0  0  0  0  0
   -2.1152   -3.6655   -0.7134 C   0  0  0  0  0  0  0  0  0  0  0  0
   -1.2455   -2.5795   -0.8196 C   0  0  0  0  0  0  0  0  0  0  0  0
    0.5102    1.3103    0.2026 N   0  0  0  0  0  0  0  0  0  0  0  0
    1.4661    0.5154    0.7486 C   0  0  0  0  0  0  0  0  0  0  0  0
    1.5445   -0.7952    0.6561 N   0  0  0  0  0  0  0  0  0  0  0  0
    2.6356   -1.3154    1.3213 N   0  0  0  0  0  0  0  0  0  0  0  0
    3.3520   -0.3739    1.8997 C   0  0  0  0  0  0  0  0  0  0  0  0
    4.6455   -0.7015    2.7205 C   0  0  0  0  0  0  0  0  0  0  0  0
    5.3956    0.2326    3.3205 N   0  0  0  0  0  0  0  0  0  0  0  0
    6.4306   -0.4582    3.9308 O   0  0  0  0  0  0  0  0  0  0  0  0
    6.2886   -1.7853    3.6915 C   0  0  0  0  0  0  0  0  0  0  0  0
    5.1719   -1.9962    2.9273 C   0  0  0  0  0  0  0  0  0  0  0  0
    2.7435    1.2111    1.6714 S   0  0  0  0  0  0  0  0  0  0  0  0
   -0.7378    3.5283   -2.9244 H   0  0  0  0  0  0  0  0  0  0  0  0
    0.0797    3.8823   -1.3773 H   0  0  0  0  0  0  0  0  0  0  0  0
    0.1470    2.2536   -2.0836 H   0  0  0  0  0  0  0  0  0  0  0  0
   -3.6703    3.5601   -0.8281 H   0  0  0  0  0  0  0  0  0  0  0  0
   -2.8691    4.2196   -2.2657 H   0  0  0  0  0  0  0  0  0  0  0  0
   -2.3451    4.7341   -0.6349 H   0  0  0  0  0  0  0  0  0  0  0  0
   -1.1098    0.0980    0.7312 H   0  0  0  0  0  0  0  0  0  0  0  0
    0.2496   -0.5464   -1.6056 H   0  0  0  0  0  0  0  0  0  0  0  0
   -1.0321    0.3991   -2.3027 H   0  0  0  0  0  0  0  0  0  0  0  0
   -3.4320   -0.2757   -2.0586 H   0  0  0  0  0  0  0  0  0  0  0  0
   -4.9572   -2.2035   -1.8679 H   0  0  0  0  0  0  0  0  0  0  0  0
   -4.1264   -4.3766   -1.0077 H   0  0  0  0  0  0  0  0  0  0  0  0
   -1.7513   -4.6145   -0.3290 H   0  0  0  0  0  0  0  0  0  0  0  0
   -0.2083   -2.6967   -0.5092 H   0  0  0  0  0  0  0  0  0  0  0  0
    0.4137    2.2139    0.6601 H   0  0  0  0  0  0  0  0  0  0  0  0
    7.0454   -2.4232    4.1239 H   0  0  0  0  0  0  0  0  0  0  0  0
    4.7860   -2.9385    2.5682 H   0  0  0  0  0  0  0  0  0  0  0  0
  1  2  1  0
  2  3  1  0
  2  4  1  0
  4  5  2  0
  4  6  1  0
  6  7  1  0
  7  8  1  0
  8  9  2  0
  9 10  1  0
 10 11  2  0
 11 12  1  0
 12 13  2  0
  6 14  1  0
 14 15  1  0
 15 16  2  0
 16 17  1  0
 17 18  2  0
 18 19  1  0
 19 20  2  0
 20 21  1  0
 21 22  1  0
 22 23  2  0
 18 24  1  0
 13  8  1  0
 24 15  1  0
 23 19  1  0
  1 25  1  0
  1 26  1  0
  1 27  1  0
  3 28  1  0
  3 29  1  0
  3 30  1  0
  6 31  1  1
  7 32  1  0
  7 33  1  0
  9 34  1  0
 10 35  1  0
 11 36  1  0
 12 37  1  0
 13 38  1  0
 14 39  1  0
 22 40  1  0
 23 41  1  0
M  END
$$$$
OCNT-2310342
     RDKit          3D

 49 52  0  0  0  0  0  0  0  0999 V2000
   -6.0377   -0.6621    3.1663 C   0  0  0  0  0  0  0  0  0  0  0  0
   -6.2770   -0.5062    1.6979 C   0  0  0  0  0  0  0  0  0  0  0  0
   -7.2450   -1.2582    1.1441 N   0  0  0  0  0  0  0  0  0  0  0  0
   -7.4499   -1.0757   -0.1701 C   0  0  0  0  0  0  0  0  0  0  0  0
   -6.7178   -0.2024   -0.9380 C   0  0  0  0  0  0  0  0  0  0  0  0
   -5.7260    0.5001   -0.2891 C   0  0  0  0  0  0  0  0  0  0  0  0
   -4.9112    1.4220   -0.9421 N   0  0  0  0  0  0  0  0  0  0  0  0
   -4.1554    0.9345   -2.0901 C   0  0  0  0  0  0  0  0  0  0  0  0
   -3.0019    0.0505   -1.6709 C   0  0  0  0  0  0  0  0  0  0  0  0
   -3.1164   -1.3459   -1.7186 C   0  0  0  0  0  0  0  0  0  0  0  0
   -2.0645   -2.1601   -1.2971 C   0  0  0  0  0  0  0  0  0  0  0  0
   -0.8802   -1.5901   -0.8280 C   0  0  0  0  0  0  0  0  0  0  0  0
   -0.7439   -0.1973   -0.7842 C   0  0  0  0  0  0  0  0  0  0  0  0
    0.4948    0.4616   -0.2825 C   0  0  0  0  0  0  0  0  0  0  0  0
    0.4230    1.5734    0.2361 O   0  0  0  0  0  0  0  0  0  0  0  0
    1.6749   -0.2396   -0.4718 N   0  0  0  0  0  0  0  0  0  0  0  0
    2.8859    0.2515   -0.0260 C   0  0  0  0  0  0  0  0  0  0  0  0
    4.1473   -0.2783   -0.1357 C   0  0  0  0  0  0  0  0  0  0  0  0
    5.0187    0.6463    0.5122 C   0  0  0  0  0  0  0  0  0  0  0  0
    6.4728    0.5682    0.6947 C   0  0  0  0  0  0  0  0  0  0  0  0
    7.1220    1.4636    1.5673 C   0  0  0  0  0  0  0  0  0  0  0  0
    8.5061    1.4084    1.7688 C   0  0  0  0  0  0  0  0  0  0  0  0
    9.2665    0.4578    1.0954 C   0  0  0  0  0  0  0  0  0  0  0  0
    8.6356   -0.4260    0.2283 C   0  0  0  0  0  0  0  0  0  0  0  0
    9.3743   -1.3312   -0.4300 F   0  0  0  0  0  0  0  0  0  0  0  0
    7.2578   -0.3763    0.0251 C   0  0  0  0  0  0  0  0  0  0  0  0
    6.7119   -1.2517   -0.8343 F   0  0  0  0  0  0  0  0  0  0  0  0
    4.3145    1.6865    0.9974 N   0  0  0  0  0  0  0  0  0  0  0  0
    3.0435    1.4285    0.6496 N   0  0  0  0  0  0  0  0  0  0  0  0
   -1.8103    0.6164   -1.1901 C   0  0  0  0  0  0  0  0  0  0  0  0
   -5.5108    0.3749    1.0281 N   0  0  0  0  0  0  0  0  0  0  0  0
   -6.9383   -0.3802    3.7195 H   0  0  0  0  0  0  0  0  0  0  0  0
   -5.7885   -1.7016    3.3987 H   0  0  0  0  0  0  0  0  0  0  0  0
   -5.2125   -0.0246    3.5000 H   0  0  0  0  0  0  0  0  0  0  0  0
   -8.2508   -1.6679   -0.6024 H   0  0  0  0  0  0  0  0  0  0  0  0
   -6.9267   -0.0728   -1.9904 H   0  0  0  0  0  0  0  0  0  0  0  0
   -4.2912    1.7757   -0.2126 H   0  0  0  0  0  0  0  0  0  0  0  0
   -4.7932    0.4223   -2.8207 H   0  0  0  0  0  0  0  0  0  0  0  0
   -3.7491    1.8030   -2.6251 H   0  0  0  0  0  0  0  0  0  0  0  0
   -4.0380   -1.8100   -2.0649 H   0  0  0  0  0  0  0  0  0  0  0  0
   -2.1774   -3.2416   -1.3185 H   0  0  0  0  0  0  0  0  0  0  0  0
   -0.0952   -2.2489   -0.4694 H   0  0  0  0  0  0  0  0  0  0  0  0
    1.6839   -1.1074   -0.9928 H   0  0  0  0  0  0  0  0  0  0  0  0
    4.4113   -1.2100   -0.6143 H   0  0  0  0  0  0  0  0  0  0  0  0
    6.5438    2.2185    2.1011 H   0  0  0  0  0  0  0  0  0  0  0  0
    8.9827    2.1130    2.4467 H   0  0  0  0  0  0  0  0  0  0  0  0
   10.3423    0.4036    1.2339 H   0  0  0  0  0  0  0  0  0  0  0  0
    2.3076    2.0863    0.8935 H   0  0  0  0  0  0  0  0  0  0  0  0
   -1.7120    1.6995   -1.1280 H   0  0  0  0  0  0  0  0  0  0  0  0
  1  2  1  0
  2  3  2  0
  3  4  1  0
  4  5  2  0
  5  6  1  0
  6  7  1  0
  7  8  1  0
  8  9  1  0
  9 10  2  0
 10 11  1  0
 11 12  2  0
 12 13  1  0
 13 14  1  0
 14 15  2  0
 14 16  1  0
 16 17  1  0
 17 18  2  0
 18 19  1  0
 19 20  1  0
 20 21  2  0
 21 22  1  0
 22 23  2  0
 23 24  1  0
 24 25  1  0
 24 26  2  0
 26 27  1  0
 19 28  2  0
 28 29  1  0
 13 30  2  0
  6 31  2  0
 31  2  1  0
 30  9  1  0
 29 17  1  0
 26 20  1  0
  1 32  1  0
  1 33  1  0
  1 34  1  0
  4 35  1  0
  5 36  1  0
  7 37  1  0
  8 38  1  0
  8 39  1  0
 10 40  1  0
 11 41  1  0
 12 42  1  0
 16 43  1  0
 18 44  1  0
 21 45  1  0
 22 46  1  0
 23 47  1  0
 29 48  1  0
 30 49  1  0
M  END
$$$$
OCNT-2310344
     RDKit          3D

 33 35  0  0  0  0  0  0  0  0999 V2000
    5.6989    1.6142   -1.9204 C   0  0  0  0  0  0  0  0  0  0  0  0
    5.0415    0.7231   -0.9270 C   0  0  0  0  0  0  0  0  0  0  0  0
    3.7616    0.4198   -0.9333 N   0  0  0  0  0  0  0  0  0  0  0  0
    3.4738   -0.4297    0.1203 C   0  0  0  0  0  0  0  0  0  0  0  0
    2.0946   -0.8899    0.2914 C   0  0  0  0  0  0  0  0  0  0  0  0
    1.5828   -1.7146    1.2681 C   0  0  0  0  0  0  0  0  0  0  0  0
    0.2436   -1.8776    1.0203 N   0  0  0  0  0  0  0  0  0  0  0  0
   -0.1332   -1.1510   -0.0896 C   0  0  0  0  0  0  0  0  0  0  0  0
   -1.4649   -1.0829   -0.6538 C   0  0  0  0  0  0  0  0  0  0  0  0
   -1.6867   -0.7499   -1.8134 O   0  0  0  0  0  0  0  0  0  0  0  0
   -2.4770   -1.4000    0.2284 N   0  0  0  0  0  0  0  0  0  0  0  0
   -3.8631   -1.2346   -0.1488 C   0  0  0  0  0  0  0  0  0  0  0  0
   -4.3131    0.1230    0.2890 C   0  0  0  0  0  0  0  0  0  0  0  0
   -4.1619    1.3284   -0.3735 C   0  0  0  0  0  0  0  0  0  0  0  0
   -4.7140    2.4231    0.3559 C   0  0  0  0  0  0  0  0  0  0  0  0
   -5.2601    2.0020    1.5411 C   0  0  0  0  0  0  0  0  0  0  0  0
   -6.0948    3.1778    2.7951 Br  0  0  0  0  0  0  0  0  0  0  0  0
   -5.1200    0.3326    1.7895 S   0  0  0  0  0  0  0  0  0  0  0  0
    1.0213   -0.5489   -0.5683 C   0  0  0  0  0  0  0  0  0  0  0  0
    4.5496   -0.7584    0.9188 C   0  0  0  0  0  0  0  0  0  0  0  0
    5.9655    0.0134    0.3373 S   0  0  0  0  0  0  0  0  0  0  0  0
    6.4827    1.0785   -2.4652 H   0  0  0  0  0  0  0  0  0  0  0  0
    6.1436    2.4849   -1.4282 H   0  0  0  0  0  0  0  0  0  0  0  0
    4.9687    1.9768   -2.6510 H   0  0  0  0  0  0  0  0  0  0  0  0
    2.0499   -2.2099    2.1083 H   0  0  0  0  0  0  0  0  0  0  0  0
   -0.3729   -2.4761    1.5528 H   0  0  0  0  0  0  0  0  0  0  0  0
   -2.2772   -1.3463    1.2148 H   0  0  0  0  0  0  0  0  0  0  0  0
   -4.4326   -2.0278    0.3467 H   0  0  0  0  0  0  0  0  0  0  0  0
   -3.9888   -1.3551   -1.2301 H   0  0  0  0  0  0  0  0  0  0  0  0
   -3.6686    1.4170   -1.3362 H   0  0  0  0  0  0  0  0  0  0  0  0
   -4.7017    3.4527    0.0203 H   0  0  0  0  0  0  0  0  0  0  0  0
    1.0756    0.0810   -1.4491 H   0  0  0  0  0  0  0  0  0  0  0  0
    4.5765   -1.3956    1.7897 H   0  0  0  0  0  0  0  0  0  0  0  0
  1  2  1  0
  2  3  2  0
  3  4  1  0
  4  5  1  0
  5  6  2  0
  6  7  1  0
  7  8  1  0
  8  9  1  0
  9 10  2  0
  9 11  1  0
 11 12  1  0
 12 13  1  0
 13 14  2  0
 14 15  1  0
 15 16  2  0
 16 17  1  0
 16 18  1  0
  8 19  2  0
  4 20  2  0
 20 21  1  0
 21  2  1  0
 19  5  1  0
 18 13  1  0
  1 22  1  0
  1 23  1  0
  1 24  1  0
  6 25  1  0
  7 26  1  0
 11 27  1  0
 12 28  1  0
 12 29  1  0
 14 30  1  0
 15 31  1  0
 19 32  1  0
 20 33  1  0
M  END
$$$$
OCNT-2310353
     RDKit          3D

 47 50  0  0  0  0  0  0  0  0999 V2000
    6.5761    0.7650   -1.1963 C   0  0  0  0  0  0  0  0  0  0  0  0
    6.4654   -0.6803   -0.9536 N   0  0  0  0  0  0  0  0  0  0  0  0
    7.7122   -1.3353   -1.3613 C   0  0  0  0  0  0  0  0  0  0  0  0
    6.2140   -0.9460    0.4807 C   0  0  0  0  0  0  0  0  0  0  0  0
    4.8169   -0.5976    0.8895 C   0  0  0  0  0  0  0  0  0  0  0  0
    4.4237   -0.0609    2.0277 N   0  0  0  0  0  0  0  0  0  0  0  0
    3.0590    0.0576    1.9259 C   0  0  0  0  0  0  0  0  0  0  0  0
    2.1303    0.5665    2.8412 C   0  0  0  0  0  0  0  0  0  0  0  0
    0.7695    0.5815    2.4909 C   0  0  0  0  0  0  0  0  0  0  0  0
    0.3311    0.1025    1.2519 C   0  0  0  0  0  0  0  0  0  0  0  0
   -1.0242    0.0903    0.8548 N   0  0  0  0  0  0  0  0  0  0  0  0
   -2.1072    0.6126    1.5388 C   0  0  0  0  0  0  0  0  0  0  0  0
   -2.0841    1.2474    2.5857 O   0  0  0  0  0  0  0  0  0  0  0  0
   -3.4250    0.3968    0.8770 C   0  0  0  0  0  0  0  0  0  0  0  0
   -3.7245   -0.7877    0.1978 C   0  0  0  0  0  0  0  0  0  0  0  0
   -4.9757   -0.9467   -0.4088 C   0  0  0  0  0  0  0  0  0  0  0  0
   -5.9540    0.0612   -0.3547 C   0  0  0  0  0  0  0  0  0  0  0  0
   -7.3076   -0.1185   -0.9961 C   0  0  0  0  0  0  0  0  0  0  0  0
   -7.7751    0.8748   -2.0499 C   0  0  0  0  0  0  0  0  0  0  0  0
   -7.4429   -0.5153   -2.4266 C   0  0  0  0  0  0  0  0  0  0  0  0
   -6.3448   -0.7743   -3.2138 F   0  0  0  0  0  0  0  0  0  0  0  0
   -8.4387   -1.3816   -2.8146 F   0  0  0  0  0  0  0  0  0  0  0  0
   -5.6396    1.2305    0.3587 C   0  0  0  0  0  0  0  0  0  0  0  0
   -4.3935    1.3993    0.9704 C   0  0  0  0  0  0  0  0  0  0  0  0
    1.2586   -0.4151    0.3291 C   0  0  0  0  0  0  0  0  0  0  0  0
    2.6065   -0.4194    0.7026 C   0  0  0  0  0  0  0  0  0  0  0  0
    3.7442   -0.8338    0.0635 N   0  0  0  0  0  0  0  0  0  0  0  0
    5.6442    1.2836   -0.9479 H   0  0  0  0  0  0  0  0  0  0  0  0
    6.7598    0.9578   -2.2595 H   0  0  0  0  0  0  0  0  0  0  0  0
    7.3894    1.2218   -0.6202 H   0  0  0  0  0  0  0  0  0  0  0  0
    7.6363   -2.4206   -1.2310 H   0  0  0  0  0  0  0  0  0  0  0  0
    8.5762   -0.9777   -0.7894 H   0  0  0  0  0  0  0  0  0  0  0  0
    7.9066   -1.1629   -2.4258 H   0  0  0  0  0  0  0  0  0  0  0  0
    6.3370   -2.0184    0.6825 H   0  0  0  0  0  0  0  0  0  0  0  0
    6.9349   -0.4165    1.1165 H   0  0  0  0  0  0  0  0  0  0  0  0
    2.4614    0.9421    3.8029 H   0  0  0  0  0  0  0  0  0  0  0  0
    0.0737    0.9774    3.2246 H   0  0  0  0  0  0  0  0  0  0  0  0
   -1.2043   -0.2833   -0.0674 H   0  0  0  0  0  0  0  0  0  0  0  0
   -3.0132   -1.6081    0.1555 H   0  0  0  0  0  0  0  0  0  0  0  0
   -5.1929   -1.8785   -0.9296 H   0  0  0  0  0  0  0  0  0  0  0  0
   -8.0789   -0.5118   -0.3377 H   0  0  0  0  0  0  0  0  0  0  0  0
   -8.8203    1.1540   -2.0548 H   0  0  0  0  0  0  0  0  0  0  0  0
   -7.0958    1.6477   -2.3850 H   0  0  0  0  0  0  0  0  0  0  0  0
   -6.3785    2.0253    0.4459 H   0  0  0  0  0  0  0  0  0  0  0  0
   -4.1809    2.3150    1.5192 H   0  0  0  0  0  0  0  0  0  0  0  0
    0.9537   -0.7959   -0.6389 H   0  0  0  0  0  0  0  0  0  0  0  0
    3.8211   -1.2112   -0.8704 H   0  0  0  0  0  0  0  0  0  0  0  0
  1  2  1  0
  2  3  1  0
  2  4  1  0
  4  5  1  0
  5  6  2  0
  6  7  1  0
  7  8  2  0
  8  9  1  0
  9 10  2  0
 10 11  1  0
 11 12  1  0
 12 13  2  0
 12 14  1  0
 14 15  1  0
 15 16  2  0
 16 17  1  0
 17 18  1  0
 18 19  1  0
 19 20  1  0
 20 21  1  0
 20 22  1  0
 17 23  2  0
 23 24  1  0
 10 25  1  0
 25 26  2  0
 26 27  1  0
 27  5  1  0
 26  7  1  0
 24 14  2  0
 20 18  1  0
  1 28  1  0
  1 29  1  0
  1 30  1  0
  3 31  1  0
  3 32  1  0
  3 33  1  0
  4 34  1  0
  4 35  1  0
  8 36  1  0
  9 37  1  0
 11 38  1  0
 15 39  1  0
 16 40  1  0
 18 41  1  0
 19 42  1  0
 19 43  1  0
 23 44  1  0
 24 45  1  0
 25 46  1  0
 27 47  1  0
M  END
$$$$
OCNT-2310355
     RDKit          3D

 41 43  0  0  0  0  0  0  0  0999 V2000
    4.6082    1.1268   -2.2814 F   0  0  0  0  0  0  0  0  0  0  0  0
    5.0654    0.3581   -1.2627 C   0  0  0  0  0  0  0  0  0  0  0  0
    5.9479    1.1142   -0.5637 F   0  0  0  0  0  0  0  0  0  0  0  0
    3.9119   -0.0649   -0.3560 C   0  0  0  0  0  0  0  0  0  0  0  0
    3.2444    1.1688    0.2820 C   0  0  0  0  0  0  0  0  0  0  0  0
    1.8225    0.8509    0.7298 C   0  0  0  0  0  0  0  0  0  0  0  0
    0.9150    0.5212   -0.4732 C   0  0  0  0  0  0  0  0  0  0  0  0
   -0.1916   -0.2955    0.0355 N   0  0  0  0  0  0  0  0  0  0  0  0
   -1.3723   -0.2576   -0.8251 C   0  0  0  0  0  0  0  0  0  0  0  0
   -2.5369   -0.9305   -0.1397 C   0  0  0  0  0  0  0  0  0  0  0  0
   -2.7815   -2.2813   -0.4626 C   0  0  0  0  0  0  0  0  0  0  0  0
   -3.7917   -2.9977    0.1677 C   0  0  0  0  0  0  0  0  0  0  0  0
   -4.5386   -2.3510    1.1271 C   0  0  0  0  0  0  0  0  0  0  0  0
   -4.3431   -1.0645    1.4789 N   0  0  0  0  0  0  0  0  0  0  0  0
   -3.3531   -0.3553    0.8477 C   0  0  0  0  0  0  0  0  0  0  0  0
   -3.2316    1.0053    1.2720 N   0  0  0  0  0  0  0  0  0  0  0  0
   -3.9453    1.5871    2.2990 C   0  0  0  0  0  0  0  0  0  0  0  0
   -3.6286    2.8551    2.4312 N   0  0  0  0  0  0  0  0  0  0  0  0
   -2.7101    3.0287    1.4438 C   0  0  0  0  0  0  0  0  0  0  0  0
   -2.4480    1.9543    0.7006 N   0  0  0  0  0  0  0  0  0  0  0  0
    1.6986   -0.1620   -1.6131 C   0  0  0  0  0  0  0  0  0  0  0  0
    2.9002   -0.9544   -1.1042 C   0  0  0  0  0  0  0  0  0  0  0  0
    5.6000   -0.4987   -1.6827 H   0  0  0  0  0  0  0  0  0  0  0  0
    4.3463   -0.6650    0.4547 H   0  0  0  0  0  0  0  0  0  0  0  0
    3.8400    1.4997    1.1412 H   0  0  0  0  0  0  0  0  0  0  0  0
    3.2200    2.0101   -0.4219 H   0  0  0  0  0  0  0  0  0  0  0  0
    1.8606    0.0129    1.4395 H   0  0  0  0  0  0  0  0  0  0  0  0
    1.4030    1.7017    1.2811 H   0  0  0  0  0  0  0  0  0  0  0  0
    0.5186    1.4717   -0.8544 H   0  0  0  0  0  0  0  0  0  0  0  0
    0.1071   -1.2579    0.1766 H   0  0  0  0  0  0  0  0  0  0  0  0
   -1.1599   -0.7859   -1.7633 H   0  0  0  0  0  0  0  0  0  0  0  0
   -1.6419    0.7527   -1.1438 H   0  0  0  0  0  0  0  0  0  0  0  0
   -2.1704   -2.7857   -1.2090 H   0  0  0  0  0  0  0  0  0  0  0  0
   -3.9821   -4.0360   -0.0795 H   0  0  0  0  0  0  0  0  0  0  0  0
   -5.3373   -2.8627    1.6566 H   0  0  0  0  0  0  0  0  0  0  0  0
   -4.6577    1.0346    2.8953 H   0  0  0  0  0  0  0  0  0  0  0  0
   -2.2177    3.9741    1.2539 H   0  0  0  0  0  0  0  0  0  0  0  0
    2.0511    0.6099   -2.3097 H   0  0  0  0  0  0  0  0  0  0  0  0
    1.0528   -0.8180   -2.2072 H   0  0  0  0  0  0  0  0  0  0  0  0
    3.3841   -1.4763   -1.9380 H   0  0  0  0  0  0  0  0  0  0  0  0
    2.5418   -1.7370   -0.4230 H   0  0  0  0  0  0  0  0  0  0  0  0
  1  2  1  0
  2  3  1  0
  2  4  1  0
  4  5  1  0
  5  6  1  0
  6  7  1  0
  7  8  1  0
  8  9  1  0
  9 10  1  0
 10 11  1  0
 11 12  2  0
 12 13  1  0
 13 14  2  0
 14 15  1  0
 15 16  1  0
 16 17  1  0
 17 18  2  0
 18 19  1  0
 19 20  2  0
  7 21  1  0
 21 22  1  0
 22  4  1  0
 15 10  2  0
 20 16  1  0
  2 23  1  0
  4 24  1  0
  5 25  1  0
  5 26  1  0
  6 27  1  0
  6 28  1  0
  7 29  1  0
  8 30  1  0
  9 31  1  0
  9 32  1  0
 11 33  1  0
 12 34  1  0
 13 35  1  0
 17 36  1  0
 19 37  1  0
 21 38  1  0
 21 39  1  0
 22 40  1  0
 22 41  1  0
M  END
$$$$
OCNT-2310374
     RDKit          3D

 40 43  0  0  0  0  0  0  0  0999 V2000
   -7.6104    0.8394   -0.2088 C   0  0  0  0  0  0  0  0  0  0  0  0
   -6.2461    0.2209   -0.0876 C   0  0  0  0  0  0  0  0  0  0  0  0
   -6.0960   -1.1088    0.0239 C   0  0  0  0  0  0  0  0  0  0  0  0
   -4.7362   -1.6845    0.1417 C   0  0  0  0  0  0  0  0  0  0  0  0
   -4.6033   -2.9003    0.2470 O   0  0  0  0  0  0  0  0  0  0  0  0
   -3.7359   -0.7389    0.1187 N   0  0  0  0  0  0  0  0  0  0  0  0
   -2.4112   -1.0804    0.2154 N   0  0  0  0  0  0  0  0  0  0  0  0
   -1.6669   -0.0149    0.1693 C   0  0  0  0  0  0  0  0  0  0  0  0
   -0.2867   -0.0121    0.2486 N   0  0  0  0  0  0  0  0  0  0  0  0
    0.5382    1.1843    0.0604 C   0  0  0  0  0  0  0  0  0  0  0  0
    1.9681    0.8172   -0.3100 C   0  0  0  0  0  0  0  0  0  0  0  0
    2.6293   -0.0501    0.7663 C   0  0  0  0  0  0  0  0  0  0  0  0
    3.6482   -0.8684    0.1675 O   0  0  0  0  0  0  0  0  0  0  0  0
    4.8709   -0.2551   -0.0033 C   0  0  0  0  0  0  0  0  0  0  0  0
    5.9004   -1.0210   -0.5347 C   0  0  0  0  0  0  0  0  0  0  0  0
    7.1439   -0.5267   -0.7555 N   0  0  0  0  0  0  0  0  0  0  0  0
    7.3090    0.7720   -0.4203 C   0  0  0  0  0  0  0  0  0  0  0  0
    6.2815    1.5378    0.1080 C   0  0  0  0  0  0  0  0  0  0  0  0
    5.0397    1.0446    0.3275 N   0  0  0  0  0  0  0  0  0  0  0  0
    1.6230   -0.9964    1.4339 C   0  0  0  0  0  0  0  0  0  0  0  0
    0.4226   -1.2662    0.5342 C   0  0  0  0  0  0  0  0  0  0  0  0
   -2.5519    1.5035    0.0096 S   0  0  0  0  0  0  0  0  0  0  0  0
   -4.0193    0.5912    0.0015 C   0  0  0  0  0  0  0  0  0  0  0  0
   -5.1960    1.1126   -0.1006 N   0  0  0  0  0  0  0  0  0  0  0  0
   -8.4077    0.0888   -0.1932 H   0  0  0  0  0  0  0  0  0  0  0  0
   -7.7870    1.5329    0.6201 H   0  0  0  0  0  0  0  0  0  0  0  0
   -7.6922    1.3952   -1.1488 H   0  0  0  0  0  0  0  0  0  0  0  0
   -6.9218   -1.8077    0.0343 H   0  0  0  0  0  0  0  0  0  0  0  0
    0.5275    1.7835    0.9786 H   0  0  0  0  0  0  0  0  0  0  0  0
    0.1401    1.8036   -0.7511 H   0  0  0  0  0  0  0  0  0  0  0  0
    1.9782    0.2925   -1.2751 H   0  0  0  0  0  0  0  0  0  0  0  0
    2.5529    1.7313   -0.4645 H   0  0  0  0  0  0  0  0  0  0  0  0
    3.0514    0.5694    1.5690 H   0  0  0  0  0  0  0  0  0  0  0  0
    5.7488   -2.0611   -0.7989 H   0  0  0  0  0  0  0  0  0  0  0  0
    8.2968    1.1858   -0.5887 H   0  0  0  0  0  0  0  0  0  0  0  0
    6.4323    2.5788    0.3708 H   0  0  0  0  0  0  0  0  0  0  0  0
    1.2621   -0.5336    2.3620 H   0  0  0  0  0  0  0  0  0  0  0  0
    2.1006   -1.9439    1.7092 H   0  0  0  0  0  0  0  0  0  0  0  0
    0.7334   -1.7365   -0.4061 H   0  0  0  0  0  0  0  0  0  0  0  0
   -0.2300   -1.9785    1.0523 H   0  0  0  0  0  0  0  0  0  0  0  0
  1  2  1  0
  2  3  2  0
  3  4  1  0
  4  5  2  0
  4  6  1  0
  6  7  1  0
  7  8  2  0
  8  9  1  0
  9 10  1  0
 10 11  1  0
 11 12  1  0
 12 13  1  0
 13 14  1  0
 14 15  2  0
 15 16  1  0
 16 17  2  0
 17 18  1  0
 18 19  2  0
 12 20  1  0
 20 21  1  0
  8 22  1  0
 22 23  1  0
 23 24  2  0
 24  2  1  0
 23  6  1  0
 21  9  1  0
 19 14  1  0
  1 25  1  0
  1 26  1  0
  1 27  1  0
  3 28  1  0
 10 29  1  0
 10 30  1  0
 11 31  1  0
 11 32  1  0
 12 33  1  0
 15 34  1  0
 17 35  1  0
 18 36  1  0
 20 37  1  0
 20 38  1  0
 21 39  1  0
 21 40  1  0
M  END
$$$$
OCNT-2310378
     RDKit          3D

 49 52  0  0  0  0  0  0  0  0999 V2000
    0.0029   -0.0255    1.9513 O   0  0  0  0  0  0  0  0  0  0  0  0
    0.4639    0.4292    0.9144 C   0  0  0  0  0  0  0  0  0  0  0  0
   -0.2881    0.9225   -0.1188 N   0  0  0  0  0  0  0  0  0  0  0  0
   -1.7418    0.8812   -0.0705 C   0  0  0  0  0  0  0  0  0  0  0  0
   -2.3008   -0.5203   -0.3262 C   0  0  0  0  0  0  0  0  0  0  0  0
   -3.7972   -0.5089   -0.3261 C   0  0  0  0  0  0  0  0  0  0  0  0
   -4.5320    0.3408   -1.0195 N   0  0  0  0  0  0  0  0  0  0  0  0
   -5.8665    0.0770   -0.8009 C   0  0  0  0  0  0  0  0  0  0  0  0
   -6.1284   -0.9730    0.0545 C   0  0  0  0  0  0  0  0  0  0  0  0
   -7.4861   -1.4610    0.4295 C   0  0  0  0  0  0  0  0  0  0  0  0
   -8.5450   -0.4028    0.0674 C   0  0  0  0  0  0  0  0  0  0  0  0
   -8.3069    0.2007   -1.3294 C   0  0  0  0  0  0  0  0  0  0  0  0
   -6.9393    0.9013   -1.4293 C   0  0  0  0  0  0  0  0  0  0  0  0
   -4.6766   -1.6661    0.6040 S   0  0  0  0  0  0  0  0  0  0  0  0
    1.8026    0.5059    0.6331 N   0  0  0  0  0  0  0  0  0  0  0  0
    2.7548    0.1361    1.6549 C   0  0  0  0  0  0  0  0  0  0  0  0
    4.1421    0.0709    1.0911 C   0  0  0  0  0  0  0  0  0  0  0  0
    4.9929    1.1784    1.0955 C   0  0  0  0  0  0  0  0  0  0  0  0
    6.2669    1.0813    0.5323 C   0  0  0  0  0  0  0  0  0  0  0  0
    6.6578   -0.1311   -0.0311 C   0  0  0  0  0  0  0  0  0  0  0  0
    7.9442   -0.2723   -0.6206 N   0  0  0  0  0  0  0  0  0  0  0  0
    8.9501    0.6625   -0.7481 C   0  0  0  0  0  0  0  0  0  0  0  0
    9.9794    0.0190   -1.3963 C   0  0  0  0  0  0  0  0  0  0  0  0
    9.6477   -1.2780   -1.6724 N   0  0  0  0  0  0  0  0  0  0  0  0
    8.4295   -1.4259   -1.1969 C   0  0  0  0  0  0  0  0  0  0  0  0
    5.8433   -1.2179   -0.0532 N   0  0  0  0  0  0  0  0  0  0  0  0
    4.6144   -1.0934    0.4985 C   0  0  0  0  0  0  0  0  0  0  0  0
    0.1428    0.8900   -1.0317 H   0  0  0  0  0  0  0  0  0  0  0  0
   -2.0979    1.5900   -0.8278 H   0  0  0  0  0  0  0  0  0  0  0  0
   -2.0665    1.2487    0.9113 H   0  0  0  0  0  0  0  0  0  0  0  0
   -1.9527   -0.8840   -1.3013 H   0  0  0  0  0  0  0  0  0  0  0  0
   -1.9118   -1.2205    0.4228 H   0  0  0  0  0  0  0  0  0  0  0  0
   -7.6967   -2.3868   -0.1197 H   0  0  0  0  0  0  0  0  0  0  0  0
   -7.5456   -1.6875    1.4999 H   0  0  0  0  0  0  0  0  0  0  0  0
   -9.5427   -0.8545    0.1166 H   0  0  0  0  0  0  0  0  0  0  0  0
   -8.5228    0.4056    0.8108 H   0  0  0  0  0  0  0  0  0  0  0  0
   -9.1017    0.9164   -1.5689 H   0  0  0  0  0  0  0  0  0  0  0  0
   -8.3620   -0.6017   -2.0770 H   0  0  0  0  0  0  0  0  0  0  0  0
   -6.7010    1.0998   -2.4815 H   0  0  0  0  0  0  0  0  0  0  0  0
   -6.9854    1.8684   -0.9128 H   0  0  0  0  0  0  0  0  0  0  0  0
    2.0535    1.2885    0.0474 H   0  0  0  0  0  0  0  0  0  0  0  0
    2.6978    0.8774    2.4616 H   0  0  0  0  0  0  0  0  0  0  0  0
    2.4688   -0.8292    2.0909 H   0  0  0  0  0  0  0  0  0  0  0  0
    4.6710    2.1214    1.5350 H   0  0  0  0  0  0  0  0  0  0  0  0
    6.9108    1.9534    0.5493 H   0  0  0  0  0  0  0  0  0  0  0  0
    8.8717    1.6751   -0.3838 H   0  0  0  0  0  0  0  0  0  0  0  0
   10.9435    0.4244   -1.6773 H   0  0  0  0  0  0  0  0  0  0  0  0
    7.8457   -2.3378   -1.2350 H   0  0  0  0  0  0  0  0  0  0  0  0
    3.9973   -1.9876    0.4423 H   0  0  0  0  0  0  0  0  0  0  0  0
  1  2  2  0
  2  3  1  0
  3  4  1  0
  4  5  1  0
  5  6  1  0
  6  7  2  0
  7  8  1  0
  8  9  2  0
  9 10  1  0
 10 11  1  0
 11 12  1  0
 12 13  1  0
  9 14  1  0
  2 15  1  0
 15 16  1  0
 16 17  1  0
 17 18  2  0
 18 19  1  0
 19 20  2  0
 20 21  1  0
 21 22  1  0
 22 23  2  0
 23 24  1  0
 24 25  2  0
 20 26  1  0
 26 27  2  0
 14  6  1  0
 27 17  1  0
 13  8  1  0
 25 21  1  0
  3 28  1  0
  4 29  1  0
  4 30  1  0
  5 31  1  0
  5 32  1  0
 10 33  1  0
 10 34  1  0
 11 35  1  0
 11 36  1  0
 12 37  1  0
 12 38  1  0
 13 39  1  0
 13 40  1  0
 15 41  1  0
 16 42  1  0
 16 43  1  0
 18 44  1  0
 19 45  1  0
 22 46  1  0
 23 47  1  0
 25 48  1  0
 27 49  1  0
M  END
$$$$
OCNT-2310397
     RDKit          3D

 45 46  0  0  0  0  0  0  0  0999 V2000
   -4.5379   -1.7337    1.4497 C   0  0  0  0  0  0  0  0  0  0  0  0
   -4.4668   -0.2101    1.5032 C   0  0  0  0  0  0  0  0  0  0  0  0
   -3.0561    0.3588    1.7898 C   0  0  0  0  0  0  0  0  0  0  0  0
   -2.1130    0.3752    0.6540 N   0  0  0  0  0  0  0  0  0  0  0  0
   -1.4828   -0.9196    0.3930 C   0  0  0  0  0  0  0  0  0  0  0  0
    0.0450   -0.7994    0.3115 C   0  0  0  0  0  0  0  0  0  0  0  0
    0.5363    0.0824   -0.8328 C   0  0  0  0  0  0  0  0  0  0  0  0
    1.9729   -0.0332   -1.0218 N   0  0  0  0  0  0  0  0  0  0  0  0
    2.8598    0.6801   -0.2432 C   0  0  0  0  0  0  0  0  0  0  0  0
    2.5249    1.4781    0.6231 O   0  0  0  0  0  0  0  0  0  0  0  0
    4.3061    0.4125   -0.4714 C   0  0  0  0  0  0  0  0  0  0  0  0
    4.8001    0.0140   -1.7215 C   0  0  0  0  0  0  0  0  0  0  0  0
    6.1679   -0.2151   -1.8883 C   0  0  0  0  0  0  0  0  0  0  0  0
    7.0364   -0.0388   -0.8130 C   0  0  0  0  0  0  0  0  0  0  0  0
    8.3437   -0.2671   -1.0018 F   0  0  0  0  0  0  0  0  0  0  0  0
    6.5619    0.3716    0.4309 C   0  0  0  0  0  0  0  0  0  0  0  0
    7.4675    0.5529    1.5225 C   0  0  0  0  0  0  0  0  0  0  0  0
    8.1841    0.7000    2.4235 N   0  0  0  0  0  0  0  0  0  0  0  0
    5.1922    0.6024    0.6007 C   0  0  0  0  0  0  0  0  0  0  0  0
   -2.8050    0.9468   -0.5189 C   0  0  0  0  0  0  0  0  0  0  0  0
   -4.1749    0.2997   -0.8186 C   0  0  0  0  0  0  0  0  0  0  0  0
   -4.8720    1.0233   -1.9648 C   0  0  0  0  0  0  0  0  0  0  0  0
   -5.0438    0.3685    0.3214 O   0  0  0  0  0  0  0  0  0  0  0  0
   -5.5771   -2.0539    1.3159 H   0  0  0  0  0  0  0  0  0  0  0  0
   -3.9793   -2.1550    0.6106 H   0  0  0  0  0  0  0  0  0  0  0  0
   -4.1570   -2.1760    2.3754 H   0  0  0  0  0  0  0  0  0  0  0  0
   -5.1152    0.1058    2.3297 H   0  0  0  0  0  0  0  0  0  0  0  0
   -3.1862    1.4074    2.0913 H   0  0  0  0  0  0  0  0  0  0  0  0
   -2.6087   -0.1364    2.6606 H   0  0  0  0  0  0  0  0  0  0  0  0
   -1.8633   -1.3899   -0.5218 H   0  0  0  0  0  0  0  0  0  0  0  0
   -1.6915   -1.6280    1.2045 H   0  0  0  0  0  0  0  0  0  0  0  0
    0.4387   -0.4236    1.2646 H   0  0  0  0  0  0  0  0  0  0  0  0
    0.4596   -1.8089    0.1911 H   0  0  0  0  0  0  0  0  0  0  0  0
    0.2908    1.1337   -0.6488 H   0  0  0  0  0  0  0  0  0  0  0  0
    0.0741   -0.2213   -1.7778 H   0  0  0  0  0  0  0  0  0  0  0  0
    2.3074   -0.8139   -1.5684 H   0  0  0  0  0  0  0  0  0  0  0  0
    4.1411   -0.0918   -2.5792 H   0  0  0  0  0  0  0  0  0  0  0  0
    6.5660   -0.5197   -2.8524 H   0  0  0  0  0  0  0  0  0  0  0  0
    4.8067    0.9303    1.5665 H   0  0  0  0  0  0  0  0  0  0  0  0
   -2.1628    0.8998   -1.4058 H   0  0  0  0  0  0  0  0  0  0  0  0
   -2.9553    2.0152   -0.3133 H   0  0  0  0  0  0  0  0  0  0  0  0
   -4.0505   -0.7487   -1.1105 H   0  0  0  0  0  0  0  0  0  0  0  0
   -5.8438    0.5619   -2.1717 H   0  0  0  0  0  0  0  0  0  0  0  0
   -4.2705    0.9941   -2.8784 H   0  0  0  0  0  0  0  0  0  0  0  0
   -5.0699    2.0694   -1.7064 H   0  0  0  0  0  0  0  0  0  0  0  0
  1  2  1  0
  2  3  1  0
  3  4  1  0
  4  5  1  0
  5  6  1  0
  6  7  1  0
  7  8  1  0
  8  9  1  0
  9 10  2  0
  9 11  1  0
 11 12  1  0
 12 13  2  0
 13 14  1  0
 14 15  1  0
 14 16  2  0
 16 17  1  0
 17 18  3  0
 16 19  1  0
  4 20  1  0
 20 21  1  0
 21 22  1  0
 21 23  1  0
 23  2  1  0
 19 11  2  0
  1 24  1  0
  1 25  1  0
  1 26  1  0
  2 27  1  0
  3 28  1  0
  3 29  1  0
  5 30  1  0
  5 31  1  0
  6 32  1  0
  6 33  1  0
  7 34  1  0
  7 35  1  0
  8 36  1  0
 12 37  1  0
 13 38  1  0
 19 39  1  0
 20 40  1  0
 20 41  1  0
 21 42  1  0
 22 43  1  0
 22 44  1  0
 22 45  1  0
M  END
$$$$
OCNT-2310398
     RDKit          3D

 43 45  0  0  0  0  0  0  0  0999 V2000
    5.1514   -0.1437   -2.6699 C   0  0  0  0  0  0  0  0  0  0  0  0
    4.7093   -0.0125   -1.2423 C   0  0  0  0  0  0  0  0  0  0  0  0
    5.3565    0.8664   -0.3747 C   0  0  0  0  0  0  0  0  0  0  0  0
    4.9198    1.0013    0.9452 C   0  0  0  0  0  0  0  0  0  0  0  0
    3.8222    0.2695    1.4253 C   0  0  0  0  0  0  0  0  0  0  0  0
    3.3534    0.6230    3.2289 Br  0  0  0  0  0  0  0  0  0  0  0  0
    3.1570   -0.6007    0.5590 C   0  0  0  0  0  0  0  0  0  0  0  0
    1.7744   -1.6263    1.0097 S   0  0  0  0  0  0  0  0  0  0  0  0
    1.6179   -1.7026    2.4439 O   0  0  0  0  0  0  0  0  0  0  0  0
    1.8882   -2.8457    0.2328 O   0  0  0  0  0  0  0  0  0  0  0  0
    0.4346   -0.7529    0.3916 N   0  0  0  0  0  0  0  0  0  0  0  0
   -0.8157   -1.5621    0.2651 C   0  0  0  0  0  0  0  0  0  0  0  0
   -1.8738   -1.1358    1.2739 C   0  0  0  0  0  0  0  0  0  0  0  0
   -2.2618    0.3435    1.1120 C   0  0  0  0  0  0  0  0  0  0  0  0
   -3.5325    0.5261    0.3343 C   0  0  0  0  0  0  0  0  0  0  0  0
   -3.8111    0.1836   -0.9747 C   0  0  0  0  0  0  0  0  0  0  0  0
   -5.1034    0.5557   -1.2057 N   0  0  0  0  0  0  0  0  0  0  0  0
   -5.8477    0.4028   -2.4317 C   0  0  0  0  0  0  0  0  0  0  0  0
   -5.6936    1.1204   -0.1392 N   0  0  0  0  0  0  0  0  0  0  0  0
   -4.7416    1.1008    0.7952 C   0  0  0  0  0  0  0  0  0  0  0  0
   -1.1097    1.1729    0.5236 C   0  0  0  0  0  0  0  0  0  0  0  0
    0.2340    0.6072    0.9622 C   0  0  0  0  0  0  0  0  0  0  0  0
    3.6057   -0.7334   -0.7716 C   0  0  0  0  0  0  0  0  0  0  0  0
    4.9747   -1.1588   -3.0408 H   0  0  0  0  0  0  0  0  0  0  0  0
    4.6021    0.5643   -3.2979 H   0  0  0  0  0  0  0  0  0  0  0  0
    6.2238    0.0552   -2.7674 H   0  0  0  0  0  0  0  0  0  0  0  0
    6.2078    1.4521   -0.7164 H   0  0  0  0  0  0  0  0  0  0  0  0
    5.4501    1.6931    1.5979 H   0  0  0  0  0  0  0  0  0  0  0  0
   -0.6133   -2.6301    0.3963 H   0  0  0  0  0  0  0  0  0  0  0  0
   -1.1841   -1.4481   -0.7607 H   0  0  0  0  0  0  0  0  0  0  0  0
   -2.7509   -1.7896    1.1966 H   0  0  0  0  0  0  0  0  0  0  0  0
   -1.4684   -1.2852    2.2839 H   0  0  0  0  0  0  0  0  0  0  0  0
   -2.4536    0.7227    2.1267 H   0  0  0  0  0  0  0  0  0  0  0  0
   -3.2100   -0.2804   -1.7439 H   0  0  0  0  0  0  0  0  0  0  0  0
   -5.2145   -0.0722   -3.1850 H   0  0  0  0  0  0  0  0  0  0  0  0
   -6.1555    1.3939   -2.7741 H   0  0  0  0  0  0  0  0  0  0  0  0
   -6.7204   -0.2231   -2.2294 H   0  0  0  0  0  0  0  0  0  0  0  0
   -4.9641    1.5052    1.7747 H   0  0  0  0  0  0  0  0  0  0  0  0
   -1.2040    2.2154    0.8518 H   0  0  0  0  0  0  0  0  0  0  0  0
   -1.1513    1.1902   -0.5735 H   0  0  0  0  0  0  0  0  0  0  0  0
    0.2858    0.5827    2.0559 H   0  0  0  0  0  0  0  0  0  0  0  0
    1.0243    1.2672    0.5907 H   0  0  0  0  0  0  0  0  0  0  0  0
    3.0878   -1.4120   -1.4504 H   0  0  0  0  0  0  0  0  0  0  0  0
  1  2  1  0
  2  3  1  0
  3  4  2  0
  4  5  1  0
  5  6  1  0
  5  7  2  0
  7  8  1  0
  8  9  2  0
  8 10  2  0
  8 11  1  0
 11 12  1  0
 12 13  1  0
 13 14  1  0
 14 15  1  0
 15 16  2  0
 16 17  1  0
 17 18  1  0
 17 19  1  0
 19 20  2  0
 14 21  1  0
 21 22  1  0
  7 23  1  0
 23  2  2  0
 22 11  1  0
 20 15  1  0
  1 24  1  0
  1 25  1  0
  1 26  1  0
  3 27  1  0
  4 28  1  0
 12 29  1  0
 12 30  1  0
 13 31  1  0
 13 32  1  0
 14 33  1  0
 16 34  1  0
 18 35  1  0
 18 36  1  0
 18 37  1  0
 20 38  1  0
 21 39  1  0
 21 40  1  0
 22 41  1  0
 22 42  1  0
 23 43  1  0
M  END
$$$$
OCNT-2310401
     RDKit          3D

 49 52  0  0  0  0  0  0  0  0999 V2000
    8.4943    1.0665   -0.5528 C   0  0  0  0  0  0  0  0  0  0  0  0
    7.0645    0.9780   -0.2130 C   0  0  0  0  0  0  0  0  0  0  0  0
    6.1617   -0.0511   -0.1184 C   0  0  0  0  0  0  0  0  0  0  0  0
    4.9499    0.5711    0.2535 C   0  0  0  0  0  0  0  0  0  0  0  0
    3.7200    0.0066    0.4833 N   0  0  0  0  0  0  0  0  0  0  0  0
    3.3969   -1.3220    0.3437 C   0  0  0  0  0  0  0  0  0  0  0  0
    4.1676   -2.2227    0.0200 O   0  0  0  0  0  0  0  0  0  0  0  0
    1.9338   -1.6189    0.7019 C   0  0  0  0  0  0  0  0  0  0  0  0
    1.0679   -0.4327    0.4966 N   0  0  0  0  0  0  0  0  0  0  0  0
   -0.2024   -0.6048    1.2335 C   0  0  0  0  0  0  0  0  0  0  0  0
   -1.3256    0.3388    0.7468 C   0  0  0  0  0  0  0  0  0  0  0  0
   -1.6455    0.2137   -0.6864 N   0  0  0  0  0  0  0  0  0  0  0  0
   -2.9928   -0.2542   -1.0123 C   0  0  0  0  0  0  0  0  0  0  0  0
   -3.4050   -1.6387   -0.4549 C   0  0  0  0  0  0  0  0  0  0  0  0
   -4.9406   -1.6342   -0.3986 C   0  0  0  0  0  0  0  0  0  0  0  0
   -5.2227   -0.1852   -0.1446 C   0  0  0  0  0  0  0  0  0  0  0  0
   -6.4006    0.3832    0.3149 C   0  0  0  0  0  0  0  0  0  0  0  0
   -6.4594    1.7732    0.4339 C   0  0  0  0  0  0  0  0  0  0  0  0
   -5.3563    2.5587    0.0797 C   0  0  0  0  0  0  0  0  0  0  0  0
   -5.4413    3.8910    0.1943 F   0  0  0  0  0  0  0  0  0  0  0  0
   -4.1787    1.9892   -0.3948 C   0  0  0  0  0  0  0  0  0  0  0  0
   -4.1179    0.6074   -0.4924 C   0  0  0  0  0  0  0  0  0  0  0  0
   -0.6074   -0.5165   -1.4287 C   0  0  0  0  0  0  0  0  0  0  0  0
    0.8168   -0.1672   -0.9414 C   0  0  0  0  0  0  0  0  0  0  0  0
    5.1115    1.8934    0.3780 N   0  0  0  0  0  0  0  0  0  0  0  0
    6.4382    2.1466    0.0832 O   0  0  0  0  0  0  0  0  0  0  0  0
    9.0562    1.5258    0.2660 H   0  0  0  0  0  0  0  0  0  0  0  0
    8.6375    1.6717   -1.4532 H   0  0  0  0  0  0  0  0  0  0  0  0
    8.9157    0.0738   -0.7392 H   0  0  0  0  0  0  0  0  0  0  0  0
    6.3537   -1.0987   -0.2938 H   0  0  0  0  0  0  0  0  0  0  0  0
    2.9685    0.6468    0.7191 H   0  0  0  0  0  0  0  0  0  0  0  0
    1.9390   -1.9051    1.7610 H   0  0  0  0  0  0  0  0  0  0  0  0
    1.5822   -2.4728    0.1113 H   0  0  0  0  0  0  0  0  0  0  0  0
   -0.0178   -0.4139    2.2973 H   0  0  0  0  0  0  0  0  0  0  0  0
   -0.5610   -1.6398    1.1503 H   0  0  0  0  0  0  0  0  0  0  0  0
   -2.2027    0.2002    1.3893 H   0  0  0  0  0  0  0  0  0  0  0  0
   -1.0004    1.3737    0.9162 H   0  0  0  0  0  0  0  0  0  0  0  0
   -3.1085   -0.2665   -2.1057 H   0  0  0  0  0  0  0  0  0  0  0  0
   -3.0229   -1.7885    0.5631 H   0  0  0  0  0  0  0  0  0  0  0  0
   -3.0219   -2.4647   -1.0635 H   0  0  0  0  0  0  0  0  0  0  0  0
   -5.3731   -1.9393   -1.3570 H   0  0  0  0  0  0  0  0  0  0  0  0
   -5.3118   -2.2791    0.4027 H   0  0  0  0  0  0  0  0  0  0  0  0
   -7.2582   -0.2298    0.5732 H   0  0  0  0  0  0  0  0  0  0  0  0
   -7.3616    2.2585    0.7932 H   0  0  0  0  0  0  0  0  0  0  0  0
   -3.3390    2.6146   -0.6758 H   0  0  0  0  0  0  0  0  0  0  0  0
   -0.7470   -1.6016   -1.3426 H   0  0  0  0  0  0  0  0  0  0  0  0
   -0.6828   -0.2640   -2.4931 H   0  0  0  0  0  0  0  0  0  0  0  0
    1.5470   -0.6769   -1.5821 H   0  0  0  0  0  0  0  0  0  0  0  0
    0.9821    0.9062   -1.1032 H   0  0  0  0  0  0  0  0  0  0  0  0
  1  2  1  0
  2  3  2  0
  3  4  1  0
  4  5  1  0
  5  6  1  0
  6  7  2  0
  6  8  1  0
  8  9  1  0
  9 10  1  0
 10 11  1  0
 11 12  1  0
 12 13  1  0
 13 14  1  0
 14 15  1  0
 15 16  1  0
 16 17  1  0
 17 18  2  0
 18 19  1  0
 19 20  1  0
 19 21  2  0
 21 22  1  0
 12 23  1  0
 23 24  1  0
  4 25  2  0
 25 26  1  0
 26  2  1  0
 24  9  1  0
 22 13  1  0
 22 16  2  0
  1 27  1  0
  1 28  1  0
  1 29  1  0
  3 30  1  0
  5 31  1  0
  8 32  1  0
  8 33  1  0
 10 34  1  0
 10 35  1  0
 11 36  1  0
 11 37  1  0
 13 38  1  0
 14 39  1  0
 14 40  1  0
 15 41  1  0
 15 42  1  0
 17 43  1  0
 18 44  1  0
 21 45  1  0
 23 46  1  0
 23 47  1  0
 24 48  1  0
 24 49  1  0
M  END
$$$$
OCNT-2310404
     RDKit          3D

 50 52  0  0  0  0  0  0  0  0999 V2000
    5.8474   -2.4362   -1.3160 C   0  0  0  0  0  0  0  0  0  0  0  0
    5.7888   -2.6152    0.1888 C   0  0  0  0  0  0  0  0  0  0  0  0
    4.7624   -1.7167    0.7690 N   0  0  0  0  0  0  0  0  0  0  0  0
    5.3370   -0.2143    1.3265 S   0  0  0  0  0  0  0  0  0  0  0  0
    5.4302   -0.3564    2.7637 O   0  0  0  0  0  0  0  0  0  0  0  0
    6.4547    0.2090    0.5148 O   0  0  0  0  0  0  0  0  0  0  0  0
    3.9632    0.8399    0.9474 C   0  0  0  0  0  0  0  0  0  0  0  0
    3.5843    1.0063   -0.3874 C   0  0  0  0  0  0  0  0  0  0  0  0
    2.4990    1.8263   -0.6988 C   0  0  0  0  0  0  0  0  0  0  0  0
    1.7899    2.4814    0.3197 C   0  0  0  0  0  0  0  0  0  0  0  0
    0.6065    3.3621   -0.0152 C   0  0  0  0  0  0  0  0  0  0  0  0
   -0.6915    2.9167    0.6392 C   0  0  0  0  0  0  0  0  0  0  0  0
   -1.3830    3.6804    1.3079 O   0  0  0  0  0  0  0  0  0  0  0  0
   -1.0486    1.6066    0.3777 N   0  0  0  0  0  0  0  0  0  0  0  0
   -2.2604    0.9975    0.9642 C   0  0  2  0  0  0  0  0  0  0  0  0
   -2.4812   -0.4756    0.5577 C   0  0  0  0  0  0  0  0  0  0  0  0
   -3.3482    0.0309   -0.6306 C   0  0  1  0  0  0  0  0  0  0  0  0
   -4.6109   -0.8196   -1.0762 C   0  0  0  0  0  0  0  0  0  0  0  0
   -4.5893   -2.2293   -1.1006 C   0  0  0  0  0  0  0  0  0  0  0  0
   -5.6979   -2.9836   -1.5028 C   0  0  0  0  0  0  0  0  0  0  0  0
   -6.8620   -2.3386   -1.9028 C   0  0  0  0  0  0  0  0  0  0  0  0
   -8.2245   -3.2591   -2.4037 Cl  0  0  0  0  0  0  0  0  0  0  0  0
   -6.9239   -0.9501   -1.9016 C   0  0  0  0  0  0  0  0  0  0  0  0
   -5.8093   -0.2062   -1.4962 C   0  0  0  0  0  0  0  0  0  0  0  0
   -3.5665    1.3237    0.2074 C   0  0  0  0  0  0  0  0  0  0  0  0
    2.1961    2.3180    1.6543 C   0  0  0  0  0  0  0  0  0  0  0  0
    3.2786    1.4962    1.9711 C   0  0  0  0  0  0  0  0  0  0  0  0
    6.5512   -3.1482   -1.7601 H   0  0  0  0  0  0  0  0  0  0  0  0
    6.1661   -1.4262   -1.5922 H   0  0  0  0  0  0  0  0  0  0  0  0
    4.8640   -2.6095   -1.7653 H   0  0  0  0  0  0  0  0  0  0  0  0
    6.7675   -2.4598    0.6572 H   0  0  0  0  0  0  0  0  0  0  0  0
    5.4954   -3.6467    0.4164 H   0  0  0  0  0  0  0  0  0  0  0  0
    4.3135   -2.1649    1.5717 H   0  0  0  0  0  0  0  0  0  0  0  0
    4.1325    0.5031   -1.1813 H   0  0  0  0  0  0  0  0  0  0  0  0
    2.2155    1.9523   -1.7422 H   0  0  0  0  0  0  0  0  0  0  0  0
    0.8299    4.3898    0.3001 H   0  0  0  0  0  0  0  0  0  0  0  0
    0.4349    3.3900   -1.0992 H   0  0  0  0  0  0  0  0  0  0  0  0
   -0.3544    1.0222   -0.0764 H   0  0  0  0  0  0  0  0  0  0  0  0
   -2.3033    1.1672    2.0455 H   0  0  0  0  0  0  0  0  0  0  0  0
   -1.5875   -1.0424    0.2800 H   0  0  0  0  0  0  0  0  0  0  0  0
   -3.0331   -1.0500    1.3111 H   0  0  0  0  0  0  0  0  0  0  0  0
   -2.7193    0.2386   -1.5109 H   0  0  0  0  0  0  0  0  0  0  0  0
   -3.6851   -2.7558   -0.7978 H   0  0  0  0  0  0  0  0  0  0  0  0
   -5.6419   -4.0696   -1.5006 H   0  0  0  0  0  0  0  0  0  0  0  0
   -7.8285   -0.4373   -2.2161 H   0  0  0  0  0  0  0  0  0  0  0  0
   -5.8751    0.8811   -1.5099 H   0  0  0  0  0  0  0  0  0  0  0  0
   -4.4526    1.3040    0.8537 H   0  0  0  0  0  0  0  0  0  0  0  0
   -3.5777    2.2569   -0.3645 H   0  0  0  0  0  0  0  0  0  0  0  0
    1.6679    2.8319    2.4571 H   0  0  0  0  0  0  0  0  0  0  0  0
    3.5791    1.3795    3.0100 H   0  0  0  0  0  0  0  0  0  0  0  0
  1  2  1  0
  2  3  1  0
  3  4  1  0
  4  5  2  0
  4  6  2  0
  4  7  1  0
  7  8  1  0
  8  9  2  0
  9 10  1  0
 10 11  1  0
 11 12  1  0
 12 13  2  0
 12 14  1  0
 14 15  1  0
 15 16  1  0
 16 17  1  0
 17 18  1  0
 18 19  1  0
 19 20  2  0
 20 21  1  0
 21 22  1  0
 21 23  2  0
 23 24  1  0
 17 25  1  0
 10 26  2  0
 26 27  1  0
 27  7  2  0
 25 15  1  0
 24 18  2  0
  1 28  1  0
  1 29  1  0
  1 30  1  0
  2 31  1  0
  2 32  1  0
  3 33  1  0
  8 34  1  0
  9 35  1  0
 11 36  1  0
 11 37  1  0
 14 38  1  0
 15 39  1  1
 16 40  1  0
 16 41  1  0
 17 42  1  6
 19 43  1  0
 20 44  1  0
 23 45  1  0
 24 46  1  0
 25 47  1  0
 25 48  1  0
 26 49  1  0
 27 50  1  0
M  END
$$$$
OCNT-2310417
     RDKit          3D

 49 52  0  0  0  0  0  0  0  0999 V2000
   -2.2146    1.9243   -2.6567 C   0  0  0  0  0  0  0  0  0  0  0  0
   -2.3061    0.9638   -1.5042 C   0  0  0  0  0  0  0  0  0  0  0  0
   -1.1722    0.2431   -1.1279 C   0  0  0  0  0  0  0  0  0  0  0  0
   -1.2514   -0.6512   -0.0518 C   0  0  0  0  0  0  0  0  0  0  0  0
   -0.0891   -1.4420    0.4111 C   0  0  0  0  0  0  0  0  0  0  0  0
    0.0220   -1.7385    1.5945 O   0  0  0  0  0  0  0  0  0  0  0  0
    0.8203   -1.8171   -0.5537 N   0  0  0  0  0  0  0  0  0  0  0  0
    2.0378   -2.5224   -0.2166 C   0  0  0  0  0  0  0  0  0  0  0  0
    3.1945   -1.5717   -0.1164 C   0  0  0  0  0  0  0  0  0  0  0  0
    3.3713   -0.7591    1.0055 C   0  0  0  0  0  0  0  0  0  0  0  0
    4.4422    0.1333    1.0639 C   0  0  0  0  0  0  0  0  0  0  0  0
    5.3169    0.1947   -0.0169 C   0  0  0  0  0  0  0  0  0  0  0  0
    6.4201    1.0934   -0.0056 N   0  0  0  0  0  0  0  0  0  0  0  0
    7.3464    1.2414   -1.0173 C   0  0  0  0  0  0  0  0  0  0  0  0
    8.2224    2.2098   -0.5921 C   0  0  0  0  0  0  0  0  0  0  0  0
    7.8721    2.6682    0.6475 N   0  0  0  0  0  0  0  0  0  0  0  0
    6.7962    1.9838    0.9740 C   0  0  0  0  0  0  0  0  0  0  0  0
    5.1620   -0.5833   -1.1213 N   0  0  0  0  0  0  0  0  0  0  0  0
    4.1165   -1.4405   -1.1448 C   0  0  0  0  0  0  0  0  0  0  0  0
   -2.4786   -0.7551    0.6195 C   0  0  0  0  0  0  0  0  0  0  0  0
   -3.0240   -1.4598    1.7146 C   0  0  0  0  0  0  0  0  0  0  0  0
   -4.3154   -1.1816    1.9232 N   0  0  0  0  0  0  0  0  0  0  0  0
   -4.6021   -0.2752    0.9570 N   0  0  0  0  0  0  0  0  0  0  0  0
   -5.9376    0.3019    0.8616 C   0  0  0  0  0  0  0  0  0  0  0  0
   -6.9980   -0.7726    0.6237 C   0  0  0  0  0  0  0  0  0  0  0  0
   -6.2659    1.1462    2.0924 C   0  0  0  0  0  0  0  0  0  0  0  0
   -3.5327    0.0109    0.1459 C   0  0  0  0  0  0  0  0  0  0  0  0
   -3.5100    0.8661   -0.8962 N   0  0  0  0  0  0  0  0  0  0  0  0
   -3.1727    2.4278   -2.8222 H   0  0  0  0  0  0  0  0  0  0  0  0
   -1.9480    1.3884   -3.5730 H   0  0  0  0  0  0  0  0  0  0  0  0
   -1.4585    2.6890   -2.4525 H   0  0  0  0  0  0  0  0  0  0  0  0
   -0.2368    0.4072   -1.6524 H   0  0  0  0  0  0  0  0  0  0  0  0
    0.6580   -1.5983   -1.5258 H   0  0  0  0  0  0  0  0  0  0  0  0
    1.9200   -3.0722    0.7241 H   0  0  0  0  0  0  0  0  0  0  0  0
    2.2116   -3.2638   -1.0045 H   0  0  0  0  0  0  0  0  0  0  0  0
    2.6710   -0.8172    1.8383 H   0  0  0  0  0  0  0  0  0  0  0  0
    4.5512    0.7479    1.9492 H   0  0  0  0  0  0  0  0  0  0  0  0
    7.2960    0.6558   -1.9245 H   0  0  0  0  0  0  0  0  0  0  0  0
    9.0863    2.5997   -1.1150 H   0  0  0  0  0  0  0  0  0  0  0  0
    6.2627    2.1045    1.9059 H   0  0  0  0  0  0  0  0  0  0  0  0
    4.0434   -2.0355   -2.0514 H   0  0  0  0  0  0  0  0  0  0  0  0
   -2.5278   -2.1664    2.3689 H   0  0  0  0  0  0  0  0  0  0  0  0
   -5.9355    0.9661   -0.0110 H   0  0  0  0  0  0  0  0  0  0  0  0
   -7.9805   -0.3162    0.4645 H   0  0  0  0  0  0  0  0  0  0  0  0
   -7.0795   -1.4578    1.4745 H   0  0  0  0  0  0  0  0  0  0  0  0
   -6.7553   -1.3702   -0.2620 H   0  0  0  0  0  0  0  0  0  0  0  0
   -7.2382    1.6366    1.9776 H   0  0  0  0  0  0  0  0  0  0  0  0
   -6.3003    0.5381    3.0031 H   0  0  0  0  0  0  0  0  0  0  0  0
   -5.5103    1.9256    2.2418 H   0  0  0  0  0  0  0  0  0  0  0  0
  1  2  1  0
  2  3  1  0
  3  4  2  0
  4  5  1  0
  5  6  2  0
  5  7  1  0
  7  8  1  0
  8  9  1  0
  9 10  2  0
 10 11  1  0
 11 12  2  0
 12 13  1  0
 13 14  1  0
 14 15  2  0
 15 16  1  0
 16 17  2  0
 12 18  1  0
 18 19  2  0
  4 20  1  0
 20 21  1  0
 21 22  2  0
 22 23  1  0
 23 24  1  0
 24 25  1  0
 24 26  1  0
 23 27  1  0
 27 28  1  0
 28  2  2  0
 19  9  1  0
 27 20  2  0
 17 13  1  0
  1 29  1  0
  1 30  1  0
  1 31  1  0
  3 32  1  0
  7 33  1  0
  8 34  1  0
  8 35  1  0
 10 36  1  0
 11 37  1  0
 14 38  1  0
 15 39  1  0
 17 40  1  0
 19 41  1  0
 21 42  1  0
 24 43  1  0
 25 44  1  0
 25 45  1  0
 25 46  1  0
 26 47  1  0
 26 48  1  0
 26 49  1  0
M  END
$$$$
OCNT-2310418
     RDKit          3D

 55 58  0  0  0  0  0  0  0  0999 V2000
   -1.5073   -0.1222   -2.9184 O   0  0  0  0  0  0  0  0  0  0  0  0
   -1.0968   -0.7096   -1.9246 C   0  0  0  0  0  0  0  0  0  0  0  0
   -1.8668   -1.5601   -1.1560 N   0  0  0  0  0  0  0  0  0  0  0  0
   -3.2911   -1.7228   -1.3987 C   0  0  0  0  0  0  0  0  0  0  0  0
   -4.1802   -1.0591   -0.3076 C   0  0  0  0  0  0  0  0  0  0  0  0
   -3.8730    0.4426   -0.1688 C   0  0  0  0  0  0  0  0  0  0  0  0
   -3.4629    1.0406    1.0293 C   0  0  0  0  0  0  0  0  0  0  0  0
   -3.1986    2.4053    1.0583 C   0  0  0  0  0  0  0  0  0  0  0  0
   -3.3043    3.2186   -0.0098 N   0  0  0  0  0  0  0  0  0  0  0  0
   -3.6865    2.6367   -1.1631 C   0  0  0  0  0  0  0  0  0  0  0  0
   -3.9822    1.2861   -1.2866 C   0  0  0  0  0  0  0  0  0  0  0  0
   -4.0985   -1.8812    1.0043 C   0  0  0  0  0  0  0  0  0  0  0  0
   -5.4173   -1.6364    1.7406 C   0  0  0  0  0  0  0  0  0  0  0  0
   -6.4030   -1.1376    0.6877 C   0  0  0  0  0  0  0  0  0  0  0  0
   -5.6766   -1.2663   -0.6482 C   0  0  0  0  0  0  0  0  0  0  0  0
    0.3000   -0.5039   -1.4608 C   0  0  0  0  0  0  0  0  0  0  0  0
    0.8845    0.7530   -1.6345 C   0  0  0  0  0  0  0  0  0  0  0  0
    2.1979    0.9870   -1.2092 C   0  0  0  0  0  0  0  0  0  0  0  0
    2.9445   -0.0348   -0.6194 C   0  0  0  0  0  0  0  0  0  0  0  0
    4.2700    0.1189   -0.1624 N   0  0  0  0  0  0  0  0  0  0  0  0
    5.0751    1.2378   -0.2837 C   0  0  0  0  0  0  0  0  0  0  0  0
    4.8049    2.2800   -0.8668 O   0  0  0  0  0  0  0  0  0  0  0  0
    6.4227    1.1061    0.3391 C   0  0  0  0  0  0  0  0  0  0  0  0
    7.5149    1.7070   -0.2983 C   0  0  0  0  0  0  0  0  0  0  0  0
    8.7920    1.6023    0.2544 C   0  0  0  0  0  0  0  0  0  0  0  0
    8.9796    0.9078    1.4493 C   0  0  0  0  0  0  0  0  0  0  0  0
    7.8914    0.3244    2.0991 C   0  0  0  0  0  0  0  0  0  0  0  0
    6.6114    0.4251    1.5494 C   0  0  0  0  0  0  0  0  0  0  0  0
    2.3557   -1.2972   -0.4579 C   0  0  0  0  0  0  0  0  0  0  0  0
    1.0421   -1.5353   -0.8780 C   0  0  0  0  0  0  0  0  0  0  0  0
   -1.4972   -1.8915   -0.2762 H   0  0  0  0  0  0  0  0  0  0  0  0
   -3.4716   -2.8039   -1.4335 H   0  0  0  0  0  0  0  0  0  0  0  0
   -3.5432   -1.3367   -2.3929 H   0  0  0  0  0  0  0  0  0  0  0  0
   -3.3409    0.4839    1.9498 H   0  0  0  0  0  0  0  0  0  0  0  0
   -2.8822    2.8913    1.9769 H   0  0  0  0  0  0  0  0  0  0  0  0
   -3.7489    3.2998   -2.0210 H   0  0  0  0  0  0  0  0  0  0  0  0
   -4.2685    0.9043   -2.2619 H   0  0  0  0  0  0  0  0  0  0  0  0
   -4.0409   -2.9540    0.7736 H   0  0  0  0  0  0  0  0  0  0  0  0
   -3.2251   -1.6594    1.6246 H   0  0  0  0  0  0  0  0  0  0  0  0
   -5.7717   -2.5579    2.2148 H   0  0  0  0  0  0  0  0  0  0  0  0
   -5.2992   -0.8905    2.5337 H   0  0  0  0  0  0  0  0  0  0  0  0
   -7.3357   -1.7102    0.6964 H   0  0  0  0  0  0  0  0  0  0  0  0
   -6.6597   -0.0900    0.8835 H   0  0  0  0  0  0  0  0  0  0  0  0
   -6.0723   -0.5636   -1.3885 H   0  0  0  0  0  0  0  0  0  0  0  0
   -5.8416   -2.2777   -1.0433 H   0  0  0  0  0  0  0  0  0  0  0  0
    0.3180    1.5607   -2.0952 H   0  0  0  0  0  0  0  0  0  0  0  0
    2.6055    1.9829   -1.3552 H   0  0  0  0  0  0  0  0  0  0  0  0
    4.6976   -0.7078    0.2331 H   0  0  0  0  0  0  0  0  0  0  0  0
    7.3708    2.2566   -1.2266 H   0  0  0  0  0  0  0  0  0  0  0  0
    9.6385    2.0679   -0.2446 H   0  0  0  0  0  0  0  0  0  0  0  0
    9.9749    0.8326    1.8813 H   0  0  0  0  0  0  0  0  0  0  0  0
    8.0407   -0.1977    3.0413 H   0  0  0  0  0  0  0  0  0  0  0  0
    5.7716   -0.0019    2.0902 H   0  0  0  0  0  0  0  0  0  0  0  0
    2.9147   -2.1173   -0.0142 H   0  0  0  0  0  0  0  0  0  0  0  0
    0.6249   -2.5324   -0.7720 H   0  0  0  0  0  0  0  0  0  0  0  0
  1  2  2  0
  2  3  1  0
  3  4  1  0
  4  5  1  0
  5  6  1  0
  6  7  2  0
  7  8  1  0
  8  9  2  0
  9 10  1  0
 10 11  2  0
  5 12  1  0
 12 13  1  0
 13 14  1  0
 14 15  1  0
  2 16  1  0
 16 17  1  0
 17 18  2  0
 18 19  1  0
 19 20  1  0
 20 21  1  0
 21 22  2  0
 21 23  1  0
 23 24  2  0
 24 25  1  0
 25 26  2  0
 26 27  1  0
 27 28  2  0
 19 29  2  0
 29 30  1  0
 15  5  1  0
 30 16  2  0
 11  6  1  0
 28 23  1  0
  3 31  1  0
  4 32  1  0
  4 33  1  0
  7 34  1  0
  8 35  1  0
 10 36  1  0
 11 37  1  0
 12 38  1  0
 12 39  1  0
 13 40  1  0
 13 41  1  0
 14 42  1  0
 14 43  1  0
 15 44  1  0
 15 45  1  0
 17 46  1  0
 18 47  1  0
 20 48  1  0
 24 49  1  0
 25 50  1  0
 26 51  1  0
 27 52  1  0
 28 53  1  0
 29 54  1  0
 30 55  1  0
M  END
$$$$
OCNT-2310433
     RDKit          3D

 43 46  0  0  0  0  0  0  0  0999 V2000
    0.1805   -1.0404    1.6440 C   0  0  0  0  0  0  0  0  0  0  0  0
   -1.0395   -0.4407    0.9465 C   0  0  0  0  0  0  0  0  0  0  0  0
   -1.7336   -1.4374    0.0036 C   0  0  0  0  0  0  0  0  0  0  0  0
   -2.5405   -0.8049   -1.0038 O   0  0  0  0  0  0  0  0  0  0  0  0
   -3.5634   -0.0718   -0.4641 C   0  0  0  0  0  0  0  0  0  0  0  0
   -4.8542   -0.5632   -0.6730 C   0  0  0  0  0  0  0  0  0  0  0  0
   -5.9556    0.1354   -0.1843 C   0  0  0  0  0  0  0  0  0  0  0  0
   -5.7673    1.3352    0.4961 C   0  0  0  0  0  0  0  0  0  0  0  0
   -4.4776    1.8391    0.6817 C   0  0  0  0  0  0  0  0  0  0  0  0
   -3.3510    1.1438    0.2052 C   0  0  0  0  0  0  0  0  0  0  0  0
   -1.9885    1.7860    0.3945 C   0  0  0  0  0  0  0  0  0  0  0  0
   -0.8428    0.8784    0.3084 N   0  0  0  0  0  0  0  0  0  0  0  0
    0.2350    1.3271   -0.4465 C   0  0  0  0  0  0  0  0  0  0  0  0
    0.4082    2.5040   -0.7578 O   0  0  0  0  0  0  0  0  0  0  0  0
    1.2478    0.3811   -0.9306 C   0  0  0  0  0  0  0  0  0  0  0  0
    0.9261   -0.5192   -1.9397 C   0  0  0  0  0  0  0  0  0  0  0  0
    1.9307   -1.3501   -2.3864 C   0  0  0  0  0  0  0  0  0  0  0  0
    3.1933   -1.3206   -1.9051 N   0  0  0  0  0  0  0  0  0  0  0  0
    3.4967   -0.3962   -0.9537 C   0  0  0  0  0  0  0  0  0  0  0  0
    4.8385   -0.3612   -0.4855 N   0  0  0  0  0  0  0  0  0  0  0  0
    5.4076    0.4655    0.4585 C   0  0  0  0  0  0  0  0  0  0  0  0
    6.7254    0.0798    0.5484 C   0  0  0  0  0  0  0  0  0  0  0  0
    6.9904   -0.9545   -0.3037 N   0  0  0  0  0  0  0  0  0  0  0  0
    5.8489   -1.1945   -0.9122 C   0  0  0  0  0  0  0  0  0  0  0  0
    2.5519    0.4821   -0.4447 C   0  0  0  0  0  0  0  0  0  0  0  0
   -0.1325   -1.8412    2.3235 H   0  0  0  0  0  0  0  0  0  0  0  0
    0.7069   -0.2844    2.2358 H   0  0  0  0  0  0  0  0  0  0  0  0
    0.8886   -1.4879    0.9432 H   0  0  0  0  0  0  0  0  0  0  0  0
   -1.7348   -0.2473    1.7766 H   0  0  0  0  0  0  0  0  0  0  0  0
   -2.3392   -2.1557    0.5719 H   0  0  0  0  0  0  0  0  0  0  0  0
   -0.9891   -2.0330   -0.5345 H   0  0  0  0  0  0  0  0  0  0  0  0
   -4.9995   -1.4914   -1.2190 H   0  0  0  0  0  0  0  0  0  0  0  0
   -6.9592   -0.2500   -0.3436 H   0  0  0  0  0  0  0  0  0  0  0  0
   -6.6255    1.8885    0.8699 H   0  0  0  0  0  0  0  0  0  0  0  0
   -4.3555    2.7916    1.1947 H   0  0  0  0  0  0  0  0  0  0  0  0
   -1.8989    2.5989   -0.3350 H   0  0  0  0  0  0  0  0  0  0  0  0
   -1.9387    2.2305    1.3966 H   0  0  0  0  0  0  0  0  0  0  0  0
   -0.0671   -0.5570   -2.3735 H   0  0  0  0  0  0  0  0  0  0  0  0
    1.7492   -2.0802   -3.1709 H   0  0  0  0  0  0  0  0  0  0  0  0
    4.8646    1.2403    0.9771 H   0  0  0  0  0  0  0  0  0  0  0  0
    7.4968    0.4963    1.1839 H   0  0  0  0  0  0  0  0  0  0  0  0
    5.6866   -1.9545   -1.6659 H   0  0  0  0  0  0  0  0  0  0  0  0
    2.7802    1.2338    0.3012 H   0  0  0  0  0  0  0  0  0  0  0  0
  1  2  1  0
  2  3  1  0
  3  4  1  0
  4  5  1  0
  5  6  2  0
  6  7  1  0
  7  8  2  0
  8  9  1  0
  9 10  2  0
 10 11  1  0
 11 12  1  0
 12 13  1  0
 13 14  2  0
 13 15  1  0
 15 16  2  0
 16 17  1  0
 17 18  2  0
 18 19  1  0
 19 20  1  0
 20 21  1  0
 21 22  2  0
 22 23  1  0
 23 24  2  0
 19 25  2  0
 12  2  1  0
 25 15  1  0
 10  5  1  0
 24 20  1  0
  1 26  1  0
  1 27  1  0
  1 28  1  0
  2 29  1  0
  3 30  1  0
  3 31  1  0
  6 32  1  0
  7 33  1  0
  8 34  1  0
  9 35  1  0
 11 36  1  0
 11 37  1  0
 16 38  1  0
 17 39  1  0
 21 40  1  0
 22 41  1  0
 24 42  1  0
 25 43  1  0
M  END
$$$$
OCNT-2310436
     RDKit          3D

 36 37  0  0  0  0  0  0  0  0999 V2000
    6.6149    0.6139    0.6876 C   0  0  0  0  0  0  0  0  0  0  0  0
    5.6555   -0.1271   -0.2263 C   0  0  0  0  0  0  0  0  0  0  0  0
    4.3475    0.4044   -0.0156 O   0  0  0  0  0  0  0  0  0  0  0  0
    3.3375   -0.1415   -0.7532 C   0  0  0  0  0  0  0  0  0  0  0  0
    3.4389   -1.1588   -1.6929 C   0  0  0  0  0  0  0  0  0  0  0  0
    2.3891   -1.6596   -2.3890 N   0  0  0  0  0  0  0  0  0  0  0  0
    1.1772   -1.1170   -2.1350 C   0  0  0  0  0  0  0  0  0  0  0  0
    0.9617   -0.0860   -1.2275 C   0  0  0  0  0  0  0  0  0  0  0  0
   -0.4187    0.4611   -0.9973 C   0  0  0  0  0  0  0  0  0  0  0  0
   -1.1744   -0.4703   -0.1727 N   0  0  0  0  0  0  0  0  0  0  0  0
   -2.4531   -0.1261    0.2733 C   0  0  0  0  0  0  0  0  0  0  0  0
   -3.0165   -0.8714    1.3188 C   0  0  0  0  0  0  0  0  0  0  0  0
   -4.3175   -0.6280    1.7732 C   0  0  0  0  0  0  0  0  0  0  0  0
   -5.1091    0.3526    1.1656 C   0  0  0  0  0  0  0  0  0  0  0  0
   -6.5044    0.6363    1.6622 C   0  0  0  0  0  0  0  0  0  0  0  0
   -7.3439    1.0708    0.6806 F   0  0  0  0  0  0  0  0  0  0  0  0
   -6.5249    1.6001    2.6239 F   0  0  0  0  0  0  0  0  0  0  0  0
   -7.1106   -0.4531    2.2122 F   0  0  0  0  0  0  0  0  0  0  0  0
   -4.5665    1.0806    0.0997 C   0  0  0  0  0  0  0  0  0  0  0  0
   -3.2631    0.8295   -0.3490 C   0  0  0  0  0  0  0  0  0  0  0  0
    2.0715    0.3947   -0.5237 C   0  0  0  0  0  0  0  0  0  0  0  0
    7.6361    0.2426    0.5643 H   0  0  0  0  0  0  0  0  0  0  0  0
    6.6004    1.6875    0.4726 H   0  0  0  0  0  0  0  0  0  0  0  0
    6.3191    0.4946    1.7352 H   0  0  0  0  0  0  0  0  0  0  0  0
    5.9636    0.0234   -1.2674 H   0  0  0  0  0  0  0  0  0  0  0  0
    5.6764   -1.1947    0.0217 H   0  0  0  0  0  0  0  0  0  0  0  0
    4.3832   -1.6328   -1.9369 H   0  0  0  0  0  0  0  0  0  0  0  0
    0.3536   -1.5521   -2.6966 H   0  0  0  0  0  0  0  0  0  0  0  0
   -0.9030    0.6078   -1.9706 H   0  0  0  0  0  0  0  0  0  0  0  0
   -0.3516    1.4418   -0.5097 H   0  0  0  0  0  0  0  0  0  0  0  0
   -0.6113   -0.8789    0.5706 H   0  0  0  0  0  0  0  0  0  0  0  0
   -2.4386   -1.6609    1.7950 H   0  0  0  0  0  0  0  0  0  0  0  0
   -4.7111   -1.2197    2.5983 H   0  0  0  0  0  0  0  0  0  0  0  0
   -5.1611    1.8438   -0.4007 H   0  0  0  0  0  0  0  0  0  0  0  0
   -2.9033    1.4015   -1.1990 H   0  0  0  0  0  0  0  0  0  0  0  0
    1.9567    1.1906    0.2084 H   0  0  0  0  0  0  0  0  0  0  0  0
  1  2  1  0
  2  3  1  0
  3  4  1  0
  4  5  1  0
  5  6  2  0
  6  7  1  0
  7  8  2  0
  8  9  1  0
  9 10  1  0
 10 11  1  0
 11 12  1  0
 12 13  2  0
 13 14  1  0
 14 15  1  0
 15 16  1  0
 15 17  1  0
 15 18  1  0
 14 19  2  0
 19 20  1  0
  8 21  1  0
 21  4  2  0
 20 11  2  0
  1 22  1  0
  1 23  1  0
  1 24  1  0
  2 25  1  0
  2 26  1  0
  5 27  1  0
  7 28  1  0
  9 29  1  0
  9 30  1  0
 10 31  1  0
 12 32  1  0
 13 33  1  0
 19 34  1  0
 20 35  1  0
 21 36  1  0
M  END
$$$$
OCNT-2310437
     RDKit          3D

 41 43  0  0  0  0  0  0  0  0999 V2000
   -1.1228   -2.4630   -0.6694 O   0  0  0  0  0  0  0  0  0  0  0  0
   -1.4601   -1.3832   -0.1907 C   0  0  0  0  0  0  0  0  0  0  0  0
   -2.2900   -1.2834    1.0935 C   0  0  0  0  0  0  0  0  0  0  0  0
   -3.5842   -0.6347    0.8824 N   0  0  0  0  0  0  0  0  0  0  0  0
   -4.6257   -1.4016    0.2040 C   0  0  0  0  0  0  0  0  0  0  0  0
   -6.0022   -0.7679    0.3821 C   0  0  0  0  0  0  0  0  0  0  0  0
   -5.9741    0.5670   -0.1245 O   0  0  0  0  0  0  0  0  0  0  0  0
   -5.0417    1.3572    0.6023 C   0  0  0  0  0  0  0  0  0  0  0  0
   -3.6466    0.7552    0.8581 C   0  0  0  0  0  0  0  0  0  0  0  0
   -2.6598    1.4623    1.0668 O   0  0  0  0  0  0  0  0  0  0  0  0
   -1.1061   -0.1654   -0.7268 N   0  0  0  0  0  0  0  0  0  0  0  0
   -0.2241   -0.0434   -1.8595 C   0  0  0  0  0  0  0  0  0  0  0  0
    1.2016    0.1431   -1.4115 C   0  0  0  0  0  0  0  0  0  0  0  0
    2.0188   -0.9643   -1.1595 C   0  0  0  0  0  0  0  0  0  0  0  0
    3.3379   -0.7987   -0.7182 C   0  0  0  0  0  0  0  0  0  0  0  0
    3.8685    0.4851   -0.5109 C   0  0  0  0  0  0  0  0  0  0  0  0
    5.2127    0.6430   -0.0620 N   0  0  0  0  0  0  0  0  0  0  0  0
    6.1218   -0.3637    0.2059 C   0  0  0  0  0  0  0  0  0  0  0  0
    7.2816    0.2539    0.6077 C   0  0  0  0  0  0  0  0  0  0  0  0
    7.1330    1.6069    0.6015 N   0  0  0  0  0  0  0  0  0  0  0  0
    5.8964    1.8129    0.2004 C   0  0  0  0  0  0  0  0  0  0  0  0
    3.0395    1.5864   -0.7541 C   0  0  0  0  0  0  0  0  0  0  0  0
    3.4585    2.8461   -0.5782 F   0  0  0  0  0  0  0  0  0  0  0  0
    1.7240    1.4213   -1.1939 C   0  0  0  0  0  0  0  0  0  0  0  0
   -2.4610   -2.2879    1.4947 H   0  0  0  0  0  0  0  0  0  0  0  0
   -1.7103   -0.7217    1.8349 H   0  0  0  0  0  0  0  0  0  0  0  0
   -4.6320   -2.4219    0.6005 H   0  0  0  0  0  0  0  0  0  0  0  0
   -4.3620   -1.4296   -0.8595 H   0  0  0  0  0  0  0  0  0  0  0  0
   -6.7526   -1.3291   -0.1830 H   0  0  0  0  0  0  0  0  0  0  0  0
   -6.3081   -0.7534    1.4349 H   0  0  0  0  0  0  0  0  0  0  0  0
   -5.4778    1.6128    1.5748 H   0  0  0  0  0  0  0  0  0  0  0  0
   -4.9035    2.2868    0.0406 H   0  0  0  0  0  0  0  0  0  0  0  0
   -1.3167    0.6698   -0.1813 H   0  0  0  0  0  0  0  0  0  0  0  0
   -0.3095   -0.9242   -2.5061 H   0  0  0  0  0  0  0  0  0  0  0  0
   -0.5559    0.8216   -2.4443 H   0  0  0  0  0  0  0  0  0  0  0  0
    1.6259   -1.9719   -1.2993 H   0  0  0  0  0  0  0  0  0  0  0  0
    3.9140   -1.7023   -0.5435 H   0  0  0  0  0  0  0  0  0  0  0  0
    5.8974   -1.4128    0.0978 H   0  0  0  0  0  0  0  0  0  0  0  0
    8.2144   -0.2109    0.9003 H   0  0  0  0  0  0  0  0  0  0  0  0
    5.4645    2.7965    0.0896 H   0  0  0  0  0  0  0  0  0  0  0  0
    1.1161    2.3071   -1.3603 H   0  0  0  0  0  0  0  0  0  0  0  0
  1  2  2  0
  2  3  1  0
  3  4  1  0
  4  5  1  0
  5  6  1  0
  6  7  1  0
  7  8  1  0
  8  9  1  0
  9 10  2  0
  2 11  1  0
 11 12  1  0
 12 13  1  0
 13 14  1  0
 14 15  2  0
 15 16  1  0
 16 17  1  0
 17 18  1  0
 18 19  2  0
 19 20  1  0
 20 21  2  0
 16 22  2  0
 22 23  1  0
 22 24  1  0
  9  4  1  0
 24 13  2  0
 21 17  1  0
  3 25  1  0
  3 26  1  0
  5 27  1  0
  5 28  1  0
  6 29  1  0
  6 30  1  0
  8 31  1  0
  8 32  1  0
 11 33  1  0
 12 34  1  0
 12 35  1  0
 14 36  1  0
 15 37  1  0
 18 38  1  0
 19 39  1  0
 21 40  1  0
 24 41  1  0
M  END
$$$$
OCNT-2310440
     RDKit          3D

 50 53  0  0  0  0  0  0  0  0999 V2000
    0.0529   -1.4722    1.1766 O   0  0  0  0  0  0  0  0  0  0  0  0
    0.2425   -1.0691    0.0362 C   0  0  0  0  0  0  0  0  0  0  0  0
    1.2774   -1.4889   -0.7686 N   0  0  0  0  0  0  0  0  0  0  0  0
    2.2984   -2.3916   -0.2905 C   0  0  0  0  0  0  0  0  0  0  0  0
    3.5792   -1.6429   -0.0258 C   0  0  0  0  0  0  0  0  0  0  0  0
    4.6362   -1.6726   -0.9411 C   0  0  0  0  0  0  0  0  0  0  0  0
    5.8140   -0.9571   -0.6944 C   0  0  0  0  0  0  0  0  0  0  0  0
    5.9521   -0.1920    0.4733 C   0  0  0  0  0  0  0  0  0  0  0  0
    7.1508    0.5386    0.7233 N   0  0  0  0  0  0  0  0  0  0  0  0
    8.2768    0.6024   -0.0722 C   0  0  0  0  0  0  0  0  0  0  0  0
    9.1623    1.4293    0.5772 C   0  0  0  0  0  0  0  0  0  0  0  0
    8.6309    1.8834    1.7473 N   0  0  0  0  0  0  0  0  0  0  0  0
    7.4358    1.3374    1.8121 C   0  0  0  0  0  0  0  0  0  0  0  0
    4.8901   -0.1564    1.3877 C   0  0  0  0  0  0  0  0  0  0  0  0
    3.7161   -0.8744    1.1364 C   0  0  0  0  0  0  0  0  0  0  0  0
   -0.6751   -0.0698   -0.5667 C   0  0  0  0  0  0  0  0  0  0  0  0
   -0.1793    0.9837   -1.3429 C   0  0  0  0  0  0  0  0  0  0  0  0
   -1.0618    1.9203   -1.8752 C   0  0  0  0  0  0  0  0  0  0  0  0
   -2.4327    1.8036   -1.6312 C   0  0  0  0  0  0  0  0  0  0  0  0
   -2.9388    0.7516   -0.8542 C   0  0  0  0  0  0  0  0  0  0  0  0
   -4.3352    0.7163   -0.6537 N   0  0  0  0  0  0  0  0  0  0  0  0
   -5.0669   -0.2982   -0.0629 C   0  0  0  0  0  0  0  0  0  0  0  0
   -4.6475   -1.3902    0.2983 O   0  0  0  0  0  0  0  0  0  0  0  0
   -6.5246   -0.0198    0.0800 C   0  0  0  0  0  0  0  0  0  0  0  0
   -7.4255   -1.0862   -0.0582 C   0  0  0  0  0  0  0  0  0  0  0  0
   -8.7978   -0.8648    0.0710 C   0  0  0  0  0  0  0  0  0  0  0  0
   -9.2612    0.4163    0.3484 C   0  0  0  0  0  0  0  0  0  0  0  0
  -10.5772    0.6291    0.4732 F   0  0  0  0  0  0  0  0  0  0  0  0
   -8.3788    1.4805    0.5070 C   0  0  0  0  0  0  0  0  0  0  0  0
   -7.0045    1.2650    0.3779 C   0  0  0  0  0  0  0  0  0  0  0  0
   -2.0494   -0.1778   -0.3119 C   0  0  0  0  0  0  0  0  0  0  0  0
    1.3607   -1.1387   -1.7116 H   0  0  0  0  0  0  0  0  0  0  0  0
    1.9728   -2.9129    0.6165 H   0  0  0  0  0  0  0  0  0  0  0  0
    2.4488   -3.1515   -1.0651 H   0  0  0  0  0  0  0  0  0  0  0  0
    4.5543   -2.2565   -1.8556 H   0  0  0  0  0  0  0  0  0  0  0  0
    6.6010   -1.0228   -1.4393 H   0  0  0  0  0  0  0  0  0  0  0  0
    8.3727    0.0768   -1.0088 H   0  0  0  0  0  0  0  0  0  0  0  0
   10.1557    1.7186    0.2588 H   0  0  0  0  0  0  0  0  0  0  0  0
    6.7460    1.4955    2.6284 H   0  0  0  0  0  0  0  0  0  0  0  0
    4.9298    0.4164    2.3091 H   0  0  0  0  0  0  0  0  0  0  0  0
    2.8976   -0.8310    1.8555 H   0  0  0  0  0  0  0  0  0  0  0  0
    0.8882    1.1018   -1.5081 H   0  0  0  0  0  0  0  0  0  0  0  0
   -0.6843    2.7476   -2.4713 H   0  0  0  0  0  0  0  0  0  0  0  0
   -3.0990    2.5488   -2.0590 H   0  0  0  0  0  0  0  0  0  0  0  0
   -4.8584    1.4772   -1.0664 H   0  0  0  0  0  0  0  0  0  0  0  0
   -7.0572   -2.0895   -0.2657 H   0  0  0  0  0  0  0  0  0  0  0  0
   -9.5037   -1.6824   -0.0369 H   0  0  0  0  0  0  0  0  0  0  0  0
   -8.7679    2.4663    0.7428 H   0  0  0  0  0  0  0  0  0  0  0  0
   -6.3236    2.0955    0.5439 H   0  0  0  0  0  0  0  0  0  0  0  0
   -2.3929   -0.9927    0.3198 H   0  0  0  0  0  0  0  0  0  0  0  0
  1  2  2  0
  2  3  1  0
  3  4  1  0
  4  5  1  0
  5  6  1  0
  6  7  2  0
  7  8  1  0
  8  9  1  0
  9 10  1  0
 10 11  2  0
 11 12  1  0
 12 13  2  0
  8 14  2  0
 14 15  1  0
  2 16  1  0
 16 17  1  0
 17 18  2  0
 18 19  1  0
 19 20  2  0
 20 21  1  0
 21 22  1  0
 22 23  2  0
 22 24  1  0
 24 25  1  0
 25 26  2  0
 26 27  1  0
 27 28  1  0
 27 29  2  0
 29 30  1  0
 20 31  1  0
 15  5  2  0
 31 16  2  0
 13  9  1  0
 30 24  2  0
  3 32  1  0
  4 33  1  0
  4 34  1  0
  6 35  1  0
  7 36  1  0
 10 37  1  0
 11 38  1  0
 13 39  1  0
 14 40  1  0
 15 41  1  0
 17 42  1  0
 18 43  1  0
 19 44  1  0
 21 45  1  0
 25 46  1  0
 26 47  1  0
 29 48  1  0
 30 49  1  0
 31 50  1  0
M  END
$$$$
OCNT-2310442
     RDKit          3D

 56 59  0  0  0  0  0  0  0  0999 V2000
   -2.4888    2.9579    2.9036 C   0  0  0  0  0  0  0  0  0  0  0  0
   -1.5118    2.7930    1.8775 O   0  0  0  0  0  0  0  0  0  0  0  0
   -2.0202    2.9600    0.6123 C   0  0  0  0  0  0  0  0  0  0  0  0
   -2.7839    4.0881    0.2851 C   0  0  0  0  0  0  0  0  0  0  0  0
   -3.2676    4.2585   -1.0115 C   0  0  0  0  0  0  0  0  0  0  0  0
   -2.9798    3.3102   -1.9872 C   0  0  0  0  0  0  0  0  0  0  0  0
   -2.1955    2.1981   -1.6700 C   0  0  0  0  0  0  0  0  0  0  0  0
   -1.6890    2.0054   -0.3700 C   0  0  0  0  0  0  0  0  0  0  0  0
   -0.8292    0.7824   -0.0196 C   0  0  0  0  0  0  0  0  0  0  0  0
    0.3421    0.5779   -1.0505 C   0  0  0  0  0  0  0  0  0  0  0  0
    1.2530   -0.5264   -0.7008 N   0  0  0  0  0  0  0  0  0  0  0  0
    2.4074   -0.6359   -1.6095 C   0  0  0  0  0  0  0  0  0  0  0  0
    2.8904   -2.1144   -1.5958 C   0  0  0  0  0  0  0  0  0  0  0  0
    3.4435   -2.5797   -0.2301 C   0  0  0  0  0  0  0  0  0  0  0  0
    4.3077   -1.5303    0.3680 C   0  0  0  0  0  0  0  0  0  0  0  0
    4.3409   -0.2309   -0.0818 C   0  0  0  0  0  0  0  0  0  0  0  0
    3.5725    0.3304   -1.2256 C   0  0  0  0  0  0  0  0  0  0  0  0
    5.2212    0.4356    0.7129 N   0  0  0  0  0  0  0  0  0  0  0  0
    5.7567   -0.3497    1.6664 N   0  0  0  0  0  0  0  0  0  0  0  0
    5.2003   -1.5471    1.4524 C   0  0  0  0  0  0  0  0  0  0  0  0
   -1.6865   -0.3961    0.2692 N   0  0  0  0  0  0  0  0  0  0  0  0
   -1.2289   -1.1581    1.4391 C   0  0  0  0  0  0  0  0  0  0  0  0
   -1.4336   -2.6733    1.3368 C   0  0  0  0  0  0  0  0  0  0  0  0
   -2.8045   -3.0239    0.7749 C   0  0  0  0  0  0  0  0  0  0  0  0
   -3.1212   -2.2332   -0.4952 C   0  0  0  0  0  0  0  0  0  0  0  0
   -2.0254   -1.2323   -0.8773 C   0  0  0  0  0  0  0  0  0  0  0  0
   -2.1288    2.4294    3.7917 H   0  0  0  0  0  0  0  0  0  0  0  0
   -2.5927    4.0175    3.1615 H   0  0  0  0  0  0  0  0  0  0  0  0
   -3.4599    2.5286    2.6273 H   0  0  0  0  0  0  0  0  0  0  0  0
   -2.9964    4.8503    1.0295 H   0  0  0  0  0  0  0  0  0  0  0  0
   -3.8656    5.1310   -1.2592 H   0  0  0  0  0  0  0  0  0  0  0  0
   -3.3622    3.4344   -2.9986 H   0  0  0  0  0  0  0  0  0  0  0  0
   -1.9919    1.4775   -2.4570 H   0  0  0  0  0  0  0  0  0  0  0  0
   -0.3095    1.0491    0.9111 H   0  0  0  0  0  0  0  0  0  0  0  0
    0.9047    1.5182   -1.1129 H   0  0  0  0  0  0  0  0  0  0  0  0
   -0.0643    0.3843   -2.0501 H   0  0  0  0  0  0  0  0  0  0  0  0
    1.5830   -0.4003    0.2577 H   0  0  0  0  0  0  0  0  0  0  0  0
    2.0842   -0.4061   -2.6336 H   0  0  0  0  0  0  0  0  0  0  0  0
    3.6802   -2.2225   -2.3515 H   0  0  0  0  0  0  0  0  0  0  0  0
    2.0770   -2.7841   -1.9028 H   0  0  0  0  0  0  0  0  0  0  0  0
    2.6122   -2.7950    0.4529 H   0  0  0  0  0  0  0  0  0  0  0  0
    4.0056   -3.5115   -0.3626 H   0  0  0  0  0  0  0  0  0  0  0  0
    3.1989    1.3337   -0.9897 H   0  0  0  0  0  0  0  0  0  0  0  0
    4.2462    0.4308   -2.0877 H   0  0  0  0  0  0  0  0  0  0  0  0
    5.5004    1.4108    0.6762 H   0  0  0  0  0  0  0  0  0  0  0  0
    5.4637   -2.3730    2.1000 H   0  0  0  0  0  0  0  0  0  0  0  0
   -0.1673   -0.9919    1.6562 H   0  0  0  0  0  0  0  0  0  0  0  0
   -1.7814   -0.7836    2.3111 H   0  0  0  0  0  0  0  0  0  0  0  0
   -0.6565   -3.1031    0.6901 H   0  0  0  0  0  0  0  0  0  0  0  0
   -1.3071   -3.1327    2.3238 H   0  0  0  0  0  0  0  0  0  0  0  0
   -2.8514   -4.0994    0.5649 H   0  0  0  0  0  0  0  0  0  0  0  0
   -3.5743   -2.8246    1.5310 H   0  0  0  0  0  0  0  0  0  0  0  0
   -4.0731   -1.7019   -0.3565 H   0  0  0  0  0  0  0  0  0  0  0  0
   -3.2784   -2.9272   -1.3298 H   0  0  0  0  0  0  0  0  0  0  0  0
   -2.4123   -0.6301   -1.7049 H   0  0  0  0  0  0  0  0  0  0  0  0
   -1.1525   -1.7747   -1.2611 H   0  0  0  0  0  0  0  0  0  0  0  0
  1  2  1  0
  2  3  1  0
  3  4  2  0
  4  5  1  0
  5  6  2  0
  6  7  1  0
  7  8  2  0
  8  9  1  0
  9 10  1  0
 10 11  1  0
 11 12  1  0
 12 13  1  0
 13 14  1  0
 14 15  1  0
 15 16  2  0
 16 17  1  0
 16 18  1  0
 18 19  1  0
 19 20  2  0
  9 21  1  0
 21 22  1  0
 22 23  1  0
 23 24  1  0
 24 25  1  0
 25 26  1  0
  8  3  1  0
 17 12  1  0
 26 21  1  0
 20 15  1  0
  1 27  1  0
  1 28  1  0
  1 29  1  0
  4 30  1  0
  5 31  1  0
  6 32  1  0
  7 33  1  0
  9 34  1  0
 10 35  1  0
 10 36  1  0
 11 37  1  0
 12 38  1  0
 13 39  1  0
 13 40  1  0
 14 41  1  0
 14 42  1  0
 17 43  1  0
 17 44  1  0
 18 45  1  0
 20 46  1  0
 22 47  1  0
 22 48  1  0
 23 49  1  0
 23 50  1  0
 24 51  1  0
 24 52  1  0
 25 53  1  0
 25 54  1  0
 26 55  1  0
 26 56  1  0
M  END
$$$$
OCNT-2310447
     RDKit          3D

 35 37  0  0  0  0  0  0  0  0999 V2000
    4.6689    1.6155   -1.2400 C   0  0  0  0  0  0  0  0  0  0  0  0
    4.3612    0.9052    0.0265 C   0  0  0  0  0  0  0  0  0  0  0  0
    3.3911   -0.0686    0.2231 C   0  0  0  0  0  0  0  0  0  0  0  0
    2.4281   -0.6660   -0.6829 C   0  0  0  0  0  0  0  0  0  0  0  0
    2.3193   -0.3631   -1.8685 O   0  0  0  0  0  0  0  0  0  0  0  0
    1.6206   -1.6131   -0.0905 N   0  0  0  0  0  0  0  0  0  0  0  0
    0.5200   -2.2317   -0.7828 C   0  0  0  0  0  0  0  0  0  0  0  0
   -0.7636   -1.4977   -0.5284 C   0  0  0  0  0  0  0  0  0  0  0  0
   -1.6086   -1.8371    0.5299 C   0  0  0  0  0  0  0  0  0  0  0  0
   -2.7849   -1.1164    0.7428 C   0  0  0  0  0  0  0  0  0  0  0  0
   -3.0854   -0.0606   -0.1133 C   0  0  0  0  0  0  0  0  0  0  0  0
   -4.2738    0.6988    0.0670 N   0  0  0  0  0  0  0  0  0  0  0  0
   -5.2607    0.5563    1.0185 C   0  0  0  0  0  0  0  0  0  0  0  0
   -6.1849    1.5397    0.7502 C   0  0  0  0  0  0  0  0  0  0  0  0
   -5.8062    2.2839   -0.3306 N   0  0  0  0  0  0  0  0  0  0  0  0
   -4.6626    1.7614   -0.7190 C   0  0  0  0  0  0  0  0  0  0  0  0
   -2.2742    0.2929   -1.1428 N   0  0  0  0  0  0  0  0  0  0  0  0
   -1.1391   -0.4214   -1.3226 C   0  0  0  0  0  0  0  0  0  0  0  0
    3.4112   -0.4813    1.5325 O   0  0  0  0  0  0  0  0  0  0  0  0
    4.3848    0.2215    2.1619 C   0  0  0  0  0  0  0  0  0  0  0  0
    4.9979    1.0841    1.2868 C   0  0  0  0  0  0  0  0  0  0  0  0
    3.7926    2.1679   -1.5939 H   0  0  0  0  0  0  0  0  0  0  0  0
    5.4857    2.3314   -1.1022 H   0  0  0  0  0  0  0  0  0  0  0  0
    4.9709    0.9050   -2.0160 H   0  0  0  0  0  0  0  0  0  0  0  0
    1.7122   -1.7247    0.9124 H   0  0  0  0  0  0  0  0  0  0  0  0
    0.4446   -3.2632   -0.4211 H   0  0  0  0  0  0  0  0  0  0  0  0
    0.7243   -2.2834   -1.8584 H   0  0  0  0  0  0  0  0  0  0  0  0
   -1.3591   -2.6618    1.1935 H   0  0  0  0  0  0  0  0  0  0  0  0
   -3.4262   -1.4002    1.5686 H   0  0  0  0  0  0  0  0  0  0  0  0
   -5.2411   -0.2001    1.7871 H   0  0  0  0  0  0  0  0  0  0  0  0
   -7.1046    1.7489    1.2817 H   0  0  0  0  0  0  0  0  0  0  0  0
   -4.0674    2.1023   -1.5568 H   0  0  0  0  0  0  0  0  0  0  0  0
   -0.5159   -0.0882   -2.1509 H   0  0  0  0  0  0  0  0  0  0  0  0
    4.5192    0.0012    3.2119 H   0  0  0  0  0  0  0  0  0  0  0  0
    5.8057    1.7626    1.5251 H   0  0  0  0  0  0  0  0  0  0  0  0
  1  2  1  0
  2  3  2  0
  3  4  1  0
  4  5  2  0
  4  6  1  0
  6  7  1  0
  7  8  1  0
  8  9  2  0
  9 10  1  0
 10 11  2  0
 11 12  1  0
 12 13  1  0
 13 14  2  0
 14 15  1  0
 15 16  2  0
 11 17  1  0
 17 18  2  0
  3 19  1  0
 19 20  1  0
 20 21  2  0
 21  2  1  0
 18  8  1  0
 16 12  1  0
  1 22  1  0
  1 23  1  0
  1 24  1  0
  6 25  1  0
  7 26  1  0
  7 27  1  0
  9 28  1  0
 10 29  1  0
 13 30  1  0
 14 31  1  0
 16 32  1  0
 18 33  1  0
 20 34  1  0
 21 35  1  0
M  END
$$$$
OCNT-2310448
     RDKit          3D

 45 48  0  0  0  0  0  0  0  0999 V2000
    0.2117    3.2046    1.6313 C   0  0  0  0  0  0  0  0  0  0  0  0
    0.8076    1.8287    1.9164 C   0  0  0  0  0  0  0  0  0  0  0  0
   -0.2866    0.8313    2.2820 C   0  0  0  0  0  0  0  0  0  0  0  0
   -0.4533    0.5239    3.4617 O   0  0  0  0  0  0  0  0  0  0  0  0
   -1.0796    0.4049    1.2258 N   0  0  0  0  0  0  0  0  0  0  0  0
   -2.1986   -0.4540    1.2757 C   0  0  0  0  0  0  0  0  0  0  0  0
   -2.7665   -0.9309    2.4569 C   0  0  0  0  0  0  0  0  0  0  0  0
   -3.8674   -1.7898    2.4155 C   0  0  0  0  0  0  0  0  0  0  0  0
   -4.4172   -2.1689    1.1921 C   0  0  0  0  0  0  0  0  0  0  0  0
   -3.8812   -1.6833   -0.0051 C   0  0  0  0  0  0  0  0  0  0  0  0
   -4.4759   -2.0957   -1.2720 C   0  0  0  0  0  0  0  0  0  0  0  0
   -4.8485   -3.3215   -1.5957 N   0  0  0  0  0  0  0  0  0  0  0  0
   -5.3525   -3.2591   -2.8703 N   0  0  0  0  0  0  0  0  0  0  0  0
   -5.3238   -2.0185   -3.3301 N   0  0  0  0  0  0  0  0  0  0  0  0
   -4.8014   -1.2872   -2.3326 N   0  0  0  0  0  0  0  0  0  0  0  0
   -4.7201    0.1410   -2.4593 C   0  0  0  0  0  0  0  0  0  0  0  0
   -2.7624   -0.8366    0.0481 C   0  0  0  0  0  0  0  0  0  0  0  0
    1.6191    1.3460    0.8152 N   0  0  0  0  0  0  0  0  0  0  0  0
    1.1078    1.1746   -0.4202 N   0  0  0  0  0  0  0  0  0  0  0  0
    2.1347    0.7766   -1.1548 N   0  0  0  0  0  0  0  0  0  0  0  0
    3.2377    0.7498   -0.3277 C   0  0  0  0  0  0  0  0  0  0  0  0
    4.5648    0.3633   -0.7883 C   0  0  0  0  0  0  0  0  0  0  0  0
    4.7750   -0.0015   -2.1266 C   0  0  0  0  0  0  0  0  0  0  0  0
    6.0467   -0.3733   -2.5715 C   0  0  0  0  0  0  0  0  0  0  0  0
    7.1210   -0.3845   -1.6841 C   0  0  0  0  0  0  0  0  0  0  0  0
    6.9268   -0.0248   -0.3521 C   0  0  0  0  0  0  0  0  0  0  0  0
    5.6558    0.3471    0.0938 C   0  0  0  0  0  0  0  0  0  0  0  0
    2.9397    1.1241    0.9304 N   0  0  0  0  0  0  0  0  0  0  0  0
   -0.3559    3.5656    2.4958 H   0  0  0  0  0  0  0  0  0  0  0  0
   -0.4728    3.1862    0.7758 H   0  0  0  0  0  0  0  0  0  0  0  0
    0.9995    3.9332    1.4112 H   0  0  0  0  0  0  0  0  0  0  0  0
    1.4794    1.9076    2.7810 H   0  0  0  0  0  0  0  0  0  0  0  0
   -0.7611    0.6520    0.2897 H   0  0  0  0  0  0  0  0  0  0  0  0
   -2.3742   -0.6634    3.4331 H   0  0  0  0  0  0  0  0  0  0  0  0
   -4.2920   -2.1686    3.3425 H   0  0  0  0  0  0  0  0  0  0  0  0
   -5.2683   -2.8484    1.1773 H   0  0  0  0  0  0  0  0  0  0  0  0
   -4.9149    0.6055   -1.4899 H   0  0  0  0  0  0  0  0  0  0  0  0
   -3.7205    0.3985   -2.8166 H   0  0  0  0  0  0  0  0  0  0  0  0
   -5.4717    0.4840   -3.1757 H   0  0  0  0  0  0  0  0  0  0  0  0
   -2.3054   -0.4970   -0.8785 H   0  0  0  0  0  0  0  0  0  0  0  0
    3.9505   -0.0010   -2.8370 H   0  0  0  0  0  0  0  0  0  0  0  0
    6.1972   -0.6550   -3.6107 H   0  0  0  0  0  0  0  0  0  0  0  0
    8.1098   -0.6747   -2.0304 H   0  0  0  0  0  0  0  0  0  0  0  0
    7.7635   -0.0343    0.3420 H   0  0  0  0  0  0  0  0  0  0  0  0
    5.5234    0.6234    1.1384 H   0  0  0  0  0  0  0  0  0  0  0  0
  1  2  1  0
  2  3  1  0
  3  4  2  0
  3  5  1  0
  5  6  1  0
  6  7  2  0
  7  8  1  0
  8  9  2  0
  9 10  1  0
 10 11  1  0
 11 12  2  0
 12 13  1  0
 13 14  2  0
 14 15  1  0
 15 16  1  0
 10 17  2  0
  2 18  1  0
 18 19  1  0
 19 20  2  0
 20 21  1  0
 21 22  1  0
 22 23  2  0
 23 24  1  0
 24 25  2  0
 25 26  1  0
 26 27  2  0
 21 28  2  0
 17  6  1  0
 28 18  1  0
 15 11  1  0
 27 22  1  0
  1 29  1  0
  1 30  1  0
  1 31  1  0
  2 32  1  0
  5 33  1  0
  7 34  1  0
  8 35  1  0
  9 36  1  0
 16 37  1  0
 16 38  1  0
 16 39  1  0
 17 40  1  0
 23 41  1  0
 24 42  1  0
 25 43  1  0
 26 44  1  0
 27 45  1  0
M  END
$$$$
OCNT-2310450
     RDKit          3D

 46 50  0  0  0  0  0  0  0  0999 V2000
   -3.4458    1.6126    1.9716 O   0  0  0  0  0  0  0  0  0  0  0  0
   -2.7877    1.0727    1.0873 C   0  0  0  0  0  0  0  0  0  0  0  0
   -3.5008    0.6184   -0.1240 C   0  0  0  0  0  0  0  0  0  0  0  0
   -3.3575    1.3940   -1.2836 C   0  0  0  0  0  0  0  0  0  0  0  0
   -4.0010    1.0086   -2.4546 C   0  0  0  0  0  0  0  0  0  0  0  0
   -4.7873   -0.1437   -2.4649 C   0  0  0  0  0  0  0  0  0  0  0  0
   -4.9469   -0.9205   -1.3007 C   0  0  0  0  0  0  0  0  0  0  0  0
   -5.7317   -2.0763   -1.2828 C   0  0  0  0  0  0  0  0  0  0  0  0
   -5.9237   -2.8614   -0.1986 N   0  0  0  0  0  0  0  0  0  0  0  0
   -5.3130   -2.4758    0.9381 C   0  0  0  0  0  0  0  0  0  0  0  0
   -4.5098   -1.3513    1.0370 C   0  0  0  0  0  0  0  0  0  0  0  0
   -4.3079   -0.5441   -0.1010 C   0  0  0  0  0  0  0  0  0  0  0  0
   -1.4084    0.8816    1.1498 N   0  0  0  0  0  0  0  0  0  0  0  0
   -0.7450    1.2120    2.4121 C   0  0  0  0  0  0  0  0  0  0  0  0
    0.7450    1.5511    2.2391 C   0  0  0  0  0  0  0  0  0  0  0  0
    1.4442    0.5169    1.4500 N   0  0  0  0  0  0  0  0  0  0  0  0
    2.8163    0.5141    1.4291 C   0  0  0  0  0  0  0  0  0  0  0  0
    3.5207    0.1343    0.3824 N   0  0  0  0  0  0  0  0  0  0  0  0
    4.8781    0.2037    0.6351 C   0  0  0  0  0  0  0  0  0  0  0  0
    5.9219   -0.1920   -0.4687 C   0  0  0  0  0  0  0  0  0  0  0  0
    5.5549   -0.6244   -1.7251 C   0  0  0  0  0  0  0  0  0  0  0  0
    6.6849   -0.9217   -2.5424 C   0  0  0  0  0  0  0  0  0  0  0  0
    7.8714   -0.7043   -1.8769 C   0  0  0  0  0  0  0  0  0  0  0  0
    7.6164   -0.1460   -0.2790 S   0  0  0  0  0  0  0  0  0  0  0  0
    5.2164    0.6344    1.8965 C   0  0  0  0  0  0  0  0  0  0  0  0
    3.7978    0.9551    2.7924 S   0  0  0  0  0  0  0  0  0  0  0  0
    0.7938    0.2334    0.1533 C   0  0  0  0  0  0  0  0  0  0  0  0
   -0.6938   -0.1090    0.3328 C   0  0  0  0  0  0  0  0  0  0  0  0
   -2.7501    2.2958   -1.2672 H   0  0  0  0  0  0  0  0  0  0  0  0
   -3.8962    1.6054   -3.3576 H   0  0  0  0  0  0  0  0  0  0  0  0
   -5.2859   -0.4321   -3.3889 H   0  0  0  0  0  0  0  0  0  0  0  0
   -6.2495   -2.4178   -2.1760 H   0  0  0  0  0  0  0  0  0  0  0  0
   -5.4906   -3.1125    1.8004 H   0  0  0  0  0  0  0  0  0  0  0  0
   -4.0608   -1.1062    1.9951 H   0  0  0  0  0  0  0  0  0  0  0  0
   -1.2526    2.0530    2.8973 H   0  0  0  0  0  0  0  0  0  0  0  0
   -0.8570    0.3394    3.0681 H   0  0  0  0  0  0  0  0  0  0  0  0
    0.8426    2.5181    1.7289 H   0  0  0  0  0  0  0  0  0  0  0  0
    1.1690    1.6573    3.2432 H   0  0  0  0  0  0  0  0  0  0  0  0
    4.5229   -0.7232   -2.0408 H   0  0  0  0  0  0  0  0  0  0  0  0
    6.6288   -1.2768   -3.5640 H   0  0  0  0  0  0  0  0  0  0  0  0
    8.8765   -0.8460   -2.2498 H   0  0  0  0  0  0  0  0  0  0  0  0
    6.1956    0.7692    2.3311 H   0  0  0  0  0  0  0  0  0  0  0  0
    1.2694   -0.6168   -0.3515 H   0  0  0  0  0  0  0  0  0  0  0  0
    0.8900    1.1112   -0.4991 H   0  0  0  0  0  0  0  0  0  0  0  0
   -0.7973   -1.0729    0.8470 H   0  0  0  0  0  0  0  0  0  0  0  0
   -1.1561   -0.2175   -0.6513 H   0  0  0  0  0  0  0  0  0  0  0  0
  1  2  2  0
  2  3  1  0
  3  4  2  0
  4  5  1  0
  5  6  2  0
  6  7  1  0
  7  8  2  0
  8  9  1  0
  9 10  2  0
 10 11  1  0
 11 12  2  0
  2 13  1  0
 13 14  1  0
 14 15  1  0
 15 16  1  0
 16 17  1  0
 17 18  2  0
 18 19  1  0
 19 20  1  0
 20 21  2  0
 21 22  1  0
 22 23  2  0
 23 24  1  0
 19 25  2  0
 25 26  1  0
 16 27  1  0
 27 28  1  0
 12  3  1  0
 28 13  1  0
 12  7  1  0
 26 17  1  0
 24 20  1  0
  4 29  1  0
  5 30  1  0
  6 31  1  0
  8 32  1  0
 10 33  1  0
 11 34  1  0
 14 35  1  0
 14 36  1  0
 15 37  1  0
 15 38  1  0
 21 39  1  0
 22 40  1  0
 23 41  1  0
 25 42  1  0
 27 43  1  0
 27 44  1  0
 28 45  1  0
 28 46  1  0
M  END
$$$$
OCNT-2310453
     RDKit          3D

 50 52  0  0  0  0  0  0  0  0999 V2000
    4.1119    0.1974    0.7876 C   0  0  0  0  0  0  0  0  0  0  0  0
    3.6657   -0.6135   -0.4427 C   0  0  0  0  0  0  0  0  0  0  0  0
    4.9326   -1.2900   -1.0320 C   0  0  0  0  0  0  0  0  0  0  0  0
    2.7249   -1.7550   -0.0155 C   0  0  0  0  0  0  0  0  0  0  0  0
    3.0304    0.2769   -1.4233 N   0  0  0  0  0  0  0  0  0  0  0  0
    3.6951    0.6087   -2.5527 N   0  0  0  0  0  0  0  0  0  0  0  0
    2.8922    1.4098   -3.2298 N   0  0  0  0  0  0  0  0  0  0  0  0
    1.7300    1.6215   -2.5483 N   0  0  0  0  0  0  0  0  0  0  0  0
    1.8209    0.9377   -1.4213 C   0  0  0  0  0  0  0  0  0  0  0  0
    0.7658    0.9103   -0.3702 C   0  0  0  0  0  0  0  0  0  0  0  0
   -0.2209   -0.1287   -0.6835 N   0  0  0  0  0  0  0  0  0  0  0  0
   -1.4592   -0.0949    0.1412 C   0  0  0  0  0  0  0  0  0  0  0  0
   -2.2353    1.2277   -0.0732 C   0  0  0  0  0  0  0  0  0  0  0  0
   -2.6272    2.0651    0.9862 C   0  0  0  0  0  0  0  0  0  0  0  0
   -3.3294    3.2541    0.7522 C   0  0  0  0  0  0  0  0  0  0  0  0
   -3.6567    3.6266   -0.5465 C   0  0  0  0  0  0  0  0  0  0  0  0
   -4.5197    5.0871   -0.8283 Cl  0  0  0  0  0  0  0  0  0  0  0  0
   -3.2922    2.8181   -1.6153 C   0  0  0  0  0  0  0  0  0  0  0  0
   -2.5927    1.6303   -1.3799 C   0  0  0  0  0  0  0  0  0  0  0  0
   -1.0374   -0.3961    1.6177 C   0  0  0  0  0  0  0  0  0  0  0  0
   -2.1220   -1.1320    2.4022 C   0  0  0  0  0  0  0  0  0  0  0  0
   -2.3823   -2.5183    1.8088 C   0  0  0  0  0  0  0  0  0  0  0  0
   -2.1034   -2.5887    0.3065 C   0  0  0  0  0  0  0  0  0  0  0  0
   -2.3885   -1.2499   -0.3681 C   0  0  0  0  0  0  0  0  0  0  0  0
    4.7970    1.0041    0.5008 H   0  0  0  0  0  0  0  0  0  0  0  0
    4.6307   -0.4392    1.5136 H   0  0  0  0  0  0  0  0  0  0  0  0
    3.2684    0.6602    1.3076 H   0  0  0  0  0  0  0  0  0  0  0  0
    5.3967   -1.9660   -0.3040 H   0  0  0  0  0  0  0  0  0  0  0  0
    5.6930   -0.5521   -1.3142 H   0  0  0  0  0  0  0  0  0  0  0  0
    4.6905   -1.8811   -1.9233 H   0  0  0  0  0  0  0  0  0  0  0  0
    2.2884   -2.2581   -0.8859 H   0  0  0  0  0  0  0  0  0  0  0  0
    3.2593   -2.5101    0.5733 H   0  0  0  0  0  0  0  0  0  0  0  0
    1.9075   -1.4017    0.6149 H   0  0  0  0  0  0  0  0  0  0  0  0
    0.3040    1.9040   -0.3540 H   0  0  0  0  0  0  0  0  0  0  0  0
    1.2019    0.7537    0.6177 H   0  0  0  0  0  0  0  0  0  0  0  0
   -0.4762   -0.0272   -1.6668 H   0  0  0  0  0  0  0  0  0  0  0  0
   -2.4079    1.8184    2.0208 H   0  0  0  0  0  0  0  0  0  0  0  0
   -3.6184    3.8815    1.5916 H   0  0  0  0  0  0  0  0  0  0  0  0
   -3.5461    3.1011   -2.6335 H   0  0  0  0  0  0  0  0  0  0  0  0
   -2.3290    1.0183   -2.2405 H   0  0  0  0  0  0  0  0  0  0  0  0
   -0.7249    0.5100    2.1484 H   0  0  0  0  0  0  0  0  0  0  0  0
   -0.1527   -1.0482    1.6319 H   0  0  0  0  0  0  0  0  0  0  0  0
   -1.8241   -1.2364    3.4517 H   0  0  0  0  0  0  0  0  0  0  0  0
   -3.0510   -0.5504    2.3987 H   0  0  0  0  0  0  0  0  0  0  0  0
   -1.7611   -3.2653    2.3175 H   0  0  0  0  0  0  0  0  0  0  0  0
   -3.4236   -2.7977    2.0096 H   0  0  0  0  0  0  0  0  0  0  0  0
   -2.7188   -3.3773   -0.1414 H   0  0  0  0  0  0  0  0  0  0  0  0
   -1.0582   -2.8742    0.1347 H   0  0  0  0  0  0  0  0  0  0  0  0
   -2.3042   -1.3704   -1.4566 H   0  0  0  0  0  0  0  0  0  0  0  0
   -3.4437   -1.0003   -0.1844 H   0  0  0  0  0  0  0  0  0  0  0  0
  1  2  1  0
  2  3  1  0
  2  4  1  0
  2  5  1  0
  5  6  1  0
  6  7  2  0
  7  8  1  0
  8  9  2  0
  9 10  1  0
 10 11  1  0
 11 12  1  0
 12 13  1  0
 13 14  1  0
 14 15  2  0
 15 16  1  0
 16 17  1  0
 16 18  2  0
 18 19  1  0
 12 20  1  0
 20 21  1  0
 21 22  1  0
 22 23  1  0
 23 24  1  0
  9  5  1  0
 24 12  1  0
 19 13  2  0
  1 25  1  0
  1 26  1  0
  1 27  1  0
  3 28  1  0
  3 29  1  0
  3 30  1  0
  4 31  1  0
  4 32  1  0
  4 33  1  0
 10 34  1  0
 10 35  1  0
 11 36  1  0
 14 37  1  0
 15 38  1  0
 18 39  1  0
 19 40  1  0
 20 41  1  0
 20 42  1  0
 21 43  1  0
 21 44  1  0
 22 45  1  0
 22 46  1  0
 23 47  1  0
 23 48  1  0
 24 49  1  0
 24 50  1  0
M  END
$$$$
OCNT-2310458
     RDKit          3D

 41 43  0  0  0  0  0  0  0  0999 V2000
   -3.8143   -3.0917    1.0774 C   0  0  0  0  0  0  0  0  0  0  0  0
   -4.5611   -2.0231    0.5164 O   0  0  0  0  0  0  0  0  0  0  0  0
   -4.4010   -0.7886    1.2155 C   0  0  0  0  0  0  0  0  0  0  0  0
   -3.1229   -0.0763    0.8335 C   0  0  0  0  0  0  0  0  0  0  0  0
   -2.0121   -0.1420    1.6972 C   0  0  0  0  0  0  0  0  0  0  0  0
   -0.8087    0.4995    1.3886 C   0  0  0  0  0  0  0  0  0  0  0  0
    0.2855    0.2806    2.2841 N   0  0  0  0  0  0  0  0  0  0  0  0
    1.6317    1.2925    2.3347 S   0  0  0  0  0  0  0  0  0  0  0  0
    1.2202    2.6555    2.0848 O   0  0  0  0  0  0  0  0  0  0  0  0
    2.3571    0.9171    3.5293 O   0  0  0  0  0  0  0  0  0  0  0  0
    2.7001    0.8248    0.9954 C   0  0  0  0  0  0  0  0  0  0  0  0
    2.7055   -0.2654    0.1507 C   0  0  0  0  0  0  0  0  0  0  0  0
    3.7764   -0.2327   -0.8021 C   0  0  0  0  0  0  0  0  0  0  0  0
    4.1202   -1.1424   -1.8310 C   0  0  0  0  0  0  0  0  0  0  0  0
    5.2278   -0.8912   -2.6445 C   0  0  0  0  0  0  0  0  0  0  0  0
    5.6321   -2.0059   -3.8923 Cl  0  0  0  0  0  0  0  0  0  0  0  0
    6.0038    0.2440   -2.4590 C   0  0  0  0  0  0  0  0  0  0  0  0
    5.6868    1.1574   -1.4501 C   0  0  0  0  0  0  0  0  0  0  0  0
    4.5697    0.9051   -0.6297 C   0  0  0  0  0  0  0  0  0  0  0  0
    3.9953    1.8812    0.6670 S   0  0  0  0  0  0  0  0  0  0  0  0
   -0.7010    1.1604    0.1674 C   0  0  0  0  0  0  0  0  0  0  0  0
   -1.7980    1.2393   -0.7004 C   0  0  0  0  0  0  0  0  0  0  0  0
   -3.0112    0.6276   -0.3767 C   0  0  0  0  0  0  0  0  0  0  0  0
   -4.1348    0.6678   -1.1566 O   0  0  0  0  0  0  0  0  0  0  0  0
   -4.0200    1.2489   -2.4487 C   0  0  0  0  0  0  0  0  0  0  0  0
   -2.7401   -2.9122    0.9803 H   0  0  0  0  0  0  0  0  0  0  0  0
   -4.0802   -3.2410    2.1283 H   0  0  0  0  0  0  0  0  0  0  0  0
   -4.0581   -4.0044    0.5267 H   0  0  0  0  0  0  0  0  0  0  0  0
   -4.4594   -0.9528    2.2991 H   0  0  0  0  0  0  0  0  0  0  0  0
   -5.2591   -0.1530    0.9680 H   0  0  0  0  0  0  0  0  0  0  0  0
   -2.0992   -0.7100    2.6208 H   0  0  0  0  0  0  0  0  0  0  0  0
    0.0298    0.0156    3.2354 H   0  0  0  0  0  0  0  0  0  0  0  0
    1.9667   -1.0560    0.2102 H   0  0  0  0  0  0  0  0  0  0  0  0
    3.5210   -2.0359   -1.9861 H   0  0  0  0  0  0  0  0  0  0  0  0
    6.8648    0.4315   -3.0963 H   0  0  0  0  0  0  0  0  0  0  0  0
    6.2942    2.0465   -1.3020 H   0  0  0  0  0  0  0  0  0  0  0  0
    0.2159    1.6498   -0.1443 H   0  0  0  0  0  0  0  0  0  0  0  0
   -1.6675    1.7924   -1.6253 H   0  0  0  0  0  0  0  0  0  0  0  0
   -4.9843    1.1350   -2.9531 H   0  0  0  0  0  0  0  0  0  0  0  0
   -3.8057    2.3203   -2.3794 H   0  0  0  0  0  0  0  0  0  0  0  0
   -3.2660    0.7317   -3.0513 H   0  0  0  0  0  0  0  0  0  0  0  0
  1  2  1  0
  2  3  1  0
  3  4  1  0
  4  5  1  0
  5  6  2  0
  6  7  1  0
  7  8  1  0
  8  9  2  0
  8 10  2  0
  8 11  1  0
 11 12  2  0
 12 13  1  0
 13 14  2  0
 14 15  1  0
 15 16  1  0
 15 17  2  0
 17 18  1  0
 18 19  2  0
 19 20  1  0
  6 21  1  0
 21 22  2  0
 22 23  1  0
 23 24  1  0
 24 25  1  0
 23  4  2  0
 20 11  1  0
 19 13  1  0
  1 26  1  0
  1 27  1  0
  1 28  1  0
  3 29  1  0
  3 30  1  0
  5 31  1  0
  7 32  1  0
 12 33  1  0
 14 34  1  0
 17 35  1  0
 18 36  1  0
 21 37  1  0
 22 38  1  0
 25 39  1  0
 25 40  1  0
 25 41  1  0
M  END
$$$$
OCNT-2310465
     RDKit          3D

 41 43  0  0  0  0  0  0  0  0999 V2000
   -7.0572   -1.0047   -0.9105 C   0  0  0  0  0  0  0  0  0  0  0  0
   -5.7058   -1.2378   -0.2381 C   0  0  0  0  0  0  0  0  0  0  0  0
   -5.9071   -1.8216    1.1572 C   0  0  0  0  0  0  0  0  0  0  0  0
   -5.0758    0.0472   -0.1415 O   0  0  0  0  0  0  0  0  0  0  0  0
   -3.6973    0.0322   -0.1609 C   0  0  0  0  0  0  0  0  0  0  0  0
   -3.0764    1.2695   -0.2357 C   0  0  0  0  0  0  0  0  0  0  0  0
   -1.6822    1.3230   -0.2516 C   0  0  0  0  0  0  0  0  0  0  0  0
   -0.9527    0.1343   -0.1737 C   0  0  0  0  0  0  0  0  0  0  0  0
    0.5336    0.0675   -0.1749 C   0  0  0  0  0  0  0  0  0  0  0  0
    1.0606   -0.9798   -0.5319 O   0  0  0  0  0  0  0  0  0  0  0  0
    1.1907    1.2055    0.2603 N   0  0  0  0  0  0  0  0  0  0  0  0
    2.5861    1.4203    0.3175 C   0  0  0  0  0  0  0  0  0  0  0  0
    3.0243    2.6441    0.8349 C   0  0  0  0  0  0  0  0  0  0  0  0
    4.3868    2.9343    0.9097 C   0  0  0  0  0  0  0  0  0  0  0  0
    5.3233    1.9969    0.4737 C   0  0  0  0  0  0  0  0  0  0  0  0
    4.9125    0.7600   -0.0405 C   0  0  0  0  0  0  0  0  0  0  0  0
    5.9212   -0.2053   -0.4830 C   0  0  0  0  0  0  0  0  0  0  0  0
    7.2244   -0.0032   -0.5785 N   0  0  0  0  0  0  0  0  0  0  0  0
    7.8179   -1.1596   -1.0324 N   0  0  0  0  0  0  0  0  0  0  0  0
    6.8702   -2.0473   -1.2021 C   0  0  0  0  0  0  0  0  0  0  0  0
    5.6706   -1.5021   -0.8657 N   0  0  0  0  0  0  0  0  0  0  0  0
    3.5355    0.4903   -0.1195 C   0  0  0  0  0  0  0  0  0  0  0  0
   -1.6703   -1.0576   -0.1137 C   0  0  0  0  0  0  0  0  0  0  0  0
   -3.0256   -1.1334   -0.1000 N   0  0  0  0  0  0  0  0  0  0  0  0
   -6.9130   -0.5630   -1.9028 H   0  0  0  0  0  0  0  0  0  0  0  0
   -7.6176   -1.9388   -1.0288 H   0  0  0  0  0  0  0  0  0  0  0  0
   -7.6666   -0.2946   -0.3391 H   0  0  0  0  0  0  0  0  0  0  0  0
   -5.1388   -1.9278   -0.8767 H   0  0  0  0  0  0  0  0  0  0  0  0
   -4.9471   -1.9947    1.6538 H   0  0  0  0  0  0  0  0  0  0  0  0
   -6.4670   -1.1252    1.7931 H   0  0  0  0  0  0  0  0  0  0  0  0
   -6.4471   -2.7734    1.1188 H   0  0  0  0  0  0  0  0  0  0  0  0
   -3.6722    2.1753   -0.2965 H   0  0  0  0  0  0  0  0  0  0  0  0
   -1.2021    2.2904   -0.3525 H   0  0  0  0  0  0  0  0  0  0  0  0
    0.6286    1.9658    0.6224 H   0  0  0  0  0  0  0  0  0  0  0  0
    2.3166    3.3900    1.1846 H   0  0  0  0  0  0  0  0  0  0  0  0
    4.7235    3.8891    1.3064 H   0  0  0  0  0  0  0  0  0  0  0  0
    6.3849    2.2334    0.5392 H   0  0  0  0  0  0  0  0  0  0  0  0
    6.9938   -3.0620   -1.5497 H   0  0  0  0  0  0  0  0  0  0  0  0
    4.7723   -1.9642   -0.8805 H   0  0  0  0  0  0  0  0  0  0  0  0
    3.2084   -0.4536   -0.5374 H   0  0  0  0  0  0  0  0  0  0  0  0
   -1.1639   -2.0194   -0.0714 H   0  0  0  0  0  0  0  0  0  0  0  0
  1  2  1  0
  2  3  1  0
  2  4  1  0
  4  5  1  0
  5  6  2  0
  6  7  1  0
  7  8  2  0
  8  9  1  0
  9 10  2  0
  9 11  1  0
 11 12  1  0
 12 13  2  0
 13 14  1  0
 14 15  2  0
 15 16  1  0
 16 17  1  0
 17 18  2  0
 18 19  1  0
 19 20  2  0
 20 21  1  0
 16 22  2  0
  8 23  1  0
 23 24  2  0
 24  5  1  0
 22 12  1  0
 21 17  1  0
  1 25  1  0
  1 26  1  0
  1 27  1  0
  2 28  1  0
  3 29  1  0
  3 30  1  0
  3 31  1  0
  6 32  1  0
  7 33  1  0
 11 34  1  0
 13 35  1  0
 14 36  1  0
 15 37  1  0
 20 38  1  0
 21 39  1  0
 22 40  1  0
 23 41  1  0
M  END
$$$$
OCNT-2310469
     RDKit          3D

 45 47  0  0  0  0  0  0  0  0999 V2000
    8.1238    0.3170    0.0561 C   0  0  0  0  0  0  0  0  0  0  0  0
    7.5147   -1.3284    0.3160 S   0  0  0  0  0  0  0  0  0  0  0  0
    7.7222   -1.6759    1.7084 O   0  0  0  0  0  0  0  0  0  0  0  0
    8.0336   -2.1687   -0.7468 O   0  0  0  0  0  0  0  0  0  0  0  0
    5.7644   -1.1595    0.0630 C   0  0  0  0  0  0  0  0  0  0  0  0
    4.9626   -0.6918    1.1046 C   0  0  0  0  0  0  0  0  0  0  0  0
    3.5834   -0.5605    0.9105 C   0  0  0  0  0  0  0  0  0  0  0  0
    3.0004   -0.9102   -0.3111 C   0  0  0  0  0  0  0  0  0  0  0  0
    1.6226   -0.7999   -0.5830 N   0  0  0  0  0  0  0  0  0  0  0  0
    0.6153   -0.4623    0.2942 C   0  0  0  0  0  0  0  0  0  0  0  0
    0.7224   -0.2576    1.4951 O   0  0  0  0  0  0  0  0  0  0  0  0
   -0.5968   -0.3887   -0.3660 N   0  0  0  0  0  0  0  0  0  0  0  0
   -1.7971    0.0020    0.3597 C   0  0  0  0  0  0  0  0  0  0  0  0
   -1.8512    1.5022    0.6462 C   0  0  0  0  0  0  0  0  0  0  0  0
   -3.3356    1.7482    0.8853 C   0  0  0  0  0  0  0  0  0  0  0  0
   -3.9756    0.8591   -0.0698 N   0  0  0  0  0  0  0  0  0  0  0  0
   -5.3369    0.7010   -0.1862 C   0  0  0  0  0  0  0  0  0  0  0  0
   -6.2371    1.6312    0.3335 C   0  0  0  0  0  0  0  0  0  0  0  0
   -7.6118    1.4445    0.1785 C   0  0  0  0  0  0  0  0  0  0  0  0
   -8.0711    0.3304   -0.5029 C   0  0  0  0  0  0  0  0  0  0  0  0
   -7.1284   -0.5452   -1.0018 C   0  0  0  0  0  0  0  0  0  0  0  0
   -5.7938   -0.3791   -0.8604 N   0  0  0  0  0  0  0  0  0  0  0  0
   -3.1038   -0.2647   -0.4163 C   0  0  0  0  0  0  0  0  0  0  0  0
    3.8195   -1.3920   -1.3426 C   0  0  0  0  0  0  0  0  0  0  0  0
    5.1991   -1.5226   -1.1592 C   0  0  0  0  0  0  0  0  0  0  0  0
    7.6738    0.9862    0.7918 H   0  0  0  0  0  0  0  0  0  0  0  0
    7.8757    0.6325   -0.9592 H   0  0  0  0  0  0  0  0  0  0  0  0
    9.2082    0.3008    0.1848 H   0  0  0  0  0  0  0  0  0  0  0  0
    5.3917   -0.4353    2.0711 H   0  0  0  0  0  0  0  0  0  0  0  0
    2.9877   -0.1882    1.7391 H   0  0  0  0  0  0  0  0  0  0  0  0
    1.3113   -1.1349   -1.4822 H   0  0  0  0  0  0  0  0  0  0  0  0
   -0.5424   -0.0782   -1.3253 H   0  0  0  0  0  0  0  0  0  0  0  0
   -1.8240   -0.5473    1.3102 H   0  0  0  0  0  0  0  0  0  0  0  0
   -1.5084    2.0749   -0.2252 H   0  0  0  0  0  0  0  0  0  0  0  0
   -1.2380    1.7962    1.5033 H   0  0  0  0  0  0  0  0  0  0  0  0
   -3.5815    2.8005    0.7100 H   0  0  0  0  0  0  0  0  0  0  0  0
   -3.6093    1.4768    1.9118 H   0  0  0  0  0  0  0  0  0  0  0  0
   -5.8890    2.5126    0.8587 H   0  0  0  0  0  0  0  0  0  0  0  0
   -8.3106    2.1689    0.5856 H   0  0  0  0  0  0  0  0  0  0  0  0
   -9.1300    0.1510   -0.6449 H   0  0  0  0  0  0  0  0  0  0  0  0
   -7.4247   -1.4351   -1.5491 H   0  0  0  0  0  0  0  0  0  0  0  0
   -3.5097   -1.2367   -0.1102 H   0  0  0  0  0  0  0  0  0  0  0  0
   -2.9351   -0.2810   -1.4994 H   0  0  0  0  0  0  0  0  0  0  0  0
    3.3946   -1.6800   -2.3012 H   0  0  0  0  0  0  0  0  0  0  0  0
    5.8146   -1.9121   -1.9674 H   0  0  0  0  0  0  0  0  0  0  0  0
  1  2  1  0
  2  3  2  0
  2  4  2  0
  2  5  1  0
  5  6  1  0
  6  7  2  0
  7  8  1  0
  8  9  1  0
  9 10  1  0
 10 11  2  0
 10 12  1  0
 12 13  1  0
 13 14  1  0
 14 15  1  0
 15 16  1  0
 16 17  1  0
 17 18  2  0
 18 19  1  0
 19 20  2  0
 20 21  1  0
 21 22  2  0
 16 23  1  0
  8 24  2  0
 24 25  1  0
 25  5  2  0
 23 13  1  0
 22 17  1  0
  1 26  1  0
  1 27  1  0
  1 28  1  0
  6 29  1  0
  7 30  1  0
  9 31  1  0
 12 32  1  0
 13 33  1  0
 14 34  1  0
 14 35  1  0
 15 36  1  0
 15 37  1  0
 18 38  1  0
 19 39  1  0
 20 40  1  0
 21 41  1  0
 23 42  1  0
 23 43  1  0
 24 44  1  0
 25 45  1  0
M  END
$$$$
OCNT-2310470
     RDKit          3D

 57 60  0  0  0  0  0  0  0  0999 V2000
    7.9784    0.8310   -1.4200 C   0  0  0  0  0  0  0  0  0  0  0  0
    6.9359    1.5917   -0.8226 O   0  0  0  0  0  0  0  0  0  0  0  0
    5.9329    0.8894   -0.2127 C   0  0  0  0  0  0  0  0  0  0  0  0
    5.8679   -0.4966   -0.0718 C   0  0  0  0  0  0  0  0  0  0  0  0
    4.7798   -1.0883    0.5803 C   0  0  0  0  0  0  0  0  0  0  0  0
    3.7437   -0.3024    1.1003 C   0  0  0  0  0  0  0  0  0  0  0  0
    2.5646   -0.9439    1.7939 C   0  0  0  0  0  0  0  0  0  0  0  0
    1.5534   -1.5764    0.8265 C   0  0  0  0  0  0  0  0  0  0  0  0
    0.5033   -2.4271    1.5380 C   0  0  0  0  0  0  0  0  0  0  0  0
    0.9385   -0.6027   -0.1848 C   0  0  0  0  0  0  0  0  0  0  0  0
    1.0275   -0.8857   -1.3861 O   0  0  0  0  0  0  0  0  0  0  0  0
    0.2937    0.5581    0.2233 N   0  0  0  0  0  0  0  0  0  0  0  0
   -0.3705    0.7583    1.5058 C   0  0  0  0  0  0  0  0  0  0  0  0
   -1.8610    0.4453    1.3732 C   0  0  0  0  0  0  0  0  0  0  0  0
   -2.4947    1.2478    0.2169 C   0  0  0  0  0  0  0  0  0  0  0  0
   -3.9803    0.9428    0.0266 C   0  0  0  0  0  0  0  0  0  0  0  0
   -4.8726    2.0027    0.2999 C   0  0  0  0  0  0  0  0  0  0  0  0
   -6.2487    1.8464    0.1747 C   0  0  0  0  0  0  0  0  0  0  0  0
   -6.7679    0.6233   -0.2266 C   0  0  0  0  0  0  0  0  0  0  0  0
   -5.9161   -0.4543   -0.5090 C   0  0  0  0  0  0  0  0  0  0  0  0
   -6.4413   -1.6857   -0.9127 C   0  0  0  0  0  0  0  0  0  0  0  0
   -5.7091   -2.7806   -1.2081 N   0  0  0  0  0  0  0  0  0  0  0  0
   -4.3773   -2.6432   -1.1002 C   0  0  0  0  0  0  0  0  0  0  0  0
   -3.7497   -1.4690   -0.7049 C   0  0  0  0  0  0  0  0  0  0  0  0
   -4.5105   -0.3203   -0.3915 C   0  0  0  0  0  0  0  0  0  0  0  0
   -1.6802    1.1850   -1.0919 C   0  0  0  0  0  0  0  0  0  0  0  0
   -0.2011    1.4545   -0.8214 C   0  0  0  0  0  0  0  0  0  0  0  0
    3.8125    1.0875    0.9528 C   0  0  0  0  0  0  0  0  0  0  0  0
    4.9007    1.6751    0.3037 C   0  0  0  0  0  0  0  0  0  0  0  0
    8.6806    1.5318   -1.8815 H   0  0  0  0  0  0  0  0  0  0  0  0
    8.5289    0.2562   -0.6673 H   0  0  0  0  0  0  0  0  0  0  0  0
    7.5903    0.1794   -2.2106 H   0  0  0  0  0  0  0  0  0  0  0  0
    6.6444   -1.1481   -0.4584 H   0  0  0  0  0  0  0  0  0  0  0  0
    4.7472   -2.1718    0.6748 H   0  0  0  0  0  0  0  0  0  0  0  0
    2.0975   -0.2067    2.4532 H   0  0  0  0  0  0  0  0  0  0  0  0
    2.9535   -1.7189    2.4685 H   0  0  0  0  0  0  0  0  0  0  0  0
    2.1206   -2.2859    0.2037 H   0  0  0  0  0  0  0  0  0  0  0  0
    0.0467   -1.9197    2.3902 H   0  0  0  0  0  0  0  0  0  0  0  0
   -0.2978   -2.7212    0.8517 H   0  0  0  0  0  0  0  0  0  0  0  0
    0.9630   -3.3426    1.9271 H   0  0  0  0  0  0  0  0  0  0  0  0
   -0.2250    1.8054    1.7980 H   0  0  0  0  0  0  0  0  0  0  0  0
    0.0619    0.1508    2.2953 H   0  0  0  0  0  0  0  0  0  0  0  0
   -2.3693    0.6852    2.3156 H   0  0  0  0  0  0  0  0  0  0  0  0
   -1.9835   -0.6318    1.2263 H   0  0  0  0  0  0  0  0  0  0  0  0
   -2.4214    2.2988    0.5369 H   0  0  0  0  0  0  0  0  0  0  0  0
   -4.4961    2.9737    0.6180 H   0  0  0  0  0  0  0  0  0  0  0  0
   -6.9145    2.6776    0.3907 H   0  0  0  0  0  0  0  0  0  0  0  0
   -7.8466    0.5148   -0.3195 H   0  0  0  0  0  0  0  0  0  0  0  0
   -7.5143   -1.8317   -1.0143 H   0  0  0  0  0  0  0  0  0  0  0  0
   -3.7969   -3.5275   -1.3476 H   0  0  0  0  0  0  0  0  0  0  0  0
   -2.6682   -1.4784   -0.6550 H   0  0  0  0  0  0  0  0  0  0  0  0
   -2.0632    1.9244   -1.8060 H   0  0  0  0  0  0  0  0  0  0  0  0
   -1.7733    0.2120   -1.5812 H   0  0  0  0  0  0  0  0  0  0  0  0
    0.3790    1.3454   -1.7440 H   0  0  0  0  0  0  0  0  0  0  0  0
   -0.0561    2.4849   -0.4748 H   0  0  0  0  0  0  0  0  0  0  0  0
    3.0190    1.7255    1.3344 H   0  0  0  0  0  0  0  0  0  0  0  0
    4.9419    2.7561    0.1941 H   0  0  0  0  0  0  0  0  0  0  0  0
  1  2  1  0
  2  3  1  0
  3  4  1  0
  4  5  2  0
  5  6  1  0
  6  7  1  0
  7  8  1  0
  8  9  1  0
  8 10  1  0
 10 11  2  0
 10 12  1  0
 12 13  1  0
 13 14  1  0
 14 15  1  0
 15 16  1  0
 16 17  2  0
 17 18  1  0
 18 19  2  0
 19 20  1  0
 20 21  2  0
 21 22  1  0
 22 23  2  0
 23 24  1  0
 24 25  2  0
 15 26  1  0
 26 27  1  0
  6 28  2  0
 28 29  1  0
 29  3  2  0
 27 12  1  0
 25 16  1  0
 25 20  1  0
  1 30  1  0
  1 31  1  0
  1 32  1  0
  4 33  1  0
  5 34  1  0
  7 35  1  0
  7 36  1  0
  8 37  1  0
  9 38  1  0
  9 39  1  0
  9 40  1  0
 13 41  1  0
 13 42  1  0
 14 43  1  0
 14 44  1  0
 15 45  1  0
 17 46  1  0
 18 47  1  0
 19 48  1  0
 21 49  1  0
 23 50  1  0
 24 51  1  0
 26 52  1  0
 26 53  1  0
 27 54  1  0
 27 55  1  0
 28 56  1  0
 29 57  1  0
M  END
$$$$
OCNT-2310478
     RDKit          3D

 48 50  0  0  0  0  0  0  0  0999 V2000
    6.4957   -1.4594    1.4140 C   0  0  0  0  0  0  0  0  0  0  0  0
    5.6034   -0.2751    1.4798 C   0  0  0  0  0  0  0  0  0  0  0  0
    5.6595    0.7535    2.3991 C   0  0  0  0  0  0  0  0  0  0  0  0
    4.4330    1.9031    2.0767 S   0  0  0  0  0  0  0  0  0  0  0  0
    3.9071    0.9519    0.7363 C   0  0  0  0  0  0  0  0  0  0  0  0
    2.7283    1.4244   -0.1147 C   0  0  0  0  0  0  0  0  0  0  0  0
    3.3105    1.9656   -1.4345 C   0  0  0  0  0  0  0  0  0  0  0  0
    1.7214    0.3520   -0.3344 N   0  0  0  0  0  0  0  0  0  0  0  0
    1.1221   -0.1498    0.9223 C   0  0  0  0  0  0  0  0  0  0  0  0
   -0.3528    0.2580    1.1432 C   0  0  0  0  0  0  0  0  0  0  0  0
   -1.2717   -0.1223    0.0498 N   0  0  0  0  0  0  0  0  0  0  0  0
   -1.9928   -1.3739    0.3600 C   0  0  0  0  0  0  0  0  0  0  0  0
   -3.1423   -1.7463   -0.6210 C   0  0  0  0  0  0  0  0  0  0  0  0
   -3.6506   -3.0540   -0.3439 O   0  0  0  0  0  0  0  0  0  0  0  0
   -4.2964   -0.7595   -0.6405 C   0  0  0  0  0  0  0  0  0  0  0  0
   -4.4659    0.0339   -1.7961 C   0  0  0  0  0  0  0  0  0  0  0  0
   -5.4971    0.9695   -1.8860 C   0  0  0  0  0  0  0  0  0  0  0  0
   -6.3722    1.1221   -0.8222 C   0  0  0  0  0  0  0  0  0  0  0  0
   -7.3623    2.0201   -0.9065 F   0  0  0  0  0  0  0  0  0  0  0  0
   -6.2372    0.3586    0.3277 C   0  0  0  0  0  0  0  0  0  0  0  0
   -5.2043   -0.5803    0.4219 C   0  0  0  0  0  0  0  0  0  0  0  0
   -5.1261   -1.4868    1.8932 Cl  0  0  0  0  0  0  0  0  0  0  0  0
   -0.5501   -0.2097   -1.2374 C   0  0  0  0  0  0  0  0  0  0  0  0
    0.6787    0.7234   -1.3089 C   0  0  0  0  0  0  0  0  0  0  0  0
    4.6034   -0.1501    0.5315 N   0  0  0  0  0  0  0  0  0  0  0  0
    7.0608   -1.5853    2.3431 H   0  0  0  0  0  0  0  0  0  0  0  0
    7.2073   -1.3496    0.5899 H   0  0  0  0  0  0  0  0  0  0  0  0
    5.9111   -2.3696    1.2469 H   0  0  0  0  0  0  0  0  0  0  0  0
    6.3461    0.8809    3.2234 H   0  0  0  0  0  0  0  0  0  0  0  0
    2.2306    2.2626    0.3926 H   0  0  0  0  0  0  0  0  0  0  0  0
    2.5518    2.4780   -2.0346 H   0  0  0  0  0  0  0  0  0  0  0  0
    4.1072    2.6941   -1.2419 H   0  0  0  0  0  0  0  0  0  0  0  0
    3.7425    1.1608   -2.0407 H   0  0  0  0  0  0  0  0  0  0  0  0
    1.6931    0.1465    1.8089 H   0  0  0  0  0  0  0  0  0  0  0  0
    1.1762   -1.2459    0.8921 H   0  0  0  0  0  0  0  0  0  0  0  0
   -0.6973   -0.1275    2.1108 H   0  0  0  0  0  0  0  0  0  0  0  0
   -0.3945    1.3510    1.2398 H   0  0  0  0  0  0  0  0  0  0  0  0
   -2.4102   -1.3044    1.3701 H   0  0  0  0  0  0  0  0  0  0  0  0
   -1.2839   -2.2124    0.4077 H   0  0  0  0  0  0  0  0  0  0  0  0
   -2.7248   -1.8236   -1.6320 H   0  0  0  0  0  0  0  0  0  0  0  0
   -2.8975   -3.6674   -0.3466 H   0  0  0  0  0  0  0  0  0  0  0  0
   -3.7867   -0.0726   -2.6397 H   0  0  0  0  0  0  0  0  0  0  0  0
   -5.6208    1.5776   -2.7764 H   0  0  0  0  0  0  0  0  0  0  0  0
   -6.9412    0.5008    1.1417 H   0  0  0  0  0  0  0  0  0  0  0  0
   -1.2386    0.0574   -2.0469 H   0  0  0  0  0  0  0  0  0  0  0  0
   -0.2081   -1.2360   -1.4296 H   0  0  0  0  0  0  0  0  0  0  0  0
    1.0914    0.6576   -2.3223 H   0  0  0  0  0  0  0  0  0  0  0  0
    0.3439    1.7580   -1.1534 H   0  0  0  0  0  0  0  0  0  0  0  0
  1  2  1  0
  2  3  2  0
  3  4  1  0
  4  5  1  0
  5  6  1  0
  6  7  1  0
  6  8  1  0
  8  9  1  0
  9 10  1  0
 10 11  1  0
 11 12  1  0
 12 13  1  0
 13 14  1  0
 13 15  1  0
 15 16  1  0
 16 17  2  0
 17 18  1  0
 18 19  1  0
 18 20  2  0
 20 21  1  0
 21 22  1  0
 11 23  1  0
 23 24  1  0
  5 25  2  0
 25  2  1  0
 24  8  1  0
 21 15  2  0
  1 26  1  0
  1 27  1  0
  1 28  1  0
  3 29  1  0
  6 30  1  0
  7 31  1  0
  7 32  1  0
  7 33  1  0
  9 34  1  0
  9 35  1  0
 10 36  1  0
 10 37  1  0
 12 38  1  0
 12 39  1  0
 13 40  1  0
 14 41  1  0
 16 42  1  0
 17 43  1  0
 20 44  1  0
 23 45  1  0
 23 46  1  0
 24 47  1  0
 24 48  1  0
M  END
$$$$
OCNT-2310481
     RDKit          3D

 47 49  0  0  0  0  0  0  0  0999 V2000
   -5.0618   -1.4180   -1.3860 C   0  0  0  0  0  0  0  0  0  0  0  0
   -4.6015   -0.0511   -1.0335 C   0  0  0  0  0  0  0  0  0  0  0  0
   -5.0695    0.9918   -1.7309 N   0  0  0  0  0  0  0  0  0  0  0  0
   -4.4731    2.0563   -1.1748 N   0  0  0  0  0  0  0  0  0  0  0  0
   -4.7529    3.3753   -1.6869 C   0  0  0  0  0  0  0  0  0  0  0  0
   -3.6382    1.7332   -0.1509 C   0  0  0  0  0  0  0  0  0  0  0  0
   -3.6892    0.3576   -0.0137 C   0  0  0  0  0  0  0  0  0  0  0  0
   -2.9252   -0.4592    0.9852 C   0  0  0  0  0  0  0  0  0  0  0  0
   -3.7883   -1.4634    1.7468 C   0  0  0  0  0  0  0  0  0  0  0  0
   -1.8319   -1.0970    0.2764 N   0  0  0  0  0  0  0  0  0  0  0  0
   -0.7435   -1.5891    0.9423 C   0  0  0  0  0  0  0  0  0  0  0  0
   -0.5766   -1.5007    2.1505 O   0  0  0  0  0  0  0  0  0  0  0  0
    0.1344   -2.1925    0.0803 N   0  0  0  0  0  0  0  0  0  0  0  0
    1.4037   -2.6990    0.5520 C   0  0  0  0  0  0  0  0  0  0  0  0
    2.4897   -1.6625    0.4154 C   0  0  0  0  0  0  0  0  0  0  0  0
    2.6703   -0.6862    1.4011 C   0  0  0  0  0  0  0  0  0  0  0  0
    3.6602    0.2963    1.2689 C   0  0  0  0  0  0  0  0  0  0  0  0
    4.4930    0.3274    0.1382 C   0  0  0  0  0  0  0  0  0  0  0  0
    5.4969    1.3325    0.0126 N   0  0  0  0  0  0  0  0  0  0  0  0
    6.4033    1.5152   -1.0110 C   0  0  0  0  0  0  0  0  0  0  0  0
    7.1575    2.6143   -0.6761 C   0  0  0  0  0  0  0  0  0  0  0  0
    6.7575    3.1273    0.5202 N   0  0  0  0  0  0  0  0  0  0  0  0
    5.7717    2.3486    0.9089 C   0  0  0  0  0  0  0  0  0  0  0  0
    4.2996   -0.6486   -0.8467 C   0  0  0  0  0  0  0  0  0  0  0  0
    5.0387   -0.6952   -1.9628 F   0  0  0  0  0  0  0  0  0  0  0  0
    3.3117   -1.6279   -0.7143 C   0  0  0  0  0  0  0  0  0  0  0  0
   -5.5124   -1.4428   -2.3840 H   0  0  0  0  0  0  0  0  0  0  0  0
   -5.8131   -1.7619   -0.6683 H   0  0  0  0  0  0  0  0  0  0  0  0
   -4.2268   -2.1249   -1.3851 H   0  0  0  0  0  0  0  0  0  0  0  0
   -5.8234    3.5672   -1.5787 H   0  0  0  0  0  0  0  0  0  0  0  0
   -4.1822    4.1148   -1.1198 H   0  0  0  0  0  0  0  0  0  0  0  0
   -4.4608    3.4058   -2.7395 H   0  0  0  0  0  0  0  0  0  0  0  0
   -3.0808    2.4849    0.3909 H   0  0  0  0  0  0  0  0  0  0  0  0
   -2.4821    0.2195    1.7266 H   0  0  0  0  0  0  0  0  0  0  0  0
   -4.6632   -0.9752    2.1896 H   0  0  0  0  0  0  0  0  0  0  0  0
   -3.2198   -1.9302    2.5584 H   0  0  0  0  0  0  0  0  0  0  0  0
   -4.1405   -2.2749    1.1024 H   0  0  0  0  0  0  0  0  0  0  0  0
   -2.0405   -1.5166   -0.6155 H   0  0  0  0  0  0  0  0  0  0  0  0
    0.1156   -1.8407   -0.8648 H   0  0  0  0  0  0  0  0  0  0  0  0
    1.6448   -3.5795   -0.0538 H   0  0  0  0  0  0  0  0  0  0  0  0
    1.3236   -3.0346    1.5924 H   0  0  0  0  0  0  0  0  0  0  0  0
    2.0292   -0.6807    2.2837 H   0  0  0  0  0  0  0  0  0  0  0  0
    3.7395    1.0189    2.0757 H   0  0  0  0  0  0  0  0  0  0  0  0
    6.4583    0.8796   -1.8802 H   0  0  0  0  0  0  0  0  0  0  0  0
    7.9682    3.0581   -1.2397 H   0  0  0  0  0  0  0  0  0  0  0  0
    5.2308    2.4887    1.8334 H   0  0  0  0  0  0  0  0  0  0  0  0
    3.1989   -2.3608   -1.5092 H   0  0  0  0  0  0  0  0  0  0  0  0
  1  2  1  0
  2  3  2  0
  3  4  1  0
  4  5  1  0
  4  6  1  0
  6  7  2  0
  7  8  1  0
  8  9  1  0
  8 10  1  0
 10 11  1  0
 11 12  2  0
 11 13  1  0
 13 14  1  0
 14 15  1  0
 15 16  1  0
 16 17  2  0
 17 18  1  0
 18 19  1  0
 19 20  1  0
 20 21  2  0
 21 22  1  0
 22 23  2  0
 18 24  2  0
 24 25  1  0
 24 26  1  0
  7  2  1  0
 26 15  2  0
 23 19  1  0
  1 27  1  0
  1 28  1  0
  1 29  1  0
  5 30  1  0
  5 31  1  0
  5 32  1  0
  6 33  1  0
  8 34  1  0
  9 35  1  0
  9 36  1  0
  9 37  1  0
 10 38  1  0
 13 39  1  0
 14 40  1  0
 14 41  1  0
 16 42  1  0
 17 43  1  0
 20 44  1  0
 21 45  1  0
 23 46  1  0
 26 47  1  0
M  END
$$$$
OCNT-2310486
     RDKit          3D

 45 48  0  0  0  0  0  0  0  0999 V2000
    1.0034    2.6951   -0.3931 C   0  0  0  0  0  0  0  0  0  0  0  0
    1.2225    1.6513   -1.4771 C   0  0  0  0  0  0  0  0  0  0  0  0
    2.2728    0.6550   -1.1064 C   0  0  0  0  0  0  0  0  0  0  0  0
    2.2525   -0.3824   -0.1622 C   0  0  0  0  0  0  0  0  0  0  0  0
    1.2339   -0.8835    0.7221 C   0  0  0  0  0  0  0  0  0  0  0  0
    1.4879   -1.4335    1.7890 O   0  0  0  0  0  0  0  0  0  0  0  0
   -0.0583   -0.7484    0.2605 N   0  0  0  0  0  0  0  0  0  0  0  0
   -1.1698   -1.3489    0.9721 C   0  0  0  0  0  0  0  0  0  0  0  0
   -2.5258   -0.7108    0.6434 C   0  0  0  0  0  0  0  0  0  0  0  0
   -2.9119   -0.8687   -0.8551 C   0  0  0  0  0  0  0  0  0  0  0  0
   -4.3439   -0.3668   -1.1460 C   0  0  0  0  0  0  0  0  0  0  0  0
   -4.5838    0.9341   -0.4758 C   0  0  0  0  0  0  0  0  0  0  0  0
   -3.7912    1.4156    0.5405 C   0  0  0  0  0  0  0  0  0  0  0  0
   -2.5777    0.7727    1.1013 C   0  0  0  0  0  0  0  0  0  0  0  0
   -4.3204    2.6139    0.9119 N   0  0  0  0  0  0  0  0  0  0  0  0
   -5.4142    2.9430    0.1988 N   0  0  0  0  0  0  0  0  0  0  0  0
   -5.5740    1.9164   -0.6438 C   0  0  0  0  0  0  0  0  0  0  0  0
    3.5393   -0.8651   -0.1920 N   0  0  0  0  0  0  0  0  0  0  0  0
    4.2708   -1.8407    0.4536 C   0  0  0  0  0  0  0  0  0  0  0  0
    5.5368   -1.9047   -0.0002 C   0  0  0  0  0  0  0  0  0  0  0  0
    6.6100   -2.8264    0.4614 C   0  0  0  0  0  0  0  0  0  0  0  0
    5.8578   -0.7172   -1.2873 S   0  0  0  0  0  0  0  0  0  0  0  0
    4.2179   -0.1690   -1.1431 C   0  0  0  0  0  0  0  0  0  0  0  0
    3.5099    0.7519   -1.7282 N   0  0  0  0  0  0  0  0  0  0  0  0
    0.2383    3.4125   -0.7065 H   0  0  0  0  0  0  0  0  0  0  0  0
    0.6746    2.2370    0.5452 H   0  0  0  0  0  0  0  0  0  0  0  0
    1.9261    3.2488   -0.1886 H   0  0  0  0  0  0  0  0  0  0  0  0
    1.5255    2.1635   -2.3988 H   0  0  0  0  0  0  0  0  0  0  0  0
    0.2788    1.1502   -1.7105 H   0  0  0  0  0  0  0  0  0  0  0  0
   -0.1580   -0.6254   -0.7371 H   0  0  0  0  0  0  0  0  0  0  0  0
   -0.9825   -1.2818    2.0503 H   0  0  0  0  0  0  0  0  0  0  0  0
   -1.1787   -2.4137    0.7115 H   0  0  0  0  0  0  0  0  0  0  0  0
   -3.2819   -1.2606    1.2236 H   0  0  0  0  0  0  0  0  0  0  0  0
   -2.8317   -1.9187   -1.1598 H   0  0  0  0  0  0  0  0  0  0  0  0
   -2.2095   -0.2993   -1.4773 H   0  0  0  0  0  0  0  0  0  0  0  0
   -4.4914   -0.2789   -2.2279 H   0  0  0  0  0  0  0  0  0  0  0  0
   -5.0683   -1.1000   -0.7716 H   0  0  0  0  0  0  0  0  0  0  0  0
   -1.6981    1.3195    0.7439 H   0  0  0  0  0  0  0  0  0  0  0  0
   -2.5804    0.8251    2.1959 H   0  0  0  0  0  0  0  0  0  0  0  0
   -3.9986    3.2578    1.6274 H   0  0  0  0  0  0  0  0  0  0  0  0
   -6.4042    1.9327   -1.3383 H   0  0  0  0  0  0  0  0  0  0  0  0
    3.8219   -2.4454    1.2276 H   0  0  0  0  0  0  0  0  0  0  0  0
    6.9626   -3.4535   -0.3638 H   0  0  0  0  0  0  0  0  0  0  0  0
    7.4604   -2.2623    0.8578 H   0  0  0  0  0  0  0  0  0  0  0  0
    6.2508   -3.4901    1.2550 H   0  0  0  0  0  0  0  0  0  0  0  0
  1  2  1  0
  2  3  1  0
  3  4  2  0
  4  5  1  0
  5  6  2  0
  5  7  1  0
  7  8  1  0
  8  9  1  0
  9 10  1  0
 10 11  1  0
 11 12  1  0
 12 13  2  0
 13 14  1  0
 13 15  1  0
 15 16  1  0
 16 17  2  0
  4 18  1  0
 18 19  1  0
 19 20  2  0
 20 21  1  0
 20 22  1  0
 22 23  1  0
 23 24  2  0
 24  3  1  0
 14  9  1  0
 23 18  1  0
 17 12  1  0
  1 25  1  0
  1 26  1  0
  1 27  1  0
  2 28  1  0
  2 29  1  0
  7 30  1  0
  8 31  1  0
  8 32  1  0
  9 33  1  0
 10 34  1  0
 10 35  1  0
 11 36  1  0
 11 37  1  0
 14 38  1  0
 14 39  1  0
 15 40  1  0
 17 41  1  0
 19 42  1  0
 21 43  1  0
 21 44  1  0
 21 45  1  0
M  END
$$$$
OCNT-2310492
     RDKit          3D

 54 57  0  0  0  0  0  0  0  0999 V2000
   -3.1575   -2.4906   -0.4587 C   0  0  0  0  0  0  0  0  0  0  0  0
   -4.4512   -1.8432   -0.0790 C   0  0  0  0  0  0  0  0  0  0  0  0
   -5.6465   -2.4293   -0.2516 C   0  0  0  0  0  0  0  0  0  0  0  0
   -6.8625   -1.7638    0.1256 C   0  0  0  0  0  0  0  0  0  0  0  0
   -6.8137   -0.5390    0.6588 C   0  0  0  0  0  0  0  0  0  0  0  0
   -5.6103    0.1233    0.8654 N   0  0  0  0  0  0  0  0  0  0  0  0
   -5.6320    1.3888    1.4312 C   0  0  0  0  0  0  0  0  0  0  0  0
   -6.6401    1.9996    1.7854 O   0  0  0  0  0  0  0  0  0  0  0  0
   -4.3221    2.0257    1.6188 C   0  0  0  0  0  0  0  0  0  0  0  0
   -3.2191    1.3713    1.2395 C   0  0  0  0  0  0  0  0  0  0  0  0
   -1.8516    2.0016    1.4379 C   0  0  0  0  0  0  0  0  0  0  0  0
   -1.4141    2.8369    0.3138 N   0  0  0  0  0  0  0  0  0  0  0  0
   -1.0105    2.0654   -0.8724 C   0  0  0  0  0  0  0  0  0  0  0  0
   -0.9761    3.0246   -2.0705 C   0  0  0  0  0  0  0  0  0  0  0  0
    0.3249    1.3604   -0.6781 C   0  0  0  0  0  0  0  0  0  0  0  0
    0.3551   -0.0328   -0.5261 C   0  0  0  0  0  0  0  0  0  0  0  0
    1.5642   -0.7042   -0.3299 C   0  0  0  0  0  0  0  0  0  0  0  0
    2.7687   -0.0018   -0.2775 C   0  0  0  0  0  0  0  0  0  0  0  0
    3.8746   -0.7808   -0.0790 O   0  0  0  0  0  0  0  0  0  0  0  0
    5.1392   -0.1202   -0.0487 C   0  0  0  0  0  0  0  0  0  0  0  0
    6.2199   -1.1356    0.2049 C   0  0  0  0  0  0  0  0  0  0  0  0
    6.1223   -2.0732    1.2380 C   0  0  0  0  0  0  0  0  0  0  0  0
    7.1624   -2.9710    1.4592 C   0  0  0  0  0  0  0  0  0  0  0  0
    8.2774   -2.8961    0.6418 C   0  0  0  0  0  0  0  0  0  0  0  0
    8.4160   -1.9993   -0.3580 N   0  0  0  0  0  0  0  0  0  0  0  0
    7.3870   -1.1429   -0.5524 C   0  0  0  0  0  0  0  0  0  0  0  0
    2.7521    1.3848   -0.4189 C   0  0  0  0  0  0  0  0  0  0  0  0
    1.5401    2.0597   -0.6134 C   0  0  0  0  0  0  0  0  0  0  0  0
   -3.2402    0.1085    0.6997 N   0  0  0  0  0  0  0  0  0  0  0  0
   -4.3939   -0.4640    0.5242 C   0  0  0  0  0  0  0  0  0  0  0  0
   -2.4992   -2.5803    0.4115 H   0  0  0  0  0  0  0  0  0  0  0  0
   -2.6464   -1.9028   -1.2280 H   0  0  0  0  0  0  0  0  0  0  0  0
   -3.3100   -3.4978   -0.8610 H   0  0  0  0  0  0  0  0  0  0  0  0
   -5.7310   -3.4221   -0.6835 H   0  0  0  0  0  0  0  0  0  0  0  0
   -7.8089   -2.2712   -0.0308 H   0  0  0  0  0  0  0  0  0  0  0  0
   -7.7212   -0.0167    0.9514 H   0  0  0  0  0  0  0  0  0  0  0  0
   -4.3082    3.0184    2.0474 H   0  0  0  0  0  0  0  0  0  0  0  0
   -1.1103    1.2360    1.6954 H   0  0  0  0  0  0  0  0  0  0  0  0
   -1.8973    2.6521    2.3217 H   0  0  0  0  0  0  0  0  0  0  0  0
   -0.6197    3.3958    0.6173 H   0  0  0  0  0  0  0  0  0  0  0  0
   -1.7767    1.3225   -1.1227 H   0  0  0  0  0  0  0  0  0  0  0  0
   -0.2951    3.8687   -1.9144 H   0  0  0  0  0  0  0  0  0  0  0  0
   -0.6550    2.5019   -2.9787 H   0  0  0  0  0  0  0  0  0  0  0  0
   -1.9731    3.4388   -2.2610 H   0  0  0  0  0  0  0  0  0  0  0  0
   -0.5700   -0.6050   -0.5484 H   0  0  0  0  0  0  0  0  0  0  0  0
    1.5645   -1.7854   -0.2143 H   0  0  0  0  0  0  0  0  0  0  0  0
    5.3142    0.3769   -1.0109 H   0  0  0  0  0  0  0  0  0  0  0  0
    5.1701    0.6187    0.7619 H   0  0  0  0  0  0  0  0  0  0  0  0
    5.2349   -2.1085    1.8663 H   0  0  0  0  0  0  0  0  0  0  0  0
    7.1038   -3.7104    2.2499 H   0  0  0  0  0  0  0  0  0  0  0  0
    9.1148   -3.5750    0.7742 H   0  0  0  0  0  0  0  0  0  0  0  0
    7.5398   -0.4379   -1.3655 H   0  0  0  0  0  0  0  0  0  0  0  0
    3.6595    1.9778   -0.3809 H   0  0  0  0  0  0  0  0  0  0  0  0
    1.5581    3.1426   -0.7123 H   0  0  0  0  0  0  0  0  0  0  0  0
  1  2  1  0
  2  3  2  0
  3  4  1  0
  4  5  2  0
  5  6  1  0
  6  7  1  0
  7  8  2  0
  7  9  1  0
  9 10  2  0
 10 11  1  0
 11 12  1  0
 12 13  1  0
 13 14  1  0
 13 15  1  0
 15 16  1  0
 16 17  2  0
 17 18  1  0
 18 19  1  0
 19 20  1  0
 20 21  1  0
 21 22  1  0
 22 23  2  0
 23 24  1  0
 24 25  2  0
 25 26  1  0
 18 27  2  0
 27 28  1  0
 10 29  1  0
 29 30  2  0
 30  2  1  0
 30  6  1  0
 28 15  2  0
 26 21  2  0
  1 31  1  0
  1 32  1  0
  1 33  1  0
  3 34  1  0
  4 35  1  0
  5 36  1  0
  9 37  1  0
 11 38  1  0
 11 39  1  0
 12 40  1  0
 13 41  1  0
 14 42  1  0
 14 43  1  0
 14 44  1  0
 16 45  1  0
 17 46  1  0
 20 47  1  0
 20 48  1  0
 22 49  1  0
 23 50  1  0
 24 51  1  0
 26 52  1  0
 27 53  1  0
 28 54  1  0
M  END
$$$$
OCNT-2310494
     RDKit          3D

 40 43  0  0  0  0  0  0  0  0999 V2000
   -5.0799   -0.0443   -2.2136 O   0  0  0  0  0  0  0  0  0  0  0  0
   -5.1880    0.4159   -1.0920 C   0  0  0  0  0  0  0  0  0  0  0  0
   -6.0539    1.4264   -0.7276 N   0  0  0  0  0  0  0  0  0  0  0  0
   -6.0184    1.6989    0.6758 C   0  0  0  0  0  0  0  0  0  0  0  0
   -4.6610    1.1619    1.0933 C   0  0  0  0  0  0  0  0  0  0  0  0
   -4.4522   -0.0341    0.1561 C   0  0  0  0  0  0  0  0  0  0  0  0
   -2.9944   -0.3842   -0.1272 C   0  0  0  0  0  0  0  0  0  0  0  0
   -2.2295   -0.7599    1.1386 C   0  0  0  0  0  0  0  0  0  0  0  0
   -0.8813   -1.2003    0.8522 N   0  0  0  0  0  0  0  0  0  0  0  0
    0.2301   -0.4321    0.6685 C   0  0  0  0  0  0  0  0  0  0  0  0
    1.2345   -1.3505    0.4509 C   0  0  0  0  0  0  0  0  0  0  0  0
    2.6400   -1.0839    0.1925 C   0  0  0  0  0  0  0  0  0  0  0  0
    3.5297   -2.1581    0.0528 C   0  0  0  0  0  0  0  0  0  0  0  0
    4.8875   -1.9381   -0.1948 C   0  0  0  0  0  0  0  0  0  0  0  0
    5.3842   -0.6307   -0.3091 C   0  0  0  0  0  0  0  0  0  0  0  0
    6.7305   -0.3494   -0.5557 C   0  0  0  0  0  0  0  0  0  0  0  0
    7.2451    0.8969   -0.6724 N   0  0  0  0  0  0  0  0  0  0  0  0
    6.3775    1.9201   -0.5390 C   0  0  0  0  0  0  0  0  0  0  0  0
    5.0227    1.7585   -0.2934 C   0  0  0  0  0  0  0  0  0  0  0  0
    4.5070    0.4617   -0.1740 C   0  0  0  0  0  0  0  0  0  0  0  0
    3.1417    0.2223    0.0757 C   0  0  0  0  0  0  0  0  0  0  0  0
    0.7003   -2.6148    0.5214 N   0  0  0  0  0  0  0  0  0  0  0  0
   -0.5979   -2.5085    0.7697 N   0  0  0  0  0  0  0  0  0  0  0  0
   -6.7203    1.8003   -1.3932 H   0  0  0  0  0  0  0  0  0  0  0  0
   -6.8394    1.1553    1.1535 H   0  0  0  0  0  0  0  0  0  0  0  0
   -6.1270    2.7711    0.8554 H   0  0  0  0  0  0  0  0  0  0  0  0
   -3.8910    1.9244    0.9189 H   0  0  0  0  0  0  0  0  0  0  0  0
   -4.6311    0.8851    2.1513 H   0  0  0  0  0  0  0  0  0  0  0  0
   -4.9836   -0.9110    0.5480 H   0  0  0  0  0  0  0  0  0  0  0  0
   -2.9566   -1.2173   -0.8417 H   0  0  0  0  0  0  0  0  0  0  0  0
   -2.4956    0.4563   -0.6280 H   0  0  0  0  0  0  0  0  0  0  0  0
   -2.1482    0.0941    1.8203 H   0  0  0  0  0  0  0  0  0  0  0  0
   -2.7364   -1.5688    1.6777 H   0  0  0  0  0  0  0  0  0  0  0  0
    0.2012    0.6455    0.7052 H   0  0  0  0  0  0  0  0  0  0  0  0
    3.1709   -3.1832    0.1361 H   0  0  0  0  0  0  0  0  0  0  0  0
    5.5508   -2.7940   -0.2980 H   0  0  0  0  0  0  0  0  0  0  0  0
    7.4593   -1.1477   -0.6705 H   0  0  0  0  0  0  0  0  0  0  0  0
    6.8127    2.9107   -0.6380 H   0  0  0  0  0  0  0  0  0  0  0  0
    4.3872    2.6324   -0.1987 H   0  0  0  0  0  0  0  0  0  0  0  0
    2.4728    1.0732    0.1753 H   0  0  0  0  0  0  0  0  0  0  0  0
  1  2  2  0
  2  3  1  0
  3  4  1  0
  4  5  1  0
  5  6  1  0
  6  7  1  0
  7  8  1  0
  8  9  1  0
  9 10  1  0
 10 11  2  0
 11 12  1  0
 12 13  1  0
 13 14  2  0
 14 15  1  0
 15 16  2  0
 16 17  1  0
 17 18  2  0
 18 19  1  0
 19 20  2  0
 20 21  1  0
 11 22  1  0
 22 23  2  0
  6  2  1  0
 23  9  1  0
 21 12  2  0
 20 15  1  0
  3 24  1  0
  4 25  1  0
  4 26  1  0
  5 27  1  0
  5 28  1  0
  6 29  1  0
  7 30  1  0
  7 31  1  0
  8 32  1  0
  8 33  1  0
 10 34  1  0
 13 35  1  0
 14 36  1  0
 16 37  1  0
 18 38  1  0
 19 39  1  0
 21 40  1  0
M  END
$$$$
OCNT-2310498
     RDKit          3D

 48 51  0  0  0  0  0  0  0  0999 V2000
    1.8826    0.4958    1.6513 C   0  0  0  0  0  0  0  0  0  0  0  0
    3.0247    1.0445    1.2315 N   0  0  0  0  0  0  0  0  0  0  0  0
    3.1546    0.5789   -0.0243 N   0  0  0  0  0  0  0  0  0  0  0  0
    4.2981    0.9744   -0.8312 C   0  0  0  0  0  0  0  0  0  0  0  0
    5.4722    0.0270   -0.6631 C   0  0  0  0  0  0  0  0  0  0  0  0
    6.2574    0.0844    0.6762 C   0  0  0  0  0  0  0  0  0  0  0  0
    7.5377   -0.1553   -0.1493 C   0  0  0  0  0  0  0  0  0  0  0  0
    6.7936    0.4662   -1.3488 C   0  0  0  0  0  0  0  0  0  0  0  0
    2.1407   -0.2511   -0.4010 C   0  0  0  0  0  0  0  0  0  0  0  0
    1.2751   -0.3258    0.6734 C   0  0  0  0  0  0  0  0  0  0  0  0
    0.0062   -1.1003    0.7996 C   0  0  0  0  0  0  0  0  0  0  0  0
   -0.9265   -0.6954   -0.2626 N   0  0  0  0  0  0  0  0  0  0  0  0
   -2.1999   -1.4388   -0.1462 C   0  0  0  0  0  0  0  0  0  0  0  0
   -2.8161   -0.2496    0.6297 C   0  0  0  0  0  0  0  0  0  0  0  0
   -4.2535    0.2194    0.3805 C   0  0  0  0  0  0  0  0  0  0  0  0
   -4.5659    0.5203   -1.0900 C   0  0  0  0  0  0  0  0  0  0  0  0
   -6.0450    0.8455   -1.2720 C   0  0  0  0  0  0  0  0  0  0  0  0
   -6.8604   -0.2170   -0.7807 O   0  0  0  0  0  0  0  0  0  0  0  0
   -6.6766   -0.4318    0.6171 C   0  0  0  0  0  0  0  0  0  0  0  0
   -5.2374   -0.8321    0.9143 C   0  0  0  0  0  0  0  0  0  0  0  0
   -1.6238    0.5663    0.0759 C   0  0  0  0  0  0  0  0  0  0  0  0
    1.5370    0.7157    2.6532 H   0  0  0  0  0  0  0  0  0  0  0  0
    4.5574    2.0022   -0.5511 H   0  0  0  0  0  0  0  0  0  0  0  0
    3.9641    0.9918   -1.8750 H   0  0  0  0  0  0  0  0  0  0  0  0
    5.2014   -1.0033   -0.9389 H   0  0  0  0  0  0  0  0  0  0  0  0
    6.0117   -0.6933    1.4039 H   0  0  0  0  0  0  0  0  0  0  0  0
    6.2361    1.0601    1.1759 H   0  0  0  0  0  0  0  0  0  0  0  0
    7.7844   -1.2147   -0.2836 H   0  0  0  0  0  0  0  0  0  0  0  0
    8.4289    0.3796    0.1876 H   0  0  0  0  0  0  0  0  0  0  0  0
    6.9263    1.5515   -1.4310 H   0  0  0  0  0  0  0  0  0  0  0  0
    6.9986    0.0093   -2.3205 H   0  0  0  0  0  0  0  0  0  0  0  0
    2.1036   -0.7055   -1.3812 H   0  0  0  0  0  0  0  0  0  0  0  0
    0.2500   -2.1638    0.6784 H   0  0  0  0  0  0  0  0  0  0  0  0
   -0.4131   -0.9836    1.8073 H   0  0  0  0  0  0  0  0  0  0  0  0
   -2.1670   -2.3854    0.4053 H   0  0  0  0  0  0  0  0  0  0  0  0
   -2.6499   -1.6465   -1.1227 H   0  0  0  0  0  0  0  0  0  0  0  0
   -2.6988   -0.3947    1.7169 H   0  0  0  0  0  0  0  0  0  0  0  0
   -4.4081    1.1457    0.9510 H   0  0  0  0  0  0  0  0  0  0  0  0
   -4.3262   -0.3507   -1.7095 H   0  0  0  0  0  0  0  0  0  0  0  0
   -3.9635    1.3573   -1.4567 H   0  0  0  0  0  0  0  0  0  0  0  0
   -6.3138    1.7789   -0.7634 H   0  0  0  0  0  0  0  0  0  0  0  0
   -6.2690    0.9733   -2.3359 H   0  0  0  0  0  0  0  0  0  0  0  0
   -7.3566   -1.2327    0.9242 H   0  0  0  0  0  0  0  0  0  0  0  0
   -6.9611    0.4729    1.1673 H   0  0  0  0  0  0  0  0  0  0  0  0
   -5.1024   -0.9737    1.9926 H   0  0  0  0  0  0  0  0  0  0  0  0
   -5.0303   -1.7970    0.4339 H   0  0  0  0  0  0  0  0  0  0  0  0
   -1.8387    1.1686   -0.8131 H   0  0  0  0  0  0  0  0  0  0  0  0
   -1.1387    1.2250    0.8047 H   0  0  0  0  0  0  0  0  0  0  0  0
  1  2  2  0
  2  3  1  0
  3  4  1  0
  4  5  1  0
  5  6  1  0
  6  7  1  0
  7  8  1  0
  3  9  1  0
  9 10  2  0
 10 11  1  0
 11 12  1  0
 12 13  1  0
 13 14  1  0
 14 15  1  0
 15 16  1  0
 16 17  1  0
 17 18  1  0
 18 19  1  0
 19 20  1  0
 14 21  1  0
 10  1  1  0
 21 12  1  0
  8  5  1  0
 20 15  1  0
  1 22  1  0
  4 23  1  0
  4 24  1  0
  5 25  1  0
  6 26  1  0
  6 27  1  0
  7 28  1  0
  7 29  1  0
  8 30  1  0
  8 31  1  0
  9 32  1  0
 11 33  1  0
 11 34  1  0
 13 35  1  0
 13 36  1  0
 14 37  1  0
 15 38  1  0
 16 39  1  0
 16 40  1  0
 17 41  1  0
 17 42  1  0
 19 43  1  0
 19 44  1  0
 20 45  1  0
 20 46  1  0
 21 47  1  0
 21 48  1  0
M  END
$$$$
OCNT-2310500
     RDKit          3D

 47 49  0  0  0  0  0  0  0  0999 V2000
   -4.0300    0.1399   -1.1801 C   0  0  0  0  0  0  0  0  0  0  0  0
   -3.1312   -0.9682   -0.6167 C   0  0  0  0  0  0  0  0  0  0  0  0
   -2.7818   -1.8137   -1.7248 O   0  0  0  0  0  0  0  0  0  0  0  0
   -3.8702   -1.8284    0.4266 C   0  0  0  0  0  0  0  0  0  0  0  0
   -3.4875   -1.4944    1.8701 C   0  0  0  0  0  0  0  0  0  0  0  0
   -3.1095   -0.0268    2.0401 C   0  0  0  0  0  0  0  0  0  0  0  0
   -1.9274    0.3326    1.2502 N   0  0  0  0  0  0  0  0  0  0  0  0
   -1.7698    1.7860    1.1384 C   0  0  0  0  0  0  0  0  0  0  0  0
   -0.3414    2.2219    0.7976 C   0  0  0  0  0  0  0  0  0  0  0  0
    0.6825    1.7473    1.8283 C   0  0  0  0  0  0  0  0  0  0  0  0
    1.9890    2.2210    1.4902 O   0  0  0  0  0  0  0  0  0  0  0  0
    2.7673    1.4576    0.6647 C   0  0  0  0  0  0  0  0  0  0  0  0
    4.0675    1.9337    0.4946 C   0  0  0  0  0  0  0  0  0  0  0  0
    4.9729    1.2591   -0.3273 C   0  0  0  0  0  0  0  0  0  0  0  0
    4.5892    0.0918   -1.0014 C   0  0  0  0  0  0  0  0  0  0  0  0
    5.4835   -0.6016   -1.8330 C   0  0  0  0  0  0  0  0  0  0  0  0
    5.0840   -1.7610   -2.4998 C   0  0  0  0  0  0  0  0  0  0  0  0
    3.7866   -2.2402   -2.3444 C   0  0  0  0  0  0  0  0  0  0  0  0
    2.8865   -1.5624   -1.5199 C   0  0  0  0  0  0  0  0  0  0  0  0
    3.2723   -0.3952   -0.8396 C   0  0  0  0  0  0  0  0  0  0  0  0
    2.3752    0.2968   -0.0043 C   0  0  0  0  0  0  0  0  0  0  0  0
   -1.8208   -0.3935   -0.0262 C   0  0  0  0  0  0  0  0  0  0  0  0
   -3.4896    0.7302   -1.9293 H   0  0  0  0  0  0  0  0  0  0  0  0
   -4.8956   -0.2893   -1.6980 H   0  0  0  0  0  0  0  0  0  0  0  0
   -4.4016    0.8204   -0.4107 H   0  0  0  0  0  0  0  0  0  0  0  0
   -3.6027   -2.2023   -2.0735 H   0  0  0  0  0  0  0  0  0  0  0  0
   -3.6816   -2.8962    0.2562 H   0  0  0  0  0  0  0  0  0  0  0  0
   -4.9543   -1.7044    0.3080 H   0  0  0  0  0  0  0  0  0  0  0  0
   -4.3191   -1.7492    2.5376 H   0  0  0  0  0  0  0  0  0  0  0  0
   -2.6425   -2.1251    2.1767 H   0  0  0  0  0  0  0  0  0  0  0  0
   -2.8966    0.1631    3.0985 H   0  0  0  0  0  0  0  0  0  0  0  0
   -3.9725    0.5956    1.7746 H   0  0  0  0  0  0  0  0  0  0  0  0
   -2.4653    2.1952    0.3960 H   0  0  0  0  0  0  0  0  0  0  0  0
   -2.0290    2.2560    2.0966 H   0  0  0  0  0  0  0  0  0  0  0  0
   -0.3074    3.3181    0.7498 H   0  0  0  0  0  0  0  0  0  0  0  0
   -0.0583    1.8906   -0.2069 H   0  0  0  0  0  0  0  0  0  0  0  0
    0.4375    2.1963    2.7979 H   0  0  0  0  0  0  0  0  0  0  0  0
    0.6728    0.6644    1.9938 H   0  0  0  0  0  0  0  0  0  0  0  0
    4.3807    2.8386    1.0093 H   0  0  0  0  0  0  0  0  0  0  0  0
    5.9798    1.6548   -0.4359 H   0  0  0  0  0  0  0  0  0  0  0  0
    6.5008   -0.2413   -1.9672 H   0  0  0  0  0  0  0  0  0  0  0  0
    5.7864   -2.2885   -3.1401 H   0  0  0  0  0  0  0  0  0  0  0  0
    3.4728   -3.1420   -2.8638 H   0  0  0  0  0  0  0  0  0  0  0  0
    1.8766   -1.9534   -1.4116 H   0  0  0  0  0  0  0  0  0  0  0  0
    1.3679   -0.0929    0.0996 H   0  0  0  0  0  0  0  0  0  0  0  0
   -1.3094    0.1952   -0.7976 H   0  0  0  0  0  0  0  0  0  0  0  0
   -1.1363   -1.2363    0.1478 H   0  0  0  0  0  0  0  0  0  0  0  0
  1  2  1  0
  2  3  1  0
  2  4  1  0
  4  5  1  0
  5  6  1  0
  6  7  1  0
  7  8  1  0
  8  9  1  0
  9 10  1  0
 10 11  1  0
 11 12  1  0
 12 13  1  0
 13 14  2  0
 14 15  1  0
 15 16  2  0
 16 17  1  0
 17 18  2  0
 18 19  1  0
 19 20  2  0
 20 21  1  0
  7 22  1  0
 22  2  1  0
 21 12  2  0
 20 15  1  0
  1 23  1  0
  1 24  1  0
  1 25  1  0
  3 26  1  0
  4 27  1  0
  4 28  1  0
  5 29  1  0
  5 30  1  0
  6 31  1  0
  6 32  1  0
  8 33  1  0
  8 34  1  0
  9 35  1  0
  9 36  1  0
 10 37  1  0
 10 38  1  0
 13 39  1  0
 14 40  1  0
 16 41  1  0
 17 42  1  0
 18 43  1  0
 19 44  1  0
 21 45  1  0
 22 46  1  0
 22 47  1  0
M  END
$$$$
OCNT-2310513
     RDKit          3D

 52 55  0  0  0  0  0  0  0  0999 V2000
    4.3419    1.8408    3.2455 C   0  0  0  0  0  0  0  0  0  0  0  0
    5.0910    0.8174    2.4062 C   0  0  0  0  0  0  0  0  0  0  0  0
    4.2404    0.2889    1.2807 C   0  0  0  0  0  0  0  0  0  0  0  0
    4.1554    0.9770    0.0681 C   0  0  0  0  0  0  0  0  0  0  0  0
    3.3482    0.4977   -0.9731 C   0  0  0  0  0  0  0  0  0  0  0  0
    2.5981   -0.6750   -0.8308 C   0  0  0  0  0  0  0  0  0  0  0  0
    1.7427   -1.1504   -1.8650 N   0  0  0  0  0  0  0  0  0  0  0  0
    0.8728   -2.2937   -1.6876 C   0  0  0  0  0  0  0  0  0  0  0  0
   -0.1320   -2.1849   -2.8140 C   0  0  0  0  0  0  0  0  0  0  0  0
   -1.3966   -1.4757   -2.3498 C   0  0  0  0  0  0  0  0  0  0  0  0
   -2.4641   -2.0794   -2.2821 O   0  0  0  0  0  0  0  0  0  0  0  0
   -1.2593   -0.1593   -1.9740 N   0  0  0  0  0  0  0  0  0  0  0  0
   -2.3487    0.5766   -1.3552 C   0  0  0  0  0  0  0  0  0  0  0  0
   -2.3536    0.4870    0.1532 C   0  0  0  0  0  0  0  0  0  0  0  0
   -1.1261    0.3441    0.8363 C   0  0  0  0  0  0  0  0  0  0  0  0
   -1.0826    0.1434    2.2112 C   0  0  0  0  0  0  0  0  0  0  0  0
   -2.2776    0.0913    2.8906 C   0  0  0  0  0  0  0  0  0  0  0  0
   -3.4723    0.2699    2.2952 N   0  0  0  0  0  0  0  0  0  0  0  0
   -3.5107    0.5120    0.9500 C   0  0  0  0  0  0  0  0  0  0  0  0
   -4.8141    0.8401    0.4599 N   0  0  0  0  0  0  0  0  0  0  0  0
   -5.2004    1.5339   -0.6666 C   0  0  0  0  0  0  0  0  0  0  0  0
   -6.5741    1.6040   -0.6196 C   0  0  0  0  0  0  0  0  0  0  0  0
   -7.0559    1.0063    0.5080 N   0  0  0  0  0  0  0  0  0  0  0  0
   -5.9867    0.5834    1.1456 C   0  0  0  0  0  0  0  0  0  0  0  0
    0.6089   -1.4498   -3.9159 C   0  0  0  0  0  0  0  0  0  0  0  0
    1.6629   -0.6593   -3.1764 C   0  0  0  0  0  0  0  0  0  0  0  0
    2.2882    0.2488   -3.7001 O   0  0  0  0  0  0  0  0  0  0  0  0
    2.6933   -1.3583    0.3918 C   0  0  0  0  0  0  0  0  0  0  0  0
    3.5007   -0.8845    1.4338 C   0  0  0  0  0  0  0  0  0  0  0  0
    4.0419    2.7060    2.6440 H   0  0  0  0  0  0  0  0  0  0  0  0
    3.4357    1.4089    3.6846 H   0  0  0  0  0  0  0  0  0  0  0  0
    4.9781    2.1995    4.0609 H   0  0  0  0  0  0  0  0  0  0  0  0
    6.0038    1.2670    1.9968 H   0  0  0  0  0  0  0  0  0  0  0  0
    5.4214   -0.0120    3.0440 H   0  0  0  0  0  0  0  0  0  0  0  0
    4.7206    1.8948   -0.0844 H   0  0  0  0  0  0  0  0  0  0  0  0
    3.3287    1.0830   -1.8869 H   0  0  0  0  0  0  0  0  0  0  0  0
    1.4806   -3.2000   -1.7905 H   0  0  0  0  0  0  0  0  0  0  0  0
    0.3849   -2.2809   -0.7079 H   0  0  0  0  0  0  0  0  0  0  0  0
   -0.4422   -3.1797   -3.1569 H   0  0  0  0  0  0  0  0  0  0  0  0
   -0.3473    0.2793   -1.9646 H   0  0  0  0  0  0  0  0  0  0  0  0
   -2.2351    1.6229   -1.6566 H   0  0  0  0  0  0  0  0  0  0  0  0
   -3.2738    0.1739   -1.7745 H   0  0  0  0  0  0  0  0  0  0  0  0
   -0.1801    0.3710    0.3012 H   0  0  0  0  0  0  0  0  0  0  0  0
   -0.1388    0.0180    2.7307 H   0  0  0  0  0  0  0  0  0  0  0  0
   -2.3104   -0.0822    3.9622 H   0  0  0  0  0  0  0  0  0  0  0  0
   -4.5144    1.9581   -1.3795 H   0  0  0  0  0  0  0  0  0  0  0  0
   -7.2391    2.0748   -1.3332 H   0  0  0  0  0  0  0  0  0  0  0  0
   -5.9903    0.0673    2.0978 H   0  0  0  0  0  0  0  0  0  0  0  0
   -0.0362   -0.7796   -4.4907 H   0  0  0  0  0  0  0  0  0  0  0  0
    1.1132   -2.1490   -4.5923 H   0  0  0  0  0  0  0  0  0  0  0  0
    2.1594   -2.2873    0.5696 H   0  0  0  0  0  0  0  0  0  0  0  0
    3.5505   -1.4459    2.3651 H   0  0  0  0  0  0  0  0  0  0  0  0
  1  2  1  0
  2  3  1  0
  3  4  1  0
  4  5  2  0
  5  6  1  0
  6  7  1  0
  7  8  1  0
  8  9  1  0
  9 10  1  0
 10 11  2  0
 10 12  1  0
 12 13  1  0
 13 14  1  0
 14 15  1  0
 15 16  2  0
 16 17  1  0
 17 18  2  0
 18 19  1  0
 19 20  1  0
 20 21  1  0
 21 22  2  0
 22 23  1  0
 23 24  2  0
  9 25  1  0
 25 26  1  0
 26 27  2  0
  6 28  2  0
 28 29  1  0
 29  3  2  0
 26  7  1  0
 19 14  2  0
 24 20  1  0
  1 30  1  0
  1 31  1  0
  1 32  1  0
  2 33  1  0
  2 34  1  0
  4 35  1  0
  5 36  1  0
  8 37  1  0
  8 38  1  0
  9 39  1  0
 12 40  1  0
 13 41  1  0
 13 42  1  0
 15 43  1  0
 16 44  1  0
 17 45  1  0
 21 46  1  0
 22 47  1  0
 24 48  1  0
 25 49  1  0
 25 50  1  0
 28 51  1  0
 29 52  1  0
M  END
$$$$
OCNT-2310514
     RDKit          3D

 51 53  0  0  0  0  0  0  0  0999 V2000
    0.1875    1.4109    0.4518 O   0  0  0  0  0  0  0  0  0  0  0  0
   -0.0881    0.2607    0.1386 C   0  0  0  0  0  0  0  0  0  0  0  0
   -1.1199   -0.4653    0.6713 N   0  0  0  0  0  0  0  0  0  0  0  0
   -2.0571    0.1343    1.5917 C   0  0  0  0  0  0  0  0  0  0  0  0
   -3.2959    0.6137    0.8754 C   0  0  0  0  0  0  0  0  0  0  0  0
   -3.2910    1.8476    0.2150 C   0  0  0  0  0  0  0  0  0  0  0  0
   -4.4238    2.2864   -0.4655 C   0  0  0  0  0  0  0  0  0  0  0  0
   -5.5754    1.4964   -0.5004 C   0  0  0  0  0  0  0  0  0  0  0  0
   -5.6016    0.2522    0.1463 C   0  0  0  0  0  0  0  0  0  0  0  0
   -6.7736   -0.5599    0.1088 N   0  0  0  0  0  0  0  0  0  0  0  0
   -6.9596   -1.7951    0.6959 C   0  0  0  0  0  0  0  0  0  0  0  0
   -8.2416   -2.1820    0.3847 C   0  0  0  0  0  0  0  0  0  0  0  0
   -8.8617   -1.2349   -0.3744 N   0  0  0  0  0  0  0  0  0  0  0  0
   -7.9684   -0.2809   -0.5235 C   0  0  0  0  0  0  0  0  0  0  0  0
   -4.4537   -0.1828    0.8300 C   0  0  0  0  0  0  0  0  0  0  0  0
    0.5963   -0.4741   -0.7973 N   0  0  0  0  0  0  0  0  0  0  0  0
    1.8102    0.0487   -1.3951 C   0  0  0  0  0  0  0  0  0  0  0  0
    3.0457   -0.2178   -0.5126 C   0  0  0  0  0  0  0  0  0  0  0  0
    3.4461   -1.7022   -0.5610 C   0  0  0  0  0  0  0  0  0  0  0  0
    2.3493   -2.5399   -0.1944 O   0  0  0  0  0  0  0  0  0  0  0  0
    4.2036    0.6942   -0.9663 C   0  0  0  0  0  0  0  0  0  0  0  0
    5.3895    0.6908   -0.0255 C   0  0  0  0  0  0  0  0  0  0  0  0
    5.2721    1.3844    1.1934 C   0  0  0  0  0  0  0  0  0  0  0  0
    6.3269    1.4178    2.1069 C   0  0  0  0  0  0  0  0  0  0  0  0
    7.5179    0.7585    1.8195 C   0  0  0  0  0  0  0  0  0  0  0  0
    7.6526    0.0642    0.6181 C   0  0  0  0  0  0  0  0  0  0  0  0
    6.5971    0.0280   -0.2998 C   0  0  0  0  0  0  0  0  0  0  0  0
    6.8435   -0.8717   -1.7544 Cl  0  0  0  0  0  0  0  0  0  0  0  0
   -1.4689   -1.2004    0.0756 H   0  0  0  0  0  0  0  0  0  0  0  0
   -2.3197   -0.6333    2.3282 H   0  0  0  0  0  0  0  0  0  0  0  0
   -1.5909    0.9607    2.1403 H   0  0  0  0  0  0  0  0  0  0  0  0
   -2.3958    2.4689    0.2247 H   0  0  0  0  0  0  0  0  0  0  0  0
   -4.4072    3.2475   -0.9744 H   0  0  0  0  0  0  0  0  0  0  0  0
   -6.4276    1.8897   -1.0457 H   0  0  0  0  0  0  0  0  0  0  0  0
   -6.2020   -2.2985    1.2748 H   0  0  0  0  0  0  0  0  0  0  0  0
   -8.7469   -3.0955    0.6710 H   0  0  0  0  0  0  0  0  0  0  0  0
   -8.1464    0.6266   -1.0819 H   0  0  0  0  0  0  0  0  0  0  0  0
   -4.4277   -1.1412    1.3399 H   0  0  0  0  0  0  0  0  0  0  0  0
    0.6549   -1.4636   -0.5754 H   0  0  0  0  0  0  0  0  0  0  0  0
    1.9221   -0.4303   -2.3740 H   0  0  0  0  0  0  0  0  0  0  0  0
    1.6741    1.1233   -1.5618 H   0  0  0  0  0  0  0  0  0  0  0  0
    2.7783    0.0235    0.5251 H   0  0  0  0  0  0  0  0  0  0  0  0
    4.2633   -1.9062    0.1377 H   0  0  0  0  0  0  0  0  0  0  0  0
    3.7659   -1.9899   -1.5680 H   0  0  0  0  0  0  0  0  0  0  0  0
    2.7079   -3.4431   -0.1203 H   0  0  0  0  0  0  0  0  0  0  0  0
    3.8470    1.7320   -1.0292 H   0  0  0  0  0  0  0  0  0  0  0  0
    4.5013    0.4434   -1.9903 H   0  0  0  0  0  0  0  0  0  0  0  0
    4.3482    1.9081    1.4376 H   0  0  0  0  0  0  0  0  0  0  0  0
    6.2162    1.9608    3.0427 H   0  0  0  0  0  0  0  0  0  0  0  0
    8.3407    0.7847    2.5293 H   0  0  0  0  0  0  0  0  0  0  0  0
    8.5861   -0.4496    0.4019 H   0  0  0  0  0  0  0  0  0  0  0  0
  1  2  2  0
  2  3  1  0
  3  4  1  0
  4  5  1  0
  5  6  2  0
  6  7  1  0
  7  8  2  0
  8  9  1  0
  9 10  1  0
 10 11  1  0
 11 12  2  0
 12 13  1  0
 13 14  2  0
  9 15  2  0
  2 16  1  0
 16 17  1  0
 17 18  1  0
 18 19  1  0
 19 20  1  0
 18 21  1  0
 21 22  1  0
 22 23  2  0
 23 24  1  0
 24 25  2  0
 25 26  1  0
 26 27  2  0
 27 28  1  0
 15  5  1  0
 27 22  1  0
 14 10  1  0
  3 29  1  0
  4 30  1  0
  4 31  1  0
  6 32  1  0
  7 33  1  0
  8 34  1  0
 11 35  1  0
 12 36  1  0
 14 37  1  0
 15 38  1  0
 16 39  1  0
 17 40  1  0
 17 41  1  0
 18 42  1  0
 19 43  1  0
 19 44  1  0
 20 45  1  0
 21 46  1  0
 21 47  1  0
 23 48  1  0
 24 49  1  0
 25 50  1  0
 26 51  1  0
M  END
$$$$
OCNT-2310518
     RDKit          3D

 52 54  0  0  0  0  0  0  0  0999 V2000
   -3.4710    1.2014   -1.3571 C   0  0  0  0  0  0  0  0  0  0  0  0
   -4.0778    0.4839   -0.1295 C   0  0  0  0  0  0  0  0  0  0  0  0
   -4.1222    1.5235    1.0170 C   0  0  0  0  0  0  0  0  0  0  0  0
   -3.1949   -0.7234    0.3172 C   0  0  0  0  0  0  0  0  0  0  0  0
   -1.8448   -0.3754    0.7316 N   0  0  0  0  0  0  0  0  0  0  0  0
   -0.7787   -0.4211   -0.1417 C   0  0  0  0  0  0  0  0  0  0  0  0
   -0.8736   -0.7585   -1.3157 O   0  0  0  0  0  0  0  0  0  0  0  0
    0.5376    0.0066    0.4040 C   0  0  0  0  0  0  0  0  0  0  0  0
    0.8868   -0.2061    1.7454 C   0  0  0  0  0  0  0  0  0  0  0  0
    2.1373    0.2043    2.2151 C   0  0  0  0  0  0  0  0  0  0  0  0
    3.0398    0.8133    1.3367 C   0  0  0  0  0  0  0  0  0  0  0  0
    4.6212    1.3505    1.9429 S   0  0  0  0  0  0  0  0  0  0  0  0
    5.1892    2.2901    1.0014 O   0  0  0  0  0  0  0  0  0  0  0  0
    4.4438    1.7104    3.3349 O   0  0  0  0  0  0  0  0  0  0  0  0
    5.5233   -0.0791    1.9429 N   0  0  0  0  0  0  0  0  0  0  0  0
    6.0585   -0.5265    0.7043 C   0  0  0  0  0  0  0  0  0  0  0  0
    7.2868   -0.0417    0.2564 C   0  0  0  0  0  0  0  0  0  0  0  0
    7.7879   -0.4595   -0.9772 C   0  0  0  0  0  0  0  0  0  0  0  0
    7.0592   -1.3556   -1.7598 C   0  0  0  0  0  0  0  0  0  0  0  0
    5.8277   -1.8335   -1.3117 C   0  0  0  0  0  0  0  0  0  0  0  0
    5.3246   -1.4164   -0.0788 C   0  0  0  0  0  0  0  0  0  0  0  0
    2.6999    1.0311   -0.0015 C   0  0  0  0  0  0  0  0  0  0  0  0
    1.4514    0.6153   -0.4682 C   0  0  0  0  0  0  0  0  0  0  0  0
   -5.4743   -0.0607   -0.4981 C   0  0  0  0  0  0  0  0  0  0  0  0
   -6.6294    0.2341    0.2385 C   0  0  0  0  0  0  0  0  0  0  0  0
   -7.8478   -0.3070   -0.1548 C   0  0  0  0  0  0  0  0  0  0  0  0
   -8.0053   -1.1197   -1.2178 N   0  0  0  0  0  0  0  0  0  0  0  0
   -6.8925   -1.4022   -1.9218 C   0  0  0  0  0  0  0  0  0  0  0  0
   -5.6333   -0.9096   -1.6071 C   0  0  0  0  0  0  0  0  0  0  0  0
   -4.1524    1.9716   -1.7384 H   0  0  0  0  0  0  0  0  0  0  0  0
   -3.2636    0.5105   -2.1810 H   0  0  0  0  0  0  0  0  0  0  0  0
   -2.5271    1.6989   -1.1077 H   0  0  0  0  0  0  0  0  0  0  0  0
   -4.7831    2.3632    0.7713 H   0  0  0  0  0  0  0  0  0  0  0  0
   -4.4738    1.0763    1.9540 H   0  0  0  0  0  0  0  0  0  0  0  0
   -3.1313    1.9484    1.2148 H   0  0  0  0  0  0  0  0  0  0  0  0
   -3.6563   -1.2222    1.1789 H   0  0  0  0  0  0  0  0  0  0  0  0
   -3.1247   -1.4724   -0.4805 H   0  0  0  0  0  0  0  0  0  0  0  0
   -1.7252    0.0443    1.6433 H   0  0  0  0  0  0  0  0  0  0  0  0
    0.2096   -0.7122    2.4280 H   0  0  0  0  0  0  0  0  0  0  0  0
    2.4057    0.0397    3.2569 H   0  0  0  0  0  0  0  0  0  0  0  0
    6.1406   -0.1134    2.7536 H   0  0  0  0  0  0  0  0  0  0  0  0
    7.8509    0.6736    0.8485 H   0  0  0  0  0  0  0  0  0  0  0  0
    8.7423   -0.0788   -1.3326 H   0  0  0  0  0  0  0  0  0  0  0  0
    7.4493   -1.6777   -2.7224 H   0  0  0  0  0  0  0  0  0  0  0  0
    5.2588   -2.5293   -1.9235 H   0  0  0  0  0  0  0  0  0  0  0  0
    4.3671   -1.7976    0.2647 H   0  0  0  0  0  0  0  0  0  0  0  0
    3.3994    1.5095   -0.6846 H   0  0  0  0  0  0  0  0  0  0  0  0
    1.1877    0.7705   -1.5134 H   0  0  0  0  0  0  0  0  0  0  0  0
   -6.6172    0.8744    1.1128 H   0  0  0  0  0  0  0  0  0  0  0  0
   -8.7573   -0.0906    0.3988 H   0  0  0  0  0  0  0  0  0  0  0  0
   -7.0371   -2.0582   -2.7755 H   0  0  0  0  0  0  0  0  0  0  0  0
   -4.7916   -1.1970   -2.2305 H   0  0  0  0  0  0  0  0  0  0  0  0
  1  2  1  0
  2  3  1  0
  2  4  1  0
  4  5  1  0
  5  6  1  0
  6  7  2  0
  6  8  1  0
  8  9  1  0
  9 10  2  0
 10 11  1  0
 11 12  1  0
 12 13  2  0
 12 14  2  0
 12 15  1  0
 15 16  1  0
 16 17  2  0
 17 18  1  0
 18 19  2  0
 19 20  1  0
 20 21  2  0
 11 22  2  0
 22 23  1  0
  2 24  1  0
 24 25  2  0
 25 26  1  0
 26 27  2  0
 27 28  1  0
 28 29  2  0
 23  8  2  0
 29 24  1  0
 21 16  1  0
  1 30  1  0
  1 31  1  0
  1 32  1  0
  3 33  1  0
  3 34  1  0
  3 35  1  0
  4 36  1  0
  4 37  1  0
  5 38  1  0
  9 39  1  0
 10 40  1  0
 15 41  1  0
 17 42  1  0
 18 43  1  0
 19 44  1  0
 20 45  1  0
 21 46  1  0
 22 47  1  0
 23 48  1  0
 25 49  1  0
 26 50  1  0
 28 51  1  0
 29 52  1  0
M  END
$$$$
OCNT-2310539
     RDKit          3D

 43 45  0  0  0  0  0  0  0  0999 V2000
    5.9152    0.3068   -2.1603 C   0  0  0  0  0  0  0  0  0  0  0  0
    4.7106    0.4021   -1.2666 C   0  0  0  0  0  0  0  0  0  0  0  0
    4.1692    1.6743   -0.9497 C   0  0  0  0  0  0  0  0  0  0  0  0
    3.0293    1.7997   -0.1473 C   0  0  0  0  0  0  0  0  0  0  0  0
    2.4556    0.6329    0.3163 C   0  0  0  0  0  0  0  0  0  0  0  0
    1.2652    0.4201    1.1346 C   0  0  0  0  0  0  0  0  0  0  0  0
    0.5088    1.2979    1.5031 O   0  0  0  0  0  0  0  0  0  0  0  0
    1.1412   -0.9284    1.3065 N   0  0  0  0  0  0  0  0  0  0  0  0
    0.0629   -1.5638    2.0407 C   0  0  0  0  0  0  0  0  0  0  0  0
   -1.1987   -1.7341    1.1875 C   0  0  0  0  0  0  0  0  0  0  0  0
   -1.9087   -2.7312    1.2920 O   0  0  0  0  0  0  0  0  0  0  0  0
   -1.5332   -0.6332    0.4181 N   0  0  0  0  0  0  0  0  0  0  0  0
   -2.7732   -0.5139   -0.3814 C   0  0  0  0  0  0  0  0  0  0  0  0
   -2.8786   -1.6854   -1.3780 C   0  0  0  0  0  0  0  0  0  0  0  0
   -4.0369   -0.4779    0.5218 C   0  0  0  0  0  0  0  0  0  0  0  0
   -4.2379    0.8368    1.2279 C   0  0  0  0  0  0  0  0  0  0  0  0
   -3.6383    1.9729    0.8471 C   0  0  0  0  0  0  0  0  0  0  0  0
   -2.7228    2.0658   -0.3366 C   0  0  0  0  0  0  0  0  0  0  0  0
   -2.7052    0.8002   -1.2036 C   0  0  0  0  0  0  0  0  0  0  0  0
    2.1045   -1.6160    0.6226 C   0  0  0  0  0  0  0  0  0  0  0  0
    2.2598   -2.8156    0.5051 O   0  0  0  0  0  0  0  0  0  0  0  0
    2.9669   -0.6122   -0.0001 C   0  0  0  0  0  0  0  0  0  0  0  0
    4.0893   -0.7644   -0.7918 C   0  0  0  0  0  0  0  0  0  0  0  0
    6.4347   -0.6475   -2.0220 H   0  0  0  0  0  0  0  0  0  0  0  0
    5.6106    0.3925   -3.2081 H   0  0  0  0  0  0  0  0  0  0  0  0
    6.6298    1.1037   -1.9287 H   0  0  0  0  0  0  0  0  0  0  0  0
    4.6434    2.5748   -1.3393 H   0  0  0  0  0  0  0  0  0  0  0  0
    2.6096    2.7706    0.0947 H   0  0  0  0  0  0  0  0  0  0  0  0
    0.3931   -2.5540    2.3709 H   0  0  0  0  0  0  0  0  0  0  0  0
   -0.1950   -0.9510    2.9105 H   0  0  0  0  0  0  0  0  0  0  0  0
   -1.1528    0.2449    0.7632 H   0  0  0  0  0  0  0  0  0  0  0  0
   -3.7167   -1.5425   -2.0696 H   0  0  0  0  0  0  0  0  0  0  0  0
   -3.0428   -2.6428   -0.8739 H   0  0  0  0  0  0  0  0  0  0  0  0
   -1.9635   -1.7775   -1.9744 H   0  0  0  0  0  0  0  0  0  0  0  0
   -4.9349   -0.6625   -0.0815 H   0  0  0  0  0  0  0  0  0  0  0  0
   -3.9969   -1.2735    1.2745 H   0  0  0  0  0  0  0  0  0  0  0  0
   -4.9088    0.8411    2.0847 H   0  0  0  0  0  0  0  0  0  0  0  0
   -3.8148    2.8868    1.4110 H   0  0  0  0  0  0  0  0  0  0  0  0
   -1.7106    2.2856    0.0226 H   0  0  0  0  0  0  0  0  0  0  0  0
   -3.0232    2.9178   -0.9595 H   0  0  0  0  0  0  0  0  0  0  0  0
   -1.8055    0.8148   -1.8337 H   0  0  0  0  0  0  0  0  0  0  0  0
   -3.5643    0.8421   -1.8880 H   0  0  0  0  0  0  0  0  0  0  0  0
    4.4638   -1.7569   -1.0337 H   0  0  0  0  0  0  0  0  0  0  0  0
  1  2  1  0
  2  3  1  0
  3  4  2  0
  4  5  1  0
  5  6  1  0
  6  7  2  0
  6  8  1  0
  8  9  1  0
  9 10  1  0
 10 11  2  0
 10 12  1  0
 12 13  1  0
 13 14  1  0
 13 15  1  0
 15 16  1  0
 16 17  2  0
 17 18  1  0
 18 19  1  0
  8 20  1  0
 20 21  2  0
 20 22  1  0
 22 23  1  0
 23  2  2  0
 22  5  2  0
 19 13  1  0
  1 24  1  0
  1 25  1  0
  1 26  1  0
  3 27  1  0
  4 28  1  0
  9 29  1  0
  9 30  1  0
 12 31  1  0
 14 32  1  0
 14 33  1  0
 14 34  1  0
 15 35  1  0
 15 36  1  0
 16 37  1  0
 17 38  1  0
 18 39  1  0
 18 40  1  0
 19 41  1  0
 19 42  1  0
 23 43  1  0
M  END
$$$$
OCNT-2310555
     RDKit          3D

 46 49  0  0  0  0  0  0  0  0999 V2000
    1.5632    2.0106    2.0790 C   0  0  0  0  0  0  0  0  0  0  0  0
    2.2641    1.3003    1.0236 N   0  0  0  0  0  0  0  0  0  0  0  0
    1.8040    0.0420    0.7346 N   0  0  0  0  0  0  0  0  0  0  0  0
    2.3729   -0.6549   -0.2033 C   0  0  0  0  0  0  0  0  0  0  0  0
    1.8684   -2.0563   -0.5075 C   0  0  0  0  0  0  0  0  0  0  0  0
    0.6362   -2.6166    0.1709 C   0  0  0  0  0  0  0  0  0  0  0  0
    0.2688   -3.7667   -0.0757 O   0  0  0  0  0  0  0  0  0  0  0  0
   -0.0433   -1.8024    1.0328 N   0  0  0  0  0  0  0  0  0  0  0  0
   -1.2884   -2.1769    1.6532 C   0  0  0  0  0  0  0  0  0  0  0  0
   -2.4571   -1.7344    0.8136 C   0  0  0  0  0  0  0  0  0  0  0  0
   -3.0046   -2.5948   -0.1405 C   0  0  0  0  0  0  0  0  0  0  0  0
   -4.0657   -2.1472   -0.9081 C   0  0  0  0  0  0  0  0  0  0  0  0
   -4.6024   -0.9140   -0.7958 N   0  0  0  0  0  0  0  0  0  0  0  0
   -4.0565   -0.0720    0.1222 C   0  0  0  0  0  0  0  0  0  0  0  0
   -4.6243    1.2286    0.2248 N   0  0  0  0  0  0  0  0  0  0  0  0
   -4.2706    2.2702    1.0555 C   0  0  0  0  0  0  0  0  0  0  0  0
   -5.1374    3.2979    0.7571 C   0  0  0  0  0  0  0  0  0  0  0  0
   -6.0098    2.9318   -0.2279 N   0  0  0  0  0  0  0  0  0  0  0  0
   -5.6813    1.6931   -0.5282 C   0  0  0  0  0  0  0  0  0  0  0  0
   -2.9874   -0.4428    0.9385 C   0  0  0  0  0  0  0  0  0  0  0  0
    3.5150   -0.1368   -0.9969 C   0  0  0  0  0  0  0  0  0  0  0  0
    4.1627   -0.8860   -1.9887 C   0  0  0  0  0  0  0  0  0  0  0  0
    5.2213   -0.3276   -2.7113 C   0  0  0  0  0  0  0  0  0  0  0  0
    5.6384    0.9749   -2.4491 C   0  0  0  0  0  0  0  0  0  0  0  0
    5.0016    1.7204   -1.4582 C   0  0  0  0  0  0  0  0  0  0  0  0
    3.9420    1.1610   -0.7316 C   0  0  0  0  0  0  0  0  0  0  0  0
    3.2838    1.9422    0.3302 C   0  0  0  0  0  0  0  0  0  0  0  0
    3.6583    3.0886    0.5594 O   0  0  0  0  0  0  0  0  0  0  0  0
    1.2712    1.3050    2.8629 H   0  0  0  0  0  0  0  0  0  0  0  0
    2.1960    2.7884    2.5182 H   0  0  0  0  0  0  0  0  0  0  0  0
    0.6713    2.4771    1.6490 H   0  0  0  0  0  0  0  0  0  0  0  0
    2.6863   -2.7526   -0.2822 H   0  0  0  0  0  0  0  0  0  0  0  0
    1.6537   -2.1028   -1.5821 H   0  0  0  0  0  0  0  0  0  0  0  0
    0.3004   -0.8517    1.1553 H   0  0  0  0  0  0  0  0  0  0  0  0
   -1.3201   -3.2596    1.8184 H   0  0  0  0  0  0  0  0  0  0  0  0
   -1.3265   -1.6969    2.6373 H   0  0  0  0  0  0  0  0  0  0  0  0
   -2.6073   -3.5948   -0.2884 H   0  0  0  0  0  0  0  0  0  0  0  0
   -4.5236   -2.7889   -1.6551 H   0  0  0  0  0  0  0  0  0  0  0  0
   -3.4647    2.2150    1.7702 H   0  0  0  0  0  0  0  0  0  0  0  0
   -5.1757    4.2843    1.2012 H   0  0  0  0  0  0  0  0  0  0  0  0
   -6.1655    1.0795   -1.2764 H   0  0  0  0  0  0  0  0  0  0  0  0
   -2.5531    0.2358    1.6664 H   0  0  0  0  0  0  0  0  0  0  0  0
    3.8708   -1.9046   -2.2225 H   0  0  0  0  0  0  0  0  0  0  0  0
    5.7213   -0.9096   -3.4822 H   0  0  0  0  0  0  0  0  0  0  0  0
    6.4607    1.4092   -3.0126 H   0  0  0  0  0  0  0  0  0  0  0  0
    5.3330    2.7351   -1.2499 H   0  0  0  0  0  0  0  0  0  0  0  0
  1  2  1  0
  2  3  1  0
  3  4  2  0
  4  5  1  0
  5  6  1  0
  6  7  2  0
  6  8  1  0
  8  9  1  0
  9 10  1  0
 10 11  2  0
 11 12  1  0
 12 13  2  0
 13 14  1  0
 14 15  1  0
 15 16  1  0
 16 17  2  0
 17 18  1  0
 18 19  2  0
 14 20  2  0
  4 21  1  0
 21 22  2  0
 22 23  1  0
 23 24  2  0
 24 25  1  0
 25 26  2  0
 26 27  1  0
 27 28  2  0
 27  2  1  0
 20 10  1  0
 26 21  1  0
 19 15  1  0
  1 29  1  0
  1 30  1  0
  1 31  1  0
  5 32  1  0
  5 33  1  0
  8 34  1  0
  9 35  1  0
  9 36  1  0
 11 37  1  0
 12 38  1  0
 16 39  1  0
 17 40  1  0
 19 41  1  0
 20 42  1  0
 22 43  1  0
 23 44  1  0
 24 45  1  0
 25 46  1  0
M  END
$$$$
OCNT-2310560
     RDKit          3D

 46 48  0  0  0  0  0  0  0  0999 V2000
   -2.0356    0.9200    1.4272 C   0  0  0  0  0  0  0  0  0  0  0  0
   -2.3110   -0.4866    0.8625 C   0  0  0  0  0  0  0  0  0  0  0  0
   -2.9714   -0.3594   -0.5528 C   0  0  0  0  0  0  0  0  0  0  0  0
   -2.0378   -0.2161   -1.7687 C   0  0  0  0  0  0  0  0  0  0  0  0
   -1.1816    1.0390   -1.8200 C   0  0  0  0  0  0  0  0  0  0  0  0
   -1.9864    2.2055   -1.7023 O   0  0  0  0  0  0  0  0  0  0  0  0
   -3.3057   -1.1913    1.8162 C   0  0  0  0  0  0  0  0  0  0  0  0
   -3.0326   -2.6821    1.6751 C   0  0  0  0  0  0  0  0  0  0  0  0
   -1.7966   -2.7825    0.7995 C   0  0  0  0  0  0  0  0  0  0  0  0
   -1.1777   -1.4467    0.7984 N   0  0  0  0  0  0  0  0  0  0  0  0
   -0.1644   -1.3414    1.8621 C   0  0  0  0  0  0  0  0  0  0  0  0
    0.8971   -0.3544    1.4939 C   0  0  0  0  0  0  0  0  0  0  0  0
    1.3261    0.7537    2.1892 C   0  0  0  0  0  0  0  0  0  0  0  0
    2.3253    1.3464    1.4809 O   0  0  0  0  0  0  0  0  0  0  0  0
    2.4690    0.5537    0.3725 C   0  0  0  0  0  0  0  0  0  0  0  0
    3.4781    0.9551   -0.6030 C   0  0  0  0  0  0  0  0  0  0  0  0
    3.6658    0.1792   -1.7624 C   0  0  0  0  0  0  0  0  0  0  0  0
    4.6218    0.5349   -2.7187 C   0  0  0  0  0  0  0  0  0  0  0  0
    5.3957    1.6710   -2.5192 C   0  0  0  0  0  0  0  0  0  0  0  0
    6.3124    2.0120   -3.4350 F   0  0  0  0  0  0  0  0  0  0  0  0
    5.2208    2.4466   -1.3800 C   0  0  0  0  0  0  0  0  0  0  0  0
    5.9695    3.5420   -1.1907 F   0  0  0  0  0  0  0  0  0  0  0  0
    4.2704    2.0986   -0.4233 C   0  0  0  0  0  0  0  0  0  0  0  0
    1.6575   -0.4850    0.3460 N   0  0  0  0  0  0  0  0  0  0  0  0
   -1.2675    1.4591    0.8727 H   0  0  0  0  0  0  0  0  0  0  0  0
   -2.9454    1.5317    1.3984 H   0  0  0  0  0  0  0  0  0  0  0  0
   -1.7209    0.8891    2.4759 H   0  0  0  0  0  0  0  0  0  0  0  0
   -3.6847    0.4756   -0.5484 H   0  0  0  0  0  0  0  0  0  0  0  0
   -3.5878   -1.2485   -0.7468 H   0  0  0  0  0  0  0  0  0  0  0  0
   -2.6815   -0.2182   -2.6585 H   0  0  0  0  0  0  0  0  0  0  0  0
   -1.3928   -1.0971   -1.8602 H   0  0  0  0  0  0  0  0  0  0  0  0
   -0.6472    1.0908   -2.7747 H   0  0  0  0  0  0  0  0  0  0  0  0
   -0.4256    1.0480   -1.0336 H   0  0  0  0  0  0  0  0  0  0  0  0
   -2.6027    2.2050   -2.4542 H   0  0  0  0  0  0  0  0  0  0  0  0
   -4.3504   -0.9533    1.5865 H   0  0  0  0  0  0  0  0  0  0  0  0
   -3.1332   -0.9045    2.8615 H   0  0  0  0  0  0  0  0  0  0  0  0
   -3.8817   -3.2022    1.2196 H   0  0  0  0  0  0  0  0  0  0  0  0
   -2.8545   -3.1253    2.6612 H   0  0  0  0  0  0  0  0  0  0  0  0
   -2.0923   -3.0366   -0.2259 H   0  0  0  0  0  0  0  0  0  0  0  0
   -1.1282   -3.5894    1.1201 H   0  0  0  0  0  0  0  0  0  0  0  0
    0.3644   -2.2970    1.9793 H   0  0  0  0  0  0  0  0  0  0  0  0
   -0.6056   -1.1188    2.8404 H   0  0  0  0  0  0  0  0  0  0  0  0
    1.0467    1.2284    3.1177 H   0  0  0  0  0  0  0  0  0  0  0  0
    3.0589   -0.7124   -1.9213 H   0  0  0  0  0  0  0  0  0  0  0  0
    4.7639   -0.0660   -3.6114 H   0  0  0  0  0  0  0  0  0  0  0  0
    4.1595    2.7294    0.4544 H   0  0  0  0  0  0  0  0  0  0  0  0
  1  2  1  0
  2  3  1  0
  3  4  1  0
  4  5  1  0
  5  6  1  0
  2  7  1  0
  7  8  1  0
  8  9  1  0
  9 10  1  0
 10 11  1  0
 11 12  1  0
 12 13  2  0
 13 14  1  0
 14 15  1  0
 15 16  1  0
 16 17  1  0
 17 18  2  0
 18 19  1  0
 19 20  1  0
 19 21  2  0
 21 22  1  0
 21 23  1  0
 15 24  2  0
 10  2  1  0
 24 12  1  0
 23 16  2  0
  1 25  1  0
  1 26  1  0
  1 27  1  0
  3 28  1  0
  3 29  1  0
  4 30  1  0
  4 31  1  0
  5 32  1  0
  5 33  1  0
  6 34  1  0
  7 35  1  0
  7 36  1  0
  8 37  1  0
  8 38  1  0
  9 39  1  0
  9 40  1  0
 11 41  1  0
 11 42  1  0
 13 43  1  0
 17 44  1  0
 18 45  1  0
 23 46  1  0
M  END
$$$$
OCNT-2310562
     RDKit          3D

 55 58  0  0  0  0  0  0  0  0999 V2000
   -1.7241    0.7112   -2.4908 C   0  0  0  0  0  0  0  0  0  0  0  0
   -0.5683    1.3588   -1.7385 C   0  0  0  0  0  0  0  0  0  0  0  0
    0.2653    0.4491   -0.7906 C   0  0  0  0  0  0  0  0  0  0  0  0
   -0.5926    0.0762    0.4420 C   0  0  0  0  0  0  0  0  0  0  0  0
   -0.4988    0.6811    1.5085 O   0  0  0  0  0  0  0  0  0  0  0  0
   -1.4997   -0.9411    0.2625 N   0  0  0  0  0  0  0  0  0  0  0  0
   -2.4628   -1.2932    1.2834 C   0  0  0  0  0  0  0  0  0  0  0  0
   -3.8060   -0.6792    0.9728 C   0  0  0  0  0  0  0  0  0  0  0  0
   -4.0547    0.6634    1.3076 C   0  0  0  0  0  0  0  0  0  0  0  0
   -5.2734    1.2824    1.0078 C   0  0  0  0  0  0  0  0  0  0  0  0
   -6.2218    0.5003    0.3563 C   0  0  0  0  0  0  0  0  0  0  0  0
   -7.4629    0.9134   -0.0234 O   0  0  0  0  0  0  0  0  0  0  0  0
   -8.0656   -0.1458   -0.6237 C   0  0  0  0  0  0  0  0  0  0  0  0
   -7.2275   -1.2372   -0.6375 C   0  0  0  0  0  0  0  0  0  0  0  0
   -6.0253   -0.8278   -0.0022 C   0  0  0  0  0  0  0  0  0  0  0  0
   -4.7935   -1.4335    0.3068 C   0  0  0  0  0  0  0  0  0  0  0  0
    0.8220   -0.7908   -1.5243 C   0  0  0  0  0  0  0  0  0  0  0  0
    1.8140   -1.5786   -0.6706 C   0  0  0  0  0  0  0  0  0  0  0  0
    2.8969   -0.7377   -0.1786 N   0  0  0  0  0  0  0  0  0  0  0  0
    4.0806   -1.4043    0.1711 C   0  0  0  0  0  0  0  0  0  0  0  0
    4.2237   -2.6221    0.0825 O   0  0  0  0  0  0  0  0  0  0  0  0
    5.2385   -0.6088    0.6402 C   0  0  0  0  0  0  0  0  0  0  0  0
    5.7086    0.4762   -0.1090 C   0  0  0  0  0  0  0  0  0  0  0  0
    6.8193    1.1941    0.3357 C   0  0  0  0  0  0  0  0  0  0  0  0
    7.4658    0.8188    1.5149 C   0  0  0  0  0  0  0  0  0  0  0  0
    7.0112   -0.2793    2.2477 C   0  0  0  0  0  0  0  0  0  0  0  0
    5.9012   -1.0007    1.8073 C   0  0  0  0  0  0  0  0  0  0  0  0
    2.4726    0.4748    0.5244 C   0  0  0  0  0  0  0  0  0  0  0  0
    1.4833    1.2894   -0.3076 C   0  0  0  0  0  0  0  0  0  0  0  0
   -1.3992   -0.1524   -3.0768 H   0  0  0  0  0  0  0  0  0  0  0  0
   -2.1574    1.4354   -3.1894 H   0  0  0  0  0  0  0  0  0  0  0  0
   -2.5264    0.4033   -1.8166 H   0  0  0  0  0  0  0  0  0  0  0  0
   -0.9719    2.2039   -1.1649 H   0  0  0  0  0  0  0  0  0  0  0  0
    0.1017    1.7940   -2.4919 H   0  0  0  0  0  0  0  0  0  0  0  0
   -1.6874   -1.2844   -0.6674 H   0  0  0  0  0  0  0  0  0  0  0  0
   -2.1200   -0.9803    2.2758 H   0  0  0  0  0  0  0  0  0  0  0  0
   -2.5364   -2.3862    1.2959 H   0  0  0  0  0  0  0  0  0  0  0  0
   -3.2807    1.2456    1.8092 H   0  0  0  0  0  0  0  0  0  0  0  0
   -5.4720    2.3158    1.2637 H   0  0  0  0  0  0  0  0  0  0  0  0
   -9.0703    0.0321   -0.9812 H   0  0  0  0  0  0  0  0  0  0  0  0
   -7.4555   -2.2080   -1.0530 H   0  0  0  0  0  0  0  0  0  0  0  0
   -4.6145   -2.4693    0.0331 H   0  0  0  0  0  0  0  0  0  0  0  0
    1.3354   -0.4619   -2.4383 H   0  0  0  0  0  0  0  0  0  0  0  0
    0.0284   -1.4715   -1.8483 H   0  0  0  0  0  0  0  0  0  0  0  0
    1.3204   -2.0357    0.1953 H   0  0  0  0  0  0  0  0  0  0  0  0
    2.2267   -2.3954   -1.2743 H   0  0  0  0  0  0  0  0  0  0  0  0
    5.2174    0.7559   -1.0372 H   0  0  0  0  0  0  0  0  0  0  0  0
    7.1869    2.0399   -0.2397 H   0  0  0  0  0  0  0  0  0  0  0  0
    8.3340    1.3764    1.8582 H   0  0  0  0  0  0  0  0  0  0  0  0
    7.5266   -0.5781    3.1571 H   0  0  0  0  0  0  0  0  0  0  0  0
    5.5549   -1.8664    2.3669 H   0  0  0  0  0  0  0  0  0  0  0  0
    2.0346    0.1587    1.4781 H   0  0  0  0  0  0  0  0  0  0  0  0
    3.3251    1.1077    0.7788 H   0  0  0  0  0  0  0  0  0  0  0  0
    2.0193    1.6847   -1.1815 H   0  0  0  0  0  0  0  0  0  0  0  0
    1.1545    2.1600    0.2737 H   0  0  0  0  0  0  0  0  0  0  0  0
  1  2  1  0
  2  3  1  0
  3  4  1  0
  4  5  2  0
  4  6  1  0
  6  7  1  0
  7  8  1  0
  8  9  2  0
  9 10  1  0
 10 11  2  0
 11 12  1  0
 12 13  1  0
 13 14  2  0
 14 15  1  0
 15 16  2  0
  3 17  1  0
 17 18  1  0
 18 19  1  0
 19 20  1  0
 20 21  2  0
 20 22  1  0
 22 23  2  0
 23 24  1  0
 24 25  2  0
 25 26  1  0
 26 27  2  0
 19 28  1  0
 28 29  1  0
 29  3  1  0
 16  8  1  0
 27 22  1  0
 15 11  1  0
  1 30  1  0
  1 31  1  0
  1 32  1  0
  2 33  1  0
  2 34  1  0
  6 35  1  0
  7 36  1  0
  7 37  1  0
  9 38  1  0
 10 39  1  0
 13 40  1  0
 14 41  1  0
 16 42  1  0
 17 43  1  0
 17 44  1  0
 18 45  1  0
 18 46  1  0
 23 47  1  0
 24 48  1  0
 25 49  1  0
 26 50  1  0
 27 51  1  0
 28 52  1  0
 28 53  1  0
 29 54  1  0
 29 55  1  0
M  END
$$$$
OCNT-2310580
     RDKit          3D

 50 53  0  0  0  0  0  0  0  0999 V2000
   -7.7243    0.4097   -0.8397 O   0  0  0  0  0  0  0  0  0  0  0  0
   -6.6687    0.7280    0.0685 C   0  0  0  0  0  0  0  0  0  0  0  0
   -6.1690   -0.5550    0.7249 C   0  0  0  0  0  0  0  0  0  0  0  0
   -4.7547   -0.3880    1.2664 C   0  0  0  0  0  0  0  0  0  0  0  0
   -3.8295    0.0033    0.1966 N   0  0  0  0  0  0  0  0  0  0  0  0
   -2.5112   -0.4384    0.2379 C   0  0  0  0  0  0  0  0  0  0  0  0
   -1.7605   -0.6728   -0.9243 C   0  0  0  0  0  0  0  0  0  0  0  0
   -0.4298   -1.1116   -0.8755 C   0  0  0  0  0  0  0  0  0  0  0  0
    0.2041   -1.3273    0.3500 C   0  0  0  0  0  0  0  0  0  0  0  0
    1.6425   -1.7800    0.4105 C   0  0  0  0  0  0  0  0  0  0  0  0
    2.5705   -0.7241    0.8090 N   0  0  0  0  0  0  0  0  0  0  0  0
    2.7655    0.2732   -0.2375 C   0  0  0  0  0  0  0  0  0  0  0  0
    3.7880    1.2449    0.2401 C   0  0  0  0  0  0  0  0  0  0  0  0
    3.5212    2.4604    0.8451 C   0  0  0  0  0  0  0  0  0  0  0  0
    4.7236    3.0353    1.1068 N   0  0  0  0  0  0  0  0  0  0  0  0
    5.7661    2.2980    0.7127 N   0  0  0  0  0  0  0  0  0  0  0  0
    5.2140    1.1882    0.1930 C   0  0  0  0  0  0  0  0  0  0  0  0
    6.1551    0.0437   -0.3662 C   0  0  0  0  0  0  0  0  0  0  0  0
    7.5336    0.1438   -0.3488 C   0  0  0  0  0  0  0  0  0  0  0  0
    8.1735   -1.0042   -0.9005 C   0  0  0  0  0  0  0  0  0  0  0  0
    7.2602   -1.9447   -1.3195 C   0  0  0  0  0  0  0  0  0  0  0  0
    5.6509   -1.4366   -1.0455 S   0  0  0  0  0  0  0  0  0  0  0  0
   -0.5215   -1.0927    1.5203 C   0  0  0  0  0  0  0  0  0  0  0  0
   -1.8518   -0.6567    1.4588 C   0  0  0  0  0  0  0  0  0  0  0  0
   -4.3963    0.5777   -1.0291 C   0  0  0  0  0  0  0  0  0  0  0  0
   -5.5754    1.4833   -0.6838 C   0  0  0  0  0  0  0  0  0  0  0  0
   -8.4237   -0.0388   -0.3335 H   0  0  0  0  0  0  0  0  0  0  0  0
   -7.0958    1.3962    0.8256 H   0  0  0  0  0  0  0  0  0  0  0  0
   -6.1962   -1.3823    0.0029 H   0  0  0  0  0  0  0  0  0  0  0  0
   -6.8531   -0.8452    1.5314 H   0  0  0  0  0  0  0  0  0  0  0  0
   -4.7404    0.3740    2.0549 H   0  0  0  0  0  0  0  0  0  0  0  0
   -4.4612   -1.3440    1.7176 H   0  0  0  0  0  0  0  0  0  0  0  0
   -2.2057   -0.5410   -1.9063 H   0  0  0  0  0  0  0  0  0  0  0  0
    0.1027   -1.2827   -1.8083 H   0  0  0  0  0  0  0  0  0  0  0  0
    1.7125   -2.5939    1.1431 H   0  0  0  0  0  0  0  0  0  0  0  0
    1.9513   -2.2267   -0.5431 H   0  0  0  0  0  0  0  0  0  0  0  0
    2.2217   -0.2623    1.6460 H   0  0  0  0  0  0  0  0  0  0  0  0
    1.8320    0.8126   -0.4394 H   0  0  0  0  0  0  0  0  0  0  0  0
    3.0772   -0.1797   -1.1831 H   0  0  0  0  0  0  0  0  0  0  0  0
    2.5922    2.9492    1.1017 H   0  0  0  0  0  0  0  0  0  0  0  0
    4.9088    3.9305    1.5468 H   0  0  0  0  0  0  0  0  0  0  0  0
    8.0573    1.0069    0.0454 H   0  0  0  0  0  0  0  0  0  0  0  0
    9.2457   -1.1310   -0.9821 H   0  0  0  0  0  0  0  0  0  0  0  0
    7.4580   -2.9065   -1.7717 H   0  0  0  0  0  0  0  0  0  0  0  0
   -0.0583   -1.2431    2.4928 H   0  0  0  0  0  0  0  0  0  0  0  0
   -2.3620   -0.4641    2.3987 H   0  0  0  0  0  0  0  0  0  0  0  0
   -4.7097   -0.2207   -1.7126 H   0  0  0  0  0  0  0  0  0  0  0  0
   -3.6531    1.1954   -1.5480 H   0  0  0  0  0  0  0  0  0  0  0  0
   -5.2063    2.2960   -0.0442 H   0  0  0  0  0  0  0  0  0  0  0  0
   -5.9700    1.9440   -1.5967 H   0  0  0  0  0  0  0  0  0  0  0  0
  1  2  1  0
  2  3  1  0
  3  4  1  0
  4  5  1  0
  5  6  1  0
  6  7  1  0
  7  8  2  0
  8  9  1  0
  9 10  1  0
 10 11  1  0
 11 12  1  0
 12 13  1  0
 13 14  2  0
 14 15  1  0
 15 16  1  0
 16 17  2  0
 17 18  1  0
 18 19  2  0
 19 20  1  0
 20 21  2  0
 21 22  1  0
  9 23  2  0
 23 24  1  0
  5 25  1  0
 25 26  1  0
 26  2  1  0
 24  6  2  0
 17 13  1  0
 22 18  1  0
  1 27  1  0
  2 28  1  0
  3 29  1  0
  3 30  1  0
  4 31  1  0
  4 32  1  0
  7 33  1  0
  8 34  1  0
 10 35  1  0
 10 36  1  0
 11 37  1  0
 12 38  1  0
 12 39  1  0
 14 40  1  0
 15 41  1  0
 19 42  1  0
 20 43  1  0
 21 44  1  0
 23 45  1  0
 24 46  1  0
 25 47  1  0
 25 48  1  0
 26 49  1  0
 26 50  1  0
M  END
$$$$
OCNT-2310581
     RDKit          3D

 39 41  0  0  0  0  0  0  0  0999 V2000
    4.6042   -2.0004   -1.8691 C   0  0  0  0  0  0  0  0  0  0  0  0
    4.2422   -1.3075   -0.6173 C   0  0  0  0  0  0  0  0  0  0  0  0
    4.6881   -1.4018    0.6811 C   0  0  0  0  0  0  0  0  0  0  0  0
    3.9398   -0.4597    1.4415 C   0  0  0  0  0  0  0  0  0  0  0  0
    4.0567   -0.1904    2.8963 C   0  0  0  0  0  0  0  0  0  0  0  0
    3.0765    0.1559    0.5457 C   0  0  0  0  0  0  0  0  0  0  0  0
    2.0744    1.1897    0.7284 C   0  0  0  0  0  0  0  0  0  0  0  0
    1.8159    1.7109    1.8103 O   0  0  0  0  0  0  0  0  0  0  0  0
    1.4192    1.5363   -0.4333 N   0  0  0  0  0  0  0  0  0  0  0  0
    0.2977    2.4383   -0.4529 C   0  0  0  0  0  0  0  0  0  0  0  0
   -1.0022    1.6772   -0.4370 C   0  0  0  0  0  0  0  0  0  0  0  0
   -1.6691    1.3636   -1.6254 C   0  0  0  0  0  0  0  0  0  0  0  0
   -2.8653    0.6335   -1.6047 C   0  0  0  0  0  0  0  0  0  0  0  0
   -3.4185    0.1931   -0.3899 C   0  0  0  0  0  0  0  0  0  0  0  0
   -4.6364   -0.5496   -0.3817 N   0  0  0  0  0  0  0  0  0  0  0  0
   -5.3217   -1.0613    0.7003 C   0  0  0  0  0  0  0  0  0  0  0  0
   -6.4331   -1.6947    0.1977 C   0  0  0  0  0  0  0  0  0  0  0  0
   -6.4702   -1.5987   -1.1603 N   0  0  0  0  0  0  0  0  0  0  0  0
   -5.3936   -0.9145   -1.4794 C   0  0  0  0  0  0  0  0  0  0  0  0
   -2.7378    0.5034    0.7933 C   0  0  0  0  0  0  0  0  0  0  0  0
   -3.1852    0.1215    1.9966 F   0  0  0  0  0  0  0  0  0  0  0  0
   -1.5466    1.2315    0.7720 C   0  0  0  0  0  0  0  0  0  0  0  0
    3.2650   -0.3661   -0.7097 O   0  0  0  0  0  0  0  0  0  0  0  0
    5.3949   -2.7370   -1.6962 H   0  0  0  0  0  0  0  0  0  0  0  0
    4.9632   -1.2831   -2.6135 H   0  0  0  0  0  0  0  0  0  0  0  0
    3.7359   -2.5227   -2.2822 H   0  0  0  0  0  0  0  0  0  0  0  0
    5.4595   -2.0693    1.0411 H   0  0  0  0  0  0  0  0  0  0  0  0
    4.3302    0.8546    3.0735 H   0  0  0  0  0  0  0  0  0  0  0  0
    4.8250   -0.8220    3.3538 H   0  0  0  0  0  0  0  0  0  0  0  0
    3.1077   -0.3940    3.4026 H   0  0  0  0  0  0  0  0  0  0  0  0
    1.6296    0.9806   -1.2538 H   0  0  0  0  0  0  0  0  0  0  0  0
    0.3765    3.0391   -1.3656 H   0  0  0  0  0  0  0  0  0  0  0  0
    0.3422    3.1313    0.3949 H   0  0  0  0  0  0  0  0  0  0  0  0
   -1.2628    1.6851   -2.5832 H   0  0  0  0  0  0  0  0  0  0  0  0
   -3.3300    0.4294   -2.5648 H   0  0  0  0  0  0  0  0  0  0  0  0
   -4.9934   -0.9504    1.7214 H   0  0  0  0  0  0  0  0  0  0  0  0
   -7.2058   -2.2139    0.7501 H   0  0  0  0  0  0  0  0  0  0  0  0
   -5.1281   -0.6631   -2.4957 H   0  0  0  0  0  0  0  0  0  0  0  0
   -1.0445    1.4416    1.7148 H   0  0  0  0  0  0  0  0  0  0  0  0
  1  2  1  0
  2  3  2  0
  3  4  1  0
  4  5  1  0
  4  6  2  0
  6  7  1  0
  7  8  2  0
  7  9  1  0
  9 10  1  0
 10 11  1  0
 11 12  1  0
 12 13  2  0
 13 14  1  0
 14 15  1  0
 15 16  1  0
 16 17  2  0
 17 18  1  0
 18 19  2  0
 14 20  2  0
 20 21  1  0
 20 22  1  0
  6 23  1  0
 23  2  1  0
 22 11  2  0
 19 15  1  0
  1 24  1  0
  1 25  1  0
  1 26  1  0
  3 27  1  0
  5 28  1  0
  5 29  1  0
  5 30  1  0
  9 31  1  0
 10 32  1  0
 10 33  1  0
 12 34  1  0
 13 35  1  0
 16 36  1  0
 17 37  1  0
 19 38  1  0
 22 39  1  0
M  END
$$$$
OCNT-2310583
     RDKit          3D

 44 45  0  0  0  0  0  0  0  0999 V2000
    4.1543    0.2242   -1.7985 C   0  0  0  0  0  0  0  0  0  0  0  0
    3.3622   -0.6642   -0.8400 C   0  0  0  0  0  0  0  0  0  0  0  0
    4.3042   -1.6734   -0.1772 C   0  0  0  0  0  0  0  0  0  0  0  0
    2.6136    0.1400    0.2436 C   0  0  0  0  0  0  0  0  0  0  0  0
    1.5335    1.0964   -0.3165 C   0  0  0  0  0  0  0  0  0  0  0  0
    2.0091    2.5653   -0.3623 C   0  0  0  0  0  0  0  0  0  0  0  0
    2.2465    3.1473    0.9259 O   0  0  0  0  0  0  0  0  0  0  0  0
    1.3593    2.6832    1.9481 C   0  0  0  0  0  0  0  0  0  0  0  0
    0.0482    2.0934    1.4225 C   0  0  0  0  0  0  0  0  0  0  0  0
    0.2940    0.9872    0.4893 N   0  0  0  0  0  0  0  0  0  0  0  0
   -0.6392    0.0295    0.1119 C   0  0  0  0  0  0  0  0  0  0  0  0
   -0.4318   -0.7519   -0.8123 O   0  0  0  0  0  0  0  0  0  0  0  0
   -1.7946    0.0170    0.8544 N   0  0  0  0  0  0  0  0  0  0  0  0
   -2.9265   -0.7082    0.5118 C   0  0  0  0  0  0  0  0  0  0  0  0
   -3.8334   -1.1160    1.4649 C   0  0  0  0  0  0  0  0  0  0  0  0
   -4.7951   -1.8131    0.8034 N   0  0  0  0  0  0  0  0  0  0  0  0
   -5.9438   -2.4714    1.3781 C   0  0  0  0  0  0  0  0  0  0  0  0
   -4.6148   -1.8487   -0.5224 N   0  0  0  0  0  0  0  0  0  0  0  0
   -3.4708   -1.1541   -0.7357 C   0  0  0  0  0  0  0  0  0  0  0  0
   -2.9880   -0.8852   -2.1414 C   0  0  0  0  0  0  0  0  0  0  0  0
   -4.0237   -0.8556   -3.0350 F   0  0  0  0  0  0  0  0  0  0  0  0
   -2.3820    0.3289   -2.2710 F   0  0  0  0  0  0  0  0  0  0  0  0
   -2.1302   -1.8314   -2.6061 F   0  0  0  0  0  0  0  0  0  0  0  0
    3.4907    0.8624   -2.3895 H   0  0  0  0  0  0  0  0  0  0  0  0
    4.7296   -0.3833   -2.5056 H   0  0  0  0  0  0  0  0  0  0  0  0
    4.8569    0.8661   -1.2565 H   0  0  0  0  0  0  0  0  0  0  0  0
    2.6268   -1.2306   -1.4256 H   0  0  0  0  0  0  0  0  0  0  0  0
    3.7492   -2.3514    0.4798 H   0  0  0  0  0  0  0  0  0  0  0  0
    4.8132   -2.2842   -0.9304 H   0  0  0  0  0  0  0  0  0  0  0  0
    5.0686   -1.1685    0.4233 H   0  0  0  0  0  0  0  0  0  0  0  0
    2.1423   -0.5821    0.9241 H   0  0  0  0  0  0  0  0  0  0  0  0
    3.3395    0.6936    0.8523 H   0  0  0  0  0  0  0  0  0  0  0  0
    1.2881    0.8008   -1.3438 H   0  0  0  0  0  0  0  0  0  0  0  0
    2.9330    2.6651   -0.9389 H   0  0  0  0  0  0  0  0  0  0  0  0
    1.2554    3.1837   -0.8653 H   0  0  0  0  0  0  0  0  0  0  0  0
    1.8996    1.9334    2.5371 H   0  0  0  0  0  0  0  0  0  0  0  0
    1.1526    3.5276    2.6134 H   0  0  0  0  0  0  0  0  0  0  0  0
   -0.5638    1.7629    2.2648 H   0  0  0  0  0  0  0  0  0  0  0  0
   -0.5182    2.8515    0.8690 H   0  0  0  0  0  0  0  0  0  0  0  0
   -1.6840    0.2056    1.8378 H   0  0  0  0  0  0  0  0  0  0  0  0
   -3.8600   -0.9955    2.5384 H   0  0  0  0  0  0  0  0  0  0  0  0
   -5.9316   -2.3428    2.4632 H   0  0  0  0  0  0  0  0  0  0  0  0
   -6.8459   -2.0192    0.9585 H   0  0  0  0  0  0  0  0  0  0  0  0
   -5.8928   -3.5340    1.1277 H   0  0  0  0  0  0  0  0  0  0  0  0
  1  2  1  0
  2  3  1  0
  2  4  1  0
  4  5  1  0
  5  6  1  0
  6  7  1  0
  7  8  1  0
  8  9  1  0
  9 10  1  0
 10 11  1  0
 11 12  2  0
 11 13  1  0
 13 14  1  0
 14 15  2  0
 15 16  1  0
 16 17  1  0
 16 18  1  0
 18 19  2  0
 19 20  1  0
 20 21  1  0
 20 22  1  0
 20 23  1  0
 10  5  1  0
 19 14  1  0
  1 24  1  0
  1 25  1  0
  1 26  1  0
  2 27  1  0
  3 28  1  0
  3 29  1  0
  3 30  1  0
  4 31  1  0
  4 32  1  0
  5 33  1  0
  6 34  1  0
  6 35  1  0
  8 36  1  0
  8 37  1  0
  9 38  1  0
  9 39  1  0
 13 40  1  0
 15 41  1  0
 17 42  1  0
 17 43  1  0
 17 44  1  0
M  END
$$$$
OCNT-2310598
     RDKit          3D

 43 46  0  0  0  0  0  0  0  0999 V2000
   -7.2445   -0.2042   -0.4505 C   0  0  0  0  0  0  0  0  0  0  0  0
   -6.4639   -1.2059   -1.0244 C   0  0  0  0  0  0  0  0  0  0  0  0
   -5.0752   -1.0732   -1.0654 C   0  0  0  0  0  0  0  0  0  0  0  0
   -4.4554    0.0665   -0.5355 C   0  0  0  0  0  0  0  0  0  0  0  0
   -2.9504    0.2020   -0.5615 C   0  0  0  0  0  0  0  0  0  0  0  0
   -2.3081   -0.4043    0.6998 C   0  0  0  0  0  0  0  0  0  0  0  0
   -0.8428   -0.3431    0.8127 N   0  0  0  0  0  0  0  0  0  0  0  0
   -0.1449   -1.0900   -0.2496 C   0  0  0  0  0  0  0  0  0  0  0  0
    1.3858   -1.1083   -0.0415 C   0  0  0  0  0  0  0  0  0  0  0  0
    1.9282    0.2612    0.0947 N   0  0  0  0  0  0  0  0  0  0  0  0
    3.2939    0.3671   -0.0028 C   0  0  0  0  0  0  0  0  0  0  0  0
    4.0636   -0.6281   -0.4031 N   0  0  0  0  0  0  0  0  0  0  0  0
    5.3893   -0.2442   -0.4302 C   0  0  0  0  0  0  0  0  0  0  0  0
    6.5029   -1.0213   -0.7908 C   0  0  0  0  0  0  0  0  0  0  0  0
    7.7616   -0.4223   -0.7443 C   0  0  0  0  0  0  0  0  0  0  0  0
    7.8575    0.9043   -0.3472 C   0  0  0  0  0  0  0  0  0  0  0  0
    6.8221    1.6967    0.0091 N   0  0  0  0  0  0  0  0  0  0  0  0
    5.6274    1.0698   -0.0537 C   0  0  0  0  0  0  0  0  0  0  0  0
    4.1648    1.8350    0.3356 S   0  0  0  0  0  0  0  0  0  0  0  0
    1.2108    1.0729    1.0976 C   0  0  0  0  0  0  0  0  0  0  0  0
   -0.3184    1.0327    0.8647 C   0  0  0  0  0  0  0  0  0  0  0  0
   -5.2489    1.0655    0.0443 C   0  0  0  0  0  0  0  0  0  0  0  0
   -6.6375    0.9306    0.0842 C   0  0  0  0  0  0  0  0  0  0  0  0
   -8.3258   -0.3084   -0.4188 H   0  0  0  0  0  0  0  0  0  0  0  0
   -6.9370   -2.0920   -1.4394 H   0  0  0  0  0  0  0  0  0  0  0  0
   -4.4796   -1.8654   -1.5136 H   0  0  0  0  0  0  0  0  0  0  0  0
   -2.6957    1.2640   -0.6573 H   0  0  0  0  0  0  0  0  0  0  0  0
   -2.5702   -0.2861   -1.4664 H   0  0  0  0  0  0  0  0  0  0  0  0
   -2.7361    0.0793    1.5885 H   0  0  0  0  0  0  0  0  0  0  0  0
   -2.6099   -1.4571    0.7855 H   0  0  0  0  0  0  0  0  0  0  0  0
   -0.3544   -0.6521   -1.2335 H   0  0  0  0  0  0  0  0  0  0  0  0
   -0.4997   -2.1273   -0.2676 H   0  0  0  0  0  0  0  0  0  0  0  0
    1.6299   -1.6922    0.8558 H   0  0  0  0  0  0  0  0  0  0  0  0
    1.8284   -1.6183   -0.9064 H   0  0  0  0  0  0  0  0  0  0  0  0
    6.3756   -2.0541   -1.0944 H   0  0  0  0  0  0  0  0  0  0  0  0
    8.6510   -0.9823   -1.0137 H   0  0  0  0  0  0  0  0  0  0  0  0
    8.8302    1.3906   -0.3042 H   0  0  0  0  0  0  0  0  0  0  0  0
    1.4411    0.7007    2.1044 H   0  0  0  0  0  0  0  0  0  0  0  0
    1.5103    2.1256    1.0509 H   0  0  0  0  0  0  0  0  0  0  0  0
   -0.8019    1.5826    1.6809 H   0  0  0  0  0  0  0  0  0  0  0  0
   -0.5382    1.5667   -0.0682 H   0  0  0  0  0  0  0  0  0  0  0  0
   -4.7900    1.9555    0.4690 H   0  0  0  0  0  0  0  0  0  0  0  0
   -7.2460    1.7109    0.5337 H   0  0  0  0  0  0  0  0  0  0  0  0
  1  2  2  0
  2  3  1  0
  3  4  2  0
  4  5  1  0
  5  6  1  0
  6  7  1  0
  7  8  1  0
  8  9  1  0
  9 10  1  0
 10 11  1  0
 11 12  2  0
 12 13  1  0
 13 14  1  0
 14 15  2  0
 15 16  1  0
 16 17  2  0
 17 18  1  0
 18 19  1  0
 10 20  1  0
 20 21  1  0
  4 22  1  0
 22 23  2  0
 23  1  1  0
 21  7  1  0
 19 11  1  0
 18 13  2  0
  1 24  1  0
  2 25  1  0
  3 26  1  0
  5 27  1  0
  5 28  1  0
  6 29  1  0
  6 30  1  0
  8 31  1  0
  8 32  1  0
  9 33  1  0
  9 34  1  0
 14 35  1  0
 15 36  1  0
 16 37  1  0
 20 38  1  0
 20 39  1  0
 21 40  1  0
 21 41  1  0
 22 42  1  0
 23 43  1  0
M  END
$$$$
OCNT-2310605
     RDKit          3D

 39 41  0  0  0  0  0  0  0  0999 V2000
    2.8113   -1.1600   -2.0622 C   0  0  0  0  0  0  0  0  0  0  0  0
    2.6306   -0.7316   -0.7154 O   0  0  0  0  0  0  0  0  0  0  0  0
    3.3181    0.3849   -0.3073 C   0  0  0  0  0  0  0  0  0  0  0  0
    4.3943    0.9253   -1.0300 C   0  0  0  0  0  0  0  0  0  0  0  0
    5.0571    2.0662   -0.5729 C   0  0  0  0  0  0  0  0  0  0  0  0
    4.6510    2.6695    0.6072 C   0  0  0  0  0  0  0  0  0  0  0  0
    5.2890    3.7636    1.0410 F   0  0  0  0  0  0  0  0  0  0  0  0
    3.5975    2.1512    1.3452 C   0  0  0  0  0  0  0  0  0  0  0  0
    2.9238    0.9994    0.9034 C   0  0  0  0  0  0  0  0  0  0  0  0
    1.8024    0.5230    1.7765 C   0  0  0  0  0  0  0  0  0  0  0  0
    1.3684    1.2444    2.6702 O   0  0  0  0  0  0  0  0  0  0  0  0
    1.2998   -0.7341    1.5395 N   0  0  0  0  0  0  0  0  0  0  0  0
    0.1391   -1.2426    2.2288 C   0  0  0  0  0  0  0  0  0  0  0  0
   -1.1045   -1.0372    1.4145 C   0  0  0  0  0  0  0  0  0  0  0  0
   -1.6259   -2.0421    0.5979 C   0  0  0  0  0  0  0  0  0  0  0  0
   -2.7754   -1.8025   -0.1573 C   0  0  0  0  0  0  0  0  0  0  0  0
   -3.3759   -0.5484   -0.0804 C   0  0  0  0  0  0  0  0  0  0  0  0
   -4.5478   -0.2583   -0.8335 N   0  0  0  0  0  0  0  0  0  0  0  0
   -5.2224    0.9451   -0.8400 C   0  0  0  0  0  0  0  0  0  0  0  0
   -6.2807    0.7833   -1.6999 C   0  0  0  0  0  0  0  0  0  0  0  0
   -6.2873   -0.4784   -2.2276 N   0  0  0  0  0  0  0  0  0  0  0  0
   -5.2446   -1.0775   -1.6924 C   0  0  0  0  0  0  0  0  0  0  0  0
   -2.8801    0.4461    0.7000 N   0  0  0  0  0  0  0  0  0  0  0  0
   -1.7642    0.1851    1.4198 C   0  0  0  0  0  0  0  0  0  0  0  0
    2.6196   -0.3467   -2.7701 H   0  0  0  0  0  0  0  0  0  0  0  0
    3.8095   -1.5859   -2.2044 H   0  0  0  0  0  0  0  0  0  0  0  0
    2.0816   -1.9514   -2.2590 H   0  0  0  0  0  0  0  0  0  0  0  0
    4.7485    0.4782   -1.9537 H   0  0  0  0  0  0  0  0  0  0  0  0
    5.8884    2.4869   -1.1308 H   0  0  0  0  0  0  0  0  0  0  0  0
    3.3091    2.6499    2.2673 H   0  0  0  0  0  0  0  0  0  0  0  0
    1.6226   -1.2212    0.7104 H   0  0  0  0  0  0  0  0  0  0  0  0
    0.3084   -2.3110    2.4028 H   0  0  0  0  0  0  0  0  0  0  0  0
    0.0331   -0.7694    3.2115 H   0  0  0  0  0  0  0  0  0  0  0  0
   -1.1438   -3.0155    0.5453 H   0  0  0  0  0  0  0  0  0  0  0  0
   -3.1603   -2.6021   -0.7786 H   0  0  0  0  0  0  0  0  0  0  0  0
   -4.8914    1.7847   -0.2445 H   0  0  0  0  0  0  0  0  0  0  0  0
   -7.0372    1.5107   -1.9651 H   0  0  0  0  0  0  0  0  0  0  0  0
   -4.9623   -2.0992   -1.9008 H   0  0  0  0  0  0  0  0  0  0  0  0
   -1.3995    1.0179    2.0189 H   0  0  0  0  0  0  0  0  0  0  0  0
  1  2  1  0
  2  3  1  0
  3  4  1  0
  4  5  2  0
  5  6  1  0
  6  7  1  0
  6  8  2  0
  8  9  1  0
  9 10  1  0
 10 11  2  0
 10 12  1  0
 12 13  1  0
 13 14  1  0
 14 15  2  0
 15 16  1  0
 16 17  2  0
 17 18  1  0
 18 19  1  0
 19 20  2  0
 20 21  1  0
 21 22  2  0
 17 23  1  0
 23 24  2  0
  9  3  2  0
 24 14  1  0
 22 18  1  0
  1 25  1  0
  1 26  1  0
  1 27  1  0
  4 28  1  0
  5 29  1  0
  8 30  1  0
 12 31  1  0
 13 32  1  0
 13 33  1  0
 15 34  1  0
 16 35  1  0
 19 36  1  0
 20 37  1  0
 22 38  1  0
 24 39  1  0
M  END
$$$$
OCNT-2310606
     RDKit          3D

 42 44  0  0  0  0  0  0  0  0999 V2000
    8.1898    0.6221    0.1015 C   0  0  0  0  0  0  0  0  0  0  0  0
    6.6932    0.6815    0.2263 C   0  0  0  0  0  0  0  0  0  0  0  0
    6.0962    1.7968    0.8336 C   0  0  0  0  0  0  0  0  0  0  0  0
    4.7076    1.8787    0.9625 C   0  0  0  0  0  0  0  0  0  0  0  0
    3.8914    0.8509    0.4790 C   0  0  0  0  0  0  0  0  0  0  0  0
    2.4166    0.9848    0.6360 C   0  0  0  0  0  0  0  0  0  0  0  0
    1.9570    1.7016    1.5174 O   0  0  0  0  0  0  0  0  0  0  0  0
    1.6367    0.3047   -0.2802 N   0  0  0  0  0  0  0  0  0  0  0  0
    0.1947    0.5061   -0.2965 C   0  0  0  0  0  0  0  0  0  0  0  0
   -0.5235   -0.5382   -1.1480 C   0  0  0  0  0  0  0  0  0  0  0  0
   -1.9883   -0.2770   -1.2401 C   0  0  0  0  0  0  0  0  0  0  0  0
   -2.8179   -0.7493   -0.3059 N   0  0  0  0  0  0  0  0  0  0  0  0
   -4.0553   -0.3220   -0.6735 N   0  0  0  0  0  0  0  0  0  0  0  0
   -5.1999   -0.6225    0.1178 C   0  0  0  0  0  0  0  0  0  0  0  0
   -5.0464   -1.3719    1.2954 C   0  0  0  0  0  0  0  0  0  0  0  0
   -6.1546   -1.6700    2.0914 C   0  0  0  0  0  0  0  0  0  0  0  0
   -7.4210   -1.2251    1.7194 C   0  0  0  0  0  0  0  0  0  0  0  0
   -7.5825   -0.4834    0.5503 C   0  0  0  0  0  0  0  0  0  0  0  0
   -6.4776   -0.1798   -0.2519 C   0  0  0  0  0  0  0  0  0  0  0  0
   -3.9967    0.3983   -1.8483 C   0  0  0  0  0  0  0  0  0  0  0  0
   -2.6788    0.4431   -2.2338 C   0  0  0  0  0  0  0  0  0  0  0  0
    4.4755   -0.2742   -0.1115 C   0  0  0  0  0  0  0  0  0  0  0  0
    5.8661   -0.3525   -0.2397 C   0  0  0  0  0  0  0  0  0  0  0  0
    6.5254   -1.7652   -0.9874 Cl  0  0  0  0  0  0  0  0  0  0  0  0
    8.6631    1.5143    0.5247 H   0  0  0  0  0  0  0  0  0  0  0  0
    8.5842   -0.2442    0.6423 H   0  0  0  0  0  0  0  0  0  0  0  0
    8.4828    0.5632   -0.9523 H   0  0  0  0  0  0  0  0  0  0  0  0
    6.7075    2.6118    1.2159 H   0  0  0  0  0  0  0  0  0  0  0  0
    4.2622    2.7498    1.4428 H   0  0  0  0  0  0  0  0  0  0  0  0
    2.0772    0.0124   -1.1425 H   0  0  0  0  0  0  0  0  0  0  0  0
    0.0158    1.5155   -0.6856 H   0  0  0  0  0  0  0  0  0  0  0  0
   -0.1758    0.4863    0.7358 H   0  0  0  0  0  0  0  0  0  0  0  0
   -0.3463   -1.5388   -0.7345 H   0  0  0  0  0  0  0  0  0  0  0  0
   -0.0938   -0.5488   -2.1581 H   0  0  0  0  0  0  0  0  0  0  0  0
   -4.0664   -1.7285    1.6078 H   0  0  0  0  0  0  0  0  0  0  0  0
   -6.0258   -2.2486    3.0026 H   0  0  0  0  0  0  0  0  0  0  0  0
   -8.2822   -1.4566    2.3416 H   0  0  0  0  0  0  0  0  0  0  0  0
   -8.5724   -0.1371    0.2632 H   0  0  0  0  0  0  0  0  0  0  0  0
   -6.6505    0.4029   -1.1507 H   0  0  0  0  0  0  0  0  0  0  0  0
   -4.8757    0.8198   -2.3092 H   0  0  0  0  0  0  0  0  0  0  0  0
   -2.2746    0.9329   -3.1086 H   0  0  0  0  0  0  0  0  0  0  0  0
    3.8634   -1.1053   -0.4488 H   0  0  0  0  0  0  0  0  0  0  0  0
  1  2  1  0
  2  3  1  0
  3  4  2  0
  4  5  1  0
  5  6  1  0
  6  7  2  0
  6  8  1  0
  8  9  1  0
  9 10  1  0
 10 11  1  0
 11 12  2  0
 12 13  1  0
 13 14  1  0
 14 15  2  0
 15 16  1  0
 16 17  2  0
 17 18  1  0
 18 19  2  0
 13 20  1  0
 20 21  2  0
  5 22  2  0
 22 23  1  0
 23 24  1  0
 23  2  2  0
 21 11  1  0
 19 14  1  0
  1 25  1  0
  1 26  1  0
  1 27  1  0
  3 28  1  0
  4 29  1  0
  8 30  1  0
  9 31  1  0
  9 32  1  0
 10 33  1  0
 10 34  1  0
 15 35  1  0
 16 36  1  0
 17 37  1  0
 18 38  1  0
 19 39  1  0
 20 40  1  0
 21 41  1  0
 22 42  1  0
M  END
$$$$
OCNT-2310611
     RDKit          3D

 51 53  0  0  0  0  0  0  0  0999 V2000
    7.7932   -0.3085    0.5826 C   0  0  0  0  0  0  0  0  0  0  0  0
    6.6461    0.4049    0.1388 O   0  0  0  0  0  0  0  0  0  0  0  0
    5.5595   -0.3381   -0.2326 C   0  0  0  0  0  0  0  0  0  0  0  0
    5.4674   -1.7311   -0.1985 C   0  0  0  0  0  0  0  0  0  0  0  0
    4.2955   -2.3674   -0.6172 C   0  0  0  0  0  0  0  0  0  0  0  0
    3.2087   -1.6132   -1.0620 C   0  0  0  0  0  0  0  0  0  0  0  0
    3.2855   -0.2154   -1.0844 C   0  0  0  0  0  0  0  0  0  0  0  0
    2.0997    0.5519   -1.5585 C   0  0  0  0  0  0  0  0  0  0  0  0
    1.2340    0.0086   -2.2395 O   0  0  0  0  0  0  0  0  0  0  0  0
    1.9974    1.8621   -1.1403 N   0  0  0  0  0  0  0  0  0  0  0  0
    0.8101    2.6375   -1.4507 C   0  0  0  0  0  0  0  0  0  0  0  0
   -0.2855    2.3098   -0.4379 C   0  0  0  0  0  0  0  0  0  0  0  0
   -0.4115    2.9291    0.6155 O   0  0  0  0  0  0  0  0  0  0  0  0
   -1.0416    1.2070   -0.7740 N   0  0  0  0  0  0  0  0  0  0  0  0
   -2.0481    0.6631    0.1273 C   0  0  0  0  0  0  0  0  0  0  0  0
   -3.2832    1.5663    0.1268 C   0  0  0  0  0  0  0  0  0  0  0  0
   -4.4618    0.8988    0.8413 C   0  0  0  0  0  0  0  0  0  0  0  0
   -5.6984    1.8001    0.7039 C   0  0  0  0  0  0  0  0  0  0  0  0
   -4.2048    0.6583    2.3370 C   0  0  0  0  0  0  0  0  0  0  0  0
   -4.8124   -0.3437    0.2111 O   0  0  0  0  0  0  0  0  0  0  0  0
   -3.7776   -1.1567   -0.1651 C   0  0  0  0  0  0  0  0  0  0  0  0
   -4.1440   -2.4618   -0.5032 C   0  0  0  0  0  0  0  0  0  0  0  0
   -3.1753   -3.3922   -0.8743 C   0  0  0  0  0  0  0  0  0  0  0  0
   -1.8348   -3.0198   -0.8994 C   0  0  0  0  0  0  0  0  0  0  0  0
   -1.4675   -1.7129   -0.5711 C   0  0  0  0  0  0  0  0  0  0  0  0
   -2.4382   -0.7529   -0.2292 C   0  0  0  0  0  0  0  0  0  0  0  0
    4.4689    0.4157   -0.6808 C   0  0  0  0  0  0  0  0  0  0  0  0
    7.5721   -0.8928    1.4827 H   0  0  0  0  0  0  0  0  0  0  0  0
    8.1939   -0.9430   -0.2145 H   0  0  0  0  0  0  0  0  0  0  0  0
    8.5624    0.4240    0.8417 H   0  0  0  0  0  0  0  0  0  0  0  0
    6.2907   -2.3528    0.1413 H   0  0  0  0  0  0  0  0  0  0  0  0
    4.2306   -3.4534   -0.5969 H   0  0  0  0  0  0  0  0  0  0  0  0
    2.3024   -2.1191   -1.3896 H   0  0  0  0  0  0  0  0  0  0  0  0
    2.5383    2.1647   -0.3401 H   0  0  0  0  0  0  0  0  0  0  0  0
    1.0607    3.6995   -1.3767 H   0  0  0  0  0  0  0  0  0  0  0  0
    0.4667    2.4264   -2.4687 H   0  0  0  0  0  0  0  0  0  0  0  0
   -0.6914    0.6239   -1.5330 H   0  0  0  0  0  0  0  0  0  0  0  0
   -1.6102    0.6458    1.1334 H   0  0  0  0  0  0  0  0  0  0  0  0
   -3.0516    2.5363    0.5843 H   0  0  0  0  0  0  0  0  0  0  0  0
   -3.5671    1.7731   -0.9159 H   0  0  0  0  0  0  0  0  0  0  0  0
   -6.5756    1.3338    1.1671 H   0  0  0  0  0  0  0  0  0  0  0  0
   -5.5398    2.7780    1.1695 H   0  0  0  0  0  0  0  0  0  0  0  0
   -5.9547    1.9545   -0.3510 H   0  0  0  0  0  0  0  0  0  0  0  0
   -3.9516    1.5895    2.8537 H   0  0  0  0  0  0  0  0  0  0  0  0
   -3.3969   -0.0594    2.5070 H   0  0  0  0  0  0  0  0  0  0  0  0
   -5.0916    0.2277    2.8170 H   0  0  0  0  0  0  0  0  0  0  0  0
   -5.1898   -2.7540   -0.4686 H   0  0  0  0  0  0  0  0  0  0  0  0
   -3.4673   -4.4053   -1.1341 H   0  0  0  0  0  0  0  0  0  0  0  0
   -1.0735   -3.7442   -1.1774 H   0  0  0  0  0  0  0  0  0  0  0  0
   -0.4117   -1.4489   -0.5905 H   0  0  0  0  0  0  0  0  0  0  0  0
    4.5735    1.4964   -0.7293 H   0  0  0  0  0  0  0  0  0  0  0  0
  1  2  1  0
  2  3  1  0
  3  4  1  0
  4  5  2  0
  5  6  1  0
  6  7  2  0
  7  8  1  0
  8  9  2  0
  8 10  1  0
 10 11  1  0
 11 12  1  0
 12 13  2  0
 12 14  1  0
 14 15  1  0
 15 16  1  0
 16 17  1  0
 17 18  1  0
 17 19  1  0
 17 20  1  0
 20 21  1  0
 21 22  2  0
 22 23  1  0
 23 24  2  0
 24 25  1  0
 25 26  2  0
  7 27  1  0
 27  3  2  0
 26 15  1  0
 26 21  1  0
  1 28  1  0
  1 29  1  0
  1 30  1  0
  4 31  1  0
  5 32  1  0
  6 33  1  0
 10 34  1  0
 11 35  1  0
 11 36  1  0
 14 37  1  0
 15 38  1  0
 16 39  1  0
 16 40  1  0
 18 41  1  0
 18 42  1  0
 18 43  1  0
 19 44  1  0
 19 45  1  0
 19 46  1  0
 22 47  1  0
 23 48  1  0
 24 49  1  0
 25 50  1  0
 27 51  1  0
M  END
$$$$
OCNT-2310613
     RDKit          3D

 44 46  0  0  0  0  0  0  0  0999 V2000
    2.9450    0.1553   -2.1726 O   0  0  0  0  0  0  0  0  0  0  0  0
    3.0491    0.1932   -0.9506 C   0  0  0  0  0  0  0  0  0  0  0  0
    1.9798    0.4341   -0.1151 N   0  0  0  0  0  0  0  0  0  0  0  0
    0.6123    0.5232   -0.6206 C   0  0  0  0  0  0  0  0  0  0  0  0
   -0.2702    1.3518    0.3204 C   0  0  0  0  0  0  0  0  0  0  0  0
   -1.0700    0.4625    1.2689 C   0  0  0  0  0  0  0  0  0  0  0  0
   -1.9343   -0.5030    0.5794 N   0  0  0  0  0  0  0  0  0  0  0  0
   -3.3624   -0.2047    0.7089 C   0  0  0  0  0  0  0  0  0  0  0  0
   -3.8580    1.1064    0.0867 C   0  0  0  0  0  0  0  0  0  0  0  0
   -5.3803    0.9614    0.0495 C   0  0  0  0  0  0  0  0  0  0  0  0
   -5.6756   -0.5331    0.1846 C   0  0  0  0  0  0  0  0  0  0  0  0
   -4.3222   -1.2299    0.0952 C   0  0  0  0  0  0  0  0  0  0  0  0
   -1.4804   -0.8763   -0.7633 C   0  0  0  0  0  0  0  0  0  0  0  0
    0.0425   -0.8796   -0.8645 C   0  0  0  0  0  0  0  0  0  0  0  0
    4.3815   -0.0303   -0.3224 C   0  0  0  0  0  0  0  0  0  0  0  0
    5.4921   -0.2099   -1.1679 C   0  0  0  0  0  0  0  0  0  0  0  0
    6.7662   -0.4222   -0.6335 C   0  0  0  0  0  0  0  0  0  0  0  0
    6.9319   -0.4562    0.7463 C   0  0  0  0  0  0  0  0  0  0  0  0
    8.1539   -0.6597    1.2557 F   0  0  0  0  0  0  0  0  0  0  0  0
    5.8433   -0.2822    1.5904 C   0  0  0  0  0  0  0  0  0  0  0  0
    6.0133   -0.3188    2.9198 F   0  0  0  0  0  0  0  0  0  0  0  0
    4.5743   -0.0709    1.0608 C   0  0  0  0  0  0  0  0  0  0  0  0
    3.5440    0.0866    1.9078 F   0  0  0  0  0  0  0  0  0  0  0  0
    2.1023    0.3105    0.8846 H   0  0  0  0  0  0  0  0  0  0  0  0
    0.6615    1.0537   -1.5805 H   0  0  0  0  0  0  0  0  0  0  0  0
    0.3298    2.0686    0.8940 H   0  0  0  0  0  0  0  0  0  0  0  0
   -0.9711    1.9475   -0.2787 H   0  0  0  0  0  0  0  0  0  0  0  0
   -0.3687   -0.1047    1.8944 H   0  0  0  0  0  0  0  0  0  0  0  0
   -1.6363    1.0897    1.9683 H   0  0  0  0  0  0  0  0  0  0  0  0
   -3.5876   -0.1728    1.7856 H   0  0  0  0  0  0  0  0  0  0  0  0
   -3.5533    1.9868    0.6614 H   0  0  0  0  0  0  0  0  0  0  0  0
   -3.4862    1.2339   -0.9362 H   0  0  0  0  0  0  0  0  0  0  0  0
   -5.7854    1.3672   -0.8835 H   0  0  0  0  0  0  0  0  0  0  0  0
   -5.8445    1.5126    0.8749 H   0  0  0  0  0  0  0  0  0  0  0  0
   -6.3681   -0.8872   -0.5853 H   0  0  0  0  0  0  0  0  0  0  0  0
   -6.1365   -0.7311    1.1597 H   0  0  0  0  0  0  0  0  0  0  0  0
   -4.0951   -1.4269   -0.9588 H   0  0  0  0  0  0  0  0  0  0  0  0
   -4.3159   -2.1841    0.6310 H   0  0  0  0  0  0  0  0  0  0  0  0
   -1.8390   -1.8842   -1.0008 H   0  0  0  0  0  0  0  0  0  0  0  0
   -1.8777   -0.1983   -1.5276 H   0  0  0  0  0  0  0  0  0  0  0  0
    0.3523   -1.2379   -1.8538 H   0  0  0  0  0  0  0  0  0  0  0  0
    0.4528   -1.5970   -0.1405 H   0  0  0  0  0  0  0  0  0  0  0  0
    5.3660   -0.1836   -2.2503 H   0  0  0  0  0  0  0  0  0  0  0  0
    7.6249   -0.5603   -1.2846 H   0  0  0  0  0  0  0  0  0  0  0  0
  1  2  2  0
  2  3  1  0
  3  4  1  0
  4  5  1  0
  5  6  1  0
  6  7  1  0
  7  8  1  0
  8  9  1  0
  9 10  1  0
 10 11  1  0
 11 12  1  0
  7 13  1  0
 13 14  1  0
  2 15  1  0
 15 16  1  0
 16 17  2  0
 17 18  1  0
 18 19  1  0
 18 20  2  0
 20 21  1  0
 20 22  1  0
 22 23  1  0
 14  4  1  0
 22 15  2  0
 12  8  1  0
  3 24  1  0
  4 25  1  0
  5 26  1  0
  5 27  1  0
  6 28  1  0
  6 29  1  0
  8 30  1  0
  9 31  1  0
  9 32  1  0
 10 33  1  0
 10 34  1  0
 11 35  1  0
 11 36  1  0
 12 37  1  0
 12 38  1  0
 13 39  1  0
 13 40  1  0
 14 41  1  0
 14 42  1  0
 16 43  1  0
 17 44  1  0
M  END
$$$$
OCNT-2310624
     RDKit          3D

 51 55  0  0  0  0  0  0  0  0999 V2000
    4.0993   -1.5809    2.0821 O   0  0  0  0  0  0  0  0  0  0  0  0
    3.7003   -1.3309    0.9523 C   0  0  0  0  0  0  0  0  0  0  0  0
    4.2808   -0.4072    0.1153 N   0  0  0  0  0  0  0  0  0  0  0  0
    5.3522    0.4298    0.5958 C   0  0  0  0  0  0  0  0  0  0  0  0
    5.7180    1.3821   -0.4910 C   0  0  0  0  0  0  0  0  0  0  0  0
    5.2425    2.6714   -0.6556 C   0  0  0  0  0  0  0  0  0  0  0  0
    5.8221    3.2112   -1.7747 N   0  0  0  0  0  0  0  0  0  0  0  0
    6.6555    2.2864   -2.3452 C   0  0  0  0  0  0  0  0  0  0  0  0
    6.6137    1.1452   -1.5740 C   0  0  0  0  0  0  0  0  0  0  0  0
    2.4993   -2.0211    0.4185 C   0  0  0  0  0  0  0  0  0  0  0  0
    2.4231   -2.4138   -0.9232 C   0  0  0  0  0  0  0  0  0  0  0  0
    1.2848   -3.0732   -1.3876 C   0  0  0  0  0  0  0  0  0  0  0  0
    0.2242   -3.3398   -0.5171 C   0  0  0  0  0  0  0  0  0  0  0  0
    0.2904   -2.9547    0.8319 C   0  0  0  0  0  0  0  0  0  0  0  0
   -0.8678   -3.2059    1.7656 C   0  0  0  0  0  0  0  0  0  0  0  0
   -1.7885   -2.0848    1.7684 N   0  0  0  0  0  0  0  0  0  0  0  0
   -2.8014   -1.8261    0.8900 C   0  0  0  0  0  0  0  0  0  0  0  0
   -3.3462   -0.6479    1.3530 C   0  0  0  0  0  0  0  0  0  0  0  0
   -4.4571    0.0762    0.7558 C   0  0  0  0  0  0  0  0  0  0  0  0
   -5.5915   -0.6596    0.3613 C   0  0  0  0  0  0  0  0  0  0  0  0
   -6.6931   -0.0241   -0.2076 C   0  0  0  0  0  0  0  0  0  0  0  0
   -6.6759    1.3546   -0.3914 C   0  0  0  0  0  0  0  0  0  0  0  0
   -5.5575    2.1150   -0.0085 C   0  0  0  0  0  0  0  0  0  0  0  0
   -5.5298    3.5017   -0.1920 C   0  0  0  0  0  0  0  0  0  0  0  0
   -4.4945    4.3053    0.1392 N   0  0  0  0  0  0  0  0  0  0  0  0
   -3.4246    3.6995    0.6876 C   0  0  0  0  0  0  0  0  0  0  0  0
   -3.3420    2.3320    0.9143 C   0  0  0  0  0  0  0  0  0  0  0  0
   -4.4269    1.4917    0.5719 C   0  0  0  0  0  0  0  0  0  0  0  0
   -2.6830   -0.2611    2.4872 N   0  0  0  0  0  0  0  0  0  0  0  0
   -1.7293   -1.1507    2.7349 N   0  0  0  0  0  0  0  0  0  0  0  0
    1.4411   -2.2971    1.2939 C   0  0  0  0  0  0  0  0  0  0  0  0
    3.7704   -0.0901   -0.6983 H   0  0  0  0  0  0  0  0  0  0  0  0
    5.0033    0.9647    1.4844 H   0  0  0  0  0  0  0  0  0  0  0  0
    6.1976   -0.2017    0.8840 H   0  0  0  0  0  0  0  0  0  0  0  0
    4.5433    3.2528   -0.0641 H   0  0  0  0  0  0  0  0  0  0  0  0
    5.6606    4.1492   -2.1223 H   0  0  0  0  0  0  0  0  0  0  0  0
    7.2082    2.5201   -3.2458 H   0  0  0  0  0  0  0  0  0  0  0  0
    7.1693    0.2350   -1.7669 H   0  0  0  0  0  0  0  0  0  0  0  0
    3.2513   -2.2326   -1.6045 H   0  0  0  0  0  0  0  0  0  0  0  0
    1.2264   -3.3862   -2.4287 H   0  0  0  0  0  0  0  0  0  0  0  0
   -0.6557   -3.8509   -0.9044 H   0  0  0  0  0  0  0  0  0  0  0  0
   -0.5218   -3.3741    2.7926 H   0  0  0  0  0  0  0  0  0  0  0  0
   -1.4285   -4.0973    1.4626 H   0  0  0  0  0  0  0  0  0  0  0  0
   -3.0195   -2.4589    0.0439 H   0  0  0  0  0  0  0  0  0  0  0  0
   -5.6326   -1.7367    0.5145 H   0  0  0  0  0  0  0  0  0  0  0  0
   -7.5683   -0.6004   -0.4967 H   0  0  0  0  0  0  0  0  0  0  0  0
   -7.5465    1.8382   -0.8325 H   0  0  0  0  0  0  0  0  0  0  0  0
   -6.3753    4.0275   -0.6304 H   0  0  0  0  0  0  0  0  0  0  0  0
   -2.6030    4.3596    0.9534 H   0  0  0  0  0  0  0  0  0  0  0  0
   -2.4329    1.9387    1.3589 H   0  0  0  0  0  0  0  0  0  0  0  0
    1.5153   -1.9801    2.3344 H   0  0  0  0  0  0  0  0  0  0  0  0
  1  2  2  0
  2  3  1  0
  3  4  1  0
  4  5  1  0
  5  6  2  0
  6  7  1  0
  7  8  1  0
  8  9  2  0
  2 10  1  0
 10 11  1  0
 11 12  2  0
 12 13  1  0
 13 14  2  0
 14 15  1  0
 15 16  1  0
 16 17  1  0
 17 18  2  0
 18 19  1  0
 19 20  2  0
 20 21  1  0
 21 22  2  0
 22 23  1  0
 23 24  2  0
 24 25  1  0
 25 26  2  0
 26 27  1  0
 27 28  2  0
 18 29  1  0
 29 30  2  0
 14 31  1  0
  9  5  1  0
 31 10  2  0
 30 16  1  0
 28 19  1  0
 28 23  1  0
  3 32  1  0
  4 33  1  0
  4 34  1  0
  6 35  1  0
  7 36  1  0
  8 37  1  0
  9 38  1  0
 11 39  1  0
 12 40  1  0
 13 41  1  0
 15 42  1  0
 15 43  1  0
 17 44  1  0
 20 45  1  0
 21 46  1  0
 22 47  1  0
 24 48  1  0
 26 49  1  0
 27 50  1  0
 31 51  1  0
M  END
$$$$
OCNT-2310627
     RDKit          3D

 46 48  0  0  0  0  0  0  0  0999 V2000
    7.1561    0.4997    0.0502 N   0  0  0  0  0  0  0  0  0  0  0  0
    6.2290   -0.8740    0.1198 S   0  0  0  0  0  0  0  0  0  0  0  0
    6.1707   -1.4363   -1.2042 O   0  0  0  0  0  0  0  0  0  0  0  0
    6.6703   -1.6043    1.2797 O   0  0  0  0  0  0  0  0  0  0  0  0
    4.7459   -0.1281    0.4634 N   0  0  0  0  0  0  0  0  0  0  0  0
    4.0946    0.5356   -0.6980 C   0  0  0  0  0  0  0  0  0  0  0  0
    2.9645    1.4281   -0.1895 C   0  0  0  0  0  0  0  0  0  0  0  0
    1.9260    0.6295    0.6080 C   0  0  0  0  0  0  0  0  0  0  0  0
    1.0552   -0.2294   -0.3082 C   0  0  0  0  0  0  0  0  0  0  0  0
    1.0481   -1.4548   -0.2702 O   0  0  0  0  0  0  0  0  0  0  0  0
    0.2794    0.4999   -1.1822 N   0  0  0  0  0  0  0  0  0  0  0  0
   -0.6805   -0.1402   -2.0546 C   0  0  0  0  0  0  0  0  0  0  0  0
   -2.0498   -0.1513   -1.4272 C   0  0  0  0  0  0  0  0  0  0  0  0
   -2.4107   -1.1589   -0.5260 C   0  0  0  0  0  0  0  0  0  0  0  0
   -3.6732   -1.1631    0.0815 C   0  0  0  0  0  0  0  0  0  0  0  0
   -4.6059   -0.1500   -0.1960 C   0  0  0  0  0  0  0  0  0  0  0  0
   -5.8883   -0.1629    0.4281 N   0  0  0  0  0  0  0  0  0  0  0  0
   -6.9265    0.7316    0.2712 C   0  0  0  0  0  0  0  0  0  0  0  0
   -7.9465    0.2955    1.0827 C   0  0  0  0  0  0  0  0  0  0  0  0
   -7.5857   -0.8399    1.7423 N   0  0  0  0  0  0  0  0  0  0  0  0
   -6.3611   -1.0925    1.3356 C   0  0  0  0  0  0  0  0  0  0  0  0
   -4.2325    0.8587   -1.0921 C   0  0  0  0  0  0  0  0  0  0  0  0
   -5.0492    1.8711   -1.4113 F   0  0  0  0  0  0  0  0  0  0  0  0
   -2.9732    0.8622   -1.6978 C   0  0  0  0  0  0  0  0  0  0  0  0
    2.6115   -0.2107    1.6936 C   0  0  0  0  0  0  0  0  0  0  0  0
    3.7832   -1.0341    1.1573 C   0  0  0  0  0  0  0  0  0  0  0  0
    7.2021    0.9674    0.9505 H   0  0  0  0  0  0  0  0  0  0  0  0
    6.9888    1.0706   -0.7693 H   0  0  0  0  0  0  0  0  0  0  0  0
    4.8143    1.1671   -1.2284 H   0  0  0  0  0  0  0  0  0  0  0  0
    3.7129   -0.2111   -1.4037 H   0  0  0  0  0  0  0  0  0  0  0  0
    3.3874    2.2041    0.4620 H   0  0  0  0  0  0  0  0  0  0  0  0
    2.5045    1.9464   -1.0380 H   0  0  0  0  0  0  0  0  0  0  0  0
    1.2445    1.3318    1.1067 H   0  0  0  0  0  0  0  0  0  0  0  0
    0.1633    1.4904   -1.0165 H   0  0  0  0  0  0  0  0  0  0  0  0
   -0.3627   -1.1605   -2.2977 H   0  0  0  0  0  0  0  0  0  0  0  0
   -0.6959    0.4261   -2.9924 H   0  0  0  0  0  0  0  0  0  0  0  0
   -1.7020   -1.9529   -0.2864 H   0  0  0  0  0  0  0  0  0  0  0  0
   -3.8815   -1.9797    0.7667 H   0  0  0  0  0  0  0  0  0  0  0  0
   -6.8832    1.5884   -0.3817 H   0  0  0  0  0  0  0  0  0  0  0  0
   -8.9214    0.7451    1.2213 H   0  0  0  0  0  0  0  0  0  0  0  0
   -5.7830   -1.9389    1.6767 H   0  0  0  0  0  0  0  0  0  0  0  0
   -2.7315    1.6694   -2.3844 H   0  0  0  0  0  0  0  0  0  0  0  0
    2.9871    0.4681    2.4707 H   0  0  0  0  0  0  0  0  0  0  0  0
    1.8896   -0.8774    2.1803 H   0  0  0  0  0  0  0  0  0  0  0  0
    4.2677   -1.5154    2.0134 H   0  0  0  0  0  0  0  0  0  0  0  0
    3.4475   -1.8205    0.4735 H   0  0  0  0  0  0  0  0  0  0  0  0
  1  2  1  0
  2  3  2  0
  2  4  2  0
  2  5  1  0
  5  6  1  0
  6  7  1  0
  7  8  1  0
  8  9  1  0
  9 10  2  0
  9 11  1  0
 11 12  1  0
 12 13  1  0
 13 14  1  0
 14 15  2  0
 15 16  1  0
 16 17  1  0
 17 18  1  0
 18 19  2  0
 19 20  1  0
 20 21  2  0
 16 22  2  0
 22 23  1  0
 22 24  1  0
  8 25  1  0
 25 26  1  0
 26  5  1  0
 24 13  2  0
 21 17  1  0
  1 27  1  0
  1 28  1  0
  6 29  1  0
  6 30  1  0
  7 31  1  0
  7 32  1  0
  8 33  1  0
 11 34  1  0
 12 35  1  0
 12 36  1  0
 14 37  1  0
 15 38  1  0
 18 39  1  0
 19 40  1  0
 21 41  1  0
 24 42  1  0
 25 43  1  0
 25 44  1  0
 26 45  1  0
 26 46  1  0
M  END
$$$$
OCNT-2310632
     RDKit          3D

 45 49  0  0  0  0  0  0  0  0999 V2000
    5.0750    0.7177    1.2977 C   0  0  0  0  0  0  0  0  0  0  0  0
    6.3361    1.0583    1.6162 C   0  0  0  0  0  0  0  0  0  0  0  0
    7.3751    0.6407    0.7956 N   0  0  0  0  0  0  0  0  0  0  0  0
    8.7268    0.8509    0.8957 C   0  0  0  0  0  0  0  0  0  0  0  0
    9.3902    0.2863   -0.0911 N   0  0  0  0  0  0  0  0  0  0  0  0
    8.4329   -0.3182   -0.8694 C   0  0  0  0  0  0  0  0  0  0  0  0
    7.1771   -0.1161   -0.3452 C   0  0  0  0  0  0  0  0  0  0  0  0
    5.8440   -0.4793   -0.6857 C   0  0  0  0  0  0  0  0  0  0  0  0
    4.7987   -0.0906    0.0911 C   0  0  0  0  0  0  0  0  0  0  0  0
    3.4386   -0.4501   -0.2394 C   0  0  0  0  0  0  0  0  0  0  0  0
    3.0414   -1.1753   -1.2962 N   0  0  0  0  0  0  0  0  0  0  0  0
    1.6566   -1.2315   -1.1555 O   0  0  0  0  0  0  0  0  0  0  0  0
    1.3401   -0.5330   -0.0213 C   0  0  0  0  0  0  0  0  0  0  0  0
    0.0006   -0.3709    0.4554 C   0  0  0  0  0  0  0  0  0  0  0  0
   -0.4397    0.3136    1.5770 C   0  0  0  0  0  0  0  0  0  0  0  0
   -1.8488    0.1883    1.6215 C   0  0  0  0  0  0  0  0  0  0  0  0
   -2.2035   -0.5608    0.5204 C   0  0  0  0  0  0  0  0  0  0  0  0
   -3.5119   -1.0502   -0.0082 C   0  0  0  0  0  0  0  0  0  0  0  0
   -3.9887   -0.2673   -1.1603 N   0  0  0  0  0  0  0  0  0  0  0  0
   -5.0649   -0.9620   -1.8816 C   0  0  0  0  0  0  0  0  0  0  0  0
   -6.4059   -0.9620   -1.1432 C   0  0  0  0  0  0  0  0  0  0  0  0
   -6.8334    0.4547   -0.7748 C   0  0  0  0  0  0  0  0  0  0  0  0
   -5.7137    1.1921   -0.0477 C   0  0  0  0  0  0  0  0  0  0  0  0
   -4.3957    1.1041   -0.8219 C   0  0  0  0  0  0  0  0  0  0  0  0
   -1.0873   -0.9119   -0.1803 O   0  0  0  0  0  0  0  0  0  0  0  0
    2.4070   -0.0365    0.5741 N   0  0  0  0  0  0  0  0  0  0  0  0
    4.2411    1.0307    1.9193 H   0  0  0  0  0  0  0  0  0  0  0  0
    6.5887    1.6484    2.4879 H   0  0  0  0  0  0  0  0  0  0  0  0
    9.1652    1.4197    1.7042 H   0  0  0  0  0  0  0  0  0  0  0  0
    8.7022   -0.8651   -1.7639 H   0  0  0  0  0  0  0  0  0  0  0  0
    5.6880   -1.0741   -1.5825 H   0  0  0  0  0  0  0  0  0  0  0  0
    0.1943    0.8423    2.2759 H   0  0  0  0  0  0  0  0  0  0  0  0
   -2.5252    0.5987    2.3581 H   0  0  0  0  0  0  0  0  0  0  0  0
   -4.2480   -1.0776    0.8031 H   0  0  0  0  0  0  0  0  0  0  0  0
   -3.3560   -2.0932   -0.3149 H   0  0  0  0  0  0  0  0  0  0  0  0
   -4.7683   -1.9925   -2.1124 H   0  0  0  0  0  0  0  0  0  0  0  0
   -5.1969   -0.4746   -2.8567 H   0  0  0  0  0  0  0  0  0  0  0  0
   -6.3372   -1.5740   -0.2360 H   0  0  0  0  0  0  0  0  0  0  0  0
   -7.1732   -1.4226   -1.7760 H   0  0  0  0  0  0  0  0  0  0  0  0
   -7.0950    1.0031   -1.6882 H   0  0  0  0  0  0  0  0  0  0  0  0
   -7.7329    0.4262   -0.1502 H   0  0  0  0  0  0  0  0  0  0  0  0
   -5.5904    0.7757    0.9589 H   0  0  0  0  0  0  0  0  0  0  0  0
   -5.9934    2.2441    0.0808 H   0  0  0  0  0  0  0  0  0  0  0  0
   -4.5023    1.6670   -1.7590 H   0  0  0  0  0  0  0  0  0  0  0  0
   -3.6077    1.6270   -0.2690 H   0  0  0  0  0  0  0  0  0  0  0  0
  1  2  2  0
  2  3  1  0
  3  4  1  0
  4  5  2  0
  5  6  1  0
  6  7  2  0
  7  8  1  0
  8  9  2  0
  9 10  1  0
 10 11  2  0
 11 12  1  0
 12 13  1  0
 13 14  1  0
 14 15  2  0
 15 16  1  0
 16 17  2  0
 17 18  1  0
 18 19  1  0
 19 20  1  0
 20 21  1  0
 21 22  1  0
 22 23  1  0
 23 24  1  0
 17 25  1  0
 13 26  2  0
  9  1  1  0
 26 10  1  0
  7  3  1  0
 25 14  1  0
 24 19  1  0
  1 27  1  0
  2 28  1  0
  4 29  1  0
  6 30  1  0
  8 31  1  0
 15 32  1  0
 16 33  1  0
 18 34  1  0
 18 35  1  0
 20 36  1  0
 20 37  1  0
 21 38  1  0
 21 39  1  0
 22 40  1  0
 22 41  1  0
 23 42  1  0
 23 43  1  0
 24 44  1  0
 24 45  1  0
M  END
$$$$
OCNT-2310634
     RDKit          3D

 51 54  0  0  0  0  0  0  0  0999 V2000
    3.6791   -1.6962   -0.7127 C   0  0  0  0  0  0  0  0  0  0  0  0
    3.0745   -0.3037   -0.4909 C   0  0  0  0  0  0  0  0  0  0  0  0
    3.8779    0.8310   -1.1421 C   0  0  0  0  0  0  0  0  0  0  0  0
    5.2769    0.9417   -0.5844 C   0  0  0  0  0  0  0  0  0  0  0  0
    6.3508    0.3152   -1.2319 C   0  0  0  0  0  0  0  0  0  0  0  0
    7.6434    0.4043   -0.7130 C   0  0  0  0  0  0  0  0  0  0  0  0
    7.8778    1.1243    0.4557 C   0  0  0  0  0  0  0  0  0  0  0  0
    6.8207    1.7576    1.1044 C   0  0  0  0  0  0  0  0  0  0  0  0
    5.5274    1.6686    0.5870 C   0  0  0  0  0  0  0  0  0  0  0  0
    2.5953   -0.0516    0.9614 C   0  0  0  0  0  0  0  0  0  0  0  0
    1.2671   -0.4618    0.5099 N   0  0  0  0  0  0  0  0  0  0  0  0
    0.0897   -0.2172    1.1879 C   0  0  0  0  0  0  0  0  0  0  0  0
    0.0941    0.1379    2.3618 O   0  0  0  0  0  0  0  0  0  0  0  0
   -1.0248   -0.4325    0.4056 N   0  0  0  0  0  0  0  0  0  0  0  0
   -2.3760   -0.2331    0.7461 C   0  0  0  0  0  0  0  0  0  0  0  0
   -2.8009    0.3421    1.9392 C   0  0  0  0  0  0  0  0  0  0  0  0
   -4.1648    0.5138    2.1881 C   0  0  0  0  0  0  0  0  0  0  0  0
   -5.1220    0.1267    1.2463 C   0  0  0  0  0  0  0  0  0  0  0  0
   -6.4161    0.3612    1.6322 O   0  0  0  0  0  0  0  0  0  0  0  0
   -7.2912    0.7208    0.5627 C   0  0  0  0  0  0  0  0  0  0  0  0
   -7.8848   -0.5210   -0.1097 C   0  0  0  0  0  0  0  0  0  0  0  0
   -6.9184   -1.5622   -0.4792 N   0  0  0  0  0  0  0  0  0  0  0  0
   -5.6784   -0.9958   -1.0086 C   0  0  0  0  0  0  0  0  0  0  0  0
   -4.7235   -0.4903    0.0517 C   0  0  0  0  0  0  0  0  0  0  0  0
   -3.3400   -0.6391   -0.1883 C   0  0  0  0  0  0  0  0  0  0  0  0
    1.5787   -0.2572   -0.8999 C   0  0  0  0  0  0  0  0  0  0  0  0
    3.0161   -2.4881   -0.3459 H   0  0  0  0  0  0  0  0  0  0  0  0
    4.6298   -1.8079   -0.1823 H   0  0  0  0  0  0  0  0  0  0  0  0
    3.8538   -1.8804   -1.7780 H   0  0  0  0  0  0  0  0  0  0  0  0
    3.9286    0.6782   -2.2281 H   0  0  0  0  0  0  0  0  0  0  0  0
    3.3714    1.7957   -1.0062 H   0  0  0  0  0  0  0  0  0  0  0  0
    6.1872   -0.2514   -2.1454 H   0  0  0  0  0  0  0  0  0  0  0  0
    8.4679   -0.0879   -1.2217 H   0  0  0  0  0  0  0  0  0  0  0  0
    8.8842    1.1949    0.8596 H   0  0  0  0  0  0  0  0  0  0  0  0
    7.0029    2.3239    2.0140 H   0  0  0  0  0  0  0  0  0  0  0  0
    4.7193    2.1788    1.1054 H   0  0  0  0  0  0  0  0  0  0  0  0
    3.0168   -0.7080    1.7271 H   0  0  0  0  0  0  0  0  0  0  0  0
    2.6104    0.9868    1.3071 H   0  0  0  0  0  0  0  0  0  0  0  0
   -0.8398   -0.8886   -0.4737 H   0  0  0  0  0  0  0  0  0  0  0  0
   -2.0995    0.6734    2.6984 H   0  0  0  0  0  0  0  0  0  0  0  0
   -4.4822    0.9665    3.1247 H   0  0  0  0  0  0  0  0  0  0  0  0
   -6.7935    1.3870   -0.1554 H   0  0  0  0  0  0  0  0  0  0  0  0
   -8.1078    1.3063    1.0005 H   0  0  0  0  0  0  0  0  0  0  0  0
   -8.6125   -0.9814    0.5687 H   0  0  0  0  0  0  0  0  0  0  0  0
   -8.4432   -0.2128   -1.0011 H   0  0  0  0  0  0  0  0  0  0  0  0
   -6.6802   -2.0911    0.3625 H   0  0  0  0  0  0  0  0  0  0  0  0
   -5.8764   -0.2056   -1.7438 H   0  0  0  0  0  0  0  0  0  0  0  0
   -5.1881   -1.8071   -1.5611 H   0  0  0  0  0  0  0  0  0  0  0  0
   -3.0182   -1.0979   -1.1215 H   0  0  0  0  0  0  0  0  0  0  0  0
    1.2067    0.7014   -1.2747 H   0  0  0  0  0  0  0  0  0  0  0  0
    1.2343   -1.0682   -1.5485 H   0  0  0  0  0  0  0  0  0  0  0  0
  1  2  1  0
  2  3  1  0
  3  4  1  0
  4  5  2  0
  5  6  1  0
  6  7  2  0
  7  8  1  0
  8  9  2  0
  2 10  1  0
 10 11  1  0
 11 12  1  0
 12 13  2  0
 12 14  1  0
 14 15  1  0
 15 16  1  0
 16 17  2  0
 17 18  1  0
 18 19  1  0
 19 20  1  0
 20 21  1  0
 21 22  1  0
 22 23  1  0
 23 24  1  0
 24 25  1  0
 11 26  1  0
 26  2  1  0
  9  4  1  0
 25 15  2  0
 24 18  2  0
  1 27  1  0
  1 28  1  0
  1 29  1  0
  3 30  1  0
  3 31  1  0
  5 32  1  0
  6 33  1  0
  7 34  1  0
  8 35  1  0
  9 36  1  0
 10 37  1  0
 10 38  1  0
 14 39  1  0
 16 40  1  0
 17 41  1  0
 20 42  1  0
 20 43  1  0
 21 44  1  0
 21 45  1  0
 22 46  1  0
 23 47  1  0
 23 48  1  0
 25 49  1  0
 26 50  1  0
 26 51  1  0
M  END
$$$$
OCNT-2310635
     RDKit          3D

 47 49  0  0  0  0  0  0  0  0999 V2000
    3.8390   -0.3009   -1.6904 C   0  0  0  0  0  0  0  0  0  0  0  0
    3.4802    0.3738   -0.4946 O   0  0  0  0  0  0  0  0  0  0  0  0
    2.8100   -0.3583    0.4554 C   0  0  0  0  0  0  0  0  0  0  0  0
    2.6025   -1.7385    0.4098 C   0  0  0  0  0  0  0  0  0  0  0  0
    1.9151   -2.3784    1.4436 C   0  0  0  0  0  0  0  0  0  0  0  0
    1.4413   -1.6474    2.5303 C   0  0  0  0  0  0  0  0  0  0  0  0
    1.6477   -0.2696    2.5857 C   0  0  0  0  0  0  0  0  0  0  0  0
    2.3138    0.3906    1.5458 C   0  0  0  0  0  0  0  0  0  0  0  0
    2.5027    1.7990    1.5834 N   0  0  0  0  0  0  0  0  0  0  0  0
    1.2384    2.5611    1.5318 C   0  0  0  0  0  0  0  0  0  0  0  0
    0.6094    2.5066    0.1235 C   0  0  0  0  0  0  0  0  0  0  0  0
    1.2759    2.8837   -0.8488 O   0  0  0  0  0  0  0  0  0  0  0  0
   -0.6946    2.0379   -0.0153 N   0  0  0  0  0  0  0  0  0  0  0  0
   -1.4786    1.4877    1.0933 C   0  0  0  0  0  0  0  0  0  0  0  0
   -2.9336    1.1226    0.7529 C   0  0  0  0  0  0  0  0  0  0  0  0
   -3.1045   -0.1061   -0.0417 N   0  0  0  0  0  0  0  0  0  0  0  0
   -4.3361   -0.8542    0.1985 C   0  0  0  0  0  0  0  0  0  0  0  0
   -2.1529   -0.6020   -0.9254 C   0  0  0  0  0  0  0  0  0  0  0  0
   -2.0967   -1.9809   -1.2203 C   0  0  0  0  0  0  0  0  0  0  0  0
   -1.1368   -2.5329   -2.0761 C   0  0  0  0  0  0  0  0  0  0  0  0
   -0.1901   -1.7160   -2.6713 C   0  0  0  0  0  0  0  0  0  0  0  0
   -0.2160   -0.3509   -2.4136 C   0  0  0  0  0  0  0  0  0  0  0  0
   -1.1913    0.2135   -1.5624 C   0  0  0  0  0  0  0  0  0  0  0  0
   -1.1530    1.7087   -1.3581 C   0  0  0  0  0  0  0  0  0  0  0  0
    2.9631   -0.7318   -2.1827 H   0  0  0  0  0  0  0  0  0  0  0  0
    4.5980   -1.0655   -1.4985 H   0  0  0  0  0  0  0  0  0  0  0  0
    4.2734    0.4360   -2.3736 H   0  0  0  0  0  0  0  0  0  0  0  0
    2.9641   -2.3442   -0.4132 H   0  0  0  0  0  0  0  0  0  0  0  0
    1.7546   -3.4525    1.4021 H   0  0  0  0  0  0  0  0  0  0  0  0
    0.9188   -2.1514    3.3384 H   0  0  0  0  0  0  0  0  0  0  0  0
    1.2959    0.2872    3.4490 H   0  0  0  0  0  0  0  0  0  0  0  0
    3.0489    2.0336    0.7428 H   0  0  0  0  0  0  0  0  0  0  0  0
    1.4728    3.6154    1.7210 H   0  0  0  0  0  0  0  0  0  0  0  0
    0.5638    2.2570    2.3325 H   0  0  0  0  0  0  0  0  0  0  0  0
   -1.4978    2.2481    1.8819 H   0  0  0  0  0  0  0  0  0  0  0  0
   -0.9506    0.6126    1.4855 H   0  0  0  0  0  0  0  0  0  0  0  0
   -3.4500    0.9831    1.7108 H   0  0  0  0  0  0  0  0  0  0  0  0
   -3.4426    1.9557    0.2532 H   0  0  0  0  0  0  0  0  0  0  0  0
   -4.1652   -1.6576    0.9217 H   0  0  0  0  0  0  0  0  0  0  0  0
   -5.1157   -0.2021    0.6079 H   0  0  0  0  0  0  0  0  0  0  0  0
   -4.7405   -1.2757   -0.7283 H   0  0  0  0  0  0  0  0  0  0  0  0
   -2.7935   -2.6727   -0.7561 H   0  0  0  0  0  0  0  0  0  0  0  0
   -1.1311   -3.6033   -2.2616 H   0  0  0  0  0  0  0  0  0  0  0  0
    0.5654   -2.1341   -3.3282 H   0  0  0  0  0  0  0  0  0  0  0  0
    0.5357    0.2889   -2.8747 H   0  0  0  0  0  0  0  0  0  0  0  0
   -2.1437    2.1472   -1.5243 H   0  0  0  0  0  0  0  0  0  0  0  0
   -0.5157    2.1771   -2.1160 H   0  0  0  0  0  0  0  0  0  0  0  0
  1  2  1  0
  2  3  1  0
  3  4  2  0
  4  5  1  0
  5  6  2  0
  6  7  1  0
  7  8  2  0
  8  9  1  0
  9 10  1  0
 10 11  1  0
 11 12  2  0
 11 13  1  0
 13 14  1  0
 14 15  1  0
 15 16  1  0
 16 17  1  0
 16 18  1  0
 18 19  2  0
 19 20  1  0
 20 21  2  0
 21 22  1  0
 22 23  2  0
 23 24  1  0
  8  3  1  0
 24 13  1  0
 23 18  1  0
  1 25  1  0
  1 26  1  0
  1 27  1  0
  4 28  1  0
  5 29  1  0
  6 30  1  0
  7 31  1  0
  9 32  1  0
 10 33  1  0
 10 34  1  0
 14 35  1  0
 14 36  1  0
 15 37  1  0
 15 38  1  0
 17 39  1  0
 17 40  1  0
 17 41  1  0
 19 42  1  0
 20 43  1  0
 21 44  1  0
 22 45  1  0
 24 46  1  0
 24 47  1  0
M  END
$$$$
OCNT-2310639
     RDKit          3D

 49 52  0  0  0  0  0  0  0  0999 V2000
   -2.1524    0.5517    3.4133 O   0  0  0  0  0  0  0  0  0  0  0  0
   -2.4523    0.0726    2.3267 C   0  0  0  0  0  0  0  0  0  0  0  0
   -1.5355   -0.4595    1.4408 N   0  0  0  0  0  0  0  0  0  0  0  0
   -0.1400   -0.5722    1.8259 C   0  0  0  0  0  0  0  0  0  0  0  0
    0.7769   -0.7890    0.6152 C   0  0  0  0  0  0  0  0  0  0  0  0
    0.8104    0.4378   -0.3154 C   0  0  0  0  0  0  0  0  0  0  0  0
    2.1393    1.1886   -0.2387 C   0  0  0  0  0  0  0  0  0  0  0  0
    3.2561    0.3245   -0.6267 N   0  0  0  0  0  0  0  0  0  0  0  0
    4.5437    1.0147   -0.4585 C   0  0  0  0  0  0  0  0  0  0  0  0
    5.6409    0.3945   -1.2843 C   0  0  0  0  0  0  0  0  0  0  0  0
    6.6855   -0.4069   -0.8625 C   0  0  0  0  0  0  0  0  0  0  0  0
    7.5421   -0.7941   -1.9338 C   0  0  0  0  0  0  0  0  0  0  0  0
    7.1319   -0.2682   -3.1383 C   0  0  0  0  0  0  0  0  0  0  0  0
    5.7191    0.6809   -2.9756 S   0  0  0  0  0  0  0  0  0  0  0  0
    3.2235   -1.0113   -0.0174 C   0  0  0  0  0  0  0  0  0  0  0  0
    2.1863   -1.1647    1.0947 C   0  0  0  0  0  0  0  0  0  0  0  0
   -3.8783    0.0076    1.9148 C   0  0  0  0  0  0  0  0  0  0  0  0
   -4.8457   -0.0866    2.9127 C   0  0  0  0  0  0  0  0  0  0  0  0
   -6.1665   -0.1431    2.5245 C   0  0  0  0  0  0  0  0  0  0  0  0
   -6.5629   -0.1043    1.2358 N   0  0  0  0  0  0  0  0  0  0  0  0
   -5.6155    0.0159    0.2664 C   0  0  0  0  0  0  0  0  0  0  0  0
   -6.0547    0.0835   -1.0923 N   0  0  0  0  0  0  0  0  0  0  0  0
   -5.3058    0.2241   -2.2382 C   0  0  0  0  0  0  0  0  0  0  0  0
   -6.0779    0.2303   -3.3010 N   0  0  0  0  0  0  0  0  0  0  0  0
   -7.3217    0.0957   -2.7645 C   0  0  0  0  0  0  0  0  0  0  0  0
   -7.3670    0.0027   -1.4368 N   0  0  0  0  0  0  0  0  0  0  0  0
   -4.2579    0.0748    0.5693 C   0  0  0  0  0  0  0  0  0  0  0  0
   -1.8747   -1.1214    0.7554 H   0  0  0  0  0  0  0  0  0  0  0  0
   -0.0733   -1.4229    2.5144 H   0  0  0  0  0  0  0  0  0  0  0  0
    0.1550    0.3258    2.3821 H   0  0  0  0  0  0  0  0  0  0  0  0
    0.3773   -1.6314    0.0333 H   0  0  0  0  0  0  0  0  0  0  0  0
   -0.0121    1.1302   -0.1013 H   0  0  0  0  0  0  0  0  0  0  0  0
    0.6553    0.0995   -1.3494 H   0  0  0  0  0  0  0  0  0  0  0  0
    2.2778    1.5918    0.7735 H   0  0  0  0  0  0  0  0  0  0  0  0
    2.0893    2.0453   -0.9228 H   0  0  0  0  0  0  0  0  0  0  0  0
    4.4532    2.0654   -0.7692 H   0  0  0  0  0  0  0  0  0  0  0  0
    4.8319    1.0384    0.6019 H   0  0  0  0  0  0  0  0  0  0  0  0
    6.8275   -0.7045    0.1699 H   0  0  0  0  0  0  0  0  0  0  0  0
    8.4174   -1.4227   -1.8275 H   0  0  0  0  0  0  0  0  0  0  0  0
    7.5939   -0.3934   -4.1089 H   0  0  0  0  0  0  0  0  0  0  0  0
    4.1979   -1.3108    0.3863 H   0  0  0  0  0  0  0  0  0  0  0  0
    2.9935   -1.7312   -0.8133 H   0  0  0  0  0  0  0  0  0  0  0  0
    2.1857   -2.2005    1.4559 H   0  0  0  0  0  0  0  0  0  0  0  0
    2.4806   -0.5400    1.9487 H   0  0  0  0  0  0  0  0  0  0  0  0
   -4.5752   -0.1163    3.9640 H   0  0  0  0  0  0  0  0  0  0  0  0
   -6.9671   -0.2217    3.2553 H   0  0  0  0  0  0  0  0  0  0  0  0
   -4.2309    0.3178   -2.2517 H   0  0  0  0  0  0  0  0  0  0  0  0
   -8.2254    0.0639   -3.3600 H   0  0  0  0  0  0  0  0  0  0  0  0
   -3.4991    0.1973   -0.1928 H   0  0  0  0  0  0  0  0  0  0  0  0
  1  2  2  0
  2  3  1  0
  3  4  1  0
  4  5  1  0
  5  6  1  0
  6  7  1  0
  7  8  1  0
  8  9  1  0
  9 10  1  0
 10 11  2  0
 11 12  1  0
 12 13  2  0
 13 14  1  0
  8 15  1  0
 15 16  1  0
  2 17  1  0
 17 18  2  0
 18 19  1  0
 19 20  2  0
 20 21  1  0
 21 22  1  0
 22 23  1  0
 23 24  2  0
 24 25  1  0
 25 26  2  0
 21 27  2  0
 16  5  1  0
 27 17  1  0
 14 10  1  0
 26 22  1  0
  3 28  1  0
  4 29  1  0
  4 30  1  0
  5 31  1  0
  6 32  1  0
  6 33  1  0
  7 34  1  0
  7 35  1  0
  9 36  1  0
  9 37  1  0
 11 38  1  0
 12 39  1  0
 13 40  1  0
 15 41  1  0
 15 42  1  0
 16 43  1  0
 16 44  1  0
 18 45  1  0
 19 46  1  0
 23 47  1  0
 25 48  1  0
 27 49  1  0
M  END
$$$$
OCNT-2310648
     RDKit          3D

 48 51  0  0  0  0  0  0  0  0999 V2000
    7.1861    3.2416    1.4239 N   0  0  0  0  0  0  0  0  0  0  0  0
    6.6958    2.8256    0.2166 C   0  0  0  0  0  0  0  0  0  0  0  0
    7.0596    3.3580   -0.8239 O   0  0  0  0  0  0  0  0  0  0  0  0
    5.6804    1.7393    0.2266 C   0  0  0  0  0  0  0  0  0  0  0  0
    4.8225    1.6200   -0.8693 C   0  0  0  0  0  0  0  0  0  0  0  0
    3.8531    0.6111   -0.8978 C   0  0  0  0  0  0  0  0  0  0  0  0
    3.7230   -0.3098    0.1571 C   0  0  0  0  0  0  0  0  0  0  0  0
    2.6769   -1.3507    0.0655 C   0  0  0  0  0  0  0  0  0  0  0  0
    1.7621   -1.3866   -0.8860 N   0  0  0  0  0  0  0  0  0  0  0  0
    0.9010   -2.4643   -0.7165 C   0  0  0  0  0  0  0  0  0  0  0  0
   -0.2155   -2.6723   -1.7011 C   0  0  0  0  0  0  0  0  0  0  0  0
   -1.4435   -1.9210   -1.4057 N   0  0  0  0  0  0  0  0  0  0  0  0
   -2.1031   -2.3107   -0.1483 C   0  0  0  0  0  0  0  0  0  0  0  0
   -3.4499   -1.5737    0.0602 C   0  0  0  0  0  0  0  0  0  0  0  0
   -3.2535   -0.1090   -0.0011 N   0  0  0  0  0  0  0  0  0  0  0  0
   -4.4342    0.6139    0.2559 C   0  0  0  0  0  0  0  0  0  0  0  0
   -5.0502    0.4999    1.5087 C   0  0  0  0  0  0  0  0  0  0  0  0
   -6.2111    1.2212    1.7894 C   0  0  0  0  0  0  0  0  0  0  0  0
   -6.7273    2.0503    0.8129 C   0  0  0  0  0  0  0  0  0  0  0  0
   -7.8381    2.7607    1.0418 F   0  0  0  0  0  0  0  0  0  0  0  0
   -6.0685    2.1345   -0.3961 C   0  0  0  0  0  0  0  0  0  0  0  0
   -4.9400    1.4424   -0.6875 N   0  0  0  0  0  0  0  0  0  0  0  0
   -2.5866    0.3057   -1.2579 C   0  0  0  0  0  0  0  0  0  0  0  0
   -1.2520   -0.4555   -1.4378 C   0  0  0  0  0  0  0  0  0  0  0  0
    1.2079   -3.2692    0.3631 C   0  0  0  0  0  0  0  0  0  0  0  0
    2.5621   -2.6462    1.1986 S   0  0  0  0  0  0  0  0  0  0  0  0
    4.6024   -0.1835    1.2460 C   0  0  0  0  0  0  0  0  0  0  0  0
    5.5740    0.8276    1.2814 C   0  0  0  0  0  0  0  0  0  0  0  0
    7.7689    4.0691    1.3938 H   0  0  0  0  0  0  0  0  0  0  0  0
    6.7032    3.0512    2.2897 H   0  0  0  0  0  0  0  0  0  0  0  0
    4.9009    2.3125   -1.7055 H   0  0  0  0  0  0  0  0  0  0  0  0
    3.1931    0.5448   -1.7626 H   0  0  0  0  0  0  0  0  0  0  0  0
   -0.4548   -3.7417   -1.7612 H   0  0  0  0  0  0  0  0  0  0  0  0
    0.1405   -2.3990   -2.7026 H   0  0  0  0  0  0  0  0  0  0  0  0
   -2.3023   -3.3889   -0.1539 H   0  0  0  0  0  0  0  0  0  0  0  0
   -1.4587   -2.0968    0.7135 H   0  0  0  0  0  0  0  0  0  0  0  0
   -3.8479   -1.8827    1.0335 H   0  0  0  0  0  0  0  0  0  0  0  0
   -4.1650   -1.8920   -0.7106 H   0  0  0  0  0  0  0  0  0  0  0  0
   -4.6135   -0.1280    2.2781 H   0  0  0  0  0  0  0  0  0  0  0  0
   -6.6966    1.1454    2.7555 H   0  0  0  0  0  0  0  0  0  0  0  0
   -6.4391    2.7799   -1.1849 H   0  0  0  0  0  0  0  0  0  0  0  0
   -3.2308    0.1045   -2.1249 H   0  0  0  0  0  0  0  0  0  0  0  0
   -2.3637    1.3800   -1.2329 H   0  0  0  0  0  0  0  0  0  0  0  0
   -0.5660   -0.1329   -0.6448 H   0  0  0  0  0  0  0  0  0  0  0  0
   -0.8157   -0.1588   -2.3990 H   0  0  0  0  0  0  0  0  0  0  0  0
    0.7059   -4.1666    0.6943 H   0  0  0  0  0  0  0  0  0  0  0  0
    4.5557   -0.8684    2.0894 H   0  0  0  0  0  0  0  0  0  0  0  0
    6.2526    0.8690    2.1287 H   0  0  0  0  0  0  0  0  0  0  0  0
  1  2  1  0
  2  3  2  0
  2  4  1  0
  4  5  1  0
  5  6  2  0
  6  7  1  0
  7  8  1  0
  8  9  2  0
  9 10  1  0
 10 11  1  0
 11 12  1  0
 12 13  1  0
 13 14  1  0
 14 15  1  0
 15 16  1  0
 16 17  2  0
 17 18  1  0
 18 19  2  0
 19 20  1  0
 19 21  1  0
 21 22  2  0
 15 23  1  0
 23 24  1  0
 10 25  2  0
 25 26  1  0
  7 27  2  0
 27 28  1  0
 28  4  2  0
 26  8  1  0
 24 12  1  0
 22 16  1  0
  1 29  1  0
  1 30  1  0
  5 31  1  0
  6 32  1  0
 11 33  1  0
 11 34  1  0
 13 35  1  0
 13 36  1  0
 14 37  1  0
 14 38  1  0
 17 39  1  0
 18 40  1  0
 21 41  1  0
 23 42  1  0
 23 43  1  0
 24 44  1  0
 24 45  1  0
 25 46  1  0
 27 47  1  0
 28 48  1  0
M  END
$$$$
OCNT-2310650
     RDKit          3D

 41 44  0  0  0  0  0  0  0  0999 V2000
    6.3010    0.2623   -1.8444 C   0  0  0  0  0  0  0  0  0  0  0  0
    5.3848   -0.2947   -0.9652 C   0  0  0  0  0  0  0  0  0  0  0  0
    4.1268    0.3004   -0.8422 C   0  0  0  0  0  0  0  0  0  0  0  0
    3.1149   -0.2377    0.0644 C   0  0  0  0  0  0  0  0  0  0  0  0
    1.7350   -0.2479   -0.0050 C   0  0  0  0  0  0  0  0  0  0  0  0
    1.2912   -0.9033    1.1694 C   0  0  0  0  0  0  0  0  0  0  0  0
   -0.1174   -1.2002    1.6067 C   0  0  0  0  0  0  0  0  0  0  0  0
   -0.8688    0.0936    1.9582 C   0  0  0  0  0  0  0  0  0  0  0  0
   -2.3783   -0.1206    1.9787 C   0  0  0  0  0  0  0  0  0  0  0  0
   -2.8551   -0.6288    0.6897 N   0  0  0  0  0  0  0  0  0  0  0  0
   -3.9422   -0.0028    0.0816 C   0  0  0  0  0  0  0  0  0  0  0  0
   -5.0409    0.4706    0.8138 C   0  0  0  0  0  0  0  0  0  0  0  0
   -6.1285    1.0821    0.2720 N   0  0  0  0  0  0  0  0  0  0  0  0
   -6.0998    1.1958   -1.0688 C   0  0  0  0  0  0  0  0  0  0  0  0
   -5.0420    0.7229   -1.8204 C   0  0  0  0  0  0  0  0  0  0  0  0
   -3.9614    0.1217   -1.2674 N   0  0  0  0  0  0  0  0  0  0  0  0
   -1.8806   -1.2362   -0.2195 C   0  0  0  0  0  0  0  0  0  0  0  0
   -0.8773   -2.0603    0.5818 C   0  0  0  0  0  0  0  0  0  0  0  0
    2.3226   -1.2687    1.9382 N   0  0  0  0  0  0  0  0  0  0  0  0
    3.4014   -0.8517    1.2573 N   0  0  0  0  0  0  0  0  0  0  0  0
    3.8490    1.4275   -1.6189 C   0  0  0  0  0  0  0  0  0  0  0  0
    4.8324    1.9125   -2.4663 C   0  0  0  0  0  0  0  0  0  0  0  0
    6.0540    1.3554   -2.5942 N   0  0  0  0  0  0  0  0  0  0  0  0
    7.2876   -0.1738   -1.9749 H   0  0  0  0  0  0  0  0  0  0  0  0
    5.6572   -1.1875   -0.4140 H   0  0  0  0  0  0  0  0  0  0  0  0
    1.1250    0.1532   -0.8024 H   0  0  0  0  0  0  0  0  0  0  0  0
   -0.0541   -1.8015    2.5259 H   0  0  0  0  0  0  0  0  0  0  0  0
   -0.5307    0.4633    2.9344 H   0  0  0  0  0  0  0  0  0  0  0  0
   -0.6359    0.8874    1.2355 H   0  0  0  0  0  0  0  0  0  0  0  0
   -2.8427    0.8360    2.2467 H   0  0  0  0  0  0  0  0  0  0  0  0
   -2.6444   -0.8408    2.7615 H   0  0  0  0  0  0  0  0  0  0  0  0
   -5.0900    0.3494    1.8902 H   0  0  0  0  0  0  0  0  0  0  0  0
   -6.9556    1.6757   -1.5283 H   0  0  0  0  0  0  0  0  0  0  0  0
   -5.0305    0.8131   -2.9002 H   0  0  0  0  0  0  0  0  0  0  0  0
   -1.3605   -0.4674   -0.8044 H   0  0  0  0  0  0  0  0  0  0  0  0
   -2.3851   -1.9110   -0.9227 H   0  0  0  0  0  0  0  0  0  0  0  0
   -0.1934   -2.5847   -0.0963 H   0  0  0  0  0  0  0  0  0  0  0  0
   -1.4286   -2.8410    1.1242 H   0  0  0  0  0  0  0  0  0  0  0  0
    4.3131   -1.0051    1.6723 H   0  0  0  0  0  0  0  0  0  0  0  0
    2.8918    1.9347   -1.5650 H   0  0  0  0  0  0  0  0  0  0  0  0
    4.6565    2.7900   -3.0821 H   0  0  0  0  0  0  0  0  0  0  0  0
  1  2  1  0
  2  3  2  0
  3  4  1  0
  4  5  2  0
  5  6  1  0
  6  7  1  0
  7  8  1  0
  8  9  1  0
  9 10  1  0
 10 11  1  0
 11 12  2  0
 12 13  1  0
 13 14  2  0
 14 15  1  0
 15 16  2  0
 10 17  1  0
 17 18  1  0
  6 19  2  0
 19 20  1  0
  3 21  1  0
 21 22  2  0
 22 23  1  0
 23  1  2  0
 20  4  1  0
 18  7  1  0
 16 11  1  0
  1 24  1  0
  2 25  1  0
  5 26  1  0
  7 27  1  0
  8 28  1  0
  8 29  1  0
  9 30  1  0
  9 31  1  0
 12 32  1  0
 14 33  1  0
 15 34  1  0
 17 35  1  0
 17 36  1  0
 18 37  1  0
 18 38  1  0
 20 39  1  0
 21 40  1  0
 22 41  1  0
M  END
$$$$
OCNT-2310655
     RDKit          3D

 47 49  0  0  0  0  0  0  0  0999 V2000
   -6.9484   -0.0238    1.1260 C   0  0  0  0  0  0  0  0  0  0  0  0
   -5.9366    1.1042    1.0110 C   0  0  0  0  0  0  0  0  0  0  0  0
   -4.7719    0.7025    0.2321 N   0  0  0  0  0  0  0  0  0  0  0  0
   -3.7334    0.1433    0.9419 N   0  0  0  0  0  0  0  0  0  0  0  0
   -2.6944   -0.2626    0.2800 C   0  0  0  0  0  0  0  0  0  0  0  0
   -1.5279   -0.7893    1.0888 C   0  0  0  0  0  0  0  0  0  0  0  0
   -0.5106   -1.5512    0.2535 C   0  0  0  0  0  0  0  0  0  0  0  0
   -0.1671   -0.7740   -0.9526 N   0  0  0  0  0  0  0  0  0  0  0  0
    0.9793   -1.4052   -1.6662 C   0  0  0  0  0  0  0  0  0  0  0  0
    2.2969   -1.1431   -0.9232 C   0  0  0  0  0  0  0  0  0  0  0  0
    3.1413   -2.0245   -0.8060 O   0  0  0  0  0  0  0  0  0  0  0  0
    2.3467    0.1482   -0.4227 N   0  0  0  0  0  0  0  0  0  0  0  0
    3.4277    0.7685    0.2352 C   0  0  0  0  0  0  0  0  0  0  0  0
    3.0959    1.7278    1.2025 C   0  0  0  0  0  0  0  0  0  0  0  0
    4.0974    2.3856    1.9166 C   0  0  0  0  0  0  0  0  0  0  0  0
    3.6693    3.5392    3.1199 Cl  0  0  0  0  0  0  0  0  0  0  0  0
    5.4388    2.1226    1.6601 C   0  0  0  0  0  0  0  0  0  0  0  0
    5.7817    1.2030    0.6689 C   0  0  0  0  0  0  0  0  0  0  0  0
    4.7836    0.5213   -0.0424 C   0  0  0  0  0  0  0  0  0  0  0  0
    5.1283   -0.2449   -1.1260 O   0  0  0  0  0  0  0  0  0  0  0  0
    6.0513   -1.2828   -0.7971 C   0  0  0  0  0  0  0  0  0  0  0  0
   -1.3367   -0.7486   -1.8461 C   0  0  0  0  0  0  0  0  0  0  0  0
   -2.5579   -0.1900   -1.1917 C   0  0  0  0  0  0  0  0  0  0  0  0
   -3.5692    0.3833   -1.8513 C   0  0  0  0  0  0  0  0  0  0  0  0
   -4.7744    0.8609   -1.1455 C   0  0  0  0  0  0  0  0  0  0  0  0
   -5.6910    1.3460   -1.8034 O   0  0  0  0  0  0  0  0  0  0  0  0
   -7.8115    0.2973    1.7171 H   0  0  0  0  0  0  0  0  0  0  0  0
   -6.5058   -0.8994    1.6123 H   0  0  0  0  0  0  0  0  0  0  0  0
   -7.3054   -0.3356    0.1390 H   0  0  0  0  0  0  0  0  0  0  0  0
   -5.6013    1.4167    2.0065 H   0  0  0  0  0  0  0  0  0  0  0  0
   -6.4069    1.9714    0.5342 H   0  0  0  0  0  0  0  0  0  0  0  0
   -1.9114   -1.4381    1.8848 H   0  0  0  0  0  0  0  0  0  0  0  0
   -1.0496    0.0739    1.5688 H   0  0  0  0  0  0  0  0  0  0  0  0
    0.3752   -1.7173    0.8780 H   0  0  0  0  0  0  0  0  0  0  0  0
   -0.9024   -2.5416   -0.0145 H   0  0  0  0  0  0  0  0  0  0  0  0
    1.1014   -0.9636   -2.6631 H   0  0  0  0  0  0  0  0  0  0  0  0
    0.8341   -2.4856   -1.7837 H   0  0  0  0  0  0  0  0  0  0  0  0
    1.4217    0.5538   -0.3044 H   0  0  0  0  0  0  0  0  0  0  0  0
    2.0554    1.9508    1.4227 H   0  0  0  0  0  0  0  0  0  0  0  0
    6.2195    2.6470    2.2044 H   0  0  0  0  0  0  0  0  0  0  0  0
    6.8307    1.0560    0.4286 H   0  0  0  0  0  0  0  0  0  0  0  0
    5.9831   -2.0501   -1.5743 H   0  0  0  0  0  0  0  0  0  0  0  0
    5.8185   -1.7530    0.1654 H   0  0  0  0  0  0  0  0  0  0  0  0
    7.0758   -0.8980   -0.7976 H   0  0  0  0  0  0  0  0  0  0  0  0
   -1.0945   -0.1367   -2.7247 H   0  0  0  0  0  0  0  0  0  0  0  0
   -1.5659   -1.7604   -2.2081 H   0  0  0  0  0  0  0  0  0  0  0  0
   -3.5794    0.4964   -2.9281 H   0  0  0  0  0  0  0  0  0  0  0  0
  1  2  1  0
  2  3  1  0
  3  4  1  0
  4  5  2  0
  5  6  1  0
  6  7  1  0
  7  8  1  0
  8  9  1  0
  9 10  1  0
 10 11  2  0
 10 12  1  0
 12 13  1  0
 13 14  1  0
 14 15  2  0
 15 16  1  0
 15 17  1  0
 17 18  2  0
 18 19  1  0
 19 20  1  0
 20 21  1  0
  8 22  1  0
 22 23  1  0
 23 24  2  0
 24 25  1  0
 25 26  2  0
 25  3  1  0
 23  5  1  0
 19 13  2  0
  1 27  1  0
  1 28  1  0
  1 29  1  0
  2 30  1  0
  2 31  1  0
  6 32  1  0
  6 33  1  0
  7 34  1  0
  7 35  1  0
  9 36  1  0
  9 37  1  0
 12 38  1  0
 14 39  1  0
 17 40  1  0
 18 41  1  0
 21 42  1  0
 21 43  1  0
 21 44  1  0
 22 45  1  0
 22 46  1  0
 24 47  1  0
M  END
$$$$
OCNT-2310665
     RDKit          3D

 50 52  0  0  0  0  0  0  0  0999 V2000
    1.6126    2.0970   -1.6003 O   0  0  0  0  0  0  0  0  0  0  0  0
    1.7201    0.9653   -1.1431 C   0  0  0  0  0  0  0  0  0  0  0  0
    0.6512    0.1183   -0.9376 N   0  0  0  0  0  0  0  0  0  0  0  0
   -0.7231    0.5502   -1.1652 C   0  0  0  0  0  0  0  0  0  0  0  0
   -1.2477    1.3561    0.0265 C   0  0  0  0  0  0  0  0  0  0  0  0
   -2.7340    1.6801   -0.1401 C   0  0  0  0  0  0  0  0  0  0  0  0
   -3.5829    0.4943   -0.3760 N   0  0  0  0  0  0  0  0  0  0  0  0
   -3.7401   -0.3609    0.8243 C   0  0  0  0  0  0  0  0  0  0  0  0
   -4.6321   -1.6007    0.6114 C   0  0  0  0  0  0  0  0  0  0  0  0
   -6.0581   -1.0588    0.5896 C   0  0  0  0  0  0  0  0  0  0  0  0
   -6.0236    0.1966    1.4602 C   0  0  0  0  0  0  0  0  0  0  0  0
   -4.5734    0.3324    1.9215 C   0  0  0  0  0  0  0  0  0  0  0  0
   -3.0849   -0.2081   -1.5707 C   0  0  0  0  0  0  0  0  0  0  0  0
   -1.6270   -0.6501   -1.4534 C   0  0  0  0  0  0  0  0  0  0  0  0
    3.0660    0.4282   -0.8038 C   0  0  0  0  0  0  0  0  0  0  0  0
    4.1660    0.8799   -1.5471 C   0  0  0  0  0  0  0  0  0  0  0  0
    5.4500    0.4080   -1.2661 C   0  0  0  0  0  0  0  0  0  0  0  0
    5.6319   -0.5016   -0.2211 C   0  0  0  0  0  0  0  0  0  0  0  0
    7.2645   -1.1251    0.1241 S   0  0  0  0  0  0  0  0  0  0  0  0
    8.0012   -1.1010   -1.1295 O   0  0  0  0  0  0  0  0  0  0  0  0
    7.0961   -2.3864    0.8291 O   0  0  0  0  0  0  0  0  0  0  0  0
    7.9390    0.1068    1.2495 C   0  0  0  0  0  0  0  0  0  0  0  0
    7.9990    1.3498    0.6915 F   0  0  0  0  0  0  0  0  0  0  0  0
    7.1954    0.2376    2.3860 F   0  0  0  0  0  0  0  0  0  0  0  0
    4.5436   -0.9583    0.5295 C   0  0  0  0  0  0  0  0  0  0  0  0
    3.2600   -0.4849    0.2423 C   0  0  0  0  0  0  0  0  0  0  0  0
    0.8073   -0.8184   -0.5926 H   0  0  0  0  0  0  0  0  0  0  0  0
   -0.7222    1.2031   -2.0484 H   0  0  0  0  0  0  0  0  0  0  0  0
   -1.0793    0.8065    0.9608 H   0  0  0  0  0  0  0  0  0  0  0  0
   -0.6834    2.2918    0.1216 H   0  0  0  0  0  0  0  0  0  0  0  0
   -3.0791    2.2605    0.7203 H   0  0  0  0  0  0  0  0  0  0  0  0
   -2.8530    2.3605   -0.9944 H   0  0  0  0  0  0  0  0  0  0  0  0
   -2.7678   -0.6724    1.2199 H   0  0  0  0  0  0  0  0  0  0  0  0
   -4.5185   -2.2743    1.4723 H   0  0  0  0  0  0  0  0  0  0  0  0
   -4.3990   -2.2017   -0.2698 H   0  0  0  0  0  0  0  0  0  0  0  0
   -6.7721   -1.7975    0.9668 H   0  0  0  0  0  0  0  0  0  0  0  0
   -6.3575   -0.7990   -0.4320 H   0  0  0  0  0  0  0  0  0  0  0  0
   -6.7058    0.1206    2.3128 H   0  0  0  0  0  0  0  0  0  0  0  0
   -6.3260    1.0698    0.8710 H   0  0  0  0  0  0  0  0  0  0  0  0
   -4.3083    1.3715    2.1272 H   0  0  0  0  0  0  0  0  0  0  0  0
   -4.4437   -0.2102    2.8680 H   0  0  0  0  0  0  0  0  0  0  0  0
   -3.1809    0.4679   -2.4319 H   0  0  0  0  0  0  0  0  0  0  0  0
   -3.7174   -1.0604   -1.8339 H   0  0  0  0  0  0  0  0  0  0  0  0
   -1.3133   -1.1303   -2.3887 H   0  0  0  0  0  0  0  0  0  0  0  0
   -1.5213   -1.4104   -0.6693 H   0  0  0  0  0  0  0  0  0  0  0  0
    4.0194    1.5970   -2.3539 H   0  0  0  0  0  0  0  0  0  0  0  0
    6.2905    0.7551   -1.8644 H   0  0  0  0  0  0  0  0  0  0  0  0
    8.9498   -0.2037    1.5252 H   0  0  0  0  0  0  0  0  0  0  0  0
    4.6824   -1.6728    1.3389 H   0  0  0  0  0  0  0  0  0  0  0  0
    2.4294   -0.8178    0.8586 H   0  0  0  0  0  0  0  0  0  0  0  0
  1  2  2  0
  2  3  1  0
  3  4  1  0
  4  5  1  0
  5  6  1  0
  6  7  1  0
  7  8  1  0
  8  9  1  0
  9 10  1  0
 10 11  1  0
 11 12  1  0
  7 13  1  0
 13 14  1  0
  2 15  1  0
 15 16  1  0
 16 17  2  0
 17 18  1  0
 18 19  1  0
 19 20  2  0
 19 21  2  0
 19 22  1  0
 22 23  1  0
 22 24  1  0
 18 25  2  0
 25 26  1  0
 14  4  1  0
 26 15  2  0
 12  8  1  0
  3 27  1  0
  4 28  1  0
  5 29  1  0
  5 30  1  0
  6 31  1  0
  6 32  1  0
  8 33  1  0
  9 34  1  0
  9 35  1  0
 10 36  1  0
 10 37  1  0
 11 38  1  0
 11 39  1  0
 12 40  1  0
 12 41  1  0
 13 42  1  0
 13 43  1  0
 14 44  1  0
 14 45  1  0
 16 46  1  0
 17 47  1  0
 22 48  1  0
 25 49  1  0
 26 50  1  0
M  END
$$$$
OCNT-2310680
     RDKit          3D

 51 54  0  0  0  0  0  0  0  0999 V2000
   -3.0226   -0.3140    1.4308 C   0  0  0  0  0  0  0  0  0  0  0  0
   -3.8063    0.2756    0.2420 C   0  0  0  0  0  0  0  0  0  0  0  0
   -4.9089   -0.7040   -0.1324 C   0  0  0  0  0  0  0  0  0  0  0  0
   -4.7895   -1.7355   -1.2319 C   0  0  0  0  0  0  0  0  0  0  0  0
   -5.7233   -0.5652   -1.3991 C   0  0  0  0  0  0  0  0  0  0  0  0
   -2.8054    0.5740   -0.9177 C   0  0  0  0  0  0  0  0  0  0  0  0
   -1.9474    1.7355   -0.6474 N   0  0  0  0  0  0  0  0  0  0  0  0
   -0.6751    1.9551   -1.1385 C   0  0  0  0  0  0  0  0  0  0  0  0
   -0.0966    3.0309   -1.0042 O   0  0  0  0  0  0  0  0  0  0  0  0
   -0.1129    0.9025   -1.8086 N   0  0  0  0  0  0  0  0  0  0  0  0
    1.2326    0.9955   -2.3373 C   0  0  0  0  0  0  0  0  0  0  0  0
    2.2274    0.3712   -1.3905 C   0  0  0  0  0  0  0  0  0  0  0  0
    2.6644   -0.9459   -1.5747 C   0  0  0  0  0  0  0  0  0  0  0  0
    3.5611   -1.5285   -0.6728 C   0  0  0  0  0  0  0  0  0  0  0  0
    4.0377   -0.8151    0.4387 C   0  0  0  0  0  0  0  0  0  0  0  0
    4.9738   -1.4316    1.3898 C   0  0  0  0  0  0  0  0  0  0  0  0
    6.1940   -1.9662    0.9622 C   0  0  0  0  0  0  0  0  0  0  0  0
    7.0420   -2.5382    1.8976 C   0  0  0  0  0  0  0  0  0  0  0  0
    6.7639   -2.6164    3.2155 N   0  0  0  0  0  0  0  0  0  0  0  0
    5.5845   -2.0978    3.6138 C   0  0  0  0  0  0  0  0  0  0  0  0
    4.6725   -1.5051    2.7541 C   0  0  0  0  0  0  0  0  0  0  0  0
    3.5901    0.5027    0.6180 C   0  0  0  0  0  0  0  0  0  0  0  0
    2.6956    1.0885   -0.2830 C   0  0  0  0  0  0  0  0  0  0  0  0
   -2.6097    2.8498    0.0313 C   0  0  0  0  0  0  0  0  0  0  0  0
   -4.1243    2.6650    0.0962 C   0  0  0  0  0  0  0  0  0  0  0  0
   -4.4776    1.4473    0.7525 O   0  0  0  0  0  0  0  0  0  0  0  0
   -3.6895   -0.5123    2.2787 H   0  0  0  0  0  0  0  0  0  0  0  0
   -2.2621    0.3851    1.7970 H   0  0  0  0  0  0  0  0  0  0  0  0
   -2.5309   -1.2545    1.1600 H   0  0  0  0  0  0  0  0  0  0  0  0
   -5.4820   -0.9834    0.7499 H   0  0  0  0  0  0  0  0  0  0  0  0
   -3.9113   -1.7707   -1.8630 H   0  0  0  0  0  0  0  0  0  0  0  0
   -5.2335   -2.7112   -1.0562 H   0  0  0  0  0  0  0  0  0  0  0  0
   -6.7908   -0.7513   -1.3299 H   0  0  0  0  0  0  0  0  0  0  0  0
   -5.4687    0.2039   -2.1174 H   0  0  0  0  0  0  0  0  0  0  0  0
   -2.2136   -0.3183   -1.1364 H   0  0  0  0  0  0  0  0  0  0  0  0
   -3.3382    0.8266   -1.8414 H   0  0  0  0  0  0  0  0  0  0  0  0
   -0.3529   -0.0089   -1.4591 H   0  0  0  0  0  0  0  0  0  0  0  0
    1.2367    0.4593   -3.2931 H   0  0  0  0  0  0  0  0  0  0  0  0
    1.5053    2.0353   -2.5509 H   0  0  0  0  0  0  0  0  0  0  0  0
    2.3104   -1.5315   -2.4207 H   0  0  0  0  0  0  0  0  0  0  0  0
    3.8774   -2.5569   -0.8371 H   0  0  0  0  0  0  0  0  0  0  0  0
    6.4901   -1.9286   -0.0808 H   0  0  0  0  0  0  0  0  0  0  0  0
    7.9986   -2.9581    1.6009 H   0  0  0  0  0  0  0  0  0  0  0  0
    5.3806   -2.1745    4.6777 H   0  0  0  0  0  0  0  0  0  0  0  0
    3.7369   -1.1193    3.1439 H   0  0  0  0  0  0  0  0  0  0  0  0
    3.9432    1.0930    1.4622 H   0  0  0  0  0  0  0  0  0  0  0  0
    2.3607    2.1116   -0.1137 H   0  0  0  0  0  0  0  0  0  0  0  0
   -2.3691    3.7919   -0.4725 H   0  0  0  0  0  0  0  0  0  0  0  0
   -2.1898    2.8895    1.0431 H   0  0  0  0  0  0  0  0  0  0  0  0
   -4.5711    2.6715   -0.9053 H   0  0  0  0  0  0  0  0  0  0  0  0
   -4.5761    3.4872    0.6599 H   0  0  0  0  0  0  0  0  0  0  0  0
  1  2  1  0
  2  3  1  0
  3  4  1  0
  4  5  1  0
  2  6  1  0
  6  7  1  0
  7  8  1  0
  8  9  2  0
  8 10  1  0
 10 11  1  0
 11 12  1  0
 12 13  1  0
 13 14  2  0
 14 15  1  0
 15 16  1  0
 16 17  2  0
 17 18  1  0
 18 19  2  0
 19 20  1  0
 20 21  2  0
 15 22  2  0
 22 23  1  0
  7 24  1  0
 24 25  1  0
 25 26  1  0
 26  2  1  0
  5  3  1  0
 23 12  2  0
 21 16  1  0
  1 27  1  0
  1 28  1  0
  1 29  1  0
  3 30  1  0
  4 31  1  0
  4 32  1  0
  5 33  1  0
  5 34  1  0
  6 35  1  0
  6 36  1  0
 10 37  1  0
 11 38  1  0
 11 39  1  0
 13 40  1  0
 14 41  1  0
 17 42  1  0
 18 43  1  0
 20 44  1  0
 21 45  1  0
 22 46  1  0
 23 47  1  0
 24 48  1  0
 24 49  1  0
 25 50  1  0
 25 51  1  0
M  END
$$$$
OCNT-2310706
     RDKit          3D

 44 46  0  0  0  0  0  0  0  0999 V2000
   -5.4833    0.3769   -1.1231 C   0  0  0  0  0  0  0  0  0  0  0  0
   -5.1035    1.5969   -0.4941 O   0  0  0  0  0  0  0  0  0  0  0  0
   -3.7361    1.8031   -0.4929 C   0  0  0  0  0  0  0  0  0  0  0  0
   -3.3064    2.9789    0.0633 C   0  0  0  0  0  0  0  0  0  0  0  0
   -1.9472    3.1674    0.0571 C   0  0  0  0  0  0  0  0  0  0  0  0
   -1.3509    4.4150    0.6333 C   0  0  0  0  0  0  0  0  0  0  0  0
   -1.0978    2.2559   -0.4601 N   0  0  0  0  0  0  0  0  0  0  0  0
   -1.6007    1.1255   -0.9839 C   0  0  0  0  0  0  0  0  0  0  0  0
   -0.7350    0.1901   -1.5331 N   0  0  0  0  0  0  0  0  0  0  0  0
   -1.2857   -1.1529   -1.7038 C   0  0  0  0  0  0  0  0  0  0  0  0
   -0.1739   -2.1543   -2.0056 C   0  0  0  0  0  0  0  0  0  0  0  0
    0.8702   -2.1855   -0.8846 C   0  0  0  0  0  0  0  0  0  0  0  0
    1.1693   -0.7946   -0.2805 C   0  0  0  0  0  0  0  0  0  0  0  0
    2.6124   -0.6681   -0.0184 N   0  0  0  0  0  0  0  0  0  0  0  0
    3.1843   -1.0972    1.1822 C   0  0  0  0  0  0  0  0  0  0  0  0
    4.5119   -0.7266    1.4501 C   0  0  0  0  0  0  0  0  0  0  0  0
    5.1788   -1.1661    2.5979 C   0  0  0  0  0  0  0  0  0  0  0  0
    4.5340   -2.0112    3.4934 C   0  0  0  0  0  0  0  0  0  0  0  0
    3.2313   -2.4220    3.2304 C   0  0  0  0  0  0  0  0  0  0  0  0
    2.5706   -1.9784    2.0781 C   0  0  0  0  0  0  0  0  0  0  0  0
    0.6964    0.3167   -1.2510 C   0  0  0  0  0  0  0  0  0  0  0  0
   -2.9177    0.8739   -1.0125 N   0  0  0  0  0  0  0  0  0  0  0  0
   -5.0783   -0.4886   -0.5872 H   0  0  0  0  0  0  0  0  0  0  0  0
   -5.1841    0.3631   -2.1770 H   0  0  0  0  0  0  0  0  0  0  0  0
   -6.5749    0.3093   -1.0867 H   0  0  0  0  0  0  0  0  0  0  0  0
   -3.9976    3.7012    0.4730 H   0  0  0  0  0  0  0  0  0  0  0  0
   -1.6092    4.5037    1.6932 H   0  0  0  0  0  0  0  0  0  0  0  0
   -1.7219    5.2944    0.0977 H   0  0  0  0  0  0  0  0  0  0  0  0
   -0.2594    4.4005    0.5492 H   0  0  0  0  0  0  0  0  0  0  0  0
   -2.0068   -1.1592   -2.5301 H   0  0  0  0  0  0  0  0  0  0  0  0
   -1.8071   -1.4813   -0.7945 H   0  0  0  0  0  0  0  0  0  0  0  0
   -0.5956   -3.1564   -2.1435 H   0  0  0  0  0  0  0  0  0  0  0  0
    0.3159   -1.8875   -2.9508 H   0  0  0  0  0  0  0  0  0  0  0  0
    0.5061   -2.8441   -0.0865 H   0  0  0  0  0  0  0  0  0  0  0  0
    1.7817   -2.6584   -1.2715 H   0  0  0  0  0  0  0  0  0  0  0  0
    0.5997   -0.6659    0.6497 H   0  0  0  0  0  0  0  0  0  0  0  0
    2.9980    0.2303   -0.3020 H   0  0  0  0  0  0  0  0  0  0  0  0
    5.0470   -0.0855    0.7537 H   0  0  0  0  0  0  0  0  0  0  0  0
    6.2030   -0.8539    2.7824 H   0  0  0  0  0  0  0  0  0  0  0  0
    5.0478   -2.3587    4.3852 H   0  0  0  0  0  0  0  0  0  0  0  0
    2.7254   -3.0962    3.9163 H   0  0  0  0  0  0  0  0  0  0  0  0
    1.5624   -2.3396    1.9089 H   0  0  0  0  0  0  0  0  0  0  0  0
    0.9828    1.2972   -0.8525 H   0  0  0  0  0  0  0  0  0  0  0  0
    1.2442    0.2321   -2.1996 H   0  0  0  0  0  0  0  0  0  0  0  0
  1  2  1  0
  2  3  1  0
  3  4  2  0
  4  5  1  0
  5  6  1  0
  5  7  2  0
  7  8  1  0
  8  9  1  0
  9 10  1  0
 10 11  1  0
 11 12  1  0
 12 13  1  0
 13 14  1  0
 14 15  1  0
 15 16  2  0
 16 17  1  0
 17 18  2  0
 18 19  1  0
 19 20  2  0
 13 21  1  0
  8 22  2  0
 22  3  1  0
 21  9  1  0
 20 15  1  0
  1 23  1  0
  1 24  1  0
  1 25  1  0
  4 26  1  0
  6 27  1  0
  6 28  1  0
  6 29  1  0
 10 30  1  0
 10 31  1  0
 11 32  1  0
 11 33  1  0
 12 34  1  0
 12 35  1  0
 13 36  1  0
 14 37  1  0
 16 38  1  0
 17 39  1  0
 18 40  1  0
 19 41  1  0
 20 42  1  0
 21 43  1  0
 21 44  1  0
M  END
$$$$
OCNT-2310736
     RDKit          3D

 44 47  0  0  0  0  0  0  0  0999 V2000
    8.0305    3.0217    0.9441 O   0  0  0  0  0  0  0  0  0  0  0  0
    7.0588    2.2701    0.9726 C   0  0  0  0  0  0  0  0  0  0  0  0
    6.7832    1.3065    2.1266 C   0  0  0  0  0  0  0  0  0  0  0  0
    5.8071    0.2831    2.0069 O   0  0  0  0  0  0  0  0  0  0  0  0
    4.9053    0.4541    0.9945 C   0  0  0  0  0  0  0  0  0  0  0  0
    3.8234   -0.4291    0.9784 C   0  0  0  0  0  0  0  0  0  0  0  0
    2.8565   -0.3568   -0.0327 C   0  0  0  0  0  0  0  0  0  0  0  0
    1.7896   -1.2757    0.0286 N   0  0  0  0  0  0  0  0  0  0  0  0
    0.7953   -1.4751   -0.9046 C   0  0  0  0  0  0  0  0  0  0  0  0
    0.7018   -0.9380   -1.9999 O   0  0  0  0  0  0  0  0  0  0  0  0
   -0.1166   -2.4079   -0.4526 N   0  0  0  0  0  0  0  0  0  0  0  0
   -1.2861   -2.7373   -1.2384 C   0  0  0  0  0  0  0  0  0  0  0  0
   -2.4683   -1.8945   -0.8331 C   0  0  0  0  0  0  0  0  0  0  0  0
   -2.6434   -0.6114   -1.3630 C   0  0  0  0  0  0  0  0  0  0  0  0
   -3.7260    0.1872   -0.9723 C   0  0  0  0  0  0  0  0  0  0  0  0
   -4.6598   -0.2806   -0.0337 C   0  0  0  0  0  0  0  0  0  0  0  0
   -5.7582    0.5401    0.3577 N   0  0  0  0  0  0  0  0  0  0  0  0
   -6.0399    1.8180   -0.0883 C   0  0  0  0  0  0  0  0  0  0  0  0
   -7.1859    2.2138    0.5583 C   0  0  0  0  0  0  0  0  0  0  0  0
   -7.6318    1.2329    1.3902 N   0  0  0  0  0  0  0  0  0  0  0  0
   -6.7683    0.2493    1.2523 C   0  0  0  0  0  0  0  0  0  0  0  0
   -4.4721   -1.5618    0.4972 C   0  0  0  0  0  0  0  0  0  0  0  0
   -5.3063   -2.0875    1.4033 F   0  0  0  0  0  0  0  0  0  0  0  0
   -3.3921   -2.3583    0.1078 C   0  0  0  0  0  0  0  0  0  0  0  0
    2.9900    0.6159   -1.0265 C   0  0  0  0  0  0  0  0  0  0  0  0
    4.0779    1.4965   -1.0194 C   0  0  0  0  0  0  0  0  0  0  0  0
    5.0319    1.4136   -0.0083 C   0  0  0  0  0  0  0  0  0  0  0  0
    6.1204    2.2824   -0.0190 N   0  0  0  0  0  0  0  0  0  0  0  0
    6.5130    1.9177    2.9958 H   0  0  0  0  0  0  0  0  0  0  0  0
    7.7323    0.8092    2.3567 H   0  0  0  0  0  0  0  0  0  0  0  0
    3.7515   -1.1747    1.7656 H   0  0  0  0  0  0  0  0  0  0  0  0
    1.8209   -1.9505    0.7779 H   0  0  0  0  0  0  0  0  0  0  0  0
   -0.2256   -2.4723    0.5474 H   0  0  0  0  0  0  0  0  0  0  0  0
   -1.5022   -3.7973   -1.0642 H   0  0  0  0  0  0  0  0  0  0  0  0
   -1.0817   -2.6219   -2.3089 H   0  0  0  0  0  0  0  0  0  0  0  0
   -1.9274   -0.2198   -2.0868 H   0  0  0  0  0  0  0  0  0  0  0  0
   -3.7986    1.1710   -1.4263 H   0  0  0  0  0  0  0  0  0  0  0  0
   -5.4330    2.3453   -0.8070 H   0  0  0  0  0  0  0  0  0  0  0  0
   -7.7096    3.1565    0.4642 H   0  0  0  0  0  0  0  0  0  0  0  0
   -6.8457   -0.6870    1.7847 H   0  0  0  0  0  0  0  0  0  0  0  0
   -3.2897   -3.3453    0.5515 H   0  0  0  0  0  0  0  0  0  0  0  0
    2.2619    0.7163   -1.8260 H   0  0  0  0  0  0  0  0  0  0  0  0
    4.1609    2.2376   -1.8098 H   0  0  0  0  0  0  0  0  0  0  0  0
    6.2561    2.9439   -0.7717 H   0  0  0  0  0  0  0  0  0  0  0  0
  1  2  2  0
  2  3  1  0
  3  4  1  0
  4  5  1  0
  5  6  1  0
  6  7  2  0
  7  8  1  0
  8  9  1  0
  9 10  2  0
  9 11  1  0
 11 12  1  0
 12 13  1  0
 13 14  1  0
 14 15  2  0
 15 16  1  0
 16 17  1  0
 17 18  1  0
 18 19  2  0
 19 20  1  0
 20 21  2  0
 16 22  2  0
 22 23  1  0
 22 24  1  0
  7 25  1  0
 25 26  2  0
 26 27  1  0
 27 28  1  0
 28  2  1  0
 27  5  2  0
 24 13  2  0
 21 17  1  0
  3 29  1  0
  3 30  1  0
  6 31  1  0
  8 32  1  0
 11 33  1  0
 12 34  1  0
 12 35  1  0
 14 36  1  0
 15 37  1  0
 18 38  1  0
 19 39  1  0
 21 40  1  0
 24 41  1  0
 25 42  1  0
 26 43  1  0
 28 44  1  0
M  END
$$$$
OCNT-2310740
     RDKit          3D

 48 50  0  0  0  0  0  0  0  0999 V2000
   -3.2242   -2.5409   -0.3373 N   0  0  0  0  0  0  0  0  0  0  0  0
   -2.3661   -1.6431   -0.8991 C   0  0  0  0  0  0  0  0  0  0  0  0
   -1.6947   -1.9510   -1.8833 O   0  0  0  0  0  0  0  0  0  0  0  0
   -2.3377   -0.2358   -0.2749 C   0  0  0  0  0  0  0  0  0  0  0  0
   -3.4845    0.6249   -0.8212 C   0  0  0  0  0  0  0  0  0  0  0  0
   -4.8297    0.2977   -0.2133 C   0  0  0  0  0  0  0  0  0  0  0  0
   -5.8036   -0.3794   -0.9607 C   0  0  0  0  0  0  0  0  0  0  0  0
   -7.0396   -0.6938   -0.3914 C   0  0  0  0  0  0  0  0  0  0  0  0
   -7.3081   -0.3308    0.9264 C   0  0  0  0  0  0  0  0  0  0  0  0
   -8.8294   -0.7217    1.6277 Cl  0  0  0  0  0  0  0  0  0  0  0  0
   -6.3512    0.3449    1.6800 C   0  0  0  0  0  0  0  0  0  0  0  0
   -5.1151    0.6595    1.1116 C   0  0  0  0  0  0  0  0  0  0  0  0
   -1.0419    0.3451   -0.6405 N   0  0  0  0  0  0  0  0  0  0  0  0
    0.0035    0.3464    0.2598 C   0  0  0  0  0  0  0  0  0  0  0  0
   -0.1518    0.1221    1.4559 O   0  0  0  0  0  0  0  0  0  0  0  0
    1.3366    0.7240   -0.3497 C   0  0  0  0  0  0  0  0  0  0  0  0
    1.8015   -0.2241   -1.4495 C   0  0  0  0  0  0  0  0  0  0  0  0
    3.3079    0.0194   -1.5169 C   0  0  0  0  0  0  0  0  0  0  0  0
    3.6655    0.4340   -0.1632 N   0  0  0  0  0  0  0  0  0  0  0  0
    4.9640    0.4899    0.2983 C   0  0  0  0  0  0  0  0  0  0  0  0
    5.2445    0.6765    1.6639 C   0  0  0  0  0  0  0  0  0  0  0  0
    6.5559    0.7393    2.1576 C   0  0  0  0  0  0  0  0  0  0  0  0
    7.6368    0.6196    1.2926 C   0  0  0  0  0  0  0  0  0  0  0  0
    7.4016    0.4391   -0.0641 C   0  0  0  0  0  0  0  0  0  0  0  0
    6.0902    0.3777   -0.5443 C   0  0  0  0  0  0  0  0  0  0  0  0
    5.9399    0.2189   -1.8703 F   0  0  0  0  0  0  0  0  0  0  0  0
    2.4767    0.6341    0.6658 C   0  0  0  0  0  0  0  0  0  0  0  0
   -3.7287   -2.3542    0.5202 H   0  0  0  0  0  0  0  0  0  0  0  0
   -3.2297   -3.4843   -0.7026 H   0  0  0  0  0  0  0  0  0  0  0  0
   -2.3994   -0.3360    0.8143 H   0  0  0  0  0  0  0  0  0  0  0  0
   -3.5384    0.5361   -1.9146 H   0  0  0  0  0  0  0  0  0  0  0  0
   -3.2796    1.6861   -0.6243 H   0  0  0  0  0  0  0  0  0  0  0  0
   -5.6071   -0.6705   -1.9912 H   0  0  0  0  0  0  0  0  0  0  0  0
   -7.7868   -1.2187   -0.9808 H   0  0  0  0  0  0  0  0  0  0  0  0
   -6.5617    0.6325    2.7069 H   0  0  0  0  0  0  0  0  0  0  0  0
   -4.3780    1.1936    1.7096 H   0  0  0  0  0  0  0  0  0  0  0  0
   -0.7980    0.2386   -1.6201 H   0  0  0  0  0  0  0  0  0  0  0  0
    1.2681    1.7482   -0.7391 H   0  0  0  0  0  0  0  0  0  0  0  0
    1.3185   -0.0336   -2.4129 H   0  0  0  0  0  0  0  0  0  0  0  0
    1.5956   -1.2667   -1.1752 H   0  0  0  0  0  0  0  0  0  0  0  0
    3.5313    0.8228   -2.2278 H   0  0  0  0  0  0  0  0  0  0  0  0
    3.8181   -0.8984   -1.8282 H   0  0  0  0  0  0  0  0  0  0  0  0
    4.4365    0.7682    2.3848 H   0  0  0  0  0  0  0  0  0  0  0  0
    6.7236    0.8807    3.2225 H   0  0  0  0  0  0  0  0  0  0  0  0
    8.6533    0.6682    1.6725 H   0  0  0  0  0  0  0  0  0  0  0  0
    8.2268    0.3474   -0.7628 H   0  0  0  0  0  0  0  0  0  0  0  0
    2.3563   -0.2128    1.3519 H   0  0  0  0  0  0  0  0  0  0  0  0
    2.5322    1.5602    1.2492 H   0  0  0  0  0  0  0  0  0  0  0  0
  1  2  1  0
  2  3  2  0
  2  4  1  0
  4  5  1  0
  5  6  1  0
  6  7  1  0
  7  8  2  0
  8  9  1  0
  9 10  1  0
  9 11  2  0
 11 12  1  0
  4 13  1  0
 13 14  1  0
 14 15  2  0
 14 16  1  0
 16 17  1  0
 17 18  1  0
 18 19  1  0
 19 20  1  0
 20 21  2  0
 21 22  1  0
 22 23  2  0
 23 24  1  0
 24 25  2  0
 25 26  1  0
 19 27  1  0
 12  6  2  0
 27 16  1  0
 25 20  1  0
  1 28  1  0
  1 29  1  0
  4 30  1  0
  5 31  1  0
  5 32  1  0
  7 33  1  0
  8 34  1  0
 11 35  1  0
 12 36  1  0
 13 37  1  0
 16 38  1  0
 17 39  1  0
 17 40  1  0
 18 41  1  0
 18 42  1  0
 21 43  1  0
 22 44  1  0
 23 45  1  0
 24 46  1  0
 27 47  1  0
 27 48  1  0
M  END
$$$$
OCNT-2310757
     RDKit          3D

 44 47  0  0  0  0  0  0  0  0999 V2000
   -7.2436   -0.4291   -1.0062 C   0  0  0  0  0  0  0  0  0  0  0  0
   -5.9564    0.0580   -0.4380 C   0  0  0  0  0  0  0  0  0  0  0  0
   -5.8950    1.0596    0.5076 C   0  0  0  0  0  0  0  0  0  0  0  0
   -4.7498    1.4968    1.0635 N   0  0  0  0  0  0  0  0  0  0  0  0
   -3.6272    0.8870    0.6590 C   0  0  0  0  0  0  0  0  0  0  0  0
   -2.4752    1.3732    1.2357 O   0  0  0  0  0  0  0  0  0  0  0  0
   -1.2844    0.6371    0.9373 C   0  0  0  0  0  0  0  0  0  0  0  0
   -0.6504    1.1386   -0.3583 C   0  0  0  0  0  0  0  0  0  0  0  0
    0.6147    0.3428   -0.6742 C   0  0  0  0  0  0  0  0  0  0  0  0
    1.3693    0.0129    0.5469 N   0  0  0  0  0  0  0  0  0  0  0  0
    2.7314   -0.2217    0.2729 C   0  0  0  0  0  0  0  0  0  0  0  0
    3.6835    0.5768    0.8299 N   0  0  0  0  0  0  0  0  0  0  0  0
    4.9915    0.3709    0.5563 C   0  0  0  0  0  0  0  0  0  0  0  0
    5.9681    1.2864    1.2294 C   0  0  0  0  0  0  0  0  0  0  0  0
    5.5060   -0.5937   -0.2271 N   0  0  0  0  0  0  0  0  0  0  0  0
    4.5518   -1.3793   -0.7411 C   0  0  0  0  0  0  0  0  0  0  0  0
    3.1835   -1.2751   -0.5498 C   0  0  0  0  0  0  0  0  0  0  0  0
    2.5964   -2.3563   -1.2723 C   0  0  0  0  0  0  0  0  0  0  0  0
    3.6110   -3.0570   -1.8906 C   0  0  0  0  0  0  0  0  0  0  0  0
    4.7938   -2.4486   -1.5591 N   0  0  0  0  0  0  0  0  0  0  0  0
    1.1479    0.9095    1.6830 C   0  0  0  0  0  0  0  0  0  0  0  0
   -0.3173    0.8417    2.1143 C   0  0  0  0  0  0  0  0  0  0  0  0
   -3.5638   -0.1023   -0.2472 N   0  0  0  0  0  0  0  0  0  0  0  0
   -4.7397   -0.4999   -0.7695 C   0  0  0  0  0  0  0  0  0  0  0  0
   -7.1038   -0.8049   -2.0253 H   0  0  0  0  0  0  0  0  0  0  0  0
   -7.9798    0.3800   -1.0568 H   0  0  0  0  0  0  0  0  0  0  0  0
   -7.6486   -1.2351   -0.3865 H   0  0  0  0  0  0  0  0  0  0  0  0
   -6.7915    1.5610    0.8624 H   0  0  0  0  0  0  0  0  0  0  0  0
   -1.4885   -0.4411    0.8726 H   0  0  0  0  0  0  0  0  0  0  0  0
   -1.3470    1.0776   -1.2018 H   0  0  0  0  0  0  0  0  0  0  0  0
   -0.4134    2.2065   -0.2594 H   0  0  0  0  0  0  0  0  0  0  0  0
    0.3182   -0.5876   -1.1711 H   0  0  0  0  0  0  0  0  0  0  0  0
    1.2192    0.9220   -1.3848 H   0  0  0  0  0  0  0  0  0  0  0  0
    5.5260    2.2756    1.3834 H   0  0  0  0  0  0  0  0  0  0  0  0
    6.8689    1.4060    0.6196 H   0  0  0  0  0  0  0  0  0  0  0  0
    6.2518    0.8712    2.2008 H   0  0  0  0  0  0  0  0  0  0  0  0
    1.5434   -2.5995   -1.3213 H   0  0  0  0  0  0  0  0  0  0  0  0
    3.5945   -3.9346   -2.5229 H   0  0  0  0  0  0  0  0  0  0  0  0
    5.7182   -2.7347   -1.8466 H   0  0  0  0  0  0  0  0  0  0  0  0
    1.4080    1.9423    1.4143 H   0  0  0  0  0  0  0  0  0  0  0  0
    1.7650    0.6272    2.5460 H   0  0  0  0  0  0  0  0  0  0  0  0
   -0.5666    1.7442    2.6865 H   0  0  0  0  0  0  0  0  0  0  0  0
   -0.4532    0.0066    2.8143 H   0  0  0  0  0  0  0  0  0  0  0  0
   -4.6668   -1.3110   -1.4891 H   0  0  0  0  0  0  0  0  0  0  0  0
  1  2  1  0
  2  3  2  0
  3  4  1  0
  4  5  2  0
  5  6  1  0
  6  7  1  0
  7  8  1  0
  8  9  1  0
  9 10  1  0
 10 11  1  0
 11 12  1  0
 12 13  2  0
 13 14  1  0
 13 15  1  0
 15 16  2  0
 16 17  1  0
 17 18  1  0
 18 19  2  0
 19 20  1  0
 10 21  1  0
 21 22  1  0
  5 23  1  0
 23 24  2  0
 24  2  1  0
 22  7  1  0
 17 11  2  0
 20 16  1  0
  1 25  1  0
  1 26  1  0
  1 27  1  0
  3 28  1  0
  7 29  1  0
  8 30  1  0
  8 31  1  0
  9 32  1  0
  9 33  1  0
 14 34  1  0
 14 35  1  0
 14 36  1  0
 18 37  1  0
 19 38  1  0
 20 39  1  0
 21 40  1  0
 21 41  1  0
 22 42  1  0
 22 43  1  0
 24 44  1  0
M  END
$$$$
OCNT-2310758
     RDKit          3D

 37 39  0  0  0  0  0  0  0  0999 V2000
    5.6518    1.2703    0.4968 C   0  0  0  0  0  0  0  0  0  0  0  0
    4.6435    0.3125    0.0851 N   0  0  0  0  0  0  0  0  0  0  0  0
    5.0309   -0.8956   -0.4396 C   0  0  0  0  0  0  0  0  0  0  0  0
    4.1250   -1.8182   -0.7711 C   0  0  0  0  0  0  0  0  0  0  0  0
    2.7723   -1.6699   -0.6571 N   0  0  0  0  0  0  0  0  0  0  0  0
    2.2990   -0.5468   -0.1651 C   0  0  0  0  0  0  0  0  0  0  0  0
    0.9054   -0.3816   -0.0902 N   0  0  0  0  0  0  0  0  0  0  0  0
    0.2861    0.8668    0.4023 C   0  0  0  0  0  0  0  0  0  0  0  0
   -1.1941    0.9950   -0.0214 C   0  0  0  0  0  0  0  0  0  0  0  0
   -1.9571   -0.2090    0.3747 N   0  0  0  0  0  0  0  0  0  0  0  0
   -3.3366   -0.1024    0.0934 C   0  0  0  0  0  0  0  0  0  0  0  0
   -3.7336    0.7380   -0.8955 N   0  0  0  0  0  0  0  0  0  0  0  0
   -5.0589    0.8292   -1.1671 C   0  0  0  0  0  0  0  0  0  0  0  0
   -6.0353    0.1183   -0.4924 C   0  0  0  0  0  0  0  0  0  0  0  0
   -7.6927    0.2915   -0.8994 Cl  0  0  0  0  0  0  0  0  0  0  0  0
   -5.6424   -0.7349    0.5263 C   0  0  0  0  0  0  0  0  0  0  0  0
   -4.2838   -0.8478    0.8280 C   0  0  0  0  0  0  0  0  0  0  0  0
   -3.8383   -1.8825    2.1421 Cl  0  0  0  0  0  0  0  0  0  0  0  0
   -1.3801   -1.4120   -0.2678 C   0  0  0  0  0  0  0  0  0  0  0  0
    0.0873   -1.5912    0.1663 C   0  0  0  0  0  0  0  0  0  0  0  0
    3.2959    0.5756    0.3281 C   0  0  0  0  0  0  0  0  0  0  0  0
    2.8915    1.5797    0.9018 O   0  0  0  0  0  0  0  0  0  0  0  0
    6.4114    1.3652   -0.2856 H   0  0  0  0  0  0  0  0  0  0  0  0
    6.1178    0.9143    1.4209 H   0  0  0  0  0  0  0  0  0  0  0  0
    5.2143    2.2558    0.6796 H   0  0  0  0  0  0  0  0  0  0  0  0
    6.0938   -1.0748   -0.5652 H   0  0  0  0  0  0  0  0  0  0  0  0
    4.4543   -2.7701   -1.1801 H   0  0  0  0  0  0  0  0  0  0  0  0
    0.7944    1.7381   -0.0215 H   0  0  0  0  0  0  0  0  0  0  0  0
    0.3638    0.9017    1.4953 H   0  0  0  0  0  0  0  0  0  0  0  0
   -1.2320    1.1402   -1.1100 H   0  0  0  0  0  0  0  0  0  0  0  0
   -1.6157    1.8872    0.4585 H   0  0  0  0  0  0  0  0  0  0  0  0
   -5.3136    1.5149   -1.9705 H   0  0  0  0  0  0  0  0  0  0  0  0
   -6.3802   -1.3001    1.0875 H   0  0  0  0  0  0  0  0  0  0  0  0
   -1.9309   -2.3189    0.0058 H   0  0  0  0  0  0  0  0  0  0  0  0
   -1.4273   -1.3155   -1.3614 H   0  0  0  0  0  0  0  0  0  0  0  0
    0.4839   -2.4601   -0.3704 H   0  0  0  0  0  0  0  0  0  0  0  0
    0.1298   -1.8182    1.2390 H   0  0  0  0  0  0  0  0  0  0  0  0
  1  2  1  0
  2  3  1  0
  3  4  2  0
  4  5  1  0
  5  6  2  0
  6  7  1  0
  7  8  1  0
  8  9  1  0
  9 10  1  0
 10 11  1  0
 11 12  1  0
 12 13  2  0
 13 14  1  0
 14 15  1  0
 14 16  2  0
 16 17  1  0
 17 18  1  0
 10 19  1  0
 19 20  1  0
  6 21  1  0
 21 22  2  0
 21  2  1  0
 20  7  1  0
 17 11  2  0
  1 23  1  0
  1 24  1  0
  1 25  1  0
  3 26  1  0
  4 27  1  0
  8 28  1  0
  8 29  1  0
  9 30  1  0
  9 31  1  0
 13 32  1  0
 16 33  1  0
 19 34  1  0
 19 35  1  0
 20 36  1  0
 20 37  1  0
M  END
$$$$
OCNT-2310760
     RDKit          3D

 54 56  0  0  0  0  0  0  0  0999 V2000
    8.1840    0.2166    2.4927 C   0  0  0  0  0  0  0  0  0  0  0  0
    6.7703    0.1459    1.9969 C   0  0  0  0  0  0  0  0  0  0  0  0
    5.9795   -0.9754    2.2694 C   0  0  0  0  0  0  0  0  0  0  0  0
    4.6530   -1.0297    1.8354 C   0  0  0  0  0  0  0  0  0  0  0  0
    4.0907    0.0414    1.1297 C   0  0  0  0  0  0  0  0  0  0  0  0
    2.6597   -0.0247    0.6546 C   0  0  0  0  0  0  0  0  0  0  0  0
    2.4551   -0.9624   -0.5450 C   0  0  0  0  0  0  0  0  0  0  0  0
    3.1237   -0.4548   -1.8234 C   0  0  0  0  0  0  0  0  0  0  0  0
    0.9637   -1.1900   -0.7599 C   0  0  0  0  0  0  0  0  0  0  0  0
    0.4337   -2.2683   -0.5049 O   0  0  0  0  0  0  0  0  0  0  0  0
    0.2559   -0.1004   -1.2214 N   0  0  0  0  0  0  0  0  0  0  0  0
   -1.1919   -0.1473   -1.3874 C   0  0  0  0  0  0  0  0  0  0  0  0
   -1.6664    0.9583   -2.3298 C   0  0  0  0  0  0  0  0  0  0  0  0
   -3.1734    0.8566   -2.5534 C   0  0  0  0  0  0  0  0  0  0  0  0
   -3.9078    0.4922   -1.3454 N   0  0  0  0  0  0  0  0  0  0  0  0
   -5.2851    0.3153   -1.4755 C   0  0  0  0  0  0  0  0  0  0  0  0
   -5.8938    0.5213   -2.5228 O   0  0  0  0  0  0  0  0  0  0  0  0
   -6.0625   -0.1652   -0.3157 C   0  0  0  0  0  0  0  0  0  0  0  0
   -7.1980    0.5410    0.0714 C   0  0  0  0  0  0  0  0  0  0  0  0
   -7.9189    0.0511    1.1429 C   0  0  0  0  0  0  0  0  0  0  0  0
   -7.5867   -1.0710    1.8197 N   0  0  0  0  0  0  0  0  0  0  0  0
   -6.4991   -1.7507    1.3942 C   0  0  0  0  0  0  0  0  0  0  0  0
   -5.7102   -1.3469    0.3342 C   0  0  0  0  0  0  0  0  0  0  0  0
   -3.2138    0.7093   -0.0793 C   0  0  0  0  0  0  0  0  0  0  0  0
   -1.9090   -0.0803   -0.0259 C   0  0  0  0  0  0  0  0  0  0  0  0
    4.8786    1.1695    0.8706 C   0  0  0  0  0  0  0  0  0  0  0  0
    6.2053    1.2229    1.3054 C   0  0  0  0  0  0  0  0  0  0  0  0
    8.7965    0.8484    1.8407 H   0  0  0  0  0  0  0  0  0  0  0  0
    8.2047    0.6300    3.5058 H   0  0  0  0  0  0  0  0  0  0  0  0
    8.6431   -0.7776    2.5054 H   0  0  0  0  0  0  0  0  0  0  0  0
    6.3919   -1.8170    2.8220 H   0  0  0  0  0  0  0  0  0  0  0  0
    4.0599   -1.9151    2.0558 H   0  0  0  0  0  0  0  0  0  0  0  0
    2.3055    0.9865    0.4150 H   0  0  0  0  0  0  0  0  0  0  0  0
    2.0351   -0.3528    1.4969 H   0  0  0  0  0  0  0  0  0  0  0  0
    2.8838   -1.9484   -0.3200 H   0  0  0  0  0  0  0  0  0  0  0  0
    4.2143   -0.5009   -1.7399 H   0  0  0  0  0  0  0  0  0  0  0  0
    2.8489    0.5824   -2.0433 H   0  0  0  0  0  0  0  0  0  0  0  0
    2.8300   -1.0650   -2.6847 H   0  0  0  0  0  0  0  0  0  0  0  0
    0.7157    0.7997   -1.2624 H   0  0  0  0  0  0  0  0  0  0  0  0
   -1.4287   -1.1159   -1.8493 H   0  0  0  0  0  0  0  0  0  0  0  0
   -1.4207    1.9384   -1.8999 H   0  0  0  0  0  0  0  0  0  0  0  0
   -1.1441    0.9081   -3.2925 H   0  0  0  0  0  0  0  0  0  0  0  0
   -3.3924    0.0989   -3.3157 H   0  0  0  0  0  0  0  0  0  0  0  0
   -3.5618    1.8125   -2.9245 H   0  0  0  0  0  0  0  0  0  0  0  0
   -7.5101    1.4385   -0.4506 H   0  0  0  0  0  0  0  0  0  0  0  0
   -8.8123    0.5578    1.4967 H   0  0  0  0  0  0  0  0  0  0  0  0
   -6.2771   -2.6606    1.9451 H   0  0  0  0  0  0  0  0  0  0  0  0
   -4.8575   -1.9373    0.0197 H   0  0  0  0  0  0  0  0  0  0  0  0
   -3.0076    1.7854   -0.0122 H   0  0  0  0  0  0  0  0  0  0  0  0
   -3.8342    0.4723    0.7872 H   0  0  0  0  0  0  0  0  0  0  0  0
   -2.1195   -1.1061    0.3034 H   0  0  0  0  0  0  0  0  0  0  0  0
   -1.2644    0.3588    0.7460 H   0  0  0  0  0  0  0  0  0  0  0  0
    4.4680    2.0183    0.3289 H   0  0  0  0  0  0  0  0  0  0  0  0
    6.7965    2.1124    1.0991 H   0  0  0  0  0  0  0  0  0  0  0  0
  1  2  1  0
  2  3  1  0
  3  4  2  0
  4  5  1  0
  5  6  1  0
  6  7  1  0
  7  8  1  0
  7  9  1  0
  9 10  2  0
  9 11  1  0
 11 12  1  0
 12 13  1  0
 13 14  1  0
 14 15  1  0
 15 16  1  0
 16 17  2  0
 16 18  1  0
 18 19  2  0
 19 20  1  0
 20 21  2  0
 21 22  1  0
 22 23  2  0
 15 24  1  0
 24 25  1  0
  5 26  2  0
 26 27  1  0
 27  2  2  0
 25 12  1  0
 23 18  1  0
  1 28  1  0
  1 29  1  0
  1 30  1  0
  3 31  1  0
  4 32  1  0
  6 33  1  0
  6 34  1  0
  7 35  1  0
  8 36  1  0
  8 37  1  0
  8 38  1  0
 11 39  1  0
 12 40  1  0
 13 41  1  0
 13 42  1  0
 14 43  1  0
 14 44  1  0
 19 45  1  0
 20 46  1  0
 22 47  1  0
 23 48  1  0
 24 49  1  0
 24 50  1  0
 25 51  1  0
 25 52  1  0
 26 53  1  0
 27 54  1  0
M  END
$$$$
OCNT-2310785
     RDKit          3D

 34 37  0  0  0  0  0  0  0  0999 V2000
   -0.1255    0.5699   -1.6842 O   0  0  0  0  0  0  0  0  0  0  0  0
   -0.2263    0.5753   -0.4656 C   0  0  0  0  0  0  0  0  0  0  0  0
   -1.3973    0.4048    0.2651 N   0  0  0  0  0  0  0  0  0  0  0  0
   -2.7023    0.1735   -0.2264 C   0  0  0  0  0  0  0  0  0  0  0  0
   -2.9901    0.0738   -1.6076 C   0  0  0  0  0  0  0  0  0  0  0  0
   -4.3482   -0.1535   -1.9024 C   0  0  0  0  0  0  0  0  0  0  0  0
   -4.9677   -0.2979   -3.0901 N   0  0  0  0  0  0  0  0  0  0  0  0
   -6.2660   -0.4811   -2.7822 N   0  0  0  0  0  0  0  0  0  0  0  0
   -6.5359   -0.4710   -1.4430 C   0  0  0  0  0  0  0  0  0  0  0  0
   -5.3222   -0.2665   -0.8474 C   0  0  0  0  0  0  0  0  0  0  0  0
   -5.0950   -0.1795    0.5189 C   0  0  0  0  0  0  0  0  0  0  0  0
   -3.7248    0.0448    0.7826 C   0  0  0  0  0  0  0  0  0  0  0  0
    0.9570    0.7754    0.3902 C   0  0  0  0  0  0  0  0  0  0  0  0
    0.9994    1.5810    1.5236 C   0  0  0  0  0  0  0  0  0  0  0  0
    2.5556    1.5335    2.2382 S   0  0  0  0  0  0  0  0  0  0  0  0
    3.1021    0.4897    0.9748 C   0  0  0  0  0  0  0  0  0  0  0  0
    4.4990    0.0258    0.9248 C   0  0  0  0  0  0  0  0  0  0  0  0
    5.0593   -0.3776   -0.2852 C   0  0  0  0  0  0  0  0  0  0  0  0
    6.3719   -0.8421   -0.2962 C   0  0  0  0  0  0  0  0  0  0  0  0
    7.0814   -0.9060    0.8968 C   0  0  0  0  0  0  0  0  0  0  0  0
    6.4482   -0.4972    2.0601 C   0  0  0  0  0  0  0  0  0  0  0  0
    5.1804   -0.0317    2.1008 N   0  0  0  0  0  0  0  0  0  0  0  0
    2.1780    0.1825    0.0794 N   0  0  0  0  0  0  0  0  0  0  0  0
   -1.2999    0.4060    1.2728 H   0  0  0  0  0  0  0  0  0  0  0  0
   -2.2663    0.1535   -2.4042 H   0  0  0  0  0  0  0  0  0  0  0  0
   -6.9179   -0.6050   -3.5495 H   0  0  0  0  0  0  0  0  0  0  0  0
   -7.5379   -0.6063   -1.0603 H   0  0  0  0  0  0  0  0  0  0  0  0
   -5.8435   -0.2664    1.2922 H   0  0  0  0  0  0  0  0  0  0  0  0
   -3.4410    0.1254    1.8339 H   0  0  0  0  0  0  0  0  0  0  0  0
    0.2170    2.1958    1.9500 H   0  0  0  0  0  0  0  0  0  0  0  0
    4.4778   -0.3330   -1.2052 H   0  0  0  0  0  0  0  0  0  0  0  0
    6.8239   -1.1688   -1.2301 H   0  0  0  0  0  0  0  0  0  0  0  0
    8.1003   -1.2766    0.9209 H   0  0  0  0  0  0  0  0  0  0  0  0
    6.9569   -0.5505    3.0197 H   0  0  0  0  0  0  0  0  0  0  0  0
  1  2  2  0
  2  3  1  0
  3  4  1  0
  4  5  2  0
  5  6  1  0
  6  7  2  0
  7  8  1  0
  8  9  1  0
  9 10  2  0
 10 11  1  0
 11 12  2  0
  2 13  1  0
 13 14  2  0
 14 15  1  0
 15 16  1  0
 16 17  1  0
 17 18  2  0
 18 19  1  0
 19 20  2  0
 20 21  1  0
 21 22  2  0
 16 23  2  0
 12  4  1  0
 23 13  1  0
 10  6  1  0
 22 17  1  0
  3 24  1  0
  5 25  1  0
  8 26  1  0
  9 27  1  0
 11 28  1  0
 12 29  1  0
 14 30  1  0
 18 31  1  0
 19 32  1  0
 20 33  1  0
 21 34  1  0
M  END
$$$$
OCNT-2310796
     RDKit          3D

 39 41  0  0  0  0  0  0  0  0999 V2000
   -1.7523    2.4163    0.1826 O   0  0  0  0  0  0  0  0  0  0  0  0
   -1.4016    1.2469    0.0486 C   0  0  0  0  0  0  0  0  0  0  0  0
   -2.2747    0.1738    0.0840 N   0  0  0  0  0  0  0  0  0  0  0  0
   -3.6783    0.1913    0.2499 C   0  0  0  0  0  0  0  0  0  0  0  0
   -4.4366    1.3564    0.3627 C   0  0  0  0  0  0  0  0  0  0  0  0
   -5.7867    1.3839    0.5085 N   0  0  0  0  0  0  0  0  0  0  0  0
   -6.4184    0.1979    0.5533 C   0  0  0  0  0  0  0  0  0  0  0  0
   -5.7657   -1.0186    0.4566 C   0  0  0  0  0  0  0  0  0  0  0  0
   -4.3715   -1.0356    0.2946 C   0  0  0  0  0  0  0  0  0  0  0  0
   -3.6726   -2.3702    0.2492 C   0  0  0  0  0  0  0  0  0  0  0  0
   -2.7080   -2.3999   -0.7967 O   0  0  0  0  0  0  0  0  0  0  0  0
    0.0030    0.8961   -0.1613 C   0  0  0  0  0  0  0  0  0  0  0  0
    1.0652    1.7766   -0.2512 C   0  0  0  0  0  0  0  0  0  0  0  0
    2.3258    1.1287   -0.4573 C   0  0  0  0  0  0  0  0  0  0  0  0
    2.1712   -0.2438   -0.5164 C   0  0  0  0  0  0  0  0  0  0  0  0
    3.2402   -1.2752   -0.7189 C   0  0  0  0  0  0  0  0  0  0  0  0
    4.3486   -1.1729    0.3303 C   0  0  0  0  0  0  0  0  0  0  0  0
    5.2920    0.0184    0.1368 C   0  0  0  0  0  0  0  0  0  0  0  0
    4.6785    1.3905    0.4316 C   0  0  0  0  0  0  0  0  0  0  0  0
    3.6361    1.8447   -0.5909 C   0  0  0  0  0  0  0  0  0  0  0  0
    0.5414   -0.7183   -0.3265 S   0  0  0  0  0  0  0  0  0  0  0  0
   -1.8534   -0.7423   -0.0651 H   0  0  0  0  0  0  0  0  0  0  0  0
   -3.9945    2.3465    0.3355 H   0  0  0  0  0  0  0  0  0  0  0  0
   -7.4963    0.2504    0.6780 H   0  0  0  0  0  0  0  0  0  0  0  0
   -6.3413   -1.9372    0.5147 H   0  0  0  0  0  0  0  0  0  0  0  0
   -3.1639   -2.5560    1.2007 H   0  0  0  0  0  0  0  0  0  0  0  0
   -4.3768   -3.1901    0.0735 H   0  0  0  0  0  0  0  0  0  0  0  0
   -3.1801   -2.1671   -1.6173 H   0  0  0  0  0  0  0  0  0  0  0  0
    0.9352    2.8509   -0.1705 H   0  0  0  0  0  0  0  0  0  0  0  0
    2.8107   -2.2835   -0.6660 H   0  0  0  0  0  0  0  0  0  0  0  0
    3.6605   -1.1702   -1.7267 H   0  0  0  0  0  0  0  0  0  0  0  0
    4.9546   -2.0856    0.2658 H   0  0  0  0  0  0  0  0  0  0  0  0
    3.9228   -1.1513    1.3413 H   0  0  0  0  0  0  0  0  0  0  0  0
    5.7054    0.0053   -0.8791 H   0  0  0  0  0  0  0  0  0  0  0  0
    6.1428   -0.1178    0.8165 H   0  0  0  0  0  0  0  0  0  0  0  0
    5.4946    2.1241    0.4265 H   0  0  0  0  0  0  0  0  0  0  0  0
    4.2550    1.4000    1.4437 H   0  0  0  0  0  0  0  0  0  0  0  0
    3.4689    2.9209   -0.4561 H   0  0  0  0  0  0  0  0  0  0  0  0
    4.0203    1.7160   -1.6103 H   0  0  0  0  0  0  0  0  0  0  0  0
  1  2  2  0
  2  3  1  0
  3  4  1  0
  4  5  2  0
  5  6  1  0
  6  7  2  0
  7  8  1  0
  8  9  2  0
  9 10  1  0
 10 11  1  0
  2 12  1  0
 12 13  2  0
 13 14  1  0
 14 15  2  0
 15 16  1  0
 16 17  1  0
 17 18  1  0
 18 19  1  0
 19 20  1  0
 15 21  1  0
  9  4  1  0
 21 12  1  0
 20 14  1  0
  3 22  1  0
  5 23  1  0
  7 24  1  0
  8 25  1  0
 10 26  1  0
 10 27  1  0
 11 28  1  0
 13 29  1  0
 16 30  1  0
 16 31  1  0
 17 32  1  0
 17 33  1  0
 18 34  1  0
 18 35  1  0
 19 36  1  0
 19 37  1  0
 20 38  1  0
 20 39  1  0
M  END
$$$$
OCNT-2310804
     RDKit          3D

 47 50  0  0  0  0  0  0  0  0999 V2000
   -0.5754   -1.0619   -1.4456 O   0  0  0  0  0  0  0  0  0  0  0  0
   -1.1227   -0.7134   -0.3977 C   0  0  0  0  0  0  0  0  0  0  0  0
   -0.4869   -0.5492    0.8273 N   0  0  0  0  0  0  0  0  0  0  0  0
    0.8596   -0.7518    1.0615 C   0  0  0  0  0  0  0  0  0  0  0  0
    1.8281   -1.1910    0.1934 C   0  0  0  0  0  0  0  0  0  0  0  0
    3.0000   -1.2084    0.8971 N   0  0  0  0  0  0  0  0  0  0  0  0
    4.3057   -1.6127    0.3951 C   0  0  0  0  0  0  0  0  0  0  0  0
    5.0149   -0.4699   -0.2834 C   0  0  0  0  0  0  0  0  0  0  0  0
    5.0974   -0.3974   -1.6773 C   0  0  0  0  0  0  0  0  0  0  0  0
    5.7572    0.6803   -2.2486 C   0  0  0  0  0  0  0  0  0  0  0  0
    6.3300    1.6741   -1.5376 N   0  0  0  0  0  0  0  0  0  0  0  0
    6.2313    1.5927   -0.1939 C   0  0  0  0  0  0  0  0  0  0  0  0
    5.5943    0.5567    0.4702 C   0  0  0  0  0  0  0  0  0  0  0  0
    2.8512   -0.8401    2.1888 N   0  0  0  0  0  0  0  0  0  0  0  0
    1.5504   -0.5487    2.2777 C   0  0  0  0  0  0  0  0  0  0  0  0
   -2.6675   -0.4184   -0.3376 C   0  0  0  0  0  0  0  0  0  0  0  0
   -2.9555    1.0323    0.0746 C   0  0  0  0  0  0  0  0  0  0  0  0
   -4.1118    1.3907    0.7900 C   0  0  0  0  0  0  0  0  0  0  0  0
   -4.3579    2.7187    1.1526 C   0  0  0  0  0  0  0  0  0  0  0  0
   -3.4647    3.7210    0.7884 C   0  0  0  0  0  0  0  0  0  0  0  0
   -2.3344    3.3995    0.0450 C   0  0  0  0  0  0  0  0  0  0  0  0
   -2.0891    2.0727   -0.3186 C   0  0  0  0  0  0  0  0  0  0  0  0
   -3.3090   -1.5141    0.5529 C   0  0  0  0  0  0  0  0  0  0  0  0
   -4.4126   -2.1132   -0.3026 C   0  0  0  0  0  0  0  0  0  0  0  0
   -3.8549   -1.9733   -1.7002 C   0  0  0  0  0  0  0  0  0  0  0  0
   -3.2663   -0.6386   -1.6874 N   0  0  0  0  0  0  0  0  0  0  0  0
   -1.0277   -0.1798    1.6010 H   0  0  0  0  0  0  0  0  0  0  0  0
    1.7942   -1.4747   -0.8492 H   0  0  0  0  0  0  0  0  0  0  0  0
    4.1474   -2.4512   -0.2931 H   0  0  0  0  0  0  0  0  0  0  0  0
    4.8959   -1.9908    1.2380 H   0  0  0  0  0  0  0  0  0  0  0  0
    4.6565   -1.1568   -2.3149 H   0  0  0  0  0  0  0  0  0  0  0  0
    5.8432    0.7755   -3.3274 H   0  0  0  0  0  0  0  0  0  0  0  0
    6.6903    2.4099    0.3552 H   0  0  0  0  0  0  0  0  0  0  0  0
    5.5418    0.5576    1.5553 H   0  0  0  0  0  0  0  0  0  0  0  0
    1.1603   -0.2044    3.2262 H   0  0  0  0  0  0  0  0  0  0  0  0
   -4.8585    0.6477    1.0577 H   0  0  0  0  0  0  0  0  0  0  0  0
   -5.2590    2.9708    1.7060 H   0  0  0  0  0  0  0  0  0  0  0  0
   -3.6610    4.7538    1.0633 H   0  0  0  0  0  0  0  0  0  0  0  0
   -1.6476    4.1823   -0.2673 H   0  0  0  0  0  0  0  0  0  0  0  0
   -1.2111    1.8667   -0.9297 H   0  0  0  0  0  0  0  0  0  0  0  0
   -3.6892   -1.1652    1.5170 H   0  0  0  0  0  0  0  0  0  0  0  0
   -2.5907   -2.3152    0.7746 H   0  0  0  0  0  0  0  0  0  0  0  0
   -5.3386   -1.5362   -0.1931 H   0  0  0  0  0  0  0  0  0  0  0  0
   -4.6227   -3.1535   -0.0377 H   0  0  0  0  0  0  0  0  0  0  0  0
   -3.0870   -2.7317   -1.8926 H   0  0  0  0  0  0  0  0  0  0  0  0
   -4.6314   -2.0616   -2.4649 H   0  0  0  0  0  0  0  0  0  0  0  0
   -2.5168   -0.5796   -2.3831 H   0  0  0  0  0  0  0  0  0  0  0  0
  1  2  2  0
  2  3  1  0
  3  4  1  0
  4  5  2  0
  5  6  1  0
  6  7  1  0
  7  8  1  0
  8  9  2  0
  9 10  1  0
 10 11  2  0
 11 12  1  0
 12 13  2  0
  6 14  1  0
 14 15  2  0
  2 16  1  0
 16 17  1  0
 17 18  2  0
 18 19  1  0
 19 20  2  0
 20 21  1  0
 21 22  2  0
 16 23  1  0
 23 24  1  0
 24 25  1  0
 25 26  1  0
 15  4  1  0
 26 16  1  0
 13  8  1  0
 22 17  1  0
  3 27  1  0
  5 28  1  0
  7 29  1  0
  7 30  1  0
  9 31  1  0
 10 32  1  0
 12 33  1  0
 13 34  1  0
 15 35  1  0
 18 36  1  0
 19 37  1  0
 20 38  1  0
 21 39  1  0
 22 40  1  0
 23 41  1  0
 23 42  1  0
 24 43  1  0
 24 44  1  0
 25 45  1  0
 25 46  1  0
 26 47  1  0
M  END
$$$$
OCNT-2310816
     RDKit          3D

 39 41  0  0  0  0  0  0  0  0999 V2000
   -4.7622    2.1575    1.1647 C   0  0  0  0  0  0  0  0  0  0  0  0
   -4.0640    0.8381    1.0340 C   0  0  0  0  0  0  0  0  0  0  0  0
   -2.7005    0.7498    1.2283 C   0  0  0  0  0  0  0  0  0  0  0  0
   -2.1306   -0.4983    1.0930 C   0  0  0  0  0  0  0  0  0  0  0  0
   -0.7645   -0.7170    1.2702 N   0  0  0  0  0  0  0  0  0  0  0  0
    0.1230    0.0553    0.3946 C   0  0  0  0  0  0  0  0  0  0  0  0
    0.0238   -0.3727   -1.0702 C   0  0  0  0  0  0  0  0  0  0  0  0
    1.3449    0.1082   -1.6643 C   0  0  0  0  0  0  0  0  0  0  0  0
    2.2867   -0.0449   -0.5705 N   0  0  0  0  0  0  0  0  0  0  0  0
    3.6326    0.2113   -0.6331 C   0  0  0  0  0  0  0  0  0  0  0  0
    4.3339    0.1185    0.5258 N   0  0  0  0  0  0  0  0  0  0  0  0
    5.6676    0.3486    0.5051 C   0  0  0  0  0  0  0  0  0  0  0  0
    6.3770    0.6794   -0.6337 C   0  0  0  0  0  0  0  0  0  0  0  0
    5.6727    0.7790   -1.8231 C   0  0  0  0  0  0  0  0  0  0  0  0
    4.3001    0.5433   -1.8213 C   0  0  0  0  0  0  0  0  0  0  0  0
    3.6458    0.6532   -2.9889 F   0  0  0  0  0  0  0  0  0  0  0  0
    1.6130   -0.2032    0.7162 C   0  0  0  0  0  0  0  0  0  0  0  0
   -2.8551   -1.5884    0.8105 N   0  0  0  0  0  0  0  0  0  0  0  0
   -4.1793   -1.4162    0.6471 C   0  0  0  0  0  0  0  0  0  0  0  0
   -4.9954   -2.6209    0.2985 C   0  0  0  0  0  0  0  0  0  0  0  0
   -4.8174   -0.2354    0.7304 N   0  0  0  0  0  0  0  0  0  0  0  0
   -5.8350    2.0518    0.9734 H   0  0  0  0  0  0  0  0  0  0  0  0
   -4.3567    2.8734    0.4430 H   0  0  0  0  0  0  0  0  0  0  0  0
   -4.6342    2.5549    2.1764 H   0  0  0  0  0  0  0  0  0  0  0  0
   -2.1120    1.6166    1.4950 H   0  0  0  0  0  0  0  0  0  0  0  0
   -0.6462   -1.7220    1.1325 H   0  0  0  0  0  0  0  0  0  0  0  0
   -0.0623    1.1338    0.4842 H   0  0  0  0  0  0  0  0  0  0  0  0
   -0.0493   -1.4647   -1.1549 H   0  0  0  0  0  0  0  0  0  0  0  0
   -0.8397    0.0610   -1.5840 H   0  0  0  0  0  0  0  0  0  0  0  0
    1.2694    1.1606   -1.9615 H   0  0  0  0  0  0  0  0  0  0  0  0
    1.6089   -0.4993   -2.5359 H   0  0  0  0  0  0  0  0  0  0  0  0
    6.1640    0.2543    1.4671 H   0  0  0  0  0  0  0  0  0  0  0  0
    7.4460    0.8533   -0.5941 H   0  0  0  0  0  0  0  0  0  0  0  0
    6.1725    1.0353   -2.7508 H   0  0  0  0  0  0  0  0  0  0  0  0
    1.9538    0.5167    1.4698 H   0  0  0  0  0  0  0  0  0  0  0  0
    1.7748   -1.2174    1.1002 H   0  0  0  0  0  0  0  0  0  0  0  0
   -6.0183   -2.5149    0.6724 H   0  0  0  0  0  0  0  0  0  0  0  0
   -4.5608   -3.5219    0.7421 H   0  0  0  0  0  0  0  0  0  0  0  0
   -5.0274   -2.7424   -0.7880 H   0  0  0  0  0  0  0  0  0  0  0  0
  1  2  1  0
  2  3  1  0
  3  4  2  0
  4  5  1  0
  5  6  1  0
  6  7  1  0
  7  8  1  0
  8  9  1  0
  9 10  1  0
 10 11  1  0
 11 12  2  0
 12 13  1  0
 13 14  2  0
 14 15  1  0
 15 16  1  0
  9 17  1  0
  4 18  1  0
 18 19  2  0
 19 20  1  0
 19 21  1  0
 21  2  2  0
 17  6  1  0
 15 10  2  0
  1 22  1  0
  1 23  1  0
  1 24  1  0
  3 25  1  0
  5 26  1  0
  6 27  1  0
  7 28  1  0
  7 29  1  0
  8 30  1  0
  8 31  1  0
 12 32  1  0
 13 33  1  0
 14 34  1  0
 17 35  1  0
 17 36  1  0
 20 37  1  0
 20 38  1  0
 20 39  1  0
M  END
$$$$
OCNT-2310826
     RDKit          3D

 46 49  0  0  0  0  0  0  0  0999 V2000
    1.7439    0.1393   -2.7108 O   0  0  0  0  0  0  0  0  0  0  0  0
    1.6969   -0.1563   -1.5159 C   0  0  0  0  0  0  0  0  0  0  0  0
    2.9251   -0.1811   -0.7444 C   0  0  0  0  0  0  0  0  0  0  0  0
    3.3528   -0.9377    0.3343 C   0  0  0  0  0  0  0  0  0  0  0  0
    4.6814   -0.5499    0.6635 C   0  0  0  0  0  0  0  0  0  0  0  0
    5.6066   -0.9354    1.6493 C   0  0  0  0  0  0  0  0  0  0  0  0
    5.2835   -1.8661    2.5589 F   0  0  0  0  0  0  0  0  0  0  0  0
    6.8717   -0.3485    1.6927 C   0  0  0  0  0  0  0  0  0  0  0  0
    7.2272    0.6196    0.7553 C   0  0  0  0  0  0  0  0  0  0  0  0
    6.3304    1.0207   -0.2428 C   0  0  0  0  0  0  0  0  0  0  0  0
    5.0654    0.4187   -0.2614 C   0  0  0  0  0  0  0  0  0  0  0  0
    4.0046    0.5958   -1.1159 N   0  0  0  0  0  0  0  0  0  0  0  0
    0.4812   -0.4376   -0.8997 N   0  0  0  0  0  0  0  0  0  0  0  0
   -0.6564   -0.8081   -1.7441 C   0  0  0  0  0  0  0  0  0  0  0  0
   -1.9881   -0.2232   -1.2385 C   0  0  0  0  0  0  0  0  0  0  0  0
   -2.2277   -0.5640    0.1775 N   0  0  0  0  0  0  0  0  0  0  0  0
   -3.5475   -0.1568    0.7046 C   0  0  0  0  0  0  0  0  0  0  0  0
   -3.8380    1.3553    0.6983 C   0  0  0  0  0  0  0  0  0  0  0  0
   -5.3189    1.5882    0.9627 C   0  0  0  0  0  0  0  0  0  0  0  0
   -6.1682    1.0151   -0.0306 O   0  0  0  0  0  0  0  0  0  0  0  0
   -5.5950   -0.0520   -0.7844 C   0  0  0  0  0  0  0  0  0  0  0  0
   -4.7043   -0.9496    0.0598 C   0  0  0  0  0  0  0  0  0  0  0  0
   -1.1097   -0.0522    0.9941 C   0  0  0  0  0  0  0  0  0  0  0  0
    0.2583   -0.6034    0.5386 C   0  0  0  0  0  0  0  0  0  0  0  0
    2.7868   -1.7076    0.8414 H   0  0  0  0  0  0  0  0  0  0  0  0
    7.5735   -0.6565    2.4615 H   0  0  0  0  0  0  0  0  0  0  0  0
    8.2174    1.0685    0.7960 H   0  0  0  0  0  0  0  0  0  0  0  0
    6.6131    1.7703   -0.9758 H   0  0  0  0  0  0  0  0  0  0  0  0
    3.9955    1.2105   -1.9196 H   0  0  0  0  0  0  0  0  0  0  0  0
   -0.4972   -0.4978   -2.7818 H   0  0  0  0  0  0  0  0  0  0  0  0
   -0.7065   -1.9043   -1.7414 H   0  0  0  0  0  0  0  0  0  0  0  0
   -2.7866   -0.6214   -1.8729 H   0  0  0  0  0  0  0  0  0  0  0  0
   -1.9634    0.8638   -1.3798 H   0  0  0  0  0  0  0  0  0  0  0  0
   -3.5524   -0.4731    1.7584 H   0  0  0  0  0  0  0  0  0  0  0  0
   -3.5854    1.8026   -0.2689 H   0  0  0  0  0  0  0  0  0  0  0  0
   -3.2395    1.8642    1.4618 H   0  0  0  0  0  0  0  0  0  0  0  0
   -5.6070    1.1706    1.9344 H   0  0  0  0  0  0  0  0  0  0  0  0
   -5.5328    2.6613    0.9984 H   0  0  0  0  0  0  0  0  0  0  0  0
   -6.4207   -0.6336   -1.2071 H   0  0  0  0  0  0  0  0  0  0  0  0
   -5.0423    0.3762   -1.6280 H   0  0  0  0  0  0  0  0  0  0  0  0
   -4.3426   -1.7983   -0.5319 H   0  0  0  0  0  0  0  0  0  0  0  0
   -5.3122   -1.3813    0.8666 H   0  0  0  0  0  0  0  0  0  0  0  0
   -1.2520   -0.3309    2.0450 H   0  0  0  0  0  0  0  0  0  0  0  0
   -1.0750    1.0438    0.9467 H   0  0  0  0  0  0  0  0  0  0  0  0
    0.3225   -1.6758    0.7568 H   0  0  0  0  0  0  0  0  0  0  0  0
    1.0313   -0.0821    1.1082 H   0  0  0  0  0  0  0  0  0  0  0  0
  1  2  2  0
  2  3  1  0
  3  4  2  0
  4  5  1  0
  5  6  2  0
  6  7  1  0
  6  8  1  0
  8  9  2  0
  9 10  1  0
 10 11  2  0
 11 12  1  0
  2 13  1  0
 13 14  1  0
 14 15  1  0
 15 16  1  0
 16 17  1  0
 17 18  1  0
 18 19  1  0
 19 20  1  0
 20 21  1  0
 21 22  1  0
 16 23  1  0
 23 24  1  0
 12  3  1  0
 24 13  1  0
 11  5  1  0
 22 17  1  0
  4 25  1  0
  8 26  1  0
  9 27  1  0
 10 28  1  0
 12 29  1  0
 14 30  1  0
 14 31  1  0
 15 32  1  0
 15 33  1  0
 17 34  1  0
 18 35  1  0
 18 36  1  0
 19 37  1  0
 19 38  1  0
 21 39  1  0
 21 40  1  0
 22 41  1  0
 22 42  1  0
 23 43  1  0
 23 44  1  0
 24 45  1  0
 24 46  1  0
M  END
$$$$
OCNT-2310827
     RDKit          3D

 44 47  0  0  0  0  0  0  0  0999 V2000
   -1.1415    1.0732   -2.6285 O   0  0  0  0  0  0  0  0  0  0  0  0
   -0.8263    0.5767   -1.5524 C   0  0  0  0  0  0  0  0  0  0  0  0
   -1.7330    0.0260   -0.6709 N   0  0  0  0  0  0  0  0  0  0  0  0
   -3.1401   -0.1207   -0.9966 C   0  0  0  0  0  0  0  0  0  0  0  0
   -3.3452   -1.3423   -1.8919 C   0  0  0  0  0  0  0  0  0  0  0  0
   -4.8298   -1.6318   -1.9860 C   0  0  0  0  0  0  0  0  0  0  0  0
   -5.3746   -1.9949   -0.7150 O   0  0  0  0  0  0  0  0  0  0  0  0
   -5.0517   -1.1414    0.3060 C   0  0  0  0  0  0  0  0  0  0  0  0
   -5.8368   -1.2516    1.4573 C   0  0  0  0  0  0  0  0  0  0  0  0
   -5.5987   -0.4178    2.5482 C   0  0  0  0  0  0  0  0  0  0  0  0
   -4.5763    0.5191    2.4778 C   0  0  0  0  0  0  0  0  0  0  0  0
   -4.3531    1.3311    3.5193 F   0  0  0  0  0  0  0  0  0  0  0  0
   -3.7792    0.6275    1.3424 C   0  0  0  0  0  0  0  0  0  0  0  0
   -3.9933   -0.2234    0.2450 C   0  0  0  0  0  0  0  0  0  0  0  0
    0.5968    0.5239   -1.1150 C   0  0  0  0  0  0  0  0  0  0  0  0
    1.6064    1.0557   -1.8902 C   0  0  0  0  0  0  0  0  0  0  0  0
    2.9154    0.9653   -1.4158 C   0  0  0  0  0  0  0  0  0  0  0  0
    3.1837    0.3591   -0.1909 C   0  0  0  0  0  0  0  0  0  0  0  0
    4.4673    0.2399    0.2934 N   0  0  0  0  0  0  0  0  0  0  0  0
    5.5448    1.1592   -0.0561 C   0  0  0  0  0  0  0  0  0  0  0  0
    6.4578    1.1557    1.1714 C   0  0  0  0  0  0  0  0  0  0  0  0
    6.1761   -0.1874    1.8260 C   0  0  0  0  0  0  0  0  0  0  0  0
    4.6751   -0.3520    1.6110 C   0  0  0  0  0  0  0  0  0  0  0  0
    2.1495   -0.1584    0.5160 N   0  0  0  0  0  0  0  0  0  0  0  0
    0.8478   -0.0760    0.0671 N   0  0  0  0  0  0  0  0  0  0  0  0
   -1.3587   -0.4616    0.1391 H   0  0  0  0  0  0  0  0  0  0  0  0
   -3.4598    0.7753   -1.5454 H   0  0  0  0  0  0  0  0  0  0  0  0
   -2.8305   -2.2130   -1.4635 H   0  0  0  0  0  0  0  0  0  0  0  0
   -2.9207   -1.1691   -2.8871 H   0  0  0  0  0  0  0  0  0  0  0  0
   -5.3889   -0.7787   -2.3903 H   0  0  0  0  0  0  0  0  0  0  0  0
   -4.9968   -2.4778   -2.6612 H   0  0  0  0  0  0  0  0  0  0  0  0
   -6.6406   -1.9822    1.4965 H   0  0  0  0  0  0  0  0  0  0  0  0
   -6.2056   -0.4885    3.4446 H   0  0  0  0  0  0  0  0  0  0  0  0
   -2.9923    1.3767    1.3254 H   0  0  0  0  0  0  0  0  0  0  0  0
    1.3900    1.5251   -2.8438 H   0  0  0  0  0  0  0  0  0  0  0  0
    3.7203    1.3603   -2.0262 H   0  0  0  0  0  0  0  0  0  0  0  0
    6.0784    0.7837   -0.9360 H   0  0  0  0  0  0  0  0  0  0  0  0
    5.1962    2.1784   -0.2573 H   0  0  0  0  0  0  0  0  0  0  0  0
    7.5110    1.2895    0.9091 H   0  0  0  0  0  0  0  0  0  0  0  0
    6.1709    1.9675    1.8510 H   0  0  0  0  0  0  0  0  0  0  0  0
    6.7238   -0.9811    1.3036 H   0  0  0  0  0  0  0  0  0  0  0  0
    6.4544   -0.2127    2.8830 H   0  0  0  0  0  0  0  0  0  0  0  0
    4.3856   -1.4076    1.6431 H   0  0  0  0  0  0  0  0  0  0  0  0
    4.1226    0.2011    2.3807 H   0  0  0  0  0  0  0  0  0  0  0  0
  1  2  2  0
  2  3  1  0
  3  4  1  0
  4  5  1  0
  5  6  1  0
  6  7  1  0
  7  8  1  0
  8  9  1  0
  9 10  2  0
 10 11  1  0
 11 12  1  0
 11 13  2  0
 13 14  1  0
  2 15  1  0
 15 16  2  0
 16 17  1  0
 17 18  2  0
 18 19  1  0
 19 20  1  0
 20 21  1  0
 21 22  1  0
 22 23  1  0
 18 24  1  0
 24 25  2  0
 14  4  1  0
 25 15  1  0
 14  8  2  0
 23 19  1  0
  3 26  1  0
  4 27  1  0
  5 28  1  0
  5 29  1  0
  6 30  1  0
  6 31  1  0
  9 32  1  0
 10 33  1  0
 13 34  1  0
 16 35  1  0
 17 36  1  0
 20 37  1  0
 20 38  1  0
 21 39  1  0
 21 40  1  0
 22 41  1  0
 22 42  1  0
 23 43  1  0
 23 44  1  0
M  END
$$$$
OCNT-2310829
     RDKit          3D

 42 44  0  0  0  0  0  0  0  0999 V2000
   -1.2894    1.8039    0.3580 O   0  0  0  0  0  0  0  0  0  0  0  0
   -1.4173    0.7827   -0.3038 C   0  0  0  0  0  0  0  0  0  0  0  0
   -0.3611    0.0426   -0.7977 N   0  0  0  0  0  0  0  0  0  0  0  0
    1.0179    0.3590   -0.4447 C   0  0  0  0  0  0  0  0  0  0  0  0
    1.9804   -0.1943   -1.4966 C   0  0  0  0  0  0  0  0  0  0  0  0
    3.4333    0.0408   -1.0843 C   0  0  0  0  0  0  0  0  0  0  0  0
    3.6915   -0.5663    0.2272 N   0  0  0  0  0  0  0  0  0  0  0  0
    5.1301   -0.5368    0.5882 C   0  0  0  0  0  0  0  0  0  0  0  0
    5.8727    0.8043    0.7395 C   0  0  0  0  0  0  0  0  0  0  0  0
    5.8498    1.5073   -0.4194 F   0  0  0  0  0  0  0  0  0  0  0  0
    5.2963    1.5789    1.6902 F   0  0  0  0  0  0  0  0  0  0  0  0
    2.8460    0.0459    1.2612 C   0  0  0  0  0  0  0  0  0  0  0  0
    1.3693   -0.1860    0.9426 C   0  0  0  0  0  0  0  0  0  0  0  0
   -2.7648    0.2373   -0.6197 C   0  0  0  0  0  0  0  0  0  0  0  0
   -3.0327   -0.0947   -1.9586 C   0  0  0  0  0  0  0  0  0  0  0  0
   -4.2750   -0.6074   -2.3171 C   0  0  0  0  0  0  0  0  0  0  0  0
   -5.2537   -0.7891   -1.3426 C   0  0  0  0  0  0  0  0  0  0  0  0
   -5.0033   -0.4566    0.0015 C   0  0  0  0  0  0  0  0  0  0  0  0
   -5.9738   -0.6350    0.9913 C   0  0  0  0  0  0  0  0  0  0  0  0
   -5.8042   -0.3456    2.3005 N   0  0  0  0  0  0  0  0  0  0  0  0
   -4.6050    0.1554    2.6507 C   0  0  0  0  0  0  0  0  0  0  0  0
   -3.5693    0.3719    1.7553 C   0  0  0  0  0  0  0  0  0  0  0  0
   -3.7506    0.0685    0.3887 C   0  0  0  0  0  0  0  0  0  0  0  0
   -0.5558   -0.8912   -1.1376 H   0  0  0  0  0  0  0  0  0  0  0  0
    1.1119    1.4529   -0.4230 H   0  0  0  0  0  0  0  0  0  0  0  0
    1.8071   -1.2695   -1.6395 H   0  0  0  0  0  0  0  0  0  0  0  0
    1.7895    0.2818   -2.4661 H   0  0  0  0  0  0  0  0  0  0  0  0
    3.6365    1.1183   -1.0762 H   0  0  0  0  0  0  0  0  0  0  0  0
    4.0823   -0.4128   -1.8428 H   0  0  0  0  0  0  0  0  0  0  0  0
    5.6648   -1.1285   -0.1656 H   0  0  0  0  0  0  0  0  0  0  0  0
    5.2413   -1.0878    1.5306 H   0  0  0  0  0  0  0  0  0  0  0  0
    6.9173    0.6399    1.0186 H   0  0  0  0  0  0  0  0  0  0  0  0
    3.0321    1.1229    1.3473 H   0  0  0  0  0  0  0  0  0  0  0  0
    3.0602   -0.4056    2.2371 H   0  0  0  0  0  0  0  0  0  0  0  0
    0.7496    0.2948    1.7091 H   0  0  0  0  0  0  0  0  0  0  0  0
    1.1442   -1.2600    0.9917 H   0  0  0  0  0  0  0  0  0  0  0  0
   -2.2808    0.0676   -2.7279 H   0  0  0  0  0  0  0  0  0  0  0  0
   -4.4851   -0.8574   -3.3543 H   0  0  0  0  0  0  0  0  0  0  0  0
   -6.2222   -1.1894   -1.6380 H   0  0  0  0  0  0  0  0  0  0  0  0
   -6.9561   -1.0339    0.7494 H   0  0  0  0  0  0  0  0  0  0  0  0
   -4.4876    0.3891    3.7051 H   0  0  0  0  0  0  0  0  0  0  0  0
   -2.6360    0.7818    2.1298 H   0  0  0  0  0  0  0  0  0  0  0  0
  1  2  2  0
  2  3  1  0
  3  4  1  0
  4  5  1  0
  5  6  1  0
  6  7  1  0
  7  8  1  0
  8  9  1  0
  9 10  1  0
  9 11  1  0
  7 12  1  0
 12 13  1  0
  2 14  1  0
 14 15  2  0
 15 16  1  0
 16 17  2  0
 17 18  1  0
 18 19  2  0
 19 20  1  0
 20 21  2  0
 21 22  1  0
 22 23  2  0
 13  4  1  0
 23 14  1  0
 23 18  1  0
  3 24  1  0
  4 25  1  0
  5 26  1  0
  5 27  1  0
  6 28  1  0
  6 29  1  0
  8 30  1  0
  8 31  1  0
  9 32  1  0
 12 33  1  0
 12 34  1  0
 13 35  1  0
 13 36  1  0
 15 37  1  0
 16 38  1  0
 17 39  1  0
 19 40  1  0
 21 41  1  0
 22 42  1  0
M  END
$$$$
OCNT-2310830
     RDKit          3D

 53 55  0  0  0  0  0  0  0  0999 V2000
   -3.7241   -0.8909    2.1128 C   0  0  0  0  0  0  0  0  0  0  0  0
   -2.3282   -0.7934    1.5006 C   0  0  0  0  0  0  0  0  0  0  0  0
   -2.1435   -1.3069    0.1366 N   0  0  0  0  0  0  0  0  0  0  0  0
   -2.8672   -2.5402   -0.1415 C   0  0  0  0  0  0  0  0  0  0  0  0
   -2.2590   -0.2960   -0.9632 C   0  0  0  0  0  0  0  0  0  0  0  0
   -0.9723    0.5941   -0.9830 C   0  0  0  0  0  0  0  0  0  0  0  0
   -0.9227    1.7488   -1.3986 O   0  0  0  0  0  0  0  0  0  0  0  0
    0.1560   -0.0787   -0.5364 N   0  0  0  0  0  0  0  0  0  0  0  0
    1.4205    0.6011   -0.2925 C   0  0  0  0  0  0  0  0  0  0  0  0
    1.3887    1.3445    1.0453 C   0  0  0  0  0  0  0  0  0  0  0  0
    2.6969    2.0892    1.3220 C   0  0  0  0  0  0  0  0  0  0  0  0
    3.8842    1.6045    0.4834 C   0  0  0  0  0  0  0  0  0  0  0  0
    3.8073    0.1611    0.3159 N   0  0  0  0  0  0  0  0  0  0  0  0
    4.9876   -0.4989   -0.0105 C   0  0  0  0  0  0  0  0  0  0  0  0
    6.1592    0.1492    0.1094 N   0  0  0  0  0  0  0  0  0  0  0  0
    7.2864   -0.5234   -0.1904 C   0  0  0  0  0  0  0  0  0  0  0  0
    7.3019   -1.8277   -0.6079 C   0  0  0  0  0  0  0  0  0  0  0  0
    6.0689   -2.4163   -0.7017 C   0  0  0  0  0  0  0  0  0  0  0  0
    4.9171   -1.7817   -0.4125 N   0  0  0  0  0  0  0  0  0  0  0  0
    2.6110   -0.3835   -0.3339 C   0  0  0  0  0  0  0  0  0  0  0  0
   -3.5753    0.4710   -1.0226 C   0  0  0  0  0  0  0  0  0  0  0  0
   -4.6485   -0.0508   -1.7674 C   0  0  0  0  0  0  0  0  0  0  0  0
   -5.8738    0.6166   -1.8284 C   0  0  0  0  0  0  0  0  0  0  0  0
   -6.0477    1.8179   -1.1469 C   0  0  0  0  0  0  0  0  0  0  0  0
   -4.9973    2.3524   -0.4057 C   0  0  0  0  0  0  0  0  0  0  0  0
   -3.7719    1.6843   -0.3425 C   0  0  0  0  0  0  0  0  0  0  0  0
   -4.4851   -0.3986    1.5041 H   0  0  0  0  0  0  0  0  0  0  0  0
   -4.0250   -1.9332    2.2595 H   0  0  0  0  0  0  0  0  0  0  0  0
   -3.7276   -0.4125    3.0981 H   0  0  0  0  0  0  0  0  0  0  0  0
   -1.9694    0.2395    1.5796 H   0  0  0  0  0  0  0  0  0  0  0  0
   -1.6543   -1.3687    2.1488 H   0  0  0  0  0  0  0  0  0  0  0  0
   -2.5527   -2.9646   -1.1015 H   0  0  0  0  0  0  0  0  0  0  0  0
   -3.9524   -2.4022   -0.1707 H   0  0  0  0  0  0  0  0  0  0  0  0
   -2.6377   -3.2978    0.6164 H   0  0  0  0  0  0  0  0  0  0  0  0
   -2.1635   -0.8357   -1.9186 H   0  0  0  0  0  0  0  0  0  0  0  0
   -0.0578   -0.9325   -0.0235 H   0  0  0  0  0  0  0  0  0  0  0  0
    1.5533    1.3426   -1.0916 H   0  0  0  0  0  0  0  0  0  0  0  0
    1.2080    0.6236    1.8544 H   0  0  0  0  0  0  0  0  0  0  0  0
    0.5506    2.0509    1.0847 H   0  0  0  0  0  0  0  0  0  0  0  0
    2.5584    3.1627    1.1458 H   0  0  0  0  0  0  0  0  0  0  0  0
    2.9340    1.9858    2.3885 H   0  0  0  0  0  0  0  0  0  0  0  0
    3.8783    2.0951   -0.4985 H   0  0  0  0  0  0  0  0  0  0  0  0
    4.7964    1.9253    1.0011 H   0  0  0  0  0  0  0  0  0  0  0  0
    8.2055    0.0432   -0.0773 H   0  0  0  0  0  0  0  0  0  0  0  0
    8.2161   -2.3521   -0.8429 H   0  0  0  0  0  0  0  0  0  0  0  0
    5.9598   -3.4484   -1.0201 H   0  0  0  0  0  0  0  0  0  0  0  0
    2.3296   -1.3159    0.1738 H   0  0  0  0  0  0  0  0  0  0  0  0
    2.8001   -0.6311   -1.3878 H   0  0  0  0  0  0  0  0  0  0  0  0
   -4.5349   -0.9865   -2.3105 H   0  0  0  0  0  0  0  0  0  0  0  0
   -6.6910    0.1997   -2.4110 H   0  0  0  0  0  0  0  0  0  0  0  0
   -6.9990    2.3405   -1.1972 H   0  0  0  0  0  0  0  0  0  0  0  0
   -5.1269    3.2942    0.1210 H   0  0  0  0  0  0  0  0  0  0  0  0
   -2.9673    2.1304    0.2385 H   0  0  0  0  0  0  0  0  0  0  0  0
  1  2  1  0
  2  3  1  0
  3  4  1  0
  3  5  1  0
  5  6  1  0
  6  7  2  0
  6  8  1  0
  8  9  1  0
  9 10  1  0
 10 11  1  0
 11 12  1  0
 12 13  1  0
 13 14  1  0
 14 15  2  0
 15 16  1  0
 16 17  2  0
 17 18  1  0
 18 19  2  0
 13 20  1  0
  5 21  1  0
 21 22  2  0
 22 23  1  0
 23 24  2  0
 24 25  1  0
 25 26  2  0
 20  9  1  0
 26 21  1  0
 19 14  1  0
  1 27  1  0
  1 28  1  0
  1 29  1  0
  2 30  1  0
  2 31  1  0
  4 32  1  0
  4 33  1  0
  4 34  1  0
  5 35  1  0
  8 36  1  0
  9 37  1  0
 10 38  1  0
 10 39  1  0
 11 40  1  0
 11 41  1  0
 12 42  1  0
 12 43  1  0
 16 44  1  0
 17 45  1  0
 18 46  1  0
 20 47  1  0
 20 48  1  0
 22 49  1  0
 23 50  1  0
 24 51  1  0
 25 52  1  0
 26 53  1  0
M  END
$$$$
OCNT-2310833
     RDKit          3D

 49 52  0  0  0  0  0  0  0  0999 V2000
    3.1070   -3.8500    0.0131 C   0  0  0  0  0  0  0  0  0  0  0  0
    3.5998   -2.6188    0.5808 N   0  0  0  0  0  0  0  0  0  0  0  0
    2.8578   -1.6105    1.1259 C   0  0  0  0  0  0  0  0  0  0  0  0
    3.7580   -0.6367    1.5017 C   0  0  0  0  0  0  0  0  0  0  0  0
    3.4113    0.6149    2.1432 C   0  0  0  0  0  0  0  0  0  0  0  0
    3.8911    0.8372    3.4448 C   0  0  0  0  0  0  0  0  0  0  0  0
    3.5912    2.0174    4.1257 C   0  0  0  0  0  0  0  0  0  0  0  0
    2.8088    2.9903    3.5136 C   0  0  0  0  0  0  0  0  0  0  0  0
    2.3324    2.7857    2.2187 C   0  0  0  0  0  0  0  0  0  0  0  0
    2.6333    1.6057    1.5103 C   0  0  0  0  0  0  0  0  0  0  0  0
    2.0851    1.4597    0.1121 C   0  0  0  0  0  0  0  0  0  0  0  0
    0.6922    1.0766    0.1456 N   0  0  0  0  0  0  0  0  0  0  0  0
    0.0070    0.9084   -1.0263 C   0  0  0  0  0  0  0  0  0  0  0  0
    0.4558    1.1632   -2.1351 O   0  0  0  0  0  0  0  0  0  0  0  0
   -1.2470    0.4061   -0.7948 N   0  0  0  0  0  0  0  0  0  0  0  0
   -2.1659    0.3189   -1.9088 C   0  0  1  0  0  0  0  0  0  0  0  0
   -3.3895   -0.5018   -1.6030 C   0  0  0  0  0  0  0  0  0  0  0  0
   -3.4694   -1.7188   -0.9429 C   0  0  0  0  0  0  0  0  0  0  0  0
   -4.7198   -2.3278   -0.8193 C   0  0  0  0  0  0  0  0  0  0  0  0
   -5.8648   -1.7265   -1.3649 C   0  0  0  0  0  0  0  0  0  0  0  0
   -5.7760   -0.5083   -2.0420 C   0  0  0  0  0  0  0  0  0  0  0  0
   -4.5338    0.0951   -2.1487 C   0  0  0  0  0  0  0  0  0  0  0  0
   -4.1920    1.3754   -2.8544 C   0  0  0  0  0  0  0  0  0  0  0  0
   -2.8038    1.6944   -2.2665 C   0  0  1  0  0  0  0  0  0  0  0  0
   -2.9604    2.5014   -1.0784 O   0  0  0  0  0  0  0  0  0  0  0  0
    5.0195   -1.1798    1.1749 C   0  0  0  0  0  0  0  0  0  0  0  0
    4.9254   -2.3876    0.6115 N   0  0  0  0  0  0  0  0  0  0  0  0
    3.5225   -4.6837    0.5844 H   0  0  0  0  0  0  0  0  0  0  0  0
    2.0158   -3.8656    0.0695 H   0  0  0  0  0  0  0  0  0  0  0  0
    3.4271   -3.9005   -1.0306 H   0  0  0  0  0  0  0  0  0  0  0  0
    1.7812   -1.6706    1.1925 H   0  0  0  0  0  0  0  0  0  0  0  0
    4.4954    0.0817    3.9438 H   0  0  0  0  0  0  0  0  0  0  0  0
    3.9652    2.1731    5.1342 H   0  0  0  0  0  0  0  0  0  0  0  0
    2.5686    3.9093    4.0421 H   0  0  0  0  0  0  0  0  0  0  0  0
    1.7194    3.5561    1.7529 H   0  0  0  0  0  0  0  0  0  0  0  0
    2.1699    2.4122   -0.4266 H   0  0  0  0  0  0  0  0  0  0  0  0
    2.6427    0.7305   -0.4847 H   0  0  0  0  0  0  0  0  0  0  0  0
    0.4128    0.4534    0.8878 H   0  0  0  0  0  0  0  0  0  0  0  0
   -1.6785    0.8059    0.0285 H   0  0  0  0  0  0  0  0  0  0  0  0
   -1.6667   -0.1095   -2.7872 H   0  0  0  0  0  0  0  0  0  0  0  0
   -2.5812   -2.1904   -0.5343 H   0  0  0  0  0  0  0  0  0  0  0  0
   -4.8078   -3.2799   -0.3016 H   0  0  0  0  0  0  0  0  0  0  0  0
   -6.8293   -2.2181   -1.2632 H   0  0  0  0  0  0  0  0  0  0  0  0
   -6.6618   -0.0510   -2.4710 H   0  0  0  0  0  0  0  0  0  0  0  0
   -4.9248    2.1585   -2.6398 H   0  0  0  0  0  0  0  0  0  0  0  0
   -4.1300    1.1881   -3.9313 H   0  0  0  0  0  0  0  0  0  0  0  0
   -2.1771    2.2662   -2.9587 H   0  0  0  0  0  0  0  0  0  0  0  0
   -3.3155    3.3603   -1.3649 H   0  0  0  0  0  0  0  0  0  0  0  0
    5.9992   -0.7435    1.3215 H   0  0  0  0  0  0  0  0  0  0  0  0
  1  2  1  0
  2  3  1  0
  3  4  2  0
  4  5  1  0
  5  6  2  0
  6  7  1  0
  7  8  2  0
  8  9  1  0
  9 10  2  0
 10 11  1  0
 11 12  1  0
 12 13  1  0
 13 14  2  0
 13 15  1  0
 15 16  1  0
 16 17  1  0
 17 18  2  0
 18 19  1  0
 19 20  2  0
 20 21  1  0
 21 22  2  0
 22 23  1  0
 23 24  1  0
 24 25  1  0
  4 26  1  0
 26 27  2  0
 27  2  1  0
 10  5  1  0
 24 16  1  0
 22 17  1  0
  1 28  1  0
  1 29  1  0
  1 30  1  0
  3 31  1  0
  6 32  1  0
  7 33  1  0
  8 34  1  0
  9 35  1  0
 11 36  1  0
 11 37  1  0
 12 38  1  0
 15 39  1  0
 16 40  1  6
 18 41  1  0
 19 42  1  0
 20 43  1  0
 21 44  1  0
 23 45  1  0
 23 46  1  0
 24 47  1  6
 25 48  1  0
 26 49  1  0
M  END
$$$$
OCNT-2310843
     RDKit          3D

 55 57  0  0  0  0  0  0  0  0999 V2000
   -3.8106    3.0210   -1.9053 C   0  0  0  0  0  0  0  0  0  0  0  0
   -3.6998    2.1047   -0.8186 O   0  0  0  0  0  0  0  0  0  0  0  0
   -4.6193    1.0197   -0.9141 C   0  0  0  0  0  0  0  0  0  0  0  0
   -3.8844   -0.3140   -0.7538 C   0  0  0  0  0  0  0  0  0  0  0  0
   -4.8836   -1.5070   -0.8157 C   0  0  0  0  0  0  0  0  0  0  0  0
   -5.7896   -1.6201    0.4340 C   0  0  0  0  0  0  0  0  0  0  0  0
   -5.7012   -3.1521    0.2552 C   0  0  0  0  0  0  0  0  0  0  0  0
   -4.3521   -2.9166   -0.4624 C   0  0  0  0  0  0  0  0  0  0  0  0
   -2.8269   -0.3855    0.3681 C   0  0  0  0  0  0  0  0  0  0  0  0
   -1.8887   -0.8927   -0.6329 N   0  0  0  0  0  0  0  0  0  0  0  0
   -0.5210   -0.7844   -0.6446 C   0  0  0  0  0  0  0  0  0  0  0  0
    0.1357   -0.7114   -1.6778 O   0  0  0  0  0  0  0  0  0  0  0  0
    0.0382   -0.7612    0.6121 N   0  0  0  0  0  0  0  0  0  0  0  0
    1.4811   -0.6948    0.7696 C   0  0  0  0  0  0  0  0  0  0  0  0
    2.0386    0.6980    0.4531 C   0  0  0  0  0  0  0  0  0  0  0  0
    3.5399    0.7616    0.6058 C   0  0  0  0  0  0  0  0  0  0  0  0
    4.1231    1.2846    1.7681 C   0  0  0  0  0  0  0  0  0  0  0  0
    5.5174    1.3537    1.9137 C   0  0  0  0  0  0  0  0  0  0  0  0
    6.0909    1.9428    3.1708 C   0  0  0  0  0  0  0  0  0  0  0  0
    6.3234    0.8941    0.8618 C   0  0  0  0  0  0  0  0  0  0  0  0
    7.6901    0.9502    0.9216 O   0  0  0  0  0  0  0  0  0  0  0  0
    5.7620    0.3609   -0.3070 C   0  0  0  0  0  0  0  0  0  0  0  0
    6.6336   -0.1221   -1.4316 C   0  0  0  0  0  0  0  0  0  0  0  0
    4.3673    0.2937   -0.4221 C   0  0  0  0  0  0  0  0  0  0  0  0
   -2.7431   -0.5468   -1.7679 C   0  0  0  0  0  0  0  0  0  0  0  0
   -4.8054    3.4714   -1.9359 H   0  0  0  0  0  0  0  0  0  0  0  0
   -3.0762    3.8100   -1.7580 H   0  0  0  0  0  0  0  0  0  0  0  0
   -3.5861    2.5158   -2.8521 H   0  0  0  0  0  0  0  0  0  0  0  0
   -5.3516    1.1501   -0.1113 H   0  0  0  0  0  0  0  0  0  0  0  0
   -5.1646    1.0401   -1.8652 H   0  0  0  0  0  0  0  0  0  0  0  0
   -5.4662   -1.5150   -1.7502 H   0  0  0  0  0  0  0  0  0  0  0  0
   -5.3536   -1.2650    1.3747 H   0  0  0  0  0  0  0  0  0  0  0  0
   -6.7932   -1.1981    0.3310 H   0  0  0  0  0  0  0  0  0  0  0  0
   -6.4808   -3.5669   -0.3963 H   0  0  0  0  0  0  0  0  0  0  0  0
   -5.6571   -3.7374    1.1780 H   0  0  0  0  0  0  0  0  0  0  0  0
   -3.4987   -2.9836    0.2200 H   0  0  0  0  0  0  0  0  0  0  0  0
   -4.1589   -3.5715   -1.3188 H   0  0  0  0  0  0  0  0  0  0  0  0
   -2.5059    0.5734    0.7907 H   0  0  0  0  0  0  0  0  0  0  0  0
   -3.0046   -1.0785    1.1932 H   0  0  0  0  0  0  0  0  0  0  0  0
   -0.4748   -1.3084    1.2880 H   0  0  0  0  0  0  0  0  0  0  0  0
    1.7002   -0.9613    1.8091 H   0  0  0  0  0  0  0  0  0  0  0  0
    1.9358   -1.4587    0.1279 H   0  0  0  0  0  0  0  0  0  0  0  0
    1.5642    1.4422    1.1077 H   0  0  0  0  0  0  0  0  0  0  0  0
    1.7752    1.0040   -0.5666 H   0  0  0  0  0  0  0  0  0  0  0  0
    3.4815    1.6515    2.5662 H   0  0  0  0  0  0  0  0  0  0  0  0
    5.3130    2.1597    3.9067 H   0  0  0  0  0  0  0  0  0  0  0  0
    6.6039    2.8803    2.9448 H   0  0  0  0  0  0  0  0  0  0  0  0
    6.7923    1.2472    3.6386 H   0  0  0  0  0  0  0  0  0  0  0  0
    7.9631    1.3164    1.7752 H   0  0  0  0  0  0  0  0  0  0  0  0
    7.2887   -0.9252   -1.0866 H   0  0  0  0  0  0  0  0  0  0  0  0
    6.0392   -0.5138   -2.2597 H   0  0  0  0  0  0  0  0  0  0  0  0
    7.2416    0.6998   -1.8206 H   0  0  0  0  0  0  0  0  0  0  0  0
    3.9179   -0.1164   -1.3268 H   0  0  0  0  0  0  0  0  0  0  0  0
   -2.8722   -1.3732   -2.4741 H   0  0  0  0  0  0  0  0  0  0  0  0
   -2.3875    0.3349   -2.3100 H   0  0  0  0  0  0  0  0  0  0  0  0
  1  2  1  0
  2  3  1  0
  3  4  1  0
  4  5  1  0
  5  6  1  0
  6  7  1  0
  7  8  1  0
  4  9  1  0
  9 10  1  0
 10 11  1  0
 11 12  2  0
 11 13  1  0
 13 14  1  0
 14 15  1  0
 15 16  1  0
 16 17  1  0
 17 18  2  0
 18 19  1  0
 18 20  1  0
 20 21  1  0
 20 22  2  0
 22 23  1  0
 22 24  1  0
 10 25  1  0
 25  4  1  0
  8  5  1  0
 24 16  2  0
  1 26  1  0
  1 27  1  0
  1 28  1  0
  3 29  1  0
  3 30  1  0
  5 31  1  0
  6 32  1  0
  6 33  1  0
  7 34  1  0
  7 35  1  0
  8 36  1  0
  8 37  1  0
  9 38  1  0
  9 39  1  0
 13 40  1  0
 14 41  1  0
 14 42  1  0
 15 43  1  0
 15 44  1  0
 17 45  1  0
 19 46  1  0
 19 47  1  0
 19 48  1  0
 21 49  1  0
 23 50  1  0
 23 51  1  0
 23 52  1  0
 24 53  1  0
 25 54  1  0
 25 55  1  0
M  END
$$$$
OCNT-2310853
     RDKit          3D

 43 45  0  0  0  0  0  0  0  0999 V2000
    2.5466    0.7636   -2.8479 C   0  0  0  0  0  0  0  0  0  0  0  0
    1.9641    0.7171   -1.4630 C   0  0  0  0  0  0  0  0  0  0  0  0
    0.6367    0.2879   -1.2810 C   0  0  0  0  0  0  0  0  0  0  0  0
    0.0523    0.2715   -0.0061 C   0  0  0  0  0  0  0  0  0  0  0  0
   -1.2767   -0.1182    0.2485 N   0  0  0  0  0  0  0  0  0  0  0  0
   -2.1874   -0.6811   -0.6380 C   0  0  0  0  0  0  0  0  0  0  0  0
   -1.9568   -1.0012   -1.8022 O   0  0  0  0  0  0  0  0  0  0  0  0
   -3.5139   -1.0291    0.0111 C   0  0  0  0  0  0  0  0  0  0  0  0
   -4.6192   -1.3278   -1.0136 C   0  0  0  0  0  0  0  0  0  0  0  0
   -5.8896   -1.0199   -0.2430 C   0  0  0  0  0  0  0  0  0  0  0  0
   -5.4959    0.0997    0.5777 N   0  0  0  0  0  0  0  0  0  0  0  0
   -6.4482    0.8432    1.3676 C   0  0  0  0  0  0  0  0  0  0  0  0
   -4.1355    0.0769    0.8457 C   0  0  0  0  0  0  0  0  0  0  0  0
   -3.5365    0.7812    1.6463 O   0  0  0  0  0  0  0  0  0  0  0  0
    0.8105    0.6794    1.1039 C   0  0  0  0  0  0  0  0  0  0  0  0
    2.1441    1.0562    0.9471 C   0  0  0  0  0  0  0  0  0  0  0  0
    2.7229    1.0491   -0.3299 C   0  0  0  0  0  0  0  0  0  0  0  0
    4.0331    1.4475   -0.4701 O   0  0  0  0  0  0  0  0  0  0  0  0
    4.9769    0.5527   -0.0035 C   0  0  0  0  0  0  0  0  0  0  0  0
    5.0472   -0.7612   -0.4634 C   0  0  0  0  0  0  0  0  0  0  0  0
    6.0692   -1.5628    0.0163 C   0  0  0  0  0  0  0  0  0  0  0  0
    7.0033   -1.1410    0.9016 N   0  0  0  0  0  0  0  0  0  0  0  0
    6.9079    0.1434    1.3196 C   0  0  0  0  0  0  0  0  0  0  0  0
    5.9221    1.0250    0.9010 C   0  0  0  0  0  0  0  0  0  0  0  0
    1.7593    0.9175   -3.6043 H   0  0  0  0  0  0  0  0  0  0  0  0
    3.0665   -0.1779   -3.0735 H   0  0  0  0  0  0  0  0  0  0  0  0
    3.2487    1.5997   -2.9484 H   0  0  0  0  0  0  0  0  0  0  0  0
    0.0646   -0.0013   -2.1618 H   0  0  0  0  0  0  0  0  0  0  0  0
   -1.6320    0.1168    1.1762 H   0  0  0  0  0  0  0  0  0  0  0  0
   -3.3618   -1.8984    0.6673 H   0  0  0  0  0  0  0  0  0  0  0  0
   -4.5878   -2.3564   -1.4054 H   0  0  0  0  0  0  0  0  0  0  0  0
   -4.5462   -0.6359   -1.8777 H   0  0  0  0  0  0  0  0  0  0  0  0
   -6.1809   -1.8478    0.4148 H   0  0  0  0  0  0  0  0  0  0  0  0
   -6.7243   -0.7478   -0.9056 H   0  0  0  0  0  0  0  0  0  0  0  0
   -7.2668    1.1774    0.7221 H   0  0  0  0  0  0  0  0  0  0  0  0
   -6.8342    0.1938    2.1598 H   0  0  0  0  0  0  0  0  0  0  0  0
   -5.9654    1.7151    1.8215 H   0  0  0  0  0  0  0  0  0  0  0  0
    0.3798    0.6841    2.1043 H   0  0  0  0  0  0  0  0  0  0  0  0
    2.7260    1.3565    1.8183 H   0  0  0  0  0  0  0  0  0  0  0  0
    4.3402   -1.1529   -1.1865 H   0  0  0  0  0  0  0  0  0  0  0  0
    6.1724   -2.5949   -0.3119 H   0  0  0  0  0  0  0  0  0  0  0  0
    7.6702    0.4523    2.0318 H   0  0  0  0  0  0  0  0  0  0  0  0
    5.8942    2.0478    1.2616 H   0  0  0  0  0  0  0  0  0  0  0  0
  1  2  1  0
  2  3  1  0
  3  4  2  0
  4  5  1  0
  5  6  1  0
  6  7  2  0
  6  8  1  0
  8  9  1  0
  9 10  1  0
 10 11  1  0
 11 12  1  0
 11 13  1  0
 13 14  2  0
  4 15  1  0
 15 16  2  0
 16 17  1  0
 17 18  1  0
 18 19  1  0
 19 20  2  0
 20 21  1  0
 21 22  2  0
 22 23  1  0
 23 24  2  0
 17  2  2  0
 24 19  1  0
 13  8  1  0
  1 25  1  0
  1 26  1  0
  1 27  1  0
  3 28  1  0
  5 29  1  0
  8 30  1  0
  9 31  1  0
  9 32  1  0
 10 33  1  0
 10 34  1  0
 12 35  1  0
 12 36  1  0
 12 37  1  0
 15 38  1  0
 16 39  1  0
 20 40  1  0
 21 41  1  0
 23 42  1  0
 24 43  1  0
M  END
$$$$
OCNT-2310859
     RDKit          3D

 48 51  0  0  0  0  0  0  0  0999 V2000
    6.1015    1.8848    1.2797 C   0  0  0  0  0  0  0  0  0  0  0  0
    6.4614    0.5424    0.9852 O   0  0  0  0  0  0  0  0  0  0  0  0
    5.4803   -0.2792    0.4975 C   0  0  0  0  0  0  0  0  0  0  0  0
    4.1455    0.0851    0.2710 C   0  0  0  0  0  0  0  0  0  0  0  0
    3.1941   -0.8239   -0.2381 C   0  0  0  0  0  0  0  0  0  0  0  0
    1.8801   -0.4456   -0.4584 N   0  0  0  0  0  0  0  0  0  0  0  0
    1.2497    0.6470    0.3088 C   0  0  0  0  0  0  0  0  0  0  0  0
   -0.2598    0.3897    0.5259 C   0  0  0  0  0  0  0  0  0  0  0  0
   -1.0007    0.2519   -0.7567 N   0  0  0  0  0  0  0  0  0  0  0  0
   -2.1882   -0.4849   -0.5230 C   0  0  0  0  0  0  0  0  0  0  0  0
   -2.1435   -1.8273   -0.6195 N   0  0  0  0  0  0  0  0  0  0  0  0
   -3.2749   -2.4888   -0.3499 C   0  0  0  0  0  0  0  0  0  0  0  0
   -4.4433   -1.9455    0.0055 N   0  0  0  0  0  0  0  0  0  0  0  0
   -4.4701   -0.6004    0.0914 C   0  0  0  0  0  0  0  0  0  0  0  0
   -3.3594    0.1922   -0.1798 C   0  0  0  0  0  0  0  0  0  0  0  0
   -3.4151    1.6922   -0.0716 C   0  0  0  0  0  0  0  0  0  0  0  0
   -4.8383    2.2505   -0.0634 C   0  0  0  0  0  0  0  0  0  0  0  0
   -5.7142    1.4556    0.8954 C   0  0  0  0  0  0  0  0  0  0  0  0
   -5.8068    0.0038    0.4364 C   0  0  0  0  0  0  0  0  0  0  0  0
   -0.1839   -0.3427   -1.8471 C   0  0  0  0  0  0  0  0  0  0  0  0
    0.9783   -1.2223   -1.3351 C   0  0  0  0  0  0  0  0  0  0  0  0
    3.6463   -2.1233   -0.5226 C   0  0  0  0  0  0  0  0  0  0  0  0
    4.9718   -2.5052   -0.3018 C   0  0  0  0  0  0  0  0  0  0  0  0
    5.8748   -1.5836    0.2062 C   0  0  0  0  0  0  0  0  0  0  0  0
    7.1430   -1.9712    0.4111 F   0  0  0  0  0  0  0  0  0  0  0  0
    6.9933    2.3955    1.6557 H   0  0  0  0  0  0  0  0  0  0  0  0
    5.7719    2.4121    0.3784 H   0  0  0  0  0  0  0  0  0  0  0  0
    5.3390    1.9264    2.0645 H   0  0  0  0  0  0  0  0  0  0  0  0
    3.8308    1.1039    0.4644 H   0  0  0  0  0  0  0  0  0  0  0  0
    1.7082    0.7473    1.2999 H   0  0  0  0  0  0  0  0  0  0  0  0
    1.3934    1.5905   -0.2312 H   0  0  0  0  0  0  0  0  0  0  0  0
   -0.6782    1.2271    1.0956 H   0  0  0  0  0  0  0  0  0  0  0  0
   -0.3641   -0.5147    1.1425 H   0  0  0  0  0  0  0  0  0  0  0  0
   -3.2405   -3.5698   -0.4259 H   0  0  0  0  0  0  0  0  0  0  0  0
   -2.8717    2.1556   -0.9034 H   0  0  0  0  0  0  0  0  0  0  0  0
   -2.9177    1.9882    0.8599 H   0  0  0  0  0  0  0  0  0  0  0  0
   -5.2632    2.2037   -1.0742 H   0  0  0  0  0  0  0  0  0  0  0  0
   -4.8181    3.3066    0.2279 H   0  0  0  0  0  0  0  0  0  0  0  0
   -5.2916    1.5036    1.9070 H   0  0  0  0  0  0  0  0  0  0  0  0
   -6.7177    1.8927    0.9438 H   0  0  0  0  0  0  0  0  0  0  0  0
   -6.2890   -0.5929    1.2195 H   0  0  0  0  0  0  0  0  0  0  0  0
   -6.4414   -0.0551   -0.4567 H   0  0  0  0  0  0  0  0  0  0  0  0
   -0.7966   -0.8984   -2.5690 H   0  0  0  0  0  0  0  0  0  0  0  0
    0.2431    0.4965   -2.4122 H   0  0  0  0  0  0  0  0  0  0  0  0
    1.5235   -1.5874   -2.2138 H   0  0  0  0  0  0  0  0  0  0  0  0
    0.5931   -2.0888   -0.7855 H   0  0  0  0  0  0  0  0  0  0  0  0
    2.9634   -2.8782   -0.9025 H   0  0  0  0  0  0  0  0  0  0  0  0
    5.3013   -3.5157   -0.5192 H   0  0  0  0  0  0  0  0  0  0  0  0
  1  2  1  0
  2  3  1  0
  3  4  1  0
  4  5  2  0
  5  6  1  0
  6  7  1  0
  7  8  1  0
  8  9  1  0
  9 10  1  0
 10 11  1  0
 11 12  2  0
 12 13  1  0
 13 14  2  0
 14 15  1  0
 15 16  1  0
 16 17  1  0
 17 18  1  0
 18 19  1  0
  9 20  1  0
 20 21  1  0
  5 22  1  0
 22 23  2  0
 23 24  1  0
 24 25  1  0
 24  3  2  0
 21  6  1  0
 15 10  2  0
 19 14  1  0
  1 26  1  0
  1 27  1  0
  1 28  1  0
  4 29  1  0
  7 30  1  0
  7 31  1  0
  8 32  1  0
  8 33  1  0
 12 34  1  0
 16 35  1  0
 16 36  1  0
 17 37  1  0
 17 38  1  0
 18 39  1  0
 18 40  1  0
 19 41  1  0
 19 42  1  0
 20 43  1  0
 20 44  1  0
 21 45  1  0
 21 46  1  0
 22 47  1  0
 23 48  1  0
M  END
$$$$
OCNT-2310864
     RDKit          3D

 42 44  0  0  0  0  0  0  0  0999 V2000
   -1.2705   -1.7395    1.9239 O   0  0  0  0  0  0  0  0  0  0  0  0
   -1.5939   -0.7065    1.3464 C   0  0  0  0  0  0  0  0  0  0  0  0
   -0.9642    0.4906    1.5492 N   0  0  0  0  0  0  0  0  0  0  0  0
    0.1973    0.5838    2.4060 C   0  0  0  0  0  0  0  0  0  0  0  0
    1.4707    0.4765    1.6061 C   0  0  0  0  0  0  0  0  0  0  0  0
    2.1556    1.6209    1.1845 C   0  0  0  0  0  0  0  0  0  0  0  0
    3.3266    1.5146    0.4218 C   0  0  0  0  0  0  0  0  0  0  0  0
    3.8354    0.2566    0.0569 C   0  0  0  0  0  0  0  0  0  0  0  0
    5.0275    0.1612   -0.7204 N   0  0  0  0  0  0  0  0  0  0  0  0
    5.7968    1.2092   -1.1913 C   0  0  0  0  0  0  0  0  0  0  0  0
    6.8395    0.6466   -1.8873 C   0  0  0  0  0  0  0  0  0  0  0  0
    6.7519   -0.7115   -1.8695 N   0  0  0  0  0  0  0  0  0  0  0  0
    5.6689   -0.9754   -1.1696 C   0  0  0  0  0  0  0  0  0  0  0  0
    3.1382   -0.8819    0.4761 C   0  0  0  0  0  0  0  0  0  0  0  0
    3.5463   -2.1198    0.1693 F   0  0  0  0  0  0  0  0  0  0  0  0
    1.9726   -0.7760    1.2371 C   0  0  0  0  0  0  0  0  0  0  0  0
   -2.6409   -0.6615    0.4599 N   0  0  0  0  0  0  0  0  0  0  0  0
   -3.3665   -1.8739    0.1155 C   0  0  0  0  0  0  0  0  0  0  0  0
   -4.3283   -1.4545   -0.9892 C   0  0  0  0  0  0  0  0  0  0  0  0
   -4.5847    0.0253   -0.6838 C   0  0  0  0  0  0  0  0  0  0  0  0
   -5.5440    0.1115    0.3950 O   0  0  0  0  0  0  0  0  0  0  0  0
   -5.0293    0.8172   -1.9141 C   0  0  0  0  0  0  0  0  0  0  0  0
   -4.1157    0.7251   -2.9105 F   0  0  0  0  0  0  0  0  0  0  0  0
   -5.1699    2.1323   -1.6288 F   0  0  0  0  0  0  0  0  0  0  0  0
   -6.2048    0.3693   -2.4063 F   0  0  0  0  0  0  0  0  0  0  0  0
   -3.2196    0.5127   -0.1914 C   0  0  0  0  0  0  0  0  0  0  0  0
   -1.0023    1.1486    0.7887 H   0  0  0  0  0  0  0  0  0  0  0  0
    0.1483    1.5564    2.9081 H   0  0  0  0  0  0  0  0  0  0  0  0
    0.1705   -0.1841    3.1875 H   0  0  0  0  0  0  0  0  0  0  0  0
    1.7865    2.6107    1.4489 H   0  0  0  0  0  0  0  0  0  0  0  0
    3.8118    2.4420    0.1322 H   0  0  0  0  0  0  0  0  0  0  0  0
    5.5660    2.2466   -1.0101 H   0  0  0  0  0  0  0  0  0  0  0  0
    7.6473    1.1539   -2.3989 H   0  0  0  0  0  0  0  0  0  0  0  0
    5.3211   -1.9783   -0.9697 H   0  0  0  0  0  0  0  0  0  0  0  0
    1.4569   -1.6876    1.5353 H   0  0  0  0  0  0  0  0  0  0  0  0
   -2.6749   -2.6600   -0.2033 H   0  0  0  0  0  0  0  0  0  0  0  0
   -3.9012   -2.2178    1.0080 H   0  0  0  0  0  0  0  0  0  0  0  0
   -3.8371   -1.5744   -1.9623 H   0  0  0  0  0  0  0  0  0  0  0  0
   -5.2368   -2.0643   -0.9775 H   0  0  0  0  0  0  0  0  0  0  0  0
   -5.1129   -0.2035    1.2114 H   0  0  0  0  0  0  0  0  0  0  0  0
   -2.5444    0.7900   -1.0081 H   0  0  0  0  0  0  0  0  0  0  0  0
   -3.2937    1.3375    0.5243 H   0  0  0  0  0  0  0  0  0  0  0  0
  1  2  2  0
  2  3  1  0
  3  4  1  0
  4  5  1  0
  5  6  1  0
  6  7  2  0
  7  8  1  0
  8  9  1  0
  9 10  1  0
 10 11  2  0
 11 12  1  0
 12 13  2  0
  8 14  2  0
 14 15  1  0
 14 16  1  0
  2 17  1  0
 17 18  1  0
 18 19  1  0
 19 20  1  0
 20 21  1  0
 20 22  1  0
 22 23  1  0
 22 24  1  0
 22 25  1  0
 20 26  1  0
 16  5  2  0
 26 17  1  0
 13  9  1  0
  3 27  1  0
  4 28  1  0
  4 29  1  0
  6 30  1  0
  7 31  1  0
 10 32  1  0
 11 33  1  0
 13 34  1  0
 16 35  1  0
 18 36  1  0
 18 37  1  0
 19 38  1  0
 19 39  1  0
 21 40  1  0
 26 41  1  0
 26 42  1  0
M  END
$$$$
OCNT-2310873
     RDKit          3D

 37 39  0  0  0  0  0  0  0  0999 V2000
    6.3418   -0.1451   -1.9463 N   0  0  0  0  0  0  0  0  0  0  0  0
    5.3794   -1.0608   -1.6237 C   0  0  0  0  0  0  0  0  0  0  0  0
    5.4977   -2.2348   -1.9492 O   0  0  0  0  0  0  0  0  0  0  0  0
    4.2104   -0.5953   -0.8469 C   0  0  0  0  0  0  0  0  0  0  0  0
    3.4259   -1.5382   -0.1993 C   0  0  0  0  0  0  0  0  0  0  0  0
    2.3314   -1.2350    0.5442 N   0  0  0  0  0  0  0  0  0  0  0  0
    1.9652    0.0674    0.6494 C   0  0  0  0  0  0  0  0  0  0  0  0
    0.8217    0.3869    1.4293 N   0  0  0  0  0  0  0  0  0  0  0  0
   -0.3848    0.9090    0.8205 C   0  0  0  0  0  0  0  0  0  0  0  0
   -1.0565   -0.4390    1.1269 C   0  0  0  0  0  0  0  0  0  0  0  0
   -2.4680   -0.4189    1.6890 C   0  0  0  0  0  0  0  0  0  0  0  0
   -3.4501   -0.0419    0.6065 C   0  0  0  0  0  0  0  0  0  0  0  0
   -3.9002   -1.0050   -0.3122 C   0  0  0  0  0  0  0  0  0  0  0  0
   -4.7951   -0.6548   -1.3266 C   0  0  0  0  0  0  0  0  0  0  0  0
   -5.2397    0.6586   -1.4269 C   0  0  0  0  0  0  0  0  0  0  0  0
   -6.0969    0.9900   -2.4022 F   0  0  0  0  0  0  0  0  0  0  0  0
   -4.7981    1.6191   -0.5263 C   0  0  0  0  0  0  0  0  0  0  0  0
   -5.2253    2.8855   -0.6264 F   0  0  0  0  0  0  0  0  0  0  0  0
   -3.9063    1.2793    0.4876 C   0  0  0  0  0  0  0  0  0  0  0  0
    0.0630   -0.6009    2.1640 C   0  0  0  0  0  0  0  0  0  0  0  0
    2.7112    1.0792    0.0162 C   0  0  0  0  0  0  0  0  0  0  0  0
    2.3170    2.7583    0.1538 Cl  0  0  0  0  0  0  0  0  0  0  0  0
    3.8371    0.7418   -0.7411 C   0  0  0  0  0  0  0  0  0  0  0  0
    6.4231    0.7583   -1.5031 H   0  0  0  0  0  0  0  0  0  0  0  0
    7.1756   -0.5161   -2.3870 H   0  0  0  0  0  0  0  0  0  0  0  0
    3.6593   -2.5998   -0.2523 H   0  0  0  0  0  0  0  0  0  0  0  0
   -0.3029    1.1541   -0.2420 H   0  0  0  0  0  0  0  0  0  0  0  0
   -0.7613    1.7740    1.3771 H   0  0  0  0  0  0  0  0  0  0  0  0
   -0.9492   -1.1606    0.3029 H   0  0  0  0  0  0  0  0  0  0  0  0
   -2.7324   -1.4060    2.0880 H   0  0  0  0  0  0  0  0  0  0  0  0
   -2.5523    0.2818    2.5292 H   0  0  0  0  0  0  0  0  0  0  0  0
   -3.5536   -2.0348   -0.2422 H   0  0  0  0  0  0  0  0  0  0  0  0
   -5.1457   -1.3964   -2.0376 H   0  0  0  0  0  0  0  0  0  0  0  0
   -3.5780    2.0525    1.1766 H   0  0  0  0  0  0  0  0  0  0  0  0
    0.5090   -1.5960    2.2332 H   0  0  0  0  0  0  0  0  0  0  0  0
   -0.1654   -0.2399    3.1737 H   0  0  0  0  0  0  0  0  0  0  0  0
    4.3929    1.5235   -1.2474 H   0  0  0  0  0  0  0  0  0  0  0  0
  1  2  1  0
  2  3  2  0
  2  4  1  0
  4  5  1  0
  5  6  2  0
  6  7  1  0
  7  8  1  0
  8  9  1  0
  9 10  1  0
 10 11  1  0
 11 12  1  0
 12 13  1  0
 13 14  2  0
 14 15  1  0
 15 16  1  0
 15 17  2  0
 17 18  1  0
 17 19  1  0
 10 20  1  0
  7 21  2  0
 21 22  1  0
 21 23  1  0
 23  4  2  0
 20  8  1  0
 19 12  2  0
  1 24  1  0
  1 25  1  0
  5 26  1  0
  9 27  1  0
  9 28  1  0
 10 29  1  0
 11 30  1  0
 11 31  1  0
 13 32  1  0
 14 33  1  0
 19 34  1  0
 20 35  1  0
 20 36  1  0
 23 37  1  0
M  END
$$$$
OCNT-2310875
     RDKit          3D

  0  0  0  0  0  0  0  0  0  0999 V3000
M  V30 BEGIN CTAB
M  V30 COUNTS 50 53 0 0 0
M  V30 BEGIN ATOM
M  V30 1 O 0.030526 0.558735 -3.378566 0
M  V30 2 C 0.459513 -0.427883 -2.786329 0
M  V30 3 C 1.861535 -0.969222 -3.010826 0
M  V30 4 C 2.796239 -0.603280 -1.881184 0
M  V30 5 C 3.134310 0.736465 -1.654234 0
M  V30 6 C 3.965374 1.094773 -0.587247 0
M  V30 7 C 4.477223 0.114300 0.274163 0
M  V30 8 N 5.305125 0.480978 1.375740 0
M  V30 9 C 5.711416 1.748524 1.734356 0
M  V30 10 C 6.470304 1.602810 2.870888 0
M  V30 11 N 6.558210 0.291326 3.229810 0
M  V30 12 C 5.862863 -0.355909 2.321773 0
M  V30 13 C 4.151826 -1.230860 0.037797 0
M  V30 14 C 3.319674 -1.584290 -1.032203 0
M  V30 15 N -0.267951 -1.128819 -1.842114 0
M  V30 16 C -1.555773 -0.630763 -1.384030 0 CFG=2
M  V30 17 C -1.384449 0.553395 -0.418962 0
M  V30 18 C -2.575256 0.455095 0.536535 0
M  V30 19 C -3.843590 1.076960 -0.077377 0
M  V30 20 N -5.010487 0.951411 0.774780 0
M  V30 21 C -5.222517 1.593936 1.962202 0
M  V30 22 C -6.439593 1.128947 2.401917 0
M  V30 23 N -6.974847 0.239039 1.503858 0
M  V30 24 C -6.099675 0.165129 0.526371 0
M  V30 25 C -2.660626 -1.059207 0.768547 0
M  V30 26 C -2.366988 -1.687152 -0.594107 0 CFG=1
M  V30 27 O -3.597371 -1.957049 -1.264013 0
M  V30 28 H 2.249739 -0.568214 -3.955874 0
M  V30 29 H 1.802071 -2.057590 -3.137876 0
M  V30 30 H 2.740964 1.517656 -2.305308 0
M  V30 31 H 4.181887 2.152584 -0.458805 0
M  V30 32 H 5.444818 2.636774 1.181545 0
M  V30 33 H 6.956006 2.378147 3.447005 0
M  V30 34 H 5.731481 -1.428264 2.320307 0
M  V30 35 H 4.525123 -2.037181 0.663138 0
M  V30 36 H 3.087042 -2.636982 -1.193799 0
M  V30 37 H 0.259546 -1.728454 -1.215261 0
M  V30 38 H -2.119975 -0.304121 -2.268053 0
M  V30 39 H -0.452387 0.448776 0.151310 0
M  V30 40 H -1.336696 1.511248 -0.945654 0
M  V30 41 H -2.346837 0.965822 1.480551 0
M  V30 42 H -4.093776 0.635869 -1.050165 0
M  V30 43 H -3.691174 2.151915 -0.244346 0
M  V30 44 H -4.516515 2.293329 2.388667 0
M  V30 45 H -6.960319 1.389218 3.314552 0
M  V30 46 H -6.198134 -0.440768 -0.365680 0
M  V30 47 H -3.618425 -1.377820 1.192527 0
M  V30 48 H -1.870055 -1.350025 1.473345 0
M  V30 49 H -1.832317 -2.637227 -0.488035 0
M  V30 50 H -4.047077 -2.672082 -0.776599 0
M  V30 END ATOM
M  V30 BEGIN BOND
M  V30 1 2 1 2
M  V30 2 1 2 3
M  V30 3 1 3 4
M  V30 4 1 4 5
M  V30 5 2 5 6
M  V30 6 1 6 7
M  V30 7 1 7 8
M  V30 8 1 8 9
M  V30 9 2 9 10
M  V30 10 1 10 11
M  V30 11 2 11 12
M  V30 12 2 7 13
M  V30 13 1 13 14
M  V30 14 1 2 15
M  V30 15 1 15 16
M  V30 16 1 16 17
M  V30 17 1 17 18
M  V30 18 1 18 19
M  V30 19 1 19 20
M  V30 20 1 20 21
M  V30 21 2 21 22
M  V30 22 1 22 23
M  V30 23 2 23 24
M  V30 24 1 18 25
M  V30 25 1 25 26
M  V30 26 1 26 27
M  V30 27 2 14 4
M  V30 28 1 26 16
M  V30 29 1 12 8
M  V30 30 1 24 20
M  V30 31 1 3 28
M  V30 32 1 3 29
M  V30 33 1 5 30
M  V30 34 1 6 31
M  V30 35 1 9 32
M  V30 36 1 10 33
M  V30 37 1 12 34
M  V30 38 1 13 35
M  V30 39 1 14 36
M  V30 40 1 15 37
M  V30 41 1 16 38 CFG=3
M  V30 42 1 17 39
M  V30 43 1 17 40
M  V30 44 1 18 41
M  V30 45 1 19 42
M  V30 46 1 19 43
M  V30 47 1 21 44
M  V30 48 1 22 45
M  V30 49 1 24 46
M  V30 50 1 25 47
M  V30 51 1 25 48
M  V30 52 1 26 49 CFG=1
M  V30 53 1 27 50
M  V30 END BOND
M  V30 BEGIN COLLECTION
M  V30 MDLV30/STERAC1 ATOMS=(2 16 26)
M  V30 END COLLECTION
M  V30 END CTAB
M  END
>  <_CXSMILES_Data>  (398) 
|&1:15,25|

$$$$
OCNT-2310884
     RDKit          3D

 42 44  0  0  0  0  0  0  0  0999 V2000
    8.3230    0.8482    0.1568 C   0  0  0  0  0  0  0  0  0  0  0  0
    6.8667    0.5134    0.0235 C   0  0  0  0  0  0  0  0  0  0  0  0
    6.0489    1.2408   -0.8468 C   0  0  0  0  0  0  0  0  0  0  0  0
    4.6851    0.9486   -0.9475 C   0  0  0  0  0  0  0  0  0  0  0  0
    4.1076   -0.0685   -0.1739 C   0  0  0  0  0  0  0  0  0  0  0  0
    2.6835   -0.3503   -0.3001 C   0  0  0  0  0  0  0  0  0  0  0  0
    1.7711    0.2165   -1.0636 N   0  0  0  0  0  0  0  0  0  0  0  0
    0.5824   -0.4297   -0.7952 N   0  0  0  0  0  0  0  0  0  0  0  0
    0.8451   -1.3441    0.1152 C   0  0  0  0  0  0  0  0  0  0  0  0
   -0.3124   -2.4367    0.8100 S   0  0  0  0  0  0  0  0  0  0  0  0
   -1.8551   -1.8973    0.0035 C   0  0  0  0  0  0  0  0  0  0  0  0
   -2.4214   -0.6201    0.6469 C   0  0  0  0  0  0  0  0  0  0  0  0
   -3.6752   -0.1545    0.0078 N   0  0  0  0  0  0  0  0  0  0  0  0
   -4.8166   -1.0214    0.3480 C   0  0  0  0  0  0  0  0  0  0  0  0
   -6.0811   -0.5608   -0.3659 C   0  0  0  0  0  0  0  0  0  0  0  0
   -6.3633    0.8878   -0.0411 C   0  0  0  0  0  0  0  0  0  0  0  0
   -7.4301    1.3172   -0.7616 F   0  0  0  0  0  0  0  0  0  0  0  0
   -6.7230    0.9925    1.2665 F   0  0  0  0  0  0  0  0  0  0  0  0
   -5.1760    1.7835   -0.3063 C   0  0  0  0  0  0  0  0  0  0  0  0
   -3.9455    1.2398    0.4059 C   0  0  0  0  0  0  0  0  0  0  0  0
    2.1656   -1.3512    0.4787 O   0  0  0  0  0  0  0  0  0  0  0  0
    4.9306   -0.7842    0.7074 C   0  0  0  0  0  0  0  0  0  0  0  0
    6.2951   -0.4927    0.8091 C   0  0  0  0  0  0  0  0  0  0  0  0
    8.4627    1.6081    0.9317 H   0  0  0  0  0  0  0  0  0  0  0  0
    8.7246    1.2280   -0.7885 H   0  0  0  0  0  0  0  0  0  0  0  0
    8.9051   -0.0404    0.4229 H   0  0  0  0  0  0  0  0  0  0  0  0
    6.4666    2.0405   -1.4551 H   0  0  0  0  0  0  0  0  0  0  0  0
    4.0722    1.5268   -1.6379 H   0  0  0  0  0  0  0  0  0  0  0  0
   -1.6938   -1.7615   -1.0716 H   0  0  0  0  0  0  0  0  0  0  0  0
   -2.5589   -2.7267    0.1190 H   0  0  0  0  0  0  0  0  0  0  0  0
   -2.5803   -0.7697    1.7233 H   0  0  0  0  0  0  0  0  0  0  0  0
   -1.6679    0.1708    0.5463 H   0  0  0  0  0  0  0  0  0  0  0  0
   -4.9836   -1.0384    1.4330 H   0  0  0  0  0  0  0  0  0  0  0  0
   -4.6239   -2.0526    0.0345 H   0  0  0  0  0  0  0  0  0  0  0  0
   -6.9274   -1.1828   -0.0533 H   0  0  0  0  0  0  0  0  0  0  0  0
   -5.9769   -0.6879   -1.4505 H   0  0  0  0  0  0  0  0  0  0  0  0
   -4.9944    1.8553   -1.3857 H   0  0  0  0  0  0  0  0  0  0  0  0
   -5.3890    2.7982    0.0483 H   0  0  0  0  0  0  0  0  0  0  0  0
   -4.0747    1.3159    1.4937 H   0  0  0  0  0  0  0  0  0  0  0  0
   -3.0942    1.8764    0.1350 H   0  0  0  0  0  0  0  0  0  0  0  0
    4.5203   -1.5774    1.3292 H   0  0  0  0  0  0  0  0  0  0  0  0
    6.9086   -1.0594    1.5066 H   0  0  0  0  0  0  0  0  0  0  0  0
  1  2  1  0
  2  3  1  0
  3  4  2  0
  4  5  1  0
  5  6  1  0
  6  7  2  0
  7  8  1  0
  8  9  2  0
  9 10  1  0
 10 11  1  0
 11 12  1  0
 12 13  1  0
 13 14  1  0
 14 15  1  0
 15 16  1  0
 16 17  1  0
 16 18  1  0
 16 19  1  0
 19 20  1  0
  9 21  1  0
  5 22  2  0
 22 23  1  0
 23  2  2  0
 21  6  1  0
 20 13  1  0
  1 24  1  0
  1 25  1  0
  1 26  1  0
  3 27  1  0
  4 28  1  0
 11 29  1  0
 11 30  1  0
 12 31  1  0
 12 32  1  0
 14 33  1  0
 14 34  1  0
 15 35  1  0
 15 36  1  0
 19 37  1  0
 19 38  1  0
 20 39  1  0
 20 40  1  0
 22 41  1  0
 23 42  1  0
M  END
$$$$
OCNT-2310886
     RDKit          3D

  0  0  0  0  0  0  0  0  0  0999 V3000
M  V30 BEGIN CTAB
M  V30 COUNTS 51 52 0 0 0
M  V30 BEGIN ATOM
M  V30 1 C 6.594245 -1.676081 1.067902 0
M  V30 2 C 6.428997 -0.282544 1.657588 0
M  V30 3 C 5.568677 0.620128 0.780025 0
M  V30 4 O 4.250273 0.087372 0.705283 0
M  V30 5 C 3.393616 0.885825 -0.095882 0
M  V30 6 C 1.981900 0.301477 -0.252621 0
M  V30 7 O 1.659319 -0.825450 0.110659 0
M  V30 8 N 1.096733 1.179312 -0.857928 0
M  V30 9 C -0.294524 0.824573 -1.090111 0
M  V30 10 C -1.151393 0.899147 0.192668 0 CFG=1
M  V30 11 C -1.222870 2.343164 0.751948 0
M  V30 12 C -2.595224 2.997784 0.634686 0
M  V30 13 C -3.218869 2.701206 -0.715096 0
M  V30 14 C -3.407669 1.201629 -0.949124 0
M  V30 15 C -2.571067 0.284384 -0.014713 0 CFG=1
M  V30 16 N -2.564280 -1.112447 -0.515989 0
M  V30 17 C -1.835103 -2.080292 0.341105 0
M  V30 18 C -2.754572 -2.991050 1.172798 0
M  V30 19 O -3.655749 -3.774339 0.379406 0
M  V30 20 C -3.950058 -3.169533 -0.884979 0
M  V30 21 C -3.917234 -1.634974 -0.821966 0
M  V30 22 H 7.053503 -1.628945 0.075354 0
M  V30 23 H 7.238337 -2.283831 1.711287 0
M  V30 24 H 5.630761 -2.187393 0.977241 0
M  V30 25 H 7.416554 0.173074 1.789287 0
M  V30 26 H 5.969668 -0.377235 2.648424 0
M  V30 27 H 5.529601 1.623452 1.219347 0
M  V30 28 H 5.998368 0.692694 -0.225818 0
M  V30 29 H 3.818289 0.984665 -1.101862 0
M  V30 30 H 3.302669 1.879452 0.358431 0
M  V30 31 H 1.398137 2.117554 -1.083064 0
M  V30 32 H -0.671038 1.506805 -1.858932 0
M  V30 33 H -0.302110 -0.187188 -1.508616 0
M  V30 34 H -0.627073 0.328688 0.966978 0
M  V30 35 H -0.482013 2.986185 0.262141 0
M  V30 36 H -0.944202 2.329676 1.813618 0
M  V30 37 H -3.252244 2.636638 1.435365 0
M  V30 38 H -2.498322 4.080266 0.776283 0
M  V30 39 H -2.580891 3.114288 -1.506501 0
M  V30 40 H -4.184594 3.212138 -0.804553 0
M  V30 41 H -3.181878 0.988945 -2.002407 0
M  V30 42 H -4.473019 0.974316 -0.814764 0
M  V30 43 H -3.065526 0.277895 0.967690 0
M  V30 44 H -1.115981 -1.609376 1.013020 0
M  V30 45 H -1.246014 -2.713329 -0.334750 0
M  V30 46 H -2.154051 -3.688199 1.766168 0
M  V30 47 H -3.349748 -2.396493 1.875762 0
M  V30 48 H -4.945392 -3.511651 -1.186507 0
M  V30 49 H -3.237761 -3.549169 -1.627034 0
M  V30 50 H -4.251355 -1.240405 -1.787401 0
M  V30 51 H -4.627827 -1.312807 -0.049647 0
M  V30 END ATOM
M  V30 BEGIN BOND
M  V30 1 1 1 2
M  V30 2 1 2 3
M  V30 3 1 3 4
M  V30 4 1 4 5
M  V30 5 1 5 6
M  V30 6 2 6 7
M  V30 7 1 6 8
M  V30 8 1 8 9
M  V30 9 1 9 10
M  V30 10 1 10 11
M  V30 11 1 11 12
M  V30 12 1 12 13
M  V30 13 1 13 14
M  V30 14 1 14 15
M  V30 15 1 15 16
M  V30 16 1 16 17
M  V30 17 1 17 18
M  V30 18 1 18 19
M  V30 19 1 19 20
M  V30 20 1 20 21
M  V30 21 1 15 10
M  V30 22 1 21 16
M  V30 23 1 1 22
M  V30 24 1 1 23
M  V30 25 1 1 24
M  V30 26 1 2 25
M  V30 27 1 2 26
M  V30 28 1 3 27
M  V30 29 1 3 28
M  V30 30 1 5 29
M  V30 31 1 5 30
M  V30 32 1 8 31
M  V30 33 1 9 32
M  V30 34 1 9 33
M  V30 35 1 10 34 CFG=1
M  V30 36 1 11 35
M  V30 37 1 11 36
M  V30 38 1 12 37
M  V30 39 1 12 38
M  V30 40 1 13 39
M  V30 41 1 13 40
M  V30 42 1 14 41
M  V30 43 1 14 42
M  V30 44 1 15 43 CFG=1
M  V30 45 1 17 44
M  V30 46 1 17 45
M  V30 47 1 18 46
M  V30 48 1 18 47
M  V30 49 1 20 48
M  V30 50 1 20 49
M  V30 51 1 21 50
M  V30 52 1 21 51
M  V30 END BOND
M  V30 BEGIN COLLECTION
M  V30 MDLV30/STERAC1 ATOMS=(2 10 15)
M  V30 END COLLECTION
M  V30 END CTAB
M  END
>  <_CXSMILES_Data>  (400) 
|&1:9,14|

$$$$
