OCNT-2311653
     RDKit          3D

 41 43  0  0  0  0  0  0  0  0999 V2000
    2.0004   -2.7297   -1.0235 O   0  0  0  0  0  0  0  0  0  0  0  0
    1.5269   -1.6894   -1.4715 C   0  0  0  0  0  0  0  0  0  0  0  0
    2.3584   -0.6906   -2.2504 C   0  0  0  0  0  0  0  0  0  0  0  0
    2.8596    0.4323   -1.3805 C   0  0  0  0  0  0  0  0  0  0  0  0
    4.0651    0.3126   -0.6745 C   0  0  0  0  0  0  0  0  0  0  0  0
    4.5048    1.3556    0.1432 C   0  0  0  0  0  0  0  0  0  0  0  0
    3.7406    2.5127    0.2545 C   0  0  0  0  0  0  0  0  0  0  0  0
    4.1641    3.5096    1.0419 F   0  0  0  0  0  0  0  0  0  0  0  0
    2.5399    2.6462   -0.4267 C   0  0  0  0  0  0  0  0  0  0  0  0
    2.1050    1.6004   -1.2300 C   0  0  0  0  0  0  0  0  0  0  0  0
    0.9243    1.7120   -1.8569 F   0  0  0  0  0  0  0  0  0  0  0  0
    0.2081   -1.3246   -1.3142 N   0  0  0  0  0  0  0  0  0  0  0  0
   -0.6583   -2.0984   -0.4570 C   0  0  0  0  0  0  0  0  0  0  0  0
   -2.0818   -1.6005   -0.5360 C   0  0  0  0  0  0  0  0  0  0  0  0
   -2.9299   -2.1622   -1.5096 C   0  0  0  0  0  0  0  0  0  0  0  0
   -4.2454   -1.7256   -1.6538 C   0  0  0  0  0  0  0  0  0  0  0  0
   -4.7330   -0.7136   -0.8343 C   0  0  0  0  0  0  0  0  0  0  0  0
   -3.9023   -0.1367    0.1266 C   0  0  0  0  0  0  0  0  0  0  0  0
   -2.5709   -0.5630    0.2914 C   0  0  0  0  0  0  0  0  0  0  0  0
   -1.7445    0.0885    1.3123 C   0  0  0  0  0  0  0  0  0  0  0  0
   -1.0988    1.3046    1.0661 C   0  0  0  0  0  0  0  0  0  0  0  0
   -0.3230    1.8952    2.0608 C   0  0  0  0  0  0  0  0  0  0  0  0
   -0.2170    1.2507    3.2815 C   0  0  0  0  0  0  0  0  0  0  0  0
   -0.8289    0.0829    3.5664 N   0  0  0  0  0  0  0  0  0  0  0  0
   -1.5766   -0.4669    2.5800 C   0  0  0  0  0  0  0  0  0  0  0  0
    3.2022   -1.2224   -2.7068 H   0  0  0  0  0  0  0  0  0  0  0  0
    1.7700   -0.2982   -3.0889 H   0  0  0  0  0  0  0  0  0  0  0  0
    4.6600   -0.5961   -0.7477 H   0  0  0  0  0  0  0  0  0  0  0  0
    5.4351    1.2706    0.6969 H   0  0  0  0  0  0  0  0  0  0  0  0
    1.9492    3.5485   -0.3267 H   0  0  0  0  0  0  0  0  0  0  0  0
   -0.0341   -0.3532   -1.4682 H   0  0  0  0  0  0  0  0  0  0  0  0
   -0.6030   -3.1515   -0.7599 H   0  0  0  0  0  0  0  0  0  0  0  0
   -0.2661   -2.0604    0.5648 H   0  0  0  0  0  0  0  0  0  0  0  0
   -2.5601   -2.9480   -2.1654 H   0  0  0  0  0  0  0  0  0  0  0  0
   -4.8879   -2.1743   -2.4077 H   0  0  0  0  0  0  0  0  0  0  0  0
   -5.7587   -0.3702   -0.9427 H   0  0  0  0  0  0  0  0  0  0  0  0
   -4.3017    0.6571    0.7574 H   0  0  0  0  0  0  0  0  0  0  0  0
   -1.1995    1.7949    0.1012 H   0  0  0  0  0  0  0  0  0  0  0  0
    0.1853    2.8367    1.8902 H   0  0  0  0  0  0  0  0  0  0  0  0
    0.3781    1.6706    4.0870 H   0  0  0  0  0  0  0  0  0  0  0  0
   -2.0554   -1.4065    2.8465 H   0  0  0  0  0  0  0  0  0  0  0  0
  1  2  2  0
  2  3  1  0
  3  4  1  0
  4  5  1  0
  5  6  2  0
  6  7  1  0
  7  8  1  0
  7  9  2  0
  9 10  1  0
 10 11  1  0
  2 12  1  0
 12 13  1  0
 13 14  1  0
 14 15  2  0
 15 16  1  0
 16 17  2  0
 17 18  1  0
 18 19  2  0
 19 20  1  0
 20 21  1  0
 21 22  2  0
 22 23  1  0
 23 24  2  0
 24 25  1  0
 10  4  2  0
 19 14  1  0
 25 20  2  0
  3 26  1  0
  3 27  1  0
  5 28  1  0
  6 29  1  0
  9 30  1  0
 12 31  1  0
 13 32  1  0
 13 33  1  0
 15 34  1  0
 16 35  1  0
 17 36  1  0
 18 37  1  0
 21 38  1  0
 22 39  1  0
 23 40  1  0
 25 41  1  0
M  END
$$$$
OCNT-2311655
     RDKit          3D

 40 43  0  0  0  0  0  0  0  0999 V2000
    1.7422   -1.9613    1.1031 O   0  0  0  0  0  0  0  0  0  0  0  0
    1.4909   -0.9070    0.5270 C   0  0  0  0  0  0  0  0  0  0  0  0
    0.2250   -0.5480    0.0804 N   0  0  0  0  0  0  0  0  0  0  0  0
   -0.9866   -1.2534    0.2460 C   0  0  0  0  0  0  0  0  0  0  0  0
   -1.1159   -2.4281    0.9867 C   0  0  0  0  0  0  0  0  0  0  0  0
   -2.3571   -3.0597    1.1039 C   0  0  0  0  0  0  0  0  0  0  0  0
   -3.4821   -2.5225    0.4828 C   0  0  0  0  0  0  0  0  0  0  0  0
   -3.3800   -1.3418   -0.2626 C   0  0  0  0  0  0  0  0  0  0  0  0
   -4.5971   -0.7592   -0.9385 C   0  0  0  0  0  0  0  0  0  0  0  0
   -5.5675   -0.2592    0.0265 N   0  0  0  0  0  0  0  0  0  0  0  0
   -5.4729    0.8888    0.7651 C   0  0  0  0  0  0  0  0  0  0  0  0
   -6.6284    0.9616    1.5064 C   0  0  0  0  0  0  0  0  0  0  0  0
   -7.3635   -0.1784    1.1344 C   0  0  0  0  0  0  0  0  0  0  0  0
   -6.7284   -0.9200    0.2236 N   0  0  0  0  0  0  0  0  0  0  0  0
   -2.1261   -0.7159   -0.3732 C   0  0  0  0  0  0  0  0  0  0  0  0
    2.5228    0.0880    0.2253 C   0  0  0  0  0  0  0  0  0  0  0  0
    2.4132    1.4368   -0.0727 C   0  0  0  0  0  0  0  0  0  0  0  0
    3.6802    2.0488   -0.3120 C   0  0  0  0  0  0  0  0  0  0  0  0
    4.7197    1.1565   -0.1782 C   0  0  0  0  0  0  0  0  0  0  0  0
    6.2272    1.5441   -0.3807 C   0  0  0  0  0  0  0  0  0  0  0  0
    6.6005    2.7887   -0.7094 N   0  0  0  0  0  0  0  0  0  0  0  0
    7.9390    2.7155   -0.7858 N   0  0  0  0  0  0  0  0  0  0  0  0
    8.4330    1.4729   -0.5221 C   0  0  0  0  0  0  0  0  0  0  0  0
    7.3408    0.6833   -0.2533 C   0  0  0  0  0  0  0  0  0  0  0  0
    4.1721   -0.4002    0.2365 S   0  0  0  0  0  0  0  0  0  0  0  0
    0.1675    0.2896   -0.4792 H   0  0  0  0  0  0  0  0  0  0  0  0
   -0.2720   -2.8837    1.4951 H   0  0  0  0  0  0  0  0  0  0  0  0
   -2.4431   -3.9740    1.6864 H   0  0  0  0  0  0  0  0  0  0  0  0
   -4.4425   -3.0259    0.5899 H   0  0  0  0  0  0  0  0  0  0  0  0
   -5.0853   -1.5169   -1.5625 H   0  0  0  0  0  0  0  0  0  0  0  0
   -4.3337    0.0828   -1.5890 H   0  0  0  0  0  0  0  0  0  0  0  0
   -4.6068    1.5326    0.7102 H   0  0  0  0  0  0  0  0  0  0  0  0
   -6.9030    1.7285    2.2160 H   0  0  0  0  0  0  0  0  0  0  0  0
   -8.3361   -0.4977    1.4863 H   0  0  0  0  0  0  0  0  0  0  0  0
   -2.0445    0.2007   -0.9532 H   0  0  0  0  0  0  0  0  0  0  0  0
    1.4800    1.9843   -0.1051 H   0  0  0  0  0  0  0  0  0  0  0  0
    3.8255    3.0940   -0.5606 H   0  0  0  0  0  0  0  0  0  0  0  0
    8.4537    3.5570   -1.0243 H   0  0  0  0  0  0  0  0  0  0  0  0
    9.4931    1.2655   -0.5473 H   0  0  0  0  0  0  0  0  0  0  0  0
    7.3465   -0.3671    0.0008 H   0  0  0  0  0  0  0  0  0  0  0  0
  1  2  2  0
  2  3  1  0
  3  4  1  0
  4  5  1  0
  5  6  2  0
  6  7  1  0
  7  8  2  0
  8  9  1  0
  9 10  1  0
 10 11  1  0
 11 12  2  0
 12 13  1  0
 13 14  2  0
  8 15  1  0
  2 16  1  0
 16 17  2  0
 17 18  1  0
 18 19  2  0
 19 20  1  0
 20 21  2  0
 21 22  1  0
 22 23  1  0
 23 24  2  0
 19 25  1  0
 15  4  2  0
 25 16  1  0
 14 10  1  0
 24 20  1  0
  3 26  1  0
  5 27  1  0
  6 28  1  0
  7 29  1  0
  9 30  1  0
  9 31  1  0
 11 32  1  0
 12 33  1  0
 13 34  1  0
 15 35  1  0
 17 36  1  0
 18 37  1  0
 22 38  1  0
 23 39  1  0
 24 40  1  0
M  END
$$$$
OCNT-2311661
     RDKit          3D

 50 52  0  0  0  0  0  0  0  0999 V2000
   -3.7827   -2.0566   -0.0769 C   0  0  0  0  0  0  0  0  0  0  0  0
   -3.0120   -1.8329   -1.3965 C   0  0  0  0  0  0  0  0  0  0  0  0
   -3.9138   -2.3167   -2.5509 C   0  0  0  0  0  0  0  0  0  0  0  0
   -1.7126   -2.6610   -1.4031 C   0  0  0  0  0  0  0  0  0  0  0  0
   -0.7002   -2.2249   -0.3426 C   0  0  0  0  0  0  0  0  0  0  0  0
   -0.6487   -0.7020   -0.1099 C   0  0  0  0  0  0  0  0  0  0  0  0
    0.7224   -0.2884    0.1871 N   0  0  0  0  0  0  0  0  0  0  0  0
    1.3034   -0.5000    1.4194 C   0  0  0  0  0  0  0  0  0  0  0  0
    0.7383   -1.0704    2.3442 O   0  0  0  0  0  0  0  0  0  0  0  0
    2.7182    0.0322    1.5000 C   0  0  0  0  0  0  0  0  0  0  0  0
    3.3245   -0.1847    2.8851 C   0  0  0  0  0  0  0  0  0  0  0  0
    4.7797    0.1733    2.9362 C   0  0  0  0  0  0  0  0  0  0  0  0
    5.4637    1.2320    2.3657 C   0  0  0  0  0  0  0  0  0  0  0  0
    6.8257    1.2670    2.5923 N   0  0  0  0  0  0  0  0  0  0  0  0
    7.1605    0.2487    3.3543 C   0  0  0  0  0  0  0  0  0  0  0  0
    5.8855   -0.7928    3.8335 S   0  0  0  0  0  0  0  0  0  0  0  0
   -1.2358    0.0745   -1.3135 C   0  0  0  0  0  0  0  0  0  0  0  0
   -1.1243    1.5913   -1.2015 C   0  0  0  0  0  0  0  0  0  0  0  0
   -1.4579    2.2746   -0.0220 C   0  0  0  0  0  0  0  0  0  0  0  0
   -1.3556    3.6656    0.0487 C   0  0  0  0  0  0  0  0  0  0  0  0
   -0.9281    4.3932   -1.0594 C   0  0  0  0  0  0  0  0  0  0  0  0
   -0.6045    3.7307   -2.2406 C   0  0  0  0  0  0  0  0  0  0  0  0
   -0.7043    2.3395   -2.3128 C   0  0  0  0  0  0  0  0  0  0  0  0
   -2.7053   -0.3207   -1.5845 C   0  0  0  0  0  0  0  0  0  0  0  0
   -3.2408   -1.6685    0.7880 H   0  0  0  0  0  0  0  0  0  0  0  0
   -3.9679   -3.1224    0.0965 H   0  0  0  0  0  0  0  0  0  0  0  0
   -4.7550   -1.5542   -0.0997 H   0  0  0  0  0  0  0  0  0  0  0  0
   -4.8473   -1.7397   -2.5908 H   0  0  0  0  0  0  0  0  0  0  0  0
   -3.4124   -2.2058   -3.5221 H   0  0  0  0  0  0  0  0  0  0  0  0
   -4.1773   -3.3770   -2.4331 H   0  0  0  0  0  0  0  0  0  0  0  0
   -1.2377   -2.5763   -2.3907 H   0  0  0  0  0  0  0  0  0  0  0  0
   -1.9321   -3.7285   -1.2699 H   0  0  0  0  0  0  0  0  0  0  0  0
   -0.9331   -2.7182    0.6106 H   0  0  0  0  0  0  0  0  0  0  0  0
    0.2858   -2.6091   -0.6364 H   0  0  0  0  0  0  0  0  0  0  0  0
   -1.2425   -0.4811    0.7864 H   0  0  0  0  0  0  0  0  0  0  0  0
    1.2271    0.2443   -0.5127 H   0  0  0  0  0  0  0  0  0  0  0  0
    2.6980    1.1016    1.2565 H   0  0  0  0  0  0  0  0  0  0  0  0
    3.3171   -0.4799    0.7361 H   0  0  0  0  0  0  0  0  0  0  0  0
    2.7827    0.4163    3.6273 H   0  0  0  0  0  0  0  0  0  0  0  0
    3.1900   -1.2344    3.1777 H   0  0  0  0  0  0  0  0  0  0  0  0
    5.0191    2.0170    1.7659 H   0  0  0  0  0  0  0  0  0  0  0  0
    8.1803    0.0723    3.6644 H   0  0  0  0  0  0  0  0  0  0  0  0
   -0.6429   -0.2216   -2.1925 H   0  0  0  0  0  0  0  0  0  0  0  0
   -1.8056    1.7344    0.8561 H   0  0  0  0  0  0  0  0  0  0  0  0
   -1.6199    4.1804    0.9702 H   0  0  0  0  0  0  0  0  0  0  0  0
   -0.8556    5.4761   -1.0046 H   0  0  0  0  0  0  0  0  0  0  0  0
   -0.2818    4.2979   -3.1100 H   0  0  0  0  0  0  0  0  0  0  0  0
   -0.4576    1.8447   -3.2497 H   0  0  0  0  0  0  0  0  0  0  0  0
   -2.9454   -0.0094   -2.6130 H   0  0  0  0  0  0  0  0  0  0  0  0
   -3.3815    0.2692   -0.9477 H   0  0  0  0  0  0  0  0  0  0  0  0
  1  2  1  0
  2  3  1  0
  2  4  1  0
  4  5  1  0
  5  6  1  0
  6  7  1  0
  7  8  1  0
  8  9  2  0
  8 10  1  0
 10 11  1  0
 11 12  1  0
 12 13  2  0
 13 14  1  0
 14 15  2  0
 15 16  1  0
  6 17  1  0
 17 18  1  0
 18 19  2  0
 19 20  1  0
 20 21  2  0
 21 22  1  0
 22 23  2  0
 17 24  1  0
 24  2  1  0
 16 12  1  0
 23 18  1  0
  1 25  1  0
  1 26  1  0
  1 27  1  0
  3 28  1  0
  3 29  1  0
  3 30  1  0
  4 31  1  0
  4 32  1  0
  5 33  1  0
  5 34  1  0
  6 35  1  0
  7 36  1  0
 10 37  1  0
 10 38  1  0
 11 39  1  0
 11 40  1  0
 13 41  1  0
 15 42  1  0
 17 43  1  0
 19 44  1  0
 20 45  1  0
 21 46  1  0
 22 47  1  0
 23 48  1  0
 24 49  1  0
 24 50  1  0
M  END
$$$$
OCNT-2311662
     RDKit          3D

 61 65  0  0  0  0  0  0  0  0999 V2000
   -2.0523   -1.0095   -2.0756 C   0  0  0  0  0  0  0  0  0  0  0  0
   -2.7793    0.3376   -1.8425 C   0  0  0  0  0  0  0  0  0  0  0  0
   -3.6295    0.6081   -3.1121 C   0  0  0  0  0  0  0  0  0  0  0  0
   -1.6245    1.4000   -1.7916 C   0  0  0  0  0  0  0  0  0  0  0  0
   -1.4797    2.1940   -2.7294 O   0  0  0  0  0  0  0  0  0  0  0  0
   -0.7312    1.4283   -0.7184 N   0  0  0  0  0  0  0  0  0  0  0  0
   -0.8259    0.6478    0.5156 C   0  0  0  0  0  0  0  0  0  0  0  0
    0.5530    0.2018    0.9884 C   0  0  0  0  0  0  0  0  0  0  0  0
    1.4956    1.3908    1.2441 C   0  0  0  0  0  0  0  0  0  0  0  0
    2.9210    1.0411    0.8002 C   0  0  0  0  0  0  0  0  0  0  0  0
    3.4700    1.6254   -0.1261 O   0  0  0  0  0  0  0  0  0  0  0  0
    3.4700    0.0220    1.5645 N   0  0  0  0  0  0  0  0  0  0  0  0
    4.7583   -0.5426    1.4464 C   0  0  0  0  0  0  0  0  0  0  0  0
    5.0854   -1.5744    2.3563 C   0  0  0  0  0  0  0  0  0  0  0  0
    6.3393   -2.1948    2.3303 C   0  0  0  0  0  0  0  0  0  0  0  0
    7.2437   -1.7645    1.3881 C   0  0  0  0  0  0  0  0  0  0  0  0
    8.5036   -2.2440    1.2168 O   0  0  0  0  0  0  0  0  0  0  0  0
    8.9623   -1.4171    0.1275 C   0  0  0  0  0  0  0  0  0  0  0  0
    7.9665   -0.4893   -0.3428 O   0  0  0  0  0  0  0  0  0  0  0  0
    6.9340   -0.7662    0.4990 C   0  0  0  0  0  0  0  0  0  0  0  0
    5.7027   -0.1396    0.4988 C   0  0  0  0  0  0  0  0  0  0  0  0
    0.9950    2.6811    0.5770 C   0  0  0  0  0  0  0  0  0  0  0  0
    0.3568    2.4101   -0.7823 C   0  0  0  0  0  0  0  0  0  0  0  0
   -3.7658    0.4783   -0.6477 C   0  0  0  0  0  0  0  0  0  0  0  0
   -3.9660    1.7940   -0.1568 C   0  0  0  0  0  0  0  0  0  0  0  0
   -4.7552    2.0587    0.9543 C   0  0  0  0  0  0  0  0  0  0  0  0
   -5.3917    1.0149    1.6027 C   0  0  0  0  0  0  0  0  0  0  0  0
   -5.2900   -0.2935    1.1216 C   0  0  0  0  0  0  0  0  0  0  0  0
   -5.9976   -1.3030    1.7946 C   0  0  0  0  0  0  0  0  0  0  0  0
   -5.9841   -2.6164    1.3430 C   0  0  0  0  0  0  0  0  0  0  0  0
   -5.2748   -2.9294    0.1971 C   0  0  0  0  0  0  0  0  0  0  0  0
   -4.5614   -1.9326   -0.4777 C   0  0  0  0  0  0  0  0  0  0  0  0
   -4.5059   -0.5883   -0.0319 C   0  0  0  0  0  0  0  0  0  0  0  0
   -1.8052   -1.5364   -1.1523 H   0  0  0  0  0  0  0  0  0  0  0  0
   -1.1106   -0.8642   -2.6202 H   0  0  0  0  0  0  0  0  0  0  0  0
   -2.6387   -1.6895   -2.7025 H   0  0  0  0  0  0  0  0  0  0  0  0
   -4.4702   -0.0924   -3.1899 H   0  0  0  0  0  0  0  0  0  0  0  0
   -4.0470    1.6228   -3.1177 H   0  0  0  0  0  0  0  0  0  0  0  0
   -3.0276    0.5057   -4.0233 H   0  0  0  0  0  0  0  0  0  0  0  0
   -1.4611   -0.2260    0.4006 H   0  0  0  0  0  0  0  0  0  0  0  0
   -1.3003    1.2849    1.2723 H   0  0  0  0  0  0  0  0  0  0  0  0
    0.9803   -0.4748    0.2346 H   0  0  0  0  0  0  0  0  0  0  0  0
    0.4518   -0.3857    1.9100 H   0  0  0  0  0  0  0  0  0  0  0  0
    1.5465    1.5863    2.3248 H   0  0  0  0  0  0  0  0  0  0  0  0
    2.8953   -0.3489    2.3095 H   0  0  0  0  0  0  0  0  0  0  0  0
    4.3629   -1.9063    3.0971 H   0  0  0  0  0  0  0  0  0  0  0  0
    6.5929   -2.9863    3.0260 H   0  0  0  0  0  0  0  0  0  0  0  0
    9.2596   -2.0638   -0.7060 H   0  0  0  0  0  0  0  0  0  0  0  0
    9.8402   -0.8532    0.4617 H   0  0  0  0  0  0  0  0  0  0  0  0
    5.5140    0.6393   -0.2289 H   0  0  0  0  0  0  0  0  0  0  0  0
    1.8011    3.4167    0.4719 H   0  0  0  0  0  0  0  0  0  0  0  0
    0.2444    3.1456    1.2307 H   0  0  0  0  0  0  0  0  0  0  0  0
    1.0987    2.0236   -1.4898 H   0  0  0  0  0  0  0  0  0  0  0  0
   -0.0270    3.3512   -1.1915 H   0  0  0  0  0  0  0  0  0  0  0  0
   -3.4916    2.6475   -0.6408 H   0  0  0  0  0  0  0  0  0  0  0  0
   -4.8709    3.0775    1.3133 H   0  0  0  0  0  0  0  0  0  0  0  0
   -5.9988    1.2399    2.4772 H   0  0  0  0  0  0  0  0  0  0  0  0
   -6.5840   -1.0677    2.6804 H   0  0  0  0  0  0  0  0  0  0  0  0
   -6.5417   -3.3834    1.8708 H   0  0  0  0  0  0  0  0  0  0  0  0
   -5.2787   -3.9457   -0.1866 H   0  0  0  0  0  0  0  0  0  0  0  0
   -4.0766   -2.2452   -1.3922 H   0  0  0  0  0  0  0  0  0  0  0  0
  1  2  1  0
  2  3  1  0
  2  4  1  0
  4  5  2  0
  4  6  1  0
  6  7  1  0
  7  8  1  0
  8  9  1  0
  9 10  1  0
 10 11  2  0
 10 12  1  0
 12 13  1  0
 13 14  1  0
 14 15  2  0
 15 16  1  0
 16 17  1  0
 17 18  1  0
 18 19  1  0
 19 20  1  0
 20 21  1  0
  9 22  1  0
 22 23  1  0
  2 24  1  0
 24 25  2  0
 25 26  1  0
 26 27  2  0
 27 28  1  0
 28 29  2  0
 29 30  1  0
 30 31  2  0
 31 32  1  0
 32 33  2  0
 23  6  1  0
 33 24  1  0
 21 13  2  0
 33 28  1  0
 20 16  2  0
  1 34  1  0
  1 35  1  0
  1 36  1  0
  3 37  1  0
  3 38  1  0
  3 39  1  0
  7 40  1  0
  7 41  1  0
  8 42  1  0
  8 43  1  0
  9 44  1  0
 12 45  1  0
 14 46  1  0
 15 47  1  0
 18 48  1  0
 18 49  1  0
 21 50  1  0
 22 51  1  0
 22 52  1  0
 23 53  1  0
 23 54  1  0
 25 55  1  0
 26 56  1  0
 27 57  1  0
 29 58  1  0
 30 59  1  0
 31 60  1  0
 32 61  1  0
M  END
$$$$
OCNT-2311676
     RDKit          3D

 39 42  0  0  0  0  0  0  0  0999 V2000
   -2.1260    0.7832    1.5394 O   0  0  0  0  0  0  0  0  0  0  0  0
   -2.1289    0.4677    0.3570 C   0  0  0  0  0  0  0  0  0  0  0  0
   -1.0697   -0.0446   -0.3719 N   0  0  0  0  0  0  0  0  0  0  0  0
    0.2558   -0.2388    0.0690 C   0  0  0  0  0  0  0  0  0  0  0  0
    1.1402   -0.8661   -0.8158 C   0  0  0  0  0  0  0  0  0  0  0  0
    2.4740   -1.0881   -0.4578 C   0  0  0  0  0  0  0  0  0  0  0  0
    2.9539   -0.6761    0.7920 C   0  0  0  0  0  0  0  0  0  0  0  0
    4.3884   -0.9136    1.1928 C   0  0  0  0  0  0  0  0  0  0  0  0
    5.3225   -0.2256    0.3179 N   0  0  0  0  0  0  0  0  0  0  0  0
    6.2195   -0.8110   -0.5334 C   0  0  0  0  0  0  0  0  0  0  0  0
    6.9024    0.2382   -1.1033 C   0  0  0  0  0  0  0  0  0  0  0  0
    6.4498    1.4363   -0.6150 N   0  0  0  0  0  0  0  0  0  0  0  0
    5.5007    1.1269    0.2399 C   0  0  0  0  0  0  0  0  0  0  0  0
    2.0658   -0.0500    1.6755 C   0  0  0  0  0  0  0  0  0  0  0  0
    0.7303    0.1675    1.3157 C   0  0  0  0  0  0  0  0  0  0  0  0
   -3.3856    0.6062   -0.4150 C   0  0  0  0  0  0  0  0  0  0  0  0
   -3.3879    1.1414   -1.7093 C   0  0  0  0  0  0  0  0  0  0  0  0
   -4.5965    1.2456   -2.3810 C   0  0  0  0  0  0  0  0  0  0  0  0
   -5.8005    0.8681   -1.8990 N   0  0  0  0  0  0  0  0  0  0  0  0
   -5.7433    0.3814   -0.6462 C   0  0  0  0  0  0  0  0  0  0  0  0
   -4.6151    0.2235    0.1516 C   0  0  0  0  0  0  0  0  0  0  0  0
   -5.0665   -0.3282    1.3847 C   0  0  0  0  0  0  0  0  0  0  0  0
   -6.4343   -0.4854    1.3018 C   0  0  0  0  0  0  0  0  0  0  0  0
   -6.8307   -0.0488    0.0640 N   0  0  0  0  0  0  0  0  0  0  0  0
   -1.2745   -0.3801   -1.3043 H   0  0  0  0  0  0  0  0  0  0  0  0
    0.8074   -1.1938   -1.7973 H   0  0  0  0  0  0  0  0  0  0  0  0
    3.1360   -1.5783   -1.1693 H   0  0  0  0  0  0  0  0  0  0  0  0
    4.6105   -1.9865    1.1659 H   0  0  0  0  0  0  0  0  0  0  0  0
    4.5891   -0.5591    2.2107 H   0  0  0  0  0  0  0  0  0  0  0  0
    6.2988   -1.8813   -0.6604 H   0  0  0  0  0  0  0  0  0  0  0  0
    7.6980    0.1950   -1.8357 H   0  0  0  0  0  0  0  0  0  0  0  0
    4.9178    1.8328    0.8177 H   0  0  0  0  0  0  0  0  0  0  0  0
    2.3983    0.2817    2.6574 H   0  0  0  0  0  0  0  0  0  0  0  0
    0.0868    0.6655    2.0347 H   0  0  0  0  0  0  0  0  0  0  0  0
   -2.4772    1.4978   -2.1781 H   0  0  0  0  0  0  0  0  0  0  0  0
   -4.6281    1.6656   -3.3845 H   0  0  0  0  0  0  0  0  0  0  0  0
   -4.4515   -0.5742    2.2422 H   0  0  0  0  0  0  0  0  0  0  0  0
   -7.1550   -0.8629    2.0150 H   0  0  0  0  0  0  0  0  0  0  0  0
   -7.7747   -0.0318   -0.2935 H   0  0  0  0  0  0  0  0  0  0  0  0
  1  2  2  0
  2  3  1  0
  3  4  1  0
  4  5  1  0
  5  6  2  0
  6  7  1  0
  7  8  1  0
  8  9  1  0
  9 10  1  0
 10 11  2  0
 11 12  1  0
 12 13  2  0
  7 14  2  0
 14 15  1  0
  2 16  1  0
 16 17  2  0
 17 18  1  0
 18 19  2  0
 19 20  1  0
 20 21  2  0
 21 22  1  0
 22 23  2  0
 23 24  1  0
 15  4  2  0
 21 16  1  0
 13  9  1  0
 24 20  1  0
  3 25  1  0
  5 26  1  0
  6 27  1  0
  8 28  1  0
  8 29  1  0
 10 30  1  0
 11 31  1  0
 13 32  1  0
 14 33  1  0
 15 34  1  0
 17 35  1  0
 18 36  1  0
 22 37  1  0
 23 38  1  0
 24 39  1  0
M  END
$$$$
OCNT-2311683
     RDKit          3D

 50 52  0  0  0  0  0  0  0  0999 V2000
   -4.7326   -1.8638   -1.6769 C   0  0  0  0  0  0  0  0  0  0  0  0
   -4.5655   -0.4684   -1.1295 C   0  0  0  0  0  0  0  0  0  0  0  0
   -5.7027    0.2399   -0.7039 C   0  0  0  0  0  0  0  0  0  0  0  0
   -5.5902    1.5367   -0.2072 C   0  0  0  0  0  0  0  0  0  0  0  0
   -4.3392    2.1420   -0.1257 C   0  0  0  0  0  0  0  0  0  0  0  0
   -3.1844    1.4523   -0.5281 C   0  0  0  0  0  0  0  0  0  0  0  0
   -3.2944    0.1456   -1.0481 C   0  0  0  0  0  0  0  0  0  0  0  0
   -2.0377   -0.5965   -1.4579 C   0  0  0  0  0  0  0  0  0  0  0  0
   -0.7595    0.2674   -1.4487 C   0  0  0  0  0  0  0  0  0  0  0  0
   -0.6830    1.2563   -0.3545 N   0  0  0  0  0  0  0  0  0  0  0  0
   -0.5830    0.6246    0.9862 C   0  0  0  0  0  0  0  0  0  0  0  0
    0.8027    0.9347    1.6437 C   0  0  0  0  0  0  0  0  0  0  0  0
    0.7620    0.6196    3.1452 C   0  0  0  0  0  0  0  0  0  0  0  0
    1.0055    2.3568    1.5387 O   0  0  0  0  0  0  0  0  0  0  0  0
    1.9680    0.1805    0.9854 C   0  0  0  0  0  0  0  0  0  0  0  0
    1.9875   -1.2283    0.9569 C   0  0  0  0  0  0  0  0  0  0  0  0
    3.0468   -1.9252    0.3657 C   0  0  0  0  0  0  0  0  0  0  0  0
    4.1079   -1.2162   -0.1931 C   0  0  0  0  0  0  0  0  0  0  0  0
    5.4472   -2.0934   -0.9601 S   0  0  0  0  0  0  0  0  0  0  0  0
    6.5567   -2.4012    0.3902 C   0  0  0  0  0  0  0  0  0  0  0  0
    6.1035   -1.1819   -1.8833 O   0  0  0  0  0  0  0  0  0  0  0  0
    4.9278   -3.3688   -1.4201 O   0  0  0  0  0  0  0  0  0  0  0  0
    4.1126    0.1786   -0.1873 C   0  0  0  0  0  0  0  0  0  0  0  0
    3.0506    0.8677    0.4059 C   0  0  0  0  0  0  0  0  0  0  0  0
   -1.8442    2.1559   -0.4598 C   0  0  0  0  0  0  0  0  0  0  0  0
   -4.4294   -1.8927   -2.7287 H   0  0  0  0  0  0  0  0  0  0  0  0
   -4.1314   -2.5814   -1.1035 H   0  0  0  0  0  0  0  0  0  0  0  0
   -5.7788   -2.1913   -1.6214 H   0  0  0  0  0  0  0  0  0  0  0  0
   -6.6892   -0.2163   -0.7627 H   0  0  0  0  0  0  0  0  0  0  0  0
   -6.4803    2.0774    0.1118 H   0  0  0  0  0  0  0  0  0  0  0  0
   -4.2641    3.1619    0.2536 H   0  0  0  0  0  0  0  0  0  0  0  0
   -1.9056   -1.4392   -0.7728 H   0  0  0  0  0  0  0  0  0  0  0  0
   -2.1665   -1.0053   -2.4688 H   0  0  0  0  0  0  0  0  0  0  0  0
   -0.6982    0.8093   -2.4011 H   0  0  0  0  0  0  0  0  0  0  0  0
    0.1220   -0.3816   -1.4419 H   0  0  0  0  0  0  0  0  0  0  0  0
   -1.3617    1.0382    1.6441 H   0  0  0  0  0  0  0  0  0  0  0  0
   -0.7609   -0.4564    0.9589 H   0  0  0  0  0  0  0  0  0  0  0  0
    1.7153    0.8775    3.6273 H   0  0  0  0  0  0  0  0  0  0  0  0
   -0.0092    1.2177    3.6480 H   0  0  0  0  0  0  0  0  0  0  0  0
    0.5543   -0.4384    3.3415 H   0  0  0  0  0  0  0  0  0  0  0  0
    0.7281    2.5554    0.6200 H   0  0  0  0  0  0  0  0  0  0  0  0
    1.1726   -1.7966    1.3930 H   0  0  0  0  0  0  0  0  0  0  0  0
    3.0305   -3.0126    0.3461 H   0  0  0  0  0  0  0  0  0  0  0  0
    7.4148   -2.9560    0.0005 H   0  0  0  0  0  0  0  0  0  0  0  0
    6.0437   -3.0020    1.1442 H   0  0  0  0  0  0  0  0  0  0  0  0
    6.8870   -1.4449    0.8057 H   0  0  0  0  0  0  0  0  0  0  0  0
    4.9275    0.7402   -0.6409 H   0  0  0  0  0  0  0  0  0  0  0  0
    3.0782    1.9587    0.4093 H   0  0  0  0  0  0  0  0  0  0  0  0
   -1.7381    2.7534   -1.3721 H   0  0  0  0  0  0  0  0  0  0  0  0
   -1.8229    2.8735    0.3759 H   0  0  0  0  0  0  0  0  0  0  0  0
  1  2  1  0
  2  3  1  0
  3  4  2  0
  4  5  1  0
  5  6  2  0
  6  7  1  0
  7  8  1  0
  8  9  1  0
  9 10  1  0
 10 11  1  0
 11 12  1  0
 12 13  1  0
 12 14  1  0
 12 15  1  0
 15 16  1  0
 16 17  2  0
 17 18  1  0
 18 19  1  0
 19 20  1  0
 19 21  2  0
 19 22  2  0
 18 23  2  0
 23 24  1  0
 10 25  1  0
  7  2  2  0
 24 15  2  0
 25  6  1  0
  1 26  1  0
  1 27  1  0
  1 28  1  0
  3 29  1  0
  4 30  1  0
  5 31  1  0
  8 32  1  0
  8 33  1  0
  9 34  1  0
  9 35  1  0
 11 36  1  0
 11 37  1  0
 13 38  1  0
 13 39  1  0
 13 40  1  0
 14 41  1  0
 16 42  1  0
 17 43  1  0
 20 44  1  0
 20 45  1  0
 20 46  1  0
 23 47  1  0
 24 48  1  0
 25 49  1  0
 25 50  1  0
M  END
$$$$
OCNT-2311687
     RDKit          3D

 42 45  0  0  0  0  0  0  0  0999 V2000
    5.4966    1.2463    3.0587 O   0  0  0  0  0  0  0  0  0  0  0  0
    5.0420    0.8775    1.9811 C   0  0  0  0  0  0  0  0  0  0  0  0
    5.8495    0.5402    0.9196 N   0  0  0  0  0  0  0  0  0  0  0  0
    5.4228    0.1305   -0.3222 C   0  0  0  0  0  0  0  0  0  0  0  0
    6.1832   -0.1367   -1.2434 O   0  0  0  0  0  0  0  0  0  0  0  0
    3.9746    0.0467   -0.4608 C   0  0  0  0  0  0  0  0  0  0  0  0
    3.1898    0.3682    0.5600 C   0  0  0  0  0  0  0  0  0  0  0  0
    1.7573    0.2163    0.1902 C   0  0  0  0  0  0  0  0  0  0  0  0
    1.8105   -0.5298   -1.0960 N   0  0  0  0  0  0  0  0  0  0  0  0
    0.7774   -0.1175   -2.0554 C   0  0  0  0  0  0  0  0  0  0  0  0
   -0.6701   -0.4575   -1.6495 C   0  0  0  0  0  0  0  0  0  0  0  0
   -0.9256   -1.9172   -1.3140 C   0  0  0  0  0  0  0  0  0  0  0  0
   -2.1972   -1.8127   -0.5086 C   0  0  0  0  0  0  0  0  0  0  0  0
   -1.9633   -0.5376    0.2954 C   0  0  0  0  0  0  0  0  0  0  0  0
   -3.2485    0.1562    0.6842 C   0  0  0  0  0  0  0  0  0  0  0  0
   -4.0669   -0.4088    1.6762 C   0  0  0  0  0  0  0  0  0  0  0  0
   -5.2651    0.2041    2.0482 C   0  0  0  0  0  0  0  0  0  0  0  0
   -5.6620    1.3892    1.4336 C   0  0  0  0  0  0  0  0  0  0  0  0
   -4.8616    1.9618    0.4479 C   0  0  0  0  0  0  0  0  0  0  0  0
   -3.6632    1.3493    0.0750 C   0  0  0  0  0  0  0  0  0  0  0  0
   -1.1027    0.3020   -0.5046 O   0  0  0  0  0  0  0  0  0  0  0  0
    3.1877   -0.3633   -1.6382 C   0  0  0  0  0  0  0  0  0  0  0  0
    3.6901    0.7778    1.7558 N   0  0  0  0  0  0  0  0  0  0  0  0
    6.8438    0.6141    1.0645 H   0  0  0  0  0  0  0  0  0  0  0  0
    1.3066    1.2102    0.0866 H   0  0  0  0  0  0  0  0  0  0  0  0
    1.2096   -0.3660    0.9370 H   0  0  0  0  0  0  0  0  0  0  0  0
    0.8517    0.9623   -2.2387 H   0  0  0  0  0  0  0  0  0  0  0  0
    0.9722   -0.6239   -3.0094 H   0  0  0  0  0  0  0  0  0  0  0  0
   -1.3287   -0.1592   -2.4761 H   0  0  0  0  0  0  0  0  0  0  0  0
   -1.0271   -2.5456   -2.2031 H   0  0  0  0  0  0  0  0  0  0  0  0
   -0.1329   -2.3361   -0.6843 H   0  0  0  0  0  0  0  0  0  0  0  0
   -3.0538   -1.7044   -1.1864 H   0  0  0  0  0  0  0  0  0  0  0  0
   -2.3813   -2.6862    0.1242 H   0  0  0  0  0  0  0  0  0  0  0  0
   -1.3957   -0.7632    1.2071 H   0  0  0  0  0  0  0  0  0  0  0  0
   -3.7734   -1.3337    2.1683 H   0  0  0  0  0  0  0  0  0  0  0  0
   -5.8883   -0.2432    2.8182 H   0  0  0  0  0  0  0  0  0  0  0  0
   -6.5939    1.8675    1.7232 H   0  0  0  0  0  0  0  0  0  0  0  0
   -5.1682    2.8876   -0.0319 H   0  0  0  0  0  0  0  0  0  0  0  0
   -3.0518    1.8138   -0.6956 H   0  0  0  0  0  0  0  0  0  0  0  0
    3.2408    0.4147   -2.4089 H   0  0  0  0  0  0  0  0  0  0  0  0
    3.5347   -1.3133   -2.0556 H   0  0  0  0  0  0  0  0  0  0  0  0
    3.0802    1.0196    2.5277 H   0  0  0  0  0  0  0  0  0  0  0  0
  1  2  2  0
  2  3  1  0
  3  4  1  0
  4  5  2  0
  4  6  1  0
  6  7  2  0
  7  8  1  0
  8  9  1  0
  9 10  1  0
 10 11  1  0
 11 12  1  0
 12 13  1  0
 13 14  1  0
 14 15  1  0
 15 16  2  0
 16 17  1  0
 17 18  2  0
 18 19  1  0
 19 20  2  0
 14 21  1  0
  9 22  1  0
  7 23  1  0
 23  2  1  0
 22  6  1  0
 21 11  1  0
 20 15  1  0
  3 24  1  0
  8 25  1  0
  8 26  1  0
 10 27  1  0
 10 28  1  0
 11 29  1  0
 12 30  1  0
 12 31  1  0
 13 32  1  0
 13 33  1  0
 14 34  1  0
 16 35  1  0
 17 36  1  0
 18 37  1  0
 19 38  1  0
 20 39  1  0
 22 40  1  0
 22 41  1  0
 23 42  1  0
M  END
$$$$
OCNT-2311711
     RDKit          3D

 54 58  0  0  0  0  0  0  0  0999 V2000
    4.7552   -0.2414   -2.5291 O   0  0  0  0  0  0  0  0  0  0  0  0
    4.7144   -0.1381   -1.3075 C   0  0  0  0  0  0  0  0  0  0  0  0
    5.4052    0.9304   -0.6105 C   0  0  0  0  0  0  0  0  0  0  0  0
    5.4467    0.8945    0.7651 C   0  0  0  0  0  0  0  0  0  0  0  0
    4.9045   -0.0589    1.5626 N   0  0  0  0  0  0  0  0  0  0  0  0
    4.2501   -0.9715    0.9184 C   0  0  0  0  0  0  0  0  0  0  0  0
    4.0680   -1.0369   -0.4537 N   0  0  0  0  0  0  0  0  0  0  0  0
    3.2847   -2.1276   -1.0314 C   0  0  0  0  0  0  0  0  0  0  0  0
    1.8146   -2.1263   -0.5969 C   0  0  0  0  0  0  0  0  0  0  0  0
    1.0357   -0.9592   -1.1681 C   0  0  0  0  0  0  0  0  0  0  0  0
    1.4608   -0.3208   -2.1294 O   0  0  0  0  0  0  0  0  0  0  0  0
   -0.1772   -0.6580   -0.5819 N   0  0  0  0  0  0  0  0  0  0  0  0
   -0.8948    0.5399   -0.9979 C   0  0  0  0  0  0  0  0  0  0  0  0
   -1.6721    0.9669    0.2506 C   0  0  0  0  0  0  0  0  0  0  0  0
   -2.7823    1.9808    0.0943 C   0  0  0  0  0  0  0  0  0  0  0  0
   -3.4813    2.4062    1.2377 C   0  0  0  0  0  0  0  0  0  0  0  0
   -4.5075    3.3485    1.1465 C   0  0  0  0  0  0  0  0  0  0  0  0
   -4.8478    3.8884   -0.0900 C   0  0  0  0  0  0  0  0  0  0  0  0
   -4.1575    3.4901   -1.2311 C   0  0  0  0  0  0  0  0  0  0  0  0
   -3.1295    2.5473   -1.1400 C   0  0  0  0  0  0  0  0  0  0  0  0
   -2.0736   -0.3969    0.8607 C   0  0  0  0  0  0  0  0  0  0  0  0
   -3.3481   -1.0162    0.2657 C   0  0  0  0  0  0  0  0  0  0  0  0
   -3.6371   -2.3922    0.8665 C   0  0  0  0  0  0  0  0  0  0  0  0
   -2.3756   -3.1827    1.2063 C   0  0  0  0  0  0  0  0  0  0  0  0
   -1.1873   -2.7591    0.3532 C   0  0  0  0  0  0  0  0  0  0  0  0
   -0.8283   -1.2827    0.5783 C   0  0  0  0  0  0  0  0  0  0  0  0
    6.3001    2.2267    1.4065 S   0  0  0  0  0  0  0  0  0  0  0  0
    6.6205    2.8538   -0.1557 C   0  0  0  0  0  0  0  0  0  0  0  0
    6.0894    2.0601   -1.1489 C   0  0  0  0  0  0  0  0  0  0  0  0
    3.7763   -1.7926    1.4794 H   0  0  0  0  0  0  0  0  0  0  0  0
    3.7436   -3.0613   -0.6830 H   0  0  0  0  0  0  0  0  0  0  0  0
    3.3575   -2.1217   -2.1240 H   0  0  0  0  0  0  0  0  0  0  0  0
    1.3469   -3.0435   -0.9711 H   0  0  0  0  0  0  0  0  0  0  0  0
    1.7462   -2.1215    0.4939 H   0  0  0  0  0  0  0  0  0  0  0  0
   -1.5475    0.2495   -1.8290 H   0  0  0  0  0  0  0  0  0  0  0  0
   -0.2116    1.3222   -1.3461 H   0  0  0  0  0  0  0  0  0  0  0  0
   -0.9367    1.4252    0.9311 H   0  0  0  0  0  0  0  0  0  0  0  0
   -3.2269    2.0063    2.2169 H   0  0  0  0  0  0  0  0  0  0  0  0
   -5.0375    3.6635    2.0414 H   0  0  0  0  0  0  0  0  0  0  0  0
   -5.6449    4.6232   -0.1641 H   0  0  0  0  0  0  0  0  0  0  0  0
   -4.4161    3.9165   -2.1972 H   0  0  0  0  0  0  0  0  0  0  0  0
   -2.6109    2.2753   -2.0554 H   0  0  0  0  0  0  0  0  0  0  0  0
   -2.2179   -0.2981    1.9448 H   0  0  0  0  0  0  0  0  0  0  0  0
   -4.2185   -0.3729    0.4347 H   0  0  0  0  0  0  0  0  0  0  0  0
   -3.2472   -1.1183   -0.8220 H   0  0  0  0  0  0  0  0  0  0  0  0
   -4.2556   -2.9614    0.1618 H   0  0  0  0  0  0  0  0  0  0  0  0
   -4.2367   -2.2807    1.7784 H   0  0  0  0  0  0  0  0  0  0  0  0
   -2.5687   -4.2543    1.0842 H   0  0  0  0  0  0  0  0  0  0  0  0
   -2.1276   -3.0316    2.2646 H   0  0  0  0  0  0  0  0  0  0  0  0
   -1.4126   -2.9454   -0.7048 H   0  0  0  0  0  0  0  0  0  0  0  0
   -0.3309   -3.3940    0.6040 H   0  0  0  0  0  0  0  0  0  0  0  0
   -0.1331   -1.1947    1.4224 H   0  0  0  0  0  0  0  0  0  0  0  0
    7.1826    3.7707   -0.2677 H   0  0  0  0  0  0  0  0  0  0  0  0
    6.1779    2.2748   -2.2078 H   0  0  0  0  0  0  0  0  0  0  0  0
  1  2  2  0
  2  3  1  0
  3  4  2  0
  4  5  1  0
  5  6  2  0
  6  7  1  0
  7  8  1  0
  8  9  1  0
  9 10  1  0
 10 11  2  0
 10 12  1  0
 12 13  1  0
 13 14  1  0
 14 15  1  0
 15 16  2  0
 16 17  1  0
 17 18  2  0
 18 19  1  0
 19 20  2  0
 14 21  1  0
 21 22  1  0
 22 23  1  0
 23 24  1  0
 24 25  1  0
 25 26  1  0
  4 27  1  0
 27 28  1  0
 28 29  2  0
  7  2  1  0
 26 12  1  0
 29  3  1  0
 20 15  1  0
 26 21  1  0
  6 30  1  0
  8 31  1  0
  8 32  1  0
  9 33  1  0
  9 34  1  0
 13 35  1  0
 13 36  1  0
 14 37  1  0
 16 38  1  0
 17 39  1  0
 18 40  1  0
 19 41  1  0
 20 42  1  0
 21 43  1  0
 22 44  1  0
 22 45  1  0
 23 46  1  0
 23 47  1  0
 24 48  1  0
 24 49  1  0
 25 50  1  0
 25 51  1  0
 26 52  1  0
 28 53  1  0
 29 54  1  0
M  END
$$$$
OCNT-2311723
     RDKit          3D

  0  0  0  0  0  0  0  0  0  0999 V3000
M  V30 BEGIN CTAB
M  V30 COUNTS 44 47 0 0 0
M  V30 BEGIN ATOM
M  V30 1 C 5.837786 -1.851125 -2.368389 0
M  V30 2 C 4.573807 -1.251021 -1.846918 0
M  V30 3 C 4.224213 -1.036287 -0.527641 0
M  V30 4 C 2.935787 -0.437048 -0.449832 0
M  V30 5 C 2.367482 -0.216750 -1.663863 0
M  V30 6 C 1.102328 0.394530 -1.459216 0
M  V30 7 C 0.930255 0.522398 -0.083677 0
M  V30 8 C -0.198390 1.103372 0.635062 0
M  V30 9 O -0.214290 1.269019 1.851924 0
M  V30 10 N -1.287788 1.427182 -0.143868 0
M  V30 11 C -2.553437 1.773812 0.478434 0 CFG=1
M  V30 12 C -3.562535 2.419907 -0.461252 0
M  V30 13 O -4.859446 2.221069 0.122238 0
M  V30 14 C -4.756861 1.178082 1.108233 0
M  V30 15 C -3.346103 0.606094 1.063338 0 CFG=1
M  V30 16 N -3.306534 -0.637166 0.304193 0
M  V30 17 C -3.489674 -1.892458 0.820981 0
M  V30 18 C -3.348560 -2.767015 -0.229702 0
M  V30 19 C -3.069801 -1.950375 -1.338549 0
M  V30 20 N -3.030717 -0.654351 -1.019555 0
M  V30 21 N 2.065126 0.006227 0.524575 0
M  V30 22 C 2.354953 -0.108176 1.941072 0
M  V30 23 C 3.129572 1.067681 2.496530 0
M  V30 24 F 3.261734 0.944510 3.840726 0
M  V30 25 F 2.541995 2.256543 2.255792 0
M  V30 26 F 4.383285 1.116038 1.986973 0
M  V30 27 S 3.372090 -0.742466 -2.969195 0
M  V30 28 H 6.510418 -2.120600 -1.547303 0
M  V30 29 H 5.628038 -2.760408 -2.941273 0
M  V30 30 H 6.366242 -1.142604 -3.014633 0
M  V30 31 H 4.855788 -1.287217 0.315294 0
M  V30 32 H 0.418822 0.705970 -2.237516 0
M  V30 33 H -1.379000 0.897390 -1.007066 0
M  V30 34 H -2.348903 2.483679 1.292112 0
M  V30 35 H -3.381682 3.492404 -0.583397 0
M  V30 36 H -3.564332 1.967786 -1.458636 0
M  V30 37 H -4.947432 1.646035 2.080457 0
M  V30 38 H -5.545599 0.440675 0.927796 0
M  V30 39 H -2.989925 0.348171 2.068024 0
M  V30 40 H -3.703133 -2.053649 1.868594 0
M  V30 41 H -3.433132 -3.843865 -0.199906 0
M  V30 42 H -2.890494 -2.246406 -2.364494 0
M  V30 43 H 1.418769 -0.258905 2.483124 0
M  V30 44 H 2.929276 -1.030680 2.087404 0
M  V30 END ATOM
M  V30 BEGIN BOND
M  V30 1 1 1 2
M  V30 2 2 2 3
M  V30 3 1 3 4
M  V30 4 2 4 5
M  V30 5 1 5 6
M  V30 6 2 6 7
M  V30 7 1 7 8
M  V30 8 2 8 9
M  V30 9 1 8 10
M  V30 10 1 10 11
M  V30 11 1 11 12
M  V30 12 1 12 13
M  V30 13 1 13 14
M  V30 14 1 14 15
M  V30 15 1 15 16
M  V30 16 1 16 17
M  V30 17 2 17 18
M  V30 18 1 18 19
M  V30 19 2 19 20
M  V30 20 1 7 21
M  V30 21 1 21 22
M  V30 22 1 22 23
M  V30 23 1 23 24
M  V30 24 1 23 25
M  V30 25 1 23 26
M  V30 26 1 5 27
M  V30 27 1 27 2
M  V30 28 1 21 4
M  V30 29 1 15 11
M  V30 30 1 20 16
M  V30 31 1 1 28
M  V30 32 1 1 29
M  V30 33 1 1 30
M  V30 34 1 3 31
M  V30 35 1 6 32
M  V30 36 1 10 33
M  V30 37 1 11 34 CFG=1
M  V30 38 1 12 35
M  V30 39 1 12 36
M  V30 40 1 14 37
M  V30 41 1 14 38
M  V30 42 1 15 39 CFG=1
M  V30 43 1 17 40
M  V30 44 1 18 41
M  V30 45 1 19 42
M  V30 46 1 22 43
M  V30 47 1 22 44
M  V30 END BOND
M  V30 BEGIN COLLECTION
M  V30 MDLV30/STERAC1 ATOMS=(2 11 15)
M  V30 END COLLECTION
M  V30 END CTAB
M  END
>  <_CXSMILES_Data>  (509) 
|&1:10,14|

$$$$
OCNT-2311727
     RDKit          3D

 44 45  0  0  0  0  0  0  0  0999 V2000
   -4.7022    1.7846    0.9039 C   0  0  0  0  0  0  0  0  0  0  0  0
   -4.2358    1.4170   -0.5057 C   0  0  0  0  0  0  0  0  0  0  0  0
   -5.3300    0.6795   -1.2815 C   0  0  0  0  0  0  0  0  0  0  0  0
   -5.1682   -0.7945   -0.9125 C   0  0  0  0  0  0  0  0  0  0  0  0
   -3.7596   -0.9462   -0.3389 C   0  0  0  0  0  0  0  0  0  0  0  0
   -3.0736    0.4085   -0.5627 C   0  0  0  0  0  0  0  0  0  0  0  0
   -1.9323    0.6770    0.4200 C   0  0  0  0  0  0  0  0  0  0  0  0
   -0.7132   -0.1906    0.1592 C   0  0  0  0  0  0  0  0  0  0  0  0
   -0.4958   -0.7636   -0.9025 O   0  0  0  0  0  0  0  0  0  0  0  0
    0.1526   -0.2390    1.2326 N   0  0  0  0  0  0  0  0  0  0  0  0
    1.3950   -0.9865    1.1790 C   0  0  0  0  0  0  0  0  0  0  0  0
    2.5065   -0.1618    0.5314 C   0  0  0  0  0  0  0  0  0  0  0  0
    3.8863   -0.8465    0.5376 C   0  0  0  0  0  0  0  0  0  0  0  0
    4.2016   -1.1683    1.9213 O   0  0  0  0  0  0  0  0  0  0  0  0
    4.9447    0.1148    0.0688 C   0  0  0  0  0  0  0  0  0  0  0  0
    4.8264    1.2211   -0.6412 N   0  0  0  0  0  0  0  0  0  0  0  0
    6.1100    1.6915   -0.7434 C   0  0  0  0  0  0  0  0  0  0  0  0
    6.9679    0.8518   -0.0818 C   0  0  0  0  0  0  0  0  0  0  0  0
    6.2351   -0.1608    0.4575 O   0  0  0  0  0  0  0  0  0  0  0  0
    3.9354   -2.0968   -0.3616 C   0  0  0  0  0  0  0  0  0  0  0  0
    5.1701   -2.6622   -0.3475 F   0  0  0  0  0  0  0  0  0  0  0  0
    3.6271   -1.8319   -1.6479 F   0  0  0  0  0  0  0  0  0  0  0  0
    3.0812   -3.0563    0.0696 F   0  0  0  0  0  0  0  0  0  0  0  0
   -5.5863    2.4296    0.8568 H   0  0  0  0  0  0  0  0  0  0  0  0
   -4.9658    0.9028    1.4947 H   0  0  0  0  0  0  0  0  0  0  0  0
   -3.9245    2.3379    1.4402 H   0  0  0  0  0  0  0  0  0  0  0  0
   -3.9623    2.3422   -1.0254 H   0  0  0  0  0  0  0  0  0  0  0  0
   -6.3376    1.0497   -1.0663 H   0  0  0  0  0  0  0  0  0  0  0  0
   -5.1609    0.8002   -2.3586 H   0  0  0  0  0  0  0  0  0  0  0  0
   -5.9129   -1.0933   -0.1674 H   0  0  0  0  0  0  0  0  0  0  0  0
   -5.3122   -1.4315   -1.7900 H   0  0  0  0  0  0  0  0  0  0  0  0
   -3.8184   -1.1906    0.7297 H   0  0  0  0  0  0  0  0  0  0  0  0
   -3.2163   -1.7610   -0.8295 H   0  0  0  0  0  0  0  0  0  0  0  0
   -2.6757    0.4199   -1.5881 H   0  0  0  0  0  0  0  0  0  0  0  0
   -2.2649    0.5183    1.4537 H   0  0  0  0  0  0  0  0  0  0  0  0
   -1.6060    1.7209    0.3265 H   0  0  0  0  0  0  0  0  0  0  0  0
   -0.0546    0.2992    2.0626 H   0  0  0  0  0  0  0  0  0  0  0  0
    1.2098   -1.9099    0.6241 H   0  0  0  0  0  0  0  0  0  0  0  0
    1.6468   -1.2484    2.2112 H   0  0  0  0  0  0  0  0  0  0  0  0
    2.2221    0.1122   -0.4946 H   0  0  0  0  0  0  0  0  0  0  0  0
    2.5752    0.7854    1.0871 H   0  0  0  0  0  0  0  0  0  0  0  0
    5.1376   -1.4523    1.9299 H   0  0  0  0  0  0  0  0  0  0  0  0
    6.3451    2.5992   -1.2813 H   0  0  0  0  0  0  0  0  0  0  0  0
    8.0327    0.8288    0.0978 H   0  0  0  0  0  0  0  0  0  0  0  0
  1  2  1  0
  2  3  1  0
  3  4  1  0
  4  5  1  0
  5  6  1  0
  6  7  1  0
  7  8  1  0
  8  9  2  0
  8 10  1  0
 10 11  1  0
 11 12  1  0
 12 13  1  0
 13 14  1  0
 13 15  1  0
 15 16  2  0
 16 17  1  0
 17 18  2  0
 18 19  1  0
 13 20  1  0
 20 21  1  0
 20 22  1  0
 20 23  1  0
  6  2  1  0
 19 15  1  0
  1 24  1  0
  1 25  1  0
  1 26  1  0
  2 27  1  0
  3 28  1  0
  3 29  1  0
  4 30  1  0
  4 31  1  0
  5 32  1  0
  5 33  1  0
  6 34  1  0
  7 35  1  0
  7 36  1  0
 10 37  1  0
 11 38  1  0
 11 39  1  0
 12 40  1  0
 12 41  1  0
 14 42  1  0
 17 43  1  0
 18 44  1  0
M  END
$$$$
OCNT-2311745
     RDKit          3D

 48 50  0  0  0  0  0  0  0  0999 V2000
    5.1736    2.5682    0.9440 C   0  0  0  0  0  0  0  0  0  0  0  0
    5.1457    1.7562   -0.2299 O   0  0  0  0  0  0  0  0  0  0  0  0
    4.6509    0.4276    0.1371 N   0  0  0  0  0  0  0  0  0  0  0  0
    5.8286   -0.4344   -0.0100 C   0  0  0  0  0  0  0  0  0  0  0  0
    3.5891    0.1015   -0.8522 C   0  0  0  0  0  0  0  0  0  0  0  0
    3.0839   -1.3425   -0.6472 C   0  0  0  0  0  0  0  0  0  0  0  0
    1.7148   -1.5738   -1.2823 C   0  0  0  0  0  0  0  0  0  0  0  0
    0.7172   -0.6474   -0.7408 N   0  0  0  0  0  0  0  0  0  0  0  0
   -0.4979   -1.1564   -0.2835 C   0  0  0  0  0  0  0  0  0  0  0  0
   -1.1580   -2.1539   -0.9776 C   0  0  0  0  0  0  0  0  0  0  0  0
   -2.3626   -2.5872   -0.4733 C   0  0  0  0  0  0  0  0  0  0  0  0
   -2.9221   -2.0909    0.6387 N   0  0  0  0  0  0  0  0  0  0  0  0
   -2.2421   -1.0993    1.2425 C   0  0  0  0  0  0  0  0  0  0  0  0
   -2.8545   -0.4801    2.4755 C   0  0  0  0  0  0  0  0  0  0  0  0
   -3.3556    1.2672    2.2638 S   0  0  0  0  0  0  0  0  0  0  0  0
   -4.5676    1.0744    0.9714 C   0  0  0  0  0  0  0  0  0  0  0  0
   -5.8477    0.5922    1.2586 C   0  0  0  0  0  0  0  0  0  0  0  0
   -6.7899    0.4507    0.2375 C   0  0  0  0  0  0  0  0  0  0  0  0
   -6.4574    0.7951   -1.0721 C   0  0  0  0  0  0  0  0  0  0  0  0
   -5.1844    1.2840   -1.3620 C   0  0  0  0  0  0  0  0  0  0  0  0
   -4.2423    1.4270   -0.3417 C   0  0  0  0  0  0  0  0  0  0  0  0
   -1.0497   -0.6263    0.8235 N   0  0  0  0  0  0  0  0  0  0  0  0
    1.2150    0.5422   -0.0413 C   0  0  0  0  0  0  0  0  0  0  0  0
    2.4116    1.1006   -0.8029 C   0  0  0  0  0  0  0  0  0  0  0  0
    5.9143    2.1852    1.6530 H   0  0  0  0  0  0  0  0  0  0  0  0
    5.4630    3.5808    0.6507 H   0  0  0  0  0  0  0  0  0  0  0  0
    4.1871    2.6096    1.4162 H   0  0  0  0  0  0  0  0  0  0  0  0
    6.2121   -0.4418   -1.0366 H   0  0  0  0  0  0  0  0  0  0  0  0
    5.6059   -1.4626    0.2914 H   0  0  0  0  0  0  0  0  0  0  0  0
    6.6328   -0.0901    0.6500 H   0  0  0  0  0  0  0  0  0  0  0  0
    4.0239    0.1723   -1.8598 H   0  0  0  0  0  0  0  0  0  0  0  0
    3.7998   -2.0544   -1.0757 H   0  0  0  0  0  0  0  0  0  0  0  0
    3.0158   -1.5720    0.4254 H   0  0  0  0  0  0  0  0  0  0  0  0
    1.4446   -2.6225   -1.1085 H   0  0  0  0  0  0  0  0  0  0  0  0
    1.7770   -1.4303   -2.3677 H   0  0  0  0  0  0  0  0  0  0  0  0
   -0.7696   -2.5698   -1.8964 H   0  0  0  0  0  0  0  0  0  0  0  0
   -2.9309   -3.3653   -0.9733 H   0  0  0  0  0  0  0  0  0  0  0  0
   -3.7226   -1.0635    2.8012 H   0  0  0  0  0  0  0  0  0  0  0  0
   -2.1188   -0.5208    3.2857 H   0  0  0  0  0  0  0  0  0  0  0  0
   -6.1221    0.3252    2.2756 H   0  0  0  0  0  0  0  0  0  0  0  0
   -7.7829    0.0722    0.4649 H   0  0  0  0  0  0  0  0  0  0  0  0
   -7.1908    0.6835   -1.8665 H   0  0  0  0  0  0  0  0  0  0  0  0
   -4.9226    1.5535   -2.3816 H   0  0  0  0  0  0  0  0  0  0  0  0
   -3.2502    1.8045   -0.5798 H   0  0  0  0  0  0  0  0  0  0  0  0
    0.4393    1.3181   -0.0151 H   0  0  0  0  0  0  0  0  0  0  0  0
    1.4947    0.3071    0.9936 H   0  0  0  0  0  0  0  0  0  0  0  0
    2.6973    2.0662   -0.3750 H   0  0  0  0  0  0  0  0  0  0  0  0
    2.1040    1.3201   -1.8350 H   0  0  0  0  0  0  0  0  0  0  0  0
  1  2  1  0
  2  3  1  0
  3  4  1  0
  3  5  1  0
  5  6  1  0
  6  7  1  0
  7  8  1  0
  8  9  1  0
  9 10  1  0
 10 11  2  0
 11 12  1  0
 12 13  2  0
 13 14  1  0
 14 15  1  0
 15 16  1  0
 16 17  2  0
 17 18  1  0
 18 19  2  0
 19 20  1  0
 20 21  2  0
 13 22  1  0
  8 23  1  0
 23 24  1  0
 24  5  1  0
 22  9  2  0
 21 16  1  0
  1 25  1  0
  1 26  1  0
  1 27  1  0
  4 28  1  0
  4 29  1  0
  4 30  1  0
  5 31  1  0
  6 32  1  0
  6 33  1  0
  7 34  1  0
  7 35  1  0
 10 36  1  0
 11 37  1  0
 14 38  1  0
 14 39  1  0
 17 40  1  0
 18 41  1  0
 19 42  1  0
 20 43  1  0
 21 44  1  0
 23 45  1  0
 23 46  1  0
 24 47  1  0
 24 48  1  0
M  END
$$$$
OCNT-2311748
     RDKit          3D

 43 46  0  0  0  0  0  0  0  0999 V2000
   -4.4735    4.0644    0.0994 C   0  0  0  0  0  0  0  0  0  0  0  0
   -3.6389    2.8913    0.0072 N   0  0  0  0  0  0  0  0  0  0  0  0
   -2.3088    2.8109    0.2889 C   0  0  0  0  0  0  0  0  0  0  0  0
   -1.9567    1.5062    0.0529 C   0  0  0  0  0  0  0  0  0  0  0  0
   -0.7317    0.9520    0.2251 N   0  0  0  0  0  0  0  0  0  0  0  0
    0.3361    1.6129    0.9467 C   0  0  0  0  0  0  0  0  0  0  0  0
    1.5588    0.7759    1.0307 C   0  0  0  0  0  0  0  0  0  0  0  0
    2.5407    0.4788    0.1115 C   0  0  0  0  0  0  0  0  0  0  0  0
    3.4553   -0.3823    0.7792 C   0  0  0  0  0  0  0  0  0  0  0  0
    4.6823   -0.9941    0.2563 C   0  0  0  0  0  0  0  0  0  0  0  0
    5.4720   -1.8077    1.0753 C   0  0  0  0  0  0  0  0  0  0  0  0
    6.6236   -2.3691    0.5501 C   0  0  0  0  0  0  0  0  0  0  0  0
    7.0390   -2.1790   -0.7193 N   0  0  0  0  0  0  0  0  0  0  0  0
    6.2657   -1.3927   -1.4954 C   0  0  0  0  0  0  0  0  0  0  0  0
    5.0964   -0.7864   -1.0620 C   0  0  0  0  0  0  0  0  0  0  0  0
    3.0471   -0.5957    2.0423 N   0  0  0  0  0  0  0  0  0  0  0  0
    1.9081    0.0996    2.1613 N   0  0  0  0  0  0  0  0  0  0  0  0
   -3.1549    0.8636   -0.4008 C   0  0  0  0  0  0  0  0  0  0  0  0
   -3.3483   -0.5238   -0.8250 C   0  0  0  0  0  0  0  0  0  0  0  0
   -2.4025   -1.1688   -1.6341 C   0  0  0  0  0  0  0  0  0  0  0  0
   -2.5922   -2.4964   -2.0266 C   0  0  0  0  0  0  0  0  0  0  0  0
   -3.7322   -3.1882   -1.6204 C   0  0  0  0  0  0  0  0  0  0  0  0
   -4.6869   -2.5529   -0.8282 C   0  0  0  0  0  0  0  0  0  0  0  0
   -4.4977   -1.2258   -0.4355 C   0  0  0  0  0  0  0  0  0  0  0  0
   -4.1851    1.7292   -0.3840 N   0  0  0  0  0  0  0  0  0  0  0  0
   -4.8946    4.2665   -0.8886 H   0  0  0  0  0  0  0  0  0  0  0  0
   -3.8717    4.9149    0.4291 H   0  0  0  0  0  0  0  0  0  0  0  0
   -5.2677    3.8665    0.8235 H   0  0  0  0  0  0  0  0  0  0  0  0
   -1.7479    3.6692    0.6265 H   0  0  0  0  0  0  0  0  0  0  0  0
   -0.6492   -0.0623    0.2049 H   0  0  0  0  0  0  0  0  0  0  0  0
   -0.0036    1.8678    1.9589 H   0  0  0  0  0  0  0  0  0  0  0  0
    0.5945    2.5554    0.4474 H   0  0  0  0  0  0  0  0  0  0  0  0
    2.5818    0.8384   -0.9069 H   0  0  0  0  0  0  0  0  0  0  0  0
    5.1981   -2.0041    2.1071 H   0  0  0  0  0  0  0  0  0  0  0  0
    7.2604   -3.0060    1.1572 H   0  0  0  0  0  0  0  0  0  0  0  0
    6.6213   -1.2564   -2.5129 H   0  0  0  0  0  0  0  0  0  0  0  0
    4.5356   -0.1704   -1.7542 H   0  0  0  0  0  0  0  0  0  0  0  0
    1.4166    0.0628    3.0489 H   0  0  0  0  0  0  0  0  0  0  0  0
   -1.5204   -0.6360   -1.9817 H   0  0  0  0  0  0  0  0  0  0  0  0
   -1.8544   -2.9866   -2.6565 H   0  0  0  0  0  0  0  0  0  0  0  0
   -3.8815   -4.2196   -1.9291 H   0  0  0  0  0  0  0  0  0  0  0  0
   -5.5818   -3.0862   -0.5188 H   0  0  0  0  0  0  0  0  0  0  0  0
   -5.2514   -0.7355    0.1773 H   0  0  0  0  0  0  0  0  0  0  0  0
  1  2  1  0
  2  3  1  0
  3  4  2  0
  4  5  1  0
  5  6  1  0
  6  7  1  0
  7  8  2  0
  8  9  1  0
  9 10  1  0
 10 11  2  0
 11 12  1  0
 12 13  2  0
 13 14  1  0
 14 15  2  0
  9 16  2  0
 16 17  1  0
  4 18  1  0
 18 19  1  0
 19 20  2  0
 20 21  1  0
 21 22  2  0
 22 23  1  0
 23 24  2  0
 18 25  2  0
 25  2  1  0
 17  7  1  0
 24 19  1  0
 15 10  1  0
  1 26  1  0
  1 27  1  0
  1 28  1  0
  3 29  1  0
  5 30  1  0
  6 31  1  0
  6 32  1  0
  8 33  1  0
 11 34  1  0
 12 35  1  0
 14 36  1  0
 15 37  1  0
 17 38  1  0
 20 39  1  0
 21 40  1  0
 22 41  1  0
 23 42  1  0
 24 43  1  0
M  END
$$$$
OCNT-2311751
     RDKit          3D

 40 43  0  0  0  0  0  0  0  0999 V2000
    1.3899   -1.0917   -2.3473 O   0  0  0  0  0  0  0  0  0  0  0  0
    0.8131   -0.9982   -1.2728 C   0  0  0  0  0  0  0  0  0  0  0  0
    1.3183   -0.5292   -0.0921 N   0  0  0  0  0  0  0  0  0  0  0  0
    2.5695   -0.0482    0.1984 C   0  0  0  0  0  0  0  0  0  0  0  0
    2.7549    0.3467    1.4640 N   0  0  0  0  0  0  0  0  0  0  0  0
    4.0248    0.7658    1.5006 N   0  0  0  0  0  0  0  0  0  0  0  0
    4.6827    0.6646    0.3103 C   0  0  0  0  0  0  0  0  0  0  0  0
    5.9931    0.9945   -0.0442 C   0  0  0  0  0  0  0  0  0  0  0  0
    7.0882    1.6521    1.1033 Cl  0  0  0  0  0  0  0  0  0  0  0  0
    6.3917    0.7751   -1.3617 C   0  0  0  0  0  0  0  0  0  0  0  0
    5.4984    0.2416   -2.2857 C   0  0  0  0  0  0  0  0  0  0  0  0
    4.1855   -0.0839   -1.9110 C   0  0  0  0  0  0  0  0  0  0  0  0
    3.7548    0.1284   -0.5834 C   0  0  0  0  0  0  0  0  0  0  0  0
   -0.5916   -1.4055   -1.1204 C   0  0  0  0  0  0  0  0  0  0  0  0
   -1.3695   -1.9183   -2.1410 C   0  0  0  0  0  0  0  0  0  0  0  0
   -2.9429   -2.2704   -1.5684 S   0  0  0  0  0  0  0  0  0  0  0  0
   -2.4973   -1.7027   -0.0060 C   0  0  0  0  0  0  0  0  0  0  0  0
   -3.4829   -1.7321    1.1250 C   0  0  0  0  0  0  0  0  0  0  0  0
   -3.9914   -0.3630    1.5786 C   0  0  0  0  0  0  0  0  0  0  0  0
   -4.7460    0.4600    0.5339 C   0  0  0  0  0  0  0  0  0  0  0  0
   -4.4682    1.9125    0.9143 C   0  0  0  0  0  0  0  0  0  0  0  0
   -3.6944    1.8553    2.1553 N   0  0  0  0  0  0  0  0  0  0  0  0
   -2.9344    0.6058    2.0888 C   0  0  0  0  0  0  0  0  0  0  0  0
   -1.2503   -1.2952    0.1090 N   0  0  0  0  0  0  0  0  0  0  0  0
    0.6874   -0.5271    0.7024 H   0  0  0  0  0  0  0  0  0  0  0  0
    4.3963    1.1164    2.3770 H   0  0  0  0  0  0  0  0  0  0  0  0
    7.4039    1.0197   -1.6743 H   0  0  0  0  0  0  0  0  0  0  0  0
    5.8167    0.0726   -3.3124 H   0  0  0  0  0  0  0  0  0  0  0  0
    3.5236   -0.4979   -2.6639 H   0  0  0  0  0  0  0  0  0  0  0  0
   -1.0852   -2.0982   -3.1688 H   0  0  0  0  0  0  0  0  0  0  0  0
   -4.3444   -2.3587    0.8612 H   0  0  0  0  0  0  0  0  0  0  0  0
   -2.9985   -2.2281    1.9762 H   0  0  0  0  0  0  0  0  0  0  0  0
   -4.6919   -0.5534    2.4069 H   0  0  0  0  0  0  0  0  0  0  0  0
   -5.8173    0.2333    0.5662 H   0  0  0  0  0  0  0  0  0  0  0  0
   -4.3955    0.2751   -0.4856 H   0  0  0  0  0  0  0  0  0  0  0  0
   -3.8867    2.4034    0.1254 H   0  0  0  0  0  0  0  0  0  0  0  0
   -5.3931    2.4789    1.0580 H   0  0  0  0  0  0  0  0  0  0  0  0
   -3.0674    2.6553    2.2271 H   0  0  0  0  0  0  0  0  0  0  0  0
   -2.0896    0.7250    1.4038 H   0  0  0  0  0  0  0  0  0  0  0  0
   -2.5543    0.3196    3.0737 H   0  0  0  0  0  0  0  0  0  0  0  0
  1  2  2  0
  2  3  1  0
  3  4  1  0
  4  5  2  0
  5  6  1  0
  6  7  1  0
  7  8  2  0
  8  9  1  0
  8 10  1  0
 10 11  2  0
 11 12  1  0
 12 13  2  0
  2 14  1  0
 14 15  2  0
 15 16  1  0
 16 17  1  0
 17 18  1  0
 18 19  1  0
 19 20  1  0
 20 21  1  0
 21 22  1  0
 22 23  1  0
 17 24  2  0
 13  4  1  0
 24 14  1  0
 13  7  1  0
 23 19  1  0
  3 25  1  0
  6 26  1  0
 10 27  1  0
 11 28  1  0
 12 29  1  0
 15 30  1  0
 18 31  1  0
 18 32  1  0
 19 33  1  0
 20 34  1  0
 20 35  1  0
 21 36  1  0
 21 37  1  0
 22 38  1  0
 23 39  1  0
 23 40  1  0
M  END
$$$$
OCNT-2311754
     RDKit          3D

 48 50  0  0  0  0  0  0  0  0999 V2000
   -3.9998    2.8926    1.7763 C   0  0  0  0  0  0  0  0  0  0  0  0
   -3.4647    1.6442    1.2911 N   0  0  0  0  0  0  0  0  0  0  0  0
   -2.5346    0.8610    1.8933 C   0  0  0  0  0  0  0  0  0  0  0  0
   -2.3348   -0.2279    1.0632 C   0  0  0  0  0  0  0  0  0  0  0  0
   -1.4073   -1.3665    1.3278 C   0  0  0  0  0  0  0  0  0  0  0  0
   -0.0840   -1.1031    0.7644 N   0  0  0  0  0  0  0  0  0  0  0  0
    0.7276   -0.2132    1.5851 C   0  0  0  0  0  0  0  0  0  0  0  0
    2.0915   -0.0358    0.9750 C   0  0  0  0  0  0  0  0  0  0  0  0
    2.3878    1.0445    0.1416 C   0  0  0  0  0  0  0  0  0  0  0  0
    3.6610    1.1666   -0.4171 C   0  0  0  0  0  0  0  0  0  0  0  0
    4.6129    0.1923   -0.1285 C   0  0  0  0  0  0  0  0  0  0  0  0
    5.9229    0.2806   -0.6740 N   0  0  0  0  0  0  0  0  0  0  0  0
    6.4565    1.2431   -1.5038 C   0  0  0  0  0  0  0  0  0  0  0  0
    7.7580    0.8603   -1.7337 C   0  0  0  0  0  0  0  0  0  0  0  0
    8.0485   -0.3017   -1.0772 N   0  0  0  0  0  0  0  0  0  0  0  0
    6.9361   -0.6266   -0.4538 C   0  0  0  0  0  0  0  0  0  0  0  0
    4.3451   -0.8722    0.6710 N   0  0  0  0  0  0  0  0  0  0  0  0
    3.0993   -0.9666    1.1912 C   0  0  0  0  0  0  0  0  0  0  0  0
   -3.2394   -0.0067   -0.0320 C   0  0  0  0  0  0  0  0  0  0  0  0
   -3.5517   -0.8773   -1.2518 C   0  0  0  0  0  0  0  0  0  0  0  0
   -2.2703   -1.3128   -1.9873 C   0  0  0  0  0  0  0  0  0  0  0  0
   -4.4205   -0.1174   -2.2873 C   0  0  0  0  0  0  0  0  0  0  0  0
   -4.3430   -2.1269   -0.8172 C   0  0  0  0  0  0  0  0  0  0  0  0
   -3.9047    1.1489    0.1305 N   0  0  0  0  0  0  0  0  0  0  0  0
   -5.0779    2.7763    1.9125 H   0  0  0  0  0  0  0  0  0  0  0  0
   -3.5285    3.1449    2.7294 H   0  0  0  0  0  0  0  0  0  0  0  0
   -3.7865    3.6696    1.0379 H   0  0  0  0  0  0  0  0  0  0  0  0
   -2.0957    1.1249    2.8453 H   0  0  0  0  0  0  0  0  0  0  0  0
   -1.7992   -2.2825    0.8776 H   0  0  0  0  0  0  0  0  0  0  0  0
   -1.3422   -1.5733    2.4032 H   0  0  0  0  0  0  0  0  0  0  0  0
   -0.1883   -0.7020   -0.1660 H   0  0  0  0  0  0  0  0  0  0  0  0
    0.2631    0.7730    1.6945 H   0  0  0  0  0  0  0  0  0  0  0  0
    0.8453   -0.6207    2.5971 H   0  0  0  0  0  0  0  0  0  0  0  0
    1.6307    1.7937   -0.0790 H   0  0  0  0  0  0  0  0  0  0  0  0
    3.8671    2.0143   -1.0593 H   0  0  0  0  0  0  0  0  0  0  0  0
    5.9007    2.0963   -1.8591 H   0  0  0  0  0  0  0  0  0  0  0  0
    8.5006    1.3640   -2.3394 H   0  0  0  0  0  0  0  0  0  0  0  0
    6.7968   -1.5004    0.1701 H   0  0  0  0  0  0  0  0  0  0  0  0
    2.9271   -1.8465    1.8064 H   0  0  0  0  0  0  0  0  0  0  0  0
   -1.6309   -0.4522   -2.2155 H   0  0  0  0  0  0  0  0  0  0  0  0
   -1.6811   -2.0248   -1.4036 H   0  0  0  0  0  0  0  0  0  0  0  0
   -2.5070   -1.8120   -2.9345 H   0  0  0  0  0  0  0  0  0  0  0  0
   -3.9154    0.7889   -2.6423 H   0  0  0  0  0  0  0  0  0  0  0  0
   -4.6324   -0.7418   -3.1634 H   0  0  0  0  0  0  0  0  0  0  0  0
   -5.3865    0.1818   -1.8635 H   0  0  0  0  0  0  0  0  0  0  0  0
   -4.6041   -2.7510   -1.6797 H   0  0  0  0  0  0  0  0  0  0  0  0
   -3.7728   -2.7517   -0.1227 H   0  0  0  0  0  0  0  0  0  0  0  0
   -5.2754   -1.8481   -0.3120 H   0  0  0  0  0  0  0  0  0  0  0  0
  1  2  1  0
  2  3  1  0
  3  4  2  0
  4  5  1  0
  5  6  1  0
  6  7  1  0
  7  8  1  0
  8  9  2  0
  9 10  1  0
 10 11  2  0
 11 12  1  0
 12 13  1  0
 13 14  2  0
 14 15  1  0
 15 16  2  0
 11 17  1  0
 17 18  2  0
  4 19  1  0
 19 20  1  0
 20 21  1  0
 20 22  1  0
 20 23  1  0
 19 24  2  0
 24  2  1  0
 18  8  1  0
 16 12  1  0
  1 25  1  0
  1 26  1  0
  1 27  1  0
  3 28  1  0
  5 29  1  0
  5 30  1  0
  6 31  1  0
  7 32  1  0
  7 33  1  0
  9 34  1  0
 10 35  1  0
 13 36  1  0
 14 37  1  0
 16 38  1  0
 18 39  1  0
 21 40  1  0
 21 41  1  0
 21 42  1  0
 22 43  1  0
 22 44  1  0
 22 45  1  0
 23 46  1  0
 23 47  1  0
 23 48  1  0
M  END
$$$$
OCNT-2311760
     RDKit          3D

 42 45  0  0  0  0  0  0  0  0999 V2000
   -0.1741   -1.4753    2.1325 O   0  0  0  0  0  0  0  0  0  0  0  0
   -0.5264   -1.4265    0.9561 C   0  0  0  0  0  0  0  0  0  0  0  0
   -1.6283   -2.3207    0.4074 C   0  0  0  0  0  0  0  0  0  0  0  0
   -2.6181   -1.5893   -0.4473 C   0  0  0  0  0  0  0  0  0  0  0  0
   -2.9047   -1.8466   -1.7746 C   0  0  0  0  0  0  0  0  0  0  0  0
   -3.8690   -0.9666   -2.1870 N   0  0  0  0  0  0  0  0  0  0  0  0
   -4.2170   -0.1254   -1.1560 C   0  0  0  0  0  0  0  0  0  0  0  0
   -5.1472    0.9221   -1.1242 C   0  0  0  0  0  0  0  0  0  0  0  0
   -5.3002    1.6110    0.0814 C   0  0  0  0  0  0  0  0  0  0  0  0
   -4.5523    1.2563    1.1965 C   0  0  0  0  0  0  0  0  0  0  0  0
   -4.7217    1.9364    2.3387 F   0  0  0  0  0  0  0  0  0  0  0  0
   -3.6289    0.2118    1.1588 C   0  0  0  0  0  0  0  0  0  0  0  0
   -3.4546   -0.4971   -0.0466 C   0  0  0  0  0  0  0  0  0  0  0  0
    0.0922   -0.6121    0.0285 N   0  0  0  0  0  0  0  0  0  0  0  0
    1.0926    0.3635    0.4457 C   0  0  0  0  0  0  0  0  0  0  0  0
    2.4747   -0.2680    0.7707 C   0  0  0  0  0  0  0  0  0  0  0  0
    2.9523   -1.1671   -0.3192 N   0  0  0  0  0  0  0  0  0  0  0  0
    3.4986   -0.4346   -1.4729 C   0  0  0  0  0  0  0  0  0  0  0  0
    4.7553    0.3824   -1.1152 C   0  0  0  0  0  0  0  0  0  0  0  0
    4.5321    1.0980    0.1767 C   0  0  0  0  0  0  0  0  0  0  0  0
    3.5141    0.7899    1.0586 C   0  0  0  0  0  0  0  0  0  0  0  0
    3.5958    1.6054    2.2318 C   0  0  0  0  0  0  0  0  0  0  0  0
    4.6489    2.4938    2.1783 C   0  0  0  0  0  0  0  0  0  0  0  0
    5.5440    2.3451    0.7266 S   0  0  0  0  0  0  0  0  0  0  0  0
   -1.1514   -3.1317   -0.1553 H   0  0  0  0  0  0  0  0  0  0  0  0
   -2.1570   -2.7739    1.2544 H   0  0  0  0  0  0  0  0  0  0  0  0
   -2.5127   -2.5892   -2.4578 H   0  0  0  0  0  0  0  0  0  0  0  0
   -4.2761   -0.9376   -3.1122 H   0  0  0  0  0  0  0  0  0  0  0  0
   -5.7319    1.1924   -1.9976 H   0  0  0  0  0  0  0  0  0  0  0  0
   -6.0090    2.4304    0.1577 H   0  0  0  0  0  0  0  0  0  0  0  0
   -3.0635   -0.0364    2.0517 H   0  0  0  0  0  0  0  0  0  0  0  0
   -0.3999   -0.4382   -0.8402 H   0  0  0  0  0  0  0  0  0  0  0  0
    0.7064    0.8980    1.3223 H   0  0  0  0  0  0  0  0  0  0  0  0
    1.1773    1.0945   -0.3668 H   0  0  0  0  0  0  0  0  0  0  0  0
    2.3725   -0.8974    1.6630 H   0  0  0  0  0  0  0  0  0  0  0  0
    2.1491   -1.7219   -0.6141 H   0  0  0  0  0  0  0  0  0  0  0  0
    3.7597   -1.1540   -2.2574 H   0  0  0  0  0  0  0  0  0  0  0  0
    2.7309    0.2223   -1.8997 H   0  0  0  0  0  0  0  0  0  0  0  0
    5.6128   -0.2931   -1.0061 H   0  0  0  0  0  0  0  0  0  0  0  0
    4.9791    1.0851   -1.9255 H   0  0  0  0  0  0  0  0  0  0  0  0
    2.9154    1.5432    3.0731 H   0  0  0  0  0  0  0  0  0  0  0  0
    4.9403    3.2212    2.9232 H   0  0  0  0  0  0  0  0  0  0  0  0
  1  2  2  0
  2  3  1  0
  3  4  1  0
  4  5  2  0
  5  6  1  0
  6  7  1  0
  7  8  2  0
  8  9  1  0
  9 10  2  0
 10 11  1  0
 10 12  1  0
 12 13  2  0
  2 14  1  0
 14 15  1  0
 15 16  1  0
 16 17  1  0
 17 18  1  0
 18 19  1  0
 19 20  1  0
 20 21  2  0
 21 22  1  0
 22 23  2  0
 23 24  1  0
 13  4  1  0
 21 16  1  0
 13  7  1  0
 24 20  1  0
  3 25  1  0
  3 26  1  0
  5 27  1  0
  6 28  1  0
  8 29  1  0
  9 30  1  0
 12 31  1  0
 14 32  1  0
 15 33  1  0
 15 34  1  0
 16 35  1  0
 17 36  1  0
 18 37  1  0
 18 38  1  0
 19 39  1  0
 19 40  1  0
 22 41  1  0
 23 42  1  0
M  END
$$$$
OCNT-2311765
     RDKit          3D

  0  0  0  0  0  0  0  0  0  0999 V3000
M  V30 BEGIN CTAB
M  V30 COUNTS 41 43 0 0 0
M  V30 BEGIN ATOM
M  V30 1 C 6.362264 0.934063 1.381890 0
M  V30 2 O 5.018179 0.998054 0.922814 0
M  V30 3 C 4.372134 -0.190621 0.679857 0
M  V30 4 C 4.968384 -1.447683 0.801528 0
M  V30 5 C 4.228398 -2.595038 0.530956 0
M  V30 6 C 2.894323 -2.485970 0.137810 0
M  V30 7 C 2.270110 -1.255173 0.004552 0
M  V30 8 N 0.980589 -1.228929 -0.379359 0
M  V30 9 C 0.332468 -0.050072 -0.515940 0
M  V30 10 N -0.978582 -0.080331 -0.926387 0
M  V30 11 C -1.698945 -1.354723 -0.928760 0
M  V30 12 C -3.184715 -0.960792 -0.802949 0 CFG=2
M  V30 13 O -4.059795 -1.798641 -1.549324 0
M  V30 14 C -3.205475 0.457219 -1.374420 0 CFG=1
M  V30 15 C -4.472431 1.261510 -1.099072 0
M  V30 16 C -4.830647 1.468047 0.357289 0
M  V30 17 N -6.032764 2.086134 0.550969 0
M  V30 18 O -4.128508 1.157832 1.309915 0
M  V30 19 C -1.897184 1.049222 -0.845315 0
M  V30 20 C 1.001170 1.143064 -0.275735 0
M  V30 21 C 2.337035 1.124621 0.122740 0
M  V30 22 C 3.014206 -0.092979 0.276163 0
M  V30 23 H 7.015038 0.482352 0.627782 0
M  V30 24 H 6.707368 1.959347 1.548255 0
M  V30 25 H 6.429779 0.402151 2.336653 0
M  V30 26 H 6.004456 -1.568772 1.100380 0
M  V30 27 H 4.686633 -3.576380 0.622832 0
M  V30 28 H 2.323009 -3.386533 -0.074536 0
M  V30 29 H -1.431090 -2.003099 -0.086285 0
M  V30 30 H -1.507632 -1.901531 -1.859315 0
M  V30 31 H -3.488721 -0.991749 0.247707 0
M  V30 32 H -3.931339 -2.706371 -1.220728 0
M  V30 33 H -3.126569 0.379779 -2.470332 0
M  V30 34 H -4.372177 2.253994 -1.555675 0
M  V30 35 H -5.321564 0.762262 -1.582789 0
M  V30 36 H -6.350722 2.165863 1.508508 0
M  V30 37 H -6.726290 2.141743 -0.182846 0
M  V30 38 H -1.976057 1.400630 0.187593 0
M  V30 39 H -1.575069 1.881759 -1.480980 0
M  V30 40 H 0.505294 2.099051 -0.393056 0
M  V30 41 H 2.845439 2.066692 0.310753 0
M  V30 END ATOM
M  V30 BEGIN BOND
M  V30 1 1 1 2
M  V30 2 1 2 3
M  V30 3 1 3 4
M  V30 4 2 4 5
M  V30 5 1 5 6
M  V30 6 2 6 7
M  V30 7 1 7 8
M  V30 8 2 8 9
M  V30 9 1 9 10
M  V30 10 1 10 11
M  V30 11 1 11 12
M  V30 12 1 12 13
M  V30 13 1 12 14
M  V30 14 1 14 15
M  V30 15 1 15 16
M  V30 16 1 16 17
M  V30 17 2 16 18
M  V30 18 1 14 19
M  V30 19 1 9 20
M  V30 20 2 20 21
M  V30 21 1 21 22
M  V30 22 2 22 3
M  V30 23 1 22 7
M  V30 24 1 19 10
M  V30 25 1 1 23
M  V30 26 1 1 24
M  V30 27 1 1 25
M  V30 28 1 4 26
M  V30 29 1 5 27
M  V30 30 1 6 28
M  V30 31 1 11 29
M  V30 32 1 11 30
M  V30 33 1 12 31 CFG=1
M  V30 34 1 13 32
M  V30 35 1 14 33 CFG=3
M  V30 36 1 15 34
M  V30 37 1 15 35
M  V30 38 1 17 36
M  V30 39 1 17 37
M  V30 40 1 19 38
M  V30 41 1 19 39
M  V30 42 1 20 40
M  V30 43 1 21 41
M  V30 END BOND
M  V30 BEGIN COLLECTION
M  V30 MDLV30/STERAC1 ATOMS=(2 12 14)
M  V30 END COLLECTION
M  V30 END CTAB
M  END
>  <_CXSMILES_Data>  (516) 
|&1:11,13|

$$$$
OCNT-2311766
     RDKit          3D

 54 55  0  0  0  0  0  0  0  0999 V2000
    3.0830    1.2163   -1.0739 C   0  0  0  0  0  0  0  0  0  0  0  0
    2.8527    1.2167    0.4131 C   0  0  0  0  0  0  0  0  0  0  0  0
    3.0009    2.4281    1.1126 C   0  0  0  0  0  0  0  0  0  0  0  0
    2.8220    2.4894    2.4934 C   0  0  0  0  0  0  0  0  0  0  0  0
    2.5043    1.3365    3.1996 C   0  0  0  0  0  0  0  0  0  0  0  0
    2.3624    0.1261    2.5222 C   0  0  0  0  0  0  0  0  0  0  0  0
    2.5192    0.0461    1.1253 C   0  0  0  0  0  0  0  0  0  0  0  0
    2.3857   -1.3143    0.4632 C   0  0  0  0  0  0  0  0  0  0  0  0
    0.9783   -1.9603    0.5882 C   0  0  0  0  0  0  0  0  0  0  0  0
    1.1010   -3.4003    1.1174 C   0  0  0  0  0  0  0  0  0  0  0  0
    1.5881   -3.4137    2.4540 O   0  0  0  0  0  0  0  0  0  0  0  0
    0.2333   -2.0108   -0.7653 C   0  0  0  0  0  0  0  0  0  0  0  0
   -0.0907   -0.7186   -1.3431 N   0  0  0  0  0  0  0  0  0  0  0  0
   -1.1471    0.0716   -0.6903 C   0  0  0  0  0  0  0  0  0  0  0  0
   -2.5844   -0.2420   -1.1915 C   0  0  0  0  0  0  0  0  0  0  0  0
   -3.2021   -1.6022   -0.8153 C   0  0  0  0  0  0  0  0  0  0  0  0
   -3.2356   -1.8362    0.6951 C   0  0  0  0  0  0  0  0  0  0  0  0
   -4.6272   -1.6899   -1.3757 C   0  0  0  0  0  0  0  0  0  0  0  0
   -0.8863    1.5630   -0.9639 C   0  0  0  0  0  0  0  0  0  0  0  0
   -0.4938    2.4041    0.0766 C   0  0  0  0  0  0  0  0  0  0  0  0
   -0.2559    3.7487   -0.1951 C   0  0  0  0  0  0  0  0  0  0  0  0
   -0.4095    4.2199   -1.4923 C   0  0  0  0  0  0  0  0  0  0  0  0
   -0.7968    3.3219   -2.4717 C   0  0  0  0  0  0  0  0  0  0  0  0
   -1.0387    2.0134   -2.2412 N   0  0  0  0  0  0  0  0  0  0  0  0
    2.2113    0.8259   -1.6043 H   0  0  0  0  0  0  0  0  0  0  0  0
    3.2609    2.2285   -1.4530 H   0  0  0  0  0  0  0  0  0  0  0  0
    3.9633    0.6136   -1.3189 H   0  0  0  0  0  0  0  0  0  0  0  0
    3.2601    3.3386    0.5764 H   0  0  0  0  0  0  0  0  0  0  0  0
    2.9436    3.4339    3.0160 H   0  0  0  0  0  0  0  0  0  0  0  0
    2.3818    1.3737    4.2785 H   0  0  0  0  0  0  0  0  0  0  0  0
    2.1460   -0.7717    3.0967 H   0  0  0  0  0  0  0  0  0  0  0  0
    2.6828   -1.2693   -0.5896 H   0  0  0  0  0  0  0  0  0  0  0  0
    3.1470   -1.9544    0.9297 H   0  0  0  0  0  0  0  0  0  0  0  0
    0.3754   -1.4033    1.3150 H   0  0  0  0  0  0  0  0  0  0  0  0
    0.1299   -3.9075    1.1162 H   0  0  0  0  0  0  0  0  0  0  0  0
    1.7862   -3.9904    0.4993 H   0  0  0  0  0  0  0  0  0  0  0  0
    0.9152   -2.9887    3.0131 H   0  0  0  0  0  0  0  0  0  0  0  0
   -0.6601   -2.6303   -0.6730 H   0  0  0  0  0  0  0  0  0  0  0  0
    0.8727   -2.5389   -1.4846 H   0  0  0  0  0  0  0  0  0  0  0  0
   -0.3067   -0.7827   -2.3376 H   0  0  0  0  0  0  0  0  0  0  0  0
   -1.1121   -0.0635    0.3950 H   0  0  0  0  0  0  0  0  0  0  0  0
   -3.2567    0.5442   -0.8166 H   0  0  0  0  0  0  0  0  0  0  0  0
   -2.6119   -0.1484   -2.2867 H   0  0  0  0  0  0  0  0  0  0  0  0
   -2.6312   -2.4056   -1.2902 H   0  0  0  0  0  0  0  0  0  0  0  0
   -2.2285   -1.9046    1.1154 H   0  0  0  0  0  0  0  0  0  0  0  0
   -3.7474   -2.7756    0.9306 H   0  0  0  0  0  0  0  0  0  0  0  0
   -3.7642   -1.0263    1.2097 H   0  0  0  0  0  0  0  0  0  0  0  0
   -5.2764   -0.9245   -0.9361 H   0  0  0  0  0  0  0  0  0  0  0  0
   -5.0686   -2.6700   -1.1644 H   0  0  0  0  0  0  0  0  0  0  0  0
   -4.6275   -1.5525   -2.4624 H   0  0  0  0  0  0  0  0  0  0  0  0
   -0.3518    2.0195    1.0817 H   0  0  0  0  0  0  0  0  0  0  0  0
    0.0584    4.4171    0.6013 H   0  0  0  0  0  0  0  0  0  0  0  0
   -0.2266    5.2598   -1.7359 H   0  0  0  0  0  0  0  0  0  0  0  0
   -0.9275    3.6401   -3.5016 H   0  0  0  0  0  0  0  0  0  0  0  0
  1  2  1  0
  2  3  2  0
  3  4  1  0
  4  5  2  0
  5  6  1  0
  6  7  2  0
  7  8  1  0
  8  9  1  0
  9 10  1  0
 10 11  1  0
  9 12  1  0
 12 13  1  0
 13 14  1  0
 14 15  1  0
 15 16  1  0
 16 17  1  0
 16 18  1  0
 14 19  1  0
 19 20  2  0
 20 21  1  0
 21 22  2  0
 22 23  1  0
 23 24  2  0
  7  2  1  0
 24 19  1  0
  1 25  1  0
  1 26  1  0
  1 27  1  0
  3 28  1  0
  4 29  1  0
  5 30  1  0
  6 31  1  0
  8 32  1  0
  8 33  1  0
  9 34  1  0
 10 35  1  0
 10 36  1  0
 11 37  1  0
 12 38  1  0
 12 39  1  0
 13 40  1  0
 14 41  1  0
 15 42  1  0
 15 43  1  0
 16 44  1  0
 17 45  1  0
 17 46  1  0
 17 47  1  0
 18 48  1  0
 18 49  1  0
 18 50  1  0
 20 51  1  0
 21 52  1  0
 22 53  1  0
 23 54  1  0
M  END
$$$$
OCNT-2311769
     RDKit          3D

 46 48  0  0  0  0  0  0  0  0999 V2000
   -2.5807    3.3055    2.7572 C   0  0  0  0  0  0  0  0  0  0  0  0
   -3.4967    1.7419    2.8375 S   0  0  0  0  0  0  0  0  0  0  0  0
   -2.5662    0.7608    1.6749 C   0  0  0  0  0  0  0  0  0  0  0  0
   -2.2737    1.2125    0.3872 C   0  0  0  0  0  0  0  0  0  0  0  0
   -1.5360    0.4145   -0.4922 C   0  0  0  0  0  0  0  0  0  0  0  0
   -1.0800   -0.8568   -0.1057 C   0  0  0  0  0  0  0  0  0  0  0  0
   -0.2140   -1.6716   -1.0762 C   0  0  0  0  0  0  0  0  0  0  0  0
    1.1354   -2.1348   -0.4180 C   0  0  0  0  0  0  0  0  0  0  0  0
    1.8527   -1.0431    0.2701 N   0  0  0  0  0  0  0  0  0  0  0  0
    2.3951   -0.0551   -0.5476 C   0  0  0  0  0  0  0  0  0  0  0  0
    2.7384   -0.3465   -1.8229 N   0  0  0  0  0  0  0  0  0  0  0  0
    3.2436    0.6185   -2.6126 C   0  0  0  0  0  0  0  0  0  0  0  0
    3.4534    1.9023   -2.3038 N   0  0  0  0  0  0  0  0  0  0  0  0
    3.1204    2.1901   -1.0291 C   0  0  0  0  0  0  0  0  0  0  0  0
    2.6099    1.2593   -0.1361 C   0  0  0  0  0  0  0  0  0  0  0  0
    2.4386    1.9570    1.0328 N   0  0  0  0  0  0  0  0  0  0  0  0
    1.9831    1.4481    2.3048 C   0  0  0  0  0  0  0  0  0  0  0  0
    2.7496    3.2712    0.9427 N   0  0  0  0  0  0  0  0  0  0  0  0
    3.1814    3.3999   -0.3153 C   0  0  0  0  0  0  0  0  0  0  0  0
   -0.9228   -2.7692   -1.7847 N   0  0  0  0  0  0  0  0  0  0  0  0
   -1.9618   -2.2712   -2.6860 C   0  0  0  0  0  0  0  0  0  0  0  0
   -1.4460   -3.8382   -0.9430 C   0  0  0  0  0  0  0  0  0  0  0  0
   -1.4011   -1.3123    1.1818 C   0  0  0  0  0  0  0  0  0  0  0  0
   -2.1407   -0.5131    2.0594 C   0  0  0  0  0  0  0  0  0  0  0  0
   -1.5135    3.1356    2.9256 H   0  0  0  0  0  0  0  0  0  0  0  0
   -2.9522    3.9748    3.5380 H   0  0  0  0  0  0  0  0  0  0  0  0
   -2.7258    3.7945    1.7907 H   0  0  0  0  0  0  0  0  0  0  0  0
   -2.6208    2.1838    0.0448 H   0  0  0  0  0  0  0  0  0  0  0  0
   -1.3118    0.7986   -1.4862 H   0  0  0  0  0  0  0  0  0  0  0  0
    0.1009   -0.9757   -1.8664 H   0  0  0  0  0  0  0  0  0  0  0  0
    1.7798   -2.6151   -1.1656 H   0  0  0  0  0  0  0  0  0  0  0  0
    0.9416   -2.8992    0.3425 H   0  0  0  0  0  0  0  0  0  0  0  0
    1.3049   -0.6605    1.0290 H   0  0  0  0  0  0  0  0  0  0  0  0
    3.5060    0.3172   -3.6219 H   0  0  0  0  0  0  0  0  0  0  0  0
    2.1420    2.2046    3.0783 H   0  0  0  0  0  0  0  0  0  0  0  0
    0.9171    1.2240    2.2234 H   0  0  0  0  0  0  0  0  0  0  0  0
    2.5585    0.5536    2.5540 H   0  0  0  0  0  0  0  0  0  0  0  0
    3.5201    4.3647   -0.6666 H   0  0  0  0  0  0  0  0  0  0  0  0
   -1.5584   -1.5184   -3.3723 H   0  0  0  0  0  0  0  0  0  0  0  0
   -2.3438   -3.0848   -3.3133 H   0  0  0  0  0  0  0  0  0  0  0  0
   -2.8103   -1.8339   -2.1486 H   0  0  0  0  0  0  0  0  0  0  0  0
   -1.7979   -4.6680   -1.5675 H   0  0  0  0  0  0  0  0  0  0  0  0
   -0.6740   -4.2615   -0.2942 H   0  0  0  0  0  0  0  0  0  0  0  0
   -2.2890   -3.5161   -0.3234 H   0  0  0  0  0  0  0  0  0  0  0  0
   -1.0770   -2.2932    1.5214 H   0  0  0  0  0  0  0  0  0  0  0  0
   -2.3781   -0.8946    3.0505 H   0  0  0  0  0  0  0  0  0  0  0  0
  1  2  1  0
  2  3  1  0
  3  4  1  0
  4  5  2  0
  5  6  1  0
  6  7  1  0
  7  8  1  0
  8  9  1  0
  9 10  1  0
 10 11  1  0
 11 12  2  0
 12 13  1  0
 13 14  2  0
 14 15  1  0
 15 16  1  0
 16 17  1  0
 16 18  1  0
 18 19  2  0
  7 20  1  0
 20 21  1  0
 20 22  1  0
  6 23  2  0
 23 24  1  0
 24  3  2  0
 15 10  2  0
 19 14  1  0
  1 25  1  0
  1 26  1  0
  1 27  1  0
  4 28  1  0
  5 29  1  0
  7 30  1  0
  8 31  1  0
  8 32  1  0
  9 33  1  0
 12 34  1  0
 17 35  1  0
 17 36  1  0
 17 37  1  0
 19 38  1  0
 21 39  1  0
 21 40  1  0
 21 41  1  0
 22 42  1  0
 22 43  1  0
 22 44  1  0
 23 45  1  0
 24 46  1  0
M  END
$$$$
OCNT-2311777
     RDKit          3D

 52 55  0  0  0  0  0  0  0  0999 V2000
   -7.7195    2.6688    1.7339 C   0  0  0  0  0  0  0  0  0  0  0  0
   -6.7922    1.6925    1.0689 C   0  0  0  0  0  0  0  0  0  0  0  0
   -5.8560    0.9861    1.8305 C   0  0  0  0  0  0  0  0  0  0  0  0
   -4.9617    0.0907    1.2296 C   0  0  0  0  0  0  0  0  0  0  0  0
   -4.9964   -0.0947   -0.1667 C   0  0  0  0  0  0  0  0  0  0  0  0
   -4.2485   -0.9006   -1.0848 C   0  0  0  0  0  0  0  0  0  0  0  0
   -3.1303   -1.8373   -0.7506 C   0  0  0  0  0  0  0  0  0  0  0  0
   -1.7984   -1.1030   -0.6273 C   0  0  0  0  0  0  0  0  0  0  0  0
   -0.6583   -2.0459   -0.2895 C   0  0  0  0  0  0  0  0  0  0  0  0
   -0.8222   -3.2533   -0.1658 O   0  0  0  0  0  0  0  0  0  0  0  0
    0.5404   -1.3588   -0.1579 N   0  0  0  0  0  0  0  0  0  0  0  0
    1.8052   -1.8913    0.1706 C   0  0  0  0  0  0  0  0  0  0  0  0
    2.0346   -3.2401    0.4536 C   0  0  0  0  0  0  0  0  0  0  0  0
    3.3132   -3.6905    0.7998 C   0  0  0  0  0  0  0  0  0  0  0  0
    4.3797   -2.7972    0.8551 C   0  0  0  0  0  0  0  0  0  0  0  0
    4.1685   -1.4514    0.5489 C   0  0  0  0  0  0  0  0  0  0  0  0
    5.3244   -0.5179    0.6086 C   0  0  0  0  0  0  0  0  0  0  0  0
    6.1335   -0.6508    1.5174 O   0  0  0  0  0  0  0  0  0  0  0  0
    5.3738    0.4014   -0.4243 N   0  0  0  0  0  0  0  0  0  0  0  0
    6.3253    1.4295   -0.6021 C   0  0  0  0  0  0  0  0  0  0  0  0
    6.2423    2.1870   -1.7713 C   0  0  0  0  0  0  0  0  0  0  0  0
    7.1592    3.2076   -1.9681 C   0  0  0  0  0  0  0  0  0  0  0  0
    8.1329    3.5191   -1.0906 N   0  0  0  0  0  0  0  0  0  0  0  0
    8.1921    2.7734    0.0330 C   0  0  0  0  0  0  0  0  0  0  0  0
    7.3218    1.7332    0.3198 C   0  0  0  0  0  0  0  0  0  0  0  0
    2.8822   -0.9960    0.2220 C   0  0  0  0  0  0  0  0  0  0  0  0
   -4.7532   -0.6445   -2.3449 C   0  0  0  0  0  0  0  0  0  0  0  0
   -5.7633    0.2713   -2.2255 N   0  0  0  0  0  0  0  0  0  0  0  0
   -5.9294    0.6285   -0.9081 C   0  0  0  0  0  0  0  0  0  0  0  0
   -6.8307    1.5287   -0.3245 C   0  0  0  0  0  0  0  0  0  0  0  0
   -7.9697    2.3409    2.7484 H   0  0  0  0  0  0  0  0  0  0  0  0
   -7.2484    3.6552    1.7861 H   0  0  0  0  0  0  0  0  0  0  0  0
   -8.6602    2.7545    1.1798 H   0  0  0  0  0  0  0  0  0  0  0  0
   -5.8150    1.1223    2.9093 H   0  0  0  0  0  0  0  0  0  0  0  0
   -4.2503   -0.4560    1.8412 H   0  0  0  0  0  0  0  0  0  0  0  0
   -3.0595   -2.6121   -1.5249 H   0  0  0  0  0  0  0  0  0  0  0  0
   -3.3605   -2.3623    0.1851 H   0  0  0  0  0  0  0  0  0  0  0  0
   -1.5588   -0.5968   -1.5708 H   0  0  0  0  0  0  0  0  0  0  0  0
   -1.8582   -0.3397    0.1584 H   0  0  0  0  0  0  0  0  0  0  0  0
    0.4992   -0.3577   -0.3053 H   0  0  0  0  0  0  0  0  0  0  0  0
    1.2338   -3.9735    0.4305 H   0  0  0  0  0  0  0  0  0  0  0  0
    3.4701   -4.7414    1.0323 H   0  0  0  0  0  0  0  0  0  0  0  0
    5.3708   -3.1495    1.1338 H   0  0  0  0  0  0  0  0  0  0  0  0
    4.7060    0.2824   -1.1752 H   0  0  0  0  0  0  0  0  0  0  0  0
    5.4886    1.9983   -2.5266 H   0  0  0  0  0  0  0  0  0  0  0  0
    7.1328    3.8195   -2.8652 H   0  0  0  0  0  0  0  0  0  0  0  0
    8.9845    3.0412    0.7264 H   0  0  0  0  0  0  0  0  0  0  0  0
    7.4448    1.1955    1.2515 H   0  0  0  0  0  0  0  0  0  0  0  0
    2.7198    0.0623    0.0378 H   0  0  0  0  0  0  0  0  0  0  0  0
   -4.4823   -1.0411   -3.3144 H   0  0  0  0  0  0  0  0  0  0  0  0
   -6.3151    0.6343   -2.9901 H   0  0  0  0  0  0  0  0  0  0  0  0
   -7.5413    2.0795   -0.9330 H   0  0  0  0  0  0  0  0  0  0  0  0
  1  2  1  0
  2  3  2  0
  3  4  1  0
  4  5  2  0
  5  6  1  0
  6  7  1  0
  7  8  1  0
  8  9  1  0
  9 10  2  0
  9 11  1  0
 11 12  1  0
 12 13  2  0
 13 14  1  0
 14 15  2  0
 15 16  1  0
 16 17  1  0
 17 18  2  0
 17 19  1  0
 19 20  1  0
 20 21  2  0
 21 22  1  0
 22 23  2  0
 23 24  1  0
 24 25  2  0
 16 26  2  0
  6 27  2  0
 27 28  1  0
 28 29  1  0
 29 30  2  0
 30  2  1  0
 29  5  1  0
 26 12  1  0
 25 20  1  0
  1 31  1  0
  1 32  1  0
  1 33  1  0
  3 34  1  0
  4 35  1  0
  7 36  1  0
  7 37  1  0
  8 38  1  0
  8 39  1  0
 11 40  1  0
 13 41  1  0
 14 42  1  0
 15 43  1  0
 19 44  1  0
 21 45  1  0
 22 46  1  0
 24 47  1  0
 25 48  1  0
 26 49  1  0
 27 50  1  0
 28 51  1  0
 30 52  1  0
M  END
$$$$
OCNT-2311787
     RDKit          3D

 53 57  0  0  0  0  0  0  0  0999 V2000
    1.5298    2.4572    2.2399 C   0  0  0  0  0  0  0  0  0  0  0  0
    2.3166    1.7272    1.2126 C   0  0  0  0  0  0  0  0  0  0  0  0
    3.2307    0.8292    1.5923 N   0  0  0  0  0  0  0  0  0  0  0  0
    3.7610    0.3446    0.4423 N   0  0  0  0  0  0  0  0  0  0  0  0
    4.7866   -0.6428    0.4682 C   0  0  0  0  0  0  0  0  0  0  0  0
    5.3398   -1.1515   -0.7154 C   0  0  0  0  0  0  0  0  0  0  0  0
    6.3453   -2.1217   -0.6576 C   0  0  0  0  0  0  0  0  0  0  0  0
    6.8030   -2.5879    0.5737 C   0  0  0  0  0  0  0  0  0  0  0  0
    6.2584   -2.0865    1.7536 C   0  0  0  0  0  0  0  0  0  0  0  0
    5.2540   -1.1175    1.7040 C   0  0  0  0  0  0  0  0  0  0  0  0
    3.1698    0.9284   -0.6574 C   0  0  0  0  0  0  0  0  0  0  0  0
    2.2279    1.8284   -0.1985 C   0  0  0  0  0  0  0  0  0  0  0  0
    1.3257    2.6919   -1.0037 C   0  0  0  0  0  0  0  0  0  0  0  0
    0.1108    1.9525   -1.2534 N   0  0  0  0  0  0  0  0  0  0  0  0
   -1.0175    2.1492   -0.4915 C   0  0  0  0  0  0  0  0  0  0  0  0
   -1.1464    3.0242    0.3539 O   0  0  0  0  0  0  0  0  0  0  0  0
   -2.0879    1.1486   -0.6856 C   0  0  0  0  0  0  0  0  0  0  0  0
   -2.4628    0.4315    0.4517 C   0  0  0  0  0  0  0  0  0  0  0  0
   -3.4169   -0.5617    0.3230 C   0  0  0  0  0  0  0  0  0  0  0  0
   -3.8769   -1.3977    1.4514 C   0  0  0  0  0  0  0  0  0  0  0  0
   -5.1646   -1.9551    1.4499 C   0  0  0  0  0  0  0  0  0  0  0  0
   -5.5752   -2.7355    2.5193 C   0  0  0  0  0  0  0  0  0  0  0  0
   -4.8018   -3.0064    3.5890 N   0  0  0  0  0  0  0  0  0  0  0  0
   -3.5625   -2.4777    3.5823 C   0  0  0  0  0  0  0  0  0  0  0  0
   -3.0642   -1.6845    2.5580 C   0  0  0  0  0  0  0  0  0  0  0  0
   -3.9934   -0.8284   -0.8761 N   0  0  0  0  0  0  0  0  0  0  0  0
   -3.6513   -0.1177   -1.9646 C   0  0  0  0  0  0  0  0  0  0  0  0
   -4.2788   -0.4135   -3.1675 C   0  0  0  0  0  0  0  0  0  0  0  0
   -3.9963    0.2866   -4.3425 C   0  0  0  0  0  0  0  0  0  0  0  0
   -3.0675    1.3165   -4.3217 C   0  0  0  0  0  0  0  0  0  0  0  0
   -2.4209    1.6308   -3.1283 C   0  0  0  0  0  0  0  0  0  0  0  0
   -2.6921    0.9094   -1.9369 C   0  0  0  0  0  0  0  0  0  0  0  0
    1.3564    3.4946    1.9385 H   0  0  0  0  0  0  0  0  0  0  0  0
    0.5612    1.9704    2.3901 H   0  0  0  0  0  0  0  0  0  0  0  0
    2.0539    2.4756    3.2013 H   0  0  0  0  0  0  0  0  0  0  0  0
    5.0165   -0.8184   -1.6959 H   0  0  0  0  0  0  0  0  0  0  0  0
    6.7735   -2.5150   -1.5765 H   0  0  0  0  0  0  0  0  0  0  0  0
    7.5850   -3.3420    0.6142 H   0  0  0  0  0  0  0  0  0  0  0  0
    6.6140   -2.4477    2.7153 H   0  0  0  0  0  0  0  0  0  0  0  0
    4.8440   -0.7399    2.6393 H   0  0  0  0  0  0  0  0  0  0  0  0
    3.4546    0.6685   -1.6646 H   0  0  0  0  0  0  0  0  0  0  0  0
    1.1122    3.6380   -0.4972 H   0  0  0  0  0  0  0  0  0  0  0  0
    1.7752    2.9181   -1.9761 H   0  0  0  0  0  0  0  0  0  0  0  0
    0.1894    1.1011   -1.7947 H   0  0  0  0  0  0  0  0  0  0  0  0
   -2.0079    0.6643    1.4091 H   0  0  0  0  0  0  0  0  0  0  0  0
   -5.8466   -1.7816    0.6223 H   0  0  0  0  0  0  0  0  0  0  0  0
   -6.5683   -3.1750    2.5401 H   0  0  0  0  0  0  0  0  0  0  0  0
   -2.9530   -2.7174    4.4492 H   0  0  0  0  0  0  0  0  0  0  0  0
   -2.0457   -1.3188    2.6328 H   0  0  0  0  0  0  0  0  0  0  0  0
   -5.0173   -1.2125   -3.1901 H   0  0  0  0  0  0  0  0  0  0  0  0
   -4.5121    0.0299   -5.2644 H   0  0  0  0  0  0  0  0  0  0  0  0
   -2.8525    1.8791   -5.2268 H   0  0  0  0  0  0  0  0  0  0  0  0
   -1.7148    2.4588   -3.1303 H   0  0  0  0  0  0  0  0  0  0  0  0
  1  2  1  0
  2  3  2  0
  3  4  1  0
  4  5  1  0
  5  6  2  0
  6  7  1  0
  7  8  2  0
  8  9  1  0
  9 10  2  0
  4 11  1  0
 11 12  2  0
 12 13  1  0
 13 14  1  0
 14 15  1  0
 15 16  2  0
 15 17  1  0
 17 18  2  0
 18 19  1  0
 19 20  1  0
 20 21  2  0
 21 22  1  0
 22 23  2  0
 23 24  1  0
 24 25  2  0
 19 26  2  0
 26 27  1  0
 27 28  2  0
 28 29  1  0
 29 30  2  0
 30 31  1  0
 31 32  2  0
 12  2  1  0
 32 17  1  0
 10  5  1  0
 25 20  1  0
 32 27  1  0
  1 33  1  0
  1 34  1  0
  1 35  1  0
  6 36  1  0
  7 37  1  0
  8 38  1  0
  9 39  1  0
 10 40  1  0
 11 41  1  0
 13 42  1  0
 13 43  1  0
 14 44  1  0
 18 45  1  0
 21 46  1  0
 22 47  1  0
 24 48  1  0
 25 49  1  0
 28 50  1  0
 29 51  1  0
 30 52  1  0
 31 53  1  0
M  END
$$$$
OCNT-2311790
     RDKit          3D

 49 51  0  0  0  0  0  0  0  0999 V2000
    1.5688    3.7264    1.0515 C   0  0  0  0  0  0  0  0  0  0  0  0
    1.7951    2.2520    0.8920 C   0  0  0  0  0  0  0  0  0  0  0  0
    0.7414    1.3488    1.0317 C   0  0  0  0  0  0  0  0  0  0  0  0
    0.9633   -0.0281    0.8706 C   0  0  0  0  0  0  0  0  0  0  0  0
   -0.1854   -0.9621    1.0510 C   0  0  0  0  0  0  0  0  0  0  0  0
   -0.0266   -1.9613    1.7442 O   0  0  0  0  0  0  0  0  0  0  0  0
   -1.3320   -0.5828    0.3824 N   0  0  0  0  0  0  0  0  0  0  0  0
   -2.5703   -1.2628    0.3087 C   0  0  0  0  0  0  0  0  0  0  0  0
   -2.8112   -2.4842    0.9422 C   0  0  0  0  0  0  0  0  0  0  0  0
   -4.0266   -3.1414    0.7579 C   0  0  0  0  0  0  0  0  0  0  0  0
   -5.0002   -2.5843   -0.0637 C   0  0  0  0  0  0  0  0  0  0  0  0
   -4.7753   -1.3538   -0.6877 C   0  0  0  0  0  0  0  0  0  0  0  0
   -3.5784   -0.6549   -0.4900 C   0  0  0  0  0  0  0  0  0  0  0  0
   -3.3034    0.6121   -1.0518 N   0  0  0  0  0  0  0  0  0  0  0  0
   -4.2786    1.2775   -1.9485 C   0  0  0  0  0  0  0  0  0  0  0  0
   -5.3816    2.0822   -1.2460 C   0  0  0  0  0  0  0  0  0  0  0  0
   -6.2866    1.2943   -0.6299 F   0  0  0  0  0  0  0  0  0  0  0  0
   -4.8511    2.9130   -0.3171 F   0  0  0  0  0  0  0  0  0  0  0  0
   -6.0516    2.8483   -2.1381 F   0  0  0  0  0  0  0  0  0  0  0  0
    2.2549   -0.5312    0.5927 C   0  0  0  0  0  0  0  0  0  0  0  0
    2.4527   -1.9152    0.3915 N   0  0  0  0  0  0  0  0  0  0  0  0
    3.8188   -2.3839    0.5315 C   0  0  0  0  0  0  0  0  0  0  0  0
    4.7129   -1.5773   -0.3903 C   0  0  0  0  0  0  0  0  0  0  0  0
    4.7096   -0.1026    0.0365 C   0  0  0  0  0  0  0  0  0  0  0  0
    5.4132    0.7214   -1.0495 C   0  0  0  0  0  0  0  0  0  0  0  0
    3.3060    0.3884    0.3741 C   0  0  0  0  0  0  0  0  0  0  0  0
    3.0634    1.7654    0.5532 C   0  0  0  0  0  0  0  0  0  0  0  0
    0.6898    3.9256    1.6751 H   0  0  0  0  0  0  0  0  0  0  0  0
    2.4282    4.1994    1.5402 H   0  0  0  0  0  0  0  0  0  0  0  0
    1.4157    4.1895    0.0707 H   0  0  0  0  0  0  0  0  0  0  0  0
   -0.2476    1.7129    1.2988 H   0  0  0  0  0  0  0  0  0  0  0  0
   -1.2622    0.1915   -0.2687 H   0  0  0  0  0  0  0  0  0  0  0  0
   -2.0632   -2.9591    1.5680 H   0  0  0  0  0  0  0  0  0  0  0  0
   -4.2033   -4.0964    1.2461 H   0  0  0  0  0  0  0  0  0  0  0  0
   -5.9421   -3.1053   -0.2166 H   0  0  0  0  0  0  0  0  0  0  0  0
   -5.5744   -0.9623   -1.3073 H   0  0  0  0  0  0  0  0  0  0  0  0
   -3.0330    1.2396   -0.2891 H   0  0  0  0  0  0  0  0  0  0  0  0
   -3.6969    1.9884   -2.5474 H   0  0  0  0  0  0  0  0  0  0  0  0
   -4.7067    0.5719   -2.6687 H   0  0  0  0  0  0  0  0  0  0  0  0
    1.7795   -2.4533    0.9515 H   0  0  0  0  0  0  0  0  0  0  0  0
    4.1483   -2.3111    1.5751 H   0  0  0  0  0  0  0  0  0  0  0  0
    3.8582   -3.4415    0.2498 H   0  0  0  0  0  0  0  0  0  0  0  0
    5.7350   -1.9730   -0.3646 H   0  0  0  0  0  0  0  0  0  0  0  0
    4.3549   -1.6755   -1.4242 H   0  0  0  0  0  0  0  0  0  0  0  0
    5.2978   -0.0205    0.9611 H   0  0  0  0  0  0  0  0  0  0  0  0
    5.6084    1.7467   -0.7205 H   0  0  0  0  0  0  0  0  0  0  0  0
    6.3831    0.2796   -1.3043 H   0  0  0  0  0  0  0  0  0  0  0  0
    4.8116    0.7709   -1.9640 H   0  0  0  0  0  0  0  0  0  0  0  0
    3.8779    2.4781    0.4397 H   0  0  0  0  0  0  0  0  0  0  0  0
  1  2  1  0
  2  3  1  0
  3  4  2  0
  4  5  1  0
  5  6  2  0
  5  7  1  0
  7  8  1  0
  8  9  2  0
  9 10  1  0
 10 11  2  0
 11 12  1  0
 12 13  2  0
 13 14  1  0
 14 15  1  0
 15 16  1  0
 16 17  1  0
 16 18  1  0
 16 19  1  0
  4 20  1  0
 20 21  1  0
 21 22  1  0
 22 23  1  0
 23 24  1  0
 24 25  1  0
 24 26  1  0
 26 27  1  0
 27  2  2  0
 13  8  1  0
 26 20  2  0
  1 28  1  0
  1 29  1  0
  1 30  1  0
  3 31  1  0
  7 32  1  0
  9 33  1  0
 10 34  1  0
 11 35  1  0
 12 36  1  0
 14 37  1  0
 15 38  1  0
 15 39  1  0
 21 40  1  0
 22 41  1  0
 22 42  1  0
 23 43  1  0
 23 44  1  0
 24 45  1  0
 25 46  1  0
 25 47  1  0
 25 48  1  0
 27 49  1  0
M  END
$$$$
OCNT-2311800
     RDKit          3D

 46 49  0  0  0  0  0  0  0  0999 V2000
    6.1257    2.6441    0.9763 C   0  0  0  0  0  0  0  0  0  0  0  0
    4.8251    2.3627    1.4776 O   0  0  0  0  0  0  0  0  0  0  0  0
    4.1521    1.3235    0.8966 C   0  0  0  0  0  0  0  0  0  0  0  0
    2.8961    1.0599    1.4478 C   0  0  0  0  0  0  0  0  0  0  0  0
    2.0991    0.0247    0.9489 C   0  0  0  0  0  0  0  0  0  0  0  0
    2.5453   -0.7580   -0.1196 C   0  0  0  0  0  0  0  0  0  0  0  0
    1.7250   -1.8401   -0.6640 C   0  0  0  0  0  0  0  0  0  0  0  0
    2.2747   -3.0382   -0.9289 N   0  0  0  0  0  0  0  0  0  0  0  0
    1.2653   -3.7779   -1.3988 N   0  0  0  0  0  0  0  0  0  0  0  0
    0.0931   -3.0988   -1.5020 C   0  0  0  0  0  0  0  0  0  0  0  0
    0.3377   -1.8238   -1.0272 C   0  0  0  0  0  0  0  0  0  0  0  0
   -0.6270   -0.6812   -0.9856 C   0  0  0  0  0  0  0  0  0  0  0  0
   -1.2718   -0.5825    0.3292 N   0  0  0  0  0  0  0  0  0  0  0  0
   -2.1633   -1.7223    0.6213 C   0  0  0  0  0  0  0  0  0  0  0  0
   -3.1884   -1.3961    1.7131 C   0  0  0  0  0  0  0  0  0  0  0  0
   -4.0622   -0.3398    1.3017 O   0  0  0  0  0  0  0  0  0  0  0  0
   -3.4927    0.6552    0.4026 C   0  0  0  0  0  0  0  0  0  0  0  0
   -4.0730    0.6140   -1.0460 C   0  0  0  0  0  0  0  0  0  0  0  0
   -4.1802    2.1466   -1.0059 C   0  0  0  0  0  0  0  0  0  0  0  0
   -4.1707    2.0551    0.5283 C   0  0  0  0  0  0  0  0  0  0  0  0
   -1.9536    0.7158    0.5288 C   0  0  0  0  0  0  0  0  0  0  0  0
    3.8116   -0.4992   -0.6611 C   0  0  0  0  0  0  0  0  0  0  0  0
    4.6098    0.5369   -0.1599 C   0  0  0  0  0  0  0  0  0  0  0  0
    6.0861    2.9476   -0.0750 H   0  0  0  0  0  0  0  0  0  0  0  0
    6.5303    3.4837    1.5497 H   0  0  0  0  0  0  0  0  0  0  0  0
    6.7971    1.7906    1.1173 H   0  0  0  0  0  0  0  0  0  0  0  0
    2.5363    1.6596    2.2802 H   0  0  0  0  0  0  0  0  0  0  0  0
    1.1387   -0.1724    1.4174 H   0  0  0  0  0  0  0  0  0  0  0  0
    1.4559   -4.7427   -1.6476 H   0  0  0  0  0  0  0  0  0  0  0  0
   -0.7974   -3.5643   -1.8986 H   0  0  0  0  0  0  0  0  0  0  0  0
   -0.0658    0.2363   -1.2041 H   0  0  0  0  0  0  0  0  0  0  0  0
   -1.3674   -0.7864   -1.7875 H   0  0  0  0  0  0  0  0  0  0  0  0
   -1.5665   -2.5815    0.9457 H   0  0  0  0  0  0  0  0  0  0  0  0
   -2.7152   -2.0115   -0.2825 H   0  0  0  0  0  0  0  0  0  0  0  0
   -3.8068   -2.2746    1.9219 H   0  0  0  0  0  0  0  0  0  0  0  0
   -2.6975   -1.1004    2.6470 H   0  0  0  0  0  0  0  0  0  0  0  0
   -3.4242    0.2209   -1.8314 H   0  0  0  0  0  0  0  0  0  0  0  0
   -5.0434    0.1078   -1.1159 H   0  0  0  0  0  0  0  0  0  0  0  0
   -3.3073    2.6610   -1.4232 H   0  0  0  0  0  0  0  0  0  0  0  0
   -5.0848    2.5699   -1.4497 H   0  0  0  0  0  0  0  0  0  0  0  0
   -5.1729    2.0225    0.9723 H   0  0  0  0  0  0  0  0  0  0  0  0
   -3.5928    2.8327    1.0361 H   0  0  0  0  0  0  0  0  0  0  0  0
   -1.5351    1.4900   -0.1263 H   0  0  0  0  0  0  0  0  0  0  0  0
   -1.7089    1.0456    1.5475 H   0  0  0  0  0  0  0  0  0  0  0  0
    4.1837   -1.1109   -1.4808 H   0  0  0  0  0  0  0  0  0  0  0  0
    5.5804    0.6958   -0.6166 H   0  0  0  0  0  0  0  0  0  0  0  0
  1  2  1  0
  2  3  1  0
  3  4  1  0
  4  5  2  0
  5  6  1  0
  6  7  1  0
  7  8  2  0
  8  9  1  0
  9 10  1  0
 10 11  2  0
 11 12  1  0
 12 13  1  0
 13 14  1  0
 14 15  1  0
 15 16  1  0
 16 17  1  0
 17 18  1  0
 18 19  1  0
 19 20  1  0
 17 21  1  0
  6 22  2  0
 22 23  1  0
 23  3  2  0
 11  7  1  0
 21 13  1  0
 20 17  1  0
  1 24  1  0
  1 25  1  0
  1 26  1  0
  4 27  1  0
  5 28  1  0
  9 29  1  0
 10 30  1  0
 12 31  1  0
 12 32  1  0
 14 33  1  0
 14 34  1  0
 15 35  1  0
 15 36  1  0
 18 37  1  0
 18 38  1  0
 19 39  1  0
 19 40  1  0
 20 41  1  0
 20 42  1  0
 21 43  1  0
 21 44  1  0
 22 45  1  0
 23 46  1  0
M  END
$$$$
OCNT-2311801
     RDKit          3D

 50 53  0  0  0  0  0  0  0  0999 V2000
   -4.1700   -2.7391    0.7736 C   0  0  0  0  0  0  0  0  0  0  0  0
   -3.3400   -1.6195    0.4782 O   0  0  0  0  0  0  0  0  0  0  0  0
   -3.9439   -0.4019    0.2764 C   0  0  0  0  0  0  0  0  0  0  0  0
   -5.3207   -0.1917    0.4602 C   0  0  0  0  0  0  0  0  0  0  0  0
   -5.9096    1.0673    0.2460 C   0  0  0  0  0  0  0  0  0  0  0  0
   -7.2874    1.2756    0.4287 C   0  0  0  0  0  0  0  0  0  0  0  0
   -7.8558    2.5318    0.2112 C   0  0  0  0  0  0  0  0  0  0  0  0
   -7.0553    3.5958   -0.1915 C   0  0  0  0  0  0  0  0  0  0  0  0
   -5.6857    3.4047   -0.3766 C   0  0  0  0  0  0  0  0  0  0  0  0
   -5.1009    2.1460   -0.1609 C   0  0  0  0  0  0  0  0  0  0  0  0
   -3.7260    1.9376   -0.3407 C   0  0  0  0  0  0  0  0  0  0  0  0
   -3.1309    0.6782   -0.1258 C   0  0  0  0  0  0  0  0  0  0  0  0
   -1.6407    0.6053   -0.3575 C   0  0  0  0  0  0  0  0  0  0  0  0
   -1.0643    1.6097   -0.7667 O   0  0  0  0  0  0  0  0  0  0  0  0
   -1.0280   -0.6005   -0.0811 N   0  0  0  0  0  0  0  0  0  0  0  0
    0.3331   -0.9388   -0.2069 C   0  0  0  0  0  0  0  0  0  0  0  0
    1.3207   -0.0649   -0.6603 C   0  0  0  0  0  0  0  0  0  0  0  0
    2.6578   -0.4787   -0.7570 C   0  0  0  0  0  0  0  0  0  0  0  0
    3.0226   -1.7738   -0.3979 C   0  0  0  0  0  0  0  0  0  0  0  0
    4.2796   -2.3067   -0.4333 O   0  0  0  0  0  0  0  0  0  0  0  0
    5.3676   -1.4768   -0.8433 C   0  0  0  0  0  0  0  0  0  0  0  0
    5.9040   -0.6658    0.3317 C   0  0  0  0  0  0  0  0  0  0  0  0
    7.0428    0.1428   -0.0404 N   0  0  0  0  0  0  0  0  0  0  0  0
    8.3542   -0.2374    0.0011 C   0  0  0  0  0  0  0  0  0  0  0  0
    9.0528    0.8589   -0.4486 C   0  0  0  0  0  0  0  0  0  0  0  0
    8.1990    1.8875   -0.7537 N   0  0  0  0  0  0  0  0  0  0  0  0
    6.9958    1.4309   -0.4891 C   0  0  0  0  0  0  0  0  0  0  0  0
    2.0357   -2.6511    0.0531 C   0  0  0  0  0  0  0  0  0  0  0  0
    0.7027   -2.2395    0.1484 C   0  0  0  0  0  0  0  0  0  0  0  0
   -3.5254   -3.6208    0.8400 H   0  0  0  0  0  0  0  0  0  0  0  0
   -4.6643   -2.6159    1.7426 H   0  0  0  0  0  0  0  0  0  0  0  0
   -4.8952   -2.9173   -0.0270 H   0  0  0  0  0  0  0  0  0  0  0  0
   -5.9710   -1.0013    0.7779 H   0  0  0  0  0  0  0  0  0  0  0  0
   -7.9326    0.4581    0.7430 H   0  0  0  0  0  0  0  0  0  0  0  0
   -8.9231    2.6786    0.3560 H   0  0  0  0  0  0  0  0  0  0  0  0
   -7.4947    4.5753   -0.3620 H   0  0  0  0  0  0  0  0  0  0  0  0
   -5.0748    4.2486   -0.6915 H   0  0  0  0  0  0  0  0  0  0  0  0
   -3.1025    2.7750   -0.6542 H   0  0  0  0  0  0  0  0  0  0  0  0
   -1.6420   -1.3368    0.2519 H   0  0  0  0  0  0  0  0  0  0  0  0
    1.0848    0.9537   -0.9528 H   0  0  0  0  0  0  0  0  0  0  0  0
    3.3748    0.2487   -1.1207 H   0  0  0  0  0  0  0  0  0  0  0  0
    6.1542   -2.1571   -1.1929 H   0  0  0  0  0  0  0  0  0  0  0  0
    5.1154   -0.8604   -1.7141 H   0  0  0  0  0  0  0  0  0  0  0  0
    5.1388   -0.0003    0.7461 H   0  0  0  0  0  0  0  0  0  0  0  0
    6.2097   -1.3295    1.1493 H   0  0  0  0  0  0  0  0  0  0  0  0
    8.6750   -1.2155    0.3312 H   0  0  0  0  0  0  0  0  0  0  0  0
   10.1235    0.9632   -0.5678 H   0  0  0  0  0  0  0  0  0  0  0  0
    6.0734    1.9852   -0.6068 H   0  0  0  0  0  0  0  0  0  0  0  0
    2.3044   -3.6666    0.3339 H   0  0  0  0  0  0  0  0  0  0  0  0
   -0.0376   -2.9509    0.5041 H   0  0  0  0  0  0  0  0  0  0  0  0
  1  2  1  0
  2  3  1  0
  3  4  2  0
  4  5  1  0
  5  6  2  0
  6  7  1  0
  7  8  2  0
  8  9  1  0
  9 10  2  0
 10 11  1  0
 11 12  2  0
 12 13  1  0
 13 14  2  0
 13 15  1  0
 15 16  1  0
 16 17  1  0
 17 18  2  0
 18 19  1  0
 19 20  1  0
 20 21  1  0
 21 22  1  0
 22 23  1  0
 23 24  1  0
 24 25  2  0
 25 26  1  0
 26 27  2  0
 19 28  2  0
 28 29  1  0
 12  3  1  0
 29 16  2  0
 10  5  1  0
 27 23  1  0
  1 30  1  0
  1 31  1  0
  1 32  1  0
  4 33  1  0
  6 34  1  0
  7 35  1  0
  8 36  1  0
  9 37  1  0
 11 38  1  0
 15 39  1  0
 17 40  1  0
 18 41  1  0
 21 42  1  0
 21 43  1  0
 22 44  1  0
 22 45  1  0
 24 46  1  0
 25 47  1  0
 27 48  1  0
 28 49  1  0
 29 50  1  0
M  END
$$$$
OCNT-2311802
     RDKit          3D

 38 41  0  0  0  0  0  0  0  0999 V2000
    3.3266    2.8414   -0.0351 C   0  0  0  0  0  0  0  0  0  0  0  0
    3.9477    1.4973   -0.0423 C   0  0  0  0  0  0  0  0  0  0  0  0
    5.2548    1.3677   -0.3068 N   0  0  0  0  0  0  0  0  0  0  0  0
    5.5102    0.0050   -0.2611 O   0  0  0  0  0  0  0  0  0  0  0  0
    4.3638   -0.6694    0.0339 C   0  0  0  0  0  0  0  0  0  0  0  0
    4.2921   -2.0038    0.1378 N   0  0  0  0  0  0  0  0  0  0  0  0
    3.0474   -2.3956    0.4252 C   0  0  0  0  0  0  0  0  0  0  0  0
    1.9608   -1.6217    0.6170 N   0  0  0  0  0  0  0  0  0  0  0  0
    2.0751   -0.2737    0.5165 C   0  0  0  0  0  0  0  0  0  0  0  0
    0.9616    0.5440    0.7146 N   0  0  0  0  0  0  0  0  0  0  0  0
   -0.2102   -0.0658    1.3497 C   0  0  0  0  0  0  0  0  0  0  0  0
   -1.0980   -0.8473    0.3488 C   0  0  0  0  0  0  0  0  0  0  0  0
   -1.8474   -1.9400    1.1254 C   0  0  0  0  0  0  0  0  0  0  0  0
   -2.9400   -2.5229    0.2529 C   0  0  0  0  0  0  0  0  0  0  0  0
   -3.9360   -1.5404   -0.0307 O   0  0  0  0  0  0  0  0  0  0  0  0
   -3.4287   -0.3784   -0.5509 C   0  0  0  0  0  0  0  0  0  0  0  0
   -4.3490    0.4264   -1.2259 C   0  0  0  0  0  0  0  0  0  0  0  0
   -3.9360    1.6152   -1.8221 C   0  0  0  0  0  0  0  0  0  0  0  0
   -2.5999    1.9963   -1.7453 C   0  0  0  0  0  0  0  0  0  0  0  0
   -1.6831    1.2002   -1.0541 C   0  0  0  0  0  0  0  0  0  0  0  0
   -2.0889    0.0157   -0.4181 C   0  0  0  0  0  0  0  0  0  0  0  0
    3.3376    0.2408    0.1984 C   0  0  0  0  0  0  0  0  0  0  0  0
    4.0227    3.6098   -0.3875 H   0  0  0  0  0  0  0  0  0  0  0  0
    3.0126    3.1104    0.9784 H   0  0  0  0  0  0  0  0  0  0  0  0
    2.4481    2.8629   -0.6878 H   0  0  0  0  0  0  0  0  0  0  0  0
    2.8908   -3.4664    0.5183 H   0  0  0  0  0  0  0  0  0  0  0  0
    1.2112    1.4442    1.1080 H   0  0  0  0  0  0  0  0  0  0  0  0
    0.1162   -0.7065    2.1798 H   0  0  0  0  0  0  0  0  0  0  0  0
   -0.8007    0.7360    1.8116 H   0  0  0  0  0  0  0  0  0  0  0  0
   -0.4769   -1.3447   -0.4079 H   0  0  0  0  0  0  0  0  0  0  0  0
   -2.3019   -1.5117    2.0289 H   0  0  0  0  0  0  0  0  0  0  0  0
   -1.1501   -2.7240    1.4418 H   0  0  0  0  0  0  0  0  0  0  0  0
   -3.4363   -3.3427    0.7829 H   0  0  0  0  0  0  0  0  0  0  0  0
   -2.5461   -2.9329   -0.6856 H   0  0  0  0  0  0  0  0  0  0  0  0
   -5.3873    0.1143   -1.2991 H   0  0  0  0  0  0  0  0  0  0  0  0
   -4.6519    2.2334   -2.3564 H   0  0  0  0  0  0  0  0  0  0  0  0
   -2.2679    2.9125   -2.2266 H   0  0  0  0  0  0  0  0  0  0  0  0
   -0.6432    1.5145   -1.0265 H   0  0  0  0  0  0  0  0  0  0  0  0
  1  2  1  0
  2  3  2  0
  3  4  1  0
  4  5  1  0
  5  6  2  0
  6  7  1  0
  7  8  2  0
  8  9  1  0
  9 10  1  0
 10 11  1  0
 11 12  1  0
 12 13  1  0
 13 14  1  0
 14 15  1  0
 15 16  1  0
 16 17  2  0
 17 18  1  0
 18 19  2  0
 19 20  1  0
 20 21  2  0
  9 22  2  0
 22  2  1  0
 22  5  1  0
 21 12  1  0
 21 16  1  0
  1 23  1  0
  1 24  1  0
  1 25  1  0
  7 26  1  0
 10 27  1  0
 11 28  1  0
 11 29  1  0
 12 30  1  0
 13 31  1  0
 13 32  1  0
 14 33  1  0
 14 34  1  0
 17 35  1  0
 18 36  1  0
 19 37  1  0
 20 38  1  0
M  END
$$$$
OCNT-2311804
     RDKit          3D

 43 45  0  0  0  0  0  0  0  0999 V2000
   -5.9690    1.8752    0.7344 C   0  0  0  0  0  0  0  0  0  0  0  0
   -5.4123    1.0191   -0.3454 C   0  0  0  0  0  0  0  0  0  0  0  0
   -6.0590    0.7179   -1.4594 N   0  0  0  0  0  0  0  0  0  0  0  0
   -5.2180   -0.0798   -2.1799 C   0  0  0  0  0  0  0  0  0  0  0  0
   -4.0397   -0.2712   -1.5070 C   0  0  0  0  0  0  0  0  0  0  0  0
   -4.1526    0.4330   -0.3226 N   0  0  0  0  0  0  0  0  0  0  0  0
   -3.1449    0.5101    0.6848 C   0  0  0  0  0  0  0  0  0  0  0  0
   -3.3905    1.2317    1.7939 N   0  0  0  0  0  0  0  0  0  0  0  0
   -2.4117    1.2592    2.7126 C   0  0  0  0  0  0  0  0  0  0  0  0
   -1.2100    0.6125    2.5576 C   0  0  0  0  0  0  0  0  0  0  0  0
   -1.0266   -0.0864    1.3826 C   0  0  0  0  0  0  0  0  0  0  0  0
    0.1711   -0.7905    1.2135 N   0  0  0  0  0  0  0  0  0  0  0  0
    0.3617   -1.4102   -0.1003 C   0  0  0  0  0  0  0  0  0  0  0  0
    1.8339   -1.8655   -0.2351 C   0  0  0  0  0  0  0  0  0  0  0  0
    2.8172   -0.7853    0.0279 N   0  0  0  0  0  0  0  0  0  0  0  0
    4.1846   -1.3216    0.1426 C   0  0  0  0  0  0  0  0  0  0  0  0
    5.0227   -1.1473   -1.1216 C   0  0  0  0  0  0  0  0  0  0  0  0
    5.1626    0.3268   -1.4975 C   0  0  0  0  0  0  0  0  0  0  0  0
    3.9660    1.1572   -1.0368 C   0  0  0  0  0  0  0  0  0  0  0  0
    2.6997    0.3072   -0.9556 C   0  0  0  0  0  0  0  0  0  0  0  0
   -1.9920   -0.1551    0.4522 N   0  0  0  0  0  0  0  0  0  0  0  0
   -5.3582    2.7708    0.8818 H   0  0  0  0  0  0  0  0  0  0  0  0
   -6.0460    1.3227    1.6755 H   0  0  0  0  0  0  0  0  0  0  0  0
   -6.9777    2.2081    0.4675 H   0  0  0  0  0  0  0  0  0  0  0  0
   -5.5050   -0.4751   -3.1457 H   0  0  0  0  0  0  0  0  0  0  0  0
   -3.1487   -0.8319   -1.7506 H   0  0  0  0  0  0  0  0  0  0  0  0
   -2.6282    1.8308    3.6103 H   0  0  0  0  0  0  0  0  0  0  0  0
   -0.4505    0.6437    3.3271 H   0  0  0  0  0  0  0  0  0  0  0  0
    0.9790   -0.2047    1.4299 H   0  0  0  0  0  0  0  0  0  0  0  0
   -0.2955   -2.2819   -0.2019 H   0  0  0  0  0  0  0  0  0  0  0  0
    0.1268   -0.7090   -0.9106 H   0  0  0  0  0  0  0  0  0  0  0  0
    1.9939   -2.3060   -1.2271 H   0  0  0  0  0  0  0  0  0  0  0  0
    1.9865   -2.6653    0.5017 H   0  0  0  0  0  0  0  0  0  0  0  0
    4.1826   -2.3770    0.4413 H   0  0  0  0  0  0  0  0  0  0  0  0
    4.6799   -0.7902    0.9657 H   0  0  0  0  0  0  0  0  0  0  0  0
    4.5542   -1.6953   -1.9491 H   0  0  0  0  0  0  0  0  0  0  0  0
    6.0170   -1.5867   -0.9818 H   0  0  0  0  0  0  0  0  0  0  0  0
    6.0759    0.7436   -1.0565 H   0  0  0  0  0  0  0  0  0  0  0  0
    5.2811    0.4066   -2.5847 H   0  0  0  0  0  0  0  0  0  0  0  0
    3.8156    1.9993   -1.7220 H   0  0  0  0  0  0  0  0  0  0  0  0
    4.1778    1.5928   -0.0517 H   0  0  0  0  0  0  0  0  0  0  0  0
    2.4843   -0.0874   -1.9576 H   0  0  0  0  0  0  0  0  0  0  0  0
    1.8619    0.9552   -0.6745 H   0  0  0  0  0  0  0  0  0  0  0  0
  1  2  1  0
  2  3  2  0
  3  4  1  0
  4  5  2  0
  5  6  1  0
  6  7  1  0
  7  8  2  0
  8  9  1  0
  9 10  2  0
 10 11  1  0
 11 12  1  0
 12 13  1  0
 13 14  1  0
 14 15  1  0
 15 16  1  0
 16 17  1  0
 17 18  1  0
 18 19  1  0
 19 20  1  0
 11 21  2  0
  6  2  1  0
 21  7  1  0
 20 15  1  0
  1 22  1  0
  1 23  1  0
  1 24  1  0
  4 25  1  0
  5 26  1  0
  9 27  1  0
 10 28  1  0
 12 29  1  0
 13 30  1  0
 13 31  1  0
 14 32  1  0
 14 33  1  0
 16 34  1  0
 16 35  1  0
 17 36  1  0
 17 37  1  0
 18 38  1  0
 18 39  1  0
 19 40  1  0
 19 41  1  0
 20 42  1  0
 20 43  1  0
M  END
$$$$
OCNT-2311805
     RDKit          3D

 56 58  0  0  0  0  0  0  0  0999 V2000
   -7.2401   -0.6394    1.0883 C   0  0  0  0  0  0  0  0  0  0  0  0
   -6.3379   -0.6866   -0.1654 C   0  0  0  0  0  0  0  0  0  0  0  0
   -6.5818   -2.0474   -0.8528 C   0  0  0  0  0  0  0  0  0  0  0  0
   -6.8031    0.4470   -1.1048 C   0  0  0  0  0  0  0  0  0  0  0  0
   -4.8392   -0.5215    0.1399 C   0  0  0  0  0  0  0  0  0  0  0  0
   -4.3453   -0.3465    1.4420 C   0  0  0  0  0  0  0  0  0  0  0  0
   -2.9745   -0.2008    1.6880 C   0  0  0  0  0  0  0  0  0  0  0  0
   -2.0469   -0.2299    0.6407 C   0  0  0  0  0  0  0  0  0  0  0  0
   -0.5657   -0.0311    0.8891 C   0  0  0  0  0  0  0  0  0  0  0  0
   -0.2066   -0.7205    2.0884 O   0  0  0  0  0  0  0  0  0  0  0  0
   -0.2329    1.4763    1.0006 C   0  0  0  0  0  0  0  0  0  0  0  0
    1.1443    1.8207    0.6499 N   0  0  0  0  0  0  0  0  0  0  0  0
    2.2342    1.3328    1.3322 C   0  0  0  0  0  0  0  0  0  0  0  0
    2.1395    0.4946    2.2227 O   0  0  0  0  0  0  0  0  0  0  0  0
    3.5473    1.9615    0.9070 C   0  0  0  0  0  0  0  0  0  0  0  0
    4.7600    1.1120    1.2888 C   0  0  0  0  0  0  0  0  0  0  0  0
    4.9752   -0.0475    0.3417 C   0  0  0  0  0  0  0  0  0  0  0  0
    4.4857   -1.3051    0.7009 C   0  0  0  0  0  0  0  0  0  0  0  0
    4.5954   -2.4137   -0.0583 N   0  0  0  0  0  0  0  0  0  0  0  0
    5.2236   -2.2703   -1.2436 C   0  0  0  0  0  0  0  0  0  0  0  0
    5.7526   -1.0720   -1.7230 C   0  0  0  0  0  0  0  0  0  0  0  0
    6.3915   -1.0011   -2.9743 C   0  0  0  0  0  0  0  0  0  0  0  0
    6.9139    0.2037   -3.4383 C   0  0  0  0  0  0  0  0  0  0  0  0
    6.8035    1.3470   -2.6574 C   0  0  0  0  0  0  0  0  0  0  0  0
    6.1703    1.2863   -1.4123 C   0  0  0  0  0  0  0  0  0  0  0  0
    5.6286    0.0786   -0.9123 C   0  0  0  0  0  0  0  0  0  0  0  0
   -2.5259   -0.4037   -0.6619 C   0  0  0  0  0  0  0  0  0  0  0  0
   -3.8965   -0.5476   -0.9054 C   0  0  0  0  0  0  0  0  0  0  0  0
   -6.9958   -1.4438    1.7919 H   0  0  0  0  0  0  0  0  0  0  0  0
   -7.1474    0.3167    1.6168 H   0  0  0  0  0  0  0  0  0  0  0  0
   -8.2967   -0.7572    0.8191 H   0  0  0  0  0  0  0  0  0  0  0  0
   -7.6500   -2.2107   -1.0387 H   0  0  0  0  0  0  0  0  0  0  0  0
   -6.2208   -2.8752   -0.2303 H   0  0  0  0  0  0  0  0  0  0  0  0
   -6.0740   -2.1188   -1.8213 H   0  0  0  0  0  0  0  0  0  0  0  0
   -7.8773    0.3738   -1.3110 H   0  0  0  0  0  0  0  0  0  0  0  0
   -6.2893    0.4206   -2.0720 H   0  0  0  0  0  0  0  0  0  0  0  0
   -6.6149    1.4310   -0.6593 H   0  0  0  0  0  0  0  0  0  0  0  0
   -5.0075   -0.3243    2.3030 H   0  0  0  0  0  0  0  0  0  0  0  0
   -2.6303   -0.0766    2.7138 H   0  0  0  0  0  0  0  0  0  0  0  0
    0.0046   -0.4921    0.0740 H   0  0  0  0  0  0  0  0  0  0  0  0
    0.7239   -0.4706    2.2787 H   0  0  0  0  0  0  0  0  0  0  0  0
   -0.8586    2.0646    0.3194 H   0  0  0  0  0  0  0  0  0  0  0  0
   -0.4034    1.8336    2.0230 H   0  0  0  0  0  0  0  0  0  0  0  0
    1.2798    2.6003    0.0182 H   0  0  0  0  0  0  0  0  0  0  0  0
    3.6110    2.9249    1.4273 H   0  0  0  0  0  0  0  0  0  0  0  0
    3.5275    2.1647   -0.1696 H   0  0  0  0  0  0  0  0  0  0  0  0
    5.6600    1.7381    1.3001 H   0  0  0  0  0  0  0  0  0  0  0  0
    4.6692    0.7395    2.3174 H   0  0  0  0  0  0  0  0  0  0  0  0
    3.9673   -1.4593    1.6458 H   0  0  0  0  0  0  0  0  0  0  0  0
    5.2916   -3.1871   -1.8238 H   0  0  0  0  0  0  0  0  0  0  0  0
    6.4861   -1.8897   -3.5951 H   0  0  0  0  0  0  0  0  0  0  0  0
    7.4077    0.2476   -4.4055 H   0  0  0  0  0  0  0  0  0  0  0  0
    7.2127    2.2893   -3.0128 H   0  0  0  0  0  0  0  0  0  0  0  0
    6.1107    2.2049   -0.8349 H   0  0  0  0  0  0  0  0  0  0  0  0
   -1.8363   -0.4336   -1.5025 H   0  0  0  0  0  0  0  0  0  0  0  0
   -4.2190   -0.6857   -1.9352 H   0  0  0  0  0  0  0  0  0  0  0  0
  1  2  1  0
  2  3  1  0
  2  4  1  0
  2  5  1  0
  5  6  1  0
  6  7  2  0
  7  8  1  0
  8  9  1  0
  9 10  1  0
  9 11  1  0
 11 12  1  0
 12 13  1  0
 13 14  2  0
 13 15  1  0
 15 16  1  0
 16 17  1  0
 17 18  1  0
 18 19  2  0
 19 20  1  0
 20 21  2  0
 21 22  1  0
 22 23  2  0
 23 24  1  0
 24 25  2  0
 25 26  1  0
  8 27  2  0
 27 28  1  0
 28  5  2  0
 26 17  2  0
 26 21  1  0
  1 29  1  0
  1 30  1  0
  1 31  1  0
  3 32  1  0
  3 33  1  0
  3 34  1  0
  4 35  1  0
  4 36  1  0
  4 37  1  0
  6 38  1  0
  7 39  1  0
  9 40  1  0
 10 41  1  0
 11 42  1  0
 11 43  1  0
 12 44  1  0
 15 45  1  0
 15 46  1  0
 16 47  1  0
 16 48  1  0
 18 49  1  0
 20 50  1  0
 22 51  1  0
 23 52  1  0
 24 53  1  0
 25 54  1  0
 27 55  1  0
 28 56  1  0
M  END
$$$$
OCNT-2311808
     RDKit          3D

 54 58  0  0  0  0  0  0  0  0999 V2000
    3.0407   -1.4661    1.0311 O   0  0  0  0  0  0  0  0  0  0  0  0
    2.9480   -0.2462    0.9515 C   0  0  0  0  0  0  0  0  0  0  0  0
    2.3852    0.4742   -0.0875 N   0  0  0  0  0  0  0  0  0  0  0  0
    1.8872   -0.0346   -1.3020 C   0  0  0  0  0  0  0  0  0  0  0  0
    1.9869   -1.3768   -1.6822 C   0  0  0  0  0  0  0  0  0  0  0  0
    1.4426   -1.8163   -2.8919 C   0  0  0  0  0  0  0  0  0  0  0  0
    0.7739   -0.9077   -3.7123 C   0  0  0  0  0  0  0  0  0  0  0  0
   -0.0713   -1.4951   -5.1683 S   0  0  0  0  0  0  0  0  0  0  0  0
   -0.3461   -0.3563   -6.0170 O   0  0  0  0  0  0  0  0  0  0  0  0
    0.6523   -2.6490   -5.6571 O   0  0  0  0  0  0  0  0  0  0  0  0
   -1.5328   -2.0802   -4.5246 N   0  0  0  0  0  0  0  0  0  0  0  0
   -2.2726   -1.2008   -3.6805 C   0  0  0  0  0  0  0  0  0  0  0  0
   -3.0387   -0.1853   -4.2449 C   0  0  0  0  0  0  0  0  0  0  0  0
   -3.6627    0.7490   -3.4229 C   0  0  0  0  0  0  0  0  0  0  0  0
   -3.4791    0.6924   -2.0423 C   0  0  0  0  0  0  0  0  0  0  0  0
   -2.6643   -0.2936   -1.4589 C   0  0  0  0  0  0  0  0  0  0  0  0
   -2.4104   -0.2500   -0.0188 C   0  0  0  0  0  0  0  0  0  0  0  0
   -3.1392    0.3694    0.8889 N   0  0  0  0  0  0  0  0  0  0  0  0
   -2.4653    0.1415    2.0665 C   0  0  0  0  0  0  0  0  0  0  0  0
   -2.9972    0.6754    3.4266 C   0  0  0  0  0  0  0  0  0  0  0  0
   -3.8726   -0.2306    4.2551 C   0  0  0  0  0  0  0  0  0  0  0  0
   -2.4954    0.1165    4.7326 C   0  0  0  0  0  0  0  0  0  0  0  0
   -1.3315   -0.5576    1.9418 N   0  0  0  0  0  0  0  0  0  0  0  0
   -1.3276   -0.8106    0.6188 N   0  0  0  0  0  0  0  0  0  0  0  0
   -2.0945   -1.2662   -2.2910 C   0  0  0  0  0  0  0  0  0  0  0  0
    0.7119    0.4464   -3.3734 C   0  0  0  0  0  0  0  0  0  0  0  0
    1.2662    0.8767   -2.1671 C   0  0  0  0  0  0  0  0  0  0  0  0
    3.4880    0.5698    2.0772 C   0  0  0  0  0  0  0  0  0  0  0  0
    2.8453    1.7362    2.5194 C   0  0  0  0  0  0  0  0  0  0  0  0
    3.3953    2.4786    3.5687 C   0  0  0  0  0  0  0  0  0  0  0  0
    4.5717    2.0458    4.1764 C   0  0  0  0  0  0  0  0  0  0  0  0
    5.0992    2.7634    5.1772 F   0  0  0  0  0  0  0  0  0  0  0  0
    5.2069    0.8792    3.7623 C   0  0  0  0  0  0  0  0  0  0  0  0
    4.6604    0.1354    2.7144 C   0  0  0  0  0  0  0  0  0  0  0  0
    2.3653    1.4807    0.0089 H   0  0  0  0  0  0  0  0  0  0  0  0
    2.4961   -2.1094   -1.0604 H   0  0  0  0  0  0  0  0  0  0  0  0
    1.5279   -2.8637   -3.1723 H   0  0  0  0  0  0  0  0  0  0  0  0
   -1.4429   -3.0505   -4.2244 H   0  0  0  0  0  0  0  0  0  0  0  0
   -3.1556   -0.1169   -5.3245 H   0  0  0  0  0  0  0  0  0  0  0  0
   -4.2830    1.5327   -3.8586 H   0  0  0  0  0  0  0  0  0  0  0  0
   -3.9603    1.4399   -1.4150 H   0  0  0  0  0  0  0  0  0  0  0  0
   -3.2605    1.7192    3.4036 H   0  0  0  0  0  0  0  0  0  0  0  0
   -4.0425   -1.2464    3.9051 H   0  0  0  0  0  0  0  0  0  0  0  0
   -4.7211    0.2193    4.7609 H   0  0  0  0  0  0  0  0  0  0  0  0
   -2.4024    0.7957    5.5695 H   0  0  0  0  0  0  0  0  0  0  0  0
   -1.7329   -0.6583    4.7017 H   0  0  0  0  0  0  0  0  0  0  0  0
   -0.5446   -1.3260    0.2223 H   0  0  0  0  0  0  0  0  0  0  0  0
   -1.4853   -2.0625   -1.8753 H   0  0  0  0  0  0  0  0  0  0  0  0
    0.2053    1.1613   -4.0211 H   0  0  0  0  0  0  0  0  0  0  0  0
    1.1820    1.9293   -1.9062 H   0  0  0  0  0  0  0  0  0  0  0  0
    1.9098    2.0680    2.0798 H   0  0  0  0  0  0  0  0  0  0  0  0
    2.9129    3.3860    3.9226 H   0  0  0  0  0  0  0  0  0  0  0  0
    6.1209    0.5578    4.2562 H   0  0  0  0  0  0  0  0  0  0  0  0
    5.1502   -0.7831    2.3922 H   0  0  0  0  0  0  0  0  0  0  0  0
  1  2  2  0
  2  3  1  0
  3  4  1  0
  4  5  1  0
  5  6  2  0
  6  7  1  0
  7  8  1  0
  8  9  2  0
  8 10  2  0
  8 11  1  0
 11 12  1  0
 12 13  2  0
 13 14  1  0
 14 15  2  0
 15 16  1  0
 16 17  1  0
 17 18  2  0
 18 19  1  0
 19 20  1  0
 20 21  1  0
 21 22  1  0
 19 23  2  0
 23 24  1  0
 16 25  2  0
  7 26  2  0
 26 27  1  0
  2 28  1  0
 28 29  1  0
 29 30  2  0
 30 31  1  0
 31 32  1  0
 31 33  2  0
 33 34  1  0
 27  4  2  0
 34 28  2  0
 25 12  1  0
 24 17  1  0
 22 20  1  0
  3 35  1  0
  5 36  1  0
  6 37  1  0
 11 38  1  0
 13 39  1  0
 14 40  1  0
 15 41  1  0
 20 42  1  0
 21 43  1  0
 21 44  1  0
 22 45  1  0
 22 46  1  0
 24 47  1  0
 25 48  1  0
 26 49  1  0
 27 50  1  0
 29 51  1  0
 30 52  1  0
 33 53  1  0
 34 54  1  0
M  END
$$$$
OCNT-2311816
     RDKit          3D

 47 50  0  0  0  0  0  0  0  0999 V2000
    5.6988   -3.0128    1.0662 C   0  0  0  0  0  0  0  0  0  0  0  0
    4.5509   -2.4361    0.4556 O   0  0  0  0  0  0  0  0  0  0  0  0
    4.3084   -1.1146    0.7059 C   0  0  0  0  0  0  0  0  0  0  0  0
    5.1110   -0.2640    1.4738 C   0  0  0  0  0  0  0  0  0  0  0  0
    4.7515    1.0768    1.6507 C   0  0  0  0  0  0  0  0  0  0  0  0
    3.5844    1.5544    1.0559 C   0  0  0  0  0  0  0  0  0  0  0  0
    3.1749    2.9443    1.2095 C   0  0  0  0  0  0  0  0  0  0  0  0
    2.0983    3.4450    0.6929 N   0  0  0  0  0  0  0  0  0  0  0  0
    1.2776    2.6136   -0.0383 N   0  0  0  0  0  0  0  0  0  0  0  0
    0.0825    3.2197   -0.6147 C   0  0  0  0  0  0  0  0  0  0  0  0
   -1.1549    2.7409    0.1426 C   0  0  0  0  0  0  0  0  0  0  0  0
   -1.5478    3.2550    1.1873 O   0  0  0  0  0  0  0  0  0  0  0  0
   -1.7562    1.6306   -0.4195 N   0  0  0  0  0  0  0  0  0  0  0  0
   -2.7806    0.9059    0.3021 C   0  0  0  0  0  0  0  0  0  0  0  0
   -3.2739   -0.2133   -0.6028 C   0  0  0  0  0  0  0  0  0  0  0  0
   -4.2361    0.1583   -1.7555 C   0  0  0  0  0  0  0  0  0  0  0  0
   -5.2740   -0.8353   -1.2080 C   0  0  0  0  0  0  0  0  0  0  0  0
   -4.3372   -1.1683   -0.0235 C   0  0  0  0  0  0  0  0  0  0  0  0
   -3.6625   -2.5232    0.0082 C   0  0  0  0  0  0  0  0  0  0  0  0
   -2.6824   -2.4606   -1.1428 C   0  0  0  0  0  0  0  0  0  0  0  0
   -2.1904   -1.0816   -1.1473 N   0  0  0  0  0  0  0  0  0  0  0  0
    1.5522    1.2720   -0.3036 C   0  0  0  0  0  0  0  0  0  0  0  0
    0.8256    0.5443   -0.9796 O   0  0  0  0  0  0  0  0  0  0  0  0
    2.7807    0.7222    0.2953 C   0  0  0  0  0  0  0  0  0  0  0  0
    3.1423   -0.6162    0.1159 C   0  0  0  0  0  0  0  0  0  0  0  0
    6.6171   -2.5300    0.7162 H   0  0  0  0  0  0  0  0  0  0  0  0
    5.7420   -4.0647    0.7682 H   0  0  0  0  0  0  0  0  0  0  0  0
    5.6238   -2.9765    2.1579 H   0  0  0  0  0  0  0  0  0  0  0  0
    6.0237   -0.6145    1.9463 H   0  0  0  0  0  0  0  0  0  0  0  0
    5.3834    1.7298    2.2479 H   0  0  0  0  0  0  0  0  0  0  0  0
    3.8247    3.6105    1.8012 H   0  0  0  0  0  0  0  0  0  0  0  0
    0.0093    2.9444   -1.6728 H   0  0  0  0  0  0  0  0  0  0  0  0
    0.1394    4.3113   -0.5505 H   0  0  0  0  0  0  0  0  0  0  0  0
   -1.1752    1.0752   -1.0497 H   0  0  0  0  0  0  0  0  0  0  0  0
   -3.5824    1.5961    0.5854 H   0  0  0  0  0  0  0  0  0  0  0  0
   -2.3310    0.5079    1.2190 H   0  0  0  0  0  0  0  0  0  0  0  0
   -4.5883    1.1957   -1.7351 H   0  0  0  0  0  0  0  0  0  0  0  0
   -3.8916   -0.0580   -2.7724 H   0  0  0  0  0  0  0  0  0  0  0  0
   -6.2199   -0.3686   -0.9112 H   0  0  0  0  0  0  0  0  0  0  0  0
   -5.4947   -1.6735   -1.8756 H   0  0  0  0  0  0  0  0  0  0  0  0
   -4.7643   -0.8709    0.9414 H   0  0  0  0  0  0  0  0  0  0  0  0
   -3.1267   -2.6541    0.9559 H   0  0  0  0  0  0  0  0  0  0  0  0
   -4.3755   -3.3459   -0.0987 H   0  0  0  0  0  0  0  0  0  0  0  0
   -3.1810   -2.6711   -2.0954 H   0  0  0  0  0  0  0  0  0  0  0  0
   -1.8671   -3.1815   -1.0286 H   0  0  0  0  0  0  0  0  0  0  0  0
   -1.3262   -1.0421   -0.6014 H   0  0  0  0  0  0  0  0  0  0  0  0
    2.5176   -1.2761   -0.4829 H   0  0  0  0  0  0  0  0  0  0  0  0
  1  2  1  0
  2  3  1  0
  3  4  1  0
  4  5  2  0
  5  6  1  0
  6  7  1  0
  7  8  2  0
  8  9  1  0
  9 10  1  0
 10 11  1  0
 11 12  2  0
 11 13  1  0
 13 14  1  0
 14 15  1  0
 15 16  1  0
 16 17  1  0
 17 18  1  0
 18 19  1  0
 19 20  1  0
 20 21  1  0
  9 22  1  0
 22 23  2  0
 22 24  1  0
 24 25  1  0
 25  3  2  0
 24  6  2  0
 18 15  1  0
 21 15  1  0
  1 26  1  0
  1 27  1  0
  1 28  1  0
  4 29  1  0
  5 30  1  0
  7 31  1  0
 10 32  1  0
 10 33  1  0
 13 34  1  0
 14 35  1  0
 14 36  1  0
 16 37  1  0
 16 38  1  0
 17 39  1  0
 17 40  1  0
 18 41  1  0
 19 42  1  0
 19 43  1  0
 20 44  1  0
 20 45  1  0
 21 46  1  0
 25 47  1  0
M  END
$$$$
OCNT-2311822
     RDKit          3D

 48 51  0  0  0  0  0  0  0  0999 V2000
    2.9832    1.6599    1.5431 C   0  0  0  0  0  0  0  0  0  0  0  0
    3.6848    1.1635    0.3569 N   0  0  0  0  0  0  0  0  0  0  0  0
    4.3368    2.2815   -0.3306 C   0  0  0  0  0  0  0  0  0  0  0  0
    4.6844    0.1330    0.7116 C   0  0  0  0  0  0  0  0  0  0  0  0
    4.0783   -1.2575    0.9969 C   0  0  0  0  0  0  0  0  0  0  0  0
    3.5894   -1.9175   -0.1902 N   0  0  0  0  0  0  0  0  0  0  0  0
    4.3762   -2.5740   -1.1145 C   0  0  0  0  0  0  0  0  0  0  0  0
    5.5854   -2.7485   -1.0335 O   0  0  0  0  0  0  0  0  0  0  0  0
    3.6097   -3.0331   -2.1947 O   0  0  0  0  0  0  0  0  0  0  0  0
    2.3443   -2.5715   -1.8756 C   0  0  0  0  0  0  0  0  0  0  0  0
    1.2120   -2.7581   -2.6339 C   0  0  0  0  0  0  0  0  0  0  0  0
    0.0145   -2.2095   -2.1541 C   0  0  0  0  0  0  0  0  0  0  0  0
   -0.0354   -1.4617   -0.9541 C   0  0  0  0  0  0  0  0  0  0  0  0
   -1.2246   -0.9524   -0.4193 N   0  0  0  0  0  0  0  0  0  0  0  0
   -2.3680   -0.7199   -1.2896 C   0  0  0  0  0  0  0  0  0  0  0  0
   -3.4288    0.0346   -0.5197 C   0  0  0  0  0  0  0  0  0  0  0  0
   -3.6232    1.4018   -0.7294 C   0  0  0  0  0  0  0  0  0  0  0  0
   -4.5935    2.0970   -0.0011 C   0  0  0  0  0  0  0  0  0  0  0  0
   -4.7777    3.4413   -0.2198 O   0  0  0  0  0  0  0  0  0  0  0  0
   -5.3910    1.4386    0.9641 C   0  0  0  0  0  0  0  0  0  0  0  0
   -6.4326    1.9337    1.8214 C   0  0  0  0  0  0  0  0  0  0  0  0
   -6.9674    0.9621    2.6336 C   0  0  0  0  0  0  0  0  0  0  0  0
   -6.2295   -0.5541    2.3823 S   0  0  0  0  0  0  0  0  0  0  0  0
   -5.1771    0.0738    1.1696 C   0  0  0  0  0  0  0  0  0  0  0  0
   -4.2027   -0.6375    0.4416 C   0  0  0  0  0  0  0  0  0  0  0  0
    1.1398   -1.3351   -0.1921 C   0  0  0  0  0  0  0  0  0  0  0  0
    2.3056   -1.8861   -0.6819 C   0  0  0  0  0  0  0  0  0  0  0  0
    2.4516    0.8550    2.0593 H   0  0  0  0  0  0  0  0  0  0  0  0
    3.6647    2.1338    2.2590 H   0  0  0  0  0  0  0  0  0  0  0  0
    2.2227    2.3951    1.2562 H   0  0  0  0  0  0  0  0  0  0  0  0
    3.5999    3.0402   -0.6173 H   0  0  0  0  0  0  0  0  0  0  0  0
    5.1023    2.7595    0.2913 H   0  0  0  0  0  0  0  0  0  0  0  0
    4.8078    1.9403   -1.2593 H   0  0  0  0  0  0  0  0  0  0  0  0
    5.3979    0.0161   -0.1151 H   0  0  0  0  0  0  0  0  0  0  0  0
    5.2699    0.4585    1.5814 H   0  0  0  0  0  0  0  0  0  0  0  0
    3.2911   -1.2207    1.7564 H   0  0  0  0  0  0  0  0  0  0  0  0
    4.8771   -1.8881    1.4071 H   0  0  0  0  0  0  0  0  0  0  0  0
    1.2431   -3.3160   -3.5627 H   0  0  0  0  0  0  0  0  0  0  0  0
   -0.8853   -2.3801   -2.7387 H   0  0  0  0  0  0  0  0  0  0  0  0
   -1.0554   -0.1761    0.2166 H   0  0  0  0  0  0  0  0  0  0  0  0
   -2.0733   -0.1413   -2.1741 H   0  0  0  0  0  0  0  0  0  0  0  0
   -2.7948   -1.6679   -1.6390 H   0  0  0  0  0  0  0  0  0  0  0  0
   -3.0130    1.9235   -1.4621 H   0  0  0  0  0  0  0  0  0  0  0  0
   -4.1646    3.7362   -0.9121 H   0  0  0  0  0  0  0  0  0  0  0  0
   -6.7623    2.9656    1.8282 H   0  0  0  0  0  0  0  0  0  0  0  0
   -7.7568    1.0715    3.3643 H   0  0  0  0  0  0  0  0  0  0  0  0
   -4.0460   -1.6976    0.6301 H   0  0  0  0  0  0  0  0  0  0  0  0
    1.1304   -0.8121    0.7559 H   0  0  0  0  0  0  0  0  0  0  0  0
  1  2  1  0
  2  3  1  0
  2  4  1  0
  4  5  1  0
  5  6  1  0
  6  7  1  0
  7  8  2  0
  7  9  1  0
  9 10  1  0
 10 11  1  0
 11 12  2  0
 12 13  1  0
 13 14  1  0
 14 15  1  0
 15 16  1  0
 16 17  2  0
 17 18  1  0
 18 19  1  0
 18 20  2  0
 20 21  1  0
 21 22  2  0
 22 23  1  0
 23 24  1  0
 24 25  2  0
 13 26  2  0
 26 27  1  0
 27  6  1  0
 27 10  2  0
 25 16  1  0
 24 20  1  0
  1 28  1  0
  1 29  1  0
  1 30  1  0
  3 31  1  0
  3 32  1  0
  3 33  1  0
  4 34  1  0
  4 35  1  0
  5 36  1  0
  5 37  1  0
 11 38  1  0
 12 39  1  0
 14 40  1  0
 15 41  1  0
 15 42  1  0
 17 43  1  0
 19 44  1  0
 21 45  1  0
 22 46  1  0
 25 47  1  0
 26 48  1  0
M  END
$$$$
OCNT-2311831
     RDKit          3D

 59 60  0  0  0  0  0  0  0  0999 V2000
   -6.2504    4.2867   -1.1822 C   0  0  0  0  0  0  0  0  0  0  0  0
   -5.8752    3.1912   -0.3563 O   0  0  0  0  0  0  0  0  0  0  0  0
   -4.6680    2.6048   -0.6159 C   0  0  0  0  0  0  0  0  0  0  0  0
   -3.7485    3.0157   -1.5759 C   0  0  0  0  0  0  0  0  0  0  0  0
   -2.5328    2.3364   -1.7146 C   0  0  0  0  0  0  0  0  0  0  0  0
   -2.2219    1.2262   -0.9109 C   0  0  0  0  0  0  0  0  0  0  0  0
   -0.8793    0.5940   -1.1276 C   0  0  0  0  0  0  0  0  0  0  0  0
   -0.1594    0.9779   -2.0452 O   0  0  0  0  0  0  0  0  0  0  0  0
   -0.4999   -0.3974   -0.2546 N   0  0  0  0  0  0  0  0  0  0  0  0
    0.7789   -1.0858   -0.3254 C   0  0  0  0  0  0  0  0  0  0  0  0
    1.8434   -0.6349    0.7430 C   0  0  0  0  0  0  0  0  0  0  0  0
    1.1740   -0.7617    2.1394 C   0  0  0  0  0  0  0  0  0  0  0  0
    2.1815    0.8525    0.5152 C   0  0  0  0  0  0  0  0  0  0  0  0
    3.0327   -1.5394    0.7698 N   0  0  0  0  0  0  0  0  0  0  0  0
    4.2021   -1.0945    1.5602 C   0  0  0  0  0  0  0  0  0  0  0  0
    5.2753   -0.2744    0.7953 C   0  0  0  0  0  0  0  0  0  0  0  0
    5.6956   -0.9036   -0.4683 N   0  0  0  0  0  0  0  0  0  0  0  0
    6.6182   -0.0418   -1.2016 C   0  0  0  0  0  0  0  0  0  0  0  0
    4.5126   -1.2263   -1.2844 C   0  0  0  0  0  0  0  0  0  0  0  0
    3.5142   -2.1069   -0.5034 C   0  0  0  0  0  0  0  0  0  0  0  0
   -3.1746    0.7873    0.0237 C   0  0  0  0  0  0  0  0  0  0  0  0
   -2.8999   -0.2892    0.8309 O   0  0  0  0  0  0  0  0  0  0  0  0
   -3.8780   -1.3455    0.7872 C   0  0  0  0  0  0  0  0  0  0  0  0
   -3.6385   -2.2069    2.0244 C   0  0  0  0  0  0  0  0  0  0  0  0
   -3.7024   -2.1820   -0.4786 C   0  0  0  0  0  0  0  0  0  0  0  0
   -4.3704    1.5000    0.1865 C   0  0  0  0  0  0  0  0  0  0  0  0
   -5.5526    5.1221   -1.0714 H   0  0  0  0  0  0  0  0  0  0  0  0
   -6.3366    3.9783   -2.2286 H   0  0  0  0  0  0  0  0  0  0  0  0
   -7.2357    4.6307   -0.8544 H   0  0  0  0  0  0  0  0  0  0  0  0
   -3.9314    3.8675   -2.2223 H   0  0  0  0  0  0  0  0  0  0  0  0
   -1.8168    2.6886   -2.4571 H   0  0  0  0  0  0  0  0  0  0  0  0
   -1.1417   -0.6458    0.4920 H   0  0  0  0  0  0  0  0  0  0  0  0
    1.1772   -0.9508   -1.3371 H   0  0  0  0  0  0  0  0  0  0  0  0
    0.5463   -2.1497   -0.1929 H   0  0  0  0  0  0  0  0  0  0  0  0
    0.8633   -1.7949    2.3351 H   0  0  0  0  0  0  0  0  0  0  0  0
    1.8381   -0.4541    2.9535 H   0  0  0  0  0  0  0  0  0  0  0  0
    0.2842   -0.1277    2.2215 H   0  0  0  0  0  0  0  0  0  0  0  0
    2.6527    1.0171   -0.4576 H   0  0  0  0  0  0  0  0  0  0  0  0
    1.2805    1.4754    0.5475 H   0  0  0  0  0  0  0  0  0  0  0  0
    2.8390    1.2498    1.2951 H   0  0  0  0  0  0  0  0  0  0  0  0
    4.6916   -2.0035    1.9356 H   0  0  0  0  0  0  0  0  0  0  0  0
    3.9078   -0.5469    2.4604 H   0  0  0  0  0  0  0  0  0  0  0  0
    6.1490   -0.1722    1.4505 H   0  0  0  0  0  0  0  0  0  0  0  0
    4.9037    0.7382    0.6069 H   0  0  0  0  0  0  0  0  0  0  0  0
    7.5093    0.1664   -0.5986 H   0  0  0  0  0  0  0  0  0  0  0  0
    6.1614    0.9143   -1.4821 H   0  0  0  0  0  0  0  0  0  0  0  0
    6.9646   -0.5390   -2.1140 H   0  0  0  0  0  0  0  0  0  0  0  0
    4.0130   -0.3162   -1.6373 H   0  0  0  0  0  0  0  0  0  0  0  0
    4.8321   -1.7837   -2.1733 H   0  0  0  0  0  0  0  0  0  0  0  0
    2.7020   -2.4217   -1.1643 H   0  0  0  0  0  0  0  0  0  0  0  0
    4.0251   -3.0499   -0.2588 H   0  0  0  0  0  0  0  0  0  0  0  0
   -4.9024   -0.9609    0.8401 H   0  0  0  0  0  0  0  0  0  0  0  0
   -3.7491   -1.6061    2.9347 H   0  0  0  0  0  0  0  0  0  0  0  0
   -2.6181   -2.6063    2.0320 H   0  0  0  0  0  0  0  0  0  0  0  0
   -4.3437   -3.0434    2.0700 H   0  0  0  0  0  0  0  0  0  0  0  0
   -4.3834   -3.0389   -0.4812 H   0  0  0  0  0  0  0  0  0  0  0  0
   -3.9041   -1.5840   -1.3748 H   0  0  0  0  0  0  0  0  0  0  0  0
   -2.6744   -2.5508   -0.5685 H   0  0  0  0  0  0  0  0  0  0  0  0
   -5.0806    1.2156    0.9579 H   0  0  0  0  0  0  0  0  0  0  0  0
  1  2  1  0
  2  3  1  0
  3  4  1  0
  4  5  2  0
  5  6  1  0
  6  7  1  0
  7  8  2  0
  7  9  1  0
  9 10  1  0
 10 11  1  0
 11 12  1  0
 11 13  1  0
 11 14  1  0
 14 15  1  0
 15 16  1  0
 16 17  1  0
 17 18  1  0
 17 19  1  0
 19 20  1  0
  6 21  2  0
 21 22  1  0
 22 23  1  0
 23 24  1  0
 23 25  1  0
 21 26  1  0
 26  3  2  0
 20 14  1  0
  1 27  1  0
  1 28  1  0
  1 29  1  0
  4 30  1  0
  5 31  1  0
  9 32  1  0
 10 33  1  0
 10 34  1  0
 12 35  1  0
 12 36  1  0
 12 37  1  0
 13 38  1  0
 13 39  1  0
 13 40  1  0
 15 41  1  0
 15 42  1  0
 16 43  1  0
 16 44  1  0
 18 45  1  0
 18 46  1  0
 18 47  1  0
 19 48  1  0
 19 49  1  0
 20 50  1  0
 20 51  1  0
 23 52  1  0
 24 53  1  0
 24 54  1  0
 24 55  1  0
 25 56  1  0
 25 57  1  0
 25 58  1  0
 26 59  1  0
M  END
$$$$
OCNT-2311835
     RDKit          3D

 47 50  0  0  0  0  0  0  0  0999 V2000
   -6.3776   -2.0730   -2.3334 C   0  0  0  0  0  0  0  0  0  0  0  0
   -5.0809   -1.7511   -2.7064 C   0  0  0  0  0  0  0  0  0  0  0  0
   -4.2463   -1.0744   -1.8122 C   0  0  0  0  0  0  0  0  0  0  0  0
   -4.6771   -0.7025   -0.5146 C   0  0  0  0  0  0  0  0  0  0  0  0
   -6.0163   -1.0215   -0.1654 C   0  0  0  0  0  0  0  0  0  0  0  0
   -6.8427   -1.7068   -1.0725 C   0  0  0  0  0  0  0  0  0  0  0  0
   -6.5221   -0.6412    1.0827 C   0  0  0  0  0  0  0  0  0  0  0  0
   -5.7326    0.0664    1.9806 C   0  0  0  0  0  0  0  0  0  0  0  0
   -4.4149    0.3799    1.6533 C   0  0  0  0  0  0  0  0  0  0  0  0
   -3.8439   -0.0298    0.4370 C   0  0  0  0  0  0  0  0  0  0  0  0
   -2.5183    0.3066    0.0938 N   0  0  0  0  0  0  0  0  0  0  0  0
   -1.5874    0.7717    1.1124 C   0  0  0  0  0  0  0  0  0  0  0  0
   -0.2165    0.9232    0.4950 C   0  0  0  0  0  0  0  0  0  0  0  0
    0.8199    0.0351    0.8190 C   0  0  0  0  0  0  0  0  0  0  0  0
    2.0886    0.1616    0.2425 C   0  0  0  0  0  0  0  0  0  0  0  0
    2.9923   -0.7730    0.6651 O   0  0  0  0  0  0  0  0  0  0  0  0
    4.3184   -0.7372    0.1361 C   0  0  0  0  0  0  0  0  0  0  0  0
    5.1943    0.2199    0.9375 C   0  0  0  0  0  0  0  0  0  0  0  0
    6.5514    0.2587    0.4419 N   0  0  0  0  0  0  0  0  0  0  0  0
    7.0453    1.1198   -0.4966 C   0  0  0  0  0  0  0  0  0  0  0  0
    8.3675    0.7667   -0.6364 C   0  0  0  0  0  0  0  0  0  0  0  0
    8.6818   -0.2781    0.1939 N   0  0  0  0  0  0  0  0  0  0  0  0
    7.5711   -0.5574    0.8376 C   0  0  0  0  0  0  0  0  0  0  0  0
    2.3219    1.1869   -0.6733 C   0  0  0  0  0  0  0  0  0  0  0  0
    1.2955    2.0738   -1.0102 C   0  0  0  0  0  0  0  0  0  0  0  0
    0.0340    1.9425   -0.4318 C   0  0  0  0  0  0  0  0  0  0  0  0
   -7.0312   -2.5983   -3.0244 H   0  0  0  0  0  0  0  0  0  0  0  0
   -4.7139   -2.0186   -3.6937 H   0  0  0  0  0  0  0  0  0  0  0  0
   -3.2464   -0.8216   -2.1547 H   0  0  0  0  0  0  0  0  0  0  0  0
   -7.8671   -1.9556   -0.8030 H   0  0  0  0  0  0  0  0  0  0  0  0
   -7.5477   -0.8763    1.3588 H   0  0  0  0  0  0  0  0  0  0  0  0
   -6.1440    0.3798    2.9364 H   0  0  0  0  0  0  0  0  0  0  0  0
   -3.8432    0.9465    2.3812 H   0  0  0  0  0  0  0  0  0  0  0  0
   -2.1002   -0.4227   -0.4780 H   0  0  0  0  0  0  0  0  0  0  0  0
   -1.8943    1.7458    1.5123 H   0  0  0  0  0  0  0  0  0  0  0  0
   -1.5417    0.0620    1.9477 H   0  0  0  0  0  0  0  0  0  0  0  0
    0.6428   -0.7718    1.5277 H   0  0  0  0  0  0  0  0  0  0  0  0
    4.7166   -1.7542    0.2411 H   0  0  0  0  0  0  0  0  0  0  0  0
    4.3313   -0.5354   -0.9415 H   0  0  0  0  0  0  0  0  0  0  0  0
    4.7995    1.2416    0.9168 H   0  0  0  0  0  0  0  0  0  0  0  0
    5.2234   -0.0770    1.9927 H   0  0  0  0  0  0  0  0  0  0  0  0
    6.4462    1.8839   -0.9713 H   0  0  0  0  0  0  0  0  0  0  0  0
    9.1097    1.2092   -1.2883 H   0  0  0  0  0  0  0  0  0  0  0  0
    7.4554   -1.3317    1.5854 H   0  0  0  0  0  0  0  0  0  0  0  0
    3.2841    1.3301   -1.1517 H   0  0  0  0  0  0  0  0  0  0  0  0
    1.4778    2.8672   -1.7311 H   0  0  0  0  0  0  0  0  0  0  0  0
   -0.7623    2.6302   -0.7120 H   0  0  0  0  0  0  0  0  0  0  0  0
  1  2  2  0
  2  3  1  0
  3  4  2  0
  4  5  1  0
  5  6  2  0
  5  7  1  0
  7  8  2  0
  8  9  1  0
  9 10  2  0
 10 11  1  0
 11 12  1  0
 12 13  1  0
 13 14  1  0
 14 15  2  0
 15 16  1  0
 16 17  1  0
 17 18  1  0
 18 19  1  0
 19 20  1  0
 20 21  2  0
 21 22  1  0
 22 23  2  0
 15 24  1  0
 24 25  2  0
 25 26  1  0
  6  1  1  0
 26 13  2  0
 10  4  1  0
 23 19  1  0
  1 27  1  0
  2 28  1  0
  3 29  1  0
  6 30  1  0
  7 31  1  0
  8 32  1  0
  9 33  1  0
 11 34  1  0
 12 35  1  0
 12 36  1  0
 14 37  1  0
 17 38  1  0
 17 39  1  0
 18 40  1  0
 18 41  1  0
 20 42  1  0
 21 43  1  0
 23 44  1  0
 24 45  1  0
 25 46  1  0
 26 47  1  0
M  END
$$$$
OCNT-2311840
     RDKit          3D

 46 48  0  0  0  0  0  0  0  0999 V2000
   -2.6143    0.8346    3.1002 O   0  0  0  0  0  0  0  0  0  0  0  0
   -2.4960    0.8369    1.8785 C   0  0  0  0  0  0  0  0  0  0  0  0
   -3.4041    1.6495    0.9756 C   0  0  0  0  0  0  0  0  0  0  0  0
   -4.5810    0.8493    0.4860 C   0  0  0  0  0  0  0  0  0  0  0  0
   -5.8236    0.9161    1.1327 C   0  0  0  0  0  0  0  0  0  0  0  0
   -6.9022    0.1507    0.6765 C   0  0  0  0  0  0  0  0  0  0  0  0
   -6.7478   -0.6929   -0.4245 C   0  0  0  0  0  0  0  0  0  0  0  0
   -5.5136   -0.7699   -1.0595 C   0  0  0  0  0  0  0  0  0  0  0  0
   -5.3634   -1.5890   -2.1094 F   0  0  0  0  0  0  0  0  0  0  0  0
   -4.4401   -0.0102   -0.6078 C   0  0  0  0  0  0  0  0  0  0  0  0
   -3.2485   -0.1100   -1.2184 F   0  0  0  0  0  0  0  0  0  0  0  0
   -1.5380    0.1049    1.2083 N   0  0  0  0  0  0  0  0  0  0  0  0
   -0.6592   -0.8231    1.9155 C   0  0  0  0  0  0  0  0  0  0  0  0
    0.4517   -0.0792    2.6642 C   0  0  0  0  0  0  0  0  0  0  0  0
    1.4852    0.1922    1.5774 C   0  0  0  0  0  0  0  0  0  0  0  0
    1.3336   -0.9119    0.6408 N   0  0  0  0  0  0  0  0  0  0  0  0
    2.1521   -1.2258   -0.4182 C   0  0  0  0  0  0  0  0  0  0  0  0
    1.9311   -2.1883   -1.1508 O   0  0  0  0  0  0  0  0  0  0  0  0
    3.3456   -0.3201   -0.6284 C   0  0  0  0  0  0  0  0  0  0  0  0
    4.1218   -0.7268   -1.8741 C   0  0  0  0  0  0  0  0  0  0  0  0
    5.2808    0.1185   -2.0784 N   0  0  0  0  0  0  0  0  0  0  0  0
    5.3045    1.3138   -2.7395 C   0  0  0  0  0  0  0  0  0  0  0  0
    6.6105    1.7369   -2.6550 C   0  0  0  0  0  0  0  0  0  0  0  0
    7.3722    0.8291   -1.9650 N   0  0  0  0  0  0  0  0  0  0  0  0
    6.5470   -0.1406   -1.6399 C   0  0  0  0  0  0  0  0  0  0  0  0
    0.1487   -1.7004    0.9496 C   0  0  0  0  0  0  0  0  0  0  0  0
   -3.7402    2.5333    1.5311 H   0  0  0  0  0  0  0  0  0  0  0  0
   -2.8297    2.0376    0.1247 H   0  0  0  0  0  0  0  0  0  0  0  0
   -5.9580    1.5593    2.0016 H   0  0  0  0  0  0  0  0  0  0  0  0
   -7.8624    0.2091    1.1852 H   0  0  0  0  0  0  0  0  0  0  0  0
   -7.5771   -1.2931   -0.7848 H   0  0  0  0  0  0  0  0  0  0  0  0
   -1.6456   -0.0067    0.2039 H   0  0  0  0  0  0  0  0  0  0  0  0
   -1.2776   -1.4261    2.5888 H   0  0  0  0  0  0  0  0  0  0  0  0
    0.1301    0.8394    3.1630 H   0  0  0  0  0  0  0  0  0  0  0  0
    0.8864   -0.7436    3.4212 H   0  0  0  0  0  0  0  0  0  0  0  0
    2.5043    0.2357    1.9713 H   0  0  0  0  0  0  0  0  0  0  0  0
    1.2693    1.1221    1.0407 H   0  0  0  0  0  0  0  0  0  0  0  0
    2.9962    0.7140   -0.7263 H   0  0  0  0  0  0  0  0  0  0  0  0
    3.9947   -0.3838    0.2522 H   0  0  0  0  0  0  0  0  0  0  0  0
    4.4755   -1.7624   -1.8043 H   0  0  0  0  0  0  0  0  0  0  0  0
    3.4982   -0.6534   -2.7730 H   0  0  0  0  0  0  0  0  0  0  0  0
    4.4292    1.7512   -3.1983 H   0  0  0  0  0  0  0  0  0  0  0  0
    7.0434    2.6452   -3.0539 H   0  0  0  0  0  0  0  0  0  0  0  0
    6.8124   -1.0360   -1.0922 H   0  0  0  0  0  0  0  0  0  0  0  0
   -0.3928   -1.9700    0.0371 H   0  0  0  0  0  0  0  0  0  0  0  0
    0.4908   -2.6164    1.4447 H   0  0  0  0  0  0  0  0  0  0  0  0
  1  2  2  0
  2  3  1  0
  3  4  1  0
  4  5  2  0
  5  6  1  0
  6  7  2  0
  7  8  1  0
  8  9  1  0
  8 10  2  0
 10 11  1  0
  2 12  1  0
 12 13  1  0
 13 14  1  0
 14 15  1  0
 15 16  1  0
 16 17  1  0
 17 18  2  0
 17 19  1  0
 19 20  1  0
 20 21  1  0
 21 22  1  0
 22 23  2  0
 23 24  1  0
 24 25  2  0
 16 26  1  0
 10  4  1  0
 26 13  1  0
 25 21  1  0
  3 27  1  0
  3 28  1  0
  5 29  1  0
  6 30  1  0
  7 31  1  0
 12 32  1  0
 13 33  1  0
 14 34  1  0
 14 35  1  0
 15 36  1  0
 15 37  1  0
 19 38  1  0
 19 39  1  0
 20 40  1  0
 20 41  1  0
 22 42  1  0
 23 43  1  0
 25 44  1  0
 26 45  1  0
 26 46  1  0
M  END
$$$$
OCNT-2311844
     RDKit          3D

 46 48  0  0  0  0  0  0  0  0999 V2000
   -4.3904   -1.2067    0.1721 C   0  0  0  0  0  0  0  0  0  0  0  0
   -3.5665    0.0818    0.2971 C   0  0  2  0  0  0  0  0  0  0  0  0
   -3.7553    1.0106   -0.9224 C   0  0  0  0  0  0  0  0  0  0  0  0
   -3.0724    0.6301   -2.1173 O   0  0  0  0  0  0  0  0  0  0  0  0
   -2.0771   -0.3778   -1.9428 C   0  0  0  0  0  0  0  0  0  0  0  0
   -1.2529   -0.2693   -0.6218 C   0  0  1  0  0  0  0  0  0  0  0  0
   -0.2751   -1.4867   -0.5934 C   0  0  0  0  0  0  0  0  0  0  0  0
   -0.9439   -2.7391   -0.7326 O   0  0  0  0  0  0  0  0  0  0  0  0
   -0.3854    1.0333   -0.7272 C   0  0  0  0  0  0  0  0  0  0  0  0
    0.2928    1.3146    0.5540 N   0  0  0  0  0  0  0  0  0  0  0  0
    1.5436    2.4284    0.5736 S   0  0  0  0  0  0  0  0  0  0  0  0
    1.2833    3.4085   -0.4564 O   0  0  0  0  0  0  0  0  0  0  0  0
    1.7472    2.8037    1.9541 O   0  0  0  0  0  0  0  0  0  0  0  0
    2.9280    1.4358    0.0843 C   0  0  0  0  0  0  0  0  0  0  0  0
    3.6200    1.7578   -1.1006 C   0  0  0  0  0  0  0  0  0  0  0  0
    4.6987    0.9806   -1.5284 C   0  0  0  0  0  0  0  0  0  0  0  0
    5.1088   -0.1287   -0.7903 C   0  0  0  0  0  0  0  0  0  0  0  0
    6.1404   -0.8711   -1.2099 F   0  0  0  0  0  0  0  0  0  0  0  0
    4.4138   -0.4272    0.3793 C   0  0  0  0  0  0  0  0  0  0  0  0
    3.3357    0.3211    0.8464 C   0  0  0  0  0  0  0  0  0  0  0  0
    2.9320   -0.3128    2.0555 C   0  0  0  0  0  0  0  0  0  0  0  0
    3.7708   -1.3877    2.2361 C   0  0  0  0  0  0  0  0  0  0  0  0
    4.6703   -1.4661    1.2228 O   0  0  0  0  0  0  0  0  0  0  0  0
   -2.1397   -0.1377    0.5784 N   0  0  0  0  0  0  0  0  0  0  0  0
   -1.8508   -0.8876    1.7865 C   0  0  0  0  0  0  0  0  0  0  0  0
   -4.0142   -1.8870   -0.5942 H   0  0  0  0  0  0  0  0  0  0  0  0
   -4.4064   -1.7553    1.1200 H   0  0  0  0  0  0  0  0  0  0  0  0
   -5.4311   -0.9713   -0.0769 H   0  0  0  0  0  0  0  0  0  0  0  0
   -3.9887    0.6286    1.1515 H   0  0  0  0  0  0  0  0  0  0  0  0
   -4.8181    1.1124   -1.1686 H   0  0  0  0  0  0  0  0  0  0  0  0
   -3.4046    2.0178   -0.6662 H   0  0  0  0  0  0  0  0  0  0  0  0
   -1.4076   -0.3087   -2.8090 H   0  0  0  0  0  0  0  0  0  0  0  0
   -2.5746   -1.3476   -2.0353 H   0  0  0  0  0  0  0  0  0  0  0  0
    0.4336   -1.4209   -1.4272 H   0  0  0  0  0  0  0  0  0  0  0  0
    0.3274   -1.5184    0.3194 H   0  0  0  0  0  0  0  0  0  0  0  0
   -1.7127   -2.7346   -0.1391 H   0  0  0  0  0  0  0  0  0  0  0  0
    0.3548    0.9271   -1.5287 H   0  0  0  0  0  0  0  0  0  0  0  0
   -1.0178    1.8959   -0.9652 H   0  0  0  0  0  0  0  0  0  0  0  0
   -0.3325    1.4033    1.3573 H   0  0  0  0  0  0  0  0  0  0  0  0
    3.3195    2.6189   -1.6967 H   0  0  0  0  0  0  0  0  0  0  0  0
    5.2301    1.2328   -2.4425 H   0  0  0  0  0  0  0  0  0  0  0  0
    2.1318   -0.0161    2.7197 H   0  0  0  0  0  0  0  0  0  0  0  0
    3.8576   -2.1520    2.9964 H   0  0  0  0  0  0  0  0  0  0  0  0
   -2.4371   -0.4956    2.6258 H   0  0  0  0  0  0  0  0  0  0  0  0
   -2.0816   -1.9520    1.6967 H   0  0  0  0  0  0  0  0  0  0  0  0
   -0.8040   -0.7850    2.0882 H   0  0  0  0  0  0  0  0  0  0  0  0
  1  2  1  0
  2  3  1  0
  3  4  1  0
  4  5  1  0
  5  6  1  0
  6  7  1  1
  7  8  1  0
  6  9  1  0
  9 10  1  0
 10 11  1  0
 11 12  2  0
 11 13  2  0
 11 14  1  0
 14 15  1  0
 15 16  2  0
 16 17  1  0
 17 18  1  0
 17 19  2  0
 19 20  1  0
 20 21  1  0
 21 22  2  0
 22 23  1  0
  6 24  1  0
 24 25  1  0
 24  2  1  0
 20 14  2  0
 23 19  1  0
  1 26  1  0
  1 27  1  0
  1 28  1  0
  2 29  1  1
  3 30  1  0
  3 31  1  0
  5 32  1  0
  5 33  1  0
  7 34  1  0
  7 35  1  0
  8 36  1  0
  9 37  1  0
  9 38  1  0
 10 39  1  0
 15 40  1  0
 16 41  1  0
 21 42  1  0
 22 43  1  0
 25 44  1  0
 25 45  1  0
 25 46  1  0
M  END
$$$$
OCNT-2311856
     RDKit          3D

 42 44  0  0  0  0  0  0  0  0999 V2000
    3.6349    0.5129    2.6590 C   0  0  0  0  0  0  0  0  0  0  0  0
    3.4807   -0.0413    1.3310 N   0  0  0  0  0  0  0  0  0  0  0  0
    2.7616   -1.1703    1.0337 C   0  0  0  0  0  0  0  0  0  0  0  0
    2.7938   -1.3643   -0.3363 C   0  0  0  0  0  0  0  0  0  0  0  0
    2.1218   -2.4523   -1.1046 C   0  0  0  0  0  0  0  0  0  0  0  0
    1.0484   -1.9133   -1.9473 N   0  0  0  0  0  0  0  0  0  0  0  0
   -0.1419   -1.5132   -1.1796 C   0  0  0  0  0  0  0  0  0  0  0  0
   -0.2145    0.0025   -0.9375 C   0  0  0  0  0  0  0  0  0  0  0  0
   -1.4715    0.3994   -0.2164 C   0  0  0  0  0  0  0  0  0  0  0  0
   -1.6310    0.5438    1.1558 C   0  0  0  0  0  0  0  0  0  0  0  0
   -0.6890    0.3601    2.2855 C   0  0  0  0  0  0  0  0  0  0  0  0
   -1.2813    0.6405    3.4767 F   0  0  0  0  0  0  0  0  0  0  0  0
   -0.2387   -0.9162    2.3671 F   0  0  0  0  0  0  0  0  0  0  0  0
    0.3979    1.1645    2.1920 F   0  0  0  0  0  0  0  0  0  0  0  0
   -2.9320    0.9203    1.3857 N   0  0  0  0  0  0  0  0  0  0  0  0
   -3.6250    1.0168    0.2041 C   0  0  0  0  0  0  0  0  0  0  0  0
   -4.9615    1.3610   -0.0309 C   0  0  0  0  0  0  0  0  0  0  0  0
   -5.4016    1.3806   -1.3574 C   0  0  0  0  0  0  0  0  0  0  0  0
   -4.5376    1.0688   -2.4039 C   0  0  0  0  0  0  0  0  0  0  0  0
   -3.2044    0.7270   -2.1499 C   0  0  0  0  0  0  0  0  0  0  0  0
   -2.7353    0.6991   -0.8205 C   0  0  0  0  0  0  0  0  0  0  0  0
    3.6046   -0.3180   -0.8678 C   0  0  0  0  0  0  0  0  0  0  0  0
    4.0124    0.4833    0.1793 C   0  0  0  0  0  0  0  0  0  0  0  0
    4.8255    1.6497    0.1065 C   0  0  0  0  0  0  0  0  0  0  0  0
    5.4901    2.6001    0.0772 N   0  0  0  0  0  0  0  0  0  0  0  0
    4.6964    0.4964    2.9187 H   0  0  0  0  0  0  0  0  0  0  0  0
    3.0688   -0.0898    3.3739 H   0  0  0  0  0  0  0  0  0  0  0  0
    3.2504    1.5360    2.6549 H   0  0  0  0  0  0  0  0  0  0  0  0
    2.2609   -1.7355    1.8104 H   0  0  0  0  0  0  0  0  0  0  0  0
    1.7482   -3.2427   -0.4427 H   0  0  0  0  0  0  0  0  0  0  0  0
    2.8683   -2.9214   -1.7571 H   0  0  0  0  0  0  0  0  0  0  0  0
    0.7713   -2.6609   -2.5830 H   0  0  0  0  0  0  0  0  0  0  0  0
   -0.2291   -2.0703   -0.2381 H   0  0  0  0  0  0  0  0  0  0  0  0
   -1.0211   -1.8033   -1.7702 H   0  0  0  0  0  0  0  0  0  0  0  0
    0.6452    0.3511   -0.3585 H   0  0  0  0  0  0  0  0  0  0  0  0
   -0.1678    0.5318   -1.8979 H   0  0  0  0  0  0  0  0  0  0  0  0
   -3.3295    1.1005    2.2992 H   0  0  0  0  0  0  0  0  0  0  0  0
   -5.6376    1.6066    0.7815 H   0  0  0  0  0  0  0  0  0  0  0  0
   -6.4340    1.6453   -1.5747 H   0  0  0  0  0  0  0  0  0  0  0  0
   -4.8991    1.0923   -3.4291 H   0  0  0  0  0  0  0  0  0  0  0  0
   -2.5393    0.4881   -2.9748 H   0  0  0  0  0  0  0  0  0  0  0  0
    3.8416   -0.1658   -1.9142 H   0  0  0  0  0  0  0  0  0  0  0  0
  1  2  1  0
  2  3  1  0
  3  4  2  0
  4  5  1  0
  5  6  1  0
  6  7  1  0
  7  8  1  0
  8  9  1  0
  9 10  2  0
 10 11  1  0
 11 12  1  0
 11 13  1  0
 11 14  1  0
 10 15  1  0
 15 16  1  0
 16 17  2  0
 17 18  1  0
 18 19  2  0
 19 20  1  0
 20 21  2  0
  4 22  1  0
 22 23  2  0
 23 24  1  0
 24 25  3  0
 23  2  1  0
 21  9  1  0
 21 16  1  0
  1 26  1  0
  1 27  1  0
  1 28  1  0
  3 29  1  0
  5 30  1  0
  5 31  1  0
  6 32  1  0
  7 33  1  0
  7 34  1  0
  8 35  1  0
  8 36  1  0
 15 37  1  0
 17 38  1  0
 18 39  1  0
 19 40  1  0
 20 41  1  0
 22 42  1  0
M  END
$$$$
OCNT-2311864
     RDKit          3D

 43 45  0  0  0  0  0  0  0  0999 V2000
   -0.2549   -2.3021   -3.5750 N   0  0  0  0  0  0  0  0  0  0  0  0
    0.0644   -1.6076   -2.7001 C   0  0  0  0  0  0  0  0  0  0  0  0
    0.5329   -0.7585   -1.6394 C   0  0  0  0  0  0  0  0  0  0  0  0
    1.8907   -0.4076   -1.6164 C   0  0  0  0  0  0  0  0  0  0  0  0
    2.3786    0.4066   -0.5920 C   0  0  0  0  0  0  0  0  0  0  0  0
    4.0965    0.8495   -0.5836 S   0  0  0  0  0  0  0  0  0  0  0  0
    4.4782    1.1269   -1.9481 O   0  0  0  0  0  0  0  0  0  0  0  0
    4.3247    1.7821    0.4942 O   0  0  0  0  0  0  0  0  0  0  0  0
    4.8127   -0.6125   -0.1779 N   0  0  0  0  0  0  0  0  0  0  0  0
    5.0659   -0.8961    1.2621 C   0  0  0  0  0  0  0  0  0  0  0  0
    6.4503   -0.4553    1.7504 C   0  0  0  0  0  0  0  0  0  0  0  0
    7.4162   -1.0190    0.9850 F   0  0  0  0  0  0  0  0  0  0  0  0
    6.6541   -0.8644    3.0236 F   0  0  0  0  0  0  0  0  0  0  0  0
    6.6246    0.8778    1.7132 F   0  0  0  0  0  0  0  0  0  0  0  0
    1.5254    0.8904    0.3985 C   0  0  0  0  0  0  0  0  0  0  0  0
    0.1733    0.5405    0.3701 C   0  0  0  0  0  0  0  0  0  0  0  0
   -0.3466   -0.2891   -0.6407 C   0  0  0  0  0  0  0  0  0  0  0  0
   -1.6994   -0.6405   -0.6733 N   0  0  0  0  0  0  0  0  0  0  0  0
   -2.1803   -1.4608    0.4489 C   0  0  0  0  0  0  0  0  0  0  0  0
   -3.6958   -1.2898    0.3913 C   0  0  0  0  0  0  0  0  0  0  0  0
   -3.8353    0.1808    0.0194 C   0  0  0  0  0  0  0  0  0  0  0  0
   -3.9708    1.1651    1.2236 C   0  0  0  0  0  0  0  0  0  0  0  0
   -4.9613    1.9767    0.3655 C   0  0  0  0  0  0  0  0  0  0  0  0
   -5.2359    0.6848   -0.4292 C   0  0  0  0  0  0  0  0  0  0  0  0
   -2.6496    0.4650   -0.9172 C   0  0  0  0  0  0  0  0  0  0  0  0
    2.5622   -0.7668   -2.3952 H   0  0  0  0  0  0  0  0  0  0  0  0
    5.5365   -0.8952   -0.8435 H   0  0  0  0  0  0  0  0  0  0  0  0
    4.2799   -0.4593    1.8867 H   0  0  0  0  0  0  0  0  0  0  0  0
    4.9864   -1.9825    1.3850 H   0  0  0  0  0  0  0  0  0  0  0  0
    1.8948    1.5414    1.1882 H   0  0  0  0  0  0  0  0  0  0  0  0
   -0.4833    0.9292    1.1457 H   0  0  0  0  0  0  0  0  0  0  0  0
   -1.8058   -1.0958    1.4131 H   0  0  0  0  0  0  0  0  0  0  0  0
   -1.8898   -2.5098    0.3311 H   0  0  0  0  0  0  0  0  0  0  0  0
   -4.1128   -1.9223   -0.4018 H   0  0  0  0  0  0  0  0  0  0  0  0
   -4.1814   -1.5561    1.3345 H   0  0  0  0  0  0  0  0  0  0  0  0
   -3.0657    1.6973    1.5289 H   0  0  0  0  0  0  0  0  0  0  0  0
   -4.4338    0.7280    2.1167 H   0  0  0  0  0  0  0  0  0  0  0  0
   -5.8176    2.3974    0.8986 H   0  0  0  0  0  0  0  0  0  0  0  0
   -4.4880    2.7678   -0.2271 H   0  0  0  0  0  0  0  0  0  0  0  0
   -6.0712    0.0977   -0.0290 H   0  0  0  0  0  0  0  0  0  0  0  0
   -5.3846    0.8164   -1.5042 H   0  0  0  0  0  0  0  0  0  0  0  0
   -2.9645    0.4108   -1.9657 H   0  0  0  0  0  0  0  0  0  0  0  0
   -2.2200    1.4588   -0.7452 H   0  0  0  0  0  0  0  0  0  0  0  0
  1  2  3  0
  2  3  1  0
  3  4  1  0
  4  5  2  0
  5  6  1  0
  6  7  2  0
  6  8  2  0
  6  9  1  0
  9 10  1  0
 10 11  1  0
 11 12  1  0
 11 13  1  0
 11 14  1  0
  5 15  1  0
 15 16  2  0
 16 17  1  0
 17 18  1  0
 18 19  1  0
 19 20  1  0
 20 21  1  0
 21 22  1  0
 22 23  1  0
 23 24  1  0
 21 25  1  0
 17  3  2  0
 25 18  1  0
 24 21  1  0
  4 26  1  0
  9 27  1  0
 10 28  1  0
 10 29  1  0
 15 30  1  0
 16 31  1  0
 19 32  1  0
 19 33  1  0
 20 34  1  0
 20 35  1  0
 22 36  1  0
 22 37  1  0
 23 38  1  0
 23 39  1  0
 24 40  1  0
 24 41  1  0
 25 42  1  0
 25 43  1  0
M  END
$$$$
OCNT-2311870
     RDKit          3D

 45 47  0  0  0  0  0  0  0  0999 V2000
   -5.6412    1.8275   -2.4542 C   0  0  0  0  0  0  0  0  0  0  0  0
   -4.2608    1.8993   -2.1207 O   0  0  0  0  0  0  0  0  0  0  0  0
   -3.8250    1.0844   -1.1131 C   0  0  0  0  0  0  0  0  0  0  0  0
   -4.6125    0.2099   -0.3693 C   0  0  0  0  0  0  0  0  0  0  0  0
   -4.0322   -0.5796    0.6278 C   0  0  0  0  0  0  0  0  0  0  0  0
   -2.6567   -0.5113    0.8930 C   0  0  0  0  0  0  0  0  0  0  0  0
   -2.0851   -1.3652    1.9976 C   0  0  0  0  0  0  0  0  0  0  0  0
   -0.5651   -1.4877    1.9386 C   0  0  0  0  0  0  0  0  0  0  0  0
    0.0691   -0.1174    1.7275 C   0  0  0  0  0  0  0  0  0  0  0  0
   -0.3648    0.5048    0.3905 C   0  0  1  0  0  0  0  0  0  0  0  0
    0.3542   -0.1567   -0.6988 N   0  0  0  0  0  0  0  0  0  0  0  0
    1.5399    0.6234   -1.5583 S   0  0  0  0  0  0  0  0  0  0  0  0
    1.8678   -0.2007   -2.7020 O   0  0  0  0  0  0  0  0  0  0  0  0
    1.1532    2.0082   -1.7176 O   0  0  0  0  0  0  0  0  0  0  0  0
    2.9334    0.5544   -0.4693 C   0  0  0  0  0  0  0  0  0  0  0  0
    3.4520    1.7476    0.0438 C   0  0  0  0  0  0  0  0  0  0  0  0
    4.5513    1.6966    0.8908 C   0  0  0  0  0  0  0  0  0  0  0  0
    5.0485    2.8337    1.3925 F   0  0  0  0  0  0  0  0  0  0  0  0
    5.1396    0.4844    1.2338 C   0  0  0  0  0  0  0  0  0  0  0  0
    4.6242   -0.7047    0.7167 C   0  0  0  0  0  0  0  0  0  0  0  0
    3.5316   -0.6723   -0.1554 C   0  0  0  0  0  0  0  0  0  0  0  0
    2.9956   -1.8540   -0.5864 O   0  0  0  0  0  0  0  0  0  0  0  0
    3.7841   -2.4387   -1.6225 C   0  0  0  0  0  0  0  0  0  0  0  0
    4.8963   -2.9843   -1.0662 F   0  0  0  0  0  0  0  0  0  0  0  0
    3.0688   -3.4701   -2.1369 F   0  0  0  0  0  0  0  0  0  0  0  0
   -1.8596    0.3886    0.1636 C   0  0  0  0  0  0  0  0  0  0  0  0
   -2.4572    1.1695   -0.8418 C   0  0  0  0  0  0  0  0  0  0  0  0
   -6.2666    2.1516   -1.6156 H   0  0  0  0  0  0  0  0  0  0  0  0
   -5.9168    0.8218   -2.7880 H   0  0  0  0  0  0  0  0  0  0  0  0
   -5.8197    2.5137   -3.2878 H   0  0  0  0  0  0  0  0  0  0  0  0
   -5.6800    0.1154   -0.5369 H   0  0  0  0  0  0  0  0  0  0  0  0
   -4.6659   -1.2548    1.1993 H   0  0  0  0  0  0  0  0  0  0  0  0
   -2.3763   -0.9184    2.9565 H   0  0  0  0  0  0  0  0  0  0  0  0
   -2.5209   -2.3703    1.9554 H   0  0  0  0  0  0  0  0  0  0  0  0
   -0.1976   -1.9323    2.8713 H   0  0  0  0  0  0  0  0  0  0  0  0
   -0.2739   -2.1648    1.1271 H   0  0  0  0  0  0  0  0  0  0  0  0
    1.1596   -0.2034    1.7847 H   0  0  0  0  0  0  0  0  0  0  0  0
   -0.2372    0.5435    2.5499 H   0  0  0  0  0  0  0  0  0  0  0  0
   -0.1047    1.5690    0.4360 H   0  0  0  0  0  0  0  0  0  0  0  0
   -0.0376   -1.0005   -1.1142 H   0  0  0  0  0  0  0  0  0  0  0  0
    3.0158    2.7127   -0.2010 H   0  0  0  0  0  0  0  0  0  0  0  0
    5.9895    0.4726    1.9088 H   0  0  0  0  0  0  0  0  0  0  0  0
    5.0691   -1.6537    1.0075 H   0  0  0  0  0  0  0  0  0  0  0  0
    4.0598   -1.7449   -2.4241 H   0  0  0  0  0  0  0  0  0  0  0  0
   -1.8463    1.8536   -1.4301 H   0  0  0  0  0  0  0  0  0  0  0  0
  1  2  1  0
  2  3  1  0
  3  4  1  0
  4  5  2  0
  5  6  1  0
  6  7  1  0
  7  8  1  0
  8  9  1  0
  9 10  1  0
 10 11  1  0
 11 12  1  0
 12 13  2  0
 12 14  2  0
 12 15  1  0
 15 16  1  0
 16 17  2  0
 17 18  1  0
 17 19  1  0
 19 20  2  0
 20 21  1  0
 21 22  1  0
 22 23  1  0
 23 24  1  0
 23 25  1  0
 10 26  1  0
 26 27  1  0
 27  3  2  0
 26  6  2  0
 21 15  2  0
  1 28  1  0
  1 29  1  0
  1 30  1  0
  4 31  1  0
  5 32  1  0
  7 33  1  0
  7 34  1  0
  8 35  1  0
  8 36  1  0
  9 37  1  0
  9 38  1  0
 10 39  1  1
 11 40  1  0
 16 41  1  0
 19 42  1  0
 20 43  1  0
 23 44  1  0
 27 45  1  0
M  END
$$$$
OCNT-2311871
     RDKit          3D

 52 54  0  0  0  0  0  0  0  0999 V2000
   -6.3790    0.8710   -1.7380 C   0  0  0  0  0  0  0  0  0  0  0  0
   -4.9671    0.5826   -1.3271 C   0  0  0  0  0  0  0  0  0  0  0  0
   -4.4662   -0.7110   -1.3649 C   0  0  0  0  0  0  0  0  0  0  0  0
   -3.1604   -0.9778   -0.9400 C   0  0  0  0  0  0  0  0  0  0  0  0
   -2.2997    0.0252   -0.4379 C   0  0  0  0  0  0  0  0  0  0  0  0
   -0.8602   -0.3616    0.0145 C   0  0  0  0  0  0  0  0  0  0  0  0
    0.1177    0.0845   -1.1107 C   0  0  0  0  0  0  0  0  0  0  0  0
    1.5307   -0.0119   -0.7756 N   0  0  0  0  0  0  0  0  0  0  0  0
    2.3391   -1.0293   -1.2441 C   0  0  0  0  0  0  0  0  0  0  0  0
    1.9173   -1.9300   -1.9647 O   0  0  0  0  0  0  0  0  0  0  0  0
    3.8105   -0.9654   -0.7972 C   0  0  2  0  0  0  0  0  0  0  0  0
    3.9226   -0.6786    0.6679 N   0  0  0  0  0  0  0  0  0  0  0  0
    4.4673    0.6780    0.8085 C   0  0  0  0  0  0  0  0  0  0  0  0
    5.3991    0.7927   -0.3893 C   0  0  1  0  0  0  0  0  0  0  0  0
    6.5907    0.0185   -0.1680 O   0  0  0  0  0  0  0  0  0  0  0  0
    4.5850    0.1500   -1.5146 C   0  0  1  0  0  0  0  0  0  0  0  0
    5.4553   -0.3432   -2.5300 O   0  0  0  0  0  0  0  0  0  0  0  0
   -0.6497   -1.8778    0.3207 C   0  0  0  0  0  0  0  0  0  0  0  0
   -1.3196   -2.1188    1.6717 C   0  0  0  0  0  0  0  0  0  0  0  0
   -1.2487   -0.7774    2.3938 C   0  0  0  0  0  0  0  0  0  0  0  0
   -0.5205    0.1670    1.4343 C   0  0  0  0  0  0  0  0  0  0  0  0
   -2.8071    1.3526   -0.4346 C   0  0  0  0  0  0  0  0  0  0  0  0
   -2.0567    2.5778    0.0221 C   0  0  0  0  0  0  0  0  0  0  0  0
   -4.1381    1.5979   -0.8506 C   0  0  0  0  0  0  0  0  0  0  0  0
   -6.6997    0.1926   -2.5357 H   0  0  0  0  0  0  0  0  0  0  0  0
   -6.4744    1.8917   -2.1231 H   0  0  0  0  0  0  0  0  0  0  0  0
   -7.0499    0.7526   -0.8814 H   0  0  0  0  0  0  0  0  0  0  0  0
   -5.0833   -1.5308   -1.7262 H   0  0  0  0  0  0  0  0  0  0  0  0
   -2.8444   -2.0134   -1.0192 H   0  0  0  0  0  0  0  0  0  0  0  0
   -0.0364    1.1299   -1.3903 H   0  0  0  0  0  0  0  0  0  0  0  0
   -0.0775   -0.5020   -2.0174 H   0  0  0  0  0  0  0  0  0  0  0  0
    1.9274    0.7104   -0.1948 H   0  0  0  0  0  0  0  0  0  0  0  0
    4.2543   -1.9500   -0.9853 H   0  0  0  0  0  0  0  0  0  0  0  0
    3.0242   -0.7969    1.1366 H   0  0  0  0  0  0  0  0  0  0  0  0
    4.9976    0.7720    1.7605 H   0  0  0  0  0  0  0  0  0  0  0  0
    3.6720    1.4282    0.7628 H   0  0  0  0  0  0  0  0  0  0  0  0
    5.6979    1.8191   -0.6177 H   0  0  0  0  0  0  0  0  0  0  0  0
    6.3085   -0.7659    0.3461 H   0  0  0  0  0  0  0  0  0  0  0  0
    3.9085    0.8858   -1.9638 H   0  0  0  0  0  0  0  0  0  0  0  0
    6.3173   -0.5030   -2.0918 H   0  0  0  0  0  0  0  0  0  0  0  0
   -0.9933   -2.5664   -0.4543 H   0  0  0  0  0  0  0  0  0  0  0  0
    0.4185   -2.0961    0.4494 H   0  0  0  0  0  0  0  0  0  0  0  0
   -0.8078   -2.9082    2.2316 H   0  0  0  0  0  0  0  0  0  0  0  0
   -2.3629   -2.4286    1.5482 H   0  0  0  0  0  0  0  0  0  0  0  0
   -0.7218   -0.8566    3.3500 H   0  0  0  0  0  0  0  0  0  0  0  0
   -2.2598   -0.4099    2.6035 H   0  0  0  0  0  0  0  0  0  0  0  0
   -0.7876    1.1996    1.6468 H   0  0  0  0  0  0  0  0  0  0  0  0
    0.5562    0.0859    1.6313 H   0  0  0  0  0  0  0  0  0  0  0  0
   -0.9767    2.4911   -0.0965 H   0  0  0  0  0  0  0  0  0  0  0  0
   -2.3485    3.4510   -0.5734 H   0  0  0  0  0  0  0  0  0  0  0  0
   -2.2905    2.7887    1.0705 H   0  0  0  0  0  0  0  0  0  0  0  0
   -4.5302    2.6141   -0.8085 H   0  0  0  0  0  0  0  0  0  0  0  0
  1  2  1  0
  2  3  1  0
  3  4  2  0
  4  5  1  0
  5  6  1  0
  6  7  1  0
  7  8  1  0
  8  9  1  0
  9 10  2  0
  9 11  1  0
 11 12  1  0
 12 13  1  0
 13 14  1  0
 14 15  1  0
 14 16  1  0
 16 17  1  0
  6 18  1  0
 18 19  1  0
 19 20  1  0
 20 21  1  0
  5 22  2  0
 22 23  1  0
 22 24  1  0
 24  2  2  0
 21  6  1  0
 16 11  1  0
  1 25  1  0
  1 26  1  0
  1 27  1  0
  3 28  1  0
  4 29  1  0
  7 30  1  0
  7 31  1  0
  8 32  1  0
 11 33  1  1
 12 34  1  0
 13 35  1  0
 13 36  1  0
 14 37  1  6
 15 38  1  0
 16 39  1  6
 17 40  1  0
 18 41  1  0
 18 42  1  0
 19 43  1  0
 19 44  1  0
 20 45  1  0
 20 46  1  0
 21 47  1  0
 21 48  1  0
 23 49  1  0
 23 50  1  0
 23 51  1  0
 24 52  1  0
M  END
$$$$
OCNT-2311875
     RDKit          3D

 52 54  0  0  0  0  0  0  0  0999 V2000
   -5.5063    0.1374    0.7551 C   0  0  0  0  0  0  0  0  0  0  0  0
   -4.2006    0.3754   -0.0114 C   0  0  0  0  0  0  0  0  0  0  0  0
   -3.6961    1.7971    0.2810 C   0  0  0  0  0  0  0  0  0  0  0  0
   -3.1437   -0.6839    0.3572 C   0  0  0  0  0  0  0  0  0  0  0  0
   -2.5256   -1.1022   -0.9803 C   0  0  0  0  0  0  0  0  0  0  0  0
   -2.0113   -2.5464   -0.9613 C   0  0  0  0  0  0  0  0  0  0  0  0
   -1.3770   -0.1681   -1.4010 C   0  0  0  0  0  0  0  0  0  0  0  0
   -1.3784    0.4636   -2.4538 O   0  0  0  0  0  0  0  0  0  0  0  0
   -0.3379   -0.0936   -0.5021 N   0  0  0  0  0  0  0  0  0  0  0  0
    0.8570    0.6761   -0.7771 C   0  0  0  0  0  0  0  0  0  0  0  0
    1.4931    1.1398    0.5129 C   0  0  0  0  0  0  0  0  0  0  0  0
    0.8032    2.1090    1.2717 C   0  0  0  0  0  0  0  0  0  0  0  0
    1.3064    2.5601    2.4875 C   0  0  0  0  0  0  0  0  0  0  0  0
    2.5076    2.0504    2.9607 C   0  0  0  0  0  0  0  0  0  0  0  0
    3.2005    1.0889    2.2192 C   0  0  0  0  0  0  0  0  0  0  0  0
    2.7102    0.6079    0.9920 C   0  0  0  0  0  0  0  0  0  0  0  0
    3.4123   -0.3284    0.2312 N   0  0  0  0  0  0  0  0  0  0  0  0
    4.0603   -1.4693    0.8881 C   0  0  0  0  0  0  0  0  0  0  0  0
    5.0870   -1.9241   -0.1429 C   0  0  0  0  0  0  0  0  0  0  0  0
    5.5957   -0.6002   -0.6888 C   0  0  0  0  0  0  0  0  0  0  0  0
    4.3374    0.2656   -0.7553 C   0  0  0  0  0  0  0  0  0  0  0  0
   -3.7243   -0.9649   -1.9180 C   0  0  0  0  0  0  0  0  0  0  0  0
   -4.4631    0.2232   -1.4584 N   0  0  0  0  0  0  0  0  0  0  0  0
   -5.3459    0.2265    1.8357 H   0  0  0  0  0  0  0  0  0  0  0  0
   -5.9131   -0.8617    0.5620 H   0  0  0  0  0  0  0  0  0  0  0  0
   -6.2745    0.8665    0.4716 H   0  0  0  0  0  0  0  0  0  0  0  0
   -3.4654    1.9237    1.3445 H   0  0  0  0  0  0  0  0  0  0  0  0
   -2.7862    2.0299   -0.2813 H   0  0  0  0  0  0  0  0  0  0  0  0
   -4.4497    2.5471    0.0138 H   0  0  0  0  0  0  0  0  0  0  0  0
   -3.6243   -1.5536    0.8258 H   0  0  0  0  0  0  0  0  0  0  0  0
   -2.4105   -0.3004    1.0751 H   0  0  0  0  0  0  0  0  0  0  0  0
   -1.2495   -2.6983   -0.1880 H   0  0  0  0  0  0  0  0  0  0  0  0
   -1.5621   -2.8153   -1.9244 H   0  0  0  0  0  0  0  0  0  0  0  0
   -2.8213   -3.2575   -0.7622 H   0  0  0  0  0  0  0  0  0  0  0  0
   -0.2703   -0.7649    0.2489 H   0  0  0  0  0  0  0  0  0  0  0  0
    1.5134    0.0355   -1.3727 H   0  0  0  0  0  0  0  0  0  0  0  0
    0.6113    1.5463   -1.3981 H   0  0  0  0  0  0  0  0  0  0  0  0
   -0.1410    2.5083    0.9064 H   0  0  0  0  0  0  0  0  0  0  0  0
    0.7642    3.3092    3.0589 H   0  0  0  0  0  0  0  0  0  0  0  0
    2.9159    2.4066    3.9022 H   0  0  0  0  0  0  0  0  0  0  0  0
    4.1529    0.7427    2.6086 H   0  0  0  0  0  0  0  0  0  0  0  0
    3.3371   -2.2601    1.1111 H   0  0  0  0  0  0  0  0  0  0  0  0
    4.5792   -1.1958    1.8128 H   0  0  0  0  0  0  0  0  0  0  0  0
    5.8801   -2.5367    0.2949 H   0  0  0  0  0  0  0  0  0  0  0  0
    4.6000   -2.5004   -0.9386 H   0  0  0  0  0  0  0  0  0  0  0  0
    6.3169   -0.1599    0.0116 H   0  0  0  0  0  0  0  0  0  0  0  0
    6.0850   -0.6991   -1.6625 H   0  0  0  0  0  0  0  0  0  0  0  0
    4.5831    1.3164   -0.5551 H   0  0  0  0  0  0  0  0  0  0  0  0
    3.8862    0.2004   -1.7520 H   0  0  0  0  0  0  0  0  0  0  0  0
   -3.4492   -0.8665   -2.9738 H   0  0  0  0  0  0  0  0  0  0  0  0
   -4.3934   -1.8307   -1.8380 H   0  0  0  0  0  0  0  0  0  0  0  0
   -4.0752    1.0282   -1.9602 H   0  0  0  0  0  0  0  0  0  0  0  0
  1  2  1  0
  2  3  1  0
  2  4  1  0
  4  5  1  0
  5  6  1  0
  5  7  1  0
  7  8  2  0
  7  9  1  0
  9 10  1  0
 10 11  1  0
 11 12  2  0
 12 13  1  0
 13 14  2  0
 14 15  1  0
 15 16  2  0
 16 17  1  0
 17 18  1  0
 18 19  1  0
 19 20  1  0
 20 21  1  0
  5 22  1  0
 22 23  1  0
 23  2  1  0
 16 11  1  0
 21 17  1  0
  1 24  1  0
  1 25  1  0
  1 26  1  0
  3 27  1  0
  3 28  1  0
  3 29  1  0
  4 30  1  0
  4 31  1  0
  6 32  1  0
  6 33  1  0
  6 34  1  0
  9 35  1  0
 10 36  1  0
 10 37  1  0
 12 38  1  0
 13 39  1  0
 14 40  1  0
 15 41  1  0
 18 42  1  0
 18 43  1  0
 19 44  1  0
 19 45  1  0
 20 46  1  0
 20 47  1  0
 21 48  1  0
 21 49  1  0
 22 50  1  0
 22 51  1  0
 23 52  1  0
M  END
$$$$
OCNT-2311890
     RDKit          3D

 38 40  0  0  0  0  0  0  0  0999 V2000
   -4.8835   -1.9422    1.3300 C   0  0  0  0  0  0  0  0  0  0  0  0
   -4.0167   -0.8564    0.7587 C   0  0  0  0  0  0  0  0  0  0  0  0
   -2.6318   -1.0479    0.6493 C   0  0  0  0  0  0  0  0  0  0  0  0
   -1.7954   -0.0546    0.1211 C   0  0  0  0  0  0  0  0  0  0  0  0
   -0.3517   -0.3086    0.0363 C   0  0  0  0  0  0  0  0  0  0  0  0
    0.2368   -1.4850    0.1733 N   0  0  0  0  0  0  0  0  0  0  0  0
    1.5813   -1.2668    0.0252 C   0  0  0  0  0  0  0  0  0  0  0  0
    2.6477   -2.1781    0.0589 C   0  0  0  0  0  0  0  0  0  0  0  0
    3.9518   -1.6969   -0.1156 C   0  0  0  0  0  0  0  0  0  0  0  0
    4.1769   -0.3278   -0.3049 C   0  0  0  0  0  0  0  0  0  0  0  0
    5.8492    0.2462   -0.5219 S   0  0  0  0  0  0  0  0  0  0  0  0
    6.4641    0.3441    1.1390 C   0  0  0  0  0  0  0  0  0  0  0  0
    5.7843    1.5945   -1.0543 O   0  0  0  0  0  0  0  0  0  0  0  0
    6.5786   -0.7955   -1.2187 O   0  0  0  0  0  0  0  0  0  0  0  0
    3.1258    0.6006   -0.3589 C   0  0  0  0  0  0  0  0  0  0  0  0
    1.8410    0.0804   -0.1860 C   0  0  0  0  0  0  0  0  0  0  0  0
    0.6002    0.6643   -0.1783 N   0  0  0  0  0  0  0  0  0  0  0  0
   -2.3785    1.1457   -0.3139 C   0  0  0  0  0  0  0  0  0  0  0  0
   -3.7654    1.3662   -0.2179 C   0  0  0  0  0  0  0  0  0  0  0  0
   -4.3345    2.6697   -0.7018 C   0  0  0  0  0  0  0  0  0  0  0  0
   -4.5702    0.3530    0.3214 C   0  0  0  0  0  0  0  0  0  0  0  0
   -5.9260    0.4942    0.4428 O   0  0  0  0  0  0  0  0  0  0  0  0
   -5.6067   -2.2824    0.5820 H   0  0  0  0  0  0  0  0  0  0  0  0
   -4.2907   -2.8098    1.6385 H   0  0  0  0  0  0  0  0  0  0  0  0
   -5.4179   -1.5763    2.2127 H   0  0  0  0  0  0  0  0  0  0  0  0
   -2.1919   -1.9881    0.9818 H   0  0  0  0  0  0  0  0  0  0  0  0
    2.4528   -3.2348    0.2089 H   0  0  0  0  0  0  0  0  0  0  0  0
    4.7809   -2.4021   -0.1097 H   0  0  0  0  0  0  0  0  0  0  0  0
    5.8491    1.0459    1.7056 H   0  0  0  0  0  0  0  0  0  0  0  0
    7.4946    0.7035    1.0977 H   0  0  0  0  0  0  0  0  0  0  0  0
    6.4365   -0.6493    1.5907 H   0  0  0  0  0  0  0  0  0  0  0  0
    3.2965    1.6584   -0.5319 H   0  0  0  0  0  0  0  0  0  0  0  0
    0.4167    1.6486   -0.2942 H   0  0  0  0  0  0  0  0  0  0  0  0
   -1.7613    1.9256   -0.7514 H   0  0  0  0  0  0  0  0  0  0  0  0
   -5.0270    2.4952   -1.5315 H   0  0  0  0  0  0  0  0  0  0  0  0
   -3.5514    3.3458   -1.0609 H   0  0  0  0  0  0  0  0  0  0  0  0
   -4.8595    3.1797    0.1123 H   0  0  0  0  0  0  0  0  0  0  0  0
   -6.2044    1.3410    0.0641 H   0  0  0  0  0  0  0  0  0  0  0  0
  1  2  1  0
  2  3  1  0
  3  4  2  0
  4  5  1  0
  5  6  2  0
  6  7  1  0
  7  8  2  0
  8  9  1  0
  9 10  2  0
 10 11  1  0
 11 12  1  0
 11 13  2  0
 11 14  2  0
 10 15  1  0
 15 16  2  0
 16 17  1  0
  4 18  1  0
 18 19  2  0
 19 20  1  0
 19 21  1  0
 21 22  1  0
 21  2  2  0
 17  5  1  0
 16  7  1  0
  1 23  1  0
  1 24  1  0
  1 25  1  0
  3 26  1  0
  8 27  1  0
  9 28  1  0
 12 29  1  0
 12 30  1  0
 12 31  1  0
 15 32  1  0
 17 33  1  0
 18 34  1  0
 20 35  1  0
 20 36  1  0
 20 37  1  0
 22 38  1  0
M  END
$$$$
OCNT-2311899
     RDKit          3D

 44 47  0  0  0  0  0  0  0  0999 V2000
   -5.0893    3.1809    1.9309 C   0  0  0  0  0  0  0  0  0  0  0  0
   -5.5638    2.2715    0.9435 O   0  0  0  0  0  0  0  0  0  0  0  0
   -4.6095    1.3531    0.5546 C   0  0  0  0  0  0  0  0  0  0  0  0
   -4.9991    0.4278   -0.3952 C   0  0  0  0  0  0  0  0  0  0  0  0
   -4.0675   -0.5175   -0.8178 C   0  0  0  0  0  0  0  0  0  0  0  0
   -2.7702   -0.5216   -0.2863 C   0  0  0  0  0  0  0  0  0  0  0  0
   -1.7699   -1.5589   -0.7620 C   0  0  0  0  0  0  0  0  0  0  0  0
   -0.5720   -0.9725   -1.5217 C   0  0  0  0  0  0  0  0  0  0  0  0
    0.5756   -0.5099   -0.6310 C   0  0  0  0  0  0  0  0  0  0  0  0
    0.9436   -1.5089    0.3736 N   0  0  0  0  0  0  0  0  0  0  0  0
    2.2286   -1.6446    0.8980 C   0  0  0  0  0  0  0  0  0  0  0  0
    2.4989   -2.3902    1.8391 O   0  0  0  0  0  0  0  0  0  0  0  0
    3.3302   -0.9070    0.2494 C   0  0  0  0  0  0  0  0  0  0  0  0
    4.2419   -1.6108   -0.4400 C   0  0  0  0  0  0  0  0  0  0  0  0
    5.3374   -1.0797   -1.0807 N   0  0  0  0  0  0  0  0  0  0  0  0
    5.4834    0.1943   -0.9451 C   0  0  0  0  0  0  0  0  0  0  0  0
    6.7958    1.1298   -1.6398 S   0  0  0  0  0  0  0  0  0  0  0  0
    6.1496    2.5957   -0.9537 C   0  0  0  0  0  0  0  0  0  0  0  0
    5.0273    2.3627   -0.2634 C   0  0  0  0  0  0  0  0  0  0  0  0
    4.6444    1.0378   -0.2480 N   0  0  0  0  0  0  0  0  0  0  0  0
    3.5149    0.5558    0.3799 C   0  0  0  0  0  0  0  0  0  0  0  0
    2.7022    1.2554    0.9796 O   0  0  0  0  0  0  0  0  0  0  0  0
   -0.1513   -2.0523    1.1738 C   0  0  0  0  0  0  0  0  0  0  0  0
   -1.3161   -2.5442    0.3237 C   0  0  0  0  0  0  0  0  0  0  0  0
   -2.4918    0.4571    0.6639 C   0  0  0  0  0  0  0  0  0  0  0  0
   -3.3751    1.3893    1.0932 N   0  0  0  0  0  0  0  0  0  0  0  0
   -5.9094    3.8623    2.1772 H   0  0  0  0  0  0  0  0  0  0  0  0
   -4.8054    2.6570    2.8504 H   0  0  0  0  0  0  0  0  0  0  0  0
   -4.2591    3.7851    1.5487 H   0  0  0  0  0  0  0  0  0  0  0  0
   -6.0055    0.4419   -0.7973 H   0  0  0  0  0  0  0  0  0  0  0  0
   -4.3672   -1.2492   -1.5647 H   0  0  0  0  0  0  0  0  0  0  0  0
   -2.3095   -2.1710   -1.5003 H   0  0  0  0  0  0  0  0  0  0  0  0
   -0.1780   -1.7614   -2.1777 H   0  0  0  0  0  0  0  0  0  0  0  0
   -0.8857   -0.1530   -2.1795 H   0  0  0  0  0  0  0  0  0  0  0  0
    1.4307   -0.2832   -1.2744 H   0  0  0  0  0  0  0  0  0  0  0  0
    0.3217    0.4148   -0.1047 H   0  0  0  0  0  0  0  0  0  0  0  0
    4.1458   -2.6931   -0.5196 H   0  0  0  0  0  0  0  0  0  0  0  0
    6.6186    3.5613   -1.0869 H   0  0  0  0  0  0  0  0  0  0  0  0
    4.4313    3.1025    0.2570 H   0  0  0  0  0  0  0  0  0  0  0  0
    0.2037   -2.8857    1.7905 H   0  0  0  0  0  0  0  0  0  0  0  0
   -0.4687   -1.2706    1.8711 H   0  0  0  0  0  0  0  0  0  0  0  0
   -2.1541   -2.8308    0.9704 H   0  0  0  0  0  0  0  0  0  0  0  0
   -0.9864   -3.4635   -0.1804 H   0  0  0  0  0  0  0  0  0  0  0  0
   -1.5209    0.5434    1.1387 H   0  0  0  0  0  0  0  0  0  0  0  0
  1  2  1  0
  2  3  1  0
  3  4  2  0
  4  5  1  0
  5  6  2  0
  6  7  1  0
  7  8  1  0
  8  9  1  0
  9 10  1  0
 10 11  1  0
 11 12  2  0
 11 13  1  0
 13 14  2  0
 14 15  1  0
 15 16  2  0
 16 17  1  0
 17 18  1  0
 18 19  2  0
 19 20  1  0
 20 21  1  0
 21 22  2  0
 10 23  1  0
 23 24  1  0
  6 25  1  0
 25 26  2  0
 26  3  1  0
 24  7  1  0
 21 13  1  0
 20 16  1  0
  1 27  1  0
  1 28  1  0
  1 29  1  0
  4 30  1  0
  5 31  1  0
  7 32  1  0
  8 33  1  0
  8 34  1  0
  9 35  1  0
  9 36  1  0
 14 37  1  0
 18 38  1  0
 19 39  1  0
 23 40  1  0
 23 41  1  0
 24 42  1  0
 24 43  1  0
 25 44  1  0
M  END
$$$$
OCNT-2311901
     RDKit          3D

 37 39  0  0  0  0  0  0  0  0999 V2000
    4.1765    2.6387    1.6650 C   0  0  0  0  0  0  0  0  0  0  0  0
    3.2209    1.8383    0.8711 C   0  0  0  0  0  0  0  0  0  0  0  0
    2.1991    2.2596    0.0531 C   0  0  0  0  0  0  0  0  0  0  0  0
    1.6350    1.1125   -0.4277 N   0  0  0  0  0  0  0  0  0  0  0  0
    2.2919    0.0331    0.1168 C   0  0  0  0  0  0  0  0  0  0  0  0
    2.0031   -1.3714   -0.2166 C   0  0  0  0  0  0  0  0  0  0  0  0
    3.0973   -2.2598   -0.1435 C   0  0  0  0  0  0  0  0  0  0  0  0
    3.0095   -3.5761   -0.5974 C   0  0  0  0  0  0  0  0  0  0  0  0
    1.8223   -4.0327   -1.1506 C   0  0  0  0  0  0  0  0  0  0  0  0
    0.7173   -3.1837   -1.2131 C   0  0  0  0  0  0  0  0  0  0  0  0
    0.7764   -1.8691   -0.7103 C   0  0  0  0  0  0  0  0  0  0  0  0
   -0.4479   -1.1534   -0.7689 N   0  0  0  0  0  0  0  0  0  0  0  0
   -0.9692   -0.4179    0.2846 C   0  0  0  0  0  0  0  0  0  0  0  0
   -0.4279   -0.2500    1.3685 O   0  0  0  0  0  0  0  0  0  0  0  0
   -2.2979    0.1464    0.0150 C   0  0  0  0  0  0  0  0  0  0  0  0
   -2.9845    0.1996   -1.1888 C   0  0  0  0  0  0  0  0  0  0  0  0
   -4.1886    0.8266   -0.9815 N   0  0  0  0  0  0  0  0  0  0  0  0
   -4.2986    1.1954    0.3361 C   0  0  0  0  0  0  0  0  0  0  0  0
   -5.5009    1.9001    0.8441 C   0  0  0  0  0  0  0  0  0  0  0  0
   -5.1918    3.0942    1.4021 F   0  0  0  0  0  0  0  0  0  0  0  0
   -6.1574    1.1713    1.7776 F   0  0  0  0  0  0  0  0  0  0  0  0
   -6.3845    2.1474   -0.1583 F   0  0  0  0  0  0  0  0  0  0  0  0
   -3.1410    0.7903    0.9716 C   0  0  0  0  0  0  0  0  0  0  0  0
    3.2860    0.4654    0.8771 N   0  0  0  0  0  0  0  0  0  0  0  0
    5.1928    2.5049    1.2818 H   0  0  0  0  0  0  0  0  0  0  0  0
    4.1581    2.3246    2.7132 H   0  0  0  0  0  0  0  0  0  0  0  0
    3.9326    3.7049    1.6243 H   0  0  0  0  0  0  0  0  0  0  0  0
    1.8342    3.2400   -0.2155 H   0  0  0  0  0  0  0  0  0  0  0  0
    0.8590    1.0485   -1.0679 H   0  0  0  0  0  0  0  0  0  0  0  0
    4.0499   -1.9046    0.2508 H   0  0  0  0  0  0  0  0  0  0  0  0
    3.8751   -4.2301   -0.5319 H   0  0  0  0  0  0  0  0  0  0  0  0
    1.7500   -5.0532   -1.5176 H   0  0  0  0  0  0  0  0  0  0  0  0
   -0.2086   -3.5829   -1.6206 H   0  0  0  0  0  0  0  0  0  0  0  0
   -1.1616   -1.5597   -1.3594 H   0  0  0  0  0  0  0  0  0  0  0  0
   -2.7254   -0.1384   -2.1836 H   0  0  0  0  0  0  0  0  0  0  0  0
   -4.8909    1.0044   -1.6921 H   0  0  0  0  0  0  0  0  0  0  0  0
   -2.9104    0.9367    2.0221 H   0  0  0  0  0  0  0  0  0  0  0  0
  1  2  1  0
  2  3  2  0
  3  4  1  0
  4  5  1  0
  5  6  1  0
  6  7  2  0
  7  8  1  0
  8  9  2  0
  9 10  1  0
 10 11  2  0
 11 12  1  0
 12 13  1  0
 13 14  2  0
 13 15  1  0
 15 16  2  0
 16 17  1  0
 17 18  1  0
 18 19  1  0
 19 20  1  0
 19 21  1  0
 19 22  1  0
 18 23  2  0
  5 24  2  0
 24  2  1  0
 11  6  1  0
 23 15  1  0
  1 25  1  0
  1 26  1  0
  1 27  1  0
  3 28  1  0
  4 29  1  0
  7 30  1  0
  8 31  1  0
  9 32  1  0
 10 33  1  0
 12 34  1  0
 16 35  1  0
 17 36  1  0
 23 37  1  0
M  END
$$$$
OCNT-2311905
     RDKit          3D

 43 46  0  0  0  0  0  0  0  0999 V2000
   -3.4571    2.5697   -2.0531 C   0  0  0  0  0  0  0  0  0  0  0  0
   -2.6569    2.5696   -0.9123 C   0  0  0  0  0  0  0  0  0  0  0  0
   -2.5623    1.4211   -0.1256 C   0  0  0  0  0  0  0  0  0  0  0  0
   -3.2664    0.2603   -0.4750 C   0  0  0  0  0  0  0  0  0  0  0  0
   -3.1481   -0.9891    0.3697 C   0  0  0  0  0  0  0  0  0  0  0  0
   -2.2934   -2.1029   -0.2860 C   0  0  0  0  0  0  0  0  0  0  0  0
   -0.8037   -1.6892   -0.4603 C   0  0  0  0  0  0  0  0  0  0  0  0
   -0.0963   -1.6611    0.8330 N   0  0  0  0  0  0  0  0  0  0  0  0
    1.1321   -1.0519    0.9106 C   0  0  0  0  0  0  0  0  0  0  0  0
    2.1176   -1.4583    1.6874 N   0  0  0  0  0  0  0  0  0  0  0  0
    3.2444   -0.6678    1.6136 N   0  0  0  0  0  0  0  0  0  0  0  0
    3.1025    0.3438    0.7797 C   0  0  0  0  0  0  0  0  0  0  0  0
    4.1222    1.3694    0.4984 C   0  0  0  0  0  0  0  0  0  0  0  0
    4.1542    2.1271   -0.6731 C   0  0  0  0  0  0  0  0  0  0  0  0
    5.1658    3.0722   -0.8424 C   0  0  0  0  0  0  0  0  0  0  0  0
    6.1189    3.2377    0.1538 C   0  0  0  0  0  0  0  0  0  0  0  0
    6.0234    2.4463    1.2839 C   0  0  0  0  0  0  0  0  0  0  0  0
    5.0549    1.5249    1.4740 N   0  0  0  0  0  0  0  0  0  0  0  0
    1.5502    0.3839    0.0383 S   0  0  0  0  0  0  0  0  0  0  0  0
   -0.2338   -2.9087    1.6108 C   0  0  0  0  0  0  0  0  0  0  0  0
   -1.7123   -3.3339    1.7324 C   0  0  0  0  0  0  0  0  0  0  0  0
   -2.4348   -3.3931    0.4450 N   0  0  0  0  0  0  0  0  0  0  0  0
   -4.0713    0.2723   -1.6220 C   0  0  0  0  0  0  0  0  0  0  0  0
   -4.1647    1.4222   -2.4074 C   0  0  0  0  0  0  0  0  0  0  0  0
   -3.5341    3.4660   -2.6629 H   0  0  0  0  0  0  0  0  0  0  0  0
   -2.1090    3.4654   -0.6318 H   0  0  0  0  0  0  0  0  0  0  0  0
   -1.9333    1.4359    0.7626 H   0  0  0  0  0  0  0  0  0  0  0  0
   -4.1644   -1.3642    0.5532 H   0  0  0  0  0  0  0  0  0  0  0  0
   -2.7506   -0.7193    1.3559 H   0  0  0  0  0  0  0  0  0  0  0  0
   -2.6958   -2.2814   -1.2917 H   0  0  0  0  0  0  0  0  0  0  0  0
   -0.3077   -2.4189   -1.1150 H   0  0  0  0  0  0  0  0  0  0  0  0
   -0.7597   -0.7270   -0.9785 H   0  0  0  0  0  0  0  0  0  0  0  0
    3.4209    1.9930   -1.4610 H   0  0  0  0  0  0  0  0  0  0  0  0
    5.2095    3.6716   -1.7478 H   0  0  0  0  0  0  0  0  0  0  0  0
    6.9185    3.9629    0.0519 H   0  0  0  0  0  0  0  0  0  0  0  0
    6.7442    2.5314    2.0924 H   0  0  0  0  0  0  0  0  0  0  0  0
    0.3383   -3.7092    1.1238 H   0  0  0  0  0  0  0  0  0  0  0  0
    0.1609   -2.7813    2.6266 H   0  0  0  0  0  0  0  0  0  0  0  0
   -1.7591   -4.3248    2.1986 H   0  0  0  0  0  0  0  0  0  0  0  0
   -2.2378   -2.6556    2.4145 H   0  0  0  0  0  0  0  0  0  0  0  0
   -1.9957   -4.1207   -0.1209 H   0  0  0  0  0  0  0  0  0  0  0  0
   -4.6358   -0.6131   -1.9065 H   0  0  0  0  0  0  0  0  0  0  0  0
   -4.7943    1.4246   -3.2934 H   0  0  0  0  0  0  0  0  0  0  0  0
  1  2  2  0
  2  3  1  0
  3  4  2  0
  4  5  1  0
  5  6  1  0
  6  7  1  0
  7  8  1  0
  8  9  1  0
  9 10  2  0
 10 11  1  0
 11 12  2  0
 12 13  1  0
 13 14  2  0
 14 15  1  0
 15 16  2  0
 16 17  1  0
 17 18  2  0
 12 19  1  0
  8 20  1  0
 20 21  1  0
 21 22  1  0
  4 23  1  0
 23 24  2  0
 24  1  1  0
 22  6  1  0
 19  9  1  0
 18 13  1  0
  1 25  1  0
  2 26  1  0
  3 27  1  0
  5 28  1  0
  5 29  1  0
  6 30  1  0
  7 31  1  0
  7 32  1  0
 14 33  1  0
 15 34  1  0
 16 35  1  0
 17 36  1  0
 20 37  1  0
 20 38  1  0
 21 39  1  0
 21 40  1  0
 22 41  1  0
 23 42  1  0
 24 43  1  0
M  END
$$$$
OCNT-2311907
     RDKit          3D

 38 40  0  0  0  0  0  0  0  0999 V2000
    5.1991   -2.1908    1.0575 C   0  0  0  0  0  0  0  0  0  0  0  0
    4.1257   -1.2278    1.0006 N   0  0  0  0  0  0  0  0  0  0  0  0
    2.7905   -1.4134    1.3728 C   0  0  0  0  0  0  0  0  0  0  0  0
    2.0542   -0.3490    0.9761 C   0  0  0  0  0  0  0  0  0  0  0  0
    0.6185   -0.0499    1.1778 C   0  0  0  0  0  0  0  0  0  0  0  0
   -0.1706   -0.4408    0.0087 N   0  0  0  0  0  0  0  0  0  0  0  0
   -1.5743   -0.0485    0.1665 C   0  0  0  0  0  0  0  0  0  0  0  0
   -2.3831   -0.4466   -1.0751 C   0  0  0  0  0  0  0  0  0  0  0  0
   -3.8369   -0.0619   -0.9404 C   0  0  0  0  0  0  0  0  0  0  0  0
   -4.2706    1.2147   -1.3251 C   0  0  0  0  0  0  0  0  0  0  0  0
   -5.6105    1.5808   -1.1840 C   0  0  0  0  0  0  0  0  0  0  0  0
   -6.5300    0.6768   -0.6532 C   0  0  0  0  0  0  0  0  0  0  0  0
   -6.1032   -0.5912   -0.2646 C   0  0  0  0  0  0  0  0  0  0  0  0
   -7.3468   -1.8174    0.4603 Br  0  0  0  0  0  0  0  0  0  0  0  0
   -4.7657   -0.9641   -0.4029 C   0  0  0  0  0  0  0  0  0  0  0  0
    2.9369    0.5231    0.3424 N   0  0  0  0  0  0  0  0  0  0  0  0
    2.9104    1.7357   -0.2457 N   0  0  0  0  0  0  0  0  0  0  0  0
    4.1782    1.9033   -0.6577 C   0  0  0  0  0  0  0  0  0  0  0  0
    5.0301    0.8251   -0.3172 C   0  0  0  0  0  0  0  0  0  0  0  0
    6.4141    0.6748   -0.5864 C   0  0  0  0  0  0  0  0  0  0  0  0
    7.5466    0.5482   -0.8068 N   0  0  0  0  0  0  0  0  0  0  0  0
    4.2046   -0.0342    0.3441 C   0  0  0  0  0  0  0  0  0  0  0  0
    5.3450   -2.6627    0.0802 H   0  0  0  0  0  0  0  0  0  0  0  0
    6.1381   -1.7160    1.3610 H   0  0  0  0  0  0  0  0  0  0  0  0
    4.9792   -2.9788    1.7859 H   0  0  0  0  0  0  0  0  0  0  0  0
    2.4815   -2.3047    1.8997 H   0  0  0  0  0  0  0  0  0  0  0  0
    0.2547   -0.5881    2.0622 H   0  0  0  0  0  0  0  0  0  0  0  0
    0.4969    1.0204    1.3859 H   0  0  0  0  0  0  0  0  0  0  0  0
   -0.1102   -1.4506   -0.1151 H   0  0  0  0  0  0  0  0  0  0  0  0
   -2.0010   -0.5291    1.0559 H   0  0  0  0  0  0  0  0  0  0  0  0
   -1.6430    1.0369    0.3115 H   0  0  0  0  0  0  0  0  0  0  0  0
   -2.3094   -1.5285   -1.2469 H   0  0  0  0  0  0  0  0  0  0  0  0
   -1.9642    0.0299   -1.9712 H   0  0  0  0  0  0  0  0  0  0  0  0
   -3.5640    1.9323   -1.7386 H   0  0  0  0  0  0  0  0  0  0  0  0
   -5.9366    2.5723   -1.4880 H   0  0  0  0  0  0  0  0  0  0  0  0
   -7.5709    0.9696   -0.5468 H   0  0  0  0  0  0  0  0  0  0  0  0
   -4.4442   -1.9560   -0.0945 H   0  0  0  0  0  0  0  0  0  0  0  0
    4.4307    2.8129   -1.1891 H   0  0  0  0  0  0  0  0  0  0  0  0
  1  2  1  0
  2  3  1  0
  3  4  2  0
  4  5  1  0
  5  6  1  0
  6  7  1  0
  7  8  1  0
  8  9  1  0
  9 10  2  0
 10 11  1  0
 11 12  2  0
 12 13  1  0
 13 14  1  0
 13 15  2  0
  4 16  1  0
 16 17  1  0
 17 18  2  0
 18 19  1  0
 19 20  1  0
 20 21  3  0
 19 22  2  0
 22  2  1  0
 15  9  1  0
 22 16  1  0
  1 23  1  0
  1 24  1  0
  1 25  1  0
  3 26  1  0
  5 27  1  0
  5 28  1  0
  6 29  1  0
  7 30  1  0
  7 31  1  0
  8 32  1  0
  8 33  1  0
 10 34  1  0
 11 35  1  0
 12 36  1  0
 15 37  1  0
 18 38  1  0
M  END
$$$$
OCNT-2311908
     RDKit          3D

 35 37  0  0  0  0  0  0  0  0999 V2000
   -0.1027   -1.5711    0.7269 C   0  0  0  0  0  0  0  0  0  0  0  0
   -0.5226   -0.2802    0.1738 N   0  0  0  0  0  0  0  0  0  0  0  0
    0.3552    0.8092    0.1237 C   0  0  0  0  0  0  0  0  0  0  0  0
    0.0557    2.0000    0.1029 O   0  0  0  0  0  0  0  0  0  0  0  0
    1.8118    0.5206    0.1030 C   0  0  0  0  0  0  0  0  0  0  0  0
    2.3535   -0.3441   -0.8531 C   0  0  0  0  0  0  0  0  0  0  0  0
    3.7280   -0.5747   -0.8697 C   0  0  0  0  0  0  0  0  0  0  0  0
    4.5608    0.0609    0.0581 C   0  0  0  0  0  0  0  0  0  0  0  0
    4.0237    0.9359    1.0064 C   0  0  0  0  0  0  0  0  0  0  0  0
    4.7274    1.6276    1.9517 O   0  0  0  0  0  0  0  0  0  0  0  0
    6.0706    1.2299    2.1683 C   0  0  0  0  0  0  0  0  0  0  0  0
    6.8289    1.6164    1.1133 F   0  0  0  0  0  0  0  0  0  0  0  0
    6.5277    1.9141    3.2472 F   0  0  0  0  0  0  0  0  0  0  0  0
    2.6471    1.1757    1.0140 C   0  0  0  0  0  0  0  0  0  0  0  0
   -1.8640   -0.1574   -0.2139 C   0  0  0  0  0  0  0  0  0  0  0  0
   -2.7329   -1.1351   -0.0600 N   0  0  0  0  0  0  0  0  0  0  0  0
   -3.9708   -0.7653   -0.5563 C   0  0  0  0  0  0  0  0  0  0  0  0
   -5.1408   -1.5514   -0.5356 C   0  0  0  0  0  0  0  0  0  0  0  0
   -6.3270   -1.0468   -1.0792 C   0  0  0  0  0  0  0  0  0  0  0  0
   -6.3588    0.2254   -1.6418 C   0  0  0  0  0  0  0  0  0  0  0  0
   -5.2106    1.0229   -1.6763 C   0  0  0  0  0  0  0  0  0  0  0  0
   -4.0263    0.5053   -1.1263 C   0  0  0  0  0  0  0  0  0  0  0  0
   -2.4703    1.2227   -1.0219 S   0  0  0  0  0  0  0  0  0  0  0  0
   -0.8636   -1.9466    1.4194 H   0  0  0  0  0  0  0  0  0  0  0  0
    0.0266   -2.2814   -0.0953 H   0  0  0  0  0  0  0  0  0  0  0  0
    0.8289   -1.4907    1.2925 H   0  0  0  0  0  0  0  0  0  0  0  0
    1.7172   -0.8188   -1.5961 H   0  0  0  0  0  0  0  0  0  0  0  0
    4.1581   -1.2357   -1.6193 H   0  0  0  0  0  0  0  0  0  0  0  0
    5.6288   -0.1264   -0.0134 H   0  0  0  0  0  0  0  0  0  0  0  0
    6.1812    0.1566    2.3580 H   0  0  0  0  0  0  0  0  0  0  0  0
    2.2221    1.8777    1.7293 H   0  0  0  0  0  0  0  0  0  0  0  0
   -5.1120   -2.5430   -0.0954 H   0  0  0  0  0  0  0  0  0  0  0  0
   -7.2285   -1.6548   -1.0600 H   0  0  0  0  0  0  0  0  0  0  0  0
   -7.2877    0.6069   -2.0609 H   0  0  0  0  0  0  0  0  0  0  0  0
   -5.2348    2.0157   -2.1154 H   0  0  0  0  0  0  0  0  0  0  0  0
  1  2  1  0
  2  3  1  0
  3  4  2  0
  3  5  1  0
  5  6  2  0
  6  7  1  0
  7  8  2  0
  8  9  1  0
  9 10  1  0
 10 11  1  0
 11 12  1  0
 11 13  1  0
  9 14  2  0
  2 15  1  0
 15 16  2  0
 16 17  1  0
 17 18  2  0
 18 19  1  0
 19 20  2  0
 20 21  1  0
 21 22  2  0
 22 23  1  0
 14  5  1  0
 23 15  1  0
 22 17  1  0
  1 24  1  0
  1 25  1  0
  1 26  1  0
  6 27  1  0
  7 28  1  0
  8 29  1  0
 11 30  1  0
 14 31  1  0
 18 32  1  0
 19 33  1  0
 20 34  1  0
 21 35  1  0
M  END
$$$$
OCNT-2311909
     RDKit          3D

 45 47  0  0  0  0  0  0  0  0999 V2000
   -5.5272    1.7717    2.0499 C   0  0  0  0  0  0  0  0  0  0  0  0
   -4.5399    1.4155    0.9797 C   0  0  0  0  0  0  0  0  0  0  0  0
   -3.2050    1.2022    1.3060 C   0  0  0  0  0  0  0  0  0  0  0  0
   -2.3007    0.8663    0.2945 C   0  0  0  0  0  0  0  0  0  0  0  0
   -0.8470    0.6202    0.6135 C   0  0  0  0  0  0  0  0  0  0  0  0
   -0.6953   -0.6048    1.3946 N   0  0  0  0  0  0  0  0  0  0  0  0
    0.7015   -0.8959    1.7377 C   0  0  0  0  0  0  0  0  0  0  0  0
    0.7219   -2.0031    2.7980 C   0  0  0  0  0  0  0  0  0  0  0  0
    1.5433   -1.2775    0.5279 C   0  0  0  0  0  0  0  0  0  0  0  0
    1.2654   -2.4273   -0.2285 C   0  0  0  0  0  0  0  0  0  0  0  0
    2.0394   -2.7514   -1.3421 C   0  0  0  0  0  0  0  0  0  0  0  0
    3.1020   -1.9310   -1.7192 C   0  0  0  0  0  0  0  0  0  0  0  0
    3.3999   -0.7764   -0.9821 C   0  0  0  0  0  0  0  0  0  0  0  0
    4.4887    0.0478   -1.3869 N   0  0  0  0  0  0  0  0  0  0  0  0
    4.9435    1.2117   -0.7996 C   0  0  0  0  0  0  0  0  0  0  0  0
    6.0135    1.6523   -1.5419 C   0  0  0  0  0  0  0  0  0  0  0  0
    6.1459    0.7027   -2.5626 C   0  0  0  0  0  0  0  0  0  0  0  0
    5.2347   -0.2662   -2.4804 N   0  0  0  0  0  0  0  0  0  0  0  0
    2.6184   -0.4549    0.1388 C   0  0  0  0  0  0  0  0  0  0  0  0
   -2.7806    0.7489   -1.0123 C   0  0  0  0  0  0  0  0  0  0  0  0
   -4.1301    0.9798   -1.2616 C   0  0  0  0  0  0  0  0  0  0  0  0
   -4.6673    0.8624   -2.6564 C   0  0  0  0  0  0  0  0  0  0  0  0
   -5.0077    1.3120   -0.2864 N   0  0  0  0  0  0  0  0  0  0  0  0
   -6.5274    1.9107    1.6271 H   0  0  0  0  0  0  0  0  0  0  0  0
   -5.2326    2.7042    2.5413 H   0  0  0  0  0  0  0  0  0  0  0  0
   -5.5805    0.9727    2.7960 H   0  0  0  0  0  0  0  0  0  0  0  0
   -2.8695    1.2847    2.3356 H   0  0  0  0  0  0  0  0  0  0  0  0
   -0.2781    0.5684   -0.3222 H   0  0  0  0  0  0  0  0  0  0  0  0
   -0.4658    1.4837    1.1728 H   0  0  0  0  0  0  0  0  0  0  0  0
   -1.0934   -1.3837    0.8735 H   0  0  0  0  0  0  0  0  0  0  0  0
    1.1348   -0.0074    2.2158 H   0  0  0  0  0  0  0  0  0  0  0  0
    0.1894   -1.6841    3.7015 H   0  0  0  0  0  0  0  0  0  0  0  0
    1.7508   -2.2456    3.0877 H   0  0  0  0  0  0  0  0  0  0  0  0
    0.2503   -2.9276    2.4457 H   0  0  0  0  0  0  0  0  0  0  0  0
    0.4407   -3.0825    0.0434 H   0  0  0  0  0  0  0  0  0  0  0  0
    1.8159   -3.6454   -1.9192 H   0  0  0  0  0  0  0  0  0  0  0  0
    3.6915   -2.2058   -2.5925 H   0  0  0  0  0  0  0  0  0  0  0  0
    4.4850    1.6299    0.0823 H   0  0  0  0  0  0  0  0  0  0  0  0
    6.6118    2.5350   -1.3674 H   0  0  0  0  0  0  0  0  0  0  0  0
    6.8699    0.6734   -3.3671 H   0  0  0  0  0  0  0  0  0  0  0  0
    2.8224    0.4343    0.7280 H   0  0  0  0  0  0  0  0  0  0  0  0
   -2.1148    0.4808   -1.8269 H   0  0  0  0  0  0  0  0  0  0  0  0
   -4.5131   -0.1521   -3.0367 H   0  0  0  0  0  0  0  0  0  0  0  0
   -5.7409    1.0758   -2.6800 H   0  0  0  0  0  0  0  0  0  0  0  0
   -4.1637    1.5752   -3.3168 H   0  0  0  0  0  0  0  0  0  0  0  0
  1  2  1  0
  2  3  1  0
  3  4  2  0
  4  5  1  0
  5  6  1  0
  6  7  1  0
  7  8  1  0
  7  9  1  0
  9 10  2  0
 10 11  1  0
 11 12  2  0
 12 13  1  0
 13 14  1  0
 14 15  1  0
 15 16  2  0
 16 17  1  0
 17 18  2  0
 13 19  2  0
  4 20  1  0
 20 21  2  0
 21 22  1  0
 21 23  1  0
 23  2  2  0
 19  9  1  0
 18 14  1  0
  1 24  1  0
  1 25  1  0
  1 26  1  0
  3 27  1  0
  5 28  1  0
  5 29  1  0
  6 30  1  0
  7 31  1  0
  8 32  1  0
  8 33  1  0
  8 34  1  0
 10 35  1  0
 11 36  1  0
 12 37  1  0
 15 38  1  0
 16 39  1  0
 17 40  1  0
 19 41  1  0
 20 42  1  0
 22 43  1  0
 22 44  1  0
 22 45  1  0
M  END
$$$$
OCNT-2311912
     RDKit          3D

 43 44  0  0  0  0  0  0  0  0999 V2000
    6.5912   -0.4058    0.6641 C   0  0  0  0  0  0  0  0  0  0  0  0
    5.5410    0.5097    0.3833 O   0  0  0  0  0  0  0  0  0  0  0  0
    4.2598    0.0227    0.3909 C   0  0  0  0  0  0  0  0  0  0  0  0
    3.2275    0.9708    0.2836 C   0  0  0  0  0  0  0  0  0  0  0  0
    3.5334    2.3128    0.2110 O   0  0  0  0  0  0  0  0  0  0  0  0
    3.8782    2.6712   -1.1273 C   0  0  0  0  0  0  0  0  0  0  0  0
    1.8785    0.5748    0.3272 C   0  0  0  0  0  0  0  0  0  0  0  0
    0.6324    1.7816    0.2303 Cl  0  0  0  0  0  0  0  0  0  0  0  0
    1.5455   -0.7870    0.4370 C   0  0  0  0  0  0  0  0  0  0  0  0
    0.1170   -1.2839    0.4607 C   0  0  0  0  0  0  0  0  0  0  0  0
   -0.4772   -1.3903   -0.9458 C   0  0  0  0  0  0  0  0  0  0  0  0
   -1.8750   -1.8102   -0.8803 N   0  0  0  0  0  0  0  0  0  0  0  0
   -2.7993   -0.9401   -0.6621 C   0  0  0  0  0  0  0  0  0  0  0  0
   -4.0740   -1.4158   -0.6303 N   0  0  0  0  0  0  0  0  0  0  0  0
   -5.0101   -1.0347    0.4111 C   0  0  0  0  0  0  0  0  0  0  0  0
   -5.7147    0.2705    0.0663 C   0  0  0  0  0  0  0  0  0  0  0  0
   -4.7881    1.4832    0.1124 C   0  0  0  0  0  0  0  0  0  0  0  0
   -3.6278    1.3835   -0.8691 C   0  0  0  0  0  0  0  0  0  0  0  0
   -2.6573    0.3955   -0.4375 N   0  0  0  0  0  0  0  0  0  0  0  0
    2.5850   -1.7281    0.5056 C   0  0  0  0  0  0  0  0  0  0  0  0
    3.9254   -1.3287    0.4881 C   0  0  0  0  0  0  0  0  0  0  0  0
    6.6858   -1.1500   -0.1333 H   0  0  0  0  0  0  0  0  0  0  0  0
    6.4522   -0.8847    1.6391 H   0  0  0  0  0  0  0  0  0  0  0  0
    7.5268    0.1604    0.7021 H   0  0  0  0  0  0  0  0  0  0  0  0
    3.9527    3.7620   -1.1711 H   0  0  0  0  0  0  0  0  0  0  0  0
    4.8499    2.2568   -1.4137 H   0  0  0  0  0  0  0  0  0  0  0  0
    3.1079    2.3572   -1.8408 H   0  0  0  0  0  0  0  0  0  0  0  0
   -0.4888   -0.6380    1.1068 H   0  0  0  0  0  0  0  0  0  0  0  0
    0.0755   -2.2691    0.9446 H   0  0  0  0  0  0  0  0  0  0  0  0
    0.0736   -2.1512   -1.5129 H   0  0  0  0  0  0  0  0  0  0  0  0
   -0.3601   -0.4669   -1.5247 H   0  0  0  0  0  0  0  0  0  0  0  0
   -4.0281   -2.4244   -0.7477 H   0  0  0  0  0  0  0  0  0  0  0  0
   -5.7670   -1.8234    0.4930 H   0  0  0  0  0  0  0  0  0  0  0  0
   -4.5099   -0.9739    1.3850 H   0  0  0  0  0  0  0  0  0  0  0  0
   -6.5306    0.4310    0.7814 H   0  0  0  0  0  0  0  0  0  0  0  0
   -6.1736    0.1975   -0.9277 H   0  0  0  0  0  0  0  0  0  0  0  0
   -5.3778    2.3759   -0.1284 H   0  0  0  0  0  0  0  0  0  0  0  0
   -4.4084    1.6185    1.1328 H   0  0  0  0  0  0  0  0  0  0  0  0
   -3.1254    2.3571   -0.9079 H   0  0  0  0  0  0  0  0  0  0  0  0
   -3.9781    1.1698   -1.8858 H   0  0  0  0  0  0  0  0  0  0  0  0
   -1.7068    0.7365   -0.5153 H   0  0  0  0  0  0  0  0  0  0  0  0
    2.3553   -2.7904    0.5803 H   0  0  0  0  0  0  0  0  0  0  0  0
    4.6835   -2.1027    0.5524 H   0  0  0  0  0  0  0  0  0  0  0  0
  1  2  1  0
  2  3  1  0
  3  4  2  0
  4  5  1  0
  5  6  1  0
  4  7  1  0
  7  8  1  0
  7  9  2  0
  9 10  1  0
 10 11  1  0
 11 12  1  0
 12 13  2  3
 13 14  1  0
 14 15  1  0
 15 16  1  0
 16 17  1  0
 17 18  1  0
 18 19  1  0
  9 20  1  0
 20 21  2  0
 21  3  1  0
 19 13  1  0
  1 22  1  0
  1 23  1  0
  1 24  1  0
  6 25  1  0
  6 26  1  0
  6 27  1  0
 10 28  1  0
 10 29  1  0
 11 30  1  0
 11 31  1  0
 14 32  1  0
 15 33  1  0
 15 34  1  0
 16 35  1  0
 16 36  1  0
 17 37  1  0
 17 38  1  0
 18 39  1  0
 18 40  1  0
 19 41  1  0
 20 42  1  0
 21 43  1  0
M  END
$$$$
OCNT-2311913
     RDKit          3D

 40 42  0  0  0  0  0  0  0  0999 V2000
   -4.7731    3.3729   -0.5712 C   0  0  0  0  0  0  0  0  0  0  0  0
   -5.1371    1.9998   -0.6609 O   0  0  0  0  0  0  0  0  0  0  0  0
   -4.1529    1.0813   -0.4236 C   0  0  0  0  0  0  0  0  0  0  0  0
   -4.5768   -0.2482   -0.4579 C   0  0  0  0  0  0  0  0  0  0  0  0
   -3.6783   -1.2897   -0.2243 C   0  0  0  0  0  0  0  0  0  0  0  0
   -2.3406   -1.0047    0.0596 C   0  0  0  0  0  0  0  0  0  0  0  0
   -1.4721   -2.0419    0.2766 O   0  0  0  0  0  0  0  0  0  0  0  0
   -1.6694   -2.6280    1.5660 C   0  0  0  0  0  0  0  0  0  0  0  0
   -1.7193   -1.6888    2.5313 F   0  0  0  0  0  0  0  0  0  0  0  0
   -2.8001   -3.3635    1.5872 F   0  0  0  0  0  0  0  0  0  0  0  0
   -0.6272   -3.4483    1.8189 F   0  0  0  0  0  0  0  0  0  0  0  0
   -1.8873    0.3244    0.0511 C   0  0  0  0  0  0  0  0  0  0  0  0
   -0.4629    0.7213    0.2895 C   0  0  0  0  0  0  0  0  0  0  0  0
   -0.2484    1.8389    0.7444 O   0  0  0  0  0  0  0  0  0  0  0  0
    0.4867   -0.2186   -0.0654 N   0  0  0  0  0  0  0  0  0  0  0  0
    1.8944   -0.1323    0.0601 C   0  0  0  0  0  0  0  0  0  0  0  0
    2.5287    0.9907    0.6107 C   0  0  0  0  0  0  0  0  0  0  0  0
    3.9060    0.9944    0.7005 C   0  0  0  0  0  0  0  0  0  0  0  0
    4.6638   -0.0634    0.2701 C   0  0  0  0  0  0  0  0  0  0  0  0
    4.0869   -1.1872   -0.2748 C   0  0  0  0  0  0  0  0  0  0  0  0
    2.6831   -1.2342   -0.3867 C   0  0  0  0  0  0  0  0  0  0  0  0
    2.0668   -2.4744   -0.9805 C   0  0  0  0  0  0  0  0  0  0  0  0
    5.9957    0.1405    0.4486 O   0  0  0  0  0  0  0  0  0  0  0  0
    5.9894    1.4545    1.0446 C   0  0  0  0  0  0  0  0  0  0  0  0
    4.6662    2.0032    1.2069 O   0  0  0  0  0  0  0  0  0  0  0  0
   -2.8099    1.3634   -0.1728 C   0  0  0  0  0  0  0  0  0  0  0  0
   -4.0408    3.6364   -1.3415 H   0  0  0  0  0  0  0  0  0  0  0  0
   -5.6731    3.9690   -0.7498 H   0  0  0  0  0  0  0  0  0  0  0  0
   -4.4028    3.6196    0.4294 H   0  0  0  0  0  0  0  0  0  0  0  0
   -5.6207   -0.4732   -0.6677 H   0  0  0  0  0  0  0  0  0  0  0  0
   -4.0366   -2.3157   -0.2674 H   0  0  0  0  0  0  0  0  0  0  0  0
    0.1293   -1.0714   -0.4760 H   0  0  0  0  0  0  0  0  0  0  0  0
    1.9872    1.8561    0.9711 H   0  0  0  0  0  0  0  0  0  0  0  0
    4.7135   -2.0095   -0.6046 H   0  0  0  0  0  0  0  0  0  0  0  0
    1.4181   -2.9637   -0.2470 H   0  0  0  0  0  0  0  0  0  0  0  0
    1.4889   -2.2214   -1.8752 H   0  0  0  0  0  0  0  0  0  0  0  0
    2.8295   -3.2013   -1.2800 H   0  0  0  0  0  0  0  0  0  0  0  0
    6.4682    1.3952    2.0288 H   0  0  0  0  0  0  0  0  0  0  0  0
    6.5741    2.1301    0.4095 H   0  0  0  0  0  0  0  0  0  0  0  0
   -2.4471    2.3878   -0.1552 H   0  0  0  0  0  0  0  0  0  0  0  0
  1  2  1  0
  2  3  1  0
  3  4  1  0
  4  5  2  0
  5  6  1  0
  6  7  1  0
  7  8  1  0
  8  9  1  0
  8 10  1  0
  8 11  1  0
  6 12  2  0
 12 13  1  0
 13 14  2  0
 13 15  1  0
 15 16  1  0
 16 17  1  0
 17 18  2  0
 18 19  1  0
 19 20  2  0
 20 21  1  0
 21 22  1  0
 19 23  1  0
 23 24  1  0
 24 25  1  0
 12 26  1  0
 26  3  2  0
 21 16  2  0
 25 18  1  0
  1 27  1  0
  1 28  1  0
  1 29  1  0
  4 30  1  0
  5 31  1  0
 15 32  1  0
 17 33  1  0
 20 34  1  0
 22 35  1  0
 22 36  1  0
 22 37  1  0
 24 38  1  0
 24 39  1  0
 26 40  1  0
M  END
$$$$
OCNT-2311914
     RDKit          3D

 53 56  0  0  0  0  0  0  0  0999 V2000
   -5.5631    1.9458   -2.0724 C   0  0  0  0  0  0  0  0  0  0  0  0
   -5.0067    1.2604   -0.9119 N   0  0  0  0  0  0  0  0  0  0  0  0
   -5.8709    1.2245    0.2730 C   0  0  0  0  0  0  0  0  0  0  0  0
   -5.3535    0.2136    1.2816 C   0  0  0  0  0  0  0  0  0  0  0  0
   -3.9729    0.6427    1.7453 C   0  0  0  0  0  0  0  0  0  0  0  0
   -3.0815    0.9973    0.5797 C   0  0  0  0  0  0  0  0  0  0  0  0
   -1.6929    1.0492    0.8072 C   0  0  0  0  0  0  0  0  0  0  0  0
   -0.8058    1.3859   -0.2193 C   0  0  0  0  0  0  0  0  0  0  0  0
    0.6765    1.4427    0.0404 C   0  0  0  0  0  0  0  0  0  0  0  0
    1.2652    0.1005    0.4505 C   0  0  0  0  0  0  0  0  0  0  0  0
    1.5938   -0.1187    1.6138 O   0  0  0  0  0  0  0  0  0  0  0  0
    1.3936   -0.7808   -0.6040 N   0  0  0  0  0  0  0  0  0  0  0  0
    2.0066   -2.0599   -0.6565 C   0  0  0  0  0  0  0  0  0  0  0  0
    1.7632   -2.7731   -1.8468 C   0  0  0  0  0  0  0  0  0  0  0  0
    2.3045   -4.0429   -2.0640 C   0  0  0  0  0  0  0  0  0  0  0  0
    3.1090   -4.6256   -1.0959 C   0  0  0  0  0  0  0  0  0  0  0  0
    3.3732   -3.9349    0.0845 C   0  0  0  0  0  0  0  0  0  0  0  0
    2.8333   -2.6602    0.3161 C   0  0  0  0  0  0  0  0  0  0  0  0
    3.2354   -2.0241    1.5325 N   0  0  0  0  0  0  0  0  0  0  0  0
    4.7780   -1.3185    1.5756 S   0  0  0  0  0  0  0  0  0  0  0  0
    4.9407   -0.7538    2.9017 O   0  0  0  0  0  0  0  0  0  0  0  0
    5.7657   -2.2248    1.0278 O   0  0  0  0  0  0  0  0  0  0  0  0
    4.7652    0.1208    0.5135 C   0  0  0  0  0  0  0  0  0  0  0  0
    4.4655    1.4451    0.7791 C   0  0  0  0  0  0  0  0  0  0  0  0
    4.5690    2.2736   -0.3794 C   0  0  0  0  0  0  0  0  0  0  0  0
    4.9444    1.5524   -1.4904 C   0  0  0  0  0  0  0  0  0  0  0  0
    5.1725   -0.1067   -1.1331 S   0  0  0  0  0  0  0  0  0  0  0  0
   -1.3281    1.6823   -1.4800 C   0  0  0  0  0  0  0  0  0  0  0  0
   -2.7105    1.6400   -1.7043 C   0  0  0  0  0  0  0  0  0  0  0  0
   -3.6241    1.3177   -0.6851 C   0  0  0  0  0  0  0  0  0  0  0  0
   -5.2051    1.4997   -3.0073 H   0  0  0  0  0  0  0  0  0  0  0  0
   -6.6543    1.8565   -2.0895 H   0  0  0  0  0  0  0  0  0  0  0  0
   -5.3187    3.0124   -2.0552 H   0  0  0  0  0  0  0  0  0  0  0  0
   -6.8856    0.9302   -0.0205 H   0  0  0  0  0  0  0  0  0  0  0  0
   -5.9377    2.2256    0.7196 H   0  0  0  0  0  0  0  0  0  0  0  0
   -6.0315    0.1440    2.1395 H   0  0  0  0  0  0  0  0  0  0  0  0
   -5.3045   -0.7819    0.8201 H   0  0  0  0  0  0  0  0  0  0  0  0
   -4.0537    1.5242    2.3957 H   0  0  0  0  0  0  0  0  0  0  0  0
   -3.5266   -0.1675    2.3353 H   0  0  0  0  0  0  0  0  0  0  0  0
   -1.3098    0.8228    1.8012 H   0  0  0  0  0  0  0  0  0  0  0  0
    1.2174    1.7991   -0.8456 H   0  0  0  0  0  0  0  0  0  0  0  0
    0.8787    2.1722    0.8331 H   0  0  0  0  0  0  0  0  0  0  0  0
    0.8879   -0.5149   -1.4407 H   0  0  0  0  0  0  0  0  0  0  0  0
    1.1370   -2.3517   -2.6302 H   0  0  0  0  0  0  0  0  0  0  0  0
    2.0980   -4.5736   -2.9903 H   0  0  0  0  0  0  0  0  0  0  0  0
    3.5403   -5.6108   -1.2564 H   0  0  0  0  0  0  0  0  0  0  0  0
    4.0183   -4.3938    0.8319 H   0  0  0  0  0  0  0  0  0  0  0  0
    2.5470   -1.3422    1.8828 H   0  0  0  0  0  0  0  0  0  0  0  0
    4.1893    1.7900    1.7694 H   0  0  0  0  0  0  0  0  0  0  0  0
    4.3852    3.3405   -0.3921 H   0  0  0  0  0  0  0  0  0  0  0  0
    5.1127    1.9196   -2.4943 H   0  0  0  0  0  0  0  0  0  0  0  0
   -0.6741    1.9590   -2.3060 H   0  0  0  0  0  0  0  0  0  0  0  0
   -3.0553    1.8707   -2.7094 H   0  0  0  0  0  0  0  0  0  0  0  0
  1  2  1  0
  2  3  1  0
  3  4  1  0
  4  5  1  0
  5  6  1  0
  6  7  1  0
  7  8  2  0
  8  9  1  0
  9 10  1  0
 10 11  2  0
 10 12  1  0
 12 13  1  0
 13 14  2  0
 14 15  1  0
 15 16  2  0
 16 17  1  0
 17 18  2  0
 18 19  1  0
 19 20  1  0
 20 21  2  0
 20 22  2  0
 20 23  1  0
 23 24  2  0
 24 25  1  0
 25 26  2  0
 26 27  1  0
  8 28  1  0
 28 29  2  0
 29 30  1  0
 30  2  1  0
 30  6  2  0
 18 13  1  0
 27 23  1  0
  1 31  1  0
  1 32  1  0
  1 33  1  0
  3 34  1  0
  3 35  1  0
  4 36  1  0
  4 37  1  0
  5 38  1  0
  5 39  1  0
  7 40  1  0
  9 41  1  0
  9 42  1  0
 12 43  1  0
 14 44  1  0
 15 45  1  0
 16 46  1  0
 17 47  1  0
 19 48  1  0
 24 49  1  0
 25 50  1  0
 26 51  1  0
 28 52  1  0
 29 53  1  0
M  END
$$$$
OCNT-2311918
     RDKit          3D

 49 51  0  0  0  0  0  0  0  0999 V2000
    6.8199    1.0209   -0.6860 C   0  0  0  0  0  0  0  0  0  0  0  0
    5.7226    0.2362    0.0287 C   0  0  0  0  0  0  0  0  0  0  0  0
    5.2263   -0.9244   -0.8404 C   0  0  0  0  0  0  0  0  0  0  0  0
    4.0996   -1.6869   -0.1499 C   0  0  0  0  0  0  0  0  0  0  0  0
    3.0136   -0.8044    0.2727 N   0  0  0  0  0  0  0  0  0  0  0  0
    1.7126   -1.2533    0.1004 C   0  0  0  0  0  0  0  0  0  0  0  0
    1.4241   -2.2292   -0.5876 O   0  0  0  0  0  0  0  0  0  0  0  0
    0.7523   -0.5161    0.7491 N   0  0  0  0  0  0  0  0  0  0  0  0
   -0.6512   -0.8834    0.6491 C   0  0  0  0  0  0  0  0  0  0  0  0
   -1.2622   -0.5180   -0.7106 C   0  0  0  0  0  0  0  0  0  0  0  0
   -1.3625    0.9879   -0.9434 C   0  0  0  0  0  0  0  0  0  0  0  0
   -2.6229    1.3965   -0.1787 C   0  0  0  0  0  0  0  0  0  0  0  0
   -3.4511    0.1835   -0.1471 N   0  0  0  0  0  0  0  0  0  0  0  0
   -4.8385    0.2343   -0.0634 C   0  0  0  0  0  0  0  0  0  0  0  0
   -5.6180   -0.7452   -0.7196 C   0  0  0  0  0  0  0  0  0  0  0  0
   -7.0192   -0.7507   -0.6931 C   0  0  0  0  0  0  0  0  0  0  0  0
   -7.7042    0.2251    0.0116 C   0  0  0  0  0  0  0  0  0  0  0  0
   -6.9826    1.1917    0.7002 C   0  0  0  0  0  0  0  0  0  0  0  0
   -5.5751    1.1953    0.6757 C   0  0  0  0  0  0  0  0  0  0  0  0
   -4.8441    2.4057    1.6841 Cl  0  0  0  0  0  0  0  0  0  0  0  0
   -2.7338   -0.9312   -0.7796 C   0  0  0  0  0  0  0  0  0  0  0  0
    3.4103    0.3692    1.0530 C   0  0  0  0  0  0  0  0  0  0  0  0
    4.5438    1.1472    0.3868 C   0  0  0  0  0  0  0  0  0  0  0  0
    7.6698    0.3719   -0.9218 H   0  0  0  0  0  0  0  0  0  0  0  0
    7.1863    1.8374   -0.0549 H   0  0  0  0  0  0  0  0  0  0  0  0
    6.4552    1.4549   -1.6231 H   0  0  0  0  0  0  0  0  0  0  0  0
    6.1450   -0.1733    0.9558 H   0  0  0  0  0  0  0  0  0  0  0  0
    6.0511   -1.6123   -1.0602 H   0  0  0  0  0  0  0  0  0  0  0  0
    4.8635   -0.5384   -1.8019 H   0  0  0  0  0  0  0  0  0  0  0  0
    4.4771   -2.1832    0.7526 H   0  0  0  0  0  0  0  0  0  0  0  0
    3.7351   -2.4736   -0.8183 H   0  0  0  0  0  0  0  0  0  0  0  0
    1.0391   -0.1967    1.6606 H   0  0  0  0  0  0  0  0  0  0  0  0
   -0.7347   -1.9624    0.8259 H   0  0  0  0  0  0  0  0  0  0  0  0
   -1.1678   -0.3770    1.4716 H   0  0  0  0  0  0  0  0  0  0  0  0
   -0.6926   -0.9955   -1.5151 H   0  0  0  0  0  0  0  0  0  0  0  0
   -0.4812    1.5501   -0.6215 H   0  0  0  0  0  0  0  0  0  0  0  0
   -1.5075    1.1832   -2.0136 H   0  0  0  0  0  0  0  0  0  0  0  0
   -3.1112    2.2340   -0.6889 H   0  0  0  0  0  0  0  0  0  0  0  0
   -2.3427    1.6906    0.8377 H   0  0  0  0  0  0  0  0  0  0  0  0
   -5.1448   -1.5374   -1.2934 H   0  0  0  0  0  0  0  0  0  0  0  0
   -7.5659   -1.5236   -1.2277 H   0  0  0  0  0  0  0  0  0  0  0  0
   -8.7901    0.2264    0.0383 H   0  0  0  0  0  0  0  0  0  0  0  0
   -7.5201    1.9415    1.2761 H   0  0  0  0  0  0  0  0  0  0  0  0
   -3.0269   -1.0243   -1.8330 H   0  0  0  0  0  0  0  0  0  0  0  0
   -2.9206   -1.8818   -0.2685 H   0  0  0  0  0  0  0  0  0  0  0  0
    3.7207    0.0104    2.0414 H   0  0  0  0  0  0  0  0  0  0  0  0
    2.5683    1.0518    1.1976 H   0  0  0  0  0  0  0  0  0  0  0  0
    4.8752    1.9509    1.0547 H   0  0  0  0  0  0  0  0  0  0  0  0
    4.1602    1.6256   -0.5241 H   0  0  0  0  0  0  0  0  0  0  0  0
  1  2  1  0
  2  3  1  0
  3  4  1  0
  4  5  1  0
  5  6  1  0
  6  7  2  0
  6  8  1  0
  8  9  1  0
  9 10  1  0
 10 11  1  0
 11 12  1  0
 12 13  1  0
 13 14  1  0
 14 15  2  0
 15 16  1  0
 16 17  2  0
 17 18  1  0
 18 19  2  0
 19 20  1  0
 13 21  1  0
  5 22  1  0
 22 23  1  0
 23  2  1  0
 21 10  1  0
 19 14  1  0
  1 24  1  0
  1 25  1  0
  1 26  1  0
  2 27  1  0
  3 28  1  0
  3 29  1  0
  4 30  1  0
  4 31  1  0
  8 32  1  0
  9 33  1  0
  9 34  1  0
 10 35  1  0
 11 36  1  0
 11 37  1  0
 12 38  1  0
 12 39  1  0
 15 40  1  0
 16 41  1  0
 17 42  1  0
 18 43  1  0
 21 44  1  0
 21 45  1  0
 22 46  1  0
 22 47  1  0
 23 48  1  0
 23 49  1  0
M  END
$$$$
OCNT-2311929
     RDKit          3D

 47 48  0  0  0  0  0  0  0  0999 V2000
   -4.0188    0.0074    1.8981 C   0  0  0  0  0  0  0  0  0  0  0  0
   -3.9489   -0.3725    0.3993 C   0  0  0  0  0  0  0  0  0  0  0  0
   -5.3154   -0.9953    0.0312 C   0  0  0  0  0  0  0  0  0  0  0  0
   -2.8494   -1.4613    0.2303 C   0  0  0  0  0  0  0  0  0  0  0  0
   -1.5034   -0.9692    0.4797 N   0  0  0  0  0  0  0  0  0  0  0  0
   -0.4709   -1.8475    0.7401 C   0  0  0  0  0  0  0  0  0  0  0  0
   -0.6346   -3.0474    0.9283 O   0  0  0  0  0  0  0  0  0  0  0  0
    0.8800   -1.1619    0.7943 C   0  0  0  0  0  0  0  0  0  0  0  0
    2.0213   -2.1596    0.9913 C   0  0  0  0  0  0  0  0  0  0  0  0
    3.3762   -1.4663    1.1047 C   0  0  0  0  0  0  0  0  0  0  0  0
    3.6121   -0.7298   -0.0937 O   0  0  0  0  0  0  0  0  0  0  0  0
    4.7157    0.0825   -0.1472 C   0  0  0  0  0  0  0  0  0  0  0  0
    5.7534    0.0536    0.7921 C   0  0  0  0  0  0  0  0  0  0  0  0
    6.8509    0.9070    0.6615 C   0  0  0  0  0  0  0  0  0  0  0  0
    6.9233    1.7938   -0.4103 C   0  0  0  0  0  0  0  0  0  0  0  0
    5.8984    1.8304   -1.3591 C   0  0  0  0  0  0  0  0  0  0  0  0
    6.0640    2.9584   -2.6605 Cl  0  0  0  0  0  0  0  0  0  0  0  0
    4.7929    0.9762   -1.2343 C   0  0  0  0  0  0  0  0  0  0  0  0
    3.5051    1.0142   -2.4019 Cl  0  0  0  0  0  0  0  0  0  0  0  0
   -3.6795    0.8209   -0.5283 C   0  0  0  0  0  0  0  0  0  0  0  0
   -3.5110    2.1258   -0.0641 C   0  0  0  0  0  0  0  0  0  0  0  0
   -3.2422    3.1973   -0.8480 N   0  0  0  0  0  0  0  0  0  0  0  0
   -3.1431    2.9762   -2.1731 C   0  0  0  0  0  0  0  0  0  0  0  0
   -3.2975    1.7311   -2.7503 C   0  0  0  0  0  0  0  0  0  0  0  0
   -3.5677    0.6474   -1.9179 C   0  0  0  0  0  0  0  0  0  0  0  0
   -4.8309    0.7173    2.0951 H   0  0  0  0  0  0  0  0  0  0  0  0
   -4.2059   -0.8762    2.5199 H   0  0  0  0  0  0  0  0  0  0  0  0
   -3.0845    0.4589    2.2507 H   0  0  0  0  0  0  0  0  0  0  0  0
   -5.3290   -1.3855   -0.9926 H   0  0  0  0  0  0  0  0  0  0  0  0
   -6.1216   -0.2565    0.1119 H   0  0  0  0  0  0  0  0  0  0  0  0
   -5.5611   -1.8309    0.6971 H   0  0  0  0  0  0  0  0  0  0  0  0
   -3.0445   -2.3044    0.9053 H   0  0  0  0  0  0  0  0  0  0  0  0
   -2.8465   -1.8741   -0.7858 H   0  0  0  0  0  0  0  0  0  0  0  0
   -1.2501   -0.0778    0.0669 H   0  0  0  0  0  0  0  0  0  0  0  0
    1.0191   -0.6068   -0.1406 H   0  0  0  0  0  0  0  0  0  0  0  0
    0.8633   -0.4434    1.6222 H   0  0  0  0  0  0  0  0  0  0  0  0
    1.8479   -2.7605    1.8918 H   0  0  0  0  0  0  0  0  0  0  0  0
    2.0371   -2.8499    0.1385 H   0  0  0  0  0  0  0  0  0  0  0  0
    4.1523   -2.2300    1.2306 H   0  0  0  0  0  0  0  0  0  0  0  0
    3.3711   -0.7958    1.9727 H   0  0  0  0  0  0  0  0  0  0  0  0
    5.7426   -0.6305    1.6353 H   0  0  0  0  0  0  0  0  0  0  0  0
    7.6531    0.8769    1.3959 H   0  0  0  0  0  0  0  0  0  0  0  0
    7.7830    2.4536   -0.5031 H   0  0  0  0  0  0  0  0  0  0  0  0
   -3.5801    2.3808    0.9892 H   0  0  0  0  0  0  0  0  0  0  0  0
   -2.9301    3.8534   -2.7769 H   0  0  0  0  0  0  0  0  0  0  0  0
   -3.2090    1.6041   -3.8235 H   0  0  0  0  0  0  0  0  0  0  0  0
   -3.6874   -0.3339   -2.3714 H   0  0  0  0  0  0  0  0  0  0  0  0
  1  2  1  0
  2  3  1  0
  2  4  1  0
  4  5  1  0
  5  6  1  0
  6  7  2  0
  6  8  1  0
  8  9  1  0
  9 10  1  0
 10 11  1  0
 11 12  1  0
 12 13  2  0
 13 14  1  0
 14 15  2  0
 15 16  1  0
 16 17  1  0
 16 18  2  0
 18 19  1  0
  2 20  1  0
 20 21  2  0
 21 22  1  0
 22 23  2  0
 23 24  1  0
 24 25  2  0
 18 12  1  0
 25 20  1  0
  1 26  1  0
  1 27  1  0
  1 28  1  0
  3 29  1  0
  3 30  1  0
  3 31  1  0
  4 32  1  0
  4 33  1  0
  5 34  1  0
  8 35  1  0
  8 36  1  0
  9 37  1  0
  9 38  1  0
 10 39  1  0
 10 40  1  0
 13 41  1  0
 14 42  1  0
 15 43  1  0
 21 44  1  0
 23 45  1  0
 24 46  1  0
 25 47  1  0
M  END
$$$$
OCNT-2311931
     RDKit          3D

 52 53  0  0  0  0  0  0  0  0999 V2000
    6.6827    2.1339   -0.0529 C   0  0  0  0  0  0  0  0  0  0  0  0
    5.5777    1.6454    0.8679 C   0  0  0  0  0  0  0  0  0  0  0  0
    4.5189    1.0423    0.1249 O   0  0  0  0  0  0  0  0  0  0  0  0
    4.6166   -0.2689   -0.2579 C   0  0  0  0  0  0  0  0  0  0  0  0
    5.6634   -1.1301    0.0817 C   0  0  0  0  0  0  0  0  0  0  0  0
    5.6443   -2.4589   -0.3468 C   0  0  0  0  0  0  0  0  0  0  0  0
    6.9403   -3.5095    0.0808 Cl  0  0  0  0  0  0  0  0  0  0  0  0
    4.5891   -2.9464   -1.1099 C   0  0  0  0  0  0  0  0  0  0  0  0
    3.5425   -2.0943   -1.4557 C   0  0  0  0  0  0  0  0  0  0  0  0
    3.5504   -0.7498   -1.0454 C   0  0  0  0  0  0  0  0  0  0  0  0
    2.3948    0.1411   -1.4336 C   0  0  0  0  0  0  0  0  0  0  0  0
    1.4602    0.2779   -0.3401 N   0  0  0  0  0  0  0  0  0  0  0  0
    0.2496    0.8772   -0.5708 C   0  0  0  0  0  0  0  0  0  0  0  0
   -0.1501    1.2283   -1.6712 O   0  0  0  0  0  0  0  0  0  0  0  0
   -0.4551    1.0241    0.5967 N   0  0  0  0  0  0  0  0  0  0  0  0
   -1.8131    1.5366    0.5921 C   0  0  0  0  0  0  0  0  0  0  0  0
   -2.8650    0.4804    0.1780 C   0  0  0  0  0  0  0  0  0  0  0  0
   -2.9920   -0.5916    1.2737 C   0  0  0  0  0  0  0  0  0  0  0  0
   -3.5257   -1.9355    0.7927 C   0  0  0  0  0  0  0  0  0  0  0  0
   -4.6790   -1.9040   -0.2006 C   0  0  0  0  0  0  0  0  0  0  0  0
   -5.6843   -0.7733    0.0015 C   0  0  0  0  0  0  0  0  0  0  0  0
   -5.2788    0.4450   -0.7059 N   0  0  0  0  0  0  0  0  0  0  0  0
   -6.4422    1.3129   -0.9214 C   0  0  0  0  0  0  0  0  0  0  0  0
   -4.2080    1.2124   -0.0540 C   0  0  0  0  0  0  0  0  0  0  0  0
    7.4486    2.6708    0.5142 H   0  0  0  0  0  0  0  0  0  0  0  0
    6.2756    2.8045   -0.8170 H   0  0  0  0  0  0  0  0  0  0  0  0
    7.1607    1.3041   -0.5819 H   0  0  0  0  0  0  0  0  0  0  0  0
    5.9501    0.9962    1.6674 H   0  0  0  0  0  0  0  0  0  0  0  0
    5.1413    2.5157    1.3714 H   0  0  0  0  0  0  0  0  0  0  0  0
    6.5066   -0.7992    0.6766 H   0  0  0  0  0  0  0  0  0  0  0  0
    4.5737   -3.9825   -1.4369 H   0  0  0  0  0  0  0  0  0  0  0  0
    2.7149   -2.4809   -2.0480 H   0  0  0  0  0  0  0  0  0  0  0  0
    2.7479    1.1381   -1.7227 H   0  0  0  0  0  0  0  0  0  0  0  0
    1.8685   -0.2648   -2.3062 H   0  0  0  0  0  0  0  0  0  0  0  0
    1.8817    0.5341    0.5402 H   0  0  0  0  0  0  0  0  0  0  0  0
   -0.1931    0.3894    1.3360 H   0  0  0  0  0  0  0  0  0  0  0  0
   -1.8393    2.3910   -0.0944 H   0  0  0  0  0  0  0  0  0  0  0  0
   -2.0182    1.9127    1.6008 H   0  0  0  0  0  0  0  0  0  0  0  0
   -2.5381    0.0148   -0.7607 H   0  0  0  0  0  0  0  0  0  0  0  0
   -3.6303   -0.2162    2.0842 H   0  0  0  0  0  0  0  0  0  0  0  0
   -2.0200   -0.7885    1.7409 H   0  0  0  0  0  0  0  0  0  0  0  0
   -3.8348   -2.5092    1.6760 H   0  0  0  0  0  0  0  0  0  0  0  0
   -2.7041   -2.5076    0.3429 H   0  0  0  0  0  0  0  0  0  0  0  0
   -4.2805   -1.8683   -1.2235 H   0  0  0  0  0  0  0  0  0  0  0  0
   -5.2067   -2.8643   -0.1320 H   0  0  0  0  0  0  0  0  0  0  0  0
   -6.6278   -1.1315   -0.4319 H   0  0  0  0  0  0  0  0  0  0  0  0
   -5.8855   -0.5882    1.0638 H   0  0  0  0  0  0  0  0  0  0  0  0
   -6.8868    1.6448    0.0239 H   0  0  0  0  0  0  0  0  0  0  0  0
   -6.1652    2.1988   -1.5041 H   0  0  0  0  0  0  0  0  0  0  0  0
   -7.2121    0.7927   -1.5026 H   0  0  0  0  0  0  0  0  0  0  0  0
   -3.9972    2.0779   -0.6966 H   0  0  0  0  0  0  0  0  0  0  0  0
   -4.5666    1.6203    0.9015 H   0  0  0  0  0  0  0  0  0  0  0  0
  1  2  1  0
  2  3  1  0
  3  4  1  0
  4  5  1  0
  5  6  2  0
  6  7  1  0
  6  8  1  0
  8  9  2  0
  9 10  1  0
 10 11  1  0
 11 12  1  0
 12 13  1  0
 13 14  2  0
 13 15  1  0
 15 16  1  0
 16 17  1  0
 17 18  1  0
 18 19  1  0
 19 20  1  0
 20 21  1  0
 21 22  1  0
 22 23  1  0
 22 24  1  0
 10  4  2  0
 24 17  1  0
  1 25  1  0
  1 26  1  0
  1 27  1  0
  2 28  1  0
  2 29  1  0
  5 30  1  0
  8 31  1  0
  9 32  1  0
 11 33  1  0
 11 34  1  0
 12 35  1  0
 15 36  1  0
 16 37  1  0
 16 38  1  0
 17 39  1  0
 18 40  1  0
 18 41  1  0
 19 42  1  0
 19 43  1  0
 20 44  1  0
 20 45  1  0
 21 46  1  0
 21 47  1  0
 23 48  1  0
 23 49  1  0
 23 50  1  0
 24 51  1  0
 24 52  1  0
M  END
$$$$
OCNT-2311937
     RDKit          3D

 47 49  0  0  0  0  0  0  0  0999 V2000
    2.7835    1.7621    0.6988 C   0  0  0  0  0  0  0  0  0  0  0  0
    2.7927    0.4437   -0.0714 C   0  0  1  0  0  0  0  0  0  0  0  0
    1.4497    0.1932   -0.7854 C   0  0  0  0  0  0  0  0  0  0  0  0
    0.3806   -0.2145    0.1113 N   0  0  0  0  0  0  0  0  0  0  0  0
   -0.5391    0.6810    0.6104 C   0  0  0  0  0  0  0  0  0  0  0  0
   -0.4841    1.8880    0.4040 O   0  0  0  0  0  0  0  0  0  0  0  0
   -1.5845    0.0345    1.4993 C   0  0  0  0  0  0  0  0  0  0  0  0
   -2.8370    0.8970    1.6589 C   0  0  0  0  0  0  0  0  0  0  0  0
   -3.7532    0.8188    0.4578 C   0  0  0  0  0  0  0  0  0  0  0  0
   -3.6706    1.8198   -0.5126 C   0  0  0  0  0  0  0  0  0  0  0  0
   -4.4194    1.8631   -1.6332 N   0  0  0  0  0  0  0  0  0  0  0  0
   -5.2975    0.8537   -1.8071 C   0  0  0  0  0  0  0  0  0  0  0  0
   -5.4730   -0.2092   -0.9211 C   0  0  0  0  0  0  0  0  0  0  0  0
   -6.4074   -1.2295   -1.1759 C   0  0  0  0  0  0  0  0  0  0  0  0
   -6.5693   -2.2846   -0.2811 C   0  0  0  0  0  0  0  0  0  0  0  0
   -5.8007   -2.3298    0.8750 C   0  0  0  0  0  0  0  0  0  0  0  0
   -4.8697   -1.3202    1.1370 C   0  0  0  0  0  0  0  0  0  0  0  0
   -4.6806   -0.2353    0.2486 C   0  0  0  0  0  0  0  0  0  0  0  0
    3.7961    0.5015   -1.0974 O   0  0  0  0  0  0  0  0  0  0  0  0
    5.0554    0.0486   -0.8256 C   0  0  0  0  0  0  0  0  0  0  0  0
    5.8760   -0.0848   -1.9507 C   0  0  0  0  0  0  0  0  0  0  0  0
    7.1928   -0.5339   -1.8258 C   0  0  0  0  0  0  0  0  0  0  0  0
    7.6947   -0.8456   -0.5662 C   0  0  0  0  0  0  0  0  0  0  0  0
    9.3146   -1.3995   -0.4014 Cl  0  0  0  0  0  0  0  0  0  0  0  0
    6.8911   -0.7067    0.5634 C   0  0  0  0  0  0  0  0  0  0  0  0
    5.5718   -0.2568    0.4341 C   0  0  0  0  0  0  0  0  0  0  0  0
    3.7685    1.9804    1.1231 H   0  0  0  0  0  0  0  0  0  0  0  0
    2.0603    1.7421    1.5187 H   0  0  0  0  0  0  0  0  0  0  0  0
    2.5409    2.5998    0.0355 H   0  0  0  0  0  0  0  0  0  0  0  0
    2.9665   -0.3995    0.6079 H   0  0  0  0  0  0  0  0  0  0  0  0
    1.5686   -0.6192   -1.5123 H   0  0  0  0  0  0  0  0  0  0  0  0
    1.1443    1.0774   -1.3575 H   0  0  0  0  0  0  0  0  0  0  0  0
    0.2555   -1.2037    0.2845 H   0  0  0  0  0  0  0  0  0  0  0  0
   -1.1160   -0.0973    2.4823 H   0  0  0  0  0  0  0  0  0  0  0  0
   -1.8351   -0.9600    1.1135 H   0  0  0  0  0  0  0  0  0  0  0  0
   -2.5695    1.9436    1.8535 H   0  0  0  0  0  0  0  0  0  0  0  0
   -3.3892    0.5828    2.5525 H   0  0  0  0  0  0  0  0  0  0  0  0
   -2.9670    2.6446   -0.4114 H   0  0  0  0  0  0  0  0  0  0  0  0
   -5.8813    0.9257   -2.7213 H   0  0  0  0  0  0  0  0  0  0  0  0
   -7.0166   -1.2053   -2.0772 H   0  0  0  0  0  0  0  0  0  0  0  0
   -7.2951   -3.0672   -0.4863 H   0  0  0  0  0  0  0  0  0  0  0  0
   -5.9249   -3.1493    1.5786 H   0  0  0  0  0  0  0  0  0  0  0  0
   -4.2930   -1.3955    2.0550 H   0  0  0  0  0  0  0  0  0  0  0  0
    5.4846    0.1630   -2.9349 H   0  0  0  0  0  0  0  0  0  0  0  0
    7.8150   -0.6340   -2.7106 H   0  0  0  0  0  0  0  0  0  0  0  0
    7.2853   -0.9404    1.5489 H   0  0  0  0  0  0  0  0  0  0  0  0
    4.9854   -0.1426    1.3393 H   0  0  0  0  0  0  0  0  0  0  0  0
  1  2  1  0
  2  3  1  0
  3  4  1  0
  4  5  1  0
  5  6  2  0
  5  7  1  0
  7  8  1  0
  8  9  1  0
  9 10  1  0
 10 11  2  0
 11 12  1  0
 12 13  2  0
 13 14  1  0
 14 15  2  0
 15 16  1  0
 16 17  2  0
 17 18  1  0
  2 19  1  0
 19 20  1  0
 20 21  1  0
 21 22  2  0
 22 23  1  0
 23 24  1  0
 23 25  2  0
 25 26  1  0
 18  9  2  0
 26 20  2  0
 18 13  1  0
  1 27  1  0
  1 28  1  0
  1 29  1  0
  2 30  1  1
  3 31  1  0
  3 32  1  0
  4 33  1  0
  7 34  1  0
  7 35  1  0
  8 36  1  0
  8 37  1  0
 10 38  1  0
 12 39  1  0
 14 40  1  0
 15 41  1  0
 16 42  1  0
 17 43  1  0
 21 44  1  0
 22 45  1  0
 25 46  1  0
 26 47  1  0
M  END
$$$$
OCNT-2311956
     RDKit          3D

 50 53  0  0  0  0  0  0  0  0999 V2000
    5.7905   -0.4052    2.9990 C   0  0  0  0  0  0  0  0  0  0  0  0
    5.3585    0.5895    1.9304 C   0  0  0  0  0  0  0  0  0  0  0  0
    5.8584    0.2249    0.5306 C   0  0  0  0  0  0  0  0  0  0  0  0
    5.2291   -1.0099   -0.0271 C   0  0  0  0  0  0  0  0  0  0  0  0
    5.9083   -2.1647   -0.0429 N   0  0  0  0  0  0  0  0  0  0  0  0
    5.0563   -3.0325   -0.6117 N   0  0  0  0  0  0  0  0  0  0  0  0
    3.8479   -2.4901   -0.9585 C   0  0  0  0  0  0  0  0  0  0  0  0
    2.7185   -3.0488   -1.5646 C   0  0  0  0  0  0  0  0  0  0  0  0
    1.6290   -2.1979   -1.7902 C   0  0  0  0  0  0  0  0  0  0  0  0
    1.6741   -0.8483   -1.4141 C   0  0  0  0  0  0  0  0  0  0  0  0
    0.5237    0.0676   -1.6457 C   0  0  0  0  0  0  0  0  0  0  0  0
    0.7151    1.2628   -1.8316 O   0  0  0  0  0  0  0  0  0  0  0  0
   -0.7318   -0.4982   -1.5874 N   0  0  0  0  0  0  0  0  0  0  0  0
   -1.9361    0.2819   -1.8225 C   0  0  0  0  0  0  0  0  0  0  0  0
   -2.1789    1.3750   -0.7704 C   0  0  0  0  0  0  0  0  0  0  0  0
   -3.5963    1.7195   -0.6483 N   0  0  0  0  0  0  0  0  0  0  0  0
   -4.1087    2.6930   -1.4987 C   0  0  0  0  0  0  0  0  0  0  0  0
   -3.4511    3.2518   -2.3760 O   0  0  0  0  0  0  0  0  0  0  0  0
   -5.5484    3.0946   -1.2102 C   0  0  0  0  0  0  0  0  0  0  0  0
   -6.4407    2.0971   -0.7563 O   0  0  0  0  0  0  0  0  0  0  0  0
   -5.8627    1.2088    0.1089 C   0  0  0  0  0  0  0  0  0  0  0  0
   -6.7619    0.4697    0.8831 C   0  0  0  0  0  0  0  0  0  0  0  0
   -6.2941   -0.4908    1.7743 C   0  0  0  0  0  0  0  0  0  0  0  0
   -4.9265   -0.7206    1.8801 C   0  0  0  0  0  0  0  0  0  0  0  0
   -4.0260    0.0070    1.0932 C   0  0  0  0  0  0  0  0  0  0  0  0
   -4.4794    0.9857    0.1961 C   0  0  0  0  0  0  0  0  0  0  0  0
    2.8301   -0.3096   -0.8245 C   0  0  0  0  0  0  0  0  0  0  0  0
    3.9305   -1.1530   -0.5888 C   0  0  0  0  0  0  0  0  0  0  0  0
    5.4719   -0.0570    3.9868 H   0  0  0  0  0  0  0  0  0  0  0  0
    6.8793   -0.5166    3.0146 H   0  0  0  0  0  0  0  0  0  0  0  0
    5.3440   -1.3904    2.8336 H   0  0  0  0  0  0  0  0  0  0  0  0
    5.7562    1.5764    2.1957 H   0  0  0  0  0  0  0  0  0  0  0  0
    4.2654    0.6750    1.9379 H   0  0  0  0  0  0  0  0  0  0  0  0
    5.6433    1.0607   -0.1474 H   0  0  0  0  0  0  0  0  0  0  0  0
    6.9506    0.1184    0.5447 H   0  0  0  0  0  0  0  0  0  0  0  0
    5.3633   -3.9898   -0.7378 H   0  0  0  0  0  0  0  0  0  0  0  0
    2.6869   -4.0922   -1.8622 H   0  0  0  0  0  0  0  0  0  0  0  0
    0.7559   -2.6037   -2.2952 H   0  0  0  0  0  0  0  0  0  0  0  0
   -0.8382   -1.4608   -1.2995 H   0  0  0  0  0  0  0  0  0  0  0  0
   -2.7634   -0.4359   -1.8418 H   0  0  0  0  0  0  0  0  0  0  0  0
   -1.8655    0.7312   -2.8198 H   0  0  0  0  0  0  0  0  0  0  0  0
   -1.7705    1.1033    0.2076 H   0  0  0  0  0  0  0  0  0  0  0  0
   -1.6250    2.2763   -1.0625 H   0  0  0  0  0  0  0  0  0  0  0  0
   -5.5313    3.9142   -0.4814 H   0  0  0  0  0  0  0  0  0  0  0  0
   -5.9682    3.4939   -2.1403 H   0  0  0  0  0  0  0  0  0  0  0  0
   -7.8302    0.6478    0.7884 H   0  0  0  0  0  0  0  0  0  0  0  0
   -6.9946   -1.0595    2.3804 H   0  0  0  0  0  0  0  0  0  0  0  0
   -4.5558   -1.4712    2.5745 H   0  0  0  0  0  0  0  0  0  0  0  0
   -2.9727   -0.2215    1.2137 H   0  0  0  0  0  0  0  0  0  0  0  0
    2.8711    0.7421   -0.5523 H   0  0  0  0  0  0  0  0  0  0  0  0
  1  2  1  0
  2  3  1  0
  3  4  1  0
  4  5  2  0
  5  6  1  0
  6  7  1  0
  7  8  2  0
  8  9  1  0
  9 10  2  0
 10 11  1  0
 11 12  2  0
 11 13  1  0
 13 14  1  0
 14 15  1  0
 15 16  1  0
 16 17  1  0
 17 18  2  0
 17 19  1  0
 19 20  1  0
 20 21  1  0
 21 22  2  0
 22 23  1  0
 23 24  2  0
 24 25  1  0
 25 26  2  0
 10 27  1  0
 27 28  2  0
 28  4  1  0
 28  7  1  0
 26 16  1  0
 26 21  1  0
  1 29  1  0
  1 30  1  0
  1 31  1  0
  2 32  1  0
  2 33  1  0
  3 34  1  0
  3 35  1  0
  6 36  1  0
  8 37  1  0
  9 38  1  0
 13 39  1  0
 14 40  1  0
 14 41  1  0
 15 42  1  0
 15 43  1  0
 19 44  1  0
 19 45  1  0
 22 46  1  0
 23 47  1  0
 24 48  1  0
 25 49  1  0
 27 50  1  0
M  END
$$$$
OCNT-2311962
     RDKit          3D

  0  0  0  0  0  0  0  0  0  0999 V3000
M  V30 BEGIN CTAB
M  V30 COUNTS 47 50 0 0 0
M  V30 BEGIN ATOM
M  V30 1 O -1.415179 -0.532301 -1.067717 0
M  V30 2 C -1.629838 -0.363155 0.133201 0
M  V30 3 N -0.616961 -0.062916 1.025719 0
M  V30 4 C 0.708448 0.316415 0.567241 0 CFG=2
M  V30 5 C 1.468636 -0.795893 -0.151654 0
M  V30 6 C 2.907676 -0.272885 -0.161367 0
M  V30 7 C 3.927710 -1.387088 -0.395929 0
M  V30 8 N 5.282382 -0.891597 -0.532720 0
M  V30 9 C 5.827332 -0.330262 -1.652892 0
M  V30 10 C 7.120827 -0.022393 -1.300007 0
M  V30 11 N 7.373100 -0.393647 -0.003761 0
M  V30 12 C 6.251649 -0.924937 0.428181 0
M  V30 13 C 3.065780 0.466857 1.179254 0
M  V30 14 C 1.650672 0.630896 1.739601 0 CFG=1
M  V30 15 O 1.419555 1.936949 2.243606 0
M  V30 16 C -3.036688 -0.446928 0.802675 0
M  V30 17 C -4.155800 -1.206667 0.022078 0
M  V30 18 C -4.707612 0.137047 -0.371259 0
M  V30 19 C -3.924372 0.833366 0.718040 0
M  V30 20 C -6.196095 0.348785 -0.448420 0
M  V30 21 C -5.920791 1.296628 -1.651258 0
M  V30 22 F -6.752443 1.156977 -2.707149 0
M  V30 23 F -5.892679 2.614840 -1.343229 0
M  V30 24 C -4.528072 0.620639 -1.792521 0
M  V30 25 H -0.907607 0.336357 1.910486 0
M  V30 26 H 0.591557 1.193620 -0.081991 0
M  V30 27 H 1.391708 -1.741725 0.400354 0
M  V30 28 H 1.102817 -0.971493 -1.167747 0
M  V30 29 H 2.994192 0.470732 -0.966484 0
M  V30 30 H 3.694498 -1.933384 -1.318270 0
M  V30 31 H 3.916714 -2.113838 0.425309 0
M  V30 32 H 5.274741 -0.195222 -2.572305 0
M  V30 33 H 7.883886 0.443543 -1.910299 0
M  V30 34 H 6.093004 -1.337628 1.415958 0
M  V30 35 H 3.564856 1.431604 1.031744 0
M  V30 36 H 3.672177 -0.103064 1.892006 0
M  V30 37 H 1.493640 -0.079140 2.561392 0
M  V30 38 H 2.132227 2.142726 2.874111 0
M  V30 39 H -2.955227 -0.821475 1.833814 0
M  V30 40 H -3.817675 -1.852255 -0.793838 0
M  V30 41 H -4.812634 -1.793849 0.675159 0
M  V30 42 H -4.488070 1.023859 1.638520 0
M  V30 43 H -3.403852 1.753575 0.434753 0
M  V30 44 H -6.772414 -0.541297 -0.723193 0
M  V30 45 H -6.668908 0.822719 0.415906 0
M  V30 46 H -4.508620 -0.170910 -2.549975 0
M  V30 47 H -3.698246 1.307815 -1.979461 0
M  V30 END ATOM
M  V30 BEGIN BOND
M  V30 1 2 1 2
M  V30 2 1 2 3
M  V30 3 1 3 4
M  V30 4 1 4 5
M  V30 5 1 5 6
M  V30 6 1 6 7
M  V30 7 1 7 8
M  V30 8 1 8 9
M  V30 9 2 9 10
M  V30 10 1 10 11
M  V30 11 2 11 12
M  V30 12 1 6 13
M  V30 13 1 13 14
M  V30 14 1 14 15
M  V30 15 1 2 16
M  V30 16 1 16 17
M  V30 17 1 17 18
M  V30 18 1 18 19
M  V30 19 1 18 20
M  V30 20 1 20 21
M  V30 21 1 21 22
M  V30 22 1 21 23
M  V30 23 1 21 24
M  V30 24 1 14 4
M  V30 25 1 19 16
M  V30 26 1 12 8
M  V30 27 1 24 18
M  V30 28 1 3 25
M  V30 29 1 4 26 CFG=3
M  V30 30 1 5 27
M  V30 31 1 5 28
M  V30 32 1 6 29
M  V30 33 1 7 30
M  V30 34 1 7 31
M  V30 35 1 9 32
M  V30 36 1 10 33
M  V30 37 1 12 34
M  V30 38 1 13 35
M  V30 39 1 13 36
M  V30 40 1 14 37 CFG=1
M  V30 41 1 15 38
M  V30 42 1 16 39
M  V30 43 1 17 40
M  V30 44 1 17 41
M  V30 45 1 19 42
M  V30 46 1 19 43
M  V30 47 1 20 44
M  V30 48 1 20 45
M  V30 49 1 24 46
M  V30 50 1 24 47
M  V30 END BOND
M  V30 BEGIN COLLECTION
M  V30 MDLV30/STERAC1 ATOMS=(2 4 14)
M  V30 END COLLECTION
M  V30 END CTAB
M  END
>  <_CXSMILES_Data>  (554) 
|&1:3,13|

$$$$
OCNT-2311967
     RDKit          3D

 43 45  0  0  0  0  0  0  0  0999 V2000
    3.4941    0.0361   -2.6075 O   0  0  0  0  0  0  0  0  0  0  0  0
    3.0919   -0.2890   -1.2716 C   0  0  1  0  0  0  0  0  0  0  0  0
    2.4408   -1.6850   -1.2430 C   0  0  0  0  0  0  0  0  0  0  0  0
    1.0893   -1.6430   -1.7207 O   0  0  0  0  0  0  0  0  0  0  0  0
    0.0966   -1.2834   -0.8538 C   0  0  0  0  0  0  0  0  0  0  0  0
   -1.1743   -1.2118   -1.4292 C   0  0  0  0  0  0  0  0  0  0  0  0
   -2.2930   -0.8531   -0.6686 C   0  0  0  0  0  0  0  0  0  0  0  0
   -2.1492   -0.5684    0.6865 C   0  0  0  0  0  0  0  0  0  0  0  0
   -3.1461   -0.1950    1.5437 O   0  0  0  0  0  0  0  0  0  0  0  0
   -4.5006   -0.4257    1.1440 C   0  0  0  0  0  0  0  0  0  0  0  0
   -5.0990    0.7198    0.3712 C   0  0  0  0  0  0  0  0  0  0  0  0
   -4.6623    2.0397    0.5152 C   0  0  0  0  0  0  0  0  0  0  0  0
   -5.2787    3.0562   -0.2090 C   0  0  0  0  0  0  0  0  0  0  0  0
   -6.3262    2.7205   -1.0496 C   0  0  0  0  0  0  0  0  0  0  0  0
   -6.7892    1.4620   -1.2042 N   0  0  0  0  0  0  0  0  0  0  0  0
   -6.1704    0.4957   -0.4888 C   0  0  0  0  0  0  0  0  0  0  0  0
   -0.8774   -0.6281    1.2607 C   0  0  0  0  0  0  0  0  0  0  0  0
    0.2412   -0.9877    0.4996 C   0  0  0  0  0  0  0  0  0  0  0  0
    4.3008   -0.2065   -0.3620 C   0  0  0  0  0  0  0  0  0  0  0  0
    5.4815   -0.9042   -0.6664 C   0  0  0  0  0  0  0  0  0  0  0  0
    6.5885   -0.8319    0.1820 C   0  0  0  0  0  0  0  0  0  0  0  0
    6.5221   -0.0638    1.3416 C   0  0  0  0  0  0  0  0  0  0  0  0
    7.8849    0.0259    2.3878 Cl  0  0  0  0  0  0  0  0  0  0  0  0
    5.3586    0.6337    1.6593 C   0  0  0  0  0  0  0  0  0  0  0  0
    4.2511    0.5630    0.8104 C   0  0  0  0  0  0  0  0  0  0  0  0
    4.0793    0.8108   -2.5480 H   0  0  0  0  0  0  0  0  0  0  0  0
    2.3619    0.4771   -0.9880 H   0  0  0  0  0  0  0  0  0  0  0  0
    2.9784   -2.3490   -1.9313 H   0  0  0  0  0  0  0  0  0  0  0  0
    2.4915   -2.1664   -0.2595 H   0  0  0  0  0  0  0  0  0  0  0  0
   -1.2953   -1.4301   -2.4883 H   0  0  0  0  0  0  0  0  0  0  0  0
   -3.2501   -0.7910   -1.1747 H   0  0  0  0  0  0  0  0  0  0  0  0
   -4.5968   -1.3794    0.6095 H   0  0  0  0  0  0  0  0  0  0  0  0
   -5.0800   -0.5350    2.0688 H   0  0  0  0  0  0  0  0  0  0  0  0
   -3.8398    2.2804    1.1849 H   0  0  0  0  0  0  0  0  0  0  0  0
   -4.9496    4.0852   -0.1183 H   0  0  0  0  0  0  0  0  0  0  0  0
   -6.8381    3.4781   -1.6360 H   0  0  0  0  0  0  0  0  0  0  0  0
   -6.5792   -0.5010   -0.6351 H   0  0  0  0  0  0  0  0  0  0  0  0
   -0.7551   -0.3985    2.3167 H   0  0  0  0  0  0  0  0  0  0  0  0
    1.1999   -1.0252    1.0034 H   0  0  0  0  0  0  0  0  0  0  0  0
    5.5439   -1.5058   -1.5726 H   0  0  0  0  0  0  0  0  0  0  0  0
    7.4961   -1.3750   -0.0681 H   0  0  0  0  0  0  0  0  0  0  0  0
    5.3078    1.2337    2.5641 H   0  0  0  0  0  0  0  0  0  0  0  0
    3.3502    1.1152    1.0725 H   0  0  0  0  0  0  0  0  0  0  0  0
  1  2  1  0
  2  3  1  0
  3  4  1  0
  4  5  1  0
  5  6  1  0
  6  7  2  0
  7  8  1  0
  8  9  1  0
  9 10  1  0
 10 11  1  0
 11 12  1  0
 12 13  2  0
 13 14  1  0
 14 15  2  0
 15 16  1  0
  8 17  2  0
 17 18  1  0
  2 19  1  0
 19 20  1  0
 20 21  2  0
 21 22  1  0
 22 23  1  0
 22 24  2  0
 24 25  1  0
 18  5  2  0
 25 19  2  0
 16 11  2  0
  1 26  1  0
  2 27  1  1
  3 28  1  0
  3 29  1  0
  6 30  1  0
  7 31  1  0
 10 32  1  0
 10 33  1  0
 12 34  1  0
 13 35  1  0
 14 36  1  0
 16 37  1  0
 17 38  1  0
 18 39  1  0
 20 40  1  0
 21 41  1  0
 24 42  1  0
 25 43  1  0
M  END
$$$$
OCNT-2311971
     RDKit          3D

 38 40  0  0  0  0  0  0  0  0999 V2000
   -2.1055    2.6672   -1.2478 C   0  0  0  0  0  0  0  0  0  0  0  0
   -1.4024    1.5158   -0.7974 O   0  0  0  0  0  0  0  0  0  0  0  0
   -2.1549    0.4857   -0.2786 C   0  0  0  0  0  0  0  0  0  0  0  0
   -3.5486    0.4949   -0.1540 C   0  0  0  0  0  0  0  0  0  0  0  0
   -4.2208   -0.6025    0.4026 C   0  0  0  0  0  0  0  0  0  0  0  0
   -5.7181   -0.6047    0.5042 C   0  0  0  0  0  0  0  0  0  0  0  0
   -3.4845   -1.7190    0.8101 C   0  0  0  0  0  0  0  0  0  0  0  0
   -2.0927   -1.7368    0.6890 C   0  0  0  0  0  0  0  0  0  0  0  0
   -1.4207   -0.6414    0.1472 C   0  0  0  0  0  0  0  0  0  0  0  0
   -0.0180   -0.5838   -0.0037 N   0  0  0  0  0  0  0  0  0  0  0  0
    0.9158   -1.5417    0.3233 C   0  0  0  0  0  0  0  0  0  0  0  0
    0.7167   -2.6653    0.7649 O   0  0  0  0  0  0  0  0  0  0  0  0
    2.3142   -1.1325    0.0424 C   0  0  0  0  0  0  0  0  0  0  0  0
    3.0220   -1.9301   -0.8686 C   0  0  0  0  0  0  0  0  0  0  0  0
    4.3226   -1.5916   -1.2250 C   0  0  0  0  0  0  0  0  0  0  0  0
    4.9188   -0.4609   -0.6692 C   0  0  0  0  0  0  0  0  0  0  0  0
    4.2277    0.3348    0.2639 C   0  0  0  0  0  0  0  0  0  0  0  0
    4.8153    1.4617    0.8447 C   0  0  0  0  0  0  0  0  0  0  0  0
    4.2180    2.2587    1.7590 N   0  0  0  0  0  0  0  0  0  0  0  0
    2.9726    1.9129    2.1332 C   0  0  0  0  0  0  0  0  0  0  0  0
    2.2909    0.8200    1.6215 C   0  0  0  0  0  0  0  0  0  0  0  0
    2.9098    0.0053    0.6481 C   0  0  0  0  0  0  0  0  0  0  0  0
   -2.7836    2.4191   -2.0708 H   0  0  0  0  0  0  0  0  0  0  0  0
   -1.3679    3.3801   -1.6288 H   0  0  0  0  0  0  0  0  0  0  0  0
   -2.6398    3.1509   -0.4235 H   0  0  0  0  0  0  0  0  0  0  0  0
   -4.1384    1.3449   -0.4812 H   0  0  0  0  0  0  0  0  0  0  0  0
   -6.0530   -1.2279    1.3401 H   0  0  0  0  0  0  0  0  0  0  0  0
   -6.0983    0.4068    0.6816 H   0  0  0  0  0  0  0  0  0  0  0  0
   -6.1551   -0.9908   -0.4218 H   0  0  0  0  0  0  0  0  0  0  0  0
   -3.9873   -2.5890    1.2278 H   0  0  0  0  0  0  0  0  0  0  0  0
   -1.5613   -2.6220    1.0237 H   0  0  0  0  0  0  0  0  0  0  0  0
    0.3079    0.2807   -0.4278 H   0  0  0  0  0  0  0  0  0  0  0  0
    2.5518   -2.8113   -1.3013 H   0  0  0  0  0  0  0  0  0  0  0  0
    4.8711   -2.2067   -1.9343 H   0  0  0  0  0  0  0  0  0  0  0  0
    5.9373   -0.2082   -0.9595 H   0  0  0  0  0  0  0  0  0  0  0  0
    5.8262    1.7657    0.5835 H   0  0  0  0  0  0  0  0  0  0  0  0
    2.5175    2.5537    2.8834 H   0  0  0  0  0  0  0  0  0  0  0  0
    1.2945    0.6073    1.9976 H   0  0  0  0  0  0  0  0  0  0  0  0
  1  2  1  0
  2  3  1  0
  3  4  1  0
  4  5  2  0
  5  6  1  0
  5  7  1  0
  7  8  2  0
  8  9  1  0
  9 10  1  0
 10 11  1  0
 11 12  2  0
 11 13  1  0
 13 14  2  0
 14 15  1  0
 15 16  2  0
 16 17  1  0
 17 18  2  0
 18 19  1  0
 19 20  2  0
 20 21  1  0
 21 22  2  0
  9  3  2  0
 22 13  1  0
 22 17  1  0
  1 23  1  0
  1 24  1  0
  1 25  1  0
  4 26  1  0
  6 27  1  0
  6 28  1  0
  6 29  1  0
  7 30  1  0
  8 31  1  0
 10 32  1  0
 14 33  1  0
 15 34  1  0
 16 35  1  0
 18 36  1  0
 20 37  1  0
 21 38  1  0
M  END
$$$$
OCNT-2311975
     RDKit          3D

 41 43  0  0  0  0  0  0  0  0999 V2000
    7.0976   -1.9841    1.3512 C   0  0  0  0  0  0  0  0  0  0  0  0
    6.4124   -2.4903   -0.2490 S   0  0  0  0  0  0  0  0  0  0  0  0
    5.2368   -1.1767   -0.5147 C   0  0  0  0  0  0  0  0  0  0  0  0
    3.9021   -1.5022   -0.7708 C   0  0  0  0  0  0  0  0  0  0  0  0
    2.9501   -0.4990   -0.9948 C   0  0  0  0  0  0  0  0  0  0  0  0
    3.3280    0.8423   -0.9746 C   0  0  0  0  0  0  0  0  0  0  0  0
    2.5128    1.9208   -1.1698 O   0  0  0  0  0  0  0  0  0  0  0  0
    1.1395    1.6954   -1.4792 C   0  0  0  0  0  0  0  0  0  0  0  0
    0.2972    1.5488   -0.2158 C   0  0  0  0  0  0  0  0  0  0  0  0
   -1.0729    1.3521   -0.5951 O   0  0  0  0  0  0  0  0  0  0  0  0
   -1.9214    1.1868    0.4522 C   0  0  0  0  0  0  0  0  0  0  0  0
   -1.6101    1.1932    1.6301 O   0  0  0  0  0  0  0  0  0  0  0  0
   -3.2906    0.9656   -0.0607 C   0  0  0  0  0  0  0  0  0  0  0  0
   -3.7181    1.7229   -1.1483 C   0  0  0  0  0  0  0  0  0  0  0  0
   -4.9478    1.6334   -1.7008 N   0  0  0  0  0  0  0  0  0  0  0  0
   -5.7939    0.7457   -1.1336 C   0  0  0  0  0  0  0  0  0  0  0  0
   -5.4819   -0.0662   -0.0398 C   0  0  0  0  0  0  0  0  0  0  0  0
   -6.4217   -0.9691    0.4892 C   0  0  0  0  0  0  0  0  0  0  0  0
   -6.0979   -1.7782    1.5759 C   0  0  0  0  0  0  0  0  0  0  0  0
   -4.8331   -1.6948    2.1438 C   0  0  0  0  0  0  0  0  0  0  0  0
   -3.8911   -0.8012    1.6267 C   0  0  0  0  0  0  0  0  0  0  0  0
   -4.1893    0.0396    0.5256 C   0  0  0  0  0  0  0  0  0  0  0  0
    4.6651    1.1663   -0.7314 C   0  0  0  0  0  0  0  0  0  0  0  0
    5.6162    0.1662   -0.5080 C   0  0  0  0  0  0  0  0  0  0  0  0
    6.2983   -1.8411    2.0837 H   0  0  0  0  0  0  0  0  0  0  0  0
    7.6745   -1.0608    1.2551 H   0  0  0  0  0  0  0  0  0  0  0  0
    7.7657   -2.7689    1.7163 H   0  0  0  0  0  0  0  0  0  0  0  0
    3.5876   -2.5435   -0.7951 H   0  0  0  0  0  0  0  0  0  0  0  0
    1.9278   -0.8101   -1.1788 H   0  0  0  0  0  0  0  0  0  0  0  0
    0.7896    2.5809   -2.0244 H   0  0  0  0  0  0  0  0  0  0  0  0
    0.9920    0.8668   -2.1822 H   0  0  0  0  0  0  0  0  0  0  0  0
    0.6426    0.6973    0.3812 H   0  0  0  0  0  0  0  0  0  0  0  0
    0.3894    2.4546    0.3959 H   0  0  0  0  0  0  0  0  0  0  0  0
   -3.0700    2.4567   -1.6213 H   0  0  0  0  0  0  0  0  0  0  0  0
   -6.7740    0.7020   -1.6038 H   0  0  0  0  0  0  0  0  0  0  0  0
   -7.4167   -1.0482    0.0551 H   0  0  0  0  0  0  0  0  0  0  0  0
   -6.8317   -2.4720    1.9783 H   0  0  0  0  0  0  0  0  0  0  0  0
   -4.5737   -2.3226    2.9930 H   0  0  0  0  0  0  0  0  0  0  0  0
   -2.9134   -0.7705    2.1048 H   0  0  0  0  0  0  0  0  0  0  0  0
    4.9728    2.2094   -0.7225 H   0  0  0  0  0  0  0  0  0  0  0  0
    6.6511    0.4528   -0.3436 H   0  0  0  0  0  0  0  0  0  0  0  0
  1  2  1  0
  2  3  1  0
  3  4  1  0
  4  5  2  0
  5  6  1  0
  6  7  1  0
  7  8  1  0
  8  9  1  0
  9 10  1  0
 10 11  1  0
 11 12  2  0
 11 13  1  0
 13 14  1  0
 14 15  2  0
 15 16  1  0
 16 17  2  0
 17 18  1  0
 18 19  2  0
 19 20  1  0
 20 21  2  0
 21 22  1  0
  6 23  2  0
 23 24  1  0
 24  3  2  0
 22 13  2  0
 22 17  1  0
  1 25  1  0
  1 26  1  0
  1 27  1  0
  4 28  1  0
  5 29  1  0
  8 30  1  0
  8 31  1  0
  9 32  1  0
  9 33  1  0
 14 34  1  0
 16 35  1  0
 18 36  1  0
 19 37  1  0
 20 38  1  0
 21 39  1  0
 23 40  1  0
 24 41  1  0
M  END
$$$$
OCNT-2311986
     RDKit          3D

 48 51  0  0  0  0  0  0  0  0999 V2000
    8.2832    1.6709    0.6988 C   0  0  0  0  0  0  0  0  0  0  0  0
    7.0243    1.0519    0.1749 C   0  0  0  0  0  0  0  0  0  0  0  0
    6.9297    0.6325   -1.1555 C   0  0  0  0  0  0  0  0  0  0  0  0
    5.7366    0.0875   -1.6474 C   0  0  0  0  0  0  0  0  0  0  0  0
    4.5983   -0.0531   -0.8299 C   0  0  0  0  0  0  0  0  0  0  0  0
    3.3255   -0.6271   -1.3262 C   0  0  0  0  0  0  0  0  0  0  0  0
    3.2429   -1.4814   -2.4230 C   0  0  0  0  0  0  0  0  0  0  0  0
    1.9980   -1.9600   -2.8189 C   0  0  0  0  0  0  0  0  0  0  0  0
    0.8659   -1.5822   -2.1066 C   0  0  0  0  0  0  0  0  0  0  0  0
    1.0141   -0.7423   -1.0112 C   0  0  0  0  0  0  0  0  0  0  0  0
   -0.1415   -0.3968   -0.3061 N   0  0  0  0  0  0  0  0  0  0  0  0
   -0.1970    0.3853    0.8302 C   0  0  0  0  0  0  0  0  0  0  0  0
    0.7521    0.8971    1.4114 O   0  0  0  0  0  0  0  0  0  0  0  0
   -1.5485    0.5454    1.3142 C   0  0  0  0  0  0  0  0  0  0  0  0
   -2.0621    1.1960    2.4098 C   0  0  0  0  0  0  0  0  0  0  0  0
   -3.4248    1.0440    2.4513 N   0  0  0  0  0  0  0  0  0  0  0  0
   -3.7060    0.3222    1.3879 C   0  0  0  0  0  0  0  0  0  0  0  0
   -4.9076   -0.1200    0.9687 N   0  0  0  0  0  0  0  0  0  0  0  0
   -5.0877   -0.7622   -0.3310 C   0  0  0  0  0  0  0  0  0  0  0  0
   -6.3670   -1.6308   -0.3269 C   0  0  0  0  0  0  0  0  0  0  0  0
   -7.6158   -0.9421    0.0641 N   0  0  0  0  0  0  0  0  0  0  0  0
   -7.3444    0.3296    0.7533 C   0  0  0  0  0  0  0  0  0  0  0  0
   -6.1075    0.3232    1.6806 C   0  0  0  0  0  0  0  0  0  0  0  0
   -2.6073   -0.0185    0.6429 O   0  0  0  0  0  0  0  0  0  0  0  0
    2.2133   -0.2745   -0.6313 N   0  0  0  0  0  0  0  0  0  0  0  0
    4.7101    0.3981    0.5006 C   0  0  0  0  0  0  0  0  0  0  0  0
    5.8997    0.9426    0.9969 C   0  0  0  0  0  0  0  0  0  0  0  0
    8.2071    2.7611    0.6627 H   0  0  0  0  0  0  0  0  0  0  0  0
    8.4644    1.3642    1.7330 H   0  0  0  0  0  0  0  0  0  0  0  0
    9.1506    1.3592    0.1084 H   0  0  0  0  0  0  0  0  0  0  0  0
    7.7812    0.7313   -1.8257 H   0  0  0  0  0  0  0  0  0  0  0  0
    5.7109   -0.2035   -2.6958 H   0  0  0  0  0  0  0  0  0  0  0  0
    4.1278   -1.7931   -2.9667 H   0  0  0  0  0  0  0  0  0  0  0  0
    1.9147   -2.6252   -3.6730 H   0  0  0  0  0  0  0  0  0  0  0  0
   -0.1066   -1.9530   -2.4095 H   0  0  0  0  0  0  0  0  0  0  0  0
   -1.0228   -0.7613   -0.6386 H   0  0  0  0  0  0  0  0  0  0  0  0
   -1.5203    1.7525    3.1631 H   0  0  0  0  0  0  0  0  0  0  0  0
   -5.1542    0.0030   -1.1164 H   0  0  0  0  0  0  0  0  0  0  0  0
   -4.2400   -1.4177   -0.5753 H   0  0  0  0  0  0  0  0  0  0  0  0
   -6.2110   -2.4698    0.3660 H   0  0  0  0  0  0  0  0  0  0  0  0
   -6.5080   -2.0670   -1.3202 H   0  0  0  0  0  0  0  0  0  0  0  0
   -8.1347   -1.5572    0.6892 H   0  0  0  0  0  0  0  0  0  0  0  0
   -8.2328    0.6140    1.3284 H   0  0  0  0  0  0  0  0  0  0  0  0
   -7.2117    1.1063   -0.0112 H   0  0  0  0  0  0  0  0  0  0  0  0
   -5.9817    1.3365    2.0839 H   0  0  0  0  0  0  0  0  0  0  0  0
   -6.2892   -0.3527    2.5250 H   0  0  0  0  0  0  0  0  0  0  0  0
    3.8486    0.3334    1.1705 H   0  0  0  0  0  0  0  0  0  0  0  0
    5.9310    1.2845    2.0306 H   0  0  0  0  0  0  0  0  0  0  0  0
  1  2  1  0
  2  3  1  0
  3  4  2  0
  4  5  1  0
  5  6  1  0
  6  7  1  0
  7  8  2  0
  8  9  1  0
  9 10  2  0
 10 11  1  0
 11 12  1  0
 12 13  2  0
 12 14  1  0
 14 15  2  0
 15 16  1  0
 16 17  2  0
 17 18  1  0
 18 19  1  0
 19 20  1  0
 20 21  1  0
 21 22  1  0
 22 23  1  0
 17 24  1  0
 10 25  1  0
  5 26  2  0
 26 27  1  0
 27  2  2  0
 25  6  2  0
 24 14  1  0
 23 18  1  0
  1 28  1  0
  1 29  1  0
  1 30  1  0
  3 31  1  0
  4 32  1  0
  7 33  1  0
  8 34  1  0
  9 35  1  0
 11 36  1  0
 15 37  1  0
 19 38  1  0
 19 39  1  0
 20 40  1  0
 20 41  1  0
 21 42  1  0
 22 43  1  0
 22 44  1  0
 23 45  1  0
 23 46  1  0
 26 47  1  0
 27 48  1  0
M  END
$$$$
OCNT-2311990
     RDKit          3D

 54 57  0  0  0  0  0  0  0  0999 V2000
   -0.7047    1.3258   -1.6180 O   0  0  0  0  0  0  0  0  0  0  0  0
   -0.3636    0.2113   -1.9930 C   0  0  0  0  0  0  0  0  0  0  0  0
   -1.1859   -0.8697   -2.2272 N   0  0  0  0  0  0  0  0  0  0  0  0
   -2.5512   -0.9817   -1.8943 C   0  0  0  0  0  0  0  0  0  0  0  0
   -3.2665   -2.0551   -2.4347 C   0  0  0  0  0  0  0  0  0  0  0  0
   -4.6155   -2.2326   -2.1246 C   0  0  0  0  0  0  0  0  0  0  0  0
   -5.2593   -1.3496   -1.2572 C   0  0  0  0  0  0  0  0  0  0  0  0
   -4.5577   -0.2839   -0.6793 C   0  0  0  0  0  0  0  0  0  0  0  0
   -5.1955    0.7178    0.2630 C   0  0  0  0  0  0  0  0  0  0  0  0
   -6.3629    0.2274    0.9950 N   0  0  0  0  0  0  0  0  0  0  0  0
   -7.6322    0.5255    0.5420 C   0  0  0  0  0  0  0  0  0  0  0  0
   -8.7100    0.1081    1.2016 C   0  0  0  0  0  0  0  0  0  0  0  0
   -8.4178   -0.6755    2.4106 C   0  0  0  0  0  0  0  0  0  0  0  0
   -7.2474   -0.9670    2.8575 N   0  0  0  0  0  0  0  0  0  0  0  0
   -6.1460   -0.5167    2.1659 C   0  0  0  0  0  0  0  0  0  0  0  0
   -5.0131   -0.7622    2.5720 O   0  0  0  0  0  0  0  0  0  0  0  0
   -3.2034   -0.1053   -1.0233 C   0  0  0  0  0  0  0  0  0  0  0  0
    0.9577   -0.1119   -2.2549 N   0  0  0  0  0  0  0  0  0  0  0  0
    2.0287    0.8731   -2.0113 C   0  0  0  0  0  0  0  0  0  0  0  0
    3.4615    0.3354   -2.2333 C   0  0  0  0  0  0  0  0  0  0  0  0
    3.8885    1.1652   -0.9888 C   0  0  0  0  0  0  0  0  0  0  0  0
    5.0194    0.6439   -0.0043 C   0  0  0  0  0  0  0  0  0  0  0  0
    5.3515   -0.7115    0.1554 C   0  0  0  0  0  0  0  0  0  0  0  0
    6.3488   -1.1349    1.0426 C   0  0  0  0  0  0  0  0  0  0  0  0
    7.0483   -0.2157    1.8212 C   0  0  0  0  0  0  0  0  0  0  0  0
    7.9882   -0.7626    2.6467 O   0  0  0  0  0  0  0  0  0  0  0  0
    8.5579    0.0809    3.6356 C   0  0  0  0  0  0  0  0  0  0  0  0
    9.3036    1.0557    3.0728 F   0  0  0  0  0  0  0  0  0  0  0  0
    9.3660   -0.6629    4.4260 F   0  0  0  0  0  0  0  0  0  0  0  0
    7.6081    0.6333    4.4190 F   0  0  0  0  0  0  0  0  0  0  0  0
    6.7466    1.1334    1.6864 C   0  0  0  0  0  0  0  0  0  0  0  0
    5.7496    1.5470    0.7911 C   0  0  0  0  0  0  0  0  0  0  0  0
    2.4118    1.0444   -0.5234 C   0  0  0  0  0  0  0  0  0  0  0  0
   -0.8124   -1.5735   -2.8451 H   0  0  0  0  0  0  0  0  0  0  0  0
   -2.7876   -2.7633   -3.1049 H   0  0  0  0  0  0  0  0  0  0  0  0
   -5.1650   -3.0677   -2.5514 H   0  0  0  0  0  0  0  0  0  0  0  0
   -6.3071   -1.5202   -1.0256 H   0  0  0  0  0  0  0  0  0  0  0  0
   -5.4762    1.6091   -0.3134 H   0  0  0  0  0  0  0  0  0  0  0  0
   -4.4496    1.0407    1.0013 H   0  0  0  0  0  0  0  0  0  0  0  0
   -7.7154    1.1113   -0.3712 H   0  0  0  0  0  0  0  0  0  0  0  0
   -9.7295    0.3058    0.9056 H   0  0  0  0  0  0  0  0  0  0  0  0
   -9.3004   -1.0328    2.9652 H   0  0  0  0  0  0  0  0  0  0  0  0
   -2.6618    0.7212   -0.5691 H   0  0  0  0  0  0  0  0  0  0  0  0
    1.1685   -1.0943   -2.1490 H   0  0  0  0  0  0  0  0  0  0  0  0
    1.8453    1.8210   -2.5327 H   0  0  0  0  0  0  0  0  0  0  0  0
    3.9319    0.6366   -3.1735 H   0  0  0  0  0  0  0  0  0  0  0  0
    3.5519   -0.7510   -2.1323 H   0  0  0  0  0  0  0  0  0  0  0  0
    4.1118    2.2009   -1.2951 H   0  0  0  0  0  0  0  0  0  0  0  0
    4.8231   -1.4692   -0.4167 H   0  0  0  0  0  0  0  0  0  0  0  0
    6.5693   -2.1948    1.1305 H   0  0  0  0  0  0  0  0  0  0  0  0
    7.2610    1.9029    2.2543 H   0  0  0  0  0  0  0  0  0  0  0  0
    5.5311    2.6126    0.7151 H   0  0  0  0  0  0  0  0  0  0  0  0
    2.2056    0.1695    0.1052 H   0  0  0  0  0  0  0  0  0  0  0  0
    2.0023    1.9318   -0.0340 H   0  0  0  0  0  0  0  0  0  0  0  0
  1  2  2  0
  2  3  1  0
  3  4  1  0
  4  5  1  0
  5  6  2  0
  6  7  1  0
  7  8  2  0
  8  9  1  0
  9 10  1  0
 10 11  1  0
 11 12  2  0
 12 13  1  0
 13 14  2  0
 14 15  1  0
 15 16  2  0
  8 17  1  0
  2 18  1  0
 18 19  1  0
 19 20  1  0
 20 21  1  0
 21 22  1  0
 22 23  1  0
 23 24  2  0
 24 25  1  0
 25 26  1  0
 26 27  1  0
 27 28  1  0
 27 29  1  0
 27 30  1  0
 25 31  2  0
 31 32  1  0
 21 33  1  0
 17  4  2  0
 33 19  1  0
 15 10  1  0
 32 22  2  0
  3 34  1  0
  5 35  1  0
  6 36  1  0
  7 37  1  0
  9 38  1  0
  9 39  1  0
 11 40  1  0
 12 41  1  0
 13 42  1  0
 17 43  1  0
 18 44  1  0
 19 45  1  0
 20 46  1  0
 20 47  1  0
 21 48  1  0
 23 49  1  0
 24 50  1  0
 31 51  1  0
 32 52  1  0
 33 53  1  0
 33 54  1  0
M  END
$$$$
OCNT-2311994
     RDKit          3D

 41 43  0  0  0  0  0  0  0  0999 V2000
    6.7883   -1.2540   -0.2174 C   0  0  0  0  0  0  0  0  0  0  0  0
    5.5320   -1.0560   -0.9789 C   0  0  0  0  0  0  0  0  0  0  0  0
    5.5548   -1.1199   -2.3163 N   0  0  0  0  0  0  0  0  0  0  0  0
    4.2503   -0.9001   -2.7263 O   0  0  0  0  0  0  0  0  0  0  0  0
    3.4523   -0.7032   -1.6415 C   0  0  0  0  0  0  0  0  0  0  0  0
    2.1325   -0.4647   -1.7227 N   0  0  0  0  0  0  0  0  0  0  0  0
    1.5290   -0.2878   -0.5407 C   0  0  0  0  0  0  0  0  0  0  0  0
    0.1508   -0.0626   -0.5988 N   0  0  0  0  0  0  0  0  0  0  0  0
   -0.2676    1.2207   -0.0246 C   0  0  0  0  0  0  0  0  0  0  0  0
   -1.7315    1.4818   -0.3245 C   0  0  0  0  0  0  0  0  0  0  0  0
   -2.7146    0.6314    0.1950 C   0  0  0  0  0  0  0  0  0  0  0  0
   -4.0739    0.8476   -0.0743 C   0  0  0  0  0  0  0  0  0  0  0  0
   -5.0769    0.0195    0.4482 N   0  0  0  0  0  0  0  0  0  0  0  0
   -6.4453    0.1615   -0.0479 C   0  0  0  0  0  0  0  0  0  0  0  0
   -4.7090   -1.3262    0.8917 C   0  0  0  0  0  0  0  0  0  0  0  0
   -4.3610    1.9699   -0.8600 C   0  0  0  0  0  0  0  0  0  0  0  0
   -3.3322    2.7673   -1.3454 C   0  0  0  0  0  0  0  0  0  0  0  0
   -2.0274    2.5474   -1.1017 N   0  0  0  0  0  0  0  0  0  0  0  0
    2.1919   -0.3669    0.6839 C   0  0  0  0  0  0  0  0  0  0  0  0
    3.5769   -0.6191    0.7466 C   0  0  0  0  0  0  0  0  0  0  0  0
    4.2807   -0.7067    2.0670 C   0  0  0  0  0  0  0  0  0  0  0  0
    5.3046    0.1835    2.1684 F   0  0  0  0  0  0  0  0  0  0  0  0
    3.4706   -0.4640    3.1336 F   0  0  0  0  0  0  0  0  0  0  0  0
    4.8268   -1.9334    2.2838 F   0  0  0  0  0  0  0  0  0  0  0  0
    4.2227   -0.7910   -0.4921 C   0  0  0  0  0  0  0  0  0  0  0  0
    6.6823   -2.0819    0.4901 H   0  0  0  0  0  0  0  0  0  0  0  0
    7.0442   -0.3480    0.3402 H   0  0  0  0  0  0  0  0  0  0  0  0
    7.6288   -1.4876   -0.8796 H   0  0  0  0  0  0  0  0  0  0  0  0
   -0.0669   -0.0680   -1.5985 H   0  0  0  0  0  0  0  0  0  0  0  0
   -0.1362    1.2291    1.0640 H   0  0  0  0  0  0  0  0  0  0  0  0
    0.3326    2.0395   -0.4424 H   0  0  0  0  0  0  0  0  0  0  0  0
   -2.3860   -0.1994    0.8095 H   0  0  0  0  0  0  0  0  0  0  0  0
   -7.1265   -0.5221    0.4713 H   0  0  0  0  0  0  0  0  0  0  0  0
   -6.5011   -0.0627   -1.1189 H   0  0  0  0  0  0  0  0  0  0  0  0
   -6.8330    1.1688    0.1387 H   0  0  0  0  0  0  0  0  0  0  0  0
   -4.2495   -1.8978    0.0777 H   0  0  0  0  0  0  0  0  0  0  0  0
   -5.5872   -1.8859    1.2331 H   0  0  0  0  0  0  0  0  0  0  0  0
   -4.0265   -1.2888    1.7473 H   0  0  0  0  0  0  0  0  0  0  0  0
   -5.3751    2.2495   -1.1168 H   0  0  0  0  0  0  0  0  0  0  0  0
   -3.5483    3.6345   -1.9630 H   0  0  0  0  0  0  0  0  0  0  0  0
    1.6239   -0.2544    1.6053 H   0  0  0  0  0  0  0  0  0  0  0  0
  1  2  1  0
  2  3  2  0
  3  4  1  0
  4  5  1  0
  5  6  2  0
  6  7  1  0
  7  8  1  0
  8  9  1  0
  9 10  1  0
 10 11  2  0
 11 12  1  0
 12 13  1  0
 13 14  1  0
 13 15  1  0
 12 16  2  0
 16 17  1  0
 17 18  2  0
  7 19  2  0
 19 20  1  0
 20 21  1  0
 21 22  1  0
 21 23  1  0
 21 24  1  0
 20 25  2  0
 25  2  1  0
 25  5  1  0
 18 10  1  0
  1 26  1  0
  1 27  1  0
  1 28  1  0
  8 29  1  0
  9 30  1  0
  9 31  1  0
 11 32  1  0
 14 33  1  0
 14 34  1  0
 14 35  1  0
 15 36  1  0
 15 37  1  0
 15 38  1  0
 16 39  1  0
 17 40  1  0
 19 41  1  0
M  END
$$$$
OCNT-2311998
     RDKit          3D

 38 40  0  0  0  0  0  0  0  0999 V2000
   -2.8916   -2.1770    0.7310 C   0  0  0  0  0  0  0  0  0  0  0  0
   -2.0859   -0.9592    0.2712 C   0  0  0  0  0  0  0  0  0  0  0  0
   -0.9284   -0.7060    1.2468 C   0  0  0  0  0  0  0  0  0  0  0  0
   -0.9401    0.1575    2.1193 O   0  0  0  0  0  0  0  0  0  0  0  0
    0.1319   -1.5784    1.0812 N   0  0  0  0  0  0  0  0  0  0  0  0
    1.3639   -1.4193    1.8209 C   0  0  0  0  0  0  0  0  0  0  0  0
    2.3874   -0.6827    0.9921 C   0  0  0  0  0  0  0  0  0  0  0  0
    2.3534    0.7213    0.9241 C   0  0  0  0  0  0  0  0  0  0  0  0
    3.2701    1.4427    0.1439 C   0  0  0  0  0  0  0  0  0  0  0  0
    4.2362    0.7327   -0.5876 C   0  0  0  0  0  0  0  0  0  0  0  0
    5.3003    1.0722   -1.4641 C   0  0  0  0  0  0  0  0  0  0  0  0
    5.8749   -0.1151   -1.8562 C   0  0  0  0  0  0  0  0  0  0  0  0
    5.2373   -1.1687   -1.2820 O   0  0  0  0  0  0  0  0  0  0  0  0
    4.2412   -0.6544   -0.5083 C   0  0  0  0  0  0  0  0  0  0  0  0
    3.3463   -1.4003    0.2564 C   0  0  0  0  0  0  0  0  0  0  0  0
   -2.9710    0.2579    0.0438 C   0  0  0  0  0  0  0  0  0  0  0  0
   -3.0043    0.8720   -1.2192 C   0  0  0  0  0  0  0  0  0  0  0  0
   -3.8171    1.9848   -1.4511 C   0  0  0  0  0  0  0  0  0  0  0  0
   -4.6015    2.4952   -0.4202 C   0  0  0  0  0  0  0  0  0  0  0  0
   -5.6994    4.0018   -0.7334 Br  0  0  0  0  0  0  0  0  0  0  0  0
   -4.5793    1.9050    0.8402 C   0  0  0  0  0  0  0  0  0  0  0  0
   -3.7675    0.7915    1.0700 C   0  0  0  0  0  0  0  0  0  0  0  0
   -3.7235   -2.3803    0.0478 H   0  0  0  0  0  0  0  0  0  0  0  0
   -3.3057   -2.0338    1.7353 H   0  0  0  0  0  0  0  0  0  0  0  0
   -2.2613   -3.0722    0.7684 H   0  0  0  0  0  0  0  0  0  0  0  0
   -1.6316   -1.2206   -0.6950 H   0  0  0  0  0  0  0  0  0  0  0  0
    0.1671   -2.1516    0.2497 H   0  0  0  0  0  0  0  0  0  0  0  0
    1.1895   -0.8942    2.7667 H   0  0  0  0  0  0  0  0  0  0  0  0
    1.7253   -2.4233    2.0696 H   0  0  0  0  0  0  0  0  0  0  0  0
    1.5957    1.2700    1.4854 H   0  0  0  0  0  0  0  0  0  0  0  0
    3.2252    2.5271    0.1087 H   0  0  0  0  0  0  0  0  0  0  0  0
    5.6090    2.0610   -1.7711 H   0  0  0  0  0  0  0  0  0  0  0  0
    6.7012   -0.3685   -2.5056 H   0  0  0  0  0  0  0  0  0  0  0  0
    3.4034   -2.4821    0.2728 H   0  0  0  0  0  0  0  0  0  0  0  0
   -2.3966    0.4903   -2.0369 H   0  0  0  0  0  0  0  0  0  0  0  0
   -3.8280    2.4450   -2.4354 H   0  0  0  0  0  0  0  0  0  0  0  0
   -5.1806    2.3045    1.6522 H   0  0  0  0  0  0  0  0  0  0  0  0
   -3.7459    0.3552    2.0671 H   0  0  0  0  0  0  0  0  0  0  0  0
  1  2  1  0
  2  3  1  0
  3  4  2  0
  3  5  1  0
  5  6  1  0
  6  7  1  0
  7  8  2  0
  8  9  1  0
  9 10  2  0
 10 11  1  0
 11 12  2  0
 12 13  1  0
 13 14  1  0
 14 15  2  0
  2 16  1  0
 16 17  1  0
 17 18  2  0
 18 19  1  0
 19 20  1  0
 19 21  2  0
 21 22  1  0
 15  7  1  0
 22 16  2  0
 14 10  1  0
  1 23  1  0
  1 24  1  0
  1 25  1  0
  2 26  1  0
  5 27  1  0
  6 28  1  0
  6 29  1  0
  8 30  1  0
  9 31  1  0
 11 32  1  0
 12 33  1  0
 15 34  1  0
 17 35  1  0
 18 36  1  0
 21 37  1  0
 22 38  1  0
M  END
$$$$
OCNT-2312000
     RDKit          3D

 39 42  0  0  0  0  0  0  0  0999 V2000
    1.0693   -0.5059    2.9157 O   0  0  0  0  0  0  0  0  0  0  0  0
    0.5852    0.4784    2.3535 C   0  0  0  0  0  0  0  0  0  0  0  0
    1.4395    1.6680    1.9677 C   0  0  0  0  0  0  0  0  0  0  0  0
    2.1780    1.3918    0.7094 C   0  0  0  0  0  0  0  0  0  0  0  0
    1.9276    2.1050   -0.3970 N   0  0  0  0  0  0  0  0  0  0  0  0
    2.7808    1.6024   -1.3648 O   0  0  0  0  0  0  0  0  0  0  0  0
    3.5283    0.5919   -0.8394 C   0  0  0  0  0  0  0  0  0  0  0  0
    4.5728   -0.2122   -1.6608 C   0  0  0  0  0  0  0  0  0  0  0  0
    4.6762   -1.7041   -1.4796 C   0  0  0  0  0  0  0  0  0  0  0  0
    5.7832   -0.8112   -0.9966 C   0  0  0  0  0  0  0  0  0  0  0  0
    3.1859    0.4254    0.4801 C   0  0  0  0  0  0  0  0  0  0  0  0
   -0.7483    0.5587    2.0348 N   0  0  0  0  0  0  0  0  0  0  0  0
   -1.6599   -0.5728    1.9119 C   0  0  0  0  0  0  0  0  0  0  0  0
   -2.6448    0.4119    1.2307 C   0  0  0  0  0  0  0  0  0  0  0  0
   -3.5260   -0.1040   -0.0033 C   0  0  0  0  0  0  0  0  0  0  0  0
   -3.4274    0.5004   -1.2792 C   0  0  0  0  0  0  0  0  0  0  0  0
   -4.1822    0.0745   -2.3771 C   0  0  0  0  0  0  0  0  0  0  0  0
   -5.0781   -0.9765   -2.2381 C   0  0  0  0  0  0  0  0  0  0  0  0
   -5.2213   -1.5942   -1.0009 C   0  0  0  0  0  0  0  0  0  0  0  0
   -4.4652   -1.1576    0.0966 C   0  0  0  0  0  0  0  0  0  0  0  0
   -4.7805   -2.0413    1.7522 Br  0  0  0  0  0  0  0  0  0  0  0  0
   -1.4036    1.3089    0.9745 C   0  0  0  0  0  0  0  0  0  0  0  0
    0.8257    2.5720    1.8809 H   0  0  0  0  0  0  0  0  0  0  0  0
    2.1485    1.8520    2.7845 H   0  0  0  0  0  0  0  0  0  0  0  0
    4.7099    0.1672   -2.6699 H   0  0  0  0  0  0  0  0  0  0  0  0
    4.8675   -2.3134   -2.3570 H   0  0  0  0  0  0  0  0  0  0  0  0
    4.0577   -2.1921   -0.7351 H   0  0  0  0  0  0  0  0  0  0  0  0
    6.7130   -0.8112   -1.5546 H   0  0  0  0  0  0  0  0  0  0  0  0
    5.9175   -0.6988    0.0723 H   0  0  0  0  0  0  0  0  0  0  0  0
    3.5866   -0.2941    1.1798 H   0  0  0  0  0  0  0  0  0  0  0  0
   -1.2622   -1.3709    1.2776 H   0  0  0  0  0  0  0  0  0  0  0  0
   -1.9789   -0.9756    2.8766 H   0  0  0  0  0  0  0  0  0  0  0  0
   -3.3076    0.8863    1.9731 H   0  0  0  0  0  0  0  0  0  0  0  0
   -2.7449    1.3347   -1.4336 H   0  0  0  0  0  0  0  0  0  0  0  0
   -4.0700    0.5721   -3.3380 H   0  0  0  0  0  0  0  0  0  0  0  0
   -5.6667   -1.3110   -3.0882 H   0  0  0  0  0  0  0  0  0  0  0  0
   -5.9319   -2.4100   -0.8925 H   0  0  0  0  0  0  0  0  0  0  0  0
   -1.5501    2.3673    1.1993 H   0  0  0  0  0  0  0  0  0  0  0  0
   -0.9038    1.1882    0.0087 H   0  0  0  0  0  0  0  0  0  0  0  0
  1  2  2  0
  2  3  1  0
  3  4  1  0
  4  5  2  0
  5  6  1  0
  6  7  1  0
  7  8  1  0
  8  9  1  0
  9 10  1  0
  7 11  2  0
  2 12  1  0
 12 13  1  0
 13 14  1  0
 14 15  1  0
 15 16  2  0
 16 17  1  0
 17 18  2  0
 18 19  1  0
 19 20  2  0
 20 21  1  0
 14 22  1  0
 11  4  1  0
 22 12  1  0
 10  8  1  0
 20 15  1  0
  3 23  1  0
  3 24  1  0
  8 25  1  0
  9 26  1  0
  9 27  1  0
 10 28  1  0
 10 29  1  0
 11 30  1  0
 13 31  1  0
 13 32  1  0
 14 33  1  0
 16 34  1  0
 17 35  1  0
 18 36  1  0
 19 37  1  0
 22 38  1  0
 22 39  1  0
M  END
$$$$
OCNT-2312008
     RDKit          3D

 46 48  0  0  0  0  0  0  0  0999 V2000
   -4.2244    2.3653   -0.6544 C   0  0  0  0  0  0  0  0  0  0  0  0
   -3.7231    1.4598    0.3195 O   0  0  0  0  0  0  0  0  0  0  0  0
   -3.2558    0.1730   -0.1532 C   0  0  0  0  0  0  0  0  0  0  0  0
   -2.0205    0.3311   -1.0918 C   0  0  0  0  0  0  0  0  0  0  0  0
   -1.0397    1.2659   -0.5223 N   0  0  0  0  0  0  0  0  0  0  0  0
    0.1807    0.7876   -0.0393 C   0  0  0  0  0  0  0  0  0  0  0  0
    0.7657    1.4187    1.0688 C   0  0  0  0  0  0  0  0  0  0  0  0
    2.0096    1.0149    1.5627 C   0  0  0  0  0  0  0  0  0  0  0  0
    2.7109   -0.0011    0.9219 C   0  0  0  0  0  0  0  0  0  0  0  0
    3.9159   -0.3769    1.4676 O   0  0  0  0  0  0  0  0  0  0  0  0
    4.9863   -0.5019    0.6112 C   0  0  0  0  0  0  0  0  0  0  0  0
    5.8137   -1.6112    0.7949 C   0  0  0  0  0  0  0  0  0  0  0  0
    6.9374   -1.7841   -0.0158 C   0  0  0  0  0  0  0  0  0  0  0  0
    7.2351   -0.8373   -0.9957 C   0  0  0  0  0  0  0  0  0  0  0  0
    8.6196   -1.0498   -1.9949 Cl  0  0  0  0  0  0  0  0  0  0  0  0
    6.4234    0.2839   -1.1675 C   0  0  0  0  0  0  0  0  0  0  0  0
    5.2994    0.4575   -0.3566 C   0  0  0  0  0  0  0  0  0  0  0  0
    2.1593   -0.6308   -0.1924 C   0  0  0  0  0  0  0  0  0  0  0  0
    0.9129   -0.2199   -0.6788 C   0  0  0  0  0  0  0  0  0  0  0  0
   -2.8492   -0.6094    1.1151 C   0  0  0  0  0  0  0  0  0  0  0  0
   -4.0698   -0.9714    1.9529 C   0  0  0  0  0  0  0  0  0  0  0  0
   -5.0063   -1.7201    1.1786 O   0  0  0  0  0  0  0  0  0  0  0  0
   -5.5011   -0.9640    0.0757 C   0  0  0  0  0  0  0  0  0  0  0  0
   -4.3636   -0.6198   -0.8756 C   0  0  0  0  0  0  0  0  0  0  0  0
   -5.1559    1.9969   -1.0907 H   0  0  0  0  0  0  0  0  0  0  0  0
   -4.4476    3.3086   -0.1475 H   0  0  0  0  0  0  0  0  0  0  0  0
   -3.4906    2.5715   -1.4365 H   0  0  0  0  0  0  0  0  0  0  0  0
   -2.3413    0.7561   -2.0498 H   0  0  0  0  0  0  0  0  0  0  0  0
   -1.6040   -0.6551   -1.3225 H   0  0  0  0  0  0  0  0  0  0  0  0
   -1.4989    1.8903    0.1437 H   0  0  0  0  0  0  0  0  0  0  0  0
    0.2466    2.2319    1.5702 H   0  0  0  0  0  0  0  0  0  0  0  0
    2.4319    1.5032    2.4362 H   0  0  0  0  0  0  0  0  0  0  0  0
    5.5807   -2.3414    1.5654 H   0  0  0  0  0  0  0  0  0  0  0  0
    7.5752   -2.6525    0.1241 H   0  0  0  0  0  0  0  0  0  0  0  0
    6.6619    1.0269   -1.9236 H   0  0  0  0  0  0  0  0  0  0  0  0
    4.6802    1.3419   -0.4818 H   0  0  0  0  0  0  0  0  0  0  0  0
    2.6907   -1.4333   -0.6956 H   0  0  0  0  0  0  0  0  0  0  0  0
    0.5375   -0.6924   -1.5813 H   0  0  0  0  0  0  0  0  0  0  0  0
   -2.1655   -0.0222    1.7384 H   0  0  0  0  0  0  0  0  0  0  0  0
   -2.3360   -1.5346    0.8241 H   0  0  0  0  0  0  0  0  0  0  0  0
   -3.7648   -1.5967    2.7981 H   0  0  0  0  0  0  0  0  0  0  0  0
   -4.5608   -0.0820    2.3650 H   0  0  0  0  0  0  0  0  0  0  0  0
   -6.0174   -0.0688    0.4408 H   0  0  0  0  0  0  0  0  0  0  0  0
   -6.2418   -1.5815   -0.4425 H   0  0  0  0  0  0  0  0  0  0  0  0
   -3.9366   -1.5556   -1.2599 H   0  0  0  0  0  0  0  0  0  0  0  0
   -4.7600   -0.0711   -1.7356 H   0  0  0  0  0  0  0  0  0  0  0  0
  1  2  1  0
  2  3  1  0
  3  4  1  0
  4  5  1  0
  5  6  1  0
  6  7  1  0
  7  8  2  0
  8  9  1  0
  9 10  1  0
 10 11  1  0
 11 12  1  0
 12 13  2  0
 13 14  1  0
 14 15  1  0
 14 16  2  0
 16 17  1  0
  9 18  2  0
 18 19  1  0
  3 20  1  0
 20 21  1  0
 21 22  1  0
 22 23  1  0
 23 24  1  0
 24  3  1  0
 19  6  2  0
 17 11  2  0
  1 25  1  0
  1 26  1  0
  1 27  1  0
  4 28  1  0
  4 29  1  0
  5 30  1  0
  7 31  1  0
  8 32  1  0
 12 33  1  0
 13 34  1  0
 16 35  1  0
 17 36  1  0
 18 37  1  0
 19 38  1  0
 20 39  1  0
 20 40  1  0
 21 41  1  0
 21 42  1  0
 23 43  1  0
 23 44  1  0
 24 45  1  0
 24 46  1  0
M  END
$$$$
OCNT-2312014
     RDKit          3D

 41 43  0  0  0  0  0  0  0  0999 V2000
    7.7153    1.0892    1.2627 C   0  0  0  0  0  0  0  0  0  0  0  0
    6.8022    0.0423    0.7398 C   0  0  0  0  0  0  0  0  0  0  0  0
    7.1235   -1.2672    0.4503 C   0  0  0  0  0  0  0  0  0  0  0  0
    5.7452   -2.0946   -0.1310 S   0  0  0  0  0  0  0  0  0  0  0  0
    4.8032   -0.6590    0.0380 C   0  0  0  0  0  0  0  0  0  0  0  0
    3.3680   -0.6080   -0.3149 C   0  0  0  0  0  0  0  0  0  0  0  0
    2.7041    0.6320   -0.2619 C   0  0  0  0  0  0  0  0  0  0  0  0
    1.3455    0.7509   -0.5801 C   0  0  0  0  0  0  0  0  0  0  0  0
    0.6157   -0.3810   -0.9514 C   0  0  0  0  0  0  0  0  0  0  0  0
   -0.8306   -0.3150   -1.2982 C   0  0  0  0  0  0  0  0  0  0  0  0
   -1.3168   -1.1383   -2.0634 O   0  0  0  0  0  0  0  0  0  0  0  0
   -1.5641    0.6798   -0.6841 N   0  0  0  0  0  0  0  0  0  0  0  0
   -3.0020    0.7832   -0.8747 C   0  0  0  0  0  0  0  0  0  0  0  0
   -3.8165   -0.2157   -0.0298 C   0  0  0  0  0  0  0  0  0  0  0  0
   -3.5227   -0.0795    1.4677 C   0  0  0  0  0  0  0  0  0  0  0  0
   -5.2888   -0.0595   -0.2966 C   0  0  0  0  0  0  0  0  0  0  0  0
   -6.0769   -0.9561   -0.8541 N   0  0  0  0  0  0  0  0  0  0  0  0
   -7.3235   -0.3911   -0.8969 C   0  0  0  0  0  0  0  0  0  0  0  0
   -7.3026    0.8686   -0.3523 C   0  0  0  0  0  0  0  0  0  0  0  0
   -6.0058    1.0688    0.0293 N   0  0  0  0  0  0  0  0  0  0  0  0
    1.2619   -1.6187   -1.0251 C   0  0  0  0  0  0  0  0  0  0  0  0
    2.6215   -1.7315   -0.7054 C   0  0  0  0  0  0  0  0  0  0  0  0
    5.4804    0.3777    0.5000 N   0  0  0  0  0  0  0  0  0  0  0  0
    8.6909    0.6713    1.5309 H   0  0  0  0  0  0  0  0  0  0  0  0
    7.2872    1.5544    2.1563 H   0  0  0  0  0  0  0  0  0  0  0  0
    7.8703    1.8661    0.5075 H   0  0  0  0  0  0  0  0  0  0  0  0
    8.0778   -1.7643    0.5492 H   0  0  0  0  0  0  0  0  0  0  0  0
    3.2568    1.5276    0.0226 H   0  0  0  0  0  0  0  0  0  0  0  0
    0.8898    1.7363   -0.5596 H   0  0  0  0  0  0  0  0  0  0  0  0
   -1.1471    1.1950    0.0788 H   0  0  0  0  0  0  0  0  0  0  0  0
   -3.2723    1.8162   -0.6261 H   0  0  0  0  0  0  0  0  0  0  0  0
   -3.2193    0.6371   -1.9402 H   0  0  0  0  0  0  0  0  0  0  0  0
   -3.5322   -1.2344   -0.3253 H   0  0  0  0  0  0  0  0  0  0  0  0
   -4.1493   -0.7620    2.0532 H   0  0  0  0  0  0  0  0  0  0  0  0
   -2.4778   -0.3215    1.6881 H   0  0  0  0  0  0  0  0  0  0  0  0
   -3.7146    0.9381    1.8261 H   0  0  0  0  0  0  0  0  0  0  0  0
   -8.1674   -0.9231   -1.3165 H   0  0  0  0  0  0  0  0  0  0  0  0
   -8.0720    1.6128   -0.2067 H   0  0  0  0  0  0  0  0  0  0  0  0
   -5.6382    1.8960    0.4776 H   0  0  0  0  0  0  0  0  0  0  0  0
    0.7074   -2.5051   -1.3304 H   0  0  0  0  0  0  0  0  0  0  0  0
    3.0737   -2.7181   -0.7714 H   0  0  0  0  0  0  0  0  0  0  0  0
  1  2  1  0
  2  3  2  0
  3  4  1  0
  4  5  1  0
  5  6  1  0
  6  7  1  0
  7  8  2  0
  8  9  1  0
  9 10  1  0
 10 11  2  0
 10 12  1  0
 12 13  1  0
 13 14  1  0
 14 15  1  0
 14 16  1  0
 16 17  2  0
 17 18  1  0
 18 19  2  0
 19 20  1  0
  9 21  2  0
 21 22  1  0
  5 23  2  0
 23  2  1  0
 22  6  2  0
 20 16  1  0
  1 24  1  0
  1 25  1  0
  1 26  1  0
  3 27  1  0
  7 28  1  0
  8 29  1  0
 12 30  1  0
 13 31  1  0
 13 32  1  0
 14 33  1  0
 15 34  1  0
 15 35  1  0
 15 36  1  0
 18 37  1  0
 19 38  1  0
 20 39  1  0
 21 40  1  0
 22 41  1  0
M  END
$$$$
OCNT-2312015
     RDKit          3D

 51 53  0  0  0  0  0  0  0  0999 V2000
   -6.4222    0.8832   -3.3893 N   0  0  0  0  0  0  0  0  0  0  0  0
   -6.1092    0.3343   -2.4150 C   0  0  0  0  0  0  0  0  0  0  0  0
   -5.7180   -0.3781   -1.2351 C   0  0  0  0  0  0  0  0  0  0  0  0
   -6.3228   -1.6070   -0.9395 C   0  0  0  0  0  0  0  0  0  0  0  0
   -5.9619   -2.3110    0.2125 C   0  0  0  0  0  0  0  0  0  0  0  0
   -5.0013   -1.7886    1.0782 C   0  0  0  0  0  0  0  0  0  0  0  0
   -4.3949   -0.5663    0.7906 C   0  0  0  0  0  0  0  0  0  0  0  0
   -4.7393    0.1258   -0.3720 C   0  0  0  0  0  0  0  0  0  0  0  0
   -4.1391    1.3369   -0.5906 O   0  0  0  0  0  0  0  0  0  0  0  0
   -3.0102    1.2126   -1.4717 C   0  0  0  0  0  0  0  0  0  0  0  0
   -1.7651    1.8505   -0.8254 C   0  0  0  0  0  0  0  0  0  0  0  0
   -1.2399    1.1131    0.3449 N   0  0  0  0  0  0  0  0  0  0  0  0
   -0.2916    1.9461    1.1158 C   0  0  0  0  0  0  0  0  0  0  0  0
    1.0910    2.1306    0.4472 C   0  0  0  0  0  0  0  0  0  0  0  0
    1.7776    0.8684    0.0982 N   0  0  0  0  0  0  0  0  0  0  0  0
    2.3163    0.1924    1.2917 C   0  0  0  0  0  0  0  0  0  0  0  0
    3.7720   -0.2828    1.1047 C   0  0  0  0  0  0  0  0  0  0  0  0
    3.9565   -1.3141   -0.0101 C   0  0  0  0  0  0  0  0  0  0  0  0
    5.4004   -1.8195   -0.0483 C   0  0  0  0  0  0  0  0  0  0  0  0
    6.3452   -0.8841    0.4761 O   0  0  0  0  0  0  0  0  0  0  0  0
    6.0128    0.4615    0.1529 C   0  0  0  0  0  0  0  0  0  0  0  0
    4.7518    0.8884    0.8996 C   0  0  0  0  0  0  0  0  0  0  0  0
    0.8396    0.0077   -0.6557 C   0  0  0  0  0  0  0  0  0  0  0  0
   -0.5680   -0.1503   -0.0231 C   0  0  0  0  0  0  0  0  0  0  0  0
   -7.0827   -2.0203   -1.6005 H   0  0  0  0  0  0  0  0  0  0  0  0
   -6.4370   -3.2627    0.4398 H   0  0  0  0  0  0  0  0  0  0  0  0
   -4.7283   -2.3294    1.9812 H   0  0  0  0  0  0  0  0  0  0  0  0
   -3.6522   -0.1505    1.4681 H   0  0  0  0  0  0  0  0  0  0  0  0
   -2.8182    0.1798   -1.7880 H   0  0  0  0  0  0  0  0  0  0  0  0
   -3.2563    1.7796   -2.3775 H   0  0  0  0  0  0  0  0  0  0  0  0
   -0.9933    1.9795   -1.5923 H   0  0  0  0  0  0  0  0  0  0  0  0
   -2.0640    2.8544   -0.4966 H   0  0  0  0  0  0  0  0  0  0  0  0
   -0.1537    1.4789    2.0996 H   0  0  0  0  0  0  0  0  0  0  0  0
   -0.7320    2.9290    1.3240 H   0  0  0  0  0  0  0  0  0  0  0  0
    1.7328    2.7447    1.0915 H   0  0  0  0  0  0  0  0  0  0  0  0
    0.9706    2.7168   -0.4729 H   0  0  0  0  0  0  0  0  0  0  0  0
    2.3145    0.8693    2.1569 H   0  0  0  0  0  0  0  0  0  0  0  0
    1.6958   -0.6607    1.5923 H   0  0  0  0  0  0  0  0  0  0  0  0
    4.0544   -0.7782    2.0456 H   0  0  0  0  0  0  0  0  0  0  0  0
    3.2717   -2.1616    0.1052 H   0  0  0  0  0  0  0  0  0  0  0  0
    3.7259   -0.8553   -0.9800 H   0  0  0  0  0  0  0  0  0  0  0  0
    5.4915   -2.7303    0.5529 H   0  0  0  0  0  0  0  0  0  0  0  0
    5.6881   -2.0798   -1.0730 H   0  0  0  0  0  0  0  0  0  0  0  0
    5.8848    0.5561   -0.9324 H   0  0  0  0  0  0  0  0  0  0  0  0
    6.8523    1.1040    0.4373 H   0  0  0  0  0  0  0  0  0  0  0  0
    4.2976    1.7302    0.3657 H   0  0  0  0  0  0  0  0  0  0  0  0
    5.0300    1.2728    1.8894 H   0  0  0  0  0  0  0  0  0  0  0  0
    1.2722   -0.9868   -0.8131 H   0  0  0  0  0  0  0  0  0  0  0  0
    0.7303    0.4339   -1.6610 H   0  0  0  0  0  0  0  0  0  0  0  0
   -1.1959   -0.7508   -0.6896 H   0  0  0  0  0  0  0  0  0  0  0  0
   -0.4787   -0.7519    0.8906 H   0  0  0  0  0  0  0  0  0  0  0  0
  1  2  3  0
  2  3  1  0
  3  4  2  0
  4  5  1  0
  5  6  2  0
  6  7  1  0
  7  8  2  0
  8  9  1  0
  9 10  1  0
 10 11  1  0
 11 12  1  0
 12 13  1  0
 13 14  1  0
 14 15  1  0
 15 16  1  0
 16 17  1  0
 17 18  1  0
 18 19  1  0
 19 20  1  0
 20 21  1  0
 21 22  1  0
 15 23  1  0
 23 24  1  0
  8  3  1  0
 24 12  1  0
 22 17  1  0
  4 25  1  0
  5 26  1  0
  6 27  1  0
  7 28  1  0
 10 29  1  0
 10 30  1  0
 11 31  1  0
 11 32  1  0
 13 33  1  0
 13 34  1  0
 14 35  1  0
 14 36  1  0
 16 37  1  0
 16 38  1  0
 17 39  1  0
 18 40  1  0
 18 41  1  0
 19 42  1  0
 19 43  1  0
 21 44  1  0
 21 45  1  0
 22 46  1  0
 22 47  1  0
 23 48  1  0
 23 49  1  0
 24 50  1  0
 24 51  1  0
M  END
$$$$
OCNT-2312016
     RDKit          3D

 51 54  0  0  0  0  0  0  0  0999 V2000
    0.0943   -0.3141    1.7654 C   0  0  0  0  0  0  0  0  0  0  0  0
   -0.4858   -0.4629    0.3347 C   0  0  0  0  0  0  0  0  0  0  0  0
   -0.0115   -1.8465   -0.1774 C   0  0  0  0  0  0  0  0  0  0  0  0
    0.0939    0.6712   -0.5763 C   0  0  0  0  0  0  0  0  0  0  0  0
    1.5494    0.7413   -0.6213 N   0  0  0  0  0  0  0  0  0  0  0  0
    2.2653    0.2693   -1.7000 C   0  0  0  0  0  0  0  0  0  0  0  0
    1.7774   -0.3082   -2.6618 O   0  0  0  0  0  0  0  0  0  0  0  0
    3.7113    0.5755   -1.6899 C   0  0  0  0  0  0  0  0  0  0  0  0
    4.2018    1.2776   -2.7885 C   0  0  0  0  0  0  0  0  0  0  0  0
    5.5336    1.6241   -2.7780 C   0  0  0  0  0  0  0  0  0  0  0  0
    6.3764    1.3200   -1.7674 N   0  0  0  0  0  0  0  0  0  0  0  0
    5.9077    0.6118   -0.7244 C   0  0  0  0  0  0  0  0  0  0  0  0
    6.7820    0.2793    0.2938 C   0  0  0  0  0  0  0  0  0  0  0  0
    6.3285   -0.4620    1.3688 C   0  0  0  0  0  0  0  0  0  0  0  0
    5.0620   -0.8991    1.4861 N   0  0  0  0  0  0  0  0  0  0  0  0
    4.2190   -0.5761    0.4817 C   0  0  0  0  0  0  0  0  0  0  0  0
    4.5705    0.1963   -0.6352 C   0  0  0  0  0  0  0  0  0  0  0  0
   -1.9847   -0.4738    0.3902 N   0  0  0  0  0  0  0  0  0  0  0  0
   -2.6439   -0.5551   -0.9271 C   0  0  0  0  0  0  0  0  0  0  0  0
   -4.1203   -0.9443   -0.7720 C   0  0  0  0  0  0  0  0  0  0  0  0
   -4.8378   -0.0595    0.2103 C   0  0  0  0  0  0  0  0  0  0  0  0
   -6.2376    0.0011    0.2182 C   0  0  0  0  0  0  0  0  0  0  0  0
   -6.9022    0.7999    1.1477 C   0  0  0  0  0  0  0  0  0  0  0  0
   -6.1745    1.5368    2.0786 C   0  0  0  0  0  0  0  0  0  0  0  0
   -4.7807    1.4717    2.0841 C   0  0  0  0  0  0  0  0  0  0  0  0
   -4.0994    0.6647    1.1596 C   0  0  0  0  0  0  0  0  0  0  0  0
   -2.5824    0.6339    1.1667 C   0  0  0  0  0  0  0  0  0  0  0  0
    1.1723   -0.5059    1.7872 H   0  0  0  0  0  0  0  0  0  0  0  0
   -0.0530    0.6957    2.1640 H   0  0  0  0  0  0  0  0  0  0  0  0
   -0.3677   -1.0288    2.4570 H   0  0  0  0  0  0  0  0  0  0  0  0
    1.0667   -1.9802   -0.0369 H   0  0  0  0  0  0  0  0  0  0  0  0
   -0.5052   -2.6598    0.3680 H   0  0  0  0  0  0  0  0  0  0  0  0
   -0.2075   -1.9869   -1.2449 H   0  0  0  0  0  0  0  0  0  0  0  0
   -0.2340    1.6523   -0.2160 H   0  0  0  0  0  0  0  0  0  0  0  0
   -0.2760    0.5654   -1.6019 H   0  0  0  0  0  0  0  0  0  0  0  0
    2.0152    1.3084    0.0770 H   0  0  0  0  0  0  0  0  0  0  0  0
    3.5602    1.5506   -3.6198 H   0  0  0  0  0  0  0  0  0  0  0  0
    5.9777    2.1769   -3.6015 H   0  0  0  0  0  0  0  0  0  0  0  0
    7.8186    0.5950    0.2449 H   0  0  0  0  0  0  0  0  0  0  0  0
    6.9953   -0.7360    2.1815 H   0  0  0  0  0  0  0  0  0  0  0  0
    3.2202   -0.9845    0.6026 H   0  0  0  0  0  0  0  0  0  0  0  0
   -2.5694    0.4032   -1.4580 H   0  0  0  0  0  0  0  0  0  0  0  0
   -2.1851   -1.3130   -1.5684 H   0  0  0  0  0  0  0  0  0  0  0  0
   -4.6058   -0.8819   -1.7532 H   0  0  0  0  0  0  0  0  0  0  0  0
   -4.1955   -1.9822   -0.4243 H   0  0  0  0  0  0  0  0  0  0  0  0
   -6.8152   -0.5762   -0.4999 H   0  0  0  0  0  0  0  0  0  0  0  0
   -7.9880    0.8445    1.1472 H   0  0  0  0  0  0  0  0  0  0  0  0
   -6.6925    2.1597    2.8029 H   0  0  0  0  0  0  0  0  0  0  0  0
   -4.2259    2.0516    2.8181 H   0  0  0  0  0  0  0  0  0  0  0  0
   -2.2823    0.5400    2.2161 H   0  0  0  0  0  0  0  0  0  0  0  0
   -2.2355    1.6039    0.7917 H   0  0  0  0  0  0  0  0  0  0  0  0
  1  2  1  0
  2  3  1  0
  2  4  1  0
  4  5  1  0
  5  6  1  0
  6  7  2  0
  6  8  1  0
  8  9  2  0
  9 10  1  0
 10 11  2  0
 11 12  1  0
 12 13  2  0
 13 14  1  0
 14 15  2  0
 15 16  1  0
 16 17  2  0
  2 18  1  0
 18 19  1  0
 19 20  1  0
 20 21  1  0
 21 22  2  0
 22 23  1  0
 23 24  2  0
 24 25  1  0
 25 26  2  0
 26 27  1  0
 17  8  1  0
 27 18  1  0
 17 12  1  0
 26 21  1  0
  1 28  1  0
  1 29  1  0
  1 30  1  0
  3 31  1  0
  3 32  1  0
  3 33  1  0
  4 34  1  0
  4 35  1  0
  5 36  1  0
  9 37  1  0
 10 38  1  0
 13 39  1  0
 14 40  1  0
 16 41  1  0
 19 42  1  0
 19 43  1  0
 20 44  1  0
 20 45  1  0
 22 46  1  0
 23 47  1  0
 24 48  1  0
 25 49  1  0
 27 50  1  0
 27 51  1  0
M  END
$$$$
OCNT-2312020
     RDKit          3D

 41 44  0  0  0  0  0  0  0  0999 V2000
    1.1537    1.2514   -1.7490 O   0  0  0  0  0  0  0  0  0  0  0  0
    1.5982    0.2339   -1.2317 C   0  0  0  0  0  0  0  0  0  0  0  0
    0.9593   -0.9857   -1.2765 N   0  0  0  0  0  0  0  0  0  0  0  0
   -0.3066   -1.1670   -1.9697 C   0  0  0  0  0  0  0  0  0  0  0  0
   -1.5323   -1.0316   -1.0384 C   0  0  0  0  0  0  0  0  0  0  0  0
   -1.7401    0.4274   -0.5789 C   0  0  0  0  0  0  0  0  0  0  0  0
   -3.0789    0.6445    0.0875 C   0  0  0  0  0  0  0  0  0  0  0  0
   -3.3195    1.8269    0.8001 C   0  0  0  0  0  0  0  0  0  0  0  0
   -4.5599    2.0499    1.3963 C   0  0  0  0  0  0  0  0  0  0  0  0
   -5.5692    1.0970    1.2819 C   0  0  0  0  0  0  0  0  0  0  0  0
   -5.3418   -0.0787    0.5657 C   0  0  0  0  0  0  0  0  0  0  0  0
   -4.1027   -0.3097   -0.0489 C   0  0  0  0  0  0  0  0  0  0  0  0
   -3.8614   -1.6017   -0.7912 C   0  0  0  0  0  0  0  0  0  0  0  0
   -2.7381   -1.5334   -1.7355 N   0  0  0  0  0  0  0  0  0  0  0  0
    2.9069    0.2730   -0.5252 C   0  0  0  0  0  0  0  0  0  0  0  0
    3.8546    1.2116   -0.9545 C   0  0  0  0  0  0  0  0  0  0  0  0
    5.0987    1.3064   -0.3295 C   0  0  0  0  0  0  0  0  0  0  0  0
    6.2654    2.4469   -0.8594 Cl  0  0  0  0  0  0  0  0  0  0  0  0
    5.3577    0.4454    0.7370 C   0  0  0  0  0  0  0  0  0  0  0  0
    6.4537    0.2940    1.5448 N   0  0  0  0  0  0  0  0  0  0  0  0
    6.3118   -0.6568    2.4858 N   0  0  0  0  0  0  0  0  0  0  0  0
    5.0793   -1.1244    2.2747 C   0  0  0  0  0  0  0  0  0  0  0  0
    4.4314   -0.4847    1.1945 C   0  0  0  0  0  0  0  0  0  0  0  0
    3.1779   -0.5779    0.5623 C   0  0  0  0  0  0  0  0  0  0  0  0
    1.4297   -1.8180   -0.9487 H   0  0  0  0  0  0  0  0  0  0  0  0
   -0.2713   -2.1785   -2.3916 H   0  0  0  0  0  0  0  0  0  0  0  0
   -0.3718   -0.4638   -2.8083 H   0  0  0  0  0  0  0  0  0  0  0  0
   -1.3537   -1.6640   -0.1570 H   0  0  0  0  0  0  0  0  0  0  0  0
   -1.6827    1.1063   -1.4392 H   0  0  0  0  0  0  0  0  0  0  0  0
   -0.9460    0.7008    0.1259 H   0  0  0  0  0  0  0  0  0  0  0  0
   -2.5396    2.5798    0.8904 H   0  0  0  0  0  0  0  0  0  0  0  0
   -4.7387    2.9681    1.9496 H   0  0  0  0  0  0  0  0  0  0  0  0
   -6.5344    1.2698    1.7504 H   0  0  0  0  0  0  0  0  0  0  0  0
   -6.1383   -0.8152    0.4878 H   0  0  0  0  0  0  0  0  0  0  0  0
   -4.7594   -1.8703   -1.3596 H   0  0  0  0  0  0  0  0  0  0  0  0
   -3.6845   -2.4047   -0.0653 H   0  0  0  0  0  0  0  0  0  0  0  0
   -2.9910   -0.8631   -2.4639 H   0  0  0  0  0  0  0  0  0  0  0  0
    3.6181    1.8735   -1.7866 H   0  0  0  0  0  0  0  0  0  0  0  0
    7.3253    0.8120    1.5038 H   0  0  0  0  0  0  0  0  0  0  0  0
    4.7029   -1.9129    2.9141 H   0  0  0  0  0  0  0  0  0  0  0  0
    2.4376   -1.2766    0.9378 H   0  0  0  0  0  0  0  0  0  0  0  0
  1  2  2  0
  2  3  1  0
  3  4  1  0
  4  5  1  0
  5  6  1  0
  6  7  1  0
  7  8  2  0
  8  9  1  0
  9 10  2  0
 10 11  1  0
 11 12  2  0
 12 13  1  0
 13 14  1  0
  2 15  1  0
 15 16  2  0
 16 17  1  0
 17 18  1  0
 17 19  2  0
 19 20  1  0
 20 21  1  0
 21 22  2  0
 22 23  1  0
 23 24  2  0
 14  5  1  0
 24 15  1  0
 12  7  1  0
 23 19  1  0
  3 25  1  0
  4 26  1  0
  4 27  1  0
  5 28  1  0
  6 29  1  0
  6 30  1  0
  8 31  1  0
  9 32  1  0
 10 33  1  0
 11 34  1  0
 13 35  1  0
 13 36  1  0
 14 37  1  0
 16 38  1  0
 20 39  1  0
 22 40  1  0
 24 41  1  0
M  END
$$$$
OCNT-2312021
     RDKit          3D

 42 45  0  0  0  0  0  0  0  0999 V2000
    3.2053   -2.6233    0.5881 C   0  0  0  0  0  0  0  0  0  0  0  0
    2.3267   -2.1362   -0.4493 N   0  0  0  0  0  0  0  0  0  0  0  0
    2.4453   -2.3489   -1.7933 C   0  0  0  0  0  0  0  0  0  0  0  0
    1.4186   -1.6478   -2.3782 C   0  0  0  0  0  0  0  0  0  0  0  0
    0.7117   -1.0555   -1.2979 C   0  0  0  0  0  0  0  0  0  0  0  0
   -0.5143   -0.1704   -1.3814 C   0  0  0  0  0  0  0  0  0  0  0  0
   -0.4657    1.1883   -0.8171 N   0  0  0  0  0  0  0  0  0  0  0  0
   -0.5959    1.3199    0.6355 C   0  0  0  0  0  0  0  0  0  0  0  0
   -1.9999    0.9944    1.0537 C   0  0  0  0  0  0  0  0  0  0  0  0
   -2.3190    1.0886    2.5019 C   0  0  0  0  0  0  0  0  0  0  0  0
   -1.3367    1.3930    3.4157 F   0  0  0  0  0  0  0  0  0  0  0  0
   -3.4745    1.7069    2.9174 F   0  0  0  0  0  0  0  0  0  0  0  0
   -2.3647   -0.2317    1.8487 C   0  0  0  0  0  0  0  0  0  0  0  0
   -1.5340   -1.4095    2.1890 C   0  0  0  0  0  0  0  0  0  0  0  0
   -2.8710   -2.0727    2.5831 C   0  0  0  0  0  0  0  0  0  0  0  0
   -3.5764   -1.0627    1.6580 C   0  0  0  0  0  0  0  0  0  0  0  0
    0.5178    1.9843   -1.4069 C   0  0  0  0  0  0  0  0  0  0  0  0
    0.7977    1.8008   -2.7171 N   0  0  0  0  0  0  0  0  0  0  0  0
    1.7391    2.5928   -3.2835 C   0  0  0  0  0  0  0  0  0  0  0  0
    2.3962    3.5793   -2.6028 C   0  0  0  0  0  0  0  0  0  0  0  0
    3.3196    4.3541   -3.1756 F   0  0  0  0  0  0  0  0  0  0  0  0
    2.0414    3.7248   -1.2902 C   0  0  0  0  0  0  0  0  0  0  0  0
    1.1142    2.9492   -0.6811 N   0  0  0  0  0  0  0  0  0  0  0  0
    1.2595   -1.3889   -0.1158 N   0  0  0  0  0  0  0  0  0  0  0  0
    3.8561   -3.3983    0.1721 H   0  0  0  0  0  0  0  0  0  0  0  0
    3.8036   -1.7846    0.9525 H   0  0  0  0  0  0  0  0  0  0  0  0
    2.5940   -3.0450    1.3933 H   0  0  0  0  0  0  0  0  0  0  0  0
    3.2459   -2.9332   -2.2179 H   0  0  0  0  0  0  0  0  0  0  0  0
    1.2227   -1.5432   -3.4377 H   0  0  0  0  0  0  0  0  0  0  0  0
   -1.3357   -0.7214   -0.9037 H   0  0  0  0  0  0  0  0  0  0  0  0
   -0.8302   -0.1088   -2.4316 H   0  0  0  0  0  0  0  0  0  0  0  0
    0.1419    0.7049    1.1618 H   0  0  0  0  0  0  0  0  0  0  0  0
   -0.4352    2.3572    0.9591 H   0  0  0  0  0  0  0  0  0  0  0  0
   -2.7373    1.4249    0.3877 H   0  0  0  0  0  0  0  0  0  0  0  0
   -1.0511   -1.8936    1.3315 H   0  0  0  0  0  0  0  0  0  0  0  0
   -0.8171   -1.3153    3.0093 H   0  0  0  0  0  0  0  0  0  0  0  0
   -2.9798   -3.1287    2.3048 H   0  0  0  0  0  0  0  0  0  0  0  0
   -3.1246   -1.9596    3.6450 H   0  0  0  0  0  0  0  0  0  0  0  0
   -3.7189   -1.4083    0.6258 H   0  0  0  0  0  0  0  0  0  0  0  0
   -4.5225   -0.6660    2.0409 H   0  0  0  0  0  0  0  0  0  0  0  0
    1.9421    2.4101   -4.3325 H   0  0  0  0  0  0  0  0  0  0  0  0
    2.5054    4.4801   -0.6611 H   0  0  0  0  0  0  0  0  0  0  0  0
  1  2  1  0
  2  3  1  0
  3  4  2  0
  4  5  1  0
  5  6  1  0
  6  7  1  0
  7  8  1  0
  8  9  1  0
  9 10  1  0
 10 11  1  0
 10 12  1  0
 10 13  1  0
 13 14  1  0
 14 15  1  0
 15 16  1  0
  7 17  1  0
 17 18  2  0
 18 19  1  0
 19 20  2  0
 20 21  1  0
 20 22  1  0
 22 23  2  0
  5 24  2  0
 24  2  1  0
 13  9  1  0
 23 17  1  0
 16 13  1  0
  1 25  1  0
  1 26  1  0
  1 27  1  0
  3 28  1  0
  4 29  1  0
  6 30  1  0
  6 31  1  0
  8 32  1  0
  8 33  1  0
  9 34  1  0
 14 35  1  0
 14 36  1  0
 15 37  1  0
 15 38  1  0
 16 39  1  0
 16 40  1  0
 19 41  1  0
 22 42  1  0
M  END
$$$$
OCNT-2312024
     RDKit          3D

 48 52  0  0  0  0  0  0  0  0999 V2000
    5.9816    2.0708    1.5883 N   0  0  0  0  0  0  0  0  0  0  0  0
    5.7567    1.4072    0.6636 C   0  0  0  0  0  0  0  0  0  0  0  0
    5.4643    0.5705   -0.4850 C   0  0  0  0  0  0  0  0  0  0  0  0
    4.6870   -0.7427   -0.1642 C   0  0  0  0  0  0  0  0  0  0  0  0
    3.4359   -0.0437   -0.6469 C   0  0  0  0  0  0  0  0  0  0  0  0
    4.2424    1.0214   -1.3420 C   0  0  0  0  0  0  0  0  0  0  0  0
    2.4056   -0.8327   -1.4079 C   0  0  0  0  0  0  0  0  0  0  0  0
    1.5581   -0.8590   -0.0899 C   0  0  0  0  0  0  0  0  0  0  0  0
    0.0230   -0.6690   -0.2411 C   0  0  0  0  0  0  0  0  0  0  0  0
   -0.5538   -0.9403   -1.2990 O   0  0  0  0  0  0  0  0  0  0  0  0
   -0.6518   -0.1428    0.8795 N   0  0  0  0  0  0  0  0  0  0  0  0
   -0.3097   -0.7446    2.1824 C   0  0  0  0  0  0  0  0  0  0  0  0
   -0.9560   -2.1447    2.3455 C   0  0  0  0  0  0  0  0  0  0  0  0
   -2.2842   -2.2158    1.6338 C   0  0  0  0  0  0  0  0  0  0  0  0
   -2.8190   -1.1986    0.8470 C   0  0  0  0  0  0  0  0  0  0  0  0
   -4.0029   -1.6582    0.1853 C   0  0  0  0  0  0  0  0  0  0  0  0
   -4.3434   -2.9460    0.5419 C   0  0  0  0  0  0  0  0  0  0  0  0
   -3.2309   -3.6268    1.6459 S   0  0  0  0  0  0  0  0  0  0  0  0
   -2.1006    0.1390    0.7940 C   0  0  0  0  0  0  0  0  0  0  0  0
   -2.6751    1.1139   -0.2212 C   0  0  0  0  0  0  0  0  0  0  0  0
   -1.9397    1.6899   -1.2672 C   0  0  0  0  0  0  0  0  0  0  0  0
   -2.5122    2.6297   -2.1331 C   0  0  0  0  0  0  0  0  0  0  0  0
   -3.8292    3.0395   -1.9559 C   0  0  0  0  0  0  0  0  0  0  0  0
   -4.5726    2.5199   -0.9040 C   0  0  0  0  0  0  0  0  0  0  0  0
   -3.9982    1.5806   -0.0432 C   0  0  0  0  0  0  0  0  0  0  0  0
    2.4081    0.3677    0.3813 C   0  0  0  0  0  0  0  0  0  0  0  0
    6.3609    0.3920   -1.0914 H   0  0  0  0  0  0  0  0  0  0  0  0
    4.6932   -1.0705    0.8803 H   0  0  0  0  0  0  0  0  0  0  0  0
    5.0033   -1.5875   -0.7881 H   0  0  0  0  0  0  0  0  0  0  0  0
    4.3856    0.8477   -2.4154 H   0  0  0  0  0  0  0  0  0  0  0  0
    3.9064    2.0541   -1.2053 H   0  0  0  0  0  0  0  0  0  0  0  0
    2.7149   -1.8138   -1.7796 H   0  0  0  0  0  0  0  0  0  0  0  0
    1.9381   -0.2790   -2.2308 H   0  0  0  0  0  0  0  0  0  0  0  0
    1.7879   -1.7679    0.4861 H   0  0  0  0  0  0  0  0  0  0  0  0
    0.7716   -0.8216    2.3196 H   0  0  0  0  0  0  0  0  0  0  0  0
   -0.6714   -0.0700    2.9685 H   0  0  0  0  0  0  0  0  0  0  0  0
   -0.2877   -2.8937    1.9017 H   0  0  0  0  0  0  0  0  0  0  0  0
   -1.0616   -2.3826    3.4095 H   0  0  0  0  0  0  0  0  0  0  0  0
   -4.5843   -1.0838   -0.5255 H   0  0  0  0  0  0  0  0  0  0  0  0
   -5.1881   -3.5249    0.1949 H   0  0  0  0  0  0  0  0  0  0  0  0
   -2.3248    0.6409    1.7496 H   0  0  0  0  0  0  0  0  0  0  0  0
   -0.9003    1.4298   -1.4365 H   0  0  0  0  0  0  0  0  0  0  0  0
   -1.9194    3.0428   -2.9453 H   0  0  0  0  0  0  0  0  0  0  0  0
   -4.2691    3.7689   -2.6301 H   0  0  0  0  0  0  0  0  0  0  0  0
   -5.5971    2.8466   -0.7472 H   0  0  0  0  0  0  0  0  0  0  0  0
   -4.5997    1.2083    0.7854 H   0  0  0  0  0  0  0  0  0  0  0  0
    2.7258    0.3433    1.4275 H   0  0  0  0  0  0  0  0  0  0  0  0
    1.9327    1.3359    0.1840 H   0  0  0  0  0  0  0  0  0  0  0  0
  1  2  3  0
  2  3  1  0
  3  4  1  0
  4  5  1  0
  5  6  1  0
  5  7  1  0
  7  8  1  0
  8  9  1  0
  9 10  2  0
  9 11  1  0
 11 12  1  0
 12 13  1  0
 13 14  1  0
 14 15  2  0
 15 16  1  0
 16 17  2  0
 17 18  1  0
 15 19  1  0
 19 20  1  0
 20 21  2  0
 21 22  1  0
 22 23  2  0
 23 24  1  0
 24 25  2  0
  8 26  1  0
  6  3  1  0
 19 11  1  0
 25 20  1  0
 26  5  1  0
 18 14  1  0
  3 27  1  0
  4 28  1  0
  4 29  1  0
  6 30  1  0
  6 31  1  0
  7 32  1  0
  7 33  1  0
  8 34  1  0
 12 35  1  0
 12 36  1  0
 13 37  1  0
 13 38  1  0
 16 39  1  0
 17 40  1  0
 19 41  1  0
 21 42  1  0
 22 43  1  0
 23 44  1  0
 24 45  1  0
 25 46  1  0
 26 47  1  0
 26 48  1  0
M  END
$$$$
OCNT-2312038
     RDKit          3D

 36 38  0  0  0  0  0  0  0  0999 V2000
   -0.1424   -1.9803   -2.2763 O   0  0  0  0  0  0  0  0  0  0  0  0
    0.2302   -1.7368   -1.1325 C   0  0  0  0  0  0  0  0  0  0  0  0
    1.4884   -1.2290   -0.9105 N   0  0  0  0  0  0  0  0  0  0  0  0
    2.1716   -1.4576    0.3654 C   0  0  0  0  0  0  0  0  0  0  0  0
    3.4512   -0.6262    0.5114 C   0  0  0  0  0  0  0  0  0  0  0  0
    3.2018    0.8446    0.3457 C   0  0  0  0  0  0  0  0  0  0  0  0
    2.6270    1.6060    1.2512 N   0  0  0  0  0  0  0  0  0  0  0  0
    2.5313    2.9010    0.7847 C   0  0  0  0  0  0  0  0  0  0  0  0
    3.0433    3.1174   -0.4752 C   0  0  0  0  0  0  0  0  0  0  0  0
    3.6696    1.6519   -1.1029 S   0  0  0  0  0  0  0  0  0  0  0  0
    1.2366   -1.2622    1.5778 C   0  0  0  0  0  0  0  0  0  0  0  0
    1.6220   -1.1770    2.7394 O   0  0  0  0  0  0  0  0  0  0  0  0
   -0.1101   -1.3481    1.3038 N   0  0  0  0  0  0  0  0  0  0  0  0
   -0.5748   -2.0929    0.1352 C   0  0  0  0  0  0  0  0  0  0  0  0
   -2.0895   -1.9457   -0.0963 C   0  0  0  0  0  0  0  0  0  0  0  0
   -2.5715   -0.5219   -0.2838 C   0  0  0  0  0  0  0  0  0  0  0  0
   -2.9650    0.2519    0.8182 C   0  0  0  0  0  0  0  0  0  0  0  0
   -3.3912    1.5700    0.6395 C   0  0  0  0  0  0  0  0  0  0  0  0
   -3.8688    2.5011    2.0062 Cl  0  0  0  0  0  0  0  0  0  0  0  0
   -3.4352    2.1376   -0.6299 C   0  0  0  0  0  0  0  0  0  0  0  0
   -3.0495    1.3733   -1.7268 C   0  0  0  0  0  0  0  0  0  0  0  0
   -3.0998    2.0622   -3.3034 Cl  0  0  0  0  0  0  0  0  0  0  0  0
   -2.6225    0.0538   -1.5621 C   0  0  0  0  0  0  0  0  0  0  0  0
    2.0363   -1.1417   -1.7584 H   0  0  0  0  0  0  0  0  0  0  0  0
    2.4434   -2.5217    0.3746 H   0  0  0  0  0  0  0  0  0  0  0  0
    3.9070   -0.7940    1.4949 H   0  0  0  0  0  0  0  0  0  0  0  0
    4.1853   -0.9674   -0.2299 H   0  0  0  0  0  0  0  0  0  0  0  0
    2.0741    3.6565    1.4121 H   0  0  0  0  0  0  0  0  0  0  0  0
    3.0786    4.0387   -1.0382 H   0  0  0  0  0  0  0  0  0  0  0  0
   -0.6676   -1.3648    2.1487 H   0  0  0  0  0  0  0  0  0  0  0  0
   -0.3555   -3.1495    0.3391 H   0  0  0  0  0  0  0  0  0  0  0  0
   -2.3979   -2.5411   -0.9655 H   0  0  0  0  0  0  0  0  0  0  0  0
   -2.6254   -2.3792    0.7590 H   0  0  0  0  0  0  0  0  0  0  0  0
   -2.9391   -0.1678    1.8211 H   0  0  0  0  0  0  0  0  0  0  0  0
   -3.7663    3.1631   -0.7632 H   0  0  0  0  0  0  0  0  0  0  0  0
   -2.3255   -0.5242   -2.4362 H   0  0  0  0  0  0  0  0  0  0  0  0
  1  2  2  0
  2  3  1  0
  3  4  1  0
  4  5  1  0
  5  6  1  0
  6  7  2  0
  7  8  1  0
  8  9  2  0
  9 10  1  0
  4 11  1  0
 11 12  2  0
 11 13  1  0
 13 14  1  0
 14 15  1  0
 15 16  1  0
 16 17  2  0
 17 18  1  0
 18 19  1  0
 18 20  2  0
 20 21  1  0
 21 22  1  0
 21 23  2  0
 14  2  1  0
 23 16  1  0
 10  6  1  0
  3 24  1  0
  4 25  1  0
  5 26  1  0
  5 27  1  0
  8 28  1  0
  9 29  1  0
 13 30  1  0
 14 31  1  0
 15 32  1  0
 15 33  1  0
 17 34  1  0
 20 35  1  0
 23 36  1  0
M  END
$$$$
OCNT-2312044
     RDKit          3D

 39 41  0  0  0  0  0  0  0  0999 V2000
   -4.0187   -3.2354   -2.4938 N   0  0  0  0  0  0  0  0  0  0  0  0
   -3.7507   -2.3770   -1.7575 C   0  0  0  0  0  0  0  0  0  0  0  0
   -3.4715   -1.3060   -0.8411 C   0  0  0  0  0  0  0  0  0  0  0  0
   -4.5030   -0.6129   -0.2277 C   0  0  0  0  0  0  0  0  0  0  0  0
   -4.1728    0.4184    0.6525 C   0  0  0  0  0  0  0  0  0  0  0  0
   -5.2375    1.1920    1.3801 C   0  0  0  0  0  0  0  0  0  0  0  0
   -6.4167    1.2321    0.7008 F   0  0  0  0  0  0  0  0  0  0  0  0
   -4.8925    2.4890    1.6050 F   0  0  0  0  0  0  0  0  0  0  0  0
   -5.5224    0.6577    2.5973 F   0  0  0  0  0  0  0  0  0  0  0  0
   -2.8179    0.6907    0.8772 C   0  0  0  0  0  0  0  0  0  0  0  0
   -1.8324   -0.0449    0.2181 C   0  0  0  0  0  0  0  0  0  0  0  0
   -0.4737    0.2595    0.4736 N   0  0  0  0  0  0  0  0  0  0  0  0
   -0.1091    1.5286   -0.1778 C   0  0  0  0  0  0  0  0  0  0  0  0
    1.2830    2.0221    0.2147 C   0  0  0  0  0  0  0  0  0  0  0  0
    2.4028    1.2326   -0.4649 C   0  0  0  0  0  0  0  0  0  0  0  0
    2.8232   -0.0057    0.1967 N   0  0  0  0  0  0  0  0  0  0  0  0
    3.6372   -0.8536   -0.6928 C   0  0  0  0  0  0  0  0  0  0  0  0
    5.0795   -0.4961   -0.9328 C   0  0  0  0  0  0  0  0  0  0  0  0
    4.7358   -1.6952   -0.1011 C   0  0  0  0  0  0  0  0  0  0  0  0
    1.7627   -0.7560    0.8869 C   0  0  0  0  0  0  0  0  0  0  0  0
    0.4089   -0.8872    0.1628 C   0  0  0  0  0  0  0  0  0  0  0  0
   -2.1602   -1.0380   -0.6324 N   0  0  0  0  0  0  0  0  0  0  0  0
   -5.5410   -0.8696   -0.4255 H   0  0  0  0  0  0  0  0  0  0  0  0
   -2.5248    1.4655    1.5828 H   0  0  0  0  0  0  0  0  0  0  0  0
   -0.1851    1.4363   -1.2699 H   0  0  0  0  0  0  0  0  0  0  0  0
   -0.8117    2.3175    0.1208 H   0  0  0  0  0  0  0  0  0  0  0  0
    1.4096    2.0394    1.3037 H   0  0  0  0  0  0  0  0  0  0  0  0
    1.3675    3.0646   -0.1191 H   0  0  0  0  0  0  0  0  0  0  0  0
    2.1149    1.0334   -1.5059 H   0  0  0  0  0  0  0  0  0  0  0  0
    3.2838    1.8851   -0.5151 H   0  0  0  0  0  0  0  0  0  0  0  0
    3.1023   -1.2852   -1.5377 H   0  0  0  0  0  0  0  0  0  0  0  0
    5.4836   -0.6627   -1.9240 H   0  0  0  0  0  0  0  0  0  0  0  0
    5.4910    0.3673   -0.4232 H   0  0  0  0  0  0  0  0  0  0  0  0
    4.9132   -1.6356    0.9665 H   0  0  0  0  0  0  0  0  0  0  0  0
    4.9059   -2.6767   -0.5266 H   0  0  0  0  0  0  0  0  0  0  0  0
    2.1328   -1.7668    1.1049 H   0  0  0  0  0  0  0  0  0  0  0  0
    1.6062   -0.3007    1.8735 H   0  0  0  0  0  0  0  0  0  0  0  0
   -0.0467   -1.8117    0.5447 H   0  0  0  0  0  0  0  0  0  0  0  0
    0.5446   -1.0146   -0.9192 H   0  0  0  0  0  0  0  0  0  0  0  0
  1  2  3  0
  2  3  1  0
  3  4  1  0
  4  5  2  0
  5  6  1  0
  6  7  1  0
  6  8  1  0
  6  9  1  0
  5 10  1  0
 10 11  2  0
 11 12  1  0
 12 13  1  0
 13 14  1  0
 14 15  1  0
 15 16  1  0
 16 17  1  0
 17 18  1  0
 18 19  1  0
 16 20  1  0
 20 21  1  0
 11 22  1  0
 22  3  2  0
 21 12  1  0
 19 17  1  0
  4 23  1  0
 10 24  1  0
 13 25  1  0
 13 26  1  0
 14 27  1  0
 14 28  1  0
 15 29  1  0
 15 30  1  0
 17 31  1  0
 18 32  1  0
 18 33  1  0
 19 34  1  0
 19 35  1  0
 20 36  1  0
 20 37  1  0
 21 38  1  0
 21 39  1  0
M  END
$$$$
OCNT-2312049
     RDKit          3D

 50 52  0  0  0  0  0  0  0  0999 V2000
   -3.6221   -3.7150   -1.6311 C   0  0  0  0  0  0  0  0  0  0  0  0
   -2.1085   -3.6671   -1.5050 C   0  0  0  0  0  0  0  0  0  0  0  0
   -1.6894   -2.9793   -0.2365 C   0  0  0  0  0  0  0  0  0  0  0  0
   -1.4990   -3.7377    0.8514 N   0  0  0  0  0  0  0  0  0  0  0  0
   -1.1597   -3.0712    1.9619 C   0  0  0  0  0  0  0  0  0  0  0  0
   -1.0067   -1.7020    2.0188 C   0  0  0  0  0  0  0  0  0  0  0  0
   -1.2107   -0.9807    0.8560 C   0  0  0  0  0  0  0  0  0  0  0  0
   -1.1106    0.4175    0.7858 N   0  0  0  0  0  0  0  0  0  0  0  0
   -0.5869    0.8752   -0.5231 C   0  0  0  0  0  0  0  0  0  0  0  0
    0.8778    0.6836   -0.7775 C   0  0  0  0  0  0  0  0  0  0  0  0
    1.5479   -0.4098   -1.2848 C   0  0  0  0  0  0  0  0  0  0  0  0
    2.8565   -0.0356   -1.2648 N   0  0  0  0  0  0  0  0  0  0  0  0
    4.0098   -0.8187   -1.6786 C   0  0  0  0  0  0  0  0  0  0  0  0
    4.7584   -0.1514   -2.8316 C   0  0  0  0  0  0  0  0  0  0  0  0
    4.9417   -1.1066   -0.5023 C   0  0  0  0  0  0  0  0  0  0  0  0
    3.0004    1.2119   -0.7822 N   0  0  0  0  0  0  0  0  0  0  0  0
    1.7911    1.6642   -0.4795 N   0  0  0  0  0  0  0  0  0  0  0  0
   -0.7105    1.1897    1.9767 C   0  0  0  0  0  0  0  0  0  0  0  0
   -1.1924    2.6555    2.0377 C   0  0  0  0  0  0  0  0  0  0  0  0
   -0.4940    3.6656    1.1757 C   0  0  0  0  0  0  0  0  0  0  0  0
   -1.3529    4.5580    0.6707 C   0  0  0  0  0  0  0  0  0  0  0  0
   -2.7565    4.2835    1.0996 C   0  0  0  0  0  0  0  0  0  0  0  0
   -2.6703    2.8666    1.6709 C   0  0  0  0  0  0  0  0  0  0  0  0
   -1.5565   -1.6390   -0.2704 N   0  0  0  0  0  0  0  0  0  0  0  0
   -3.9093   -4.2265   -2.5550 H   0  0  0  0  0  0  0  0  0  0  0  0
   -4.0732   -4.2528   -0.7900 H   0  0  0  0  0  0  0  0  0  0  0  0
   -4.0496   -2.7069   -1.6541 H   0  0  0  0  0  0  0  0  0  0  0  0
   -1.6803   -3.1380   -2.3641 H   0  0  0  0  0  0  0  0  0  0  0  0
   -1.7030   -4.6850   -1.5198 H   0  0  0  0  0  0  0  0  0  0  0  0
   -1.0057   -3.6858    2.8438 H   0  0  0  0  0  0  0  0  0  0  0  0
   -0.7171   -1.2556    2.9575 H   0  0  0  0  0  0  0  0  0  0  0  0
   -0.8156    1.9360   -0.6532 H   0  0  0  0  0  0  0  0  0  0  0  0
   -1.1491    0.4183   -1.3496 H   0  0  0  0  0  0  0  0  0  0  0  0
    1.2079   -1.3772   -1.6230 H   0  0  0  0  0  0  0  0  0  0  0  0
    3.6153   -1.7767   -2.0408 H   0  0  0  0  0  0  0  0  0  0  0  0
    5.1970    0.8057   -2.5280 H   0  0  0  0  0  0  0  0  0  0  0  0
    5.5691   -0.7945   -3.1900 H   0  0  0  0  0  0  0  0  0  0  0  0
    4.0849    0.0443   -3.6734 H   0  0  0  0  0  0  0  0  0  0  0  0
    5.3837   -0.1869   -0.1032 H   0  0  0  0  0  0  0  0  0  0  0  0
    5.7590   -1.7680   -0.8088 H   0  0  0  0  0  0  0  0  0  0  0  0
    4.3996   -1.5959    0.3146 H   0  0  0  0  0  0  0  0  0  0  0  0
    0.3779    1.1435    2.1072 H   0  0  0  0  0  0  0  0  0  0  0  0
   -1.1587    0.7374    2.8688 H   0  0  0  0  0  0  0  0  0  0  0  0
   -1.0368    2.9905    3.0739 H   0  0  0  0  0  0  0  0  0  0  0  0
    0.5777    3.6909    1.0240 H   0  0  0  0  0  0  0  0  0  0  0  0
   -1.0703    5.3975    0.0500 H   0  0  0  0  0  0  0  0  0  0  0  0
   -3.4542    4.3265    0.2581 H   0  0  0  0  0  0  0  0  0  0  0  0
   -3.0705    5.0065    1.8593 H   0  0  0  0  0  0  0  0  0  0  0  0
   -3.0102    2.1537    0.9105 H   0  0  0  0  0  0  0  0  0  0  0  0
   -3.3253    2.7420    2.5400 H   0  0  0  0  0  0  0  0  0  0  0  0
  1  2  1  0
  2  3  1  0
  3  4  2  0
  4  5  1  0
  5  6  2  0
  6  7  1  0
  7  8  1  0
  8  9  1  0
  9 10  1  0
 10 11  2  0
 11 12  1  0
 12 13  1  0
 13 14  1  0
 13 15  1  0
 12 16  1  0
 16 17  2  0
  8 18  1  0
 18 19  1  0
 19 20  1  0
 20 21  2  0
 21 22  1  0
 22 23  1  0
  7 24  2  0
 24  3  1  0
 17 10  1  0
 23 19  1  0
  1 25  1  0
  1 26  1  0
  1 27  1  0
  2 28  1  0
  2 29  1  0
  5 30  1  0
  6 31  1  0
  9 32  1  0
  9 33  1  0
 11 34  1  0
 13 35  1  0
 14 36  1  0
 14 37  1  0
 14 38  1  0
 15 39  1  0
 15 40  1  0
 15 41  1  0
 18 42  1  0
 18 43  1  0
 19 44  1  0
 20 45  1  0
 21 46  1  0
 22 47  1  0
 22 48  1  0
 23 49  1  0
 23 50  1  0
M  END
$$$$
OCNT-2312062
     RDKit          3D

 47 51  0  0  0  0  0  0  0  0999 V2000
    0.6603    1.4994    2.7480 N   0  0  0  0  0  0  0  0  0  0  0  0
   -0.4014    1.2153    2.3726 C   0  0  0  0  0  0  0  0  0  0  0  0
   -1.7325    0.9040    1.9546 C   0  0  0  0  0  0  0  0  0  0  0  0
   -2.7652    1.2348    2.8169 C   0  0  0  0  0  0  0  0  0  0  0  0
   -4.0666    1.0081    2.5591 N   0  0  0  0  0  0  0  0  0  0  0  0
   -4.3759    0.4259    1.3884 C   0  0  0  0  0  0  0  0  0  0  0  0
   -5.7061    0.1780    1.0832 C   0  0  0  0  0  0  0  0  0  0  0  0
   -6.1728   -0.3961   -0.0534 N   0  0  0  0  0  0  0  0  0  0  0  0
   -5.2432   -0.7482   -0.9526 C   0  0  0  0  0  0  0  0  0  0  0  0
   -3.8849   -0.5515   -0.7590 C   0  0  0  0  0  0  0  0  0  0  0  0
   -3.4089    0.0445    0.4292 C   0  0  0  0  0  0  0  0  0  0  0  0
   -2.0302    0.2883    0.7221 C   0  0  0  0  0  0  0  0  0  0  0  0
   -1.0032   -0.0521   -0.1304 N   0  0  0  0  0  0  0  0  0  0  0  0
   -0.5369    0.7368   -1.2638 C   0  0  0  0  0  0  0  0  0  0  0  0
   -0.6733   -0.2420   -2.4411 C   0  0  0  0  0  0  0  0  0  0  0  0
   -0.6042   -1.6419   -1.8069 C   0  0  0  0  0  0  0  0  0  0  0  0
   -0.4469   -1.3888   -0.2976 C   0  0  0  0  0  0  0  0  0  0  0  0
    1.0369   -1.2844    0.1092 C   0  0  0  0  0  0  0  0  0  0  0  0
    1.8197   -0.1728   -0.6558 C   0  0  0  0  0  0  0  0  0  0  0  0
    2.1892   -0.7096   -1.9458 O   0  0  0  0  0  0  0  0  0  0  0  0
    3.1579    0.1060    0.0495 C   0  0  0  0  0  0  0  0  0  0  0  0
    3.5051    1.3519    0.5947 C   0  0  0  0  0  0  0  0  0  0  0  0
    4.7407    1.5476    1.2249 C   0  0  0  0  0  0  0  0  0  0  0  0
    5.6519    0.5013    1.3164 C   0  0  0  0  0  0  0  0  0  0  0  0
    7.1691    0.7482    2.0876 Cl  0  0  0  0  0  0  0  0  0  0  0  0
    5.3395   -0.7430    0.7836 C   0  0  0  0  0  0  0  0  0  0  0  0
    4.1048   -0.9369    0.1579 C   0  0  0  0  0  0  0  0  0  0  0  0
    0.9377    1.0796   -0.9553 C   0  0  0  0  0  0  0  0  0  0  0  0
   -2.5720    1.7098    3.7770 H   0  0  0  0  0  0  0  0  0  0  0  0
   -6.4786    0.4563    1.7963 H   0  0  0  0  0  0  0  0  0  0  0  0
   -5.6206   -1.2058   -1.8628 H   0  0  0  0  0  0  0  0  0  0  0  0
   -3.2125   -0.8635   -1.5416 H   0  0  0  0  0  0  0  0  0  0  0  0
   -1.1199    1.6499   -1.4270 H   0  0  0  0  0  0  0  0  0  0  0  0
   -1.6436   -0.1100   -2.9328 H   0  0  0  0  0  0  0  0  0  0  0  0
    0.0851   -0.0889   -3.2148 H   0  0  0  0  0  0  0  0  0  0  0  0
   -1.5337   -2.1853   -2.0086 H   0  0  0  0  0  0  0  0  0  0  0  0
    0.2011   -2.2550   -2.2233 H   0  0  0  0  0  0  0  0  0  0  0  0
   -0.9593   -2.1525    0.2977 H   0  0  0  0  0  0  0  0  0  0  0  0
    1.0816   -1.0848    1.1877 H   0  0  0  0  0  0  0  0  0  0  0  0
    1.5061   -2.2631   -0.0540 H   0  0  0  0  0  0  0  0  0  0  0  0
    2.9938   -0.2426   -2.2354 H   0  0  0  0  0  0  0  0  0  0  0  0
    2.8282    2.2006    0.5647 H   0  0  0  0  0  0  0  0  0  0  0  0
    4.9769    2.5206    1.6484 H   0  0  0  0  0  0  0  0  0  0  0  0
    6.0457   -1.5659    0.8514 H   0  0  0  0  0  0  0  0  0  0  0  0
    3.8828   -1.9200   -0.2557 H   0  0  0  0  0  0  0  0  0  0  0  0
    0.9191    1.7541   -0.0951 H   0  0  0  0  0  0  0  0  0  0  0  0
    1.3589    1.6439   -1.7971 H   0  0  0  0  0  0  0  0  0  0  0  0
  1  2  3  0
  2  3  1  0
  3  4  1  0
  4  5  2  0
  5  6  1  0
  6  7  2  0
  7  8  1  0
  8  9  2  0
  9 10  1  0
 10 11  2  0
 11 12  1  0
 12 13  1  0
 13 14  1  0
 14 15  1  0
 15 16  1  0
 16 17  1  0
 17 18  1  0
 18 19  1  0
 19 20  1  0
 19 21  1  0
 21 22  1  0
 22 23  2  0
 23 24  1  0
 24 25  1  0
 24 26  2  0
 26 27  1  0
 19 28  1  0
 12  3  2  0
 17 13  1  0
 27 21  2  0
 11  6  1  0
 28 14  1  0
  4 29  1  0
  7 30  1  0
  9 31  1  0
 10 32  1  0
 14 33  1  0
 15 34  1  0
 15 35  1  0
 16 36  1  0
 16 37  1  0
 17 38  1  0
 18 39  1  0
 18 40  1  0
 20 41  1  0
 22 42  1  0
 23 43  1  0
 26 44  1  0
 27 45  1  0
 28 46  1  0
 28 47  1  0
M  END
$$$$
OCNT-2312063
     RDKit          3D

 54 58  0  0  0  0  0  0  0  0999 V2000
   -8.3056   -0.4113    2.2183 O   0  0  0  0  0  0  0  0  0  0  0  0
   -7.1736   -0.7243    1.8671 C   0  0  0  0  0  0  0  0  0  0  0  0
   -6.3284   -1.4483    2.6711 N   0  0  0  0  0  0  0  0  0  0  0  0
   -5.0619   -1.8335    2.3632 N   0  0  0  0  0  0  0  0  0  0  0  0
   -4.5791   -1.5026    1.2006 C   0  0  0  0  0  0  0  0  0  0  0  0
   -3.1533   -1.9437    0.8953 C   0  0  0  0  0  0  0  0  0  0  0  0
   -2.1380   -0.8279    1.0068 C   0  0  0  0  0  0  0  0  0  0  0  0
   -2.0973    0.0046    2.1372 C   0  0  0  0  0  0  0  0  0  0  0  0
   -1.1645    1.0412    2.2242 C   0  0  0  0  0  0  0  0  0  0  0  0
   -0.2508    1.2397    1.1941 C   0  0  0  0  0  0  0  0  0  0  0  0
    0.6133    2.2600    1.2894 F   0  0  0  0  0  0  0  0  0  0  0  0
   -0.2443    0.3939    0.0894 C   0  0  0  0  0  0  0  0  0  0  0  0
    0.7000    0.5900   -1.0249 C   0  0  0  0  0  0  0  0  0  0  0  0
    0.2209    0.7271   -2.1491 O   0  0  0  0  0  0  0  0  0  0  0  0
    2.0658    0.5679   -0.7760 N   0  0  0  0  0  0  0  0  0  0  0  0
    2.9823    0.8111   -1.8909 C   0  0  0  0  0  0  0  0  0  0  0  0
    4.3518    1.3589   -1.4473 C   0  0  0  0  0  0  0  0  0  0  0  0
    4.9629    0.5541   -0.3729 N   0  0  0  0  0  0  0  0  0  0  0  0
    6.3179    0.2427   -0.4479 C   0  0  0  0  0  0  0  0  0  0  0  0
    7.2403    1.1725   -0.8982 C   0  0  0  0  0  0  0  0  0  0  0  0
    8.5654    0.7942   -0.9228 C   0  0  0  0  0  0  0  0  0  0  0  0
    8.9977   -0.4137   -0.5345 N   0  0  0  0  0  0  0  0  0  0  0  0
    8.0406   -1.2402   -0.0987 C   0  0  0  0  0  0  0  0  0  0  0  0
    6.7274   -0.9704   -0.0309 N   0  0  0  0  0  0  0  0  0  0  0  0
    4.1030   -0.4428    0.2825 C   0  0  0  0  0  0  0  0  0  0  0  0
    2.6824    0.1166    0.4808 C   0  0  0  0  0  0  0  0  0  0  0  0
   -1.1937   -0.6314   -0.0127 C   0  0  0  0  0  0  0  0  0  0  0  0
   -5.3496   -0.7217    0.1982 C   0  0  0  0  0  0  0  0  0  0  0  0
   -4.8445   -0.3559   -1.0551 C   0  0  0  0  0  0  0  0  0  0  0  0
   -5.6327    0.3886   -1.9388 C   0  0  0  0  0  0  0  0  0  0  0  0
   -6.9256    0.7676   -1.5806 C   0  0  0  0  0  0  0  0  0  0  0  0
   -7.4347    0.4029   -0.3359 C   0  0  0  0  0  0  0  0  0  0  0  0
   -6.6431   -0.3396    0.5493 C   0  0  0  0  0  0  0  0  0  0  0  0
   -6.6796   -1.7245    3.5831 H   0  0  0  0  0  0  0  0  0  0  0  0
   -3.1327   -2.4005   -0.1012 H   0  0  0  0  0  0  0  0  0  0  0  0
   -2.8665   -2.7377    1.5968 H   0  0  0  0  0  0  0  0  0  0  0  0
   -2.8017   -0.1407    2.9563 H   0  0  0  0  0  0  0  0  0  0  0  0
   -1.1512    1.6994    3.0883 H   0  0  0  0  0  0  0  0  0  0  0  0
    3.1145   -0.1492   -2.4051 H   0  0  0  0  0  0  0  0  0  0  0  0
    2.5228    1.5020   -2.6065 H   0  0  0  0  0  0  0  0  0  0  0  0
    4.9905    1.4094   -2.3375 H   0  0  0  0  0  0  0  0  0  0  0  0
    4.2254    2.3810   -1.0704 H   0  0  0  0  0  0  0  0  0  0  0  0
    6.9532    2.1708   -1.1971 H   0  0  0  0  0  0  0  0  0  0  0  0
    9.3367    1.4781   -1.2620 H   0  0  0  0  0  0  0  0  0  0  0  0
    8.3544   -2.2235    0.2329 H   0  0  0  0  0  0  0  0  0  0  0  0
    4.0535   -1.3553   -0.3257 H   0  0  0  0  0  0  0  0  0  0  0  0
    4.5023   -0.7077    1.2694 H   0  0  0  0  0  0  0  0  0  0  0  0
    2.7256    0.9873    1.1447 H   0  0  0  0  0  0  0  0  0  0  0  0
    2.0506   -0.6440    0.9506 H   0  0  0  0  0  0  0  0  0  0  0  0
   -1.1918   -1.2669   -0.8972 H   0  0  0  0  0  0  0  0  0  0  0  0
   -3.8436   -0.6269   -1.3751 H   0  0  0  0  0  0  0  0  0  0  0  0
   -5.2336    0.6771   -2.9092 H   0  0  0  0  0  0  0  0  0  0  0  0
   -7.5359    1.3475   -2.2695 H   0  0  0  0  0  0  0  0  0  0  0  0
   -8.4438    0.6983   -0.0548 H   0  0  0  0  0  0  0  0  0  0  0  0
  1  2  2  0
  2  3  1  0
  3  4  1  0
  4  5  2  0
  5  6  1  0
  6  7  1  0
  7  8  1  0
  8  9  2  0
  9 10  1  0
 10 11  1  0
 10 12  2  0
 12 13  1  0
 13 14  2  0
 13 15  1  0
 15 16  1  0
 16 17  1  0
 17 18  1  0
 18 19  1  0
 19 20  1  0
 20 21  2  0
 21 22  1  0
 22 23  2  0
 23 24  1  0
 18 25  1  0
 25 26  1  0
 12 27  1  0
  5 28  1  0
 28 29  2  0
 29 30  1  0
 30 31  2  0
 31 32  1  0
 32 33  2  0
 33  2  1  0
 27  7  2  0
 33 28  1  0
 26 15  1  0
 24 19  2  0
  3 34  1  0
  6 35  1  0
  6 36  1  0
  8 37  1  0
  9 38  1  0
 16 39  1  0
 16 40  1  0
 17 41  1  0
 17 42  1  0
 20 43  1  0
 21 44  1  0
 23 45  1  0
 25 46  1  0
 25 47  1  0
 26 48  1  0
 26 49  1  0
 27 50  1  0
 29 51  1  0
 30 52  1  0
 31 53  1  0
 32 54  1  0
M  END
$$$$
OCNT-2312068
     RDKit          3D

 52 55  0  0  0  0  0  0  0  0999 V2000
   -7.3700    2.3063   -0.9700 C   0  0  0  0  0  0  0  0  0  0  0  0
   -6.5984    1.3740   -0.2068 O   0  0  0  0  0  0  0  0  0  0  0  0
   -5.8678    0.4505   -0.9059 C   0  0  0  0  0  0  0  0  0  0  0  0
   -5.8598    0.2895   -2.2931 C   0  0  0  0  0  0  0  0  0  0  0  0
   -5.0516   -0.6912   -2.8802 C   0  0  0  0  0  0  0  0  0  0  0  0
   -4.2486   -1.5181   -2.0854 C   0  0  0  0  0  0  0  0  0  0  0  0
   -4.2544   -1.3770   -0.6922 C   0  0  0  0  0  0  0  0  0  0  0  0
   -3.3691   -2.2272    0.1857 C   0  0  0  0  0  0  0  0  0  0  0  0
   -2.1916   -1.4895    0.5656 N   0  0  0  0  0  0  0  0  0  0  0  0
   -1.5393   -1.6884    1.7693 C   0  0  0  0  0  0  0  0  0  0  0  0
   -1.9370   -2.4449    2.6589 O   0  0  0  0  0  0  0  0  0  0  0  0
   -0.2965   -0.8067    1.9368 C   0  0  0  0  0  0  0  0  0  0  0  0
    0.4321   -0.6816    0.6534 N   0  0  0  0  0  0  0  0  0  0  0  0
    1.1325   -1.9348    0.2829 C   0  0  0  0  0  0  0  0  0  0  0  0
    2.2518   -1.4659   -0.5977 C   0  0  0  0  0  0  0  0  0  0  0  0
    2.0308   -0.4774   -1.7155 C   0  0  0  0  0  0  0  0  0  0  0  0
    2.4757   -0.0160   -0.3279 C   0  0  0  0  0  0  0  0  0  0  0  0
    3.8643    0.5627   -0.1755 C   0  0  0  0  0  0  0  0  0  0  0  0
    4.2696    1.6809   -0.9235 C   0  0  0  0  0  0  0  0  0  0  0  0
    5.5461    2.2364   -0.7747 C   0  0  0  0  0  0  0  0  0  0  0  0
    6.4613    1.6823    0.1298 C   0  0  0  0  0  0  0  0  0  0  0  0
    7.8196    2.2911    0.3225 C   0  0  0  0  0  0  0  0  0  0  0  0
    6.0678    0.5822    0.8979 C   0  0  0  0  0  0  0  0  0  0  0  0
    4.7906    0.0304    0.7408 C   0  0  0  0  0  0  0  0  0  0  0  0
    1.4479    0.3909    0.7154 C   0  0  0  0  0  0  0  0  0  0  0  0
   -5.0681   -0.3860   -0.1148 C   0  0  0  0  0  0  0  0  0  0  0  0
   -7.8412    3.0100   -0.2752 H   0  0  0  0  0  0  0  0  0  0  0  0
   -8.1732    1.8009   -1.5134 H   0  0  0  0  0  0  0  0  0  0  0  0
   -6.7323    2.8868   -1.6522 H   0  0  0  0  0  0  0  0  0  0  0  0
   -6.4691    0.9104   -2.9477 H   0  0  0  0  0  0  0  0  0  0  0  0
   -5.0484   -0.8077   -3.9630 H   0  0  0  0  0  0  0  0  0  0  0  0
   -3.6183   -2.2673   -2.5625 H   0  0  0  0  0  0  0  0  0  0  0  0
   -3.9176   -2.5642    1.0759 H   0  0  0  0  0  0  0  0  0  0  0  0
   -3.0370   -3.1291   -0.3507 H   0  0  0  0  0  0  0  0  0  0  0  0
   -1.6812   -0.9522   -0.1310 H   0  0  0  0  0  0  0  0  0  0  0  0
    0.3411   -1.2284    2.7310 H   0  0  0  0  0  0  0  0  0  0  0  0
   -0.6593    0.1818    2.2697 H   0  0  0  0  0  0  0  0  0  0  0  0
    1.5551   -2.4453    1.1597 H   0  0  0  0  0  0  0  0  0  0  0  0
    0.4695   -2.6209   -0.2551 H   0  0  0  0  0  0  0  0  0  0  0  0
    3.0823   -2.1557   -0.6624 H   0  0  0  0  0  0  0  0  0  0  0  0
    1.0161   -0.2565   -2.0348 H   0  0  0  0  0  0  0  0  0  0  0  0
    2.7555   -0.4748   -2.5275 H   0  0  0  0  0  0  0  0  0  0  0  0
    3.5780    2.1294   -1.6389 H   0  0  0  0  0  0  0  0  0  0  0  0
    5.8169    3.1071   -1.3705 H   0  0  0  0  0  0  0  0  0  0  0  0
    8.5748    1.5121    0.4964 H   0  0  0  0  0  0  0  0  0  0  0  0
    8.1321    2.8532   -0.5691 H   0  0  0  0  0  0  0  0  0  0  0  0
    7.8056    2.9712    1.1851 H   0  0  0  0  0  0  0  0  0  0  0  0
    6.7527    0.1474    1.6273 H   0  0  0  0  0  0  0  0  0  0  0  0
    4.5105   -0.8240    1.3525 H   0  0  0  0  0  0  0  0  0  0  0  0
    1.9193    0.4306    1.7093 H   0  0  0  0  0  0  0  0  0  0  0  0
    0.9986    1.3665    0.4885 H   0  0  0  0  0  0  0  0  0  0  0  0
   -5.0686   -0.2538    0.9669 H   0  0  0  0  0  0  0  0  0  0  0  0
  1  2  1  0
  2  3  1  0
  3  4  1  0
  4  5  2  0
  5  6  1  0
  6  7  2  0
  7  8  1  0
  8  9  1  0
  9 10  1  0
 10 11  2  0
 10 12  1  0
 12 13  1  0
 13 14  1  0
 14 15  1  0
 15 16  1  0
 16 17  1  0
 17 18  1  0
 18 19  1  0
 19 20  2  0
 20 21  1  0
 21 22  1  0
 21 23  2  0
 23 24  1  0
 17 25  1  0
  7 26  1  0
 26  3  2  0
 25 13  1  0
 17 15  1  0
 24 18  2  0
  1 27  1  0
  1 28  1  0
  1 29  1  0
  4 30  1  0
  5 31  1  0
  6 32  1  0
  8 33  1  0
  8 34  1  0
  9 35  1  0
 12 36  1  0
 12 37  1  0
 14 38  1  0
 14 39  1  0
 15 40  1  0
 16 41  1  0
 16 42  1  0
 19 43  1  0
 20 44  1  0
 22 45  1  0
 22 46  1  0
 22 47  1  0
 23 48  1  0
 24 49  1  0
 25 50  1  0
 25 51  1  0
 26 52  1  0
M  END
$$$$
OCNT-2312069
     RDKit          3D

 40 43  0  0  0  0  0  0  0  0999 V2000
   -4.0378    2.4164   -1.3257 O   0  0  0  0  0  0  0  0  0  0  0  0
   -3.4218    1.3186   -0.6263 C   0  0  2  0  0  0  0  0  0  0  0  0
   -2.7017    1.6871    0.6860 C   0  0  0  0  0  0  0  0  0  0  0  0
   -1.5727    0.6614    0.3062 C   0  0  1  0  0  0  0  0  0  0  0  0
   -0.1591    1.2319    0.5566 C   0  0  0  0  0  0  0  0  0  0  0  0
    0.8627    0.4523   -0.1289 N   0  0  0  0  0  0  0  0  0  0  0  0
    2.1369    0.8963   -0.4889 C   0  0  0  0  0  0  0  0  0  0  0  0
    2.4551    2.1590   -0.8212 C   0  0  0  0  0  0  0  0  0  0  0  0
    3.8660    2.4123   -1.2145 C   0  0  0  0  0  0  0  0  0  0  0  0
    4.8223    1.5366   -1.2658 N   0  0  0  0  0  0  0  0  0  0  0  0
    4.4770    0.2604   -0.9126 C   0  0  0  0  0  0  0  0  0  0  0  0
    5.1846   -0.9143   -0.8447 C   0  0  0  0  0  0  0  0  0  0  0  0
    6.9911   -1.2051   -1.2215 Br  0  0  0  0  0  0  0  0  0  0  0  0
    4.2849   -1.8977   -0.4288 C   0  0  0  0  0  0  0  0  0  0  0  0
    3.0570   -1.4116   -0.2325 N   0  0  0  0  0  0  0  0  0  0  0  0
    3.1710   -0.0802   -0.5365 N   0  0  0  0  0  0  0  0  0  0  0  0
   -1.7099   -0.8176    0.9558 C   0  0  0  0  0  0  0  0  0  0  0  0
   -2.0661   -1.0082    2.3085 C   0  0  0  0  0  0  0  0  0  0  0  0
   -2.1898   -2.2799    2.8790 C   0  0  0  0  0  0  0  0  0  0  0  0
   -1.9490   -3.4110    2.1106 C   0  0  0  0  0  0  0  0  0  0  0  0
   -1.5762   -3.2655    0.7801 C   0  0  0  0  0  0  0  0  0  0  0  0
   -1.4593   -1.9903    0.2169 C   0  0  0  0  0  0  0  0  0  0  0  0
   -2.0570    0.8568   -1.1731 C   0  0  0  0  0  0  0  0  0  0  0  0
   -4.8580    2.5991   -0.8353 H   0  0  0  0  0  0  0  0  0  0  0  0
   -4.1323    0.4872   -0.5101 H   0  0  0  0  0  0  0  0  0  0  0  0
   -2.3786    2.7338    0.7289 H   0  0  0  0  0  0  0  0  0  0  0  0
   -3.2743    1.4822    1.5942 H   0  0  0  0  0  0  0  0  0  0  0  0
   -0.1251    2.2739    0.2186 H   0  0  0  0  0  0  0  0  0  0  0  0
    0.0568    1.2438    1.6335 H   0  0  0  0  0  0  0  0  0  0  0  0
    0.9101   -0.5256    0.1945 H   0  0  0  0  0  0  0  0  0  0  0  0
    1.7560    2.9802   -0.8522 H   0  0  0  0  0  0  0  0  0  0  0  0
    4.0889    3.4564   -1.4993 H   0  0  0  0  0  0  0  0  0  0  0  0
    4.4659   -2.9511   -0.2547 H   0  0  0  0  0  0  0  0  0  0  0  0
   -2.2531   -0.1426    2.9398 H   0  0  0  0  0  0  0  0  0  0  0  0
   -2.4722   -2.3807    3.9230 H   0  0  0  0  0  0  0  0  0  0  0  0
   -2.0495   -4.4044    2.5455 H   0  0  0  0  0  0  0  0  0  0  0  0
   -1.3684   -4.1459    0.1776 H   0  0  0  0  0  0  0  0  0  0  0  0
   -1.1515   -1.9138   -0.8244 H   0  0  0  0  0  0  0  0  0  0  0  0
   -2.0965   -0.0381   -1.8038 H   0  0  0  0  0  0  0  0  0  0  0  0
   -1.5263    1.6377   -1.7323 H   0  0  0  0  0  0  0  0  0  0  0  0
  1  2  1  0
  2  3  1  0
  3  4  1  0
  4  5  1  6
  5  6  1  0
  6  7  1  0
  7  8  2  0
  8  9  1  0
  9 10  2  0
 10 11  1  0
 11 12  2  0
 12 13  1  0
 12 14  1  0
 14 15  2  0
 15 16  1  0
  4 17  1  0
 17 18  2  0
 18 19  1  0
 19 20  2  0
 20 21  1  0
 21 22  2  0
  4 23  1  0
 23  2  1  0
 16  7  1  0
 22 17  1  0
 16 11  1  0
  1 24  1  0
  2 25  1  1
  3 26  1  0
  3 27  1  0
  5 28  1  0
  5 29  1  0
  6 30  1  0
  8 31  1  0
  9 32  1  0
 14 33  1  0
 18 34  1  0
 19 35  1  0
 20 36  1  0
 21 37  1  0
 22 38  1  0
 23 39  1  0
 23 40  1  0
M  END
$$$$
OCNT-2312089
     RDKit          3D

 45 49  0  0  0  0  0  0  0  0999 V2000
   -0.1828   -3.6592    1.9350 C   0  0  0  0  0  0  0  0  0  0  0  0
   -0.9404   -2.4883    1.4148 C   0  0  0  0  0  0  0  0  0  0  0  0
   -0.4978   -1.2274    1.0635 C   0  0  0  0  0  0  0  0  0  0  0  0
    0.8740   -0.7234    1.1200 C   0  0  0  0  0  0  0  0  0  0  0  0
    1.3365    0.5324    0.8016 C   0  0  0  0  0  0  0  0  0  0  0  0
    2.6766    0.4507    1.0244 N   0  0  0  0  0  0  0  0  0  0  0  0
    3.6708    1.4866    0.8526 C   0  0  0  0  0  0  0  0  0  0  0  0
    4.7130    1.2110   -0.2465 C   0  0  0  0  0  0  0  0  0  0  0  0
    4.1134    0.9502   -1.6339 C   0  0  0  0  0  0  0  0  0  0  0  0
    4.6751   -0.3964   -2.0542 C   0  0  0  0  0  0  0  0  0  0  0  0
    5.9602   -0.5020   -1.2630 C   0  0  0  0  0  0  0  0  0  0  0  0
    5.6111    0.0699    0.0405 N   0  0  0  0  0  0  0  0  0  0  0  0
    3.0273   -0.7707    1.4715 N   0  0  0  0  0  0  0  0  0  0  0  0
    1.9229   -1.5051    1.5242 N   0  0  0  0  0  0  0  0  0  0  0  0
   -1.4815   -0.3617    0.6078 N   0  0  0  0  0  0  0  0  0  0  0  0
   -2.6628   -0.9499    0.6146 C   0  0  0  0  0  0  0  0  0  0  0  0
   -3.9097   -0.2860    0.1762 C   0  0  0  0  0  0  0  0  0  0  0  0
   -5.1949   -0.8651    0.3278 C   0  0  0  0  0  0  0  0  0  0  0  0
   -6.3535   -0.2018   -0.1008 C   0  0  0  0  0  0  0  0  0  0  0  0
   -6.2073    1.0390   -0.6762 C   0  0  0  0  0  0  0  0  0  0  0  0
   -7.2129    1.8226   -1.1469 O   0  0  0  0  0  0  0  0  0  0  0  0
   -6.4685    2.9667   -1.6148 C   0  0  0  0  0  0  0  0  0  0  0  0
   -5.0445    2.8433   -1.4176 O   0  0  0  0  0  0  0  0  0  0  0  0
   -4.9729    1.6190   -0.8295 C   0  0  0  0  0  0  0  0  0  0  0  0
   -3.8168    0.9888   -0.4166 C   0  0  0  0  0  0  0  0  0  0  0  0
   -2.6329   -2.5828    1.1644 S   0  0  0  0  0  0  0  0  0  0  0  0
    0.3192   -3.4027    2.8737 H   0  0  0  0  0  0  0  0  0  0  0  0
    0.5744   -3.9760    1.2103 H   0  0  0  0  0  0  0  0  0  0  0  0
   -0.8316   -4.5191    2.1323 H   0  0  0  0  0  0  0  0  0  0  0  0
    0.8381    1.4230    0.4495 H   0  0  0  0  0  0  0  0  0  0  0  0
    4.1610    1.6215    1.8243 H   0  0  0  0  0  0  0  0  0  0  0  0
    3.1376    2.4174    0.6255 H   0  0  0  0  0  0  0  0  0  0  0  0
    5.3471    2.1051   -0.3123 H   0  0  0  0  0  0  0  0  0  0  0  0
    4.4586    1.7232   -2.3316 H   0  0  0  0  0  0  0  0  0  0  0  0
    3.0202    0.9485   -1.6623 H   0  0  0  0  0  0  0  0  0  0  0  0
    3.9820   -1.1966   -1.7665 H   0  0  0  0  0  0  0  0  0  0  0  0
    4.8393   -0.4581   -3.1340 H   0  0  0  0  0  0  0  0  0  0  0  0
    6.3072   -1.5352   -1.1702 H   0  0  0  0  0  0  0  0  0  0  0  0
    6.7588    0.0888   -1.7258 H   0  0  0  0  0  0  0  0  0  0  0  0
    5.0792   -0.6390    0.5632 H   0  0  0  0  0  0  0  0  0  0  0  0
   -5.3184   -1.8431    0.7874 H   0  0  0  0  0  0  0  0  0  0  0  0
   -7.3336   -0.6501    0.0181 H   0  0  0  0  0  0  0  0  0  0  0  0
   -6.8207    3.8565   -1.0804 H   0  0  0  0  0  0  0  0  0  0  0  0
   -6.6642    3.0986   -2.6851 H   0  0  0  0  0  0  0  0  0  0  0  0
   -2.8560    1.4767   -0.5526 H   0  0  0  0  0  0  0  0  0  0  0  0
  1  2  1  0
  2  3  2  0
  3  4  1  0
  4  5  2  0
  5  6  1  0
  6  7  1  0
  7  8  1  0
  8  9  1  0
  9 10  1  0
 10 11  1  0
 11 12  1  0
  6 13  1  0
 13 14  2  0
  3 15  1  0
 15 16  2  0
 16 17  1  0
 17 18  1  0
 18 19  2  0
 19 20  1  0
 20 21  1  0
 21 22  1  0
 22 23  1  0
 23 24  1  0
 24 25  1  0
 16 26  1  0
 26  2  1  0
 14  4  1  0
 25 17  2  0
 12  8  1  0
 24 20  2  0
  1 27  1  0
  1 28  1  0
  1 29  1  0
  5 30  1  0
  7 31  1  0
  7 32  1  0
  8 33  1  0
  9 34  1  0
  9 35  1  0
 10 36  1  0
 10 37  1  0
 11 38  1  0
 11 39  1  0
 12 40  1  0
 18 41  1  0
 19 42  1  0
 22 43  1  0
 22 44  1  0
 25 45  1  0
M  END
$$$$
OCNT-2312094
     RDKit          3D

 47 50  0  0  0  0  0  0  0  0999 V2000
    7.9119   -1.0251   -0.3418 C   0  0  0  0  0  0  0  0  0  0  0  0
    7.8884    0.1111   -1.1511 C   0  0  0  0  0  0  0  0  0  0  0  0
    6.6698    0.6975   -1.4942 C   0  0  0  0  0  0  0  0  0  0  0  0
    5.4767    0.1549   -1.0143 C   0  0  0  0  0  0  0  0  0  0  0  0
    4.3104    0.7720   -1.4085 O   0  0  0  0  0  0  0  0  0  0  0  0
    3.3514    0.9343   -0.4288 C   0  0  0  0  0  0  0  0  0  0  0  0
    3.5916    1.7598    0.6440 C   0  0  0  0  0  0  0  0  0  0  0  0
    2.5494    1.8733    1.5234 C   0  0  0  0  0  0  0  0  0  0  0  0
    1.3723    1.2430    1.3600 N   0  0  0  0  0  0  0  0  0  0  0  0
    1.2337    0.4711    0.2731 C   0  0  0  0  0  0  0  0  0  0  0  0
    0.0508   -0.2165    0.0343 N   0  0  0  0  0  0  0  0  0  0  0  0
   -1.1771    0.4606    0.4486 C   0  0  0  0  0  0  0  0  0  0  0  0
   -1.4669    0.1948    1.9323 C   0  0  0  0  0  0  0  0  0  0  0  0
   -2.9536    0.0196    2.1985 C   0  0  0  0  0  0  0  0  0  0  0  0
   -3.7048    0.9296    1.4028 O   0  0  0  0  0  0  0  0  0  0  0  0
   -3.6476    0.6488   -0.0054 C   0  0  0  0  0  0  0  0  0  0  0  0
   -4.8888   -0.0884   -0.4929 C   0  0  0  0  0  0  0  0  0  0  0  0
   -5.0195   -0.4300   -1.8505 C   0  0  0  0  0  0  0  0  0  0  0  0
   -6.1552   -1.0953   -2.3189 C   0  0  0  0  0  0  0  0  0  0  0  0
   -7.1848   -1.4212   -1.4405 C   0  0  0  0  0  0  0  0  0  0  0  0
   -7.0819   -1.0761   -0.0958 C   0  0  0  0  0  0  0  0  0  0  0  0
   -5.9461   -0.4110    0.3727 C   0  0  0  0  0  0  0  0  0  0  0  0
   -2.3369   -0.0474   -0.4113 C   0  0  0  0  0  0  0  0  0  0  0  0
    2.1853    0.3014   -0.6477 N   0  0  0  0  0  0  0  0  0  0  0  0
    5.4971   -0.9975   -0.2238 C   0  0  0  0  0  0  0  0  0  0  0  0
    6.7177   -1.5818    0.1176 C   0  0  0  0  0  0  0  0  0  0  0  0
    8.8613   -1.4849   -0.0785 H   0  0  0  0  0  0  0  0  0  0  0  0
    8.8188    0.5351   -1.5199 H   0  0  0  0  0  0  0  0  0  0  0  0
    6.6512    1.5758   -2.1335 H   0  0  0  0  0  0  0  0  0  0  0  0
    4.5279    2.2789    0.7838 H   0  0  0  0  0  0  0  0  0  0  0  0
    2.6247    2.4927    2.4119 H   0  0  0  0  0  0  0  0  0  0  0  0
    0.1030   -0.4747   -0.9468 H   0  0  0  0  0  0  0  0  0  0  0  0
   -1.0930    1.5433    0.2760 H   0  0  0  0  0  0  0  0  0  0  0  0
   -0.9272   -0.6809    2.3127 H   0  0  0  0  0  0  0  0  0  0  0  0
   -1.1041    1.0539    2.5108 H   0  0  0  0  0  0  0  0  0  0  0  0
   -3.2800   -1.0083    2.0000 H   0  0  0  0  0  0  0  0  0  0  0  0
   -3.1707    0.2265    3.2514 H   0  0  0  0  0  0  0  0  0  0  0  0
   -3.6740    1.6365   -0.4840 H   0  0  0  0  0  0  0  0  0  0  0  0
   -4.2377   -0.1755   -2.5627 H   0  0  0  0  0  0  0  0  0  0  0  0
   -6.2372   -1.3547   -3.3712 H   0  0  0  0  0  0  0  0  0  0  0  0
   -8.0694   -1.9368   -1.8041 H   0  0  0  0  0  0  0  0  0  0  0  0
   -7.8879   -1.3192    0.5916 H   0  0  0  0  0  0  0  0  0  0  0  0
   -5.8987   -0.1413    1.4257 H   0  0  0  0  0  0  0  0  0  0  0  0
   -2.1313    0.1220   -1.4759 H   0  0  0  0  0  0  0  0  0  0  0  0
   -2.4271   -1.1369   -0.2942 H   0  0  0  0  0  0  0  0  0  0  0  0
    4.5719   -1.4556    0.1172 H   0  0  0  0  0  0  0  0  0  0  0  0
    6.7364   -2.4774    0.7335 H   0  0  0  0  0  0  0  0  0  0  0  0
  1  2  2  0
  2  3  1  0
  3  4  2  0
  4  5  1  0
  5  6  1  0
  6  7  1  0
  7  8  2  0
  8  9  1  0
  9 10  2  0
 10 11  1  0
 11 12  1  0
 12 13  1  0
 13 14  1  0
 14 15  1  0
 15 16  1  0
 16 17  1  0
 17 18  2  0
 18 19  1  0
 19 20  2  0
 20 21  1  0
 21 22  2  0
 16 23  1  0
 10 24  1  0
  4 25  1  0
 25 26  2  0
 26  1  1  0
 24  6  2  0
 23 12  1  0
 22 17  1  0
  1 27  1  0
  2 28  1  0
  3 29  1  0
  7 30  1  0
  8 31  1  0
 11 32  1  0
 12 33  1  0
 13 34  1  0
 13 35  1  0
 14 36  1  0
 14 37  1  0
 16 38  1  0
 18 39  1  0
 19 40  1  0
 20 41  1  0
 21 42  1  0
 22 43  1  0
 23 44  1  0
 23 45  1  0
 25 46  1  0
 26 47  1  0
M  END
$$$$
OCNT-2312095
     RDKit          3D

 46 49  0  0  0  0  0  0  0  0999 V2000
   -2.1832    1.9661   -0.7791 C   0  0  0  0  0  0  0  0  0  0  0  0
   -2.0977    0.5342   -0.9155 N   0  0  0  0  0  0  0  0  0  0  0  0
   -3.1535   -0.3466   -0.8708 C   0  0  0  0  0  0  0  0  0  0  0  0
   -4.5581    0.0007   -0.5083 C   0  0  0  0  0  0  0  0  0  0  0  0
   -4.7042    0.4811    0.9114 C   0  0  0  0  0  0  0  0  0  0  0  0
   -5.2922    1.6777    1.2805 C   0  0  0  0  0  0  0  0  0  0  0  0
   -5.2987    1.9219    2.9730 S   0  0  0  0  0  0  0  0  0  0  0  0
   -4.5309    0.4208    3.2476 C   0  0  0  0  0  0  0  0  0  0  0  0
   -4.2718   -0.2471    2.0720 C   0  0  0  0  0  0  0  0  0  0  0  0
   -2.7242   -1.5371   -1.2327 N   0  0  0  0  0  0  0  0  0  0  0  0
   -1.3835   -1.4385   -1.5007 N   0  0  0  0  0  0  0  0  0  0  0  0
   -0.9869   -0.2100   -1.2412 C   0  0  0  0  0  0  0  0  0  0  0  0
    0.2705    0.3157   -1.3432 N   0  0  0  0  0  0  0  0  0  0  0  0
    1.1910   -0.3627   -2.2680 C   0  0  0  0  0  0  0  0  0  0  0  0
    1.6989   -1.7170   -1.7671 C   0  0  0  0  0  0  0  0  0  0  0  0
    3.1561   -1.7097   -1.3109 C   0  0  0  0  0  0  0  0  0  0  0  0
    3.6526   -0.9386   -0.1052 C   0  0  0  0  0  0  0  0  0  0  0  0
    5.0628   -0.9444    0.0406 C   0  0  0  0  0  0  0  0  0  0  0  0
    5.7050   -0.3161    1.1044 C   0  0  0  0  0  0  0  0  0  0  0  0
    4.9504    0.3372    2.0615 C   0  0  0  0  0  0  0  0  0  0  0  0
    3.5617    0.3572    1.9461 C   0  0  0  0  0  0  0  0  0  0  0  0
    2.8905   -0.2763    0.8746 C   0  0  0  0  0  0  0  0  0  0  0  0
    1.3818   -0.1537    0.8641 C   0  0  0  0  0  0  0  0  0  0  0  0
    0.8937    0.8973   -0.1450 C   0  0  0  0  0  0  0  0  0  0  0  0
   -1.3412    2.4450   -1.2866 H   0  0  0  0  0  0  0  0  0  0  0  0
   -3.1066    2.3176   -1.2463 H   0  0  0  0  0  0  0  0  0  0  0  0
   -2.1778    2.2136    0.2857 H   0  0  0  0  0  0  0  0  0  0  0  0
   -5.1935   -0.8856   -0.6391 H   0  0  0  0  0  0  0  0  0  0  0  0
   -4.9377    0.7558   -1.2083 H   0  0  0  0  0  0  0  0  0  0  0  0
   -5.7233    2.4329    0.6353 H   0  0  0  0  0  0  0  0  0  0  0  0
   -4.3109    0.0951    4.2568 H   0  0  0  0  0  0  0  0  0  0  0  0
   -3.7899   -1.2187    2.0392 H   0  0  0  0  0  0  0  0  0  0  0  0
    2.0269    0.3086   -2.5038 H   0  0  0  0  0  0  0  0  0  0  0  0
    0.6692   -0.5111   -3.2243 H   0  0  0  0  0  0  0  0  0  0  0  0
    1.6556   -2.4055   -2.6237 H   0  0  0  0  0  0  0  0  0  0  0  0
    1.0571   -2.1752   -1.0119 H   0  0  0  0  0  0  0  0  0  0  0  0
    3.7545   -1.3808   -2.1740 H   0  0  0  0  0  0  0  0  0  0  0  0
    3.4313   -2.7611   -1.1351 H   0  0  0  0  0  0  0  0  0  0  0  0
    5.6798   -1.4611   -0.6946 H   0  0  0  0  0  0  0  0  0  0  0  0
    6.7887   -0.3455    1.1827 H   0  0  0  0  0  0  0  0  0  0  0  0
    5.4365    0.8274    2.8982 H   0  0  0  0  0  0  0  0  0  0  0  0
    2.9934    0.8779    2.7148 H   0  0  0  0  0  0  0  0  0  0  0  0
    0.9156   -1.1350    0.7517 H   0  0  0  0  0  0  0  0  0  0  0  0
    1.0521    0.1762    1.8612 H   0  0  0  0  0  0  0  0  0  0  0  0
    0.1779    1.5559    0.3651 H   0  0  0  0  0  0  0  0  0  0  0  0
    1.7121    1.5615   -0.4620 H   0  0  0  0  0  0  0  0  0  0  0  0
  1  2  1  0
  2  3  1  0
  3  4  1  0
  4  5  1  0
  5  6  2  0
  6  7  1  0
  7  8  1  0
  8  9  2  0
  3 10  2  0
 10 11  1  0
 11 12  2  0
 12 13  1  0
 13 14  1  0
 14 15  1  0
 15 16  1  0
 16 17  1  0
 17 18  2  0
 18 19  1  0
 19 20  2  0
 20 21  1  0
 21 22  2  0
 22 23  1  0
 23 24  1  0
 12  2  1  0
 24 13  1  0
  9  5  1  0
 22 17  1  0
  1 25  1  0
  1 26  1  0
  1 27  1  0
  4 28  1  0
  4 29  1  0
  6 30  1  0
  8 31  1  0
  9 32  1  0
 14 33  1  0
 14 34  1  0
 15 35  1  0
 15 36  1  0
 16 37  1  0
 16 38  1  0
 18 39  1  0
 19 40  1  0
 20 41  1  0
 21 42  1  0
 23 43  1  0
 23 44  1  0
 24 45  1  0
 24 46  1  0
M  END
$$$$
OCNT-2312098
     RDKit          3D

 49 52  0  0  0  0  0  0  0  0999 V2000
    5.9821    2.3198   -0.8631 C   0  0  0  0  0  0  0  0  0  0  0  0
    6.1502    1.9850    0.9113 S   0  0  0  0  0  0  0  0  0  0  0  0
    5.1121    0.5459    1.0623 C   0  0  0  0  0  0  0  0  0  0  0  0
    5.6247   -0.6018    1.6601 C   0  0  0  0  0  0  0  0  0  0  0  0
    4.8259   -1.7433    1.7924 C   0  0  0  0  0  0  0  0  0  0  0  0
    3.5088   -1.7723    1.3541 C   0  0  0  0  0  0  0  0  0  0  0  0
    2.8077   -2.8996    1.5012 N   0  0  0  0  0  0  0  0  0  0  0  0
    1.5451   -2.8814    1.0629 C   0  0  0  0  0  0  0  0  0  0  0  0
    0.9118   -1.8418    0.5046 N   0  0  0  0  0  0  0  0  0  0  0  0
    1.6277   -0.7077    0.3641 C   0  0  0  0  0  0  0  0  0  0  0  0
    0.9822    0.4250   -0.1831 N   0  0  0  0  0  0  0  0  0  0  0  0
    0.4220    1.2896    0.8634 C   0  0  0  0  0  0  0  0  0  0  0  0
   -0.8770    0.7285    1.4464 C   0  0  0  0  0  0  0  0  0  0  0  0
   -1.8380    0.1748    0.3653 C   0  0  0  0  0  0  0  0  0  0  0  0
   -1.8543   -1.2588    0.4869 O   0  0  0  0  0  0  0  0  0  0  0  0
   -3.2756    0.6813    0.6583 C   0  0  0  0  0  0  0  0  0  0  0  0
   -4.3253    0.3142   -0.3656 C   0  0  0  0  0  0  0  0  0  0  0  0
   -4.8694   -0.9764   -0.4063 C   0  0  0  0  0  0  0  0  0  0  0  0
   -5.8379   -1.3083   -1.3573 C   0  0  0  0  0  0  0  0  0  0  0  0
   -6.2729   -0.3554   -2.2784 C   0  0  0  0  0  0  0  0  0  0  0  0
   -5.7359    0.9300   -2.2506 C   0  0  0  0  0  0  0  0  0  0  0  0
   -4.7708    1.2532   -1.3008 C   0  0  0  0  0  0  0  0  0  0  0  0
   -4.2572    2.4924   -1.3004 F   0  0  0  0  0  0  0  0  0  0  0  0
   -1.3639    0.5485   -1.0466 C   0  0  0  0  0  0  0  0  0  0  0  0
    0.0827    0.1288   -1.3101 C   0  0  0  0  0  0  0  0  0  0  0  0
    2.9716   -0.6152    0.7765 C   0  0  0  0  0  0  0  0  0  0  0  0
    3.7856    0.5383    0.6316 C   0  0  0  0  0  0  0  0  0  0  0  0
    6.2251    1.4280   -1.4475 H   0  0  0  0  0  0  0  0  0  0  0  0
    6.6772    3.1165   -1.1417 H   0  0  0  0  0  0  0  0  0  0  0  0
    4.9686    2.6503   -1.1045 H   0  0  0  0  0  0  0  0  0  0  0  0
    6.6500   -0.6279    2.0226 H   0  0  0  0  0  0  0  0  0  0  0  0
    5.2478   -2.6351    2.2513 H   0  0  0  0  0  0  0  0  0  0  0  0
    0.9760   -3.7984    1.1754 H   0  0  0  0  0  0  0  0  0  0  0  0
    0.2265    2.2762    0.4235 H   0  0  0  0  0  0  0  0  0  0  0  0
    1.1423    1.4712    1.6712 H   0  0  0  0  0  0  0  0  0  0  0  0
   -1.3490    1.5379    2.0173 H   0  0  0  0  0  0  0  0  0  0  0  0
   -0.6403   -0.0544    2.1784 H   0  0  0  0  0  0  0  0  0  0  0  0
   -0.9197   -1.5601    0.4557 H   0  0  0  0  0  0  0  0  0  0  0  0
   -3.6101    0.2864    1.6278 H   0  0  0  0  0  0  0  0  0  0  0  0
   -3.2638    1.7737    0.7692 H   0  0  0  0  0  0  0  0  0  0  0  0
   -4.5306   -1.7325    0.3002 H   0  0  0  0  0  0  0  0  0  0  0  0
   -6.2497   -2.3145   -1.3792 H   0  0  0  0  0  0  0  0  0  0  0  0
   -7.0258   -0.6164   -3.0174 H   0  0  0  0  0  0  0  0  0  0  0  0
   -6.0603    1.6816   -2.9627 H   0  0  0  0  0  0  0  0  0  0  0  0
   -1.9859    0.0683   -1.8113 H   0  0  0  0  0  0  0  0  0  0  0  0
   -1.4586    1.6325   -1.1921 H   0  0  0  0  0  0  0  0  0  0  0  0
    0.4486    0.6860   -2.1815 H   0  0  0  0  0  0  0  0  0  0  0  0
    0.1127   -0.9257   -1.6133 H   0  0  0  0  0  0  0  0  0  0  0  0
    3.3571    1.4297    0.1792 H   0  0  0  0  0  0  0  0  0  0  0  0
  1  2  1  0
  2  3  1  0
  3  4  1  0
  4  5  2  0
  5  6  1  0
  6  7  2  0
  7  8  1  0
  8  9  2  0
  9 10  1  0
 10 11  1  0
 11 12  1  0
 12 13  1  0
 13 14  1  0
 14 15  1  0
 14 16  1  0
 16 17  1  0
 17 18  2  0
 18 19  1  0
 19 20  2  0
 20 21  1  0
 21 22  2  0
 22 23  1  0
 14 24  1  0
 24 25  1  0
 10 26  2  0
 26 27  1  0
 27  3  2  0
 26  6  1  0
 25 11  1  0
 22 17  1  0
  1 28  1  0
  1 29  1  0
  1 30  1  0
  4 31  1  0
  5 32  1  0
  8 33  1  0
 12 34  1  0
 12 35  1  0
 13 36  1  0
 13 37  1  0
 15 38  1  0
 16 39  1  0
 16 40  1  0
 18 41  1  0
 19 42  1  0
 20 43  1  0
 21 44  1  0
 24 45  1  0
 24 46  1  0
 25 47  1  0
 25 48  1  0
 27 49  1  0
M  END
$$$$
OCNT-2312102
     RDKit          3D

 60 65  0  0  0  0  0  0  0  0999 V2000
    7.3865   -3.0674    0.2100 C   0  0  0  0  0  0  0  0  0  0  0  0
    7.2708   -1.6987   -0.0236 C   0  0  0  0  0  0  0  0  0  0  0  0
    6.1561   -1.1966   -0.6961 C   0  0  0  0  0  0  0  0  0  0  0  0
    5.1426   -2.0601   -1.1401 C   0  0  0  0  0  0  0  0  0  0  0  0
    3.9393   -1.5153   -1.8693 C   0  0  0  0  0  0  0  0  0  0  0  0
    3.1079   -0.6892   -1.0028 N   0  0  0  0  0  0  0  0  0  0  0  0
    2.2990   -1.1210    0.0052 C   0  0  0  0  0  0  0  0  0  0  0  0
    1.6715   -0.0008    0.5191 C   0  0  0  0  0  0  0  0  0  0  0  0
    0.6852    0.0340    1.6434 C   0  0  0  0  0  0  0  0  0  0  0  0
   -0.7121   -0.1324    1.2343 N   0  0  0  0  0  0  0  0  0  0  0  0
   -1.0279   -1.4580    0.7002 C   0  0  0  0  0  0  0  0  0  0  0  0
   -2.4573   -1.5879    0.2556 C   0  0  0  0  0  0  0  0  0  0  0  0
   -3.2778   -0.5352    0.0856 C   0  0  0  0  0  0  0  0  0  0  0  0
   -4.6284   -0.6403   -0.3724 C   0  0  0  0  0  0  0  0  0  0  0  0
   -5.0083   -1.3634   -1.4886 C   0  0  0  0  0  0  0  0  0  0  0  0
   -6.3646   -1.2315   -1.6357 N   0  0  0  0  0  0  0  0  0  0  0  0
   -6.8675   -0.4503   -0.6331 C   0  0  0  0  0  0  0  0  0  0  0  0
   -8.1711   -0.1418   -0.4998 N   0  0  0  0  0  0  0  0  0  0  0  0
   -8.4184    0.6344    0.5792 C   0  0  0  0  0  0  0  0  0  0  0  0
   -7.4699    1.0878    1.4861 C   0  0  0  0  0  0  0  0  0  0  0  0
   -6.1322    0.7364    1.2985 C   0  0  0  0  0  0  0  0  0  0  0  0
   -5.8099   -0.0622    0.1859 C   0  0  0  0  0  0  0  0  0  0  0  0
   -2.7692    0.8692    0.3109 C   0  0  0  0  0  0  0  0  0  0  0  0
   -1.2313    0.9341    0.3754 C   0  0  0  0  0  0  0  0  0  0  0  0
    2.2117    1.0846   -0.2456 C   0  0  0  0  0  0  0  0  0  0  0  0
    1.9457    2.5101   -0.1244 C   0  0  0  0  0  0  0  0  0  0  0  0
    2.0915    3.1901    1.0860 C   0  0  0  0  0  0  0  0  0  0  0  0
    1.8088    4.5536    1.1487 C   0  0  0  0  0  0  0  0  0  0  0  0
    1.3918    5.1942   -0.0076 C   0  0  0  0  0  0  0  0  0  0  0  0
    1.2494    4.5751   -1.1987 N   0  0  0  0  0  0  0  0  0  0  0  0
    1.5427    3.2502   -1.2313 C   0  0  0  0  0  0  0  0  0  0  0  0
    3.0485    0.6395   -1.1960 N   0  0  0  0  0  0  0  0  0  0  0  0
    5.2713   -3.4362   -0.9007 C   0  0  0  0  0  0  0  0  0  0  0  0
    6.3882   -3.9356   -0.2283 C   0  0  0  0  0  0  0  0  0  0  0  0
    8.2556   -3.4573    0.7334 H   0  0  0  0  0  0  0  0  0  0  0  0
    8.0486   -1.0203    0.3182 H   0  0  0  0  0  0  0  0  0  0  0  0
    6.0773   -0.1237   -0.8689 H   0  0  0  0  0  0  0  0  0  0  0  0
    4.2562   -0.9112   -2.7276 H   0  0  0  0  0  0  0  0  0  0  0  0
    3.2982   -2.3190   -2.2497 H   0  0  0  0  0  0  0  0  0  0  0  0
    2.2336   -2.1668    0.2715 H   0  0  0  0  0  0  0  0  0  0  0  0
    0.9405   -0.7519    2.3668 H   0  0  0  0  0  0  0  0  0  0  0  0
    0.7801    0.9672    2.2082 H   0  0  0  0  0  0  0  0  0  0  0  0
   -0.4011   -1.7141   -0.1610 H   0  0  0  0  0  0  0  0  0  0  0  0
   -0.8463   -2.2084    1.4788 H   0  0  0  0  0  0  0  0  0  0  0  0
   -2.8131   -2.5959    0.0624 H   0  0  0  0  0  0  0  0  0  0  0  0
   -4.4331   -1.9476   -2.1942 H   0  0  0  0  0  0  0  0  0  0  0  0
   -6.9342   -1.6393   -2.3620 H   0  0  0  0  0  0  0  0  0  0  0  0
   -9.4651    0.8992    0.7105 H   0  0  0  0  0  0  0  0  0  0  0  0
   -7.7661    1.7026    2.3290 H   0  0  0  0  0  0  0  0  0  0  0  0
   -5.3712    1.0644    1.9977 H   0  0  0  0  0  0  0  0  0  0  0  0
   -3.1733    1.2525    1.2553 H   0  0  0  0  0  0  0  0  0  0  0  0
   -3.1077    1.5384   -0.4898 H   0  0  0  0  0  0  0  0  0  0  0  0
   -0.9579    1.9183    0.7744 H   0  0  0  0  0  0  0  0  0  0  0  0
   -0.8183    0.8627   -0.6392 H   0  0  0  0  0  0  0  0  0  0  0  0
    2.4389    2.6735    1.9762 H   0  0  0  0  0  0  0  0  0  0  0  0
    1.9170    5.1044    2.0764 H   0  0  0  0  0  0  0  0  0  0  0  0
    1.1598    6.2555   -0.0072 H   0  0  0  0  0  0  0  0  0  0  0  0
    1.4333    2.7821   -2.2066 H   0  0  0  0  0  0  0  0  0  0  0  0
    4.5047   -4.1316   -1.2355 H   0  0  0  0  0  0  0  0  0  0  0  0
    6.4810   -5.0033   -0.0466 H   0  0  0  0  0  0  0  0  0  0  0  0
  1  2  2  0
  2  3  1  0
  3  4  2  0
  4  5  1  0
  5  6  1  0
  6  7  1  0
  7  8  2  0
  8  9  1  0
  9 10  1  0
 10 11  1  0
 11 12  1  0
 12 13  2  0
 13 14  1  0
 14 15  2  0
 15 16  1  0
 16 17  1  0
 17 18  1  0
 18 19  2  0
 19 20  1  0
 20 21  2  0
 21 22  1  0
 13 23  1  0
 23 24  1  0
  8 25  1  0
 25 26  1  0
 26 27  1  0
 27 28  2  0
 28 29  1  0
 29 30  2  0
 30 31  1  0
 25 32  2  0
  4 33  1  0
 33 34  2  0
 34  1  1  0
 32  6  1  0
 24 10  1  0
 31 26  2  0
 22 14  1  0
 22 17  2  0
  1 35  1  0
  2 36  1  0
  3 37  1  0
  5 38  1  0
  5 39  1  0
  7 40  1  0
  9 41  1  0
  9 42  1  0
 11 43  1  0
 11 44  1  0
 12 45  1  0
 15 46  1  0
 16 47  1  0
 19 48  1  0
 20 49  1  0
 21 50  1  0
 23 51  1  0
 23 52  1  0
 24 53  1  0
 24 54  1  0
 27 55  1  0
 28 56  1  0
 29 57  1  0
 31 58  1  0
 33 59  1  0
 34 60  1  0
M  END
$$$$
OCNT-2312103
     RDKit          3D

 38 40  0  0  0  0  0  0  0  0999 V2000
   -3.3467    2.5232   -0.7544 O   0  0  0  0  0  0  0  0  0  0  0  0
   -3.5448    1.3483   -0.4659 C   0  0  0  0  0  0  0  0  0  0  0  0
   -2.6446    0.6021    0.2721 N   0  0  0  0  0  0  0  0  0  0  0  0
   -1.4623    1.2437    0.8270 C   0  0  0  0  0  0  0  0  0  0  0  0
   -0.4024    0.2166    1.2519 C   0  0  0  0  0  0  0  0  0  0  0  0
    0.7549    0.8786    1.8544 N   0  0  0  0  0  0  0  0  0  0  0  0
    1.7634   -0.0671    2.3417 C   0  0  0  0  0  0  0  0  0  0  0  0
    2.5303   -0.7565    1.2355 C   0  0  0  0  0  0  0  0  0  0  0  0
    2.2350   -2.1003    0.9180 C   0  0  0  0  0  0  0  0  0  0  0  0
    2.9040   -2.7768   -0.1007 C   0  0  0  0  0  0  0  0  0  0  0  0
    3.8963   -2.1447   -0.8495 C   0  0  0  0  0  0  0  0  0  0  0  0
    4.1924   -0.8145   -0.5362 C   0  0  0  0  0  0  0  0  0  0  0  0
    3.5419   -0.1113    0.4793 C   0  0  0  0  0  0  0  0  0  0  0  0
    4.1114    1.1966    0.5007 C   0  0  0  0  0  0  0  0  0  0  0  0
    5.0709    1.2596   -0.4827 C   0  0  0  0  0  0  0  0  0  0  0  0
    5.1119    0.0404   -1.1026 N   0  0  0  0  0  0  0  0  0  0  0  0
   -4.7436    0.6432   -0.8390 C   0  0  0  0  0  0  0  0  0  0  0  0
   -5.9741    1.1511   -1.2114 C   0  0  0  0  0  0  0  0  0  0  0  0
   -6.7752    0.0275   -1.4762 C   0  0  0  0  0  0  0  0  0  0  0  0
   -6.1096   -1.1165   -1.3071 N   0  0  0  0  0  0  0  0  0  0  0  0
   -4.8759   -0.7135   -0.9614 N   0  0  0  0  0  0  0  0  0  0  0  0
   -3.0319   -0.1559    0.8159 H   0  0  0  0  0  0  0  0  0  0  0  0
   -1.0470    1.9316    0.0810 H   0  0  0  0  0  0  0  0  0  0  0  0
   -1.7910    1.8402    1.6863 H   0  0  0  0  0  0  0  0  0  0  0  0
   -0.8517   -0.4788    1.9716 H   0  0  0  0  0  0  0  0  0  0  0  0
   -0.1092   -0.3661    0.3710 H   0  0  0  0  0  0  0  0  0  0  0  0
    1.1948    1.4885    1.1634 H   0  0  0  0  0  0  0  0  0  0  0  0
    1.3091   -0.7995    3.0206 H   0  0  0  0  0  0  0  0  0  0  0  0
    2.4809    0.4894    2.9572 H   0  0  0  0  0  0  0  0  0  0  0  0
    1.4656   -2.6288    1.4779 H   0  0  0  0  0  0  0  0  0  0  0  0
    2.6497   -3.8122   -0.3159 H   0  0  0  0  0  0  0  0  0  0  0  0
    4.4162   -2.6718   -1.6427 H   0  0  0  0  0  0  0  0  0  0  0  0
    3.8462    2.0051    1.1695 H   0  0  0  0  0  0  0  0  0  0  0  0
    5.7261    2.0629   -0.7917 H   0  0  0  0  0  0  0  0  0  0  0  0
    5.7270   -0.2054   -1.8658 H   0  0  0  0  0  0  0  0  0  0  0  0
   -6.2463    2.1962   -1.2701 H   0  0  0  0  0  0  0  0  0  0  0  0
   -7.8124   -0.0053   -1.7852 H   0  0  0  0  0  0  0  0  0  0  0  0
   -4.1593   -1.4201   -0.8379 H   0  0  0  0  0  0  0  0  0  0  0  0
  1  2  2  0
  2  3  1  0
  3  4  1  0
  4  5  1  0
  5  6  1  0
  6  7  1  0
  7  8  1  0
  8  9  1  0
  9 10  2  0
 10 11  1  0
 11 12  2  0
 12 13  1  0
 13 14  1  0
 14 15  2  0
 15 16  1  0
  2 17  1  0
 17 18  2  0
 18 19  1  0
 19 20  2  0
 20 21  1  0
 13  8  2  0
 21 17  1  0
 16 12  1  0
  3 22  1  0
  4 23  1  0
  4 24  1  0
  5 25  1  0
  5 26  1  0
  6 27  1  0
  7 28  1  0
  7 29  1  0
  9 30  1  0
 10 31  1  0
 11 32  1  0
 14 33  1  0
 15 34  1  0
 16 35  1  0
 18 36  1  0
 19 37  1  0
 21 38  1  0
M  END
$$$$
OCNT-2312104
     RDKit          3D

 52 56  0  0  0  0  0  0  0  0999 V2000
   -0.7270   -0.4226   -2.7468 O   0  0  0  0  0  0  0  0  0  0  0  0
   -0.7901   -1.1837   -1.7851 C   0  0  0  0  0  0  0  0  0  0  0  0
    0.1693   -2.1415   -1.5484 N   0  0  0  0  0  0  0  0  0  0  0  0
    1.3707   -2.2315   -2.3432 C   0  0  0  0  0  0  0  0  0  0  0  0
    2.5194   -1.5353   -1.6601 C   0  0  0  0  0  0  0  0  0  0  0  0
    2.6796   -0.1499   -1.7828 C   0  0  0  0  0  0  0  0  0  0  0  0
    3.7303    0.5052   -1.1334 C   0  0  0  0  0  0  0  0  0  0  0  0
    4.6448   -0.2034   -0.3387 C   0  0  0  0  0  0  0  0  0  0  0  0
    5.7503    0.4870    0.3437 C   0  0  0  0  0  0  0  0  0  0  0  0
    6.6425    1.3011   -0.3639 C   0  0  0  0  0  0  0  0  0  0  0  0
    7.6704    1.9295    0.3221 C   0  0  0  0  0  0  0  0  0  0  0  0
    7.8703    1.8093    1.6505 N   0  0  0  0  0  0  0  0  0  0  0  0
    7.0025    1.0246    2.3213 C   0  0  0  0  0  0  0  0  0  0  0  0
    5.9471    0.3534    1.7232 C   0  0  0  0  0  0  0  0  0  0  0  0
    4.4705   -1.5910   -0.2138 C   0  0  0  0  0  0  0  0  0  0  0  0
    3.4207   -2.2499   -0.8627 C   0  0  0  0  0  0  0  0  0  0  0  0
   -1.8616   -1.1398   -0.8029 C   0  0  0  0  0  0  0  0  0  0  0  0
   -2.2179   -2.0604    0.1805 C   0  0  0  0  0  0  0  0  0  0  0  0
   -3.3620   -1.5811    0.8676 C   0  0  0  0  0  0  0  0  0  0  0  0
   -3.6912   -0.3829    0.2882 C   0  0  0  0  0  0  0  0  0  0  0  0
   -2.7771   -0.1130   -0.6949 N   0  0  0  0  0  0  0  0  0  0  0  0
   -2.8506    1.1043   -1.4883 C   0  0  0  0  0  0  0  0  0  0  0  0
   -3.7701    2.1459   -0.8327 C   0  0  0  0  0  0  0  0  0  0  0  0
   -5.0703    1.5931   -0.4082 N   0  0  0  0  0  0  0  0  0  0  0  0
   -4.8533    0.5743    0.6359 C   0  0  0  0  0  0  0  0  0  0  0  0
   -4.8455    1.2377    2.0295 C   0  0  0  0  0  0  0  0  0  0  0  0
   -6.3748    1.0317    2.0897 C   0  0  0  0  0  0  0  0  0  0  0  0
   -6.2192   -0.0519    1.0006 C   0  0  0  0  0  0  0  0  0  0  0  0
    0.1737   -2.5983   -0.6499 H   0  0  0  0  0  0  0  0  0  0  0  0
    1.5949   -3.2963   -2.4722 H   0  0  0  0  0  0  0  0  0  0  0  0
    1.2119   -1.8127   -3.3433 H   0  0  0  0  0  0  0  0  0  0  0  0
    1.9788    0.4295   -2.3826 H   0  0  0  0  0  0  0  0  0  0  0  0
    3.8196    1.5844   -1.2423 H   0  0  0  0  0  0  0  0  0  0  0  0
    6.5502    1.4376   -1.4366 H   0  0  0  0  0  0  0  0  0  0  0  0
    8.3823    2.5642   -0.1979 H   0  0  0  0  0  0  0  0  0  0  0  0
    7.1800    0.9464    3.3901 H   0  0  0  0  0  0  0  0  0  0  0  0
    5.2829   -0.2529    2.3304 H   0  0  0  0  0  0  0  0  0  0  0  0
    5.1650   -2.1763    0.3860 H   0  0  0  0  0  0  0  0  0  0  0  0
    3.3180   -3.3260   -0.7426 H   0  0  0  0  0  0  0  0  0  0  0  0
   -1.7239   -3.0024    0.3783 H   0  0  0  0  0  0  0  0  0  0  0  0
   -3.8825   -2.0693    1.6813 H   0  0  0  0  0  0  0  0  0  0  0  0
   -3.2286    0.8158   -2.4753 H   0  0  0  0  0  0  0  0  0  0  0  0
   -1.8412    1.5162   -1.5812 H   0  0  0  0  0  0  0  0  0  0  0  0
   -3.9520    2.9583   -1.5453 H   0  0  0  0  0  0  0  0  0  0  0  0
   -3.2640    2.6031    0.0270 H   0  0  0  0  0  0  0  0  0  0  0  0
   -5.5352    1.2027   -1.2283 H   0  0  0  0  0  0  0  0  0  0  0  0
   -4.5146    2.2786    2.0969 H   0  0  0  0  0  0  0  0  0  0  0  0
   -4.3120    0.6651    2.7988 H   0  0  0  0  0  0  0  0  0  0  0  0
   -6.7671    0.6848    3.0492 H   0  0  0  0  0  0  0  0  0  0  0  0
   -6.9522    1.9051    1.7660 H   0  0  0  0  0  0  0  0  0  0  0  0
   -6.1667   -1.0629    1.4228 H   0  0  0  0  0  0  0  0  0  0  0  0
   -6.9956   -0.0541    0.2286 H   0  0  0  0  0  0  0  0  0  0  0  0
  1  2  2  0
  2  3  1  0
  3  4  1  0
  4  5  1  0
  5  6  1  0
  6  7  2  0
  7  8  1  0
  8  9  1  0
  9 10  2  0
 10 11  1  0
 11 12  2  0
 12 13  1  0
 13 14  2  0
  8 15  2  0
 15 16  1  0
  2 17  1  0
 17 18  2  0
 18 19  1  0
 19 20  2  0
 20 21  1  0
 21 22  1  0
 22 23  1  0
 23 24  1  0
 24 25  1  0
 25 26  1  0
 26 27  1  0
 27 28  1  0
 16  5  2  0
 21 17  1  0
 28 25  1  0
 14  9  1  0
 25 20  1  0
  3 29  1  0
  4 30  1  0
  4 31  1  0
  6 32  1  0
  7 33  1  0
 10 34  1  0
 11 35  1  0
 13 36  1  0
 14 37  1  0
 15 38  1  0
 16 39  1  0
 18 40  1  0
 19 41  1  0
 22 42  1  0
 22 43  1  0
 23 44  1  0
 23 45  1  0
 24 46  1  0
 26 47  1  0
 26 48  1  0
 27 49  1  0
 27 50  1  0
 28 51  1  0
 28 52  1  0
M  END
$$$$
OCNT-2312108
     RDKit          3D

 46 49  0  0  0  0  0  0  0  0999 V2000
   -6.3181   -0.1099   -0.2949 C   0  0  0  0  0  0  0  0  0  0  0  0
   -5.7701    0.6254   -1.5145 C   0  0  0  0  0  0  0  0  0  0  0  0
   -6.8809    1.4410   -2.1733 C   0  0  0  0  0  0  0  0  0  0  0  0
   -4.7617    1.5579   -1.1099 O   0  0  0  0  0  0  0  0  0  0  0  0
   -3.4617    1.1461   -1.0365 C   0  0  0  0  0  0  0  0  0  0  0  0
   -2.5511    2.1595   -0.7627 C   0  0  0  0  0  0  0  0  0  0  0  0
   -1.1892    1.8743   -0.6612 C   0  0  0  0  0  0  0  0  0  0  0  0
   -0.6990    0.5589   -0.8354 C   0  0  0  0  0  0  0  0  0  0  0  0
   -1.6395   -0.4685   -1.0855 C   0  0  0  0  0  0  0  0  0  0  0  0
   -2.9911   -0.1566   -1.1866 C   0  0  0  0  0  0  0  0  0  0  0  0
   -1.2913   -1.7551   -1.2231 N   0  0  0  0  0  0  0  0  0  0  0  0
    0.0087   -2.0720   -1.0869 C   0  0  0  0  0  0  0  0  0  0  0  0
    1.0094   -1.1488   -0.8518 C   0  0  0  0  0  0  0  0  0  0  0  0
    0.6824    0.2051   -0.7652 C   0  0  0  0  0  0  0  0  0  0  0  0
    1.6486    1.1955   -0.4969 N   0  0  0  0  0  0  0  0  0  0  0  0
    3.0817    0.9315   -0.6010 C   0  0  0  0  0  0  0  0  0  0  0  0
    3.6551    0.2580    0.6302 C   0  0  0  0  0  0  0  0  0  0  0  0
    3.1284    0.5196    1.9265 C   0  0  0  0  0  0  0  0  0  0  0  0
    3.6664   -0.0712    3.0767 C   0  0  0  0  0  0  0  0  0  0  0  0
    4.7396   -0.9068    2.8941 C   0  0  0  0  0  0  0  0  0  0  0  0
    5.4777   -1.6253    3.8277 N   0  0  0  0  0  0  0  0  0  0  0  0
    6.4845   -2.3336    3.1569 C   0  0  0  0  0  0  0  0  0  0  0  0
    7.3178   -3.0665    3.6581 O   0  0  0  0  0  0  0  0  0  0  0  0
    6.3469   -2.0336    1.7935 N   0  0  0  0  0  0  0  0  0  0  0  0
    5.2767   -1.1604    1.6347 C   0  0  0  0  0  0  0  0  0  0  0  0
    4.7673   -0.5946    0.4892 C   0  0  0  0  0  0  0  0  0  0  0  0
   -7.1290   -0.7895   -0.5748 H   0  0  0  0  0  0  0  0  0  0  0  0
   -5.5369   -0.6942    0.2008 H   0  0  0  0  0  0  0  0  0  0  0  0
   -6.6966    0.5984    0.4507 H   0  0  0  0  0  0  0  0  0  0  0  0
   -5.3961   -0.0780   -2.2670 H   0  0  0  0  0  0  0  0  0  0  0  0
   -7.7006    0.7987   -2.5096 H   0  0  0  0  0  0  0  0  0  0  0  0
   -6.4891    1.9874   -3.0382 H   0  0  0  0  0  0  0  0  0  0  0  0
   -7.2820    2.1916   -1.4830 H   0  0  0  0  0  0  0  0  0  0  0  0
   -2.9020    3.1792   -0.6230 H   0  0  0  0  0  0  0  0  0  0  0  0
   -0.5170    2.6939   -0.4248 H   0  0  0  0  0  0  0  0  0  0  0  0
   -3.6683   -0.9834   -1.3728 H   0  0  0  0  0  0  0  0  0  0  0  0
    0.2372   -3.1306   -1.1721 H   0  0  0  0  0  0  0  0  0  0  0  0
    2.0231   -1.5120   -0.7469 H   0  0  0  0  0  0  0  0  0  0  0  0
    1.4050    2.0645   -0.9647 H   0  0  0  0  0  0  0  0  0  0  0  0
    3.3022    0.3597   -1.5108 H   0  0  0  0  0  0  0  0  0  0  0  0
    3.5978    1.8940   -0.7063 H   0  0  0  0  0  0  0  0  0  0  0  0
    2.2742    1.1885    2.0320 H   0  0  0  0  0  0  0  0  0  0  0  0
    3.2496    0.1273    4.0563 H   0  0  0  0  0  0  0  0  0  0  0  0
    5.3392   -1.6542    4.8242 H   0  0  0  0  0  0  0  0  0  0  0  0
    6.9450   -2.4096    1.0769 H   0  0  0  0  0  0  0  0  0  0  0  0
    5.2068   -0.8017   -0.4797 H   0  0  0  0  0  0  0  0  0  0  0  0
  1  2  1  0
  2  3  1  0
  2  4  1  0
  4  5  1  0
  5  6  2  0
  6  7  1  0
  7  8  2  0
  8  9  1  0
  9 10  2  0
  9 11  1  0
 11 12  2  0
 12 13  1  0
 13 14  2  0
 14 15  1  0
 15 16  1  0
 16 17  1  0
 17 18  1  0
 18 19  2  0
 19 20  1  0
 20 21  1  0
 21 22  1  0
 22 23  2  0
 22 24  1  0
 24 25  1  0
 25 26  1  0
 10  5  1  0
 26 17  2  0
 14  8  1  0
 25 20  2  0
  1 27  1  0
  1 28  1  0
  1 29  1  0
  2 30  1  0
  3 31  1  0
  3 32  1  0
  3 33  1  0
  6 34  1  0
  7 35  1  0
 10 36  1  0
 12 37  1  0
 13 38  1  0
 15 39  1  0
 16 40  1  0
 16 41  1  0
 18 42  1  0
 19 43  1  0
 21 44  1  0
 24 45  1  0
 26 46  1  0
M  END
$$$$
OCNT-2312110
     RDKit          3D

 38 41  0  0  0  0  0  0  0  0999 V2000
    8.4981    0.9998   -2.7508 F   0  0  0  0  0  0  0  0  0  0  0  0
    7.3414    0.7438   -2.1268 C   0  0  0  0  0  0  0  0  0  0  0  0
    6.3578    0.0179   -2.7817 C   0  0  0  0  0  0  0  0  0  0  0  0
    5.1528   -0.2467   -2.1282 C   0  0  0  0  0  0  0  0  0  0  0  0
    4.9243    0.2076   -0.8125 C   0  0  0  0  0  0  0  0  0  0  0  0
    3.6456   -0.1237   -0.1938 C   0  0  0  0  0  0  0  0  0  0  0  0
    3.4752   -0.4257    1.1013 N   0  0  0  0  0  0  0  0  0  0  0  0
    2.1158   -0.7020    1.2023 O   0  0  0  0  0  0  0  0  0  0  0  0
    1.5860   -0.5709   -0.0532 C   0  0  0  0  0  0  0  0  0  0  0  0
    0.0839   -0.8063   -0.3716 C   0  0  0  0  0  0  0  0  0  0  0  0
   -0.8847   -1.1591    0.5405 C   0  0  0  0  0  0  0  0  0  0  0  0
   -2.0185   -1.2412   -0.2121 N   0  0  0  0  0  0  0  0  0  0  0  0
   -3.3558   -1.5784    0.2262 C   0  0  0  0  0  0  0  0  0  0  0  0
   -4.3281   -0.3987    0.1320 C   0  0  2  0  0  0  0  0  0  0  0  0
   -3.9542    0.7848    1.0183 C   0  0  0  0  0  0  0  0  0  0  0  0
   -5.2665    1.5302    1.2212 C   0  0  0  0  0  0  0  0  0  0  0  0
   -6.3510    0.5661    0.7627 C   0  0  0  0  0  0  0  0  0  0  0  0
   -5.6872   -0.7347    0.6103 N   0  0  0  0  0  0  0  0  0  0  0  0
   -1.7713   -0.9697   -1.5049 N   0  0  0  0  0  0  0  0  0  0  0  0
   -0.4773   -0.6928   -1.6137 N   0  0  0  0  0  0  0  0  0  0  0  0
    2.4945   -0.2312   -0.9430 N   0  0  0  0  0  0  0  0  0  0  0  0
    5.9335    0.9548   -0.1777 C   0  0  0  0  0  0  0  0  0  0  0  0
    5.7599    1.6449    1.4002 Cl  0  0  0  0  0  0  0  0  0  0  0  0
    7.1412    1.2163   -0.8368 C   0  0  0  0  0  0  0  0  0  0  0  0
    6.5305   -0.3366   -3.7934 H   0  0  0  0  0  0  0  0  0  0  0  0
    4.3856   -0.8172   -2.6519 H   0  0  0  0  0  0  0  0  0  0  0  0
   -0.8627   -1.3468    1.6036 H   0  0  0  0  0  0  0  0  0  0  0  0
   -3.2835   -1.9485    1.2562 H   0  0  0  0  0  0  0  0  0  0  0  0
   -3.6955   -2.4129   -0.3991 H   0  0  0  0  0  0  0  0  0  0  0  0
   -4.4002   -0.0676   -0.9131 H   0  0  0  0  0  0  0  0  0  0  0  0
   -3.5697    0.4489    1.9896 H   0  0  0  0  0  0  0  0  0  0  0  0
   -3.1943    1.4250    0.5589 H   0  0  0  0  0  0  0  0  0  0  0  0
   -5.2925    2.4497    0.6263 H   0  0  0  0  0  0  0  0  0  0  0  0
   -5.3895    1.8052    2.2743 H   0  0  0  0  0  0  0  0  0  0  0  0
   -7.1790    0.5091    1.4760 H   0  0  0  0  0  0  0  0  0  0  0  0
   -6.7637    0.8831   -0.2020 H   0  0  0  0  0  0  0  0  0  0  0  0
   -5.6285   -1.1701    1.5322 H   0  0  0  0  0  0  0  0  0  0  0  0
    7.9274    1.7935   -0.3593 H   0  0  0  0  0  0  0  0  0  0  0  0
  1  2  1  0
  2  3  1  0
  3  4  2  0
  4  5  1  0
  5  6  1  0
  6  7  2  0
  7  8  1  0
  8  9  1  0
  9 10  1  0
 10 11  2  0
 11 12  1  0
 12 13  1  0
 13 14  1  0
 14 15  1  0
 15 16  1  0
 16 17  1  0
 17 18  1  0
 12 19  1  0
 19 20  2  0
  9 21  2  0
  5 22  2  0
 22 23  1  0
 22 24  1  0
 24  2  2  0
 21  6  1  0
 20 10  1  0
 18 14  1  0
  3 25  1  0
  4 26  1  0
 11 27  1  0
 13 28  1  0
 13 29  1  0
 14 30  1  6
 15 31  1  0
 15 32  1  0
 16 33  1  0
 16 34  1  0
 17 35  1  0
 17 36  1  0
 18 37  1  0
 24 38  1  0
M  END
$$$$
OCNT-2312113
     RDKit          3D

 40 42  0  0  0  0  0  0  0  0999 V2000
    5.0532    2.4443   -0.2531 C   0  0  0  0  0  0  0  0  0  0  0  0
    3.9521    1.4275   -0.3655 C   0  0  0  0  0  0  0  0  0  0  0  0
    3.2371    1.3120   -1.5641 C   0  0  0  0  0  0  0  0  0  0  0  0
    2.2076    0.3744   -1.6926 C   0  0  0  0  0  0  0  0  0  0  0  0
    1.8602   -0.4759   -0.6305 C   0  0  0  0  0  0  0  0  0  0  0  0
    0.7972   -1.4034   -0.8147 N   0  0  0  0  0  0  0  0  0  0  0  0
    0.9818   -2.4783   -1.6497 C   0  0  0  0  0  0  0  0  0  0  0  0
    0.5519   -3.6297   -1.2399 N   0  0  0  0  0  0  0  0  0  0  0  0
    0.0165   -3.3577    0.0037 C   0  0  0  0  0  0  0  0  0  0  0  0
   -0.6338   -4.1425    0.6784 O   0  0  0  0  0  0  0  0  0  0  0  0
    0.2706   -2.0239    0.3407 N   0  0  0  0  0  0  0  0  0  0  0  0
   -0.6737   -1.2835    1.1598 C   0  0  0  0  0  0  0  0  0  0  0  0
   -1.9777   -0.9512    0.4244 C   0  0  0  0  0  0  0  0  0  0  0  0
   -3.0087   -0.2535    1.3311 C   0  0  0  0  0  0  0  0  0  0  0  0
   -4.3155   -0.0018    0.5827 C   0  0  0  0  0  0  0  0  0  0  0  0
   -4.1600    1.3874   -0.0251 C   0  0  0  0  0  0  0  0  0  0  0  0
   -2.9652    1.9931    0.5803 N   0  0  0  0  0  0  0  0  0  0  0  0
   -2.6273    1.1641    1.7406 C   0  0  0  0  0  0  0  0  0  0  0  0
    2.5799   -0.3574    0.5670 C   0  0  0  0  0  0  0  0  0  0  0  0
    3.6110    0.5809    0.6982 C   0  0  0  0  0  0  0  0  0  0  0  0
    4.4428    0.6553    2.2113 Cl  0  0  0  0  0  0  0  0  0  0  0  0
    5.1720    3.0107   -1.1830 H   0  0  0  0  0  0  0  0  0  0  0  0
    6.0084    1.9515   -0.0456 H   0  0  0  0  0  0  0  0  0  0  0  0
    4.8297    3.1630    0.5418 H   0  0  0  0  0  0  0  0  0  0  0  0
    3.4729    1.9554   -2.4101 H   0  0  0  0  0  0  0  0  0  0  0  0
    1.6639    0.3225   -2.6344 H   0  0  0  0  0  0  0  0  0  0  0  0
    1.5107   -2.2995   -2.5992 H   0  0  0  0  0  0  0  0  0  0  0  0
   -0.1766   -0.3740    1.5086 H   0  0  0  0  0  0  0  0  0  0  0  0
   -0.8971   -1.8941    2.0425 H   0  0  0  0  0  0  0  0  0  0  0  0
   -2.4191   -1.8816    0.0443 H   0  0  0  0  0  0  0  0  0  0  0  0
   -1.7581   -0.3394   -0.4590 H   0  0  0  0  0  0  0  0  0  0  0  0
   -3.1905   -0.8800    2.2122 H   0  0  0  0  0  0  0  0  0  0  0  0
   -5.1476    0.0074    1.2981 H   0  0  0  0  0  0  0  0  0  0  0  0
   -4.5350   -0.7632   -0.1724 H   0  0  0  0  0  0  0  0  0  0  0  0
   -4.0367    1.3278   -1.1119 H   0  0  0  0  0  0  0  0  0  0  0  0
   -5.0435    2.0019    0.1762 H   0  0  0  0  0  0  0  0  0  0  0  0
   -2.2018    1.9510   -0.0948 H   0  0  0  0  0  0  0  0  0  0  0  0
   -3.2309    1.4881    2.5974 H   0  0  0  0  0  0  0  0  0  0  0  0
   -1.5771    1.2800    2.0193 H   0  0  0  0  0  0  0  0  0  0  0  0
    2.3565   -1.0079    1.4091 H   0  0  0  0  0  0  0  0  0  0  0  0
  1  2  1  0
  2  3  1  0
  3  4  2  0
  4  5  1  0
  5  6  1  0
  6  7  1  0
  7  8  2  0
  8  9  1  0
  9 10  2  0
  9 11  1  0
 11 12  1  0
 12 13  1  0
 13 14  1  0
 14 15  1  0
 15 16  1  0
 16 17  1  0
 17 18  1  0
  5 19  2  0
 19 20  1  0
 20 21  1  0
 20  2  2  0
 11  6  1  0
 18 14  1  0
  1 22  1  0
  1 23  1  0
  1 24  1  0
  3 25  1  0
  4 26  1  0
  7 27  1  0
 12 28  1  0
 12 29  1  0
 13 30  1  0
 13 31  1  0
 14 32  1  0
 15 33  1  0
 15 34  1  0
 16 35  1  0
 16 36  1  0
 17 37  1  0
 18 38  1  0
 18 39  1  0
 19 40  1  0
M  END
$$$$
OCNT-2312118
     RDKit          3D

 47 50  0  0  0  0  0  0  0  0999 V2000
   -0.5643    1.0537    2.6303 O   0  0  0  0  0  0  0  0  0  0  0  0
    0.3133    0.5727    1.9211 C   0  0  0  0  0  0  0  0  0  0  0  0
    1.4094    1.3151    1.5389 N   0  0  0  0  0  0  0  0  0  0  0  0
    2.4336    0.8424    0.7539 C   0  0  0  0  0  0  0  0  0  0  0  0
    3.5409    1.7529    0.4326 C   0  0  0  0  0  0  0  0  0  0  0  0
    3.8703    2.0437   -0.8928 C   0  0  0  0  0  0  0  0  0  0  0  0
    4.9142    2.9205   -1.1365 C   0  0  0  0  0  0  0  0  0  0  0  0
    5.6400    3.5113   -0.1641 N   0  0  0  0  0  0  0  0  0  0  0  0
    5.3056    3.2163    1.1095 C   0  0  0  0  0  0  0  0  0  0  0  0
    4.2759    2.3572    1.4553 C   0  0  0  0  0  0  0  0  0  0  0  0
    2.4060   -0.4294    0.3220 C   0  0  0  0  0  0  0  0  0  0  0  0
    1.2976   -1.2894    0.6748 C   0  0  0  0  0  0  0  0  0  0  0  0
    0.2676   -0.8229    1.4042 C   0  0  0  0  0  0  0  0  0  0  0  0
   -0.8222   -1.7481    1.7745 C   0  0  0  0  0  0  0  0  0  0  0  0
   -0.7521   -2.3110    2.8692 O   0  0  0  0  0  0  0  0  0  0  0  0
   -1.8503   -2.0073    0.8549 N   0  0  0  0  0  0  0  0  0  0  0  0
   -2.5987   -3.2319    1.1737 C   0  0  0  0  0  0  0  0  0  0  0  0
   -3.8636   -3.4629    0.3435 C   0  0  0  0  0  0  0  0  0  0  0  0
   -3.5826   -3.3880   -1.0949 N   0  0  0  0  0  0  0  0  0  0  0  0
   -3.0884   -2.0350   -1.3849 C   0  0  0  0  0  0  0  0  0  0  0  0
   -1.8100   -1.6187   -0.5836 C   0  0  0  0  0  0  0  0  0  0  0  0
   -1.6261   -0.1237   -0.8239 C   0  0  0  0  0  0  0  0  0  0  0  0
   -2.3745    0.8293   -0.1132 C   0  0  0  0  0  0  0  0  0  0  0  0
   -2.2006    2.1942   -0.3517 C   0  0  0  0  0  0  0  0  0  0  0  0
   -1.2857    2.6256   -1.3108 C   0  0  0  0  0  0  0  0  0  0  0  0
   -0.5515    1.6887   -2.0326 C   0  0  0  0  0  0  0  0  0  0  0  0
    0.5790    2.2162   -3.2177 Cl  0  0  0  0  0  0  0  0  0  0  0  0
   -0.7212    0.3233   -1.8016 C   0  0  0  0  0  0  0  0  0  0  0  0
    1.4204    2.2735    1.8641 H   0  0  0  0  0  0  0  0  0  0  0  0
    3.3235    1.6113   -1.7235 H   0  0  0  0  0  0  0  0  0  0  0  0
    5.2012    3.1804   -2.1516 H   0  0  0  0  0  0  0  0  0  0  0  0
    5.9075    3.7042    1.8711 H   0  0  0  0  0  0  0  0  0  0  0  0
    4.0642    2.1582    2.5008 H   0  0  0  0  0  0  0  0  0  0  0  0
    3.2042   -0.8506   -0.2821 H   0  0  0  0  0  0  0  0  0  0  0  0
    1.3285   -2.3203    0.3358 H   0  0  0  0  0  0  0  0  0  0  0  0
   -1.9082   -4.0734    1.0264 H   0  0  0  0  0  0  0  0  0  0  0  0
   -2.8733   -3.2219    2.2354 H   0  0  0  0  0  0  0  0  0  0  0  0
   -4.2696   -4.4534    0.5757 H   0  0  0  0  0  0  0  0  0  0  0  0
   -4.6323   -2.7288    0.6156 H   0  0  0  0  0  0  0  0  0  0  0  0
   -4.4491   -3.5430   -1.6107 H   0  0  0  0  0  0  0  0  0  0  0  0
   -2.8734   -1.9677   -2.4589 H   0  0  0  0  0  0  0  0  0  0  0  0
   -3.9071   -1.3266   -1.1966 H   0  0  0  0  0  0  0  0  0  0  0  0
   -0.9564   -2.1672   -1.0039 H   0  0  0  0  0  0  0  0  0  0  0  0
   -3.0804    0.5140    0.6547 H   0  0  0  0  0  0  0  0  0  0  0  0
   -2.7708    2.9197    0.2239 H   0  0  0  0  0  0  0  0  0  0  0  0
   -1.1507    3.6893   -1.4867 H   0  0  0  0  0  0  0  0  0  0  0  0
   -0.1402   -0.3927   -2.3783 H   0  0  0  0  0  0  0  0  0  0  0  0
  1  2  2  0
  2  3  1  0
  3  4  1  0
  4  5  1  0
  5  6  2  0
  6  7  1  0
  7  8  2  0
  8  9  1  0
  9 10  2  0
  4 11  2  0
 11 12  1  0
 12 13  2  0
 13 14  1  0
 14 15  2  0
 14 16  1  0
 16 17  1  0
 17 18  1  0
 18 19  1  0
 19 20  1  0
 20 21  1  0
 21 22  1  0
 22 23  2  0
 23 24  1  0
 24 25  2  0
 25 26  1  0
 26 27  1  0
 26 28  2  0
 13  2  1  0
 21 16  1  0
 28 22  1  0
 10  5  1  0
  3 29  1  0
  6 30  1  0
  7 31  1  0
  9 32  1  0
 10 33  1  0
 11 34  1  0
 12 35  1  0
 17 36  1  0
 17 37  1  0
 18 38  1  0
 18 39  1  0
 19 40  1  0
 20 41  1  0
 20 42  1  0
 21 43  1  0
 23 44  1  0
 24 45  1  0
 25 46  1  0
 28 47  1  0
M  END
$$$$
OCNT-2312136
     RDKit          3D

 40 42  0  0  0  0  0  0  0  0999 V2000
   -1.9682   -1.2886   -1.4357 C   0  0  0  0  0  0  0  0  0  0  0  0
   -2.2024    0.1171   -0.8375 C   0  0  0  0  0  0  0  0  0  0  0  0
   -1.9052    1.1582   -1.9415 C   0  0  0  0  0  0  0  0  0  0  0  0
   -1.3340    0.3746    0.3346 N   0  0  0  0  0  0  0  0  0  0  0  0
    0.1086    0.1966    0.1474 C   0  0  0  0  0  0  0  0  0  0  0  0
    0.8512    0.4587    1.4629 C   0  0  0  0  0  0  0  0  0  0  0  0
    2.3143    0.2831    1.2816 C   0  0  0  0  0  0  0  0  0  0  0  0
    3.1942    1.1480    0.8128 N   0  0  0  0  0  0  0  0  0  0  0  0
    4.3809    0.4602    0.8607 C   0  0  0  0  0  0  0  0  0  0  0  0
    5.6793    0.8405    0.5000 C   0  0  0  0  0  0  0  0  0  0  0  0
    6.7013   -0.1036    0.6676 C   0  0  0  0  0  0  0  0  0  0  0  0
    8.4732    0.3665    0.1927 Br  0  0  0  0  0  0  0  0  0  0  0  0
    6.4472   -1.3846    1.1762 C   0  0  0  0  0  0  0  0  0  0  0  0
    5.1519   -1.7744    1.5397 C   0  0  0  0  0  0  0  0  0  0  0  0
    4.1641   -0.8142    1.3605 C   0  0  0  0  0  0  0  0  0  0  0  0
    2.8332   -0.9360    1.6322 O   0  0  0  0  0  0  0  0  0  0  0  0
   -3.6613    0.1777   -0.3378 C   0  0  0  0  0  0  0  0  0  0  0  0
   -4.0579   -0.6255    0.7470 C   0  0  0  0  0  0  0  0  0  0  0  0
   -5.3685   -0.5750    1.1974 C   0  0  0  0  0  0  0  0  0  0  0  0
   -6.3175    0.2110    0.6527 N   0  0  0  0  0  0  0  0  0  0  0  0
   -5.9318    0.9805   -0.3847 C   0  0  0  0  0  0  0  0  0  0  0  0
   -4.6432    1.0001   -0.9052 C   0  0  0  0  0  0  0  0  0  0  0  0
   -2.7247   -1.5227   -2.1951 H   0  0  0  0  0  0  0  0  0  0  0  0
   -2.0210   -2.0749   -0.6736 H   0  0  0  0  0  0  0  0  0  0  0  0
   -0.9904   -1.3682   -1.9237 H   0  0  0  0  0  0  0  0  0  0  0  0
   -2.0484    2.1836   -1.5804 H   0  0  0  0  0  0  0  0  0  0  0  0
   -2.5554    1.0143   -2.8128 H   0  0  0  0  0  0  0  0  0  0  0  0
   -0.8786    1.0798   -2.3156 H   0  0  0  0  0  0  0  0  0  0  0  0
   -1.5244    1.3197    0.6710 H   0  0  0  0  0  0  0  0  0  0  0  0
    0.3313   -0.8262   -0.1764 H   0  0  0  0  0  0  0  0  0  0  0  0
    0.4899    0.8810   -0.6181 H   0  0  0  0  0  0  0  0  0  0  0  0
    0.6570    1.4811    1.8093 H   0  0  0  0  0  0  0  0  0  0  0  0
    0.4892   -0.2199    2.2449 H   0  0  0  0  0  0  0  0  0  0  0  0
    5.8689    1.8326    0.1076 H   0  0  0  0  0  0  0  0  0  0  0  0
    7.2623   -2.0962    1.2952 H   0  0  0  0  0  0  0  0  0  0  0  0
    4.9294   -2.7574    1.9352 H   0  0  0  0  0  0  0  0  0  0  0  0
   -3.3478   -1.2793    1.2450 H   0  0  0  0  0  0  0  0  0  0  0  0
   -5.6941   -1.1847    2.0351 H   0  0  0  0  0  0  0  0  0  0  0  0
   -6.7117    1.6078   -0.8073 H   0  0  0  0  0  0  0  0  0  0  0  0
   -4.4411    1.6584   -1.7416 H   0  0  0  0  0  0  0  0  0  0  0  0
  1  2  1  0
  2  3  1  0
  2  4  1  0
  4  5  1  0
  5  6  1  0
  6  7  1  0
  7  8  2  0
  8  9  1  0
  9 10  2  0
 10 11  1  0
 11 12  1  0
 11 13  2  0
 13 14  1  0
 14 15  2  0
 15 16  1  0
  2 17  1  0
 17 18  2  0
 18 19  1  0
 19 20  2  0
 20 21  1  0
 21 22  2  0
 16  7  1  0
 22 17  1  0
 15  9  1  0
  1 23  1  0
  1 24  1  0
  1 25  1  0
  3 26  1  0
  3 27  1  0
  3 28  1  0
  4 29  1  0
  5 30  1  0
  5 31  1  0
  6 32  1  0
  6 33  1  0
 10 34  1  0
 13 35  1  0
 14 36  1  0
 18 37  1  0
 19 38  1  0
 21 39  1  0
 22 40  1  0
M  END
$$$$
OCNT-2312140
     RDKit          3D

 37 40  0  0  0  0  0  0  0  0999 V2000
    5.6763    1.7078    1.1271 C   0  0  0  0  0  0  0  0  0  0  0  0
    5.1775    0.5206    0.3594 C   0  0  0  0  0  0  0  0  0  0  0  0
    3.8014    0.2820    0.2112 C   0  0  0  0  0  0  0  0  0  0  0  0
    3.3486   -0.8505   -0.4867 C   0  0  0  0  0  0  0  0  0  0  0  0
    1.9605   -1.1027   -0.6521 N   0  0  0  0  0  0  0  0  0  0  0  0
    0.8886   -0.3616   -0.2094 C   0  0  0  0  0  0  0  0  0  0  0  0
   -0.2162   -1.0555   -0.6419 C   0  0  0  0  0  0  0  0  0  0  0  0
   -1.7045   -0.6576   -0.4120 C   0  0  0  0  0  0  0  0  0  0  0  0
   -2.1284    0.4658    0.2693 C   0  0  0  0  0  0  0  0  0  0  0  0
   -3.5554    0.5624    0.3170 C   0  0  0  0  0  0  0  0  0  0  0  0
   -4.1422   -0.5009   -0.3416 C   0  0  0  0  0  0  0  0  0  0  0  0
   -5.6208   -0.7005   -0.4422 C   0  0  0  0  0  0  0  0  0  0  0  0
   -6.3417    0.5818    0.0279 C   0  0  0  0  0  0  0  0  0  0  0  0
   -5.7302    1.1800    1.2335 N   0  0  0  0  0  0  0  0  0  0  0  0
   -4.3637    1.6559    0.9511 C   0  0  0  0  0  0  0  0  0  0  0  0
   -3.0145   -1.5884   -0.9916 S   0  0  0  0  0  0  0  0  0  0  0  0
    0.1839   -2.1696   -1.3178 N   0  0  0  0  0  0  0  0  0  0  0  0
    1.5098   -2.1928   -1.3207 N   0  0  0  0  0  0  0  0  0  0  0  0
    4.2817   -1.7501   -1.0281 C   0  0  0  0  0  0  0  0  0  0  0  0
    5.6491   -1.5209   -0.8692 C   0  0  0  0  0  0  0  0  0  0  0  0
    6.0842   -0.3967   -0.1770 C   0  0  0  0  0  0  0  0  0  0  0  0
    7.4014   -0.1988   -0.0264 F   0  0  0  0  0  0  0  0  0  0  0  0
    5.9345    1.4118    2.1485 H   0  0  0  0  0  0  0  0  0  0  0  0
    6.5602    2.1381    0.6448 H   0  0  0  0  0  0  0  0  0  0  0  0
    4.9173    2.4958    1.1734 H   0  0  0  0  0  0  0  0  0  0  0  0
    3.1082    0.9944    0.6492 H   0  0  0  0  0  0  0  0  0  0  0  0
    0.9925    0.5532    0.3487 H   0  0  0  0  0  0  0  0  0  0  0  0
   -1.4595    1.1917    0.7138 H   0  0  0  0  0  0  0  0  0  0  0  0
   -5.9125   -1.5396    0.2013 H   0  0  0  0  0  0  0  0  0  0  0  0
   -5.9209   -0.9376   -1.4687 H   0  0  0  0  0  0  0  0  0  0  0  0
   -7.3902    0.3452    0.2411 H   0  0  0  0  0  0  0  0  0  0  0  0
   -6.3510    1.3265   -0.7786 H   0  0  0  0  0  0  0  0  0  0  0  0
   -5.6657    0.4594    1.9532 H   0  0  0  0  0  0  0  0  0  0  0  0
   -3.8984    1.9764    1.8896 H   0  0  0  0  0  0  0  0  0  0  0  0
   -4.4003    2.5266    0.2863 H   0  0  0  0  0  0  0  0  0  0  0  0
    3.9629   -2.6373   -1.5737 H   0  0  0  0  0  0  0  0  0  0  0  0
    6.3773   -2.2141   -1.2791 H   0  0  0  0  0  0  0  0  0  0  0  0
  1  2  1  0
  2  3  1  0
  3  4  2  0
  4  5  1  0
  5  6  1  0
  6  7  2  0
  7  8  1  0
  8  9  2  0
  9 10  1  0
 10 11  2  0
 11 12  1  0
 12 13  1  0
 13 14  1  0
 14 15  1  0
 11 16  1  0
  7 17  1  0
 17 18  2  0
  4 19  1  0
 19 20  2  0
 20 21  1  0
 21 22  1  0
 21  2  2  0
 18  5  1  0
 16  8  1  0
 15 10  1  0
  1 23  1  0
  1 24  1  0
  1 25  1  0
  3 26  1  0
  6 27  1  0
  9 28  1  0
 12 29  1  0
 12 30  1  0
 13 31  1  0
 13 32  1  0
 14 33  1  0
 15 34  1  0
 15 35  1  0
 19 36  1  0
 20 37  1  0
M  END
$$$$
OCNT-2312148
     RDKit          3D

 48 51  0  0  0  0  0  0  0  0999 V2000
    0.6154    2.0855    2.0412 O   0  0  0  0  0  0  0  0  0  0  0  0
    0.7391    0.9510    1.5878 C   0  0  0  0  0  0  0  0  0  0  0  0
    2.0128    0.6261    0.9103 C   0  0  0  0  0  0  0  0  0  0  0  0
    2.4168    1.4061   -0.1761 C   0  0  0  0  0  0  0  0  0  0  0  0
    3.6359    1.1395   -0.8093 C   0  0  0  0  0  0  0  0  0  0  0  0
    4.4633    0.1002   -0.3553 C   0  0  0  0  0  0  0  0  0  0  0  0
    5.7344   -0.2074   -0.9897 C   0  0  0  0  0  0  0  0  0  0  0  0
    6.4855    0.6313   -1.7884 C   0  0  0  0  0  0  0  0  0  0  0  0
    7.5979   -0.0922   -2.1195 N   0  0  0  0  0  0  0  0  0  0  0  0
    7.4863   -1.3182   -1.5272 C   0  0  0  0  0  0  0  0  0  0  0  0
    6.3754   -1.4180   -0.8377 N   0  0  0  0  0  0  0  0  0  0  0  0
    4.0503   -0.6608    0.7482 C   0  0  0  0  0  0  0  0  0  0  0  0
    2.8392   -0.3910    1.3905 C   0  0  0  0  0  0  0  0  0  0  0  0
   -0.2524   -0.0192    1.6615 N   0  0  0  0  0  0  0  0  0  0  0  0
   -0.2575   -1.2682    0.8839 C   0  0  0  0  0  0  0  0  0  0  0  0
   -1.4517   -2.1734    1.2355 C   0  0  0  0  0  0  0  0  0  0  0  0
   -2.7616   -1.5310    1.1317 N   0  0  0  0  0  0  0  0  0  0  0  0
   -2.7530   -0.0922    1.4995 C   0  0  0  0  0  0  0  0  0  0  0  0
   -2.8774    0.8435    0.2663 C   0  0  0  0  0  0  0  0  0  0  0  0
   -4.1755    0.6997   -0.4977 C   0  0  0  0  0  0  0  0  0  0  0  0
   -5.3684    1.2266    0.0189 C   0  0  0  0  0  0  0  0  0  0  0  0
   -6.5675    1.0956   -0.6868 C   0  0  0  0  0  0  0  0  0  0  0  0
   -6.5870    0.4356   -1.9132 C   0  0  0  0  0  0  0  0  0  0  0  0
   -5.4079   -0.0905   -2.4376 C   0  0  0  0  0  0  0  0  0  0  0  0
   -4.2053    0.0399   -1.7330 C   0  0  0  0  0  0  0  0  0  0  0  0
   -1.5129    0.3115    2.3359 C   0  0  0  0  0  0  0  0  0  0  0  0
    1.7877    2.2236   -0.5240 H   0  0  0  0  0  0  0  0  0  0  0  0
    3.9262    1.7510   -1.6560 H   0  0  0  0  0  0  0  0  0  0  0  0
    6.3471    1.6487   -2.1278 H   0  0  0  0  0  0  0  0  0  0  0  0
    8.3707    0.2213   -2.6933 H   0  0  0  0  0  0  0  0  0  0  0  0
    8.2388   -2.0876   -1.6304 H   0  0  0  0  0  0  0  0  0  0  0  0
    4.6864   -1.4631    1.1206 H   0  0  0  0  0  0  0  0  0  0  0  0
    2.5512   -0.9677    2.2604 H   0  0  0  0  0  0  0  0  0  0  0  0
    0.6712   -1.8196    1.0536 H   0  0  0  0  0  0  0  0  0  0  0  0
   -0.2897   -0.9908   -0.1785 H   0  0  0  0  0  0  0  0  0  0  0  0
   -1.3391   -2.5188    2.2683 H   0  0  0  0  0  0  0  0  0  0  0  0
   -1.4342   -3.0721    0.6129 H   0  0  0  0  0  0  0  0  0  0  0  0
   -3.1570   -1.6462    0.2013 H   0  0  0  0  0  0  0  0  0  0  0  0
   -3.6364    0.0689    2.1321 H   0  0  0  0  0  0  0  0  0  0  0  0
   -2.0342    0.6892   -0.4192 H   0  0  0  0  0  0  0  0  0  0  0  0
   -2.7994    1.8904    0.5914 H   0  0  0  0  0  0  0  0  0  0  0  0
   -5.3699    1.7473    0.9730 H   0  0  0  0  0  0  0  0  0  0  0  0
   -7.4850    1.5075   -0.2771 H   0  0  0  0  0  0  0  0  0  0  0  0
   -7.5201    0.3328   -2.4597 H   0  0  0  0  0  0  0  0  0  0  0  0
   -5.4233   -0.6041   -3.3948 H   0  0  0  0  0  0  0  0  0  0  0  0
   -3.2931   -0.3737   -2.1587 H   0  0  0  0  0  0  0  0  0  0  0  0
   -1.5599    1.3747    2.5959 H   0  0  0  0  0  0  0  0  0  0  0  0
   -1.5122   -0.2415    3.2827 H   0  0  0  0  0  0  0  0  0  0  0  0
  1  2  2  0
  2  3  1  0
  3  4  1  0
  4  5  2  0
  5  6  1  0
  6  7  1  0
  7  8  2  0
  8  9  1  0
  9 10  1  0
 10 11  2  0
  6 12  2  0
 12 13  1  0
  2 14  1  0
 14 15  1  0
 15 16  1  0
 16 17  1  0
 17 18  1  0
 18 19  1  0
 19 20  1  0
 20 21  2  0
 21 22  1  0
 22 23  2  0
 23 24  1  0
 24 25  2  0
 18 26  1  0
 13  3  2  0
 26 14  1  0
 11  7  1  0
 25 20  1  0
  4 27  1  0
  5 28  1  0
  8 29  1  0
  9 30  1  0
 10 31  1  0
 12 32  1  0
 13 33  1  0
 15 34  1  0
 15 35  1  0
 16 36  1  0
 16 37  1  0
 17 38  1  0
 18 39  1  0
 19 40  1  0
 19 41  1  0
 21 42  1  0
 22 43  1  0
 23 44  1  0
 24 45  1  0
 25 46  1  0
 26 47  1  0
 26 48  1  0
M  END
$$$$
OCNT-2312150
     RDKit          3D

 41 44  0  0  0  0  0  0  0  0999 V2000
    8.7510    1.1529    1.3165 F   0  0  0  0  0  0  0  0  0  0  0  0
    7.7782    0.3241    0.9137 C   0  0  0  0  0  0  0  0  0  0  0  0
    6.5046    0.8387    0.6749 C   0  0  0  0  0  0  0  0  0  0  0  0
    5.4698   -0.0107    0.2525 C   0  0  0  0  0  0  0  0  0  0  0  0
    4.1298    0.5051   -0.0031 C   0  0  0  0  0  0  0  0  0  0  0  0
    3.7812    1.7927    0.1387 N   0  0  0  0  0  0  0  0  0  0  0  0
    2.4337    1.8091   -0.2095 O   0  0  0  0  0  0  0  0  0  0  0  0
    2.0866    0.5232   -0.5315 C   0  0  0  0  0  0  0  0  0  0  0  0
    0.6426    0.1200   -0.9791 C   0  0  0  0  0  0  0  0  0  0  0  0
    0.2980   -1.1345   -1.2940 N   0  0  0  0  0  0  0  0  0  0  0  0
   -1.0416   -1.0787   -1.6380 O   0  0  0  0  0  0  0  0  0  0  0  0
   -1.4885    0.2005   -1.5156 C   0  0  0  0  0  0  0  0  0  0  0  0
   -2.9173    0.4409   -1.8443 C   0  0  0  0  0  0  0  0  0  0  0  0
   -3.8211    0.4532   -0.5939 C   0  0  0  0  0  0  0  0  0  0  0  0
   -3.9401   -0.9382    0.0492 C   0  0  0  0  0  0  0  0  0  0  0  0
   -4.7968   -0.9022    1.3161 C   0  0  0  0  0  0  0  0  0  0  0  0
   -5.8498    0.2020    1.2777 C   0  0  0  0  0  0  0  0  0  0  0  0
   -6.2579    0.5247   -0.1532 C   0  0  0  0  0  0  0  0  0  0  0  0
   -5.1427    0.9882   -0.9804 N   0  0  0  0  0  0  0  0  0  0  0  0
   -0.4525    1.0034   -1.1036 C   0  0  0  0  0  0  0  0  0  0  0  0
    3.1022   -0.3079   -0.4163 N   0  0  0  0  0  0  0  0  0  0  0  0
    5.7443   -1.3765    0.0775 C   0  0  0  0  0  0  0  0  0  0  0  0
    7.0245   -1.8709    0.3216 C   0  0  0  0  0  0  0  0  0  0  0  0
    7.2642   -3.1778    0.1485 F   0  0  0  0  0  0  0  0  0  0  0  0
    8.0426   -1.0264    0.7390 C   0  0  0  0  0  0  0  0  0  0  0  0
    9.2705   -1.5104    0.9715 F   0  0  0  0  0  0  0  0  0  0  0  0
    6.3381    1.9031    0.8235 H   0  0  0  0  0  0  0  0  0  0  0  0
   -3.2692   -0.3124   -2.5608 H   0  0  0  0  0  0  0  0  0  0  0  0
   -2.9837    1.4101   -2.3567 H   0  0  0  0  0  0  0  0  0  0  0  0
   -3.3874    1.1355    0.1507 H   0  0  0  0  0  0  0  0  0  0  0  0
   -2.9558   -1.3457    0.3052 H   0  0  0  0  0  0  0  0  0  0  0  0
   -4.3861   -1.6390   -0.6693 H   0  0  0  0  0  0  0  0  0  0  0  0
   -4.1597   -0.7548    2.1964 H   0  0  0  0  0  0  0  0  0  0  0  0
   -5.2793   -1.8784    1.4456 H   0  0  0  0  0  0  0  0  0  0  0  0
   -6.7241   -0.0999    1.8654 H   0  0  0  0  0  0  0  0  0  0  0  0
   -5.4508    1.1058    1.7559 H   0  0  0  0  0  0  0  0  0  0  0  0
   -6.6963   -0.3653   -0.6206 H   0  0  0  0  0  0  0  0  0  0  0  0
   -7.0425    1.2896   -0.1526 H   0  0  0  0  0  0  0  0  0  0  0  0
   -5.1071    2.0078   -0.9660 H   0  0  0  0  0  0  0  0  0  0  0  0
   -0.4819    2.0671   -0.9211 H   0  0  0  0  0  0  0  0  0  0  0  0
    4.9701   -2.0682   -0.2489 H   0  0  0  0  0  0  0  0  0  0  0  0
  1  2  1  0
  2  3  2  0
  3  4  1  0
  4  5  1  0
  5  6  2  0
  6  7  1  0
  7  8  1  0
  8  9  1  0
  9 10  2  0
 10 11  1  0
 11 12  1  0
 12 13  1  0
 13 14  1  0
 14 15  1  0
 15 16  1  0
 16 17  1  0
 17 18  1  0
 18 19  1  0
 12 20  2  0
  8 21  2  0
  4 22  2  0
 22 23  1  0
 23 24  1  0
 23 25  2  0
 25 26  1  0
 25  2  1  0
 21  5  1  0
 20  9  1  0
 19 14  1  0
  3 27  1  0
 13 28  1  0
 13 29  1  0
 14 30  1  0
 15 31  1  0
 15 32  1  0
 16 33  1  0
 16 34  1  0
 17 35  1  0
 17 36  1  0
 18 37  1  0
 18 38  1  0
 19 39  1  0
 20 40  1  0
 22 41  1  0
M  END
$$$$
OCNT-2312156
     RDKit          3D

 40 43  0  0  0  0  0  0  0  0999 V2000
   -0.1075    1.1046    0.0326 O   0  0  0  0  0  0  0  0  0  0  0  0
   -0.1363   -0.0183   -0.4562 C   0  0  0  0  0  0  0  0  0  0  0  0
    0.9537   -0.8346   -0.6468 N   0  0  0  0  0  0  0  0  0  0  0  0
    2.2256   -0.4645   -0.3186 C   0  0  0  0  0  0  0  0  0  0  0  0
    2.6714    0.6620    0.1732 N   0  0  0  0  0  0  0  0  0  0  0  0
    4.0411    0.5757    0.3404 C   0  0  0  0  0  0  0  0  0  0  0  0
    4.6029   -0.6259   -0.0307 C   0  0  0  0  0  0  0  0  0  0  0  0
    6.1115   -1.0123    0.0415 C   0  0  0  0  0  0  0  0  0  0  0  0
    7.0363   -0.3316    1.0155 C   0  0  0  0  0  0  0  0  0  0  0  0
    7.1481   -0.0385   -0.4540 C   0  0  0  0  0  0  0  0  0  0  0  0
    3.3920   -1.6810   -0.6104 S   0  0  0  0  0  0  0  0  0  0  0  0
   -1.3871   -0.6384   -0.8927 C   0  0  0  0  0  0  0  0  0  0  0  0
   -1.5831   -1.5563   -1.9209 C   0  0  0  0  0  0  0  0  0  0  0  0
   -2.9653   -1.8113   -2.0419 C   0  0  0  0  0  0  0  0  0  0  0  0
   -3.5974   -1.0503   -1.0907 C   0  0  0  0  0  0  0  0  0  0  0  0
   -2.6445   -0.3738   -0.3628 N   0  0  0  0  0  0  0  0  0  0  0  0
   -2.9366    0.5046    0.7676 C   0  0  0  0  0  0  0  0  0  0  0  0
   -3.9330   -0.0737    1.7952 C   0  0  0  0  0  0  0  0  0  0  0  0
   -4.8808    1.0741    2.1189 C   0  0  0  0  0  0  0  0  0  0  0  0
   -4.9600    1.8510    0.8170 C   0  0  0  0  0  0  0  0  0  0  0  0
   -3.5201    1.8553    0.3213 C   0  0  0  0  0  0  0  0  0  0  0  0
    0.8318   -1.7698   -0.9971 H   0  0  0  0  0  0  0  0  0  0  0  0
    4.5727    1.4312    0.7376 H   0  0  0  0  0  0  0  0  0  0  0  0
    6.3085   -2.0652   -0.1460 H   0  0  0  0  0  0  0  0  0  0  0  0
    6.6520    0.4455    1.6647 H   0  0  0  0  0  0  0  0  0  0  0  0
    7.8156   -0.9312    1.4734 H   0  0  0  0  0  0  0  0  0  0  0  0
    8.0015   -0.4395   -0.9893 H   0  0  0  0  0  0  0  0  0  0  0  0
    6.8309    0.9367   -0.8053 H   0  0  0  0  0  0  0  0  0  0  0  0
   -0.8138   -1.9655   -2.5632 H   0  0  0  0  0  0  0  0  0  0  0  0
   -3.4518   -2.4556   -2.7631 H   0  0  0  0  0  0  0  0  0  0  0  0
   -4.6521   -0.9399   -0.8747 H   0  0  0  0  0  0  0  0  0  0  0  0
   -1.9987    0.6745    1.3033 H   0  0  0  0  0  0  0  0  0  0  0  0
   -3.4178   -0.4242    2.6967 H   0  0  0  0  0  0  0  0  0  0  0  0
   -4.5014   -0.9254    1.4071 H   0  0  0  0  0  0  0  0  0  0  0  0
   -4.4547    1.7028    2.9102 H   0  0  0  0  0  0  0  0  0  0  0  0
   -5.8603    0.7209    2.4545 H   0  0  0  0  0  0  0  0  0  0  0  0
   -5.3535    2.8619    0.9583 H   0  0  0  0  0  0  0  0  0  0  0  0
   -5.6063    1.3293    0.1015 H   0  0  0  0  0  0  0  0  0  0  0  0
   -3.4636    2.0306   -0.7582 H   0  0  0  0  0  0  0  0  0  0  0  0
   -2.9699    2.6661    0.8146 H   0  0  0  0  0  0  0  0  0  0  0  0
  1  2  2  0
  2  3  1  0
  3  4  1  0
  4  5  2  0
  5  6  1  0
  6  7  2  0
  7  8  1  0
  8  9  1  0
  9 10  1  0
  7 11  1  0
  2 12  1  0
 12 13  2  0
 13 14  1  0
 14 15  2  0
 15 16  1  0
 16 17  1  0
 17 18  1  0
 18 19  1  0
 19 20  1  0
 20 21  1  0
 11  4  1  0
 16 12  1  0
 21 17  1  0
 10  8  1  0
  3 22  1  0
  6 23  1  0
  8 24  1  0
  9 25  1  0
  9 26  1  0
 10 27  1  0
 10 28  1  0
 13 29  1  0
 14 30  1  0
 15 31  1  0
 17 32  1  0
 18 33  1  0
 18 34  1  0
 19 35  1  0
 19 36  1  0
 20 37  1  0
 20 38  1  0
 21 39  1  0
 21 40  1  0
M  END
$$$$
OCNT-2312165
     RDKit          3D

 42 44  0  0  0  0  0  0  0  0999 V2000
   -5.8057    1.0686   -1.1009 C   0  0  0  0  0  0  0  0  0  0  0  0
   -4.5805    0.6480   -0.2967 C   0  0  0  0  0  0  0  0  0  0  0  0
   -4.8038    1.0119    1.0631 O   0  0  0  0  0  0  0  0  0  0  0  0
   -3.3193    1.3546   -0.8106 C   0  0  0  0  0  0  0  0  0  0  0  0
   -1.9654    0.7801   -0.3410 C   0  0  0  0  0  0  0  0  0  0  0  0
   -1.6672   -0.5990   -0.9488 C   0  0  0  0  0  0  0  0  0  0  0  0
   -0.2926   -1.1114   -0.5041 C   0  0  0  0  0  0  0  0  0  0  0  0
   -0.2008   -1.1520    0.9573 N   0  0  0  0  0  0  0  0  0  0  0  0
    1.0058   -1.8348    1.4482 C   0  0  0  0  0  0  0  0  0  0  0  0
    2.3220   -1.1775    1.1237 C   0  0  0  0  0  0  0  0  0  0  0  0
    2.9667   -0.1607    1.8047 C   0  0  0  0  0  0  0  0  0  0  0  0
    4.2130    0.1909    1.2083 C   0  0  0  0  0  0  0  0  0  0  0  0
    4.4898   -0.5825    0.1031 C   0  0  0  0  0  0  0  0  0  0  0  0
    5.7794   -0.4395   -0.7663 C   0  0  0  0  0  0  0  0  0  0  0  0
    6.7467    0.4599   -0.5175 N   0  0  0  0  0  0  0  0  0  0  0  0
    7.5899    0.1721   -1.5201 N   0  0  0  0  0  0  0  0  0  0  0  0
    7.2146   -0.8139   -2.3422 N   0  0  0  0  0  0  0  0  0  0  0  0
    6.0452   -1.2180   -1.8653 N   0  0  0  0  0  0  0  0  0  0  0  0
    3.2639   -1.7232   -0.2054 S   0  0  0  0  0  0  0  0  0  0  0  0
   -0.4195    0.1656    1.5598 C   0  0  0  0  0  0  0  0  0  0  0  0
   -1.8012    0.7095    1.1819 C   0  0  0  0  0  0  0  0  0  0  0  0
   -6.7066    0.5842   -0.7087 H   0  0  0  0  0  0  0  0  0  0  0  0
   -5.7004    0.8007   -2.1566 H   0  0  0  0  0  0  0  0  0  0  0  0
   -5.9718    2.1491   -1.0261 H   0  0  0  0  0  0  0  0  0  0  0  0
   -4.4715   -0.4393   -0.3488 H   0  0  0  0  0  0  0  0  0  0  0  0
   -5.5661    0.4985    1.3810 H   0  0  0  0  0  0  0  0  0  0  0  0
   -3.3573    2.4086   -0.5041 H   0  0  0  0  0  0  0  0  0  0  0  0
   -3.3205    1.3451   -1.9083 H   0  0  0  0  0  0  0  0  0  0  0  0
   -1.1974    1.4702   -0.7205 H   0  0  0  0  0  0  0  0  0  0  0  0
   -1.6924   -0.5394   -2.0434 H   0  0  0  0  0  0  0  0  0  0  0  0
   -2.4322   -1.3256   -0.6503 H   0  0  0  0  0  0  0  0  0  0  0  0
    0.4840   -0.4679   -0.9352 H   0  0  0  0  0  0  0  0  0  0  0  0
   -0.1563   -2.1174   -0.9189 H   0  0  0  0  0  0  0  0  0  0  0  0
    1.0012   -2.8686    1.0777 H   0  0  0  0  0  0  0  0  0  0  0  0
    0.9304   -1.9367    2.5394 H   0  0  0  0  0  0  0  0  0  0  0  0
    2.5581    0.3150    2.6884 H   0  0  0  0  0  0  0  0  0  0  0  0
    4.8726    0.9686    1.5749 H   0  0  0  0  0  0  0  0  0  0  0  0
    8.4651    0.6713   -1.6526 H   0  0  0  0  0  0  0  0  0  0  0  0
   -0.3707    0.0924    2.6529 H   0  0  0  0  0  0  0  0  0  0  0  0
    0.3461    0.8838    1.2425 H   0  0  0  0  0  0  0  0  0  0  0  0
   -2.5613    0.0538    1.6223 H   0  0  0  0  0  0  0  0  0  0  0  0
   -1.9341    1.7051    1.6209 H   0  0  0  0  0  0  0  0  0  0  0  0
  1  2  1  0
  2  3  1  0
  2  4  1  0
  4  5  1  0
  5  6  1  0
  6  7  1  0
  7  8  1  0
  8  9  1  0
  9 10  1  0
 10 11  2  0
 11 12  1  0
 12 13  2  0
 13 14  1  0
 14 15  2  0
 15 16  1  0
 16 17  1  0
 17 18  2  0
 13 19  1  0
  8 20  1  0
 20 21  1  0
 21  5  1  0
 19 10  1  0
 18 14  1  0
  1 22  1  0
  1 23  1  0
  1 24  1  0
  2 25  1  0
  3 26  1  0
  4 27  1  0
  4 28  1  0
  5 29  1  0
  6 30  1  0
  6 31  1  0
  7 32  1  0
  7 33  1  0
  9 34  1  0
  9 35  1  0
 11 36  1  0
 12 37  1  0
 16 38  1  0
 20 39  1  0
 20 40  1  0
 21 41  1  0
 21 42  1  0
M  END
$$$$
OCNT-2312180
     RDKit          3D

 57 58  0  0  0  0  0  0  0  0999 V2000
   -3.6544    4.3295   -2.4024 C   0  0  0  0  0  0  0  0  0  0  0  0
   -3.3993    3.1018   -1.5785 C   0  0  0  0  0  0  0  0  0  0  0  0
   -2.2112    2.3819   -1.7222 C   0  0  0  0  0  0  0  0  0  0  0  0
   -1.9724    1.2535   -0.9371 C   0  0  0  0  0  0  0  0  0  0  0  0
   -2.9110    0.8432    0.0115 C   0  0  0  0  0  0  0  0  0  0  0  0
   -2.6454   -0.3351    0.7667 N   0  0  0  0  0  0  0  0  0  0  0  0
   -3.0490   -1.8294    0.0855 S   0  0  0  0  0  0  0  0  0  0  0  0
   -3.0288   -2.7816    1.1746 O   0  0  0  0  0  0  0  0  0  0  0  0
   -4.2165   -1.6783   -0.7544 O   0  0  0  0  0  0  0  0  0  0  0  0
   -1.6477   -2.1876   -0.9406 C   0  0  0  0  0  0  0  0  0  0  0  0
   -1.8189   -2.3594   -2.3114 C   0  0  0  0  0  0  0  0  0  0  0  0
   -0.7048   -2.6178   -3.1040 C   0  0  0  0  0  0  0  0  0  0  0  0
    0.5798   -2.7089   -2.5348 C   0  0  0  0  0  0  0  0  0  0  0  0
    1.7454   -2.9671   -3.4536 C   0  0  0  0  0  0  0  0  0  0  0  0
    0.7421   -2.5634   -1.1379 C   0  0  0  0  0  0  0  0  0  0  0  0
    2.0745   -2.5324   -0.6080 N   0  0  0  0  0  0  0  0  0  0  0  0
    2.4660   -2.8464    0.9896 S   0  0  0  0  0  0  0  0  0  0  0  0
    3.8525   -3.2654    0.9632 O   0  0  0  0  0  0  0  0  0  0  0  0
    1.4554   -3.6825    1.5952 O   0  0  0  0  0  0  0  0  0  0  0  0
    2.4142   -1.2297    1.7384 C   0  0  0  0  0  0  0  0  0  0  0  0
    3.3920   -0.2727    1.0876 C   0  0  0  0  0  0  0  0  0  0  0  0
    3.2780    1.0250    1.6778 O   0  0  0  0  0  0  0  0  0  0  0  0
    4.1164    1.2280    2.8185 C   0  0  0  0  0  0  0  0  0  0  0  0
    5.5079    1.6607    2.3693 C   0  0  0  0  0  0  0  0  0  0  0  0
    3.4707    2.3190    3.6618 C   0  0  0  0  0  0  0  0  0  0  0  0
   -0.3796   -2.2809   -0.3532 C   0  0  0  0  0  0  0  0  0  0  0  0
   -4.1052    1.5586    0.1833 C   0  0  0  0  0  0  0  0  0  0  0  0
   -5.1606    1.1310    1.1624 C   0  0  0  0  0  0  0  0  0  0  0  0
   -4.3341    2.6890   -0.6195 C   0  0  0  0  0  0  0  0  0  0  0  0
   -4.7077    4.3851   -2.6950 H   0  0  0  0  0  0  0  0  0  0  0  0
   -3.3929    5.2247   -1.8308 H   0  0  0  0  0  0  0  0  0  0  0  0
   -3.0617    4.3178   -3.3229 H   0  0  0  0  0  0  0  0  0  0  0  0
   -1.4650    2.6902   -2.4520 H   0  0  0  0  0  0  0  0  0  0  0  0
   -1.0396    0.7126   -1.0638 H   0  0  0  0  0  0  0  0  0  0  0  0
   -2.8803   -0.3197    1.7577 H   0  0  0  0  0  0  0  0  0  0  0  0
   -2.8041   -2.2855   -2.7680 H   0  0  0  0  0  0  0  0  0  0  0  0
   -0.8425   -2.7415   -4.1771 H   0  0  0  0  0  0  0  0  0  0  0  0
    1.4249   -3.0692   -4.4957 H   0  0  0  0  0  0  0  0  0  0  0  0
    2.4567   -2.1361   -3.4093 H   0  0  0  0  0  0  0  0  0  0  0  0
    2.2488   -3.8984   -3.1747 H   0  0  0  0  0  0  0  0  0  0  0  0
    2.8187   -2.8707   -1.2178 H   0  0  0  0  0  0  0  0  0  0  0  0
    1.3908   -0.8476    1.6880 H   0  0  0  0  0  0  0  0  0  0  0  0
    2.6468   -1.3660    2.7998 H   0  0  0  0  0  0  0  0  0  0  0  0
    3.1473   -0.1508    0.0285 H   0  0  0  0  0  0  0  0  0  0  0  0
    4.4217   -0.6397    1.1358 H   0  0  0  0  0  0  0  0  0  0  0  0
    4.1793    0.3120    3.4166 H   0  0  0  0  0  0  0  0  0  0  0  0
    6.1432    1.9003    3.2286 H   0  0  0  0  0  0  0  0  0  0  0  0
    6.0009    0.8717    1.7911 H   0  0  0  0  0  0  0  0  0  0  0  0
    5.4523    2.5400    1.7164 H   0  0  0  0  0  0  0  0  0  0  0  0
    2.4688    2.0101    3.9783 H   0  0  0  0  0  0  0  0  0  0  0  0
    4.0641    2.5380    4.5533 H   0  0  0  0  0  0  0  0  0  0  0  0
    3.3468    3.2426    3.0850 H   0  0  0  0  0  0  0  0  0  0  0  0
   -0.3035   -2.1340    0.7191 H   0  0  0  0  0  0  0  0  0  0  0  0
   -5.9289    1.9019    1.2828 H   0  0  0  0  0  0  0  0  0  0  0  0
   -4.7296    0.9571    2.1516 H   0  0  0  0  0  0  0  0  0  0  0  0
   -5.6537    0.2178    0.8155 H   0  0  0  0  0  0  0  0  0  0  0  0
   -5.2577    3.2548   -0.5020 H   0  0  0  0  0  0  0  0  0  0  0  0
  1  2  1  0
  2  3  1  0
  3  4  2  0
  4  5  1  0
  5  6  1  0
  6  7  1  0
  7  8  2  0
  7  9  2  0
  7 10  1  0
 10 11  1  0
 11 12  2  0
 12 13  1  0
 13 14  1  0
 13 15  2  0
 15 16  1  0
 16 17  1  0
 17 18  2  0
 17 19  2  0
 17 20  1  0
 20 21  1  0
 21 22  1  0
 22 23  1  0
 23 24  1  0
 23 25  1  0
 15 26  1  0
  5 27  2  0
 27 28  1  0
 27 29  1  0
 29  2  2  0
 26 10  2  0
  1 30  1  0
  1 31  1  0
  1 32  1  0
  3 33  1  0
  4 34  1  0
  6 35  1  0
 11 36  1  0
 12 37  1  0
 14 38  1  0
 14 39  1  0
 14 40  1  0
 16 41  1  0
 20 42  1  0
 20 43  1  0
 21 44  1  0
 21 45  1  0
 23 46  1  0
 24 47  1  0
 24 48  1  0
 24 49  1  0
 25 50  1  0
 25 51  1  0
 25 52  1  0
 26 53  1  0
 28 54  1  0
 28 55  1  0
 28 56  1  0
 29 57  1  0
M  END
$$$$
OCNT-2312204
     RDKit          3D

 48 50  0  0  0  0  0  0  0  0999 V2000
   -4.1327    4.6362   -0.9948 C   0  0  0  0  0  0  0  0  0  0  0  0
   -3.2862    4.3449    0.1104 O   0  0  0  0  0  0  0  0  0  0  0  0
   -2.8060    3.0688    0.2011 C   0  0  0  0  0  0  0  0  0  0  0  0
   -3.0789    2.0227   -0.6764 C   0  0  0  0  0  0  0  0  0  0  0  0
   -2.5175    0.7563   -0.4617 C   0  0  0  0  0  0  0  0  0  0  0  0
   -1.6624    0.5179    0.6204 C   0  0  0  0  0  0  0  0  0  0  0  0
   -1.1130   -0.7810    0.8420 N   0  0  0  0  0  0  0  0  0  0  0  0
   -2.0429   -1.9207    0.8011 C   0  0  0  0  0  0  0  0  0  0  0  0
   -1.9601   -2.6568   -0.5105 C   0  0  0  0  0  0  0  0  0  0  0  0
   -0.8527   -3.1903   -1.1440 C   0  0  0  0  0  0  0  0  0  0  0  0
   -1.1792   -3.8322   -2.3729 C   0  0  0  0  0  0  0  0  0  0  0  0
   -2.5297   -3.7909   -2.6317 C   0  0  0  0  0  0  0  0  0  0  0  0
   -3.3954   -2.9920   -1.3944 S   0  0  0  0  0  0  0  0  0  0  0  0
    0.1857   -1.0241    1.2981 C   0  0  0  0  0  0  0  0  0  0  0  0
    0.5095   -2.0959    1.8168 O   0  0  0  0  0  0  0  0  0  0  0  0
    1.2320    0.0686    1.0718 C   0  0  0  0  0  0  0  0  0  0  0  0
    2.6630   -0.4884    0.9257 C   0  0  0  0  0  0  0  0  0  0  0  0
    2.7894   -1.3743   -0.3296 C   0  0  0  0  0  0  0  0  0  0  0  0
    4.2037   -1.3411   -0.8989 C   0  0  0  0  0  0  0  0  0  0  0  0
    4.5948   -0.0001   -1.3364 N   0  0  0  0  0  0  0  0  0  0  0  0
    4.0451    1.0808   -0.5184 C   0  0  0  0  0  0  0  0  0  0  0  0
    3.6999    0.6518    0.9049 C   0  0  0  0  0  0  0  0  0  0  0  0
   -1.4106    1.5701    1.5070 C   0  0  0  0  0  0  0  0  0  0  0  0
   -1.9736    2.8331    1.2948 C   0  0  0  0  0  0  0  0  0  0  0  0
   -5.0479    4.0359   -0.9597 H   0  0  0  0  0  0  0  0  0  0  0  0
   -3.6045    4.4979   -1.9440 H   0  0  0  0  0  0  0  0  0  0  0  0
   -4.4224    5.6891   -0.9255 H   0  0  0  0  0  0  0  0  0  0  0  0
   -3.7202    2.1532   -1.5419 H   0  0  0  0  0  0  0  0  0  0  0  0
   -2.7329   -0.0237   -1.1854 H   0  0  0  0  0  0  0  0  0  0  0  0
   -1.7994   -2.6227    1.6082 H   0  0  0  0  0  0  0  0  0  0  0  0
   -3.0607   -1.5668    1.0085 H   0  0  0  0  0  0  0  0  0  0  0  0
    0.1513   -3.1268   -0.7419 H   0  0  0  0  0  0  0  0  0  0  0  0
   -0.4593   -4.3075   -3.0279 H   0  0  0  0  0  0  0  0  0  0  0  0
   -3.0529   -4.2021   -3.4841 H   0  0  0  0  0  0  0  0  0  0  0  0
    1.2090    0.7267    1.9465 H   0  0  0  0  0  0  0  0  0  0  0  0
    0.9827    0.6558    0.1816 H   0  0  0  0  0  0  0  0  0  0  0  0
    2.8831   -1.1046    1.8079 H   0  0  0  0  0  0  0  0  0  0  0  0
    2.0833   -1.0516   -1.1061 H   0  0  0  0  0  0  0  0  0  0  0  0
    2.5222   -2.4073   -0.0780 H   0  0  0  0  0  0  0  0  0  0  0  0
    4.9124   -1.7044   -0.1443 H   0  0  0  0  0  0  0  0  0  0  0  0
    4.2743   -2.0218   -1.7540 H   0  0  0  0  0  0  0  0  0  0  0  0
    5.6126    0.0578   -1.3562 H   0  0  0  0  0  0  0  0  0  0  0  0
    4.7639    1.9077   -0.4909 H   0  0  0  0  0  0  0  0  0  0  0  0
    3.1470    1.4705   -1.0122 H   0  0  0  0  0  0  0  0  0  0  0  0
    4.6172    0.3089    1.4025 H   0  0  0  0  0  0  0  0  0  0  0  0
    3.3486    1.5148    1.4824 H   0  0  0  0  0  0  0  0  0  0  0  0
   -0.8186    1.4205    2.4050 H   0  0  0  0  0  0  0  0  0  0  0  0
   -1.7706    3.6372    1.9984 H   0  0  0  0  0  0  0  0  0  0  0  0
  1  2  1  0
  2  3  1  0
  3  4  1  0
  4  5  2  0
  5  6  1  0
  6  7  1  0
  7  8  1  0
  8  9  1  0
  9 10  2  0
 10 11  1  0
 11 12  2  0
 12 13  1  0
  7 14  1  0
 14 15  2  0
 14 16  1  0
 16 17  1  0
 17 18  1  0
 18 19  1  0
 19 20  1  0
 20 21  1  0
 21 22  1  0
  6 23  2  0
 23 24  1  0
 24  3  2  0
 13  9  1  0
 22 17  1  0
  1 25  1  0
  1 26  1  0
  1 27  1  0
  4 28  1  0
  5 29  1  0
  8 30  1  0
  8 31  1  0
 10 32  1  0
 11 33  1  0
 12 34  1  0
 16 35  1  0
 16 36  1  0
 17 37  1  0
 18 38  1  0
 18 39  1  0
 19 40  1  0
 19 41  1  0
 20 42  1  0
 21 43  1  0
 21 44  1  0
 22 45  1  0
 22 46  1  0
 23 47  1  0
 24 48  1  0
M  END
$$$$
OCNT-2312206
     RDKit          3D

 49 52  0  0  0  0  0  0  0  0999 V2000
   -2.4327   -1.9890   -4.4096 C   0  0  0  0  0  0  0  0  0  0  0  0
   -2.4832   -1.4911   -3.0138 C   0  0  0  0  0  0  0  0  0  0  0  0
   -3.5535   -1.7230   -2.2460 N   0  0  0  0  0  0  0  0  0  0  0  0
   -3.2202   -1.1105   -1.0812 N   0  0  0  0  0  0  0  0  0  0  0  0
   -4.0647   -1.1205    0.0513 C   0  0  0  0  0  0  0  0  0  0  0  0
   -3.8408   -0.5443    1.2812 C   0  0  0  0  0  0  0  0  0  0  0  0
   -4.9361   -0.8561    2.0341 N   0  0  0  0  0  0  0  0  0  0  0  0
   -5.1725   -0.4948    3.4125 C   0  0  0  0  0  0  0  0  0  0  0  0
   -5.8542   -1.5841    1.3708 N   0  0  0  0  0  0  0  0  0  0  0  0
   -5.3193   -1.7396    0.1545 C   0  0  0  0  0  0  0  0  0  0  0  0
   -2.0044   -0.5021   -1.0659 N   0  0  0  0  0  0  0  0  0  0  0  0
   -1.5085   -0.7590   -2.2885 C   0  0  0  0  0  0  0  0  0  0  0  0
   -0.2039   -0.2935   -2.7985 C   0  0  0  0  0  0  0  0  0  0  0  0
   -0.0303   -0.2372   -4.0173 O   0  0  0  0  0  0  0  0  0  0  0  0
    0.8303    0.0701   -1.9081 N   0  0  0  0  0  0  0  0  0  0  0  0
    1.9871    0.7574   -2.4767 C   0  0  0  0  0  0  0  0  0  0  0  0
    0.7995   -0.1821   -0.4453 C   0  0  0  0  0  0  0  0  0  0  0  0
    0.2760    1.0179    0.3469 C   0  0  0  0  0  0  0  0  0  0  0  0
    1.5205    1.8187    0.7317 C   0  0  0  0  0  0  0  0  0  0  0  0
    2.6239    0.8610    0.6843 N   0  0  0  0  0  0  0  0  0  0  0  0
    3.8679    1.0962    1.2284 C   0  0  0  0  0  0  0  0  0  0  0  0
    4.8465    0.0969    1.3070 C   0  0  0  0  0  0  0  0  0  0  0  0
    6.0961    0.3840    1.8430 C   0  0  0  0  0  0  0  0  0  0  0  0
    6.4537    1.5937    2.3112 N   0  0  0  0  0  0  0  0  0  0  0  0
    5.5126    2.5555    2.2329 C   0  0  0  0  0  0  0  0  0  0  0  0
    4.2405    2.3566    1.7097 C   0  0  0  0  0  0  0  0  0  0  0  0
    2.1599   -0.4528    0.2381 C   0  0  0  0  0  0  0  0  0  0  0  0
   -2.3256   -1.1599   -5.1122 H   0  0  0  0  0  0  0  0  0  0  0  0
   -1.5865   -2.6709   -4.5421 H   0  0  0  0  0  0  0  0  0  0  0  0
   -3.3439   -2.5340   -4.6728 H   0  0  0  0  0  0  0  0  0  0  0  0
   -3.0126    0.0349    1.6713 H   0  0  0  0  0  0  0  0  0  0  0  0
   -4.4528    0.2684    3.7135 H   0  0  0  0  0  0  0  0  0  0  0  0
   -6.1882   -0.0978    3.5026 H   0  0  0  0  0  0  0  0  0  0  0  0
   -5.0548   -1.3857    4.0272 H   0  0  0  0  0  0  0  0  0  0  0  0
   -5.8653   -2.3032   -0.5971 H   0  0  0  0  0  0  0  0  0  0  0  0
    2.8930    0.1788   -2.2900 H   0  0  0  0  0  0  0  0  0  0  0  0
    1.9007    0.8911   -3.5580 H   0  0  0  0  0  0  0  0  0  0  0  0
    2.0742    1.7508   -2.0326 H   0  0  0  0  0  0  0  0  0  0  0  0
    0.1826   -1.0697   -0.2800 H   0  0  0  0  0  0  0  0  0  0  0  0
   -0.2116    0.6603    1.2631 H   0  0  0  0  0  0  0  0  0  0  0  0
   -0.4469    1.6355   -0.1978 H   0  0  0  0  0  0  0  0  0  0  0  0
    1.3843    2.2521    1.7295 H   0  0  0  0  0  0  0  0  0  0  0  0
    1.6937    2.6326    0.0198 H   0  0  0  0  0  0  0  0  0  0  0  0
    4.6625   -0.9108    0.9541 H   0  0  0  0  0  0  0  0  0  0  0  0
    6.8649   -0.3841    1.9050 H   0  0  0  0  0  0  0  0  0  0  0  0
    5.8126    3.5288    2.6086 H   0  0  0  0  0  0  0  0  0  0  0  0
    3.5611    3.2018    1.6796 H   0  0  0  0  0  0  0  0  0  0  0  0
    2.0082   -1.0914    1.1167 H   0  0  0  0  0  0  0  0  0  0  0  0
    2.8599   -0.9562   -0.4369 H   0  0  0  0  0  0  0  0  0  0  0  0
  1  2  1  0
  2  3  2  0
  3  4  1  0
  4  5  1  0
  5  6  2  0
  6  7  1  0
  7  8  1  0
  7  9  1  0
  9 10  2  0
  4 11  1  0
 11 12  2  0
 12 13  1  0
 13 14  2  0
 13 15  1  0
 15 16  1  0
 15 17  1  0
 17 18  1  0
 18 19  1  0
 19 20  1  0
 20 21  1  0
 21 22  2  0
 22 23  1  0
 23 24  2  0
 24 25  1  0
 25 26  2  0
 20 27  1  0
 12  2  1  0
 27 17  1  0
 10  5  1  0
 26 21  1  0
  1 28  1  0
  1 29  1  0
  1 30  1  0
  6 31  1  0
  8 32  1  0
  8 33  1  0
  8 34  1  0
 10 35  1  0
 16 36  1  0
 16 37  1  0
 16 38  1  0
 17 39  1  0
 18 40  1  0
 18 41  1  0
 19 42  1  0
 19 43  1  0
 22 44  1  0
 23 45  1  0
 25 46  1  0
 26 47  1  0
 27 48  1  0
 27 49  1  0
M  END
$$$$
OCNT-2312208
     RDKit          3D

 36 39  0  0  0  0  0  0  0  0999 V2000
   -4.4126    1.0359   -0.2582 C   0  0  0  0  0  0  0  0  0  0  0  0
   -4.3265    0.1633    0.8892 N   0  0  0  0  0  0  0  0  0  0  0  0
   -4.7997    0.4633    2.1372 C   0  0  0  0  0  0  0  0  0  0  0  0
   -4.5017   -0.6314    2.9097 C   0  0  0  0  0  0  0  0  0  0  0  0
   -3.8609   -1.5860    2.1667 N   0  0  0  0  0  0  0  0  0  0  0  0
   -3.7583   -1.0908    0.9456 C   0  0  0  0  0  0  0  0  0  0  0  0
   -3.1266   -1.7892   -0.2106 C   0  0  0  0  0  0  0  0  0  0  0  0
   -1.8664   -1.1671   -0.5638 N   0  0  0  0  0  0  0  0  0  0  0  0
   -0.6800   -1.2198    0.1096 C   0  0  0  0  0  0  0  0  0  0  0  0
    0.1748   -0.4623   -0.6598 C   0  0  0  0  0  0  0  0  0  0  0  0
    1.5752   -0.1723   -0.4008 C   0  0  0  0  0  0  0  0  0  0  0  0
    2.2099   -0.5770    0.7807 C   0  0  0  0  0  0  0  0  0  0  0  0
    3.5593   -0.2825    1.0029 C   0  0  0  0  0  0  0  0  0  0  0  0
    4.3013    0.4254    0.0436 C   0  0  0  0  0  0  0  0  0  0  0  0
    5.6508    0.7476    0.2109 C   0  0  0  0  0  0  0  0  0  0  0  0
    6.3955    1.4278   -0.6915 N   0  0  0  0  0  0  0  0  0  0  0  0
    5.7678    1.8100   -1.8223 C   0  0  0  0  0  0  0  0  0  0  0  0
    4.4345    1.5457   -2.0939 C   0  0  0  0  0  0  0  0  0  0  0  0
    3.6799    0.8407   -1.1484 C   0  0  0  0  0  0  0  0  0  0  0  0
    2.3221    0.5369   -1.3562 C   0  0  0  0  0  0  0  0  0  0  0  0
   -0.5106    0.0017   -1.7576 N   0  0  0  0  0  0  0  0  0  0  0  0
   -1.7587   -0.4410   -1.6920 N   0  0  0  0  0  0  0  0  0  0  0  0
   -5.1871    1.7871   -0.0809 H   0  0  0  0  0  0  0  0  0  0  0  0
   -4.6793    0.4480   -1.1390 H   0  0  0  0  0  0  0  0  0  0  0  0
   -3.4452    1.5255   -0.3900 H   0  0  0  0  0  0  0  0  0  0  0  0
   -5.2904    1.3986    2.3684 H   0  0  0  0  0  0  0  0  0  0  0  0
   -4.7140   -0.7821    3.9604 H   0  0  0  0  0  0  0  0  0  0  0  0
   -3.7804   -1.7866   -1.0888 H   0  0  0  0  0  0  0  0  0  0  0  0
   -2.9089   -2.8331    0.0412 H   0  0  0  0  0  0  0  0  0  0  0  0
   -0.5723   -1.7603    1.0384 H   0  0  0  0  0  0  0  0  0  0  0  0
    1.6694   -1.1227    1.5498 H   0  0  0  0  0  0  0  0  0  0  0  0
    4.0263   -0.6082    1.9299 H   0  0  0  0  0  0  0  0  0  0  0  0
    6.1908    0.4569    1.1084 H   0  0  0  0  0  0  0  0  0  0  0  0
    6.3842    2.3543   -2.5323 H   0  0  0  0  0  0  0  0  0  0  0  0
    3.9974    1.8855   -3.0270 H   0  0  0  0  0  0  0  0  0  0  0  0
    1.8403    0.8577   -2.2794 H   0  0  0  0  0  0  0  0  0  0  0  0
  1  2  1  0
  2  3  1  0
  3  4  2  0
  4  5  1  0
  5  6  2  0
  6  7  1  0
  7  8  1  0
  8  9  1  0
  9 10  2  0
 10 11  1  0
 11 12  1  0
 12 13  2  0
 13 14  1  0
 14 15  2  0
 15 16  1  0
 16 17  2  0
 17 18  1  0
 18 19  2  0
 19 20  1  0
 10 21  1  0
 21 22  2  0
  6  2  1  0
 22  8  1  0
 20 11  2  0
 19 14  1  0
  1 23  1  0
  1 24  1  0
  1 25  1  0
  3 26  1  0
  4 27  1  0
  7 28  1  0
  7 29  1  0
  9 30  1  0
 12 31  1  0
 13 32  1  0
 15 33  1  0
 17 34  1  0
 18 35  1  0
 20 36  1  0
M  END
$$$$
OCNT-2312209
     RDKit          3D

 38 40  0  0  0  0  0  0  0  0999 V2000
   -2.6186    0.1493   -2.9398 O   0  0  0  0  0  0  0  0  0  0  0  0
   -3.0862    0.3112   -1.8173 C   0  0  0  0  0  0  0  0  0  0  0  0
   -2.3798    0.0275   -0.6645 N   0  0  0  0  0  0  0  0  0  0  0  0
   -0.9799   -0.3524   -0.7369 C   0  0  0  0  0  0  0  0  0  0  0  0
   -0.5014   -1.0166    0.5585 C   0  0  0  0  0  0  0  0  0  0  0  0
   -0.3470   -0.0328    1.7194 C   0  0  0  0  0  0  0  0  0  0  0  0
    1.0266    0.5978    1.4941 C   0  0  0  0  0  0  0  0  0  0  0  0
    1.7799   -0.4358    0.7899 N   0  0  0  0  0  0  0  0  0  0  0  0
    3.1466   -0.4136    0.6319 C   0  0  0  0  0  0  0  0  0  0  0  0
    3.9090    0.7256    0.9485 C   0  0  0  0  0  0  0  0  0  0  0  0
    5.2993    0.7576    0.7863 C   0  0  0  0  0  0  0  0  0  0  0  0
    5.9549   -0.3597    0.2980 C   0  0  0  0  0  0  0  0  0  0  0  0
    7.2845   -0.3348    0.1412 F   0  0  0  0  0  0  0  0  0  0  0  0
    5.2451   -1.5021   -0.0308 C   0  0  0  0  0  0  0  0  0  0  0  0
    3.8549   -1.5226    0.1351 C   0  0  0  0  0  0  0  0  0  0  0  0
    0.9263   -1.5580    0.4041 C   0  0  0  0  0  0  0  0  0  0  0  0
   -4.4329    0.8495   -1.6025 C   0  0  0  0  0  0  0  0  0  0  0  0
   -5.1619    1.4102   -2.6390 C   0  0  0  0  0  0  0  0  0  0  0  0
   -6.6999    1.9760   -2.1560 S   0  0  0  0  0  0  0  0  0  0  0  0
   -6.4408    1.4619   -0.5493 C   0  0  0  0  0  0  0  0  0  0  0  0
   -5.2034    0.8769   -0.3870 C   0  0  0  0  0  0  0  0  0  0  0  0
   -2.7146    0.4479    0.1893 H   0  0  0  0  0  0  0  0  0  0  0  0
   -0.8611   -1.0459   -1.5779 H   0  0  0  0  0  0  0  0  0  0  0  0
   -0.4068    0.5503   -0.9763 H   0  0  0  0  0  0  0  0  0  0  0  0
   -1.1933   -1.8255    0.8213 H   0  0  0  0  0  0  0  0  0  0  0  0
   -1.1396    0.7177    1.7835 H   0  0  0  0  0  0  0  0  0  0  0  0
   -0.3398   -0.5889    2.6657 H   0  0  0  0  0  0  0  0  0  0  0  0
    1.4762    0.8665    2.4563 H   0  0  0  0  0  0  0  0  0  0  0  0
    0.9431    1.4960    0.8720 H   0  0  0  0  0  0  0  0  0  0  0  0
    3.4286    1.6255    1.3217 H   0  0  0  0  0  0  0  0  0  0  0  0
    5.8650    1.6489    1.0358 H   0  0  0  0  0  0  0  0  0  0  0  0
    5.7692   -2.3714   -0.4135 H   0  0  0  0  0  0  0  0  0  0  0  0
    3.3347   -2.4388   -0.1289 H   0  0  0  0  0  0  0  0  0  0  0  0
    1.0862   -2.3949    1.0946 H   0  0  0  0  0  0  0  0  0  0  0  0
    1.1182   -1.9001   -0.6187 H   0  0  0  0  0  0  0  0  0  0  0  0
   -4.8507    1.5179   -3.6707 H   0  0  0  0  0  0  0  0  0  0  0  0
   -7.2099    1.6060    0.1975 H   0  0  0  0  0  0  0  0  0  0  0  0
   -4.8807    0.4739    0.5646 H   0  0  0  0  0  0  0  0  0  0  0  0
  1  2  2  0
  2  3  1  0
  3  4  1  0
  4  5  1  0
  5  6  1  0
  6  7  1  0
  7  8  1  0
  8  9  1  0
  9 10  1  0
 10 11  2  0
 11 12  1  0
 12 13  1  0
 12 14  2  0
 14 15  1  0
  8 16  1  0
  2 17  1  0
 17 18  2  0
 18 19  1  0
 19 20  1  0
 20 21  2  0
 16  5  1  0
 21 17  1  0
 15  9  2  0
  3 22  1  0
  4 23  1  0
  4 24  1  0
  5 25  1  0
  6 26  1  0
  6 27  1  0
  7 28  1  0
  7 29  1  0
 10 30  1  0
 11 31  1  0
 14 32  1  0
 15 33  1  0
 16 34  1  0
 16 35  1  0
 18 36  1  0
 20 37  1  0
 21 38  1  0
M  END
$$$$
OCNT-2312226
     RDKit          3D

 47 50  0  0  0  0  0  0  0  0999 V2000
   -1.8883    2.5483    0.6002 C   0  0  0  0  0  0  0  0  0  0  0  0
   -2.0475    1.7601   -0.7177 C   0  0  0  0  0  0  0  0  0  0  0  0
   -3.4851    1.9882   -1.2328 C   0  0  0  0  0  0  0  0  0  0  0  0
   -1.0711    2.3431   -1.7820 C   0  0  0  0  0  0  0  0  0  0  0  0
    0.3324    1.8954   -1.5836 C   0  0  0  0  0  0  0  0  0  0  0  0
    1.4305    2.4318   -2.0655 N   0  0  0  0  0  0  0  0  0  0  0  0
    2.4924    1.6645   -1.6494 N   0  0  0  0  0  0  0  0  0  0  0  0
    2.0258    0.6711   -0.9205 C   0  0  0  0  0  0  0  0  0  0  0  0
    2.8136   -0.3965   -0.2492 C   0  0  0  0  0  0  0  0  0  0  0  0
    4.3159   -0.2049   -0.4453 C   0  0  0  0  0  0  0  0  0  0  0  0
    5.0737   -1.2382    0.2322 N   0  0  0  0  0  0  0  0  0  0  0  0
    5.4435   -2.4453   -0.2896 C   0  0  0  0  0  0  0  0  0  0  0  0
    6.1140   -3.0790    0.7307 C   0  0  0  0  0  0  0  0  0  0  0  0
    6.1586   -2.2869    1.8492 N   0  0  0  0  0  0  0  0  0  0  0  0
    5.5372   -1.1785    1.5147 C   0  0  0  0  0  0  0  0  0  0  0  0
    0.6637    0.7811   -0.8659 N   0  0  0  0  0  0  0  0  0  0  0  0
   -0.2783   -0.0395   -0.1379 C   0  0  0  0  0  0  0  0  0  0  0  0
   -1.7404    0.2245   -0.5652 C   0  0  0  0  0  0  0  0  0  0  0  0
   -2.7218   -0.5657    0.2913 C   0  0  0  0  0  0  0  0  0  0  0  0
   -2.6969   -0.5343    1.6937 C   0  0  0  0  0  0  0  0  0  0  0  0
   -3.6120   -1.2784    2.4426 C   0  0  0  0  0  0  0  0  0  0  0  0
   -4.5656   -2.0650    1.8025 C   0  0  0  0  0  0  0  0  0  0  0  0
   -4.6068   -2.1073    0.4123 C   0  0  0  0  0  0  0  0  0  0  0  0
   -3.6930   -1.3640   -0.3373 C   0  0  0  0  0  0  0  0  0  0  0  0
   -2.0221    3.6231    0.4285 H   0  0  0  0  0  0  0  0  0  0  0  0
   -2.6390    2.2540    1.3400 H   0  0  0  0  0  0  0  0  0  0  0  0
   -0.9003    2.4149    1.0506 H   0  0  0  0  0  0  0  0  0  0  0  0
   -4.2342    1.6846   -0.4939 H   0  0  0  0  0  0  0  0  0  0  0  0
   -3.6588    3.0477   -1.4541 H   0  0  0  0  0  0  0  0  0  0  0  0
   -3.6711    1.4237   -2.1534 H   0  0  0  0  0  0  0  0  0  0  0  0
   -1.1105    3.4393   -1.7824 H   0  0  0  0  0  0  0  0  0  0  0  0
   -1.3793    2.0192   -2.7850 H   0  0  0  0  0  0  0  0  0  0  0  0
    2.5774   -0.4008    0.8223 H   0  0  0  0  0  0  0  0  0  0  0  0
    2.5102   -1.3732   -0.6465 H   0  0  0  0  0  0  0  0  0  0  0  0
    4.5883   -0.2398   -1.5072 H   0  0  0  0  0  0  0  0  0  0  0  0
    4.6511    0.7620   -0.0507 H   0  0  0  0  0  0  0  0  0  0  0  0
    5.2122   -2.7456   -1.3020 H   0  0  0  0  0  0  0  0  0  0  0  0
    6.5671   -4.0619    0.7197 H   0  0  0  0  0  0  0  0  0  0  0  0
    5.3939   -0.3188    2.1567 H   0  0  0  0  0  0  0  0  0  0  0  0
   -0.0171   -1.0888   -0.3194 H   0  0  0  0  0  0  0  0  0  0  0  0
   -0.1069    0.1718    0.9230 H   0  0  0  0  0  0  0  0  0  0  0  0
   -1.8181   -0.1946   -1.5820 H   0  0  0  0  0  0  0  0  0  0  0  0
   -1.9739    0.0735    2.2318 H   0  0  0  0  0  0  0  0  0  0  0  0
   -3.5821   -1.2414    3.5289 H   0  0  0  0  0  0  0  0  0  0  0  0
   -5.2776   -2.6421    2.3868 H   0  0  0  0  0  0  0  0  0  0  0  0
   -5.3524   -2.7183   -0.0904 H   0  0  0  0  0  0  0  0  0  0  0  0
   -3.7513   -1.4134   -1.4230 H   0  0  0  0  0  0  0  0  0  0  0  0
  1  2  1  0
  2  3  1  0
  2  4  1  0
  4  5  1  0
  5  6  2  0
  6  7  1  0
  7  8  2  0
  8  9  1  0
  9 10  1  0
 10 11  1  0
 11 12  1  0
 12 13  2  0
 13 14  1  0
 14 15  2  0
  8 16  1  0
 16 17  1  0
 17 18  1  0
 18 19  1  0
 19 20  2  0
 20 21  1  0
 21 22  2  0
 22 23  1  0
 23 24  2  0
 18  2  1  0
 24 19  1  0
 16  5  1  0
 15 11  1  0
  1 25  1  0
  1 26  1  0
  1 27  1  0
  3 28  1  0
  3 29  1  0
  3 30  1  0
  4 31  1  0
  4 32  1  0
  9 33  1  0
  9 34  1  0
 10 35  1  0
 10 36  1  0
 12 37  1  0
 13 38  1  0
 15 39  1  0
 17 40  1  0
 17 41  1  0
 18 42  1  0
 20 43  1  0
 21 44  1  0
 22 45  1  0
 23 46  1  0
 24 47  1  0
M  END
$$$$
OCNT-2312229
     RDKit          3D

 51 52  0  0  0  0  0  0  0  0999 V2000
    6.5705   -1.9128   -1.0843 C   0  0  0  0  0  0  0  0  0  0  0  0
    6.0205   -0.5913   -0.9074 N   0  0  0  0  0  0  0  0  0  0  0  0
    5.4908   -0.1965    0.3042 C   0  0  0  0  0  0  0  0  0  0  0  0
    5.4750   -0.9505    1.2751 O   0  0  0  0  0  0  0  0  0  0  0  0
    4.8731    1.2143    0.3394 C   0  0  0  0  0  0  0  0  0  0  0  0
    4.5518    1.5997    1.7961 C   0  0  0  0  0  0  0  0  0  0  0  0
    5.8862    2.2422   -0.2018 C   0  0  0  0  0  0  0  0  0  0  0  0
    3.6016    1.2376   -0.5398 C   0  0  0  0  0  0  0  0  0  0  0  0
    2.5166    0.4055   -0.0471 N   0  0  0  0  0  0  0  0  0  0  0  0
    1.4637    0.9377    0.6535 C   0  0  0  0  0  0  0  0  0  0  0  0
    1.3145    2.1322    0.8685 O   0  0  0  0  0  0  0  0  0  0  0  0
    0.6094   -0.0426    1.0821 N   0  0  0  0  0  0  0  0  0  0  0  0
   -0.6225    0.2899    1.7619 C   0  0  0  0  0  0  0  0  0  0  0  0
   -1.7816    0.3290    0.7988 C   0  0  0  0  0  0  0  0  0  0  0  0
   -2.0165    1.4711    0.0189 C   0  0  0  0  0  0  0  0  0  0  0  0
   -3.0647    1.5003   -0.9030 C   0  0  0  0  0  0  0  0  0  0  0  0
   -3.8926    0.3888   -1.0542 C   0  0  0  0  0  0  0  0  0  0  0  0
   -3.6772   -0.7466   -0.2701 C   0  0  0  0  0  0  0  0  0  0  0  0
   -4.4310   -1.8920   -0.3938 O   0  0  0  0  0  0  0  0  0  0  0  0
   -5.7979   -1.7441   -0.4407 C   0  0  0  0  0  0  0  0  0  0  0  0
   -6.5027   -0.9976    0.5084 C   0  0  0  0  0  0  0  0  0  0  0  0
   -7.8958   -0.9150    0.4311 C   0  0  0  0  0  0  0  0  0  0  0  0
   -8.5854   -1.5889   -0.5800 C   0  0  0  0  0  0  0  0  0  0  0  0
   -7.8829   -2.3512   -1.5137 C   0  0  0  0  0  0  0  0  0  0  0  0
   -6.4952   -2.4300   -1.4344 C   0  0  0  0  0  0  0  0  0  0  0  0
   -5.8349   -3.1711   -2.3368 F   0  0  0  0  0  0  0  0  0  0  0  0
   -2.6149   -0.7868    0.6356 C   0  0  0  0  0  0  0  0  0  0  0  0
    7.1812   -2.1882   -0.2199 H   0  0  0  0  0  0  0  0  0  0  0  0
    5.7462   -2.6234   -1.1908 H   0  0  0  0  0  0  0  0  0  0  0  0
    7.1824   -1.9170   -1.9894 H   0  0  0  0  0  0  0  0  0  0  0  0
    5.9047   -0.0136   -1.7284 H   0  0  0  0  0  0  0  0  0  0  0  0
    3.8882    0.8735    2.2776 H   0  0  0  0  0  0  0  0  0  0  0  0
    5.4662    1.6414    2.4003 H   0  0  0  0  0  0  0  0  0  0  0  0
    4.0715    2.5832    1.8496 H   0  0  0  0  0  0  0  0  0  0  0  0
    6.8497    2.1525    0.3131 H   0  0  0  0  0  0  0  0  0  0  0  0
    5.5228    3.2667   -0.0611 H   0  0  0  0  0  0  0  0  0  0  0  0
    6.0742    2.1113   -1.2731 H   0  0  0  0  0  0  0  0  0  0  0  0
    3.2399    2.2673   -0.6488 H   0  0  0  0  0  0  0  0  0  0  0  0
    3.8201    0.8717   -1.5491 H   0  0  0  0  0  0  0  0  0  0  0  0
    2.7233   -0.5650    0.1493 H   0  0  0  0  0  0  0  0  0  0  0  0
    0.5975   -0.8826    0.5249 H   0  0  0  0  0  0  0  0  0  0  0  0
   -0.5317    1.2467    2.2888 H   0  0  0  0  0  0  0  0  0  0  0  0
   -0.7889   -0.4822    2.5212 H   0  0  0  0  0  0  0  0  0  0  0  0
   -1.3675    2.3409    0.1185 H   0  0  0  0  0  0  0  0  0  0  0  0
   -3.2264    2.3868   -1.5108 H   0  0  0  0  0  0  0  0  0  0  0  0
   -4.6901    0.4129   -1.7913 H   0  0  0  0  0  0  0  0  0  0  0  0
   -5.9773   -0.4843    1.3096 H   0  0  0  0  0  0  0  0  0  0  0  0
   -8.4438   -0.3284    1.1650 H   0  0  0  0  0  0  0  0  0  0  0  0
   -9.6694   -1.5242   -0.6356 H   0  0  0  0  0  0  0  0  0  0  0  0
   -8.4054   -2.8860   -2.3004 H   0  0  0  0  0  0  0  0  0  0  0  0
   -2.4452   -1.6915    1.2143 H   0  0  0  0  0  0  0  0  0  0  0  0
  1  2  1  0
  2  3  1  0
  3  4  2  0
  3  5  1  0
  5  6  1  0
  5  7  1  0
  5  8  1  0
  8  9  1  0
  9 10  1  0
 10 11  2  0
 10 12  1  0
 12 13  1  0
 13 14  1  0
 14 15  2  0
 15 16  1  0
 16 17  2  0
 17 18  1  0
 18 19  1  0
 19 20  1  0
 20 21  2  0
 21 22  1  0
 22 23  2  0
 23 24  1  0
 24 25  2  0
 25 26  1  0
 18 27  2  0
 27 14  1  0
 25 20  1  0
  1 28  1  0
  1 29  1  0
  1 30  1  0
  2 31  1  0
  6 32  1  0
  6 33  1  0
  6 34  1  0
  7 35  1  0
  7 36  1  0
  7 37  1  0
  8 38  1  0
  8 39  1  0
  9 40  1  0
 12 41  1  0
 13 42  1  0
 13 43  1  0
 15 44  1  0
 16 45  1  0
 17 46  1  0
 21 47  1  0
 22 48  1  0
 23 49  1  0
 24 50  1  0
 27 51  1  0
M  END
$$$$
