OCNT-2310890
     RDKit          3D

 37 39  0  0  0  0  0  0  0  0999 V2000
    1.4245   -2.0430   -0.7445 O   0  0  0  0  0  0  0  0  0  0  0  0
    1.6364   -1.5280    0.3445 C   0  0  0  0  0  0  0  0  0  0  0  0
    0.7370   -1.5978    1.3889 N   0  0  0  0  0  0  0  0  0  0  0  0
   -0.5511   -2.2372    1.2139 C   0  0  0  0  0  0  0  0  0  0  0  0
   -1.6126   -1.2439    0.8377 C   0  0  0  0  0  0  0  0  0  0  0  0
   -1.7297   -0.7579   -0.4661 C   0  0  0  0  0  0  0  0  0  0  0  0
   -2.7141    0.1803   -0.7798 C   0  0  0  0  0  0  0  0  0  0  0  0
   -3.5642    0.6170    0.2318 C   0  0  0  0  0  0  0  0  0  0  0  0
   -4.5817    1.5741   -0.0396 N   0  0  0  0  0  0  0  0  0  0  0  0
   -5.4774    2.0775    0.8812 C   0  0  0  0  0  0  0  0  0  0  0  0
   -6.2697    2.9647    0.1950 C   0  0  0  0  0  0  0  0  0  0  0  0
   -5.8971    3.0299   -1.1190 N   0  0  0  0  0  0  0  0  0  0  0  0
   -4.8897    2.1901   -1.2311 C   0  0  0  0  0  0  0  0  0  0  0  0
   -3.4661    0.1612    1.5091 N   0  0  0  0  0  0  0  0  0  0  0  0
   -2.5045   -0.7499    1.7794 C   0  0  0  0  0  0  0  0  0  0  0  0
    2.7664   -0.8332    0.7184 N   0  0  0  0  0  0  0  0  0  0  0  0
    3.8680   -0.4886   -0.0922 C   0  0  0  0  0  0  0  0  0  0  0  0
    4.9728    0.0963    0.5415 C   0  0  0  0  0  0  0  0  0  0  0  0
    6.0965    0.4711   -0.2003 C   0  0  0  0  0  0  0  0  0  0  0  0
    7.4434    1.1846    0.5988 Cl  0  0  0  0  0  0  0  0  0  0  0  0
    6.1354    0.2749   -1.5743 C   0  0  0  0  0  0  0  0  0  0  0  0
    5.0363   -0.2990   -2.1967 C   0  0  0  0  0  0  0  0  0  0  0  0
    5.0610   -0.4867   -3.5229 F   0  0  0  0  0  0  0  0  0  0  0  0
    3.9071   -0.6799   -1.4740 C   0  0  0  0  0  0  0  0  0  0  0  0
    0.7696   -0.8408    2.0543 H   0  0  0  0  0  0  0  0  0  0  0  0
   -0.4910   -3.0319    0.4615 H   0  0  0  0  0  0  0  0  0  0  0  0
   -0.7991   -2.7159    2.1678 H   0  0  0  0  0  0  0  0  0  0  0  0
   -1.0524   -1.1075   -1.2446 H   0  0  0  0  0  0  0  0  0  0  0  0
   -2.7784    0.5356   -1.8014 H   0  0  0  0  0  0  0  0  0  0  0  0
   -5.4667    1.7630    1.9153 H   0  0  0  0  0  0  0  0  0  0  0  0
   -7.0885    3.5590    0.5799 H   0  0  0  0  0  0  0  0  0  0  0  0
   -4.3595    2.0017   -2.1536 H   0  0  0  0  0  0  0  0  0  0  0  0
   -2.4751   -1.0777    2.8156 H   0  0  0  0  0  0  0  0  0  0  0  0
    2.8632   -0.6694    1.7095 H   0  0  0  0  0  0  0  0  0  0  0  0
    4.9706    0.2630    1.6156 H   0  0  0  0  0  0  0  0  0  0  0  0
    6.9992    0.5607   -2.1648 H   0  0  0  0  0  0  0  0  0  0  0  0
    3.0813   -1.1162   -2.0253 H   0  0  0  0  0  0  0  0  0  0  0  0
  1  2  2  0
  2  3  1  0
  3  4  1  0
  4  5  1  0
  5  6  2  0
  6  7  1  0
  7  8  2  0
  8  9  1  0
  9 10  1  0
 10 11  2  0
 11 12  1  0
 12 13  2  0
  8 14  1  0
 14 15  2  0
  2 16  1  0
 16 17  1  0
 17 18  1  0
 18 19  2  0
 19 20  1  0
 19 21  1  0
 21 22  2  0
 22 23  1  0
 22 24  1  0
 15  5  1  0
 24 17  2  0
 13  9  1  0
  3 25  1  0
  4 26  1  0
  4 27  1  0
  6 28  1  0
  7 29  1  0
 10 30  1  0
 11 31  1  0
 13 32  1  0
 15 33  1  0
 16 34  1  0
 18 35  1  0
 21 36  1  0
 24 37  1  0
M  END
$$$$
OCNT-2310909
     RDKit          3D

 43 44  0  0  0  0  0  0  0  0999 V2000
    1.9317   -1.9260   -1.4707 C   0  0  0  0  0  0  0  0  0  0  0  0
    2.1097   -0.6956   -0.6849 N   0  0  0  0  0  0  0  0  0  0  0  0
    2.2055    0.4475   -1.6068 C   0  0  0  0  0  0  0  0  0  0  0  0
    3.3419   -0.7683    0.1462 C   0  0  0  0  0  0  0  0  0  0  0  0
    3.1788   -1.6243    1.4122 C   0  0  0  0  0  0  0  0  0  0  0  0
    2.6718   -0.8917    2.5607 N   0  0  0  0  0  0  0  0  0  0  0  0
    3.4077   -0.8941    3.6951 N   0  0  0  0  0  0  0  0  0  0  0  0
    2.6437   -0.2362    4.5681 C   0  0  0  0  0  0  0  0  0  0  0  0
    1.4300    0.1901    4.0046 C   0  0  0  0  0  0  0  0  0  0  0  0
    1.4688   -0.2309    2.6933 C   0  0  0  0  0  0  0  0  0  0  0  0
    0.5715   -0.0810    1.6493 N   0  0  0  0  0  0  0  0  0  0  0  0
   -0.6012    0.6437    1.7573 C   0  0  0  0  0  0  0  0  0  0  0  0
   -1.0145    1.2323    2.7505 O   0  0  0  0  0  0  0  0  0  0  0  0
   -1.4022    0.7243    0.5042 C   0  0  0  0  0  0  0  0  0  0  0  0
   -1.5067   -0.3609   -0.3736 C   0  0  0  0  0  0  0  0  0  0  0  0
   -2.2660   -0.2449   -1.5412 C   0  0  0  0  0  0  0  0  0  0  0  0
   -2.9366    0.9512   -1.8420 C   0  0  0  0  0  0  0  0  0  0  0  0
   -3.7706    1.0701   -3.1005 C   0  0  0  0  0  0  0  0  0  0  0  0
   -5.2219    0.6975   -2.8419 C   0  0  0  0  0  0  0  0  0  0  0  0
   -3.3078    0.2660   -4.1033 F   0  0  0  0  0  0  0  0  0  0  0  0
   -3.7494    2.3340   -3.6164 F   0  0  0  0  0  0  0  0  0  0  0  0
   -2.8402    2.0280   -0.9471 C   0  0  0  0  0  0  0  0  0  0  0  0
   -2.0834    1.9133    0.2213 C   0  0  0  0  0  0  0  0  0  0  0  0
    1.8061   -2.7962   -0.8194 H   0  0  0  0  0  0  0  0  0  0  0  0
    2.7768   -2.1155   -2.1423 H   0  0  0  0  0  0  0  0  0  0  0  0
    1.0206   -1.8618   -2.0763 H   0  0  0  0  0  0  0  0  0  0  0  0
    3.0710    0.3693   -2.2744 H   0  0  0  0  0  0  0  0  0  0  0  0
    2.2819    1.3852   -1.0454 H   0  0  0  0  0  0  0  0  0  0  0  0
    1.2994    0.5240   -2.2182 H   0  0  0  0  0  0  0  0  0  0  0  0
    3.6445    0.2422    0.4521 H   0  0  0  0  0  0  0  0  0  0  0  0
    4.1665   -1.1685   -0.4582 H   0  0  0  0  0  0  0  0  0  0  0  0
    4.1631   -2.0195    1.6933 H   0  0  0  0  0  0  0  0  0  0  0  0
    2.5197   -2.4865    1.2685 H   0  0  0  0  0  0  0  0  0  0  0  0
    3.0014   -0.0940    5.5796 H   0  0  0  0  0  0  0  0  0  0  0  0
    0.6394    0.7426    4.4918 H   0  0  0  0  0  0  0  0  0  0  0  0
    0.8708   -0.3945    0.7236 H   0  0  0  0  0  0  0  0  0  0  0  0
   -1.0185   -1.3063   -0.1528 H   0  0  0  0  0  0  0  0  0  0  0  0
   -2.3356   -1.0947   -2.2188 H   0  0  0  0  0  0  0  0  0  0  0  0
   -5.8011    0.7885   -3.7669 H   0  0  0  0  0  0  0  0  0  0  0  0
   -5.6794    1.3595   -2.0994 H   0  0  0  0  0  0  0  0  0  0  0  0
   -5.3131   -0.3372   -2.4953 H   0  0  0  0  0  0  0  0  0  0  0  0
   -3.3541    2.9649   -1.1580 H   0  0  0  0  0  0  0  0  0  0  0  0
   -2.0198    2.7544    0.9097 H   0  0  0  0  0  0  0  0  0  0  0  0
  1  2  1  0
  2  3  1  0
  2  4  1  0
  4  5  1  0
  5  6  1  0
  6  7  1  0
  7  8  2  0
  8  9  1  0
  9 10  2  0
 10 11  1  0
 11 12  1  0
 12 13  2  0
 12 14  1  0
 14 15  1  0
 15 16  2  0
 16 17  1  0
 17 18  1  0
 18 19  1  0
 18 20  1  0
 18 21  1  0
 17 22  2  0
 22 23  1  0
 10  6  1  0
 23 14  2  0
  1 24  1  0
  1 25  1  0
  1 26  1  0
  3 27  1  0
  3 28  1  0
  3 29  1  0
  4 30  1  0
  4 31  1  0
  5 32  1  0
  5 33  1  0
  8 34  1  0
  9 35  1  0
 11 36  1  0
 15 37  1  0
 16 38  1  0
 19 39  1  0
 19 40  1  0
 19 41  1  0
 22 42  1  0
 23 43  1  0
M  END
$$$$
OCNT-2310913
     RDKit          3D

 45 48  0  0  0  0  0  0  0  0999 V2000
    0.9265    1.0890    2.7061 O   0  0  0  0  0  0  0  0  0  0  0  0
    0.7883    0.3179    1.7647 C   0  0  0  0  0  0  0  0  0  0  0  0
   -0.3935   -0.2205    1.2998 N   0  0  0  0  0  0  0  0  0  0  0  0
   -1.6320    0.1065    1.7992 C   0  0  0  0  0  0  0  0  0  0  0  0
   -2.8126   -0.4648    1.3893 C   0  0  0  0  0  0  0  0  0  0  0  0
   -3.7598    0.1828    2.1304 N   0  0  0  0  0  0  0  0  0  0  0  0
   -5.1953   -0.0310    2.1438 C   0  0  0  0  0  0  0  0  0  0  0  0
   -5.8139    0.2002    0.7871 C   0  0  0  0  0  0  0  0  0  0  0  0
   -5.8452    1.4874    0.2286 C   0  0  0  0  0  0  0  0  0  0  0  0
   -6.4153    1.7000   -1.0270 C   0  0  0  0  0  0  0  0  0  0  0  0
   -6.9609    0.6319   -1.7362 C   0  0  0  0  0  0  0  0  0  0  0  0
   -6.9377   -0.6506   -1.1910 C   0  0  0  0  0  0  0  0  0  0  0  0
   -6.3685   -0.8671    0.0646 C   0  0  0  0  0  0  0  0  0  0  0  0
   -3.2003    1.0794    2.9616 N   0  0  0  0  0  0  0  0  0  0  0  0
   -1.8885    1.0423    2.7585 N   0  0  0  0  0  0  0  0  0  0  0  0
    2.0106   -0.1515    1.0509 C   0  0  0  0  0  0  0  0  0  0  0  0
    2.0088   -0.4265   -0.3217 C   0  0  0  0  0  0  0  0  0  0  0  0
    3.1770   -0.8721   -0.9477 C   0  0  0  0  0  0  0  0  0  0  0  0
    4.3645   -1.0359   -0.2165 C   0  0  0  0  0  0  0  0  0  0  0  0
    5.6273   -1.5163   -0.8899 C   0  0  0  0  0  0  0  0  0  0  0  0
    6.1695   -0.5205   -1.7958 N   0  0  0  0  0  0  0  0  0  0  0  0
    6.9006    0.5829   -1.4501 C   0  0  0  0  0  0  0  0  0  0  0  0
    7.2230    1.1810   -2.6457 C   0  0  0  0  0  0  0  0  0  0  0  0
    6.7190    0.4647   -3.7004 N   0  0  0  0  0  0  0  0  0  0  0  0
    6.0939   -0.5561   -3.1590 C   0  0  0  0  0  0  0  0  0  0  0  0
    4.3625   -0.7370    1.1539 C   0  0  0  0  0  0  0  0  0  0  0  0
    3.1956   -0.2940    1.7815 C   0  0  0  0  0  0  0  0  0  0  0  0
   -0.3748   -0.9398    0.5938 H   0  0  0  0  0  0  0  0  0  0  0  0
   -3.0590   -1.2256    0.6646 H   0  0  0  0  0  0  0  0  0  0  0  0
   -5.3568   -1.0580    2.4916 H   0  0  0  0  0  0  0  0  0  0  0  0
   -5.6457    0.6445    2.8805 H   0  0  0  0  0  0  0  0  0  0  0  0
   -5.4214    2.3339    0.7680 H   0  0  0  0  0  0  0  0  0  0  0  0
   -6.4341    2.7009   -1.4518 H   0  0  0  0  0  0  0  0  0  0  0  0
   -7.4066    0.7998   -2.7133 H   0  0  0  0  0  0  0  0  0  0  0  0
   -7.3666   -1.4822   -1.7446 H   0  0  0  0  0  0  0  0  0  0  0  0
   -6.3640   -1.8759    0.4724 H   0  0  0  0  0  0  0  0  0  0  0  0
    1.1205   -0.2663   -0.9268 H   0  0  0  0  0  0  0  0  0  0  0  0
    3.1569   -1.0714   -2.0179 H   0  0  0  0  0  0  0  0  0  0  0  0
    6.4106   -1.7499   -0.1594 H   0  0  0  0  0  0  0  0  0  0  0  0
    5.4282   -2.4320   -1.4568 H   0  0  0  0  0  0  0  0  0  0  0  0
    7.1174    0.8481   -0.4245 H   0  0  0  0  0  0  0  0  0  0  0  0
    7.7933    2.0872   -2.8020 H   0  0  0  0  0  0  0  0  0  0  0  0
    5.5782   -1.3367   -3.7043 H   0  0  0  0  0  0  0  0  0  0  0  0
    5.2697   -0.8384    1.7470 H   0  0  0  0  0  0  0  0  0  0  0  0
    3.2109   -0.0578    2.8446 H   0  0  0  0  0  0  0  0  0  0  0  0
  1  2  2  0
  2  3  1  0
  3  4  1  0
  4  5  2  0
  5  6  1  0
  6  7  1  0
  7  8  1  0
  8  9  2  0
  9 10  1  0
 10 11  2  0
 11 12  1  0
 12 13  2  0
  6 14  1  0
 14 15  2  0
  2 16  1  0
 16 17  1  0
 17 18  2  0
 18 19  1  0
 19 20  1  0
 20 21  1  0
 21 22  1  0
 22 23  2  0
 23 24  1  0
 24 25  2  0
 19 26  2  0
 26 27  1  0
 15  4  1  0
 27 16  2  0
 13  8  1  0
 25 21  1  0
  3 28  1  0
  5 29  1  0
  7 30  1  0
  7 31  1  0
  9 32  1  0
 10 33  1  0
 11 34  1  0
 12 35  1  0
 13 36  1  0
 17 37  1  0
 18 38  1  0
 20 39  1  0
 20 40  1  0
 22 41  1  0
 23 42  1  0
 25 43  1  0
 26 44  1  0
 27 45  1  0
M  END
$$$$
OCNT-2310916
     RDKit          3D

 47 50  0  0  0  0  0  0  0  0999 V2000
   -4.6565    1.0257   -2.2056 C   0  0  0  0  0  0  0  0  0  0  0  0
   -4.2289    0.3578   -0.9030 C   0  0  0  0  0  0  0  0  0  0  0  0
   -5.1758   -0.6638   -0.6191 O   0  0  0  0  0  0  0  0  0  0  0  0
   -4.7702   -1.4709    0.4111 C   0  0  0  0  0  0  0  0  0  0  0  0
   -5.7882   -2.0991    1.1310 C   0  0  0  0  0  0  0  0  0  0  0  0
   -5.4695   -2.9556    2.1812 C   0  0  0  0  0  0  0  0  0  0  0  0
   -4.1331   -3.1878    2.5025 C   0  0  0  0  0  0  0  0  0  0  0  0
   -3.1135   -2.5784    1.7634 C   0  0  0  0  0  0  0  0  0  0  0  0
   -3.4200   -1.7188    0.7001 C   0  0  0  0  0  0  0  0  0  0  0  0
   -2.4205   -1.1153   -0.1097 N   0  0  0  0  0  0  0  0  0  0  0  0
   -1.0327   -1.5648   -0.0656 C   0  0  0  0  0  0  0  0  0  0  0  0
   -0.2015   -0.7340    0.9110 C   0  0  0  0  0  0  0  0  0  0  0  0
    0.3652   -1.2350    1.8803 O   0  0  0  0  0  0  0  0  0  0  0  0
   -0.0972    0.6002    0.5755 N   0  0  0  0  0  0  0  0  0  0  0  0
    0.7983    1.4929    1.2701 C   0  0  0  0  0  0  0  0  0  0  0  0
    2.1627    1.4784    0.6457 C   0  0  0  0  0  0  0  0  0  0  0  0
    2.4603    2.2332   -0.4910 C   0  0  0  0  0  0  0  0  0  0  0  0
    3.7322    2.1644   -1.0629 C   0  0  0  0  0  0  0  0  0  0  0  0
    4.6822    1.3312   -0.4779 C   0  0  0  0  0  0  0  0  0  0  0  0
    5.9882    1.2195   -1.0314 N   0  0  0  0  0  0  0  0  0  0  0  0
    7.0079    0.4371   -0.5295 C   0  0  0  0  0  0  0  0  0  0  0  0
    8.0766    0.6182   -1.3733 C   0  0  0  0  0  0  0  0  0  0  0  0
    7.7564    1.4869   -2.3808 N   0  0  0  0  0  0  0  0  0  0  0  0
    6.5070    1.8325   -2.1504 C   0  0  0  0  0  0  0  0  0  0  0  0
    4.4125    0.5854    0.6255 N   0  0  0  0  0  0  0  0  0  0  0  0
    3.1691    0.6659    1.1517 C   0  0  0  0  0  0  0  0  0  0  0  0
   -2.7624   -0.0900   -0.9842 C   0  0  0  0  0  0  0  0  0  0  0  0
   -1.9222    0.4933   -1.6740 O   0  0  0  0  0  0  0  0  0  0  0  0
   -4.0126    1.8751   -2.4590 H   0  0  0  0  0  0  0  0  0  0  0  0
   -4.6234    0.3106   -3.0361 H   0  0  0  0  0  0  0  0  0  0  0  0
   -5.6896    1.3818   -2.1328 H   0  0  0  0  0  0  0  0  0  0  0  0
   -4.2854    1.1091   -0.1020 H   0  0  0  0  0  0  0  0  0  0  0  0
   -6.8274   -1.9160    0.8759 H   0  0  0  0  0  0  0  0  0  0  0  0
   -6.2598   -3.4382    2.7513 H   0  0  0  0  0  0  0  0  0  0  0  0
   -3.8804   -3.8492    3.3281 H   0  0  0  0  0  0  0  0  0  0  0  0
   -2.0888   -2.7821    2.0610 H   0  0  0  0  0  0  0  0  0  0  0  0
   -0.9668   -2.6280    0.1847 H   0  0  0  0  0  0  0  0  0  0  0  0
   -0.5805   -1.4590   -1.0601 H   0  0  0  0  0  0  0  0  0  0  0  0
   -0.4518    0.8836   -0.3371 H   0  0  0  0  0  0  0  0  0  0  0  0
    0.3694    2.5009    1.2155 H   0  0  0  0  0  0  0  0  0  0  0  0
    0.8533    1.2219    2.3312 H   0  0  0  0  0  0  0  0  0  0  0  0
    1.7038    2.8729   -0.9411 H   0  0  0  0  0  0  0  0  0  0  0  0
    3.9348    2.7597   -1.9455 H   0  0  0  0  0  0  0  0  0  0  0  0
    6.8777   -0.1640    0.3604 H   0  0  0  0  0  0  0  0  0  0  0  0
    9.0579    0.1655   -1.3073 H   0  0  0  0  0  0  0  0  0  0  0  0
    5.9451    2.5188   -2.7695 H   0  0  0  0  0  0  0  0  0  0  0  0
    2.9980    0.0278    2.0172 H   0  0  0  0  0  0  0  0  0  0  0  0
  1  2  1  0
  2  3  1  0
  3  4  1  0
  4  5  2  0
  5  6  1  0
  6  7  2  0
  7  8  1  0
  8  9  2  0
  9 10  1  0
 10 11  1  0
 11 12  1  0
 12 13  2  0
 12 14  1  0
 14 15  1  0
 15 16  1  0
 16 17  2  0
 17 18  1  0
 18 19  2  0
 19 20  1  0
 20 21  1  0
 21 22  2  0
 22 23  1  0
 23 24  2  0
 19 25  1  0
 25 26  2  0
 10 27  1  0
 27 28  2  0
 27  2  1  0
  9  4  1  0
 26 16  1  0
 24 20  1  0
  1 29  1  0
  1 30  1  0
  1 31  1  0
  2 32  1  0
  5 33  1  0
  6 34  1  0
  7 35  1  0
  8 36  1  0
 11 37  1  0
 11 38  1  0
 14 39  1  0
 15 40  1  0
 15 41  1  0
 17 42  1  0
 18 43  1  0
 21 44  1  0
 22 45  1  0
 24 46  1  0
 26 47  1  0
M  END
$$$$
OCNT-2310919
     RDKit          3D

 35 37  0  0  0  0  0  0  0  0999 V2000
    0.6929   -2.2552   -0.3793 C   0  0  0  0  0  0  0  0  0  0  0  0
   -0.2725   -1.1329   -0.2850 C   0  0  0  0  0  0  0  0  0  0  0  0
   -1.5699   -1.1994    0.1773 C   0  0  0  0  0  0  0  0  0  0  0  0
   -2.1296    0.0585    0.0622 N   0  0  0  0  0  0  0  0  0  0  0  0
   -3.4708    0.4396    0.3804 C   0  0  0  0  0  0  0  0  0  0  0  0
   -4.4269   -0.5784    0.5919 C   0  0  0  0  0  0  0  0  0  0  0  0
   -5.7604   -0.2738    0.8815 C   0  0  0  0  0  0  0  0  0  0  0  0
   -6.1676    1.0498    0.9677 C   0  0  0  0  0  0  0  0  0  0  0  0
   -5.2382    2.0682    0.7696 C   0  0  0  0  0  0  0  0  0  0  0  0
   -3.8929    1.7798    0.4796 C   0  0  0  0  0  0  0  0  0  0  0  0
   -2.8753    3.1752    0.3545 Cl  0  0  0  0  0  0  0  0  0  0  0  0
   -1.2331    0.9232   -0.4479 N   0  0  0  0  0  0  0  0  0  0  0  0
   -0.1037    0.2317   -0.6619 C   0  0  0  0  0  0  0  0  0  0  0  0
    1.0898    0.8995   -1.2187 C   0  0  0  0  0  0  0  0  0  0  0  0
    1.0402    1.8174   -2.0343 O   0  0  0  0  0  0  0  0  0  0  0  0
    2.2891    0.4287   -0.7340 N   0  0  0  0  0  0  0  0  0  0  0  0
    3.5294    1.0870   -1.0740 C   0  0  0  0  0  0  0  0  0  0  0  0
    4.6631    0.3436   -0.4317 C   0  0  0  0  0  0  0  0  0  0  0  0
    4.5226   -0.5804    0.5037 N   0  0  0  0  0  0  0  0  0  0  0  0
    5.7659   -1.0510    0.8785 C   0  0  0  0  0  0  0  0  0  0  0  0
    6.8394   -0.4825    0.2288 C   0  0  0  0  0  0  0  0  0  0  0  0
    6.2847    0.6867   -0.8937 S   0  0  0  0  0  0  0  0  0  0  0  0
    0.1747   -3.2199   -0.3641 H   0  0  0  0  0  0  0  0  0  0  0  0
    1.2662   -2.2039   -1.3102 H   0  0  0  0  0  0  0  0  0  0  0  0
    1.3892   -2.2342    0.4647 H   0  0  0  0  0  0  0  0  0  0  0  0
   -2.1163   -2.0371    0.5817 H   0  0  0  0  0  0  0  0  0  0  0  0
   -4.1761   -1.6319    0.5071 H   0  0  0  0  0  0  0  0  0  0  0  0
   -6.4813   -1.0746    1.0306 H   0  0  0  0  0  0  0  0  0  0  0  0
   -7.2034    1.2928    1.1906 H   0  0  0  0  0  0  0  0  0  0  0  0
   -5.5674    3.1026    0.8515 H   0  0  0  0  0  0  0  0  0  0  0  0
    2.2981   -0.1435    0.1017 H   0  0  0  0  0  0  0  0  0  0  0  0
    3.4869    2.1165   -0.7022 H   0  0  0  0  0  0  0  0  0  0  0  0
    3.6263    1.1068   -2.1649 H   0  0  0  0  0  0  0  0  0  0  0  0
    5.8351   -1.8180    1.6404 H   0  0  0  0  0  0  0  0  0  0  0  0
    7.8918   -0.6908    0.3573 H   0  0  0  0  0  0  0  0  0  0  0  0
  1  2  1  0
  2  3  2  0
  3  4  1  0
  4  5  1  0
  5  6  2  0
  6  7  1  0
  7  8  2  0
  8  9  1  0
  9 10  2  0
 10 11  1  0
  4 12  1  0
 12 13  2  0
 13 14  1  0
 14 15  2  0
 14 16  1  0
 16 17  1  0
 17 18  1  0
 18 19  2  0
 19 20  1  0
 20 21  2  0
 21 22  1  0
 13  2  1  0
 22 18  1  0
 10  5  1  0
  1 23  1  0
  1 24  1  0
  1 25  1  0
  3 26  1  0
  6 27  1  0
  7 28  1  0
  8 29  1  0
  9 30  1  0
 16 31  1  0
 17 32  1  0
 17 33  1  0
 20 34  1  0
 21 35  1  0
M  END
$$$$
OCNT-2310920
     RDKit          3D

 43 44  0  0  0  0  0  0  0  0999 V2000
    5.1169   -1.6748    0.5262 C   0  0  0  0  0  0  0  0  0  0  0  0
    4.3251   -0.4321    0.4448 C   0  0  0  0  0  0  0  0  0  0  0  0
    4.7112    0.8084    0.6522 N   0  0  0  0  0  0  0  0  0  0  0  0
    3.5712    1.5534    0.4416 C   0  0  0  0  0  0  0  0  0  0  0  0
    3.5805    3.0252    0.5801 C   0  0  0  0  0  0  0  0  0  0  0  0
    2.5227    0.7184    0.1085 C   0  0  0  0  0  0  0  0  0  0  0  0
    1.1374    0.9734   -0.2078 C   0  0  0  0  0  0  0  0  0  0  0  0
    0.6561    2.1003   -0.2434 O   0  0  0  0  0  0  0  0  0  0  0  0
    0.4168   -0.1752   -0.4704 N   0  0  0  0  0  0  0  0  0  0  0  0
   -0.9997   -0.2299   -0.9042 C   0  0  0  0  0  0  0  0  0  0  0  0
   -1.0753    0.5243   -2.2602 C   0  0  0  0  0  0  0  0  0  0  0  0
   -1.9251    0.3811    0.1717 C   0  0  0  0  0  0  0  0  0  0  0  0
   -1.6270    0.2408    1.5436 C   0  0  0  0  0  0  0  0  0  0  0  0
   -2.4576    0.7761    2.5331 C   0  0  0  0  0  0  0  0  0  0  0  0
   -3.6089    1.4627    2.1680 C   0  0  0  0  0  0  0  0  0  0  0  0
   -4.7365    2.1867    3.5003 Br  0  0  0  0  0  0  0  0  0  0  0  0
   -3.9349    1.6166    0.8254 C   0  0  0  0  0  0  0  0  0  0  0  0
   -3.1005    1.0797   -0.1620 C   0  0  0  0  0  0  0  0  0  0  0  0
   -1.3642   -1.7538   -1.1560 C   0  0  0  0  0  0  0  0  0  0  0  0
   -1.2057   -2.6598    0.0785 C   0  0  0  0  0  0  0  0  0  0  0  0
   -2.7629   -1.9952   -1.7456 C   0  0  0  0  0  0  0  0  0  0  0  0
    3.0069   -0.5701    0.1084 O   0  0  0  0  0  0  0  0  0  0  0  0
    4.6964   -2.3478    1.2791 H   0  0  0  0  0  0  0  0  0  0  0  0
    5.1206   -2.1901   -0.4388 H   0  0  0  0  0  0  0  0  0  0  0  0
    6.1527   -1.4558    0.8021 H   0  0  0  0  0  0  0  0  0  0  0  0
    3.3046    3.5024   -0.3654 H   0  0  0  0  0  0  0  0  0  0  0  0
    4.5746    3.3847    0.8635 H   0  0  0  0  0  0  0  0  0  0  0  0
    2.8726    3.3438    1.3515 H   0  0  0  0  0  0  0  0  0  0  0  0
    0.9622   -1.0272   -0.5094 H   0  0  0  0  0  0  0  0  0  0  0  0
   -0.3431    0.1192   -2.9694 H   0  0  0  0  0  0  0  0  0  0  0  0
   -0.8587    1.5923   -2.1487 H   0  0  0  0  0  0  0  0  0  0  0  0
   -2.0562    0.4593   -2.7382 H   0  0  0  0  0  0  0  0  0  0  0  0
   -0.7317   -0.2894    1.8614 H   0  0  0  0  0  0  0  0  0  0  0  0
   -2.1919    0.6530    3.5794 H   0  0  0  0  0  0  0  0  0  0  0  0
   -4.8328    2.1539    0.5316 H   0  0  0  0  0  0  0  0  0  0  0  0
   -3.3967    1.2227   -1.1975 H   0  0  0  0  0  0  0  0  0  0  0  0
   -0.6459   -2.1318   -1.8989 H   0  0  0  0  0  0  0  0  0  0  0  0
   -1.2984   -3.7127   -0.2124 H   0  0  0  0  0  0  0  0  0  0  0  0
   -1.9789   -2.4653    0.8281 H   0  0  0  0  0  0  0  0  0  0  0  0
   -0.2265   -2.5457    0.5519 H   0  0  0  0  0  0  0  0  0  0  0  0
   -3.5540   -1.6500   -1.0734 H   0  0  0  0  0  0  0  0  0  0  0  0
   -2.8904   -1.5056   -2.7141 H   0  0  0  0  0  0  0  0  0  0  0  0
   -2.9248   -3.0661   -1.9151 H   0  0  0  0  0  0  0  0  0  0  0  0
  1  2  1  0
  2  3  2  0
  3  4  1  0
  4  5  1  0
  4  6  2  0
  6  7  1  0
  7  8  2  0
  7  9  1  0
  9 10  1  0
 10 11  1  0
 10 12  1  0
 12 13  1  0
 13 14  2  0
 14 15  1  0
 15 16  1  0
 15 17  2  0
 17 18  1  0
 10 19  1  0
 19 20  1  0
 19 21  1  0
  6 22  1  0
 22  2  1  0
 18 12  2  0
  1 23  1  0
  1 24  1  0
  1 25  1  0
  5 26  1  0
  5 27  1  0
  5 28  1  0
  9 29  1  0
 11 30  1  0
 11 31  1  0
 11 32  1  0
 13 33  1  0
 14 34  1  0
 17 35  1  0
 18 36  1  0
 19 37  1  0
 20 38  1  0
 20 39  1  0
 20 40  1  0
 21 41  1  0
 21 42  1  0
 21 43  1  0
M  END
$$$$
OCNT-2310942
     RDKit          3D

 41 44  0  0  0  0  0  0  0  0999 V2000
   -4.5648    1.5540   -1.1600 C   0  0  0  0  0  0  0  0  0  0  0  0
   -3.3422    1.7627   -0.2630 C   0  0  0  0  0  0  0  0  0  0  0  0
   -3.6520    2.7572    0.8586 C   0  0  0  0  0  0  0  0  0  0  0  0
   -2.8231    0.4470    0.2867 C   0  0  0  0  0  0  0  0  0  0  0  0
   -3.5960   -0.3640    1.1192 C   0  0  0  0  0  0  0  0  0  0  0  0
   -3.0874   -1.5757    1.5993 C   0  0  0  0  0  0  0  0  0  0  0  0
   -1.8110   -2.0180    1.2800 C   0  0  0  0  0  0  0  0  0  0  0  0
   -1.3997   -3.1917    1.7695 N   0  0  0  0  0  0  0  0  0  0  0  0
   -0.1681   -3.5852    1.4288 C   0  0  0  0  0  0  0  0  0  0  0  0
    0.6929   -2.9143    0.6593 N   0  0  0  0  0  0  0  0  0  0  0  0
    0.2734   -1.7264    0.1834 C   0  0  0  0  0  0  0  0  0  0  0  0
    1.1749   -0.9628   -0.6207 N   0  0  0  0  0  0  0  0  0  0  0  0
    2.4244   -1.5130   -1.1197 C   0  0  0  0  0  0  0  0  0  0  0  0
    3.1586   -0.6524   -0.0974 C   0  0  0  0  0  0  0  0  0  0  0  0
    4.3221    0.0782   -0.6237 N   0  0  0  0  0  0  0  0  0  0  0  0
    4.3779    0.7993   -1.7885 C   0  0  0  0  0  0  0  0  0  0  0  0
    5.6525    1.3098   -1.8650 C   0  0  0  0  0  0  0  0  0  0  0  0
    6.2892    0.8492   -0.7001 C   0  0  0  0  0  0  0  0  0  0  0  0
    5.4835    0.1050    0.0598 N   0  0  0  0  0  0  0  0  0  0  0  0
    1.8759    0.1710   -0.0356 C   0  0  0  0  0  0  0  0  0  0  0  0
   -1.0121   -1.2160    0.4571 C   0  0  0  0  0  0  0  0  0  0  0  0
   -1.5328    0.0092   -0.0397 C   0  0  0  0  0  0  0  0  0  0  0  0
   -4.3402    0.8519   -1.9707 H   0  0  0  0  0  0  0  0  0  0  0  0
   -4.8754    2.5014   -1.6137 H   0  0  0  0  0  0  0  0  0  0  0  0
   -5.4196    1.1569   -0.6018 H   0  0  0  0  0  0  0  0  0  0  0  0
   -2.5589    2.2145   -0.8862 H   0  0  0  0  0  0  0  0  0  0  0  0
   -2.7736    2.9168    1.4939 H   0  0  0  0  0  0  0  0  0  0  0  0
   -3.9455    3.7271    0.4427 H   0  0  0  0  0  0  0  0  0  0  0  0
   -4.4692    2.4099    1.5002 H   0  0  0  0  0  0  0  0  0  0  0  0
   -4.6044   -0.0708    1.4026 H   0  0  0  0  0  0  0  0  0  0  0  0
   -3.7110   -2.1944    2.2414 H   0  0  0  0  0  0  0  0  0  0  0  0
    0.1649   -4.5414    1.8175 H   0  0  0  0  0  0  0  0  0  0  0  0
    2.5429   -2.5937   -1.0027 H   0  0  0  0  0  0  0  0  0  0  0  0
    2.5487   -1.2645   -2.1793 H   0  0  0  0  0  0  0  0  0  0  0  0
    3.3800   -1.1836    0.8378 H   0  0  0  0  0  0  0  0  0  0  0  0
    3.5302    0.8887   -2.4526 H   0  0  0  0  0  0  0  0  0  0  0  0
    6.0641    1.9282   -2.6498 H   0  0  0  0  0  0  0  0  0  0  0  0
    7.3057    1.0255   -0.3716 H   0  0  0  0  0  0  0  0  0  0  0  0
    1.7984    1.0475   -0.6874 H   0  0  0  0  0  0  0  0  0  0  0  0
    1.5428    0.4398    0.9717 H   0  0  0  0  0  0  0  0  0  0  0  0
   -0.9159    0.6174   -0.6986 H   0  0  0  0  0  0  0  0  0  0  0  0
  1  2  1  0
  2  3  1  0
  2  4  1  0
  4  5  1  0
  5  6  2  0
  6  7  1  0
  7  8  2  0
  8  9  1  0
  9 10  2  0
 10 11  1  0
 11 12  1  0
 12 13  1  0
 13 14  1  0
 14 15  1  0
 15 16  1  0
 16 17  2  0
 17 18  1  0
 18 19  2  0
 14 20  1  0
 11 21  2  0
 21 22  1  0
 22  4  2  0
 21  7  1  0
 20 12  1  0
 19 15  1  0
  1 23  1  0
  1 24  1  0
  1 25  1  0
  2 26  1  0
  3 27  1  0
  3 28  1  0
  3 29  1  0
  5 30  1  0
  6 31  1  0
  9 32  1  0
 13 33  1  0
 13 34  1  0
 14 35  1  0
 16 36  1  0
 17 37  1  0
 18 38  1  0
 20 39  1  0
 20 40  1  0
 22 41  1  0
M  END
$$$$
OCNT-2310944
     RDKit          3D

 38 41  0  0  0  0  0  0  0  0999 V2000
    4.2991   -2.4588   -0.8105 C   0  0  0  0  0  0  0  0  0  0  0  0
    5.3860   -1.6702   -0.5082 C   0  0  0  0  0  0  0  0  0  0  0  0
    4.9694   -0.3650    0.5142 S   0  0  0  0  0  0  0  0  0  0  0  0
    3.3193   -0.8348    0.5493 C   0  0  0  0  0  0  0  0  0  0  0  0
    2.3146   -0.0444    1.3476 C   0  0  0  0  0  0  0  0  0  0  0  0
    2.0241    1.2835    0.7709 N   0  0  0  0  0  0  0  0  0  0  0  0
    1.1138    2.0345    1.6757 C   0  0  0  0  0  0  0  0  0  0  0  0
   -0.3767    2.1251    1.2506 C   0  0  0  0  0  0  0  0  0  0  0  0
   -0.8036    0.8807    0.5898 N   0  0  0  0  0  0  0  0  0  0  0  0
   -2.1864    0.8057    0.3530 C   0  0  0  0  0  0  0  0  0  0  0  0
   -2.9635    1.9104    0.5262 N   0  0  0  0  0  0  0  0  0  0  0  0
   -4.2870    1.8334    0.2859 C   0  0  0  0  0  0  0  0  0  0  0  0
   -4.9964    0.7682   -0.1158 N   0  0  0  0  0  0  0  0  0  0  0  0
   -4.2118   -0.3091   -0.2500 C   0  0  0  0  0  0  0  0  0  0  0  0
   -2.8426   -0.3834   -0.0392 C   0  0  0  0  0  0  0  0  0  0  0  0
   -2.4787   -1.7434   -0.2735 C   0  0  0  0  0  0  0  0  0  0  0  0
   -3.6157   -2.4334   -0.6395 C   0  0  0  0  0  0  0  0  0  0  0  0
   -4.6604   -1.5463   -0.6234 N   0  0  0  0  0  0  0  0  0  0  0  0
   -0.0003    0.5325   -0.6026 C   0  0  0  0  0  0  0  0  0  0  0  0
    1.4020    1.1939   -0.5673 C   0  0  0  0  0  0  0  0  0  0  0  0
    3.1065   -1.9799   -0.1958 C   0  0  0  0  0  0  0  0  0  0  0  0
    4.3581   -3.3380   -1.4400 H   0  0  0  0  0  0  0  0  0  0  0  0
    6.4090   -1.7973   -0.8343 H   0  0  0  0  0  0  0  0  0  0  0  0
    1.4008   -0.6385    1.4759 H   0  0  0  0  0  0  0  0  0  0  0  0
    2.7345    0.0849    2.3550 H   0  0  0  0  0  0  0  0  0  0  0  0
    1.1637    1.6343    2.6971 H   0  0  0  0  0  0  0  0  0  0  0  0
    1.4981    3.0592    1.7554 H   0  0  0  0  0  0  0  0  0  0  0  0
   -0.9727    2.3170    2.1520 H   0  0  0  0  0  0  0  0  0  0  0  0
   -0.5060    2.9783    0.5706 H   0  0  0  0  0  0  0  0  0  0  0  0
   -4.8482    2.7507    0.4353 H   0  0  0  0  0  0  0  0  0  0  0  0
   -1.4912   -2.1722   -0.1714 H   0  0  0  0  0  0  0  0  0  0  0  0
   -3.7725   -3.4725   -0.8968 H   0  0  0  0  0  0  0  0  0  0  0  0
   -5.6265   -1.7515   -0.8327 H   0  0  0  0  0  0  0  0  0  0  0  0
    0.1286   -0.5542   -0.6395 H   0  0  0  0  0  0  0  0  0  0  0  0
   -0.4995    0.8452   -1.5293 H   0  0  0  0  0  0  0  0  0  0  0  0
    1.3123    2.2174   -0.9577 H   0  0  0  0  0  0  0  0  0  0  0  0
    2.0629    0.6902   -1.2822 H   0  0  0  0  0  0  0  0  0  0  0  0
    2.1369   -2.4523   -0.2961 H   0  0  0  0  0  0  0  0  0  0  0  0
  1  2  2  0
  2  3  1  0
  3  4  1  0
  4  5  1  0
  5  6  1  0
  6  7  1  0
  7  8  1  0
  8  9  1  0
  9 10  1  0
 10 11  1  0
 11 12  2  0
 12 13  1  0
 13 14  2  0
 14 15  1  0
 15 16  1  0
 16 17  2  0
 17 18  1  0
  9 19  1  0
 19 20  1  0
  4 21  2  0
 21  1  1  0
 20  6  1  0
 15 10  2  0
 18 14  1  0
  1 22  1  0
  2 23  1  0
  5 24  1  0
  5 25  1  0
  7 26  1  0
  7 27  1  0
  8 28  1  0
  8 29  1  0
 12 30  1  0
 16 31  1  0
 17 32  1  0
 18 33  1  0
 19 34  1  0
 19 35  1  0
 20 36  1  0
 20 37  1  0
 21 38  1  0
M  END
$$$$
OCNT-2310945
     RDKit          3D

 44 46  0  0  0  0  0  0  0  0999 V2000
    6.4511    2.1801   -1.1799 C   0  0  0  0  0  0  0  0  0  0  0  0
    5.3095    1.3846   -1.4675 O   0  0  0  0  0  0  0  0  0  0  0  0
    4.4968    1.1880   -0.3727 C   0  0  0  0  0  0  0  0  0  0  0  0
    4.8344    1.7107    0.8150 N   0  0  0  0  0  0  0  0  0  0  0  0
    3.9694    1.4675    1.8183 C   0  0  0  0  0  0  0  0  0  0  0  0
    2.8154    0.7254    1.6784 C   0  0  0  0  0  0  0  0  0  0  0  0
    1.7644    0.5369    3.0304 Cl  0  0  0  0  0  0  0  0  0  0  0  0
    2.5582    0.2094    0.4074 C   0  0  0  0  0  0  0  0  0  0  0  0
    1.4111   -0.5678    0.1629 N   0  0  0  0  0  0  0  0  0  0  0  0
    0.9037   -0.5076   -1.2270 C   0  0  0  0  0  0  0  0  0  0  0  0
   -0.0625   -1.6856   -1.5329 C   0  0  0  0  0  0  0  0  0  0  0  0
   -0.8282   -2.2125   -0.3818 N   0  0  0  0  0  0  0  0  0  0  0  0
   -1.7775   -1.2202    0.1703 C   0  0  0  0  0  0  0  0  0  0  0  0
   -2.8844   -0.8035   -0.8141 C   0  0  0  0  0  0  0  0  0  0  0  0
   -3.9154    0.0810   -0.1522 C   0  0  0  0  0  0  0  0  0  0  0  0
   -5.1059   -0.4647    0.3457 C   0  0  0  0  0  0  0  0  0  0  0  0
   -6.0495    0.3511    0.9719 C   0  0  0  0  0  0  0  0  0  0  0  0
   -5.8102    1.7172    1.1096 C   0  0  0  0  0  0  0  0  0  0  0  0
   -4.6266    2.2689    0.6228 C   0  0  0  0  0  0  0  0  0  0  0  0
   -3.6818    1.4551   -0.0039 C   0  0  0  0  0  0  0  0  0  0  0  0
    0.1340   -2.6335    0.6746 C   0  0  0  0  0  0  0  0  0  0  0  0
    1.5299   -1.9491    0.6614 C   0  0  0  0  0  0  0  0  0  0  0  0
    3.4013    0.4545   -0.6188 N   0  0  0  0  0  0  0  0  0  0  0  0
    7.0263    2.2849   -2.1051 H   0  0  0  0  0  0  0  0  0  0  0  0
    6.1645    3.1858   -0.8528 H   0  0  0  0  0  0  0  0  0  0  0  0
    7.0988    1.6954   -0.4410 H   0  0  0  0  0  0  0  0  0  0  0  0
    4.2397    1.9106    2.7725 H   0  0  0  0  0  0  0  0  0  0  0  0
    0.3675    0.4407   -1.3530 H   0  0  0  0  0  0  0  0  0  0  0  0
    1.7061   -0.5463   -1.9735 H   0  0  0  0  0  0  0  0  0  0  0  0
    0.5350   -2.5189   -1.9296 H   0  0  0  0  0  0  0  0  0  0  0  0
   -0.7236   -1.4155   -2.3637 H   0  0  0  0  0  0  0  0  0  0  0  0
   -1.2578   -0.3289    0.5436 H   0  0  0  0  0  0  0  0  0  0  0  0
   -2.2714   -1.6728    1.0413 H   0  0  0  0  0  0  0  0  0  0  0  0
   -3.3763   -1.6940   -1.2261 H   0  0  0  0  0  0  0  0  0  0  0  0
   -2.4673   -0.2602   -1.6702 H   0  0  0  0  0  0  0  0  0  0  0  0
   -5.3043   -1.5299    0.2496 H   0  0  0  0  0  0  0  0  0  0  0  0
   -6.9710   -0.0802    1.3537 H   0  0  0  0  0  0  0  0  0  0  0  0
   -6.5452    2.3514    1.5979 H   0  0  0  0  0  0  0  0  0  0  0  0
   -4.4380    3.3335    0.7326 H   0  0  0  0  0  0  0  0  0  0  0  0
   -2.7607    1.8989   -0.3749 H   0  0  0  0  0  0  0  0  0  0  0  0
    0.2945   -3.7136    0.5653 H   0  0  0  0  0  0  0  0  0  0  0  0
   -0.3104   -2.5137    1.6713 H   0  0  0  0  0  0  0  0  0  0  0  0
    2.2083   -2.5153    0.0084 H   0  0  0  0  0  0  0  0  0  0  0  0
    1.9480   -1.9978    1.6731 H   0  0  0  0  0  0  0  0  0  0  0  0
  1  2  1  0
  2  3  1  0
  3  4  2  0
  4  5  1  0
  5  6  2  0
  6  7  1  0
  6  8  1  0
  8  9  1  0
  9 10  1  0
 10 11  1  0
 11 12  1  0
 12 13  1  0
 13 14  1  0
 14 15  1  0
 15 16  2  0
 16 17  1  0
 17 18  2  0
 18 19  1  0
 19 20  2  0
 12 21  1  0
 21 22  1  0
  8 23  2  0
 23  3  1  0
 22  9  1  0
 20 15  1  0
  1 24  1  0
  1 25  1  0
  1 26  1  0
  5 27  1  0
 10 28  1  0
 10 29  1  0
 11 30  1  0
 11 31  1  0
 13 32  1  0
 13 33  1  0
 14 34  1  0
 14 35  1  0
 16 36  1  0
 17 37  1  0
 18 38  1  0
 19 39  1  0
 20 40  1  0
 21 41  1  0
 21 42  1  0
 22 43  1  0
 22 44  1  0
M  END
$$$$
OCNT-2310949
     RDKit          3D

 40 43  0  0  0  0  0  0  0  0999 V2000
   -2.4588   -1.5796    1.5248 O   0  0  0  0  0  0  0  0  0  0  0  0
   -1.7942   -1.4191    0.4967 C   0  0  0  0  0  0  0  0  0  0  0  0
   -0.6163   -2.3418    0.2274 C   0  0  0  0  0  0  0  0  0  0  0  0
    0.6792   -1.7087    0.5808 C   0  0  0  0  0  0  0  0  0  0  0  0
    1.1663   -1.3564    1.8229 C   0  0  0  0  0  0  0  0  0  0  0  0
    2.3964   -0.8248    1.5821 N   0  0  0  0  0  0  0  0  0  0  0  0
    3.3030   -0.2537    2.5563 C   0  0  0  0  0  0  0  0  0  0  0  0
    4.7209   -0.0972    2.0066 C   0  0  0  0  0  0  0  0  0  0  0  0
    4.6951    0.4945    0.5956 C   0  0  0  0  0  0  0  0  0  0  0  0
    3.9141   -0.4071   -0.3639 C   0  0  0  0  0  0  0  0  0  0  0  0
    2.6287   -0.8704    0.2314 C   0  0  0  0  0  0  0  0  0  0  0  0
    1.6020   -1.4019   -0.3987 N   0  0  0  0  0  0  0  0  0  0  0  0
   -2.0679   -0.4539   -0.4611 N   0  0  0  0  0  0  0  0  0  0  0  0
   -1.2311   -0.1357   -1.6351 C   0  0  0  0  0  0  0  0  0  0  0  0
   -1.9805    0.9142   -2.4633 C   0  0  0  0  0  0  0  0  0  0  0  0
   -3.0816    1.3120   -1.5335 C   0  0  0  0  0  0  0  0  0  0  0  0
   -4.0127    2.3244   -1.7221 C   0  0  0  0  0  0  0  0  0  0  0  0
   -4.9934    2.5046   -0.7476 C   0  0  0  0  0  0  0  0  0  0  0  0
   -5.0249    1.6726    0.3765 C   0  0  0  0  0  0  0  0  0  0  0  0
   -5.9796    1.8632    1.2977 F   0  0  0  0  0  0  0  0  0  0  0  0
   -4.0929    0.6538    0.5608 C   0  0  0  0  0  0  0  0  0  0  0  0
   -3.1178    0.4846   -0.4063 C   0  0  0  0  0  0  0  0  0  0  0  0
   -0.6281   -2.6761   -0.8143 H   0  0  0  0  0  0  0  0  0  0  0  0
   -0.7538   -3.2482    0.8303 H   0  0  0  0  0  0  0  0  0  0  0  0
    0.7409   -1.4346    2.8144 H   0  0  0  0  0  0  0  0  0  0  0  0
    2.8882    0.7229    2.8311 H   0  0  0  0  0  0  0  0  0  0  0  0
    3.3025   -0.8978    3.4418 H   0  0  0  0  0  0  0  0  0  0  0  0
    5.2153   -1.0765    1.9786 H   0  0  0  0  0  0  0  0  0  0  0  0
    5.3083    0.5410    2.6755 H   0  0  0  0  0  0  0  0  0  0  0  0
    5.7178    0.6285    0.2252 H   0  0  0  0  0  0  0  0  0  0  0  0
    4.2321    1.4890    0.6277 H   0  0  0  0  0  0  0  0  0  0  0  0
    3.7213    0.1290   -1.2997 H   0  0  0  0  0  0  0  0  0  0  0  0
    4.5186   -1.2877   -0.6122 H   0  0  0  0  0  0  0  0  0  0  0  0
   -0.2821    0.2745   -1.2740 H   0  0  0  0  0  0  0  0  0  0  0  0
   -1.0243   -1.0362   -2.2206 H   0  0  0  0  0  0  0  0  0  0  0  0
   -2.3958    0.4693   -3.3734 H   0  0  0  0  0  0  0  0  0  0  0  0
   -1.3320    1.7549   -2.7261 H   0  0  0  0  0  0  0  0  0  0  0  0
   -3.9859    2.9568   -2.6038 H   0  0  0  0  0  0  0  0  0  0  0  0
   -5.7420    3.2840   -0.8521 H   0  0  0  0  0  0  0  0  0  0  0  0
   -4.1551    0.0334    1.4458 H   0  0  0  0  0  0  0  0  0  0  0  0
  1  2  2  0
  2  3  1  0
  3  4  1  0
  4  5  2  0
  5  6  1  0
  6  7  1  0
  7  8  1  0
  8  9  1  0
  9 10  1  0
 10 11  1  0
 11 12  2  0
  2 13  1  0
 13 14  1  0
 14 15  1  0
 15 16  1  0
 16 17  1  0
 17 18  2  0
 18 19  1  0
 19 20  1  0
 19 21  2  0
 21 22  1  0
 12  4  1  0
 22 13  1  0
 11  6  1  0
 22 16  2  0
  3 23  1  0
  3 24  1  0
  5 25  1  0
  7 26  1  0
  7 27  1  0
  8 28  1  0
  8 29  1  0
  9 30  1  0
  9 31  1  0
 10 32  1  0
 10 33  1  0
 14 34  1  0
 14 35  1  0
 15 36  1  0
 15 37  1  0
 17 38  1  0
 18 39  1  0
 21 40  1  0
M  END
$$$$
OCNT-2310958
     RDKit          3D

 48 50  0  0  0  0  0  0  0  0999 V2000
    7.2941    1.8440   -1.6717 C   0  0  0  0  0  0  0  0  0  0  0  0
    5.8079    1.8112   -1.3618 C   0  0  0  0  0  0  0  0  0  0  0  0
    5.5494    0.6404   -0.5906 O   0  0  0  0  0  0  0  0  0  0  0  0
    4.2447    0.3458   -0.3037 C   0  0  0  0  0  0  0  0  0  0  0  0
    3.1627    1.1952   -0.5400 C   0  0  0  0  0  0  0  0  0  0  0  0
    1.8541    0.7883   -0.2378 C   0  0  0  0  0  0  0  0  0  0  0  0
    1.6058   -0.4752    0.2990 C   0  0  0  0  0  0  0  0  0  0  0  0
    0.3188   -0.9614    0.6031 N   0  0  0  0  0  0  0  0  0  0  0  0
   -0.8642   -0.2605    0.5979 C   0  0  0  0  0  0  0  0  0  0  0  0
   -1.0169    0.9361    0.3997 O   0  0  0  0  0  0  0  0  0  0  0  0
   -1.9307   -1.0999    0.8618 N   0  0  0  0  0  0  0  0  0  0  0  0
   -3.2932   -0.5697    0.9197 C   0  0  0  0  0  0  0  0  0  0  0  0
   -4.2394   -1.6278    1.5111 C   0  0  0  0  0  0  0  0  0  0  0  0
   -5.6520   -1.0674    1.6795 C   0  0  0  0  0  0  0  0  0  0  0  0
   -6.0993   -0.3590    0.4558 C   0  0  0  0  0  0  0  0  0  0  0  0
   -7.3238   -0.0560    0.0924 N   0  0  0  0  0  0  0  0  0  0  0  0
   -7.2507    0.6258   -1.1016 N   0  0  0  0  0  0  0  0  0  0  0  0
   -5.9821    0.7292   -1.4435 C   0  0  0  0  0  0  0  0  0  0  0  0
   -5.4384    1.3847   -2.6520 C   0  0  0  0  0  0  0  0  0  0  0  0
   -5.2270    0.1142   -0.4854 N   0  0  0  0  0  0  0  0  0  0  0  0
   -3.7958   -0.0864   -0.4575 C   0  0  0  0  0  0  0  0  0  0  0  0
    2.6864   -1.3279    0.5382 C   0  0  0  0  0  0  0  0  0  0  0  0
    3.9928   -0.9091    0.2666 C   0  0  0  0  0  0  0  0  0  0  0  0
    4.9913   -1.8202    0.5143 O   0  0  0  0  0  0  0  0  0  0  0  0
    5.7553   -1.4328    1.6573 C   0  0  0  0  0  0  0  0  0  0  0  0
    7.5503    2.7281   -2.2622 H   0  0  0  0  0  0  0  0  0  0  0  0
    7.8807    1.8537   -0.7464 H   0  0  0  0  0  0  0  0  0  0  0  0
    7.5910    0.9479   -2.2266 H   0  0  0  0  0  0  0  0  0  0  0  0
    5.2479    1.7835   -2.3046 H   0  0  0  0  0  0  0  0  0  0  0  0
    5.5408    2.7069   -0.7900 H   0  0  0  0  0  0  0  0  0  0  0  0
    3.2950    2.1861   -0.9620 H   0  0  0  0  0  0  0  0  0  0  0  0
    1.0477    1.4849   -0.4471 H   0  0  0  0  0  0  0  0  0  0  0  0
    0.2754   -1.8811    1.0168 H   0  0  0  0  0  0  0  0  0  0  0  0
   -1.8179   -2.0485    0.5304 H   0  0  0  0  0  0  0  0  0  0  0  0
   -3.2704    0.2937    1.5995 H   0  0  0  0  0  0  0  0  0  0  0  0
   -4.2641   -2.5069    0.8517 H   0  0  0  0  0  0  0  0  0  0  0  0
   -3.8662   -1.9774    2.4820 H   0  0  0  0  0  0  0  0  0  0  0  0
   -6.3454   -1.8812    1.9176 H   0  0  0  0  0  0  0  0  0  0  0  0
   -5.6725   -0.3646    2.5208 H   0  0  0  0  0  0  0  0  0  0  0  0
   -4.8873    0.6678   -3.2676 H   0  0  0  0  0  0  0  0  0  0  0  0
   -6.2484    1.8011   -3.2592 H   0  0  0  0  0  0  0  0  0  0  0  0
   -4.7641    2.2019   -2.3796 H   0  0  0  0  0  0  0  0  0  0  0  0
   -3.3215    0.8601   -0.7350 H   0  0  0  0  0  0  0  0  0  0  0  0
   -3.5673   -0.8249   -1.2362 H   0  0  0  0  0  0  0  0  0  0  0  0
    2.5367   -2.3241    0.9443 H   0  0  0  0  0  0  0  0  0  0  0  0
    5.1081   -1.2324    2.5205 H   0  0  0  0  0  0  0  0  0  0  0  0
    6.4110   -2.2700    1.9164 H   0  0  0  0  0  0  0  0  0  0  0  0
    6.3906   -0.5663    1.4464 H   0  0  0  0  0  0  0  0  0  0  0  0
  1  2  1  0
  2  3  1  0
  3  4  1  0
  4  5  1  0
  5  6  2  0
  6  7  1  0
  7  8  1  0
  8  9  1  0
  9 10  2  0
  9 11  1  0
 11 12  1  0
 12 13  1  0
 13 14  1  0
 14 15  1  0
 15 16  2  0
 16 17  1  0
 17 18  2  0
 18 19  1  0
 18 20  1  0
 20 21  1  0
  7 22  2  0
 22 23  1  0
 23 24  1  0
 24 25  1  0
 23  4  2  0
 21 12  1  0
 20 15  1  0
  1 26  1  0
  1 27  1  0
  1 28  1  0
  2 29  1  0
  2 30  1  0
  5 31  1  0
  6 32  1  0
  8 33  1  0
 11 34  1  0
 12 35  1  0
 13 36  1  0
 13 37  1  0
 14 38  1  0
 14 39  1  0
 19 40  1  0
 19 41  1  0
 19 42  1  0
 21 43  1  0
 21 44  1  0
 22 45  1  0
 25 46  1  0
 25 47  1  0
 25 48  1  0
M  END
$$$$
OCNT-2310977
     RDKit          3D

 51 53  0  0  0  0  0  0  0  0999 V2000
   -5.1272    0.3815    1.8084 C   0  0  0  0  0  0  0  0  0  0  0  0
   -4.3075    1.3027    0.8982 C   0  0  0  0  0  0  0  0  0  0  0  0
   -3.8148    2.4987    1.7275 C   0  0  0  0  0  0  0  0  0  0  0  0
   -5.1348    1.8317   -0.2785 C   0  0  0  0  0  0  0  0  0  0  0  0
   -3.0961    0.6505    0.4410 O   0  0  0  0  0  0  0  0  0  0  0  0
   -3.1506   -0.4596   -0.3362 C   0  0  0  0  0  0  0  0  0  0  0  0
   -4.1776   -1.0115   -0.7072 O   0  0  0  0  0  0  0  0  0  0  0  0
   -1.8967   -0.9071   -0.6593 N   0  0  0  0  0  0  0  0  0  0  0  0
   -1.6782   -2.0705   -1.4944 C   0  0  0  0  0  0  0  0  0  0  0  0
   -0.1997   -2.4069   -1.3013 C   0  0  2  0  0  0  0  0  0  0  0  0
    0.0098   -3.3459   -0.1088 C   0  0  0  0  0  0  0  0  0  0  0  0
    1.4789   -3.3803    0.2830 C   0  0  0  0  0  0  0  0  0  0  0  0
    1.9740   -1.9816    0.6254 C   0  0  0  0  0  0  0  0  0  0  0  0
    1.7637   -1.0332   -0.4743 N   0  0  0  0  0  0  0  0  0  0  0  0
    2.4694    0.1785   -0.5520 C   0  0  0  0  0  0  0  0  0  0  0  0
    1.9674    1.1803   -1.0544 O   0  0  0  0  0  0  0  0  0  0  0  0
    3.7493    0.1140   -0.0494 N   0  0  0  0  0  0  0  0  0  0  0  0
    4.6336    1.1930    0.1653 C   0  0  0  0  0  0  0  0  0  0  0  0
    4.2391    2.5272    0.1569 C   0  0  0  0  0  0  0  0  0  0  0  0
    5.1966    3.4998    0.3987 C   0  0  0  0  0  0  0  0  0  0  0  0
    6.4953    3.2334    0.6527 N   0  0  0  0  0  0  0  0  0  0  0  0
    6.8516    1.9337    0.6640 C   0  0  0  0  0  0  0  0  0  0  0  0
    5.9691    0.8904    0.4328 C   0  0  0  0  0  0  0  0  0  0  0  0
    0.4295   -1.0183   -1.0847 C   0  0  2  0  0  0  0  0  0  0  0  0
   -0.6480   -0.2556   -0.2921 C   0  0  0  0  0  0  0  0  0  0  0  0
   -4.4955   -0.0543    2.5906 H   0  0  0  0  0  0  0  0  0  0  0  0
   -5.5651   -0.4555    1.2564 H   0  0  0  0  0  0  0  0  0  0  0  0
   -5.9500    0.9237    2.2868 H   0  0  0  0  0  0  0  0  0  0  0  0
   -3.1862    2.1626    2.5605 H   0  0  0  0  0  0  0  0  0  0  0  0
   -3.1911    3.1641    1.1191 H   0  0  0  0  0  0  0  0  0  0  0  0
   -4.6470    3.0819    2.1355 H   0  0  0  0  0  0  0  0  0  0  0  0
   -4.5085    2.4153   -0.9626 H   0  0  0  0  0  0  0  0  0  0  0  0
   -5.9584    2.4659    0.0668 H   0  0  0  0  0  0  0  0  0  0  0  0
   -5.5723    1.0208   -0.8686 H   0  0  0  0  0  0  0  0  0  0  0  0
   -2.3592   -2.8838   -1.2246 H   0  0  0  0  0  0  0  0  0  0  0  0
   -1.8811   -1.7731   -2.5298 H   0  0  0  0  0  0  0  0  0  0  0  0
    0.2140   -2.8860   -2.1969 H   0  0  0  0  0  0  0  0  0  0  0  0
   -0.5880   -3.0261    0.7540 H   0  0  0  0  0  0  0  0  0  0  0  0
   -0.3306   -4.3550   -0.3687 H   0  0  0  0  0  0  0  0  0  0  0  0
    1.6170   -4.0430    1.1445 H   0  0  0  0  0  0  0  0  0  0  0  0
    2.0712   -3.7919   -0.5434 H   0  0  0  0  0  0  0  0  0  0  0  0
    3.0286   -2.0424    0.9039 H   0  0  0  0  0  0  0  0  0  0  0  0
    1.4445   -1.5882    1.5017 H   0  0  0  0  0  0  0  0  0  0  0  0
    4.1682   -0.8023   -0.0769 H   0  0  0  0  0  0  0  0  0  0  0  0
    3.2165    2.8341   -0.0248 H   0  0  0  0  0  0  0  0  0  0  0  0
    4.9310    4.5533    0.3966 H   0  0  0  0  0  0  0  0  0  0  0  0
    7.9008    1.7442    0.8718 H   0  0  0  0  0  0  0  0  0  0  0  0
    6.3323   -0.1300    0.4613 H   0  0  0  0  0  0  0  0  0  0  0  0
    0.5198   -0.5396   -2.0710 H   0  0  0  0  0  0  0  0  0  0  0  0
   -0.6844    0.8075   -0.5508 H   0  0  0  0  0  0  0  0  0  0  0  0
   -0.5227   -0.3469    0.7920 H   0  0  0  0  0  0  0  0  0  0  0  0
  1  2  1  0
  2  3  1  0
  2  4  1  0
  2  5  1  0
  5  6  1  0
  6  7  2  0
  6  8  1  0
  8  9  1  0
  9 10  1  0
 10 11  1  0
 11 12  1  0
 12 13  1  0
 13 14  1  0
 14 15  1  0
 15 16  2  0
 15 17  1  0
 17 18  1  0
 18 19  2  0
 19 20  1  0
 20 21  2  0
 21 22  1  0
 22 23  2  0
 14 24  1  0
 24 25  1  0
 25  8  1  0
 24 10  1  0
 23 18  1  0
  1 26  1  0
  1 27  1  0
  1 28  1  0
  3 29  1  0
  3 30  1  0
  3 31  1  0
  4 32  1  0
  4 33  1  0
  4 34  1  0
  9 35  1  0
  9 36  1  0
 10 37  1  6
 11 38  1  0
 11 39  1  0
 12 40  1  0
 12 41  1  0
 13 42  1  0
 13 43  1  0
 17 44  1  0
 19 45  1  0
 20 46  1  0
 22 47  1  0
 23 48  1  0
 24 49  1  6
 25 50  1  0
 25 51  1  0
M  END
$$$$
OCNT-2310978
     RDKit          3D

 40 42  0  0  0  0  0  0  0  0999 V2000
    5.2763    1.3293   -0.2807 C   0  0  0  0  0  0  0  0  0  0  0  0
    4.5319    0.6485    0.8584 C   0  0  0  0  0  0  0  0  0  0  0  0
    3.2210    0.0511    0.3992 C   0  0  0  0  0  0  0  0  0  0  0  0
    2.0792    0.8758    0.3831 C   0  0  0  0  0  0  0  0  0  0  0  0
    0.8266    0.3992   -0.0238 C   0  0  0  0  0  0  0  0  0  0  0  0
   -0.2606    1.2966   -0.0339 N   0  0  0  0  0  0  0  0  0  0  0  0
   -1.6306    0.9981   -0.0565 C   0  0  0  0  0  0  0  0  0  0  0  0
   -2.4062    1.7379   -0.8886 N   0  0  0  0  0  0  0  0  0  0  0  0
   -3.7391    1.5089   -0.9398 C   0  0  0  0  0  0  0  0  0  0  0  0
   -4.5248    2.3329   -1.9144 C   0  0  0  0  0  0  0  0  0  0  0  0
   -4.4234    0.5893   -0.2332 N   0  0  0  0  0  0  0  0  0  0  0  0
   -3.6286   -0.1000    0.6017 C   0  0  0  0  0  0  0  0  0  0  0  0
   -2.2618    0.0449    0.7485 C   0  0  0  0  0  0  0  0  0  0  0  0
   -1.9185   -0.8783    1.7586 C   0  0  0  0  0  0  0  0  0  0  0  0
   -2.9689   -1.5781    2.2047 N   0  0  0  0  0  0  0  0  0  0  0  0
   -3.9991   -1.0806    1.4817 N   0  0  0  0  0  0  0  0  0  0  0  0
   -5.3284   -1.5925    1.6990 C   0  0  0  0  0  0  0  0  0  0  0  0
    0.7329   -0.9225   -0.4601 C   0  0  0  0  0  0  0  0  0  0  0  0
    1.8553   -1.7552   -0.4579 C   0  0  0  0  0  0  0  0  0  0  0  0
    3.1066   -1.2830   -0.0348 C   0  0  0  0  0  0  0  0  0  0  0  0
    4.2800   -2.2238   -0.0426 C   0  0  0  0  0  0  0  0  0  0  0  0
    5.5077    0.6243   -1.0858 H   0  0  0  0  0  0  0  0  0  0  0  0
    4.6851    2.1451   -0.7103 H   0  0  0  0  0  0  0  0  0  0  0  0
    6.2191    1.7505    0.0826 H   0  0  0  0  0  0  0  0  0  0  0  0
    5.1674   -0.1180    1.3151 H   0  0  0  0  0  0  0  0  0  0  0  0
    4.3393    1.3777    1.6555 H   0  0  0  0  0  0  0  0  0  0  0  0
    2.1654    1.9105    0.7116 H   0  0  0  0  0  0  0  0  0  0  0  0
   -0.1079    2.0404   -0.7117 H   0  0  0  0  0  0  0  0  0  0  0  0
   -4.0738    3.3228   -2.0334 H   0  0  0  0  0  0  0  0  0  0  0  0
   -5.5538    2.4657   -1.5663 H   0  0  0  0  0  0  0  0  0  0  0  0
   -4.5427    1.8334   -2.8874 H   0  0  0  0  0  0  0  0  0  0  0  0
   -0.9417   -1.0692    2.1851 H   0  0  0  0  0  0  0  0  0  0  0  0
   -6.0316   -1.1131    1.0144 H   0  0  0  0  0  0  0  0  0  0  0  0
   -5.6133   -1.3802    2.7326 H   0  0  0  0  0  0  0  0  0  0  0  0
   -5.3158   -2.6706    1.5199 H   0  0  0  0  0  0  0  0  0  0  0  0
   -0.2075   -1.3250   -0.8265 H   0  0  0  0  0  0  0  0  0  0  0  0
    1.7432   -2.7822   -0.8004 H   0  0  0  0  0  0  0  0  0  0  0  0
    5.1154   -1.7950   -0.6043 H   0  0  0  0  0  0  0  0  0  0  0  0
    4.0273   -3.1772   -0.5191 H   0  0  0  0  0  0  0  0  0  0  0  0
    4.5985   -2.4384    0.9823 H   0  0  0  0  0  0  0  0  0  0  0  0
  1  2  1  0
  2  3  1  0
  3  4  1  0
  4  5  2  0
  5  6  1  0
  6  7  1  0
  7  8  1  0
  8  9  2  0
  9 10  1  0
  9 11  1  0
 11 12  2  0
 12 13  1  0
 13 14  1  0
 14 15  2  0
 15 16  1  0
 16 17  1  0
  5 18  1  0
 18 19  2  0
 19 20  1  0
 20 21  1  0
 20  3  2  0
 13  7  2  0
 16 12  1  0
  1 22  1  0
  1 23  1  0
  1 24  1  0
  2 25  1  0
  2 26  1  0
  4 27  1  0
  6 28  1  0
 10 29  1  0
 10 30  1  0
 10 31  1  0
 14 32  1  0
 17 33  1  0
 17 34  1  0
 17 35  1  0
 18 36  1  0
 19 37  1  0
 21 38  1  0
 21 39  1  0
 21 40  1  0
M  END
$$$$
OCNT-2310979
     RDKit          3D

 42 45  0  0  0  0  0  0  0  0999 V2000
    4.1328    1.5699    1.0341 C   0  0  0  0  0  0  0  0  0  0  0  0
    3.6702    0.6054   -0.0297 C   0  0  0  0  0  0  0  0  0  0  0  0
    2.2827    0.5823   -0.3010 C   0  0  0  0  0  0  0  0  0  0  0  0
    1.7433   -0.2686   -1.2716 C   0  0  0  0  0  0  0  0  0  0  0  0
    0.2846   -0.3067   -1.5721 C   0  0  0  0  0  0  0  0  0  0  0  0
   -0.0740   -0.5385   -2.7212 O   0  0  0  0  0  0  0  0  0  0  0  0
   -0.5484   -0.1066   -0.4875 N   0  0  0  0  0  0  0  0  0  0  0  0
   -1.9281   -0.0881   -0.5735 C   0  0  0  0  0  0  0  0  0  0  0  0
   -2.7621    0.0651    0.5078 C   0  0  0  0  0  0  0  0  0  0  0  0
   -4.0588    0.0355    0.0317 N   0  0  0  0  0  0  0  0  0  0  0  0
   -5.2686    0.1536    0.7743 C   0  0  0  0  0  0  0  0  0  0  0  0
   -6.4983    0.1001    0.0990 C   0  0  0  0  0  0  0  0  0  0  0  0
   -7.6973    0.2137    0.8059 C   0  0  0  0  0  0  0  0  0  0  0  0
   -7.6790    0.3812    2.1886 C   0  0  0  0  0  0  0  0  0  0  0  0
   -6.4627    0.4353    2.8671 C   0  0  0  0  0  0  0  0  0  0  0  0
   -5.2577    0.3222    2.1662 C   0  0  0  0  0  0  0  0  0  0  0  0
   -4.0824   -0.1280   -1.3164 N   0  0  0  0  0  0  0  0  0  0  0  0
   -2.7980   -0.2027   -1.6718 C   0  0  0  0  0  0  0  0  0  0  0  0
    2.5947   -1.0892   -2.0082 C   0  0  0  0  0  0  0  0  0  0  0  0
    3.9700   -1.0849   -1.7567 C   0  0  0  0  0  0  0  0  0  0  0  0
    4.5287   -0.2501   -0.7667 C   0  0  0  0  0  0  0  0  0  0  0  0
    5.9439   -0.3008   -0.5530 N   0  0  0  0  0  0  0  0  0  0  0  0
    6.8878   -1.0553   -1.2195 C   0  0  0  0  0  0  0  0  0  0  0  0
    8.0894   -0.8434   -0.7333 N   0  0  0  0  0  0  0  0  0  0  0  0
    7.8522    0.0638    0.2477 C   0  0  0  0  0  0  0  0  0  0  0  0
    6.5793    0.4235    0.4000 N   0  0  0  0  0  0  0  0  0  0  0  0
    3.2965    2.1488    1.4428 H   0  0  0  0  0  0  0  0  0  0  0  0
    4.8365    2.2971    0.6177 H   0  0  0  0  0  0  0  0  0  0  0  0
    4.5776    1.0316    1.8766 H   0  0  0  0  0  0  0  0  0  0  0  0
    1.6298    1.2679    0.2360 H   0  0  0  0  0  0  0  0  0  0  0  0
   -0.1533   -0.0298    0.4396 H   0  0  0  0  0  0  0  0  0  0  0  0
   -2.5455    0.1896    1.5561 H   0  0  0  0  0  0  0  0  0  0  0  0
   -6.5384   -0.0302   -0.9814 H   0  0  0  0  0  0  0  0  0  0  0  0
   -8.6444    0.1710    0.2739 H   0  0  0  0  0  0  0  0  0  0  0  0
   -8.6134    0.4693    2.7371 H   0  0  0  0  0  0  0  0  0  0  0  0
   -6.4526    0.5658    3.9466 H   0  0  0  0  0  0  0  0  0  0  0  0
   -4.3369    0.3698    2.7377 H   0  0  0  0  0  0  0  0  0  0  0  0
   -2.5550   -0.3366   -2.7186 H   0  0  0  0  0  0  0  0  0  0  0  0
    2.1901   -1.7402   -2.7822 H   0  0  0  0  0  0  0  0  0  0  0  0
    4.5715   -1.7564   -2.3631 H   0  0  0  0  0  0  0  0  0  0  0  0
    6.6615   -1.7261   -2.0337 H   0  0  0  0  0  0  0  0  0  0  0  0
    8.6319    0.4779    0.8748 H   0  0  0  0  0  0  0  0  0  0  0  0
  1  2  1  0
  2  3  1  0
  3  4  2  0
  4  5  1  0
  5  6  2  0
  5  7  1  0
  7  8  1  0
  8  9  2  0
  9 10  1  0
 10 11  1  0
 11 12  2  0
 12 13  1  0
 13 14  2  0
 14 15  1  0
 15 16  2  0
 10 17  1  0
 17 18  2  0
  4 19  1  0
 19 20  2  0
 20 21  1  0
 21 22  1  0
 22 23  1  0
 23 24  2  0
 24 25  1  0
 25 26  2  0
 21  2  2  0
 26 22  1  0
 18  8  1  0
 16 11  1  0
  1 27  1  0
  1 28  1  0
  1 29  1  0
  3 30  1  0
  7 31  1  0
  9 32  1  0
 12 33  1  0
 13 34  1  0
 14 35  1  0
 15 36  1  0
 16 37  1  0
 18 38  1  0
 19 39  1  0
 20 40  1  0
 23 41  1  0
 25 42  1  0
M  END
$$$$
OCNT-2310981
     RDKit          3D

 41 44  0  0  0  0  0  0  0  0999 V2000
   -4.7620   -3.2379   -1.8612 F   0  0  0  0  0  0  0  0  0  0  0  0
   -4.3042   -2.1844   -1.1710 C   0  0  0  0  0  0  0  0  0  0  0  0
   -4.1900   -0.9521   -1.8032 C   0  0  0  0  0  0  0  0  0  0  0  0
   -3.7149    0.1507   -1.0875 C   0  0  0  0  0  0  0  0  0  0  0  0
   -3.3443    0.0244    0.2617 C   0  0  0  0  0  0  0  0  0  0  0  0
   -2.8307    1.2152    1.0388 C   0  0  0  0  0  0  0  0  0  0  0  0
   -1.3058    1.4624    1.0116 C   0  0  0  0  0  0  0  0  0  0  0  0
   -0.4995    0.3392    1.6812 C   0  0  0  0  0  0  0  0  0  0  0  0
    0.9927    0.4640    1.3765 C   0  0  0  0  0  0  0  0  0  0  0  0
    1.2477    0.4153   -0.0658 N   0  0  0  0  0  0  0  0  0  0  0  0
    2.5021    0.0750   -0.5805 C   0  0  0  0  0  0  0  0  0  0  0  0
    2.6006   -0.1934   -1.8733 N   0  0  0  0  0  0  0  0  0  0  0  0
    3.8198   -0.5432   -2.4231 C   0  0  0  0  0  0  0  0  0  0  0  0
    4.9623   -0.6307   -1.7250 C   0  0  0  0  0  0  0  0  0  0  0  0
    4.9032   -0.3497   -0.3797 N   0  0  0  0  0  0  0  0  0  0  0  0
    5.8347   -0.3253    0.6137 C   0  0  0  0  0  0  0  0  0  0  0  0
    5.2648    0.0274    1.7470 N   0  0  0  0  0  0  0  0  0  0  0  0
    3.9225    0.2409    1.4942 N   0  0  0  0  0  0  0  0  0  0  0  0
    3.7239   -0.0008    0.2157 C   0  0  0  0  0  0  0  0  0  0  0  0
    0.1180    0.6848   -0.9583 C   0  0  0  0  0  0  0  0  0  0  0  0
   -0.7523    1.8012   -0.3837 C   0  0  0  0  0  0  0  0  0  0  0  0
   -3.4794   -1.2263    0.8844 C   0  0  0  0  0  0  0  0  0  0  0  0
   -3.9537   -2.3203    0.1649 C   0  0  0  0  0  0  0  0  0  0  0  0
   -4.0708   -3.5068    0.7768 F   0  0  0  0  0  0  0  0  0  0  0  0
   -4.4750   -0.8560   -2.8462 H   0  0  0  0  0  0  0  0  0  0  0  0
   -3.6451    1.1127   -1.5915 H   0  0  0  0  0  0  0  0  0  0  0  0
   -3.1538    1.1133    2.0839 H   0  0  0  0  0  0  0  0  0  0  0  0
   -3.3436    2.1153    0.6731 H   0  0  0  0  0  0  0  0  0  0  0  0
   -1.1523    2.3648    1.6221 H   0  0  0  0  0  0  0  0  0  0  0  0
   -0.6614    0.3642    2.7653 H   0  0  0  0  0  0  0  0  0  0  0  0
   -0.8342   -0.6448    1.3364 H   0  0  0  0  0  0  0  0  0  0  0  0
    1.3835    1.4022    1.7867 H   0  0  0  0  0  0  0  0  0  0  0  0
    1.4969   -0.3684    1.8798 H   0  0  0  0  0  0  0  0  0  0  0  0
    3.8086   -0.7537   -3.4897 H   0  0  0  0  0  0  0  0  0  0  0  0
    5.9143   -0.9038   -2.1583 H   0  0  0  0  0  0  0  0  0  0  0  0
    6.8783   -0.5605    0.4675 H   0  0  0  0  0  0  0  0  0  0  0  0
   -0.4633   -0.2323   -1.1058 H   0  0  0  0  0  0  0  0  0  0  0  0
    0.4623    1.0130   -1.9458 H   0  0  0  0  0  0  0  0  0  0  0  0
   -0.1318    2.7041   -0.2950 H   0  0  0  0  0  0  0  0  0  0  0  0
   -1.5500    2.0637   -1.0850 H   0  0  0  0  0  0  0  0  0  0  0  0
   -3.2181   -1.3638    1.9301 H   0  0  0  0  0  0  0  0  0  0  0  0
  1  2  1  0
  2  3  1  0
  3  4  2  0
  4  5  1  0
  5  6  1  0
  6  7  1  0
  7  8  1  0
  8  9  1  0
  9 10  1  0
 10 11  1  0
 11 12  2  0
 12 13  1  0
 13 14  2  0
 14 15  1  0
 15 16  1  0
 16 17  2  0
 17 18  1  0
 18 19  2  0
 10 20  1  0
 20 21  1  0
  5 22  2  0
 22 23  1  0
 23 24  1  0
 23  2  2  0
 21  7  1  0
 19 11  1  0
 19 15  1  0
  3 25  1  0
  4 26  1  0
  6 27  1  0
  6 28  1  0
  7 29  1  0
  8 30  1  0
  8 31  1  0
  9 32  1  0
  9 33  1  0
 13 34  1  0
 14 35  1  0
 16 36  1  0
 20 37  1  0
 20 38  1  0
 21 39  1  0
 21 40  1  0
 22 41  1  0
M  END
$$$$
OCNT-2310988
     RDKit          3D

 42 45  0  0  0  0  0  0  0  0999 V2000
   -1.9344   -2.0241    2.9755 O   0  0  0  0  0  0  0  0  0  0  0  0
   -1.8235   -2.3898    1.8085 C   0  0  0  0  0  0  0  0  0  0  0  0
   -3.0141   -2.4855    0.8674 C   0  0  0  0  0  0  0  0  0  0  0  0
   -2.9482   -1.4354   -0.1961 C   0  0  0  0  0  0  0  0  0  0  0  0
   -2.8199   -1.6428   -1.5603 C   0  0  0  0  0  0  0  0  0  0  0  0
   -2.7670   -0.4185   -2.1782 N   0  0  0  0  0  0  0  0  0  0  0  0
   -2.8614    0.5768   -1.2471 C   0  0  0  0  0  0  0  0  0  0  0  0
   -2.8312    1.8903   -1.5346 N   0  0  0  0  0  0  0  0  0  0  0  0
   -2.9499    2.6705   -0.4365 C   0  0  0  0  0  0  0  0  0  0  0  0
   -3.0824    2.2161    0.8691 C   0  0  0  0  0  0  0  0  0  0  0  0
   -3.1016    0.8408    1.1094 C   0  0  0  0  0  0  0  0  0  0  0  0
   -2.9875   -0.0174    0.0029 C   0  0  0  0  0  0  0  0  0  0  0  0
   -0.6221   -2.7455    1.2319 N   0  0  0  0  0  0  0  0  0  0  0  0
    0.6402   -2.4944    1.8897 C   0  0  0  0  0  0  0  0  0  0  0  0
    1.3828   -1.3812    1.1940 C   0  0  0  0  0  0  0  0  0  0  0  0
    0.8490   -0.0880    1.1450 C   0  0  0  0  0  0  0  0  0  0  0  0
    1.5166    0.9443    0.4735 C   0  0  0  0  0  0  0  0  0  0  0  0
    2.7504    0.7090   -0.1533 C   0  0  0  0  0  0  0  0  0  0  0  0
    3.4288    1.7670   -0.8265 N   0  0  0  0  0  0  0  0  0  0  0  0
    4.6706    1.7419   -1.4268 C   0  0  0  0  0  0  0  0  0  0  0  0
    4.8923    3.0052   -1.9235 C   0  0  0  0  0  0  0  0  0  0  0  0
    3.8324    3.8196   -1.6611 N   0  0  0  0  0  0  0  0  0  0  0  0
    2.9730    3.0590   -1.0176 C   0  0  0  0  0  0  0  0  0  0  0  0
    3.2834   -0.5841   -0.0895 C   0  0  0  0  0  0  0  0  0  0  0  0
    4.4481   -0.9075   -0.6675 F   0  0  0  0  0  0  0  0  0  0  0  0
    2.6111   -1.6157    0.5716 C   0  0  0  0  0  0  0  0  0  0  0  0
   -3.0343   -3.4904    0.4296 H   0  0  0  0  0  0  0  0  0  0  0  0
   -3.9336   -2.3699    1.4523 H   0  0  0  0  0  0  0  0  0  0  0  0
   -2.7566   -2.5520   -2.1471 H   0  0  0  0  0  0  0  0  0  0  0  0
   -2.6788   -0.2446   -3.1688 H   0  0  0  0  0  0  0  0  0  0  0  0
   -2.9383    3.7385   -0.6415 H   0  0  0  0  0  0  0  0  0  0  0  0
   -3.1725    2.9201    1.6891 H   0  0  0  0  0  0  0  0  0  0  0  0
   -3.2008    0.4530    2.1188 H   0  0  0  0  0  0  0  0  0  0  0  0
   -0.6007   -2.8680    0.2270 H   0  0  0  0  0  0  0  0  0  0  0  0
    0.5009   -2.2438    2.9458 H   0  0  0  0  0  0  0  0  0  0  0  0
    1.2098   -3.4276    1.8395 H   0  0  0  0  0  0  0  0  0  0  0  0
   -0.1035    0.1257    1.6289 H   0  0  0  0  0  0  0  0  0  0  0  0
    1.0343    1.9170    0.4725 H   0  0  0  0  0  0  0  0  0  0  0  0
    5.3028    0.8689   -1.4544 H   0  0  0  0  0  0  0  0  0  0  0  0
    5.7647    3.3630   -2.4558 H   0  0  0  0  0  0  0  0  0  0  0  0
    2.0062    3.4024   -0.6820 H   0  0  0  0  0  0  0  0  0  0  0  0
    3.0649   -2.6032    0.5844 H   0  0  0  0  0  0  0  0  0  0  0  0
  1  2  2  0
  2  3  1  0
  3  4  1  0
  4  5  2  0
  5  6  1  0
  6  7  1  0
  7  8  1  0
  8  9  2  0
  9 10  1  0
 10 11  2  0
 11 12  1  0
  2 13  1  0
 13 14  1  0
 14 15  1  0
 15 16  1  0
 16 17  2  0
 17 18  1  0
 18 19  1  0
 19 20  1  0
 20 21  2  0
 21 22  1  0
 22 23  2  0
 18 24  2  0
 24 25  1  0
 24 26  1  0
 12  4  1  0
 26 15  2  0
 12  7  2  0
 23 19  1  0
  3 27  1  0
  3 28  1  0
  5 29  1  0
  6 30  1  0
  9 31  1  0
 10 32  1  0
 11 33  1  0
 13 34  1  0
 14 35  1  0
 14 36  1  0
 16 37  1  0
 17 38  1  0
 20 39  1  0
 21 40  1  0
 23 41  1  0
 26 42  1  0
M  END
$$$$
OCNT-2310997
     RDKit          3D

 60 63  0  0  0  0  0  0  0  0999 V2000
   -9.1274   -0.2133    0.9094 C   0  0  0  0  0  0  0  0  0  0  0  0
   -7.8738    0.5052    0.7004 N   0  0  0  0  0  0  0  0  0  0  0  0
   -7.0949   -0.0625   -0.4286 C   0  0  0  0  0  0  0  0  0  0  0  0
   -5.9141   -0.9610   -0.0017 C   0  0  0  0  0  0  0  0  0  0  0  0
   -4.9516   -0.2267    0.8487 N   0  0  0  0  0  0  0  0  0  0  0  0
   -3.8208    0.2651    0.1673 C   0  0  0  0  0  0  0  0  0  0  0  0
   -2.7406    0.7612    0.9008 C   0  0  0  0  0  0  0  0  0  0  0  0
   -1.6134    1.2525    0.2427 C   0  0  0  0  0  0  0  0  0  0  0  0
   -1.5710    1.2441   -1.1486 C   0  0  0  0  0  0  0  0  0  0  0  0
   -0.3733    1.7407   -1.9035 C   0  0  0  0  0  0  0  0  0  0  0  0
    0.7085    0.7815   -1.8656 N   0  0  0  0  0  0  0  0  0  0  0  0
    1.7229    0.8899   -0.9533 C   0  0  0  0  0  0  0  0  0  0  0  0
    1.8212    1.8419   -0.1838 O   0  0  0  0  0  0  0  0  0  0  0  0
    2.6376   -0.1336   -0.9807 N   0  0  0  0  0  0  0  0  0  0  0  0
    2.6765   -1.2831   -1.8700 C   0  0  0  0  0  0  0  0  0  0  0  0
    3.7820   -2.1629   -1.3056 C   0  0  0  0  0  0  0  0  0  0  0  0
    4.7561   -1.1469   -0.7021 C   0  0  0  0  0  0  0  0  0  0  0  0
    5.6989   -1.7763    0.3232 C   0  0  0  0  0  0  0  0  0  0  0  0
    6.7260   -0.8012    0.8428 C   0  0  0  0  0  0  0  0  0  0  0  0
    7.8586   -0.4900    0.0782 C   0  0  0  0  0  0  0  0  0  0  0  0
    8.8018    0.4240    0.5499 C   0  0  0  0  0  0  0  0  0  0  0  0
    8.6209    1.0372    1.7879 C   0  0  0  0  0  0  0  0  0  0  0  0
    7.4971    0.7370    2.5551 C   0  0  0  0  0  0  0  0  0  0  0  0
    6.5532   -0.1777    2.0856 C   0  0  0  0  0  0  0  0  0  0  0  0
    3.8090   -0.0962   -0.1179 C   0  0  0  0  0  0  0  0  0  0  0  0
   -2.6770    0.7241   -1.8037 C   0  0  0  0  0  0  0  0  0  0  0  0
   -3.7780    0.2390   -1.1827 N   0  0  0  0  0  0  0  0  0  0  0  0
   -5.5732    0.8142    1.7050 C   0  0  0  0  0  0  0  0  0  0  0  0
   -7.0728    0.5251    1.9460 C   0  0  0  0  0  0  0  0  0  0  0  0
   -9.7621   -0.1441    0.0191 H   0  0  0  0  0  0  0  0  0  0  0  0
   -9.6941    0.2337    1.7339 H   0  0  0  0  0  0  0  0  0  0  0  0
   -8.9648   -1.2732    1.1356 H   0  0  0  0  0  0  0  0  0  0  0  0
   -6.7016    0.7840   -1.0060 H   0  0  0  0  0  0  0  0  0  0  0  0
   -7.7455   -0.6158   -1.1172 H   0  0  0  0  0  0  0  0  0  0  0  0
   -6.3037   -1.8015    0.5880 H   0  0  0  0  0  0  0  0  0  0  0  0
   -5.4477   -1.4270   -0.8780 H   0  0  0  0  0  0  0  0  0  0  0  0
   -2.7604    0.7483    1.9852 H   0  0  0  0  0  0  0  0  0  0  0  0
   -0.7714    1.6298    0.8197 H   0  0  0  0  0  0  0  0  0  0  0  0
   -0.0521    2.7105   -1.5074 H   0  0  0  0  0  0  0  0  0  0  0  0
   -0.6245    1.8920   -2.9592 H   0  0  0  0  0  0  0  0  0  0  0  0
    0.4941   -0.1441   -2.1943 H   0  0  0  0  0  0  0  0  0  0  0  0
    2.9187   -0.9250   -2.8764 H   0  0  0  0  0  0  0  0  0  0  0  0
    1.7133   -1.8000   -1.8925 H   0  0  0  0  0  0  0  0  0  0  0  0
    3.3751   -2.8167   -0.5240 H   0  0  0  0  0  0  0  0  0  0  0  0
    4.2436   -2.7936   -2.0710 H   0  0  0  0  0  0  0  0  0  0  0  0
    5.3305   -0.6915   -1.5210 H   0  0  0  0  0  0  0  0  0  0  0  0
    5.1295   -2.1982    1.1617 H   0  0  0  0  0  0  0  0  0  0  0  0
    6.2252   -2.6261   -0.1315 H   0  0  0  0  0  0  0  0  0  0  0  0
    8.0124   -0.9583   -0.8912 H   0  0  0  0  0  0  0  0  0  0  0  0
    9.6771    0.6591   -0.0496 H   0  0  0  0  0  0  0  0  0  0  0  0
    9.3542    1.7506    2.1543 H   0  0  0  0  0  0  0  0  0  0  0  0
    7.3539    1.2175    3.5194 H   0  0  0  0  0  0  0  0  0  0  0  0
    5.6805   -0.3965    2.6969 H   0  0  0  0  0  0  0  0  0  0  0  0
    3.4780   -0.3498    0.8959 H   0  0  0  0  0  0  0  0  0  0  0  0
    4.2510    0.9056   -0.1057 H   0  0  0  0  0  0  0  0  0  0  0  0
   -2.7194    0.6736   -2.8884 H   0  0  0  0  0  0  0  0  0  0  0  0
   -5.0612    0.8385    2.6742 H   0  0  0  0  0  0  0  0  0  0  0  0
   -5.4821    1.8104    1.2495 H   0  0  0  0  0  0  0  0  0  0  0  0
   -7.4814    1.2929    2.6132 H   0  0  0  0  0  0  0  0  0  0  0  0
   -7.1533   -0.4362    2.4722 H   0  0  0  0  0  0  0  0  0  0  0  0
  1  2  1  0
  2  3  1  0
  3  4  1  0
  4  5  1  0
  5  6  1  0
  6  7  2  0
  7  8  1  0
  8  9  2  0
  9 10  1  0
 10 11  1  0
 11 12  1  0
 12 13  2  0
 12 14  1  0
 14 15  1  0
 15 16  1  0
 16 17  1  0
 17 18  1  0
 18 19  1  0
 19 20  2  0
 20 21  1  0
 21 22  2  0
 22 23  1  0
 23 24  2  0
 17 25  1  0
  9 26  1  0
 26 27  2  0
  5 28  1  0
 28 29  1  0
 29  2  1  0
 27  6  1  0
 25 14  1  0
 24 19  1  0
  1 30  1  0
  1 31  1  0
  1 32  1  0
  3 33  1  0
  3 34  1  0
  4 35  1  0
  4 36  1  0
  7 37  1  0
  8 38  1  0
 10 39  1  0
 10 40  1  0
 11 41  1  0
 15 42  1  0
 15 43  1  0
 16 44  1  0
 16 45  1  0
 17 46  1  0
 18 47  1  0
 18 48  1  0
 20 49  1  0
 21 50  1  0
 22 51  1  0
 23 52  1  0
 24 53  1  0
 25 54  1  0
 25 55  1  0
 26 56  1  0
 28 57  1  0
 28 58  1  0
 29 59  1  0
 29 60  1  0
M  END
$$$$
OCNT-2311020
     RDKit          3D

 50 52  0  0  0  0  0  0  0  0999 V2000
   -8.8502   -0.1257   -1.0198 C   0  0  0  0  0  0  0  0  0  0  0  0
   -8.4096   -0.5326    0.3751 C   0  0  0  0  0  0  0  0  0  0  0  0
   -6.9721   -0.6958    0.4575 N   0  0  0  0  0  0  0  0  0  0  0  0
   -6.1376    0.3873    0.6510 C   0  0  0  0  0  0  0  0  0  0  0  0
   -6.5457    1.5331    0.8028 O   0  0  0  0  0  0  0  0  0  0  0  0
   -4.6798    0.1194    0.6359 C   0  0  0  0  0  0  0  0  0  0  0  0
   -4.1161   -1.1268    0.8897 C   0  0  0  0  0  0  0  0  0  0  0  0
   -2.7257   -1.2665    0.8507 C   0  0  0  0  0  0  0  0  0  0  0  0
   -1.9118   -0.1669    0.5620 C   0  0  0  0  0  0  0  0  0  0  0  0
   -0.5159   -0.3156    0.5339 N   0  0  0  0  0  0  0  0  0  0  0  0
    0.2229    0.9472    0.4839 C   0  0  0  0  0  0  0  0  0  0  0  0
    1.6904    0.7020    0.8367 C   0  0  0  0  0  0  0  0  0  0  0  0
    2.2676   -0.5567    0.1721 C   0  0  0  0  0  0  0  0  0  0  0  0
    3.5973   -0.3035   -0.3762 N   0  0  0  0  0  0  0  0  0  0  0  0
    4.7182   -0.2567    0.4398 C   0  0  0  0  0  0  0  0  0  0  0  0
    4.6432   -0.5350    1.6346 O   0  0  0  0  0  0  0  0  0  0  0  0
    5.9452    0.1583   -0.2319 C   0  0  0  0  0  0  0  0  0  0  0  0
    6.2431    0.2423   -1.5814 C   0  0  0  0  0  0  0  0  0  0  0  0
    7.5713    0.7035   -1.8236 C   0  0  0  0  0  0  0  0  0  0  0  0
    8.2572    0.9525   -0.6551 C   0  0  0  0  0  0  0  0  0  0  0  0
    9.6552    1.4388   -0.4832 C   0  0  0  0  0  0  0  0  0  0  0  0
    7.2967    0.6231    0.7194 S   0  0  0  0  0  0  0  0  0  0  0  0
    1.3440   -1.1042   -0.9117 C   0  0  0  0  0  0  0  0  0  0  0  0
   -0.0436   -1.3947   -0.3432 C   0  0  0  0  0  0  0  0  0  0  0  0
   -2.4588    1.0473    0.3382 N   0  0  0  0  0  0  0  0  0  0  0  0
   -3.8113    1.1696    0.3841 C   0  0  0  0  0  0  0  0  0  0  0  0
   -8.4145    0.8363   -1.3086 H   0  0  0  0  0  0  0  0  0  0  0  0
   -9.9397   -0.0350   -1.0642 H   0  0  0  0  0  0  0  0  0  0  0  0
   -8.5364   -0.8688   -1.7605 H   0  0  0  0  0  0  0  0  0  0  0  0
   -8.7308    0.2180    1.1050 H   0  0  0  0  0  0  0  0  0  0  0  0
   -8.8601   -1.4920    0.6479 H   0  0  0  0  0  0  0  0  0  0  0  0
   -6.5866   -1.5749    0.1436 H   0  0  0  0  0  0  0  0  0  0  0  0
   -4.7225   -1.9864    1.1533 H   0  0  0  0  0  0  0  0  0  0  0  0
   -2.2808   -2.2295    1.0803 H   0  0  0  0  0  0  0  0  0  0  0  0
    0.1457    1.3991   -0.5139 H   0  0  0  0  0  0  0  0  0  0  0  0
   -0.1715    1.6726    1.2074 H   0  0  0  0  0  0  0  0  0  0  0  0
    1.7856    0.5912    1.9251 H   0  0  0  0  0  0  0  0  0  0  0  0
    2.2682    1.5971    0.5745 H   0  0  0  0  0  0  0  0  0  0  0  0
    2.3791   -1.3294    0.9447 H   0  0  0  0  0  0  0  0  0  0  0  0
    3.6541    0.1606   -1.2710 H   0  0  0  0  0  0  0  0  0  0  0  0
    5.5555   -0.0261   -2.3731 H   0  0  0  0  0  0  0  0  0  0  0  0
    8.0015    0.8381   -2.8092 H   0  0  0  0  0  0  0  0  0  0  0  0
   10.2526    0.7147    0.0804 H   0  0  0  0  0  0  0  0  0  0  0  0
   10.1392    1.5880   -1.4542 H   0  0  0  0  0  0  0  0  0  0  0  0
    9.6707    2.3956    0.0490 H   0  0  0  0  0  0  0  0  0  0  0  0
    1.7614   -2.0196   -1.3488 H   0  0  0  0  0  0  0  0  0  0  0  0
    1.2654   -0.3828   -1.7361 H   0  0  0  0  0  0  0  0  0  0  0  0
   -0.0028   -2.3246    0.2373 H   0  0  0  0  0  0  0  0  0  0  0  0
   -0.7260   -1.5616   -1.1873 H   0  0  0  0  0  0  0  0  0  0  0  0
   -4.1813    2.1757    0.2005 H   0  0  0  0  0  0  0  0  0  0  0  0
  1  2  1  0
  2  3  1  0
  3  4  1  0
  4  5  2  0
  4  6  1  0
  6  7  2  0
  7  8  1  0
  8  9  2  0
  9 10  1  0
 10 11  1  0
 11 12  1  0
 12 13  1  0
 13 14  1  0
 14 15  1  0
 15 16  2  0
 15 17  1  0
 17 18  2  0
 18 19  1  0
 19 20  2  0
 20 21  1  0
 20 22  1  0
 13 23  1  0
 23 24  1  0
  9 25  1  0
 25 26  2  0
 26  6  1  0
 24 10  1  0
 22 17  1  0
  1 27  1  0
  1 28  1  0
  1 29  1  0
  2 30  1  0
  2 31  1  0
  3 32  1  0
  7 33  1  0
  8 34  1  0
 11 35  1  0
 11 36  1  0
 12 37  1  0
 12 38  1  0
 13 39  1  0
 14 40  1  0
 18 41  1  0
 19 42  1  0
 21 43  1  0
 21 44  1  0
 21 45  1  0
 23 46  1  0
 23 47  1  0
 24 48  1  0
 24 49  1  0
 26 50  1  0
M  END
$$$$
OCNT-2311052
     RDKit          3D

 50 52  0  0  0  0  0  0  0  0999 V2000
   -5.5578   -2.6342    0.4787 C   0  0  0  0  0  0  0  0  0  0  0  0
   -4.4762   -2.1471   -0.3031 O   0  0  0  0  0  0  0  0  0  0  0  0
   -4.5994   -0.7478   -0.5650 C   0  0  0  0  0  0  0  0  0  0  0  0
   -3.4140   -0.2623   -1.4394 C   0  0  0  0  0  0  0  0  0  0  0  0
   -3.4570   -1.0066   -2.7891 C   0  0  0  0  0  0  0  0  0  0  0  0
   -2.0565   -0.5503   -0.7565 C   0  0  0  0  0  0  0  0  0  0  0  0
   -1.8140    0.3474    0.4602 C   0  0  0  0  0  0  0  0  0  0  0  0
   -1.9237    1.7816    0.1661 N   0  0  0  0  0  0  0  0  0  0  0  0
   -0.7966    2.3336   -0.6117 C   0  0  0  0  0  0  0  0  0  0  0  0
    0.5185    2.2880    0.1868 C   0  0  0  0  0  0  0  0  0  0  0  0
    0.7472    3.0974    1.0813 O   0  0  0  0  0  0  0  0  0  0  0  0
    1.3437    1.2668   -0.2343 N   0  0  0  0  0  0  0  0  0  0  0  0
    2.5488    0.8944    0.2977 C   0  0  0  0  0  0  0  0  0  0  0  0
    3.2176   -0.1175   -0.2133 N   0  0  0  0  0  0  0  0  0  0  0  0
    4.3753   -0.3061    0.5119 C   0  0  0  0  0  0  0  0  0  0  0  0
    4.5579    0.5669    1.5641 C   0  0  0  0  0  0  0  0  0  0  0  0
    5.7242    0.5695    2.4905 C   0  0  0  0  0  0  0  0  0  0  0  0
    6.4751   -0.7705    2.3891 C   0  0  0  0  0  0  0  0  0  0  0  0
    6.6667   -1.2227    0.9292 C   0  0  0  0  0  0  0  0  0  0  0  0
    5.3243   -1.4129    0.1988 C   0  0  0  0  0  0  0  0  0  0  0  0
    3.2611    1.6642    1.6451 S   0  0  0  0  0  0  0  0  0  0  0  0
   -3.2162    2.0990   -0.4525 C   0  0  0  0  0  0  0  0  0  0  0  0
   -3.5324    1.2580   -1.6955 C   0  0  0  0  0  0  0  0  0  0  0  0
   -5.3985   -3.7017    0.6639 H   0  0  0  0  0  0  0  0  0  0  0  0
   -5.6020   -2.1126    1.4405 H   0  0  0  0  0  0  0  0  0  0  0  0
   -6.5023   -2.5098   -0.0581 H   0  0  0  0  0  0  0  0  0  0  0  0
   -4.6376   -0.2160    0.3913 H   0  0  0  0  0  0  0  0  0  0  0  0
   -5.5474   -0.5653   -1.0870 H   0  0  0  0  0  0  0  0  0  0  0  0
   -4.4141   -0.8476   -3.2975 H   0  0  0  0  0  0  0  0  0  0  0  0
   -2.6659   -0.6567   -3.4604 H   0  0  0  0  0  0  0  0  0  0  0  0
   -3.3211   -2.0848   -2.6581 H   0  0  0  0  0  0  0  0  0  0  0  0
   -1.9954   -1.5998   -0.4434 H   0  0  0  0  0  0  0  0  0  0  0  0
   -1.2411   -0.4080   -1.4777 H   0  0  0  0  0  0  0  0  0  0  0  0
   -0.8410    0.1097    0.9035 H   0  0  0  0  0  0  0  0  0  0  0  0
   -2.5374    0.0995    1.2461 H   0  0  0  0  0  0  0  0  0  0  0  0
   -0.6742    1.8367   -1.5802 H   0  0  0  0  0  0  0  0  0  0  0  0
   -0.9710    3.3955   -0.8291 H   0  0  0  0  0  0  0  0  0  0  0  0
    1.0565    0.6703   -0.9963 H   0  0  0  0  0  0  0  0  0  0  0  0
    5.4081    0.7345    3.5260 H   0  0  0  0  0  0  0  0  0  0  0  0
    6.4009    1.3864    2.2121 H   0  0  0  0  0  0  0  0  0  0  0  0
    5.9140   -1.5462    2.9271 H   0  0  0  0  0  0  0  0  0  0  0  0
    7.4482   -0.6858    2.8835 H   0  0  0  0  0  0  0  0  0  0  0  0
    7.2675   -0.4727    0.4006 H   0  0  0  0  0  0  0  0  0  0  0  0
    7.2299   -2.1604    0.9030 H   0  0  0  0  0  0  0  0  0  0  0  0
    4.8698   -2.3590    0.5149 H   0  0  0  0  0  0  0  0  0  0  0  0
    5.4956   -1.4744   -0.8816 H   0  0  0  0  0  0  0  0  0  0  0  0
   -4.0042    1.9593    0.2969 H   0  0  0  0  0  0  0  0  0  0  0  0
   -3.2622    3.1642   -0.7124 H   0  0  0  0  0  0  0  0  0  0  0  0
   -2.8494    1.5517   -2.5036 H   0  0  0  0  0  0  0  0  0  0  0  0
   -4.5420    1.5042   -2.0482 H   0  0  0  0  0  0  0  0  0  0  0  0
  1  2  1  0
  2  3  1  0
  3  4  1  0
  4  5  1  0
  4  6  1  0
  6  7  1  0
  7  8  1  0
  8  9  1  0
  9 10  1  0
 10 11  2  0
 10 12  1  0
 12 13  1  0
 13 14  2  0
 14 15  1  0
 15 16  2  0
 16 17  1  0
 17 18  1  0
 18 19  1  0
 19 20  1  0
 16 21  1  0
  8 22  1  0
 22 23  1  0
 23  4  1  0
 21 13  1  0
 20 15  1  0
  1 24  1  0
  1 25  1  0
  1 26  1  0
  3 27  1  0
  3 28  1  0
  5 29  1  0
  5 30  1  0
  5 31  1  0
  6 32  1  0
  6 33  1  0
  7 34  1  0
  7 35  1  0
  9 36  1  0
  9 37  1  0
 12 38  1  0
 17 39  1  0
 17 40  1  0
 18 41  1  0
 18 42  1  0
 19 43  1  0
 19 44  1  0
 20 45  1  0
 20 46  1  0
 22 47  1  0
 22 48  1  0
 23 49  1  0
 23 50  1  0
M  END
$$$$
OCNT-2311059
     RDKit          3D

 49 53  0  0  0  0  0  0  0  0999 V2000
    2.2437    1.2655    1.8139 O   0  0  0  0  0  0  0  0  0  0  0  0
    1.5250    0.6871    1.0134 C   0  0  0  0  0  0  0  0  0  0  0  0
    0.1497    0.7536    1.1227 N   0  0  0  0  0  0  0  0  0  0  0  0
   -0.5160   -0.1980    0.2788 C   0  0  0  0  0  0  0  0  0  0  0  0
   -1.3116   -1.2395    1.0655 C   0  0  0  0  0  0  0  0  0  0  0  0
   -2.8111   -0.9160    1.2890 C   0  0  0  0  0  0  0  0  0  0  0  0
   -3.0332    0.2609    2.2594 C   0  0  0  0  0  0  0  0  0  0  0  0
   -3.2186    1.6006    1.5589 C   0  0  0  0  0  0  0  0  0  0  0  0
   -4.3961    1.5421    0.5967 C   0  0  0  0  0  0  0  0  0  0  0  0
   -4.3141    0.3663   -0.3416 C   0  0  0  0  0  0  0  0  0  0  0  0
   -5.0300    0.4216   -1.5489 C   0  0  0  0  0  0  0  0  0  0  0  0
   -5.0281   -0.6577   -2.4296 C   0  0  0  0  0  0  0  0  0  0  0  0
   -4.3249   -1.8116   -2.1059 C   0  0  0  0  0  0  0  0  0  0  0  0
   -3.6215   -1.8842   -0.9034 C   0  0  0  0  0  0  0  0  0  0  0  0
   -3.5973   -0.7989   -0.0088 C   0  0  0  0  0  0  0  0  0  0  0  0
    0.6940   -0.8392   -0.4138 C   0  0  0  0  0  0  0  0  0  0  0  0
    0.5971   -1.7587   -1.2201 O   0  0  0  0  0  0  0  0  0  0  0  0
    1.8366   -0.2027    0.0123 N   0  0  0  0  0  0  0  0  0  0  0  0
    3.1583   -0.5193   -0.4025 C   0  0  0  0  0  0  0  0  0  0  0  0
    3.4951   -1.8617   -0.6614 C   0  0  0  0  0  0  0  0  0  0  0  0
    4.7917   -2.2172   -1.0176 C   0  0  0  0  0  0  0  0  0  0  0  0
    5.7634   -1.2327   -1.1353 C   0  0  0  0  0  0  0  0  0  0  0  0
    5.4367    0.1155   -0.9270 C   0  0  0  0  0  0  0  0  0  0  0  0
    6.4100    1.1111   -1.0906 C   0  0  0  0  0  0  0  0  0  0  0  0
    6.0727    2.4466   -0.9284 C   0  0  0  0  0  0  0  0  0  0  0  0
    4.7625    2.7428   -0.6226 C   0  0  0  0  0  0  0  0  0  0  0  0
    3.8002    1.8093   -0.4651 N   0  0  0  0  0  0  0  0  0  0  0  0
    4.1209    0.4986   -0.5709 C   0  0  0  0  0  0  0  0  0  0  0  0
   -0.2684    1.3247    1.8447 H   0  0  0  0  0  0  0  0  0  0  0  0
   -1.1003    0.3400   -0.4723 H   0  0  0  0  0  0  0  0  0  0  0  0
   -1.2451   -2.2079    0.5536 H   0  0  0  0  0  0  0  0  0  0  0  0
   -0.8398   -1.4068    2.0439 H   0  0  0  0  0  0  0  0  0  0  0  0
   -3.2221   -1.7958    1.8074 H   0  0  0  0  0  0  0  0  0  0  0  0
   -2.2193    0.3229    2.9908 H   0  0  0  0  0  0  0  0  0  0  0  0
   -3.9430    0.0596    2.8423 H   0  0  0  0  0  0  0  0  0  0  0  0
   -3.3940    2.3859    2.3033 H   0  0  0  0  0  0  0  0  0  0  0  0
   -2.3139    1.8829    1.0133 H   0  0  0  0  0  0  0  0  0  0  0  0
   -5.3338    1.4675    1.1613 H   0  0  0  0  0  0  0  0  0  0  0  0
   -4.4280    2.4780    0.0259 H   0  0  0  0  0  0  0  0  0  0  0  0
   -5.5988    1.3124   -1.8075 H   0  0  0  0  0  0  0  0  0  0  0  0
   -5.5818   -0.6004   -3.3628 H   0  0  0  0  0  0  0  0  0  0  0  0
   -4.3258   -2.6592   -2.7862 H   0  0  0  0  0  0  0  0  0  0  0  0
   -3.0926   -2.8060   -0.6703 H   0  0  0  0  0  0  0  0  0  0  0  0
    2.7588   -2.6546   -0.5515 H   0  0  0  0  0  0  0  0  0  0  0  0
    5.0421   -3.2599   -1.1958 H   0  0  0  0  0  0  0  0  0  0  0  0
    6.7756   -1.5211   -1.4113 H   0  0  0  0  0  0  0  0  0  0  0  0
    7.4329    0.8513   -1.3517 H   0  0  0  0  0  0  0  0  0  0  0  0
    6.8088    3.2330   -1.0464 H   0  0  0  0  0  0  0  0  0  0  0  0
    4.4334    3.7692   -0.4897 H   0  0  0  0  0  0  0  0  0  0  0  0
  1  2  2  0
  2  3  1  0
  3  4  1  0
  4  5  1  0
  5  6  1  0
  6  7  1  0
  7  8  1  0
  8  9  1  0
  9 10  1  0
 10 11  2  0
 11 12  1  0
 12 13  2  0
 13 14  1  0
 14 15  2  0
  4 16  1  0
 16 17  2  0
 16 18  1  0
 18 19  1  0
 19 20  1  0
 20 21  2  0
 21 22  1  0
 22 23  2  0
 23 24  1  0
 24 25  2  0
 25 26  1  0
 26 27  2  0
 27 28  1  0
 18  2  1  0
 28 19  2  0
 15  6  1  0
 28 23  1  0
 15 10  1  0
  3 29  1  0
  4 30  1  0
  5 31  1  0
  5 32  1  0
  6 33  1  0
  7 34  1  0
  7 35  1  0
  8 36  1  0
  8 37  1  0
  9 38  1  0
  9 39  1  0
 11 40  1  0
 12 41  1  0
 13 42  1  0
 14 43  1  0
 20 44  1  0
 21 45  1  0
 22 46  1  0
 24 47  1  0
 25 48  1  0
 26 49  1  0
M  END
$$$$
OCNT-2311083
     RDKit          3D

 50 52  0  0  0  0  0  0  0  0999 V2000
   -2.2370   -0.5953   -0.9131 O   0  0  0  0  0  0  0  0  0  0  0  0
   -2.3757   -0.0533    0.1731 C   0  0  0  0  0  0  0  0  0  0  0  0
   -1.3487    0.2428    1.0364 N   0  0  0  0  0  0  0  0  0  0  0  0
   -0.0047   -0.2187    0.7318 C   0  0  0  0  0  0  0  0  0  0  0  0
    1.0554    0.5695    1.5031 C   0  0  0  0  0  0  0  0  0  0  0  0
    2.3954    0.0856    1.2604 N   0  0  0  0  0  0  0  0  0  0  0  0
    2.8984   -1.0388    1.8806 C   0  0  0  0  0  0  0  0  0  0  0  0
    2.2947   -1.6693    2.7407 O   0  0  0  0  0  0  0  0  0  0  0  0
    4.2594   -1.4493    1.4060 C   0  0  0  0  0  0  0  0  0  0  0  0
    4.8762   -2.5610    1.9589 C   0  0  0  0  0  0  0  0  0  0  0  0
    6.1339   -2.9066    1.4845 C   0  0  0  0  0  0  0  0  0  0  0  0
    6.7235   -2.1360    0.4819 C   0  0  0  0  0  0  0  0  0  0  0  0
    6.0381   -1.0321   -0.0263 C   0  0  0  0  0  0  0  0  0  0  0  0
    6.5607   -0.1446   -1.0829 C   0  0  0  0  0  0  0  0  0  0  0  0
    6.0072    1.0372   -1.5552 C   0  0  0  0  0  0  0  0  0  0  0  0
    6.7733    1.6454   -2.5912 C   0  0  0  0  0  0  0  0  0  0  0  0
    7.8970    0.9127   -2.8911 C   0  0  0  0  0  0  0  0  0  0  0  0
    8.0186   -0.4924   -1.9295 S   0  0  0  0  0  0  0  0  0  0  0  0
    4.8096   -0.6771    0.4266 N   0  0  0  0  0  0  0  0  0  0  0  0
   -3.5794    0.3480    0.6991 N   0  0  0  0  0  0  0  0  0  0  0  0
   -4.8069    0.2250   -0.0754 C   0  0  0  0  0  0  0  0  0  0  0  0
   -4.8864    1.3065   -1.1687 C   0  0  0  0  0  0  0  0  0  0  0  0
   -6.3189    1.6763   -1.5619 C   0  0  0  0  0  0  0  0  0  0  0  0
   -7.2789    0.5103   -1.3740 C   0  0  0  0  0  0  0  0  0  0  0  0
   -7.3307    0.0461    0.0825 C   0  0  0  0  0  0  0  0  0  0  0  0
   -6.0255    0.2796    0.8465 C   0  0  0  0  0  0  0  0  0  0  0  0
   -1.6231    0.1628    2.0055 H   0  0  0  0  0  0  0  0  0  0  0  0
    0.1756   -0.1303   -0.3462 H   0  0  0  0  0  0  0  0  0  0  0  0
    0.0382   -1.2855    0.9800 H   0  0  0  0  0  0  0  0  0  0  0  0
    1.0311    1.6255    1.2131 H   0  0  0  0  0  0  0  0  0  0  0  0
    0.8539    0.5163    2.5794 H   0  0  0  0  0  0  0  0  0  0  0  0
    2.9545    0.4671    0.5011 H   0  0  0  0  0  0  0  0  0  0  0  0
    4.3898   -3.1411    2.7365 H   0  0  0  0  0  0  0  0  0  0  0  0
    6.6551   -3.7699    1.8900 H   0  0  0  0  0  0  0  0  0  0  0  0
    7.7084   -2.4125    0.1204 H   0  0  0  0  0  0  0  0  0  0  0  0
    5.0833    1.4493   -1.1668 H   0  0  0  0  0  0  0  0  0  0  0  0
    6.5109    2.5710   -3.0892 H   0  0  0  0  0  0  0  0  0  0  0  0
    8.6540    1.1340   -3.6312 H   0  0  0  0  0  0  0  0  0  0  0  0
   -3.5114    1.1446    1.3155 H   0  0  0  0  0  0  0  0  0  0  0  0
   -4.7861   -0.7596   -0.5620 H   0  0  0  0  0  0  0  0  0  0  0  0
   -4.3470    0.9491   -2.0553 H   0  0  0  0  0  0  0  0  0  0  0  0
   -4.3666    2.2207   -0.8540 H   0  0  0  0  0  0  0  0  0  0  0  0
   -6.6563    2.5214   -0.9487 H   0  0  0  0  0  0  0  0  0  0  0  0
   -6.3370    2.0197   -2.6024 H   0  0  0  0  0  0  0  0  0  0  0  0
   -6.9593   -0.3244   -2.0106 H   0  0  0  0  0  0  0  0  0  0  0  0
   -8.2853    0.7880   -1.7071 H   0  0  0  0  0  0  0  0  0  0  0  0
   -7.5866   -1.0203    0.1021 H   0  0  0  0  0  0  0  0  0  0  0  0
   -8.1421    0.5637    0.6087 H   0  0  0  0  0  0  0  0  0  0  0  0
   -6.0652    1.2596    1.3412 H   0  0  0  0  0  0  0  0  0  0  0  0
   -5.9373   -0.4599    1.6519 H   0  0  0  0  0  0  0  0  0  0  0  0
  1  2  2  0
  2  3  1  0
  3  4  1  0
  4  5  1  0
  5  6  1  0
  6  7  1  0
  7  8  2  0
  7  9  1  0
  9 10  1  0
 10 11  2  0
 11 12  1  0
 12 13  2  0
 13 14  1  0
 14 15  2  0
 15 16  1  0
 16 17  2  0
 17 18  1  0
 13 19  1  0
  2 20  1  0
 20 21  1  0
 21 22  1  0
 22 23  1  0
 23 24  1  0
 24 25  1  0
 25 26  1  0
 19  9  2  0
 26 21  1  0
 18 14  1  0
  3 27  1  0
  4 28  1  0
  4 29  1  0
  5 30  1  0
  5 31  1  0
  6 32  1  0
 10 33  1  0
 11 34  1  0
 12 35  1  0
 15 36  1  0
 16 37  1  0
 17 38  1  0
 20 39  1  0
 21 40  1  0
 22 41  1  0
 22 42  1  0
 23 43  1  0
 23 44  1  0
 24 45  1  0
 24 46  1  0
 25 47  1  0
 25 48  1  0
 26 49  1  0
 26 50  1  0
M  END
$$$$
OCNT-2311090
     RDKit          3D

 48 52  0  0  0  0  0  0  0  0999 V2000
    8.0208    0.6398    0.5370 C   0  0  0  0  0  0  0  0  0  0  0  0
    6.8588    0.9135    1.2543 C   0  0  0  0  0  0  0  0  0  0  0  0
    5.6057    0.5758    0.7297 C   0  0  0  0  0  0  0  0  0  0  0  0
    5.5073   -0.0454   -0.5206 C   0  0  0  0  0  0  0  0  0  0  0  0
    4.2565   -0.4088   -1.0956 N   0  0  0  0  0  0  0  0  0  0  0  0
    4.2001   -0.8814   -2.3778 N   0  0  0  0  0  0  0  0  0  0  0  0
    2.9333   -1.0888   -2.7161 N   0  0  0  0  0  0  0  0  0  0  0  0
    2.1707   -0.7813   -1.6397 C   0  0  0  0  0  0  0  0  0  0  0  0
    2.9728   -0.3890   -0.5914 C   0  0  0  0  0  0  0  0  0  0  0  0
    2.4319   -0.0444    0.7427 C   0  0  0  0  0  0  0  0  0  0  0  0
    0.9444   -0.5001    0.8311 C   0  0  0  0  0  0  0  0  0  0  0  0
    0.1667   -0.1725   -0.3923 N   0  0  0  0  0  0  0  0  0  0  0  0
   -1.2705   -0.4687   -0.2354 C   0  0  0  0  0  0  0  0  0  0  0  0
   -1.9937    0.5218    0.6928 C   0  0  0  0  0  0  0  0  0  0  0  0
   -3.4827    0.2600    0.7289 C   0  0  0  0  0  0  0  0  0  0  0  0
   -4.0152   -0.6750    1.6440 C   0  0  0  0  0  0  0  0  0  0  0  0
   -5.3848   -0.9499    1.6738 C   0  0  0  0  0  0  0  0  0  0  0  0
   -6.1972   -0.2756    0.7880 C   0  0  0  0  0  0  0  0  0  0  0  0
   -7.5539   -0.4491    0.6973 O   0  0  0  0  0  0  0  0  0  0  0  0
   -7.9796    0.6474   -0.1461 C   0  0  0  0  0  0  0  0  0  0  0  0
   -6.7912    1.1337   -0.9771 C   0  0  0  0  0  0  0  0  0  0  0  0
   -5.6910    0.6396   -0.1204 C   0  0  0  0  0  0  0  0  0  0  0  0
   -4.3363    0.9171   -0.1723 C   0  0  0  0  0  0  0  0  0  0  0  0
    0.6920   -0.9216   -1.5738 C   0  0  0  0  0  0  0  0  0  0  0  0
    6.6873   -0.3064   -1.2406 C   0  0  0  0  0  0  0  0  0  0  0  0
    7.9353    0.0321   -0.7117 C   0  0  0  0  0  0  0  0  0  0  0  0
    8.9914    0.9056    0.9478 H   0  0  0  0  0  0  0  0  0  0  0  0
    6.9266    1.3995    2.2249 H   0  0  0  0  0  0  0  0  0  0  0  0
    4.7396    0.8398    1.3216 H   0  0  0  0  0  0  0  0  0  0  0  0
    2.9928   -0.5385    1.5424 H   0  0  0  0  0  0  0  0  0  0  0  0
    2.4803    1.0407    0.8893 H   0  0  0  0  0  0  0  0  0  0  0  0
    0.9051   -1.5824    1.0171 H   0  0  0  0  0  0  0  0  0  0  0  0
    0.5152   -0.0098    1.7111 H   0  0  0  0  0  0  0  0  0  0  0  0
   -1.4174   -1.4992    0.1148 H   0  0  0  0  0  0  0  0  0  0  0  0
   -1.7527   -0.4059   -1.2207 H   0  0  0  0  0  0  0  0  0  0  0  0
   -1.6065    0.4644    1.7164 H   0  0  0  0  0  0  0  0  0  0  0  0
   -1.8149    1.5517    0.3578 H   0  0  0  0  0  0  0  0  0  0  0  0
   -3.3583   -1.1956    2.3375 H   0  0  0  0  0  0  0  0  0  0  0  0
   -5.7998   -1.6683    2.3715 H   0  0  0  0  0  0  0  0  0  0  0  0
   -8.3566    1.4443    0.5078 H   0  0  0  0  0  0  0  0  0  0  0  0
   -8.8063    0.3146   -0.7824 H   0  0  0  0  0  0  0  0  0  0  0  0
   -6.8006    2.2190   -1.1055 H   0  0  0  0  0  0  0  0  0  0  0  0
   -6.7631    0.6390   -1.9532 H   0  0  0  0  0  0  0  0  0  0  0  0
   -3.9450    1.6221   -0.9001 H   0  0  0  0  0  0  0  0  0  0  0  0
    0.4385   -1.9868   -1.5046 H   0  0  0  0  0  0  0  0  0  0  0  0
    0.2487   -0.5168   -2.4906 H   0  0  0  0  0  0  0  0  0  0  0  0
    6.6570   -0.7813   -2.2203 H   0  0  0  0  0  0  0  0  0  0  0  0
    8.8387   -0.1791   -1.2786 H   0  0  0  0  0  0  0  0  0  0  0  0
  1  2  2  0
  2  3  1  0
  3  4  2  0
  4  5  1  0
  5  6  1  0
  6  7  2  0
  7  8  1  0
  8  9  2  0
  9 10  1  0
 10 11  1  0
 11 12  1  0
 12 13  1  0
 13 14  1  0
 14 15  1  0
 15 16  1  0
 16 17  2  0
 17 18  1  0
 18 19  1  0
 19 20  1  0
 20 21  1  0
 21 22  1  0
 22 23  1  0
 12 24  1  0
  4 25  1  0
 25 26  2  0
 26  1  1  0
  9  5  1  0
 23 15  2  0
 24  8  1  0
 22 18  2  0
  1 27  1  0
  2 28  1  0
  3 29  1  0
 10 30  1  0
 10 31  1  0
 11 32  1  0
 11 33  1  0
 13 34  1  0
 13 35  1  0
 14 36  1  0
 14 37  1  0
 16 38  1  0
 17 39  1  0
 20 40  1  0
 20 41  1  0
 21 42  1  0
 21 43  1  0
 23 44  1  0
 24 45  1  0
 24 46  1  0
 25 47  1  0
 26 48  1  0
M  END
$$$$
OCNT-2311091
     RDKit          3D

 35 37  0  0  0  0  0  0  0  0999 V2000
   -1.4988   -2.3073    0.3565 O   0  0  0  0  0  0  0  0  0  0  0  0
   -1.1476   -1.4452   -0.4407 C   0  0  0  0  0  0  0  0  0  0  0  0
   -2.0471   -0.8162   -1.2800 N   0  0  0  0  0  0  0  0  0  0  0  0
   -3.4679   -1.0684   -1.1571 C   0  0  0  0  0  0  0  0  0  0  0  0
   -4.1272   -0.0396   -0.2869 C   0  0  0  0  0  0  0  0  0  0  0  0
   -4.7118    1.1115   -0.8241 C   0  0  0  0  0  0  0  0  0  0  0  0
   -5.2952    2.0491    0.0235 C   0  0  0  0  0  0  0  0  0  0  0  0
   -5.2695    1.8074    1.3866 C   0  0  0  0  0  0  0  0  0  0  0  0
   -4.7075    0.7140    1.9424 N   0  0  0  0  0  0  0  0  0  0  0  0
   -4.1473   -0.1819    1.0977 C   0  0  0  0  0  0  0  0  0  0  0  0
    0.2084   -0.9899   -0.5793 C   0  0  0  0  0  0  0  0  0  0  0  0
    1.2418   -0.9293    0.3308 C   0  0  0  0  0  0  0  0  0  0  0  0
    1.1966   -1.4442    2.1372 Br  0  0  0  0  0  0  0  0  0  0  0  0
    2.3668   -0.4020   -0.3589 C   0  0  0  0  0  0  0  0  0  0  0  0
    3.7108   -0.1032    0.1310 C   0  0  0  0  0  0  0  0  0  0  0  0
    3.9069    0.6710    1.2821 C   0  0  0  0  0  0  0  0  0  0  0  0
    5.1991    0.9474    1.7366 C   0  0  0  0  0  0  0  0  0  0  0  0
    6.3041    0.4602    1.0403 C   0  0  0  0  0  0  0  0  0  0  0  0
    6.1206   -0.2982   -0.1144 C   0  0  0  0  0  0  0  0  0  0  0  0
    4.8297   -0.5755   -0.5696 C   0  0  0  0  0  0  0  0  0  0  0  0
    2.0543   -0.1906   -1.6502 N   0  0  0  0  0  0  0  0  0  0  0  0
    0.7731   -0.5670   -1.7495 N   0  0  0  0  0  0  0  0  0  0  0  0
   -1.7870    0.0774   -1.6719 H   0  0  0  0  0  0  0  0  0  0  0  0
   -3.8878   -1.0304   -2.1686 H   0  0  0  0  0  0  0  0  0  0  0  0
   -3.6550   -2.0771   -0.7716 H   0  0  0  0  0  0  0  0  0  0  0  0
   -4.7218    1.2823   -1.8974 H   0  0  0  0  0  0  0  0  0  0  0  0
   -5.7601    2.9470   -0.3679 H   0  0  0  0  0  0  0  0  0  0  0  0
   -5.7121    2.5077    2.0891 H   0  0  0  0  0  0  0  0  0  0  0  0
   -3.6955   -1.0450    1.5834 H   0  0  0  0  0  0  0  0  0  0  0  0
    3.0599    1.0778    1.8288 H   0  0  0  0  0  0  0  0  0  0  0  0
    5.3420    1.5472    2.6317 H   0  0  0  0  0  0  0  0  0  0  0  0
    7.3087    0.6771    1.3942 H   0  0  0  0  0  0  0  0  0  0  0  0
    6.9807   -0.6721   -0.6636 H   0  0  0  0  0  0  0  0  0  0  0  0
    4.6967   -1.1625   -1.4759 H   0  0  0  0  0  0  0  0  0  0  0  0
    0.3391   -0.5317   -2.6654 H   0  0  0  0  0  0  0  0  0  0  0  0
  1  2  2  0
  2  3  1  0
  3  4  1  0
  4  5  1  0
  5  6  1  0
  6  7  2  0
  7  8  1  0
  8  9  2  0
  9 10  1  0
  2 11  1  0
 11 12  2  0
 12 13  1  0
 12 14  1  0
 14 15  1  0
 15 16  2  0
 16 17  1  0
 17 18  2  0
 18 19  1  0
 19 20  2  0
 14 21  2  0
 21 22  1  0
 10  5  2  0
 22 11  1  0
 20 15  1  0
  3 23  1  0
  4 24  1  0
  4 25  1  0
  6 26  1  0
  7 27  1  0
  8 28  1  0
 10 29  1  0
 16 30  1  0
 17 31  1  0
 18 32  1  0
 19 33  1  0
 20 34  1  0
 22 35  1  0
M  END
$$$$
OCNT-2311092
     RDKit          3D

 38 40  0  0  0  0  0  0  0  0999 V2000
   -6.1398    1.3121    0.3630 C   0  0  0  0  0  0  0  0  0  0  0  0
   -5.6301   -0.0964    0.0987 C   0  0  0  0  0  0  0  0  0  0  0  0
   -4.3222   -0.3590    0.7977 C   0  0  0  0  0  0  0  0  0  0  0  0
   -3.1007   -0.1024    0.1496 C   0  0  0  0  0  0  0  0  0  0  0  0
   -1.8813   -0.3281    0.7978 C   0  0  0  0  0  0  0  0  0  0  0  0
   -0.6175   -0.0978    0.2134 N   0  0  0  0  0  0  0  0  0  0  0  0
   -0.3458    0.3740   -1.0583 C   0  0  0  0  0  0  0  0  0  0  0  0
   -1.1800    0.6751   -1.9029 O   0  0  0  0  0  0  0  0  0  0  0  0
    1.0754    0.5037   -1.3644 C   0  0  0  0  0  0  0  0  0  0  0  0
    2.1931    0.2338   -0.5942 C   0  0  0  0  0  0  0  0  0  0  0  0
    3.3079    0.5285   -1.3585 N   0  0  0  0  0  0  0  0  0  0  0  0
    4.6713    0.4110   -0.9944 C   0  0  0  0  0  0  0  0  0  0  0  0
    5.0749   -0.0468    0.2632 C   0  0  0  0  0  0  0  0  0  0  0  0
    6.4368   -0.1363    0.5510 C   0  0  0  0  0  0  0  0  0  0  0  0
    7.3464    0.2342   -0.4258 C   0  0  0  0  0  0  0  0  0  0  0  0
    6.9897    0.6795   -1.6479 N   0  0  0  0  0  0  0  0  0  0  0  0
    5.6608    0.7594   -1.9087 C   0  0  0  0  0  0  0  0  0  0  0  0
    2.9535    0.9759   -2.5859 N   0  0  0  0  0  0  0  0  0  0  0  0
    1.6213    0.9587   -2.5827 C   0  0  0  0  0  0  0  0  0  0  0  0
   -1.8927   -0.8126    2.1137 C   0  0  0  0  0  0  0  0  0  0  0  0
   -3.0997   -1.0635    2.7687 C   0  0  0  0  0  0  0  0  0  0  0  0
   -4.3004   -0.8335    2.1096 C   0  0  0  0  0  0  0  0  0  0  0  0
   -5.4496   -1.0729    2.7566 F   0  0  0  0  0  0  0  0  0  0  0  0
   -7.0880    1.4756   -0.1589 H   0  0  0  0  0  0  0  0  0  0  0  0
   -5.4255    2.0651    0.0130 H   0  0  0  0  0  0  0  0  0  0  0  0
   -6.3079    1.4801    1.4322 H   0  0  0  0  0  0  0  0  0  0  0  0
   -6.3781   -0.8296    0.4240 H   0  0  0  0  0  0  0  0  0  0  0  0
   -5.5095   -0.2486   -0.9809 H   0  0  0  0  0  0  0  0  0  0  0  0
   -3.1363    0.2770   -0.8675 H   0  0  0  0  0  0  0  0  0  0  0  0
    0.1757   -0.3050    0.8004 H   0  0  0  0  0  0  0  0  0  0  0  0
    2.2954   -0.1355    0.4130 H   0  0  0  0  0  0  0  0  0  0  0  0
    4.3697   -0.3387    1.0332 H   0  0  0  0  0  0  0  0  0  0  0  0
    6.7830   -0.4876    1.5171 H   0  0  0  0  0  0  0  0  0  0  0  0
    8.4166    0.1811   -0.2464 H   0  0  0  0  0  0  0  0  0  0  0  0
    5.4246    1.1237   -2.9064 H   0  0  0  0  0  0  0  0  0  0  0  0
    1.0876    1.2789   -3.4705 H   0  0  0  0  0  0  0  0  0  0  0  0
   -0.9660   -0.9998    2.6498 H   0  0  0  0  0  0  0  0  0  0  0  0
   -3.1125   -1.4348    3.7885 H   0  0  0  0  0  0  0  0  0  0  0  0
  1  2  1  0
  2  3  1  0
  3  4  1  0
  4  5  2  0
  5  6  1  0
  6  7  1  0
  7  8  2  0
  7  9  1  0
  9 10  2  0
 10 11  1  0
 11 12  1  0
 12 13  1  0
 13 14  2  0
 14 15  1  0
 15 16  2  0
 16 17  1  0
 11 18  1  0
 18 19  2  0
  5 20  1  0
 20 21  2  0
 21 22  1  0
 22 23  1  0
 22  3  2  0
 19  9  1  0
 17 12  2  0
  1 24  1  0
  1 25  1  0
  1 26  1  0
  2 27  1  0
  2 28  1  0
  4 29  1  0
  6 30  1  0
 10 31  1  0
 13 32  1  0
 14 33  1  0
 15 34  1  0
 17 35  1  0
 19 36  1  0
 20 37  1  0
 21 38  1  0
M  END
$$$$
OCNT-2311094
     RDKit          3D

 39 41  0  0  0  0  0  0  0  0999 V2000
   -2.5056   -2.7726    2.2286 C   0  0  0  0  0  0  0  0  0  0  0  0
   -2.1973   -1.5842    1.3735 C   0  0  0  0  0  0  0  0  0  0  0  0
   -0.9083   -1.3438    1.0831 N   0  0  0  0  0  0  0  0  0  0  0  0
   -0.6306   -0.2894    0.2973 C   0  0  0  0  0  0  0  0  0  0  0  0
    0.7111   -0.0321   -0.0444 N   0  0  0  0  0  0  0  0  0  0  0  0
    1.6788   -0.9542    0.5482 C   0  0  0  0  0  0  0  0  0  0  0  0
    3.0763   -0.5943    0.1003 C   0  0  0  0  0  0  0  0  0  0  0  0
    3.3287   -0.3917   -1.2704 C   0  0  0  0  0  0  0  0  0  0  0  0
    4.6104   -0.0877   -1.7027 C   0  0  0  0  0  0  0  0  0  0  0  0
    4.9723    0.2015   -3.5280 Br  0  0  0  0  0  0  0  0  0  0  0  0
    5.6099   -0.0058   -0.7553 C   0  0  0  0  0  0  0  0  0  0  0  0
    5.4061   -0.2109    0.5666 N   0  0  0  0  0  0  0  0  0  0  0  0
    4.1600   -0.5087    0.9833 C   0  0  0  0  0  0  0  0  0  0  0  0
    4.0277   -0.7261    2.3540 N   0  0  0  0  0  0  0  0  0  0  0  0
   -1.6342    0.5262   -0.2213 C   0  0  0  0  0  0  0  0  0  0  0  0
   -1.3408    1.6576   -1.1710 C   0  0  0  0  0  0  0  0  0  0  0  0
   -2.5237    2.6007   -1.3924 C   0  0  0  0  0  0  0  0  0  0  0  0
   -3.8064    1.8113   -1.6120 C   0  0  0  0  0  0  0  0  0  0  0  0
   -4.1192    0.9755   -0.3752 C   0  0  0  0  0  0  0  0  0  0  0  0
   -2.9379    0.1775    0.1124 C   0  0  0  0  0  0  0  0  0  0  0  0
   -3.2305   -0.8623    0.9182 N   0  0  0  0  0  0  0  0  0  0  0  0
   -3.4121   -2.5993    2.8167 H   0  0  0  0  0  0  0  0  0  0  0  0
   -1.6821   -2.9737    2.9206 H   0  0  0  0  0  0  0  0  0  0  0  0
   -2.6577   -3.6519    1.5961 H   0  0  0  0  0  0  0  0  0  0  0  0
    0.9321    0.9322    0.1860 H   0  0  0  0  0  0  0  0  0  0  0  0
    1.4830   -1.9866    0.2305 H   0  0  0  0  0  0  0  0  0  0  0  0
    1.5998   -0.9108    1.6400 H   0  0  0  0  0  0  0  0  0  0  0  0
    2.5139   -0.4746   -1.9871 H   0  0  0  0  0  0  0  0  0  0  0  0
    6.6352    0.2287   -1.0251 H   0  0  0  0  0  0  0  0  0  0  0  0
    3.6942   -1.6660    2.5401 H   0  0  0  0  0  0  0  0  0  0  0  0
    3.3873   -0.0573    2.7678 H   0  0  0  0  0  0  0  0  0  0  0  0
   -0.4995    2.2571   -0.8054 H   0  0  0  0  0  0  0  0  0  0  0  0
   -1.0466    1.2236   -2.1352 H   0  0  0  0  0  0  0  0  0  0  0  0
   -2.3232    3.2476   -2.2539 H   0  0  0  0  0  0  0  0  0  0  0  0
   -2.6430    3.2567   -0.5205 H   0  0  0  0  0  0  0  0  0  0  0  0
   -3.6946    1.1606   -2.4884 H   0  0  0  0  0  0  0  0  0  0  0  0
   -4.6396    2.4922   -1.8185 H   0  0  0  0  0  0  0  0  0  0  0  0
   -4.4402    1.6345    0.4410 H   0  0  0  0  0  0  0  0  0  0  0  0
   -4.9539    0.3004   -0.5976 H   0  0  0  0  0  0  0  0  0  0  0  0
  1  2  1  0
  2  3  2  0
  3  4  1  0
  4  5  1  0
  5  6  1  0
  6  7  1  0
  7  8  1  0
  8  9  2  0
  9 10  1  0
  9 11  1  0
 11 12  2  0
 12 13  1  0
 13 14  1  0
  4 15  2  0
 15 16  1  0
 16 17  1  0
 17 18  1  0
 18 19  1  0
 19 20  1  0
 20 21  2  0
 21  2  1  0
 13  7  2  0
 20 15  1  0
  1 22  1  0
  1 23  1  0
  1 24  1  0
  5 25  1  0
  6 26  1  0
  6 27  1  0
  8 28  1  0
 11 29  1  0
 14 30  1  0
 14 31  1  0
 16 32  1  0
 16 33  1  0
 17 34  1  0
 17 35  1  0
 18 36  1  0
 18 37  1  0
 19 38  1  0
 19 39  1  0
M  END
$$$$
OCNT-2311101
     RDKit          3D

 44 46  0  0  0  0  0  0  0  0999 V2000
    6.8554    0.0300   -1.6000 O   0  0  0  0  0  0  0  0  0  0  0  0
    5.7765    0.1598   -1.0343 C   0  0  0  0  0  0  0  0  0  0  0  0
    5.6983    0.7416    0.3203 C   0  0  0  0  0  0  0  0  0  0  0  0
    4.5171    0.8773    0.9276 C   0  0  0  0  0  0  0  0  0  0  0  0
    3.3252    0.4219    0.1808 C   0  0  0  0  0  0  0  0  0  0  0  0
    1.9697    0.5778    0.8777 C   0  0  0  0  0  0  0  0  0  0  0  0
    1.8858    1.1512    1.9525 O   0  0  0  0  0  0  0  0  0  0  0  0
    0.9252    0.0264    0.1723 N   0  0  0  0  0  0  0  0  0  0  0  0
   -0.4621    0.2690    0.5287 C   0  0  0  0  0  0  0  0  0  0  0  0
   -0.9276    1.5260   -0.1943 C   0  0  0  0  0  0  0  0  0  0  0  0
   -1.1055    2.7178    0.5284 C   0  0  0  0  0  0  0  0  0  0  0  0
   -1.5155    3.8894   -0.1119 C   0  0  0  0  0  0  0  0  0  0  0  0
   -1.7452    3.8894   -1.4863 C   0  0  0  0  0  0  0  0  0  0  0  0
   -1.5571    2.7184   -2.2157 C   0  0  0  0  0  0  0  0  0  0  0  0
   -1.8286    2.7180   -3.9152 Cl  0  0  0  0  0  0  0  0  0  0  0  0
   -1.1470    1.5445   -1.5820 C   0  0  0  0  0  0  0  0  0  0  0  0
   -1.3341   -0.9872    0.2468 C   0  0  0  0  0  0  0  0  0  0  0  0
   -2.8045   -0.7815    0.6468 C   0  0  0  0  0  0  0  0  0  0  0  0
   -3.6791   -1.9759    0.2526 C   0  0  0  0  0  0  0  0  0  0  0  0
   -2.9274   -3.3059    0.2288 C   0  0  0  0  0  0  0  0  0  0  0  0
   -1.7970   -3.3261    1.2450 C   0  0  0  0  0  0  0  0  0  0  0  0
   -0.7642   -2.2279    0.9777 C   0  0  0  0  0  0  0  0  0  0  0  0
    3.3473   -0.0962   -1.0141 N   0  0  0  0  0  0  0  0  0  0  0  0
    4.5814   -0.2155   -1.5971 N   0  0  0  0  0  0  0  0  0  0  0  0
    6.6313    1.0438    0.7774 H   0  0  0  0  0  0  0  0  0  0  0  0
    4.4030    1.2982    1.9176 H   0  0  0  0  0  0  0  0  0  0  0  0
    1.1499   -0.2770   -0.7708 H   0  0  0  0  0  0  0  0  0  0  0  0
   -0.5011    0.4589    1.6099 H   0  0  0  0  0  0  0  0  0  0  0  0
   -0.9155    2.7420    1.6009 H   0  0  0  0  0  0  0  0  0  0  0  0
   -1.6497    4.8029    0.4624 H   0  0  0  0  0  0  0  0  0  0  0  0
   -2.0627    4.8030   -1.9813 H   0  0  0  0  0  0  0  0  0  0  0  0
   -0.9959    0.6471   -2.1759 H   0  0  0  0  0  0  0  0  0  0  0  0
   -1.3056   -1.2062   -0.8297 H   0  0  0  0  0  0  0  0  0  0  0  0
   -2.8655   -0.6329    1.7330 H   0  0  0  0  0  0  0  0  0  0  0  0
   -3.2269    0.1199    0.1897 H   0  0  0  0  0  0  0  0  0  0  0  0
   -4.5222   -2.0379    0.9515 H   0  0  0  0  0  0  0  0  0  0  0  0
   -4.1168   -1.8034   -0.7382 H   0  0  0  0  0  0  0  0  0  0  0  0
   -2.5146   -3.4746   -0.7738 H   0  0  0  0  0  0  0  0  0  0  0  0
   -3.6269   -4.1275    0.4198 H   0  0  0  0  0  0  0  0  0  0  0  0
   -1.3020   -4.3039    1.2441 H   0  0  0  0  0  0  0  0  0  0  0  0
   -2.2161   -3.1912    2.2503 H   0  0  0  0  0  0  0  0  0  0  0  0
   -0.3135   -1.9431    1.9369 H   0  0  0  0  0  0  0  0  0  0  0  0
    0.0502   -2.6448    0.3711 H   0  0  0  0  0  0  0  0  0  0  0  0
    4.6135   -0.6153   -2.5298 H   0  0  0  0  0  0  0  0  0  0  0  0
  1  2  2  0
  2  3  1  0
  3  4  2  0
  4  5  1  0
  5  6  1  0
  6  7  2  0
  6  8  1  0
  8  9  1  0
  9 10  1  0
 10 11  2  0
 11 12  1  0
 12 13  2  0
 13 14  1  0
 14 15  1  0
 14 16  2  0
  9 17  1  0
 17 18  1  0
 18 19  1  0
 19 20  1  0
 20 21  1  0
 21 22  1  0
  5 23  2  0
 23 24  1  0
 24  2  1  0
 16 10  1  0
 22 17  1  0
  3 25  1  0
  4 26  1  0
  8 27  1  0
  9 28  1  0
 11 29  1  0
 12 30  1  0
 13 31  1  0
 16 32  1  0
 17 33  1  0
 18 34  1  0
 18 35  1  0
 19 36  1  0
 19 37  1  0
 20 38  1  0
 20 39  1  0
 21 40  1  0
 21 41  1  0
 22 42  1  0
 22 43  1  0
 24 44  1  0
M  END
$$$$
OCNT-2311106
     RDKit          3D

 41 44  0  0  0  0  0  0  0  0999 V2000
   -3.4303   -0.9988   -1.9266 C   0  0  0  0  0  0  0  0  0  0  0  0
   -2.4682   -1.1911   -0.8351 N   0  0  0  0  0  0  0  0  0  0  0  0
   -1.5416   -2.3026   -1.1445 C   0  0  0  0  0  0  0  0  0  0  0  0
   -0.2357   -1.8879   -1.8400 C   0  0  0  0  0  0  0  0  0  0  0  0
    0.5156   -0.9127   -1.0544 N   0  0  0  0  0  0  0  0  0  0  0  0
    1.8459   -0.6925   -1.3848 C   0  0  0  0  0  0  0  0  0  0  0  0
    2.4024   -1.2261   -2.3408 O   0  0  0  0  0  0  0  0  0  0  0  0
    2.6397    0.2345   -0.5623 C   0  0  0  0  0  0  0  0  0  0  0  0
    3.1642    1.3963   -1.1585 C   0  0  0  0  0  0  0  0  0  0  0  0
    3.9302    2.2915   -0.4097 C   0  0  0  0  0  0  0  0  0  0  0  0
    4.1991    2.0392    0.9360 C   0  0  0  0  0  0  0  0  0  0  0  0
    4.9359    2.9016    1.6468 F   0  0  0  0  0  0  0  0  0  0  0  0
    3.6912    0.8687    1.4971 C   0  0  0  0  0  0  0  0  0  0  0  0
    2.9218   -0.0518    0.7892 C   0  0  0  0  0  0  0  0  0  0  0  0
    2.6383   -1.0993    1.7100 C   0  0  0  0  0  0  0  0  0  0  0  0
    3.2268   -0.7437    2.9014 C   0  0  0  0  0  0  0  0  0  0  0  0
    3.8651    0.4489    2.7822 O   0  0  0  0  0  0  0  0  0  0  0  0
   -0.2678   -0.1072   -0.1011 C   0  0  0  0  0  0  0  0  0  0  0  0
   -1.7395    0.0892   -0.5634 C   0  0  0  0  0  0  0  0  0  0  0  0
   -2.4648    0.9096    0.4686 C   0  0  0  0  0  0  0  0  0  0  0  0
   -2.3014    2.1935    0.7226 N   0  0  0  0  0  0  0  0  0  0  0  0
   -3.1631    2.4802    1.7504 C   0  0  0  0  0  0  0  0  0  0  0  0
   -3.8596    1.3586    2.1306 C   0  0  0  0  0  0  0  0  0  0  0  0
   -3.4065    0.3672    1.3098 N   0  0  0  0  0  0  0  0  0  0  0  0
   -2.9382   -0.7631   -2.8771 H   0  0  0  0  0  0  0  0  0  0  0  0
   -4.1336   -0.1922   -1.6920 H   0  0  0  0  0  0  0  0  0  0  0  0
   -4.0326   -1.9034   -2.0662 H   0  0  0  0  0  0  0  0  0  0  0  0
   -2.0439   -3.0824   -1.7300 H   0  0  0  0  0  0  0  0  0  0  0  0
   -1.2836   -2.7771   -0.1883 H   0  0  0  0  0  0  0  0  0  0  0  0
    0.3939   -2.7684   -2.0118 H   0  0  0  0  0  0  0  0  0  0  0  0
   -0.4452   -1.4363   -2.8171 H   0  0  0  0  0  0  0  0  0  0  0  0
    2.9704    1.5966   -2.2109 H   0  0  0  0  0  0  0  0  0  0  0  0
    4.3289    3.1919   -0.8691 H   0  0  0  0  0  0  0  0  0  0  0  0
    2.0751   -2.0032    1.5242 H   0  0  0  0  0  0  0  0  0  0  0  0
    3.2858   -1.2074    3.8766 H   0  0  0  0  0  0  0  0  0  0  0  0
   -0.2396   -0.6344    0.8609 H   0  0  0  0  0  0  0  0  0  0  0  0
    0.2093    0.8678    0.0446 H   0  0  0  0  0  0  0  0  0  0  0  0
   -1.6913    0.6791   -1.4906 H   0  0  0  0  0  0  0  0  0  0  0  0
   -3.2363    3.4792    2.1607 H   0  0  0  0  0  0  0  0  0  0  0  0
   -4.6141    1.1880    2.8847 H   0  0  0  0  0  0  0  0  0  0  0  0
   -3.7026   -0.6001    1.2781 H   0  0  0  0  0  0  0  0  0  0  0  0
  1  2  1  0
  2  3  1  0
  3  4  1  0
  4  5  1  0
  5  6  1  0
  6  7  2  0
  6  8  1  0
  8  9  1  0
  9 10  2  0
 10 11  1  0
 11 12  1  0
 11 13  2  0
 13 14  1  0
 14 15  1  0
 15 16  2  0
 16 17  1  0
  5 18  1  0
 18 19  1  0
 19 20  1  0
 20 21  2  0
 21 22  1  0
 22 23  2  0
 23 24  1  0
 19  2  1  0
 24 20  1  0
 14  8  2  0
 17 13  1  0
  1 25  1  0
  1 26  1  0
  1 27  1  0
  3 28  1  0
  3 29  1  0
  4 30  1  0
  4 31  1  0
  9 32  1  0
 10 33  1  0
 15 34  1  0
 16 35  1  0
 18 36  1  0
 18 37  1  0
 19 38  1  0
 22 39  1  0
 23 40  1  0
 24 41  1  0
M  END
$$$$
OCNT-2311111
     RDKit          3D

 39 42  0  0  0  0  0  0  0  0999 V2000
   -4.4211   -2.1630   -0.3206 O   0  0  0  0  0  0  0  0  0  0  0  0
   -4.2040   -0.7483   -0.0876 C   0  0  0  0  0  0  0  0  0  0  0  0
   -2.6249   -0.4249   -0.0366 C   0  0  0  0  0  0  0  0  0  0  0  0
   -1.9165   -0.2222    1.1634 C   0  0  0  0  0  0  0  0  0  0  0  0
   -0.5413    0.0463    1.1819 C   0  0  0  0  0  0  0  0  0  0  0  0
    0.1927    0.1168   -0.0067 C   0  0  0  0  0  0  0  0  0  0  0  0
    1.6374    0.3892    0.0080 C   0  0  0  0  0  0  0  0  0  0  0  0
    2.5285   -0.6720   -0.2454 C   0  0  0  0  0  0  0  0  0  0  0  0
    3.8918   -0.4274   -0.2249 C   0  0  0  0  0  0  0  0  0  0  0  0
    4.4020    0.8401    0.0417 C   0  0  0  0  0  0  0  0  0  0  0  0
    3.5568    1.9089    0.2593 C   0  0  0  0  0  0  0  0  0  0  0  0
    2.1739    1.6794    0.2539 C   0  0  0  0  0  0  0  0  0  0  0  0
    1.1481    3.0486    0.5350 Cl  0  0  0  0  0  0  0  0  0  0  0  0
    5.8120    0.9004   -0.0609 N   0  0  0  0  0  0  0  0  0  0  0  0
    6.2057   -0.5189    0.0021 C   0  0  0  0  0  0  0  0  0  0  0  0
    5.0196   -1.3601   -0.5055 C   0  0  0  0  0  0  0  0  0  0  0  0
   -0.4843   -0.1025   -1.2101 C   0  0  0  0  0  0  0  0  0  0  0  0
   -1.8584   -0.3706   -1.2185 C   0  0  0  0  0  0  0  0  0  0  0  0
   -5.1169   -0.1718    1.0566 C   0  0  0  0  0  0  0  0  0  0  0  0
   -5.3857    1.0504    0.1658 C   0  0  0  0  0  0  0  0  0  0  0  0
   -5.0598    0.1634   -1.0453 C   0  0  0  0  0  0  0  0  0  0  0  0
   -3.8784   -2.6038    0.3551 H   0  0  0  0  0  0  0  0  0  0  0  0
   -2.4380   -0.2727    2.1164 H   0  0  0  0  0  0  0  0  0  0  0  0
   -0.0462    0.2019    2.1385 H   0  0  0  0  0  0  0  0  0  0  0  0
    2.1545   -1.6703   -0.4573 H   0  0  0  0  0  0  0  0  0  0  0  0
    3.9564    2.9042    0.4191 H   0  0  0  0  0  0  0  0  0  0  0  0
    6.2173    1.4904    0.6615 H   0  0  0  0  0  0  0  0  0  0  0  0
    7.1082   -0.6996   -0.5907 H   0  0  0  0  0  0  0  0  0  0  0  0
    6.4336   -0.7799    1.0442 H   0  0  0  0  0  0  0  0  0  0  0  0
    4.9380   -2.3071    0.0347 H   0  0  0  0  0  0  0  0  0  0  0  0
    5.0984   -1.5440   -1.5820 H   0  0  0  0  0  0  0  0  0  0  0  0
    0.0522   -0.0627   -2.1560 H   0  0  0  0  0  0  0  0  0  0  0  0
   -2.3498   -0.5465   -2.1749 H   0  0  0  0  0  0  0  0  0  0  0  0
   -6.0099   -0.7790    1.2519 H   0  0  0  0  0  0  0  0  0  0  0  0
   -4.6510    0.0553    2.0179 H   0  0  0  0  0  0  0  0  0  0  0  0
   -4.6754    1.8714    0.3161 H   0  0  0  0  0  0  0  0  0  0  0  0
   -6.4019    1.4509    0.2021 H   0  0  0  0  0  0  0  0  0  0  0  0
   -5.9339   -0.3431   -1.4727 H   0  0  0  0  0  0  0  0  0  0  0  0
   -4.5297    0.6724   -1.8549 H   0  0  0  0  0  0  0  0  0  0  0  0
  1  2  1  0
  2  3  1  0
  3  4  1  0
  4  5  2  0
  5  6  1  0
  6  7  1  0
  7  8  2  0
  8  9  1  0
  9 10  2  0
 10 11  1  0
 11 12  2  0
 12 13  1  0
 10 14  1  0
 14 15  1  0
 15 16  1  0
  6 17  2  0
 17 18  1  0
  2 19  1  0
 19 20  1  0
 20 21  1  0
 21  2  1  0
 18  3  2  0
 12  7  1  0
 16  9  1  0
  1 22  1  0
  4 23  1  0
  5 24  1  0
  8 25  1  0
 11 26  1  0
 14 27  1  0
 15 28  1  0
 15 29  1  0
 16 30  1  0
 16 31  1  0
 17 32  1  0
 18 33  1  0
 19 34  1  0
 19 35  1  0
 20 36  1  0
 20 37  1  0
 21 38  1  0
 21 39  1  0
M  END
$$$$
OCNT-2311113
     RDKit          3D

 45 47  0  0  0  0  0  0  0  0999 V2000
   -4.4633   -0.7928    2.2031 C   0  0  0  0  0  0  0  0  0  0  0  0
   -3.8418    0.5048    1.6935 C   0  0  0  0  0  0  0  0  0  0  0  0
   -2.6816    0.9489    2.5889 C   0  0  0  0  0  0  0  0  0  0  0  0
   -2.0035    2.1984    2.0318 C   0  0  0  0  0  0  0  0  0  0  0  0
   -1.5191    1.9872    0.6663 N   0  0  0  0  0  0  0  0  0  0  0  0
   -2.6353    1.6105   -0.2430 C   0  0  0  0  0  0  0  0  0  0  0  0
   -2.0756    1.3308   -1.6537 C   0  0  0  0  0  0  0  0  0  0  0  0
   -2.7251    1.5260   -2.6772 O   0  0  0  0  0  0  0  0  0  0  0  0
   -0.8185    0.7773   -1.6447 N   0  0  0  0  0  0  0  0  0  0  0  0
   -0.0905    0.4118   -2.8476 C   0  0  0  0  0  0  0  0  0  0  0  0
    0.4650    1.6433   -3.5509 C   0  0  0  0  0  0  0  0  0  0  0  0
    1.0057   -0.5305   -2.4507 C   0  0  0  0  0  0  0  0  0  0  0  0
    1.2092   -1.7098   -3.0534 N   0  0  0  0  0  0  0  0  0  0  0  0
    2.2661   -2.2606   -2.3243 O   0  0  0  0  0  0  0  0  0  0  0  0
    2.6013   -1.3478   -1.3614 C   0  0  0  0  0  0  0  0  0  0  0  0
    3.7000   -1.6914   -0.4658 C   0  0  0  0  0  0  0  0  0  0  0  0
    4.2292   -0.7084    0.3890 C   0  0  0  0  0  0  0  0  0  0  0  0
    5.2818   -1.0074    1.2567 C   0  0  0  0  0  0  0  0  0  0  0  0
    5.8123   -2.2936    1.2870 C   0  0  0  0  0  0  0  0  0  0  0  0
    7.1060   -2.6621    2.3614 Cl  0  0  0  0  0  0  0  0  0  0  0  0
    5.2991   -3.2853    0.4496 C   0  0  0  0  0  0  0  0  0  0  0  0
    4.2489   -2.9840   -0.4229 C   0  0  0  0  0  0  0  0  0  0  0  0
    1.8607   -0.2622   -1.4025 N   0  0  0  0  0  0  0  0  0  0  0  0
   -3.3520    0.3477    0.2512 C   0  0  0  0  0  0  0  0  0  0  0  0
   -5.3120   -1.0894    1.5788 H   0  0  0  0  0  0  0  0  0  0  0  0
   -3.7372   -1.6134    2.1968 H   0  0  0  0  0  0  0  0  0  0  0  0
   -4.8282   -0.6702    3.2280 H   0  0  0  0  0  0  0  0  0  0  0  0
   -4.6147    1.2849    1.7160 H   0  0  0  0  0  0  0  0  0  0  0  0
   -3.0493    1.1555    3.6002 H   0  0  0  0  0  0  0  0  0  0  0  0
   -1.9435    0.1404    2.6765 H   0  0  0  0  0  0  0  0  0  0  0  0
   -2.6943    3.0502    2.0601 H   0  0  0  0  0  0  0  0  0  0  0  0
   -1.1523    2.4571    2.6705 H   0  0  0  0  0  0  0  0  0  0  0  0
   -1.1152    2.8619    0.3259 H   0  0  0  0  0  0  0  0  0  0  0  0
   -3.3338    2.4526   -0.3232 H   0  0  0  0  0  0  0  0  0  0  0  0
   -0.3214    0.8069   -0.7538 H   0  0  0  0  0  0  0  0  0  0  0  0
   -0.7925   -0.0910   -3.5201 H   0  0  0  0  0  0  0  0  0  0  0  0
    1.0220    1.3622   -4.4515 H   0  0  0  0  0  0  0  0  0  0  0  0
    1.1459    2.2012   -2.9004 H   0  0  0  0  0  0  0  0  0  0  0  0
   -0.3409    2.3240   -3.8479 H   0  0  0  0  0  0  0  0  0  0  0  0
    3.8234    0.3029    0.3754 H   0  0  0  0  0  0  0  0  0  0  0  0
    5.6808   -0.2291    1.9069 H   0  0  0  0  0  0  0  0  0  0  0  0
    5.7094   -4.2917    0.4739 H   0  0  0  0  0  0  0  0  0  0  0  0
    3.8616   -3.7751   -1.0611 H   0  0  0  0  0  0  0  0  0  0  0  0
   -4.2029    0.1310   -0.4072 H   0  0  0  0  0  0  0  0  0  0  0  0
   -2.6839   -0.5218    0.1787 H   0  0  0  0  0  0  0  0  0  0  0  0
  1  2  1  0
  2  3  1  0
  3  4  1  0
  4  5  1  0
  5  6  1  0
  6  7  1  0
  7  8  2  0
  7  9  1  0
  9 10  1  0
 10 11  1  0
 10 12  1  0
 12 13  2  0
 13 14  1  0
 14 15  1  0
 15 16  1  0
 16 17  1  0
 17 18  2  0
 18 19  1  0
 19 20  1  0
 19 21  2  0
 21 22  1  0
 15 23  2  0
  6 24  1  0
 24  2  1  0
 23 12  1  0
 22 16  2  0
  1 25  1  0
  1 26  1  0
  1 27  1  0
  2 28  1  0
  3 29  1  0
  3 30  1  0
  4 31  1  0
  4 32  1  0
  5 33  1  0
  6 34  1  0
  9 35  1  0
 10 36  1  0
 11 37  1  0
 11 38  1  0
 11 39  1  0
 17 40  1  0
 18 41  1  0
 21 42  1  0
 22 43  1  0
 24 44  1  0
 24 45  1  0
M  END
$$$$
OCNT-2311121
     RDKit          3D

 45 47  0  0  0  0  0  0  0  0999 V2000
    0.7786    0.8636    2.6474 C   0  0  0  0  0  0  0  0  0  0  0  0
    2.1561    1.1774    2.9913 N   0  0  0  0  0  0  0  0  0  0  0  0
    3.0925    0.1382    2.5496 C   0  0  0  0  0  0  0  0  0  0  0  0
    3.3204    0.1154    1.0499 C   0  0  0  0  0  0  0  0  0  0  0  0
    4.1030    1.1498    0.4969 C   0  0  0  0  0  0  0  0  0  0  0  0
    4.3645    1.2129   -0.8711 C   0  0  0  0  0  0  0  0  0  0  0  0
    3.8385    0.2495   -1.7183 C   0  0  0  0  0  0  0  0  0  0  0  0
    3.0602   -0.7795   -1.1947 C   0  0  0  0  0  0  0  0  0  0  0  0
    2.7930   -0.8685    0.1871 C   0  0  0  0  0  0  0  0  0  0  0  0
    1.8861   -1.9897    0.6416 C   0  0  0  0  0  0  0  0  0  0  0  0
    0.5114   -1.6492    0.4062 N   0  0  0  0  0  0  0  0  0  0  0  0
   -0.5283   -2.4834    0.7257 C   0  0  0  0  0  0  0  0  0  0  0  0
   -0.4033   -3.5369    1.3382 O   0  0  0  0  0  0  0  0  0  0  0  0
   -1.8609   -1.9970    0.2391 C   0  0  0  0  0  0  0  0  0  0  0  0
   -3.0012   -2.7563    0.4409 C   0  0  0  0  0  0  0  0  0  0  0  0
   -4.1997   -2.2654   -0.0594 C   0  0  0  0  0  0  0  0  0  0  0  0
   -4.2152   -1.0361   -0.7200 C   0  0  0  0  0  0  0  0  0  0  0  0
   -3.0283   -0.3186   -0.8759 C   0  0  0  0  0  0  0  0  0  0  0  0
   -2.9525    0.9993   -1.5407 C   0  0  0  0  0  0  0  0  0  0  0  0
   -3.8775    1.4132   -2.5114 C   0  0  0  0  0  0  0  0  0  0  0  0
   -3.7405    2.6657   -3.0941 C   0  0  0  0  0  0  0  0  0  0  0  0
   -2.7531    3.5327   -2.7902 N   0  0  0  0  0  0  0  0  0  0  0  0
   -1.8611    3.1265   -1.8639 C   0  0  0  0  0  0  0  0  0  0  0  0
   -1.9201    1.8975   -1.2258 C   0  0  0  0  0  0  0  0  0  0  0  0
   -1.8507   -0.7975   -0.4048 N   0  0  0  0  0  0  0  0  0  0  0  0
    0.4788   -0.1166    3.0358 H   0  0  0  0  0  0  0  0  0  0  0  0
    0.6079    0.9019    1.5656 H   0  0  0  0  0  0  0  0  0  0  0  0
    0.1173    1.6091    3.0923 H   0  0  0  0  0  0  0  0  0  0  0  0
    2.2212    1.2570    4.0062 H   0  0  0  0  0  0  0  0  0  0  0  0
    2.8103   -0.8357    2.9522 H   0  0  0  0  0  0  0  0  0  0  0  0
    4.0604    0.3553    3.0165 H   0  0  0  0  0  0  0  0  0  0  0  0
    4.5187    1.9192    1.1510 H   0  0  0  0  0  0  0  0  0  0  0  0
    4.9794    2.0116   -1.2747 H   0  0  0  0  0  0  0  0  0  0  0  0
    4.0292    0.2995   -2.7869 H   0  0  0  0  0  0  0  0  0  0  0  0
    2.6484   -1.5223   -1.8778 H   0  0  0  0  0  0  0  0  0  0  0  0
    2.1091   -2.9056    0.0839 H   0  0  0  0  0  0  0  0  0  0  0  0
    2.0111   -2.2521    1.6920 H   0  0  0  0  0  0  0  0  0  0  0  0
    0.2921   -0.8652   -0.2104 H   0  0  0  0  0  0  0  0  0  0  0  0
   -2.9535   -3.7032    0.9584 H   0  0  0  0  0  0  0  0  0  0  0  0
   -5.1157   -2.8303    0.0649 H   0  0  0  0  0  0  0  0  0  0  0  0
   -5.1611   -0.6517   -1.0888 H   0  0  0  0  0  0  0  0  0  0  0  0
   -4.6954    0.7791   -2.8369 H   0  0  0  0  0  0  0  0  0  0  0  0
   -4.4393    3.0099   -3.8527 H   0  0  0  0  0  0  0  0  0  0  0  0
   -1.0697    3.8306   -1.6380 H   0  0  0  0  0  0  0  0  0  0  0  0
   -1.1612    1.6461   -0.4889 H   0  0  0  0  0  0  0  0  0  0  0  0
  1  2  1  0
  2  3  1  0
  3  4  1  0
  4  5  2  0
  5  6  1  0
  6  7  2  0
  7  8  1  0
  8  9  2  0
  9 10  1  0
 10 11  1  0
 11 12  1  0
 12 13  2  0
 12 14  1  0
 14 15  1  0
 15 16  2  0
 16 17  1  0
 17 18  2  0
 18 19  1  0
 19 20  2  0
 20 21  1  0
 21 22  2  0
 22 23  1  0
 23 24  2  0
 18 25  1  0
  9  4  1  0
 25 14  2  0
 24 19  1  0
  1 26  1  0
  1 27  1  0
  1 28  1  0
  2 29  1  0
  3 30  1  0
  3 31  1  0
  5 32  1  0
  6 33  1  0
  7 34  1  0
  8 35  1  0
 10 36  1  0
 10 37  1  0
 11 38  1  0
 15 39  1  0
 16 40  1  0
 17 41  1  0
 20 42  1  0
 21 43  1  0
 23 44  1  0
 24 45  1  0
M  END
$$$$
OCNT-2311123
     RDKit          3D

 37 40  0  0  0  0  0  0  0  0999 V2000
    2.5885   -1.2617    2.5095 C   0  0  0  0  0  0  0  0  0  0  0  0
    2.4771   -1.3420    0.9841 C   0  0  2  0  0  0  0  0  0  0  0  0
    3.2617   -0.2938    0.2041 C   0  0  0  0  0  0  0  0  0  0  0  0
    3.5544   -0.5337   -1.1538 C   0  0  0  0  0  0  0  0  0  0  0  0
    4.2593    0.4008   -1.9179 C   0  0  0  0  0  0  0  0  0  0  0  0
    4.6824    1.5931   -1.3386 C   0  0  0  0  0  0  0  0  0  0  0  0
    4.3951    1.8399   -0.0030 C   0  0  0  0  0  0  0  0  0  0  0  0
    4.7965    2.9891    0.5560 F   0  0  0  0  0  0  0  0  0  0  0  0
    3.6929    0.9163    0.7688 C   0  0  0  0  0  0  0  0  0  0  0  0
    1.0731   -1.3419    0.5742 N   0  0  0  0  0  0  0  0  0  0  0  0
    0.1779   -0.3089    0.5854 C   0  0  0  0  0  0  0  0  0  0  0  0
   -0.9892   -0.8711    0.1174 C   0  0  0  0  0  0  0  0  0  0  0  0
   -2.2724   -0.2148   -0.0819 C   0  0  0  0  0  0  0  0  0  0  0  0
   -2.4325    1.1668    0.1121 C   0  0  0  0  0  0  0  0  0  0  0  0
   -3.6725    1.7987   -0.0806 C   0  0  0  0  0  0  0  0  0  0  0  0
   -4.7723    1.0225   -0.4774 C   0  0  0  0  0  0  0  0  0  0  0  0
   -6.1351    1.2528   -0.7679 C   0  0  0  0  0  0  0  0  0  0  0  0
   -6.7852    0.1383   -1.1139 N   0  0  0  0  0  0  0  0  0  0  0  0
   -5.8335   -0.8108   -1.0460 N   0  0  0  0  0  0  0  0  0  0  0  0
   -4.6027   -0.3422   -0.6682 C   0  0  0  0  0  0  0  0  0  0  0  0
   -3.3761   -0.9911   -0.4819 C   0  0  0  0  0  0  0  0  0  0  0  0
   -0.7669   -2.2019   -0.1414 N   0  0  0  0  0  0  0  0  0  0  0  0
    0.4974   -2.4801    0.1447 N   0  0  0  0  0  0  0  0  0  0  0  0
    3.6358   -1.2880    2.8294 H   0  0  0  0  0  0  0  0  0  0  0  0
    2.0736   -2.1087    2.9777 H   0  0  0  0  0  0  0  0  0  0  0  0
    2.1324   -0.3492    2.9096 H   0  0  0  0  0  0  0  0  0  0  0  0
    2.8825   -2.3223    0.6945 H   0  0  0  0  0  0  0  0  0  0  0  0
    3.2255   -1.4576   -1.6310 H   0  0  0  0  0  0  0  0  0  0  0  0
    4.4733    0.1970   -2.9644 H   0  0  0  0  0  0  0  0  0  0  0  0
    5.2296    2.3300   -1.9176 H   0  0  0  0  0  0  0  0  0  0  0  0
    3.4964    1.1725    1.8051 H   0  0  0  0  0  0  0  0  0  0  0  0
    0.4477    0.6853    0.9062 H   0  0  0  0  0  0  0  0  0  0  0  0
   -1.5925    1.7871    0.4147 H   0  0  0  0  0  0  0  0  0  0  0  0
   -3.7730    2.8689    0.0743 H   0  0  0  0  0  0  0  0  0  0  0  0
   -6.6777    2.1886   -0.7405 H   0  0  0  0  0  0  0  0  0  0  0  0
   -6.0884   -1.7657   -1.2708 H   0  0  0  0  0  0  0  0  0  0  0  0
   -3.2829   -2.0621   -0.6415 H   0  0  0  0  0  0  0  0  0  0  0  0
  1  2  1  0
  2  3  1  0
  3  4  2  0
  4  5  1  0
  5  6  2  0
  6  7  1  0
  7  8  1  0
  7  9  2  0
  2 10  1  0
 10 11  1  0
 11 12  2  0
 12 13  1  0
 13 14  2  0
 14 15  1  0
 15 16  2  0
 16 17  1  0
 17 18  2  0
 18 19  1  0
 19 20  1  0
 20 21  2  0
 12 22  1  0
 22 23  2  0
  9  3  1  0
 23 10  1  0
 21 13  1  0
 20 16  1  0
  1 24  1  0
  1 25  1  0
  1 26  1  0
  2 27  1  6
  4 28  1  0
  5 29  1  0
  6 30  1  0
  9 31  1  0
 11 32  1  0
 14 33  1  0
 15 34  1  0
 17 35  1  0
 19 36  1  0
 21 37  1  0
M  END
$$$$
OCNT-2311132
     RDKit          3D

 40 43  0  0  0  0  0  0  0  0999 V2000
    5.5071    0.1110   -0.1627 C   0  0  0  0  0  0  0  0  0  0  0  0
    4.5391   -0.8985   -0.4882 N   0  0  0  0  0  0  0  0  0  0  0  0
    4.9324   -2.1127   -0.8983 N   0  0  0  0  0  0  0  0  0  0  0  0
    3.8126   -2.7872   -1.1094 N   0  0  0  0  0  0  0  0  0  0  0  0
    2.7138   -2.0100   -0.8429 N   0  0  0  0  0  0  0  0  0  0  0  0
    3.1704   -0.8337   -0.4611 C   0  0  0  0  0  0  0  0  0  0  0  0
    2.3761    0.3724   -0.0627 C   0  0  0  0  0  0  0  0  0  0  0  0
    2.0805    0.3717    1.4482 C   0  0  0  0  0  0  0  0  0  0  0  0
    0.9387   -0.5757    1.8095 C   0  0  0  0  0  0  0  0  0  0  0  0
   -0.2395   -0.2601    1.0138 N   0  0  0  0  0  0  0  0  0  0  0  0
   -1.2296    0.5368    1.5859 C   0  0  0  0  0  0  0  0  0  0  0  0
   -1.1156    1.0619    2.6926 O   0  0  0  0  0  0  0  0  0  0  0  0
   -2.4722    0.8041    0.8476 C   0  0  0  0  0  0  0  0  0  0  0  0
   -2.9600    2.1143    0.7539 C   0  0  0  0  0  0  0  0  0  0  0  0
   -4.1520    2.3711    0.0866 C   0  0  0  0  0  0  0  0  0  0  0  0
   -4.5882    3.6346   -0.0036 F   0  0  0  0  0  0  0  0  0  0  0  0
   -4.9126    1.3517   -0.4938 C   0  0  0  0  0  0  0  0  0  0  0  0
   -4.4530    0.0277   -0.3815 C   0  0  0  0  0  0  0  0  0  0  0  0
   -3.2534   -0.2107    0.2885 C   0  0  0  0  0  0  0  0  0  0  0  0
   -2.9913   -1.5499    0.3015 O   0  0  0  0  0  0  0  0  0  0  0  0
   -4.0043   -2.1659   -0.3589 C   0  0  0  0  0  0  0  0  0  0  0  0
   -4.9252   -1.2448   -0.8001 C   0  0  0  0  0  0  0  0  0  0  0  0
   -0.0418   -0.4146   -0.4265 C   0  0  0  0  0  0  0  0  0  0  0  0
    1.0853    0.5112   -0.8956 C   0  0  0  0  0  0  0  0  0  0  0  0
    5.2244    0.5843    0.7804 H   0  0  0  0  0  0  0  0  0  0  0  0
    5.5221    0.8460   -0.9709 H   0  0  0  0  0  0  0  0  0  0  0  0
    6.4936   -0.3480   -0.0567 H   0  0  0  0  0  0  0  0  0  0  0  0
    2.9892    1.2567   -0.2826 H   0  0  0  0  0  0  0  0  0  0  0  0
    2.9745    0.1100    2.0264 H   0  0  0  0  0  0  0  0  0  0  0  0
    1.7978    1.3906    1.7443 H   0  0  0  0  0  0  0  0  0  0  0  0
    1.2123   -1.6182    1.6115 H   0  0  0  0  0  0  0  0  0  0  0  0
    0.7138   -0.4998    2.8788 H   0  0  0  0  0  0  0  0  0  0  0  0
   -2.4118    2.9367    1.2058 H   0  0  0  0  0  0  0  0  0  0  0  0
   -5.8402    1.5906   -1.0035 H   0  0  0  0  0  0  0  0  0  0  0  0
   -3.9284   -3.2426   -0.4276 H   0  0  0  0  0  0  0  0  0  0  0  0
   -5.8299   -1.4643   -1.3494 H   0  0  0  0  0  0  0  0  0  0  0  0
    0.1892   -1.4661   -0.6236 H   0  0  0  0  0  0  0  0  0  0  0  0
   -0.9435   -0.1687   -0.9900 H   0  0  0  0  0  0  0  0  0  0  0  0
    1.2854    0.3403   -1.9602 H   0  0  0  0  0  0  0  0  0  0  0  0
    0.7341    1.5480   -0.8032 H   0  0  0  0  0  0  0  0  0  0  0  0
  1  2  1  0
  2  3  1  0
  3  4  2  0
  4  5  1  0
  5  6  2  0
  6  7  1  0
  7  8  1  0
  8  9  1  0
  9 10  1  0
 10 11  1  0
 11 12  2  0
 11 13  1  0
 13 14  1  0
 14 15  2  0
 15 16  1  0
 15 17  1  0
 17 18  2  0
 18 19  1  0
 19 20  1  0
 20 21  1  0
 21 22  2  0
 10 23  1  0
 23 24  1  0
  6  2  1  0
 24  7  1  0
 19 13  2  0
 22 18  1  0
  1 25  1  0
  1 26  1  0
  1 27  1  0
  7 28  1  0
  8 29  1  0
  8 30  1  0
  9 31  1  0
  9 32  1  0
 14 33  1  0
 17 34  1  0
 21 35  1  0
 22 36  1  0
 23 37  1  0
 23 38  1  0
 24 39  1  0
 24 40  1  0
M  END
$$$$
OCNT-2311133
     RDKit          3D

 41 43  0  0  0  0  0  0  0  0999 V2000
   -4.6350   -0.6603   -0.8809 C   0  0  0  0  0  0  0  0  0  0  0  0
   -4.3344    0.1464    0.2961 N   0  0  0  0  0  0  0  0  0  0  0  0
   -3.6703   -0.6761    1.3301 C   0  0  0  0  0  0  0  0  0  0  0  0
   -2.8135    0.1283    2.3385 C   0  0  0  0  0  0  0  0  0  0  0  0
   -1.7693    0.9224    1.6559 N   0  0  0  0  0  0  0  0  0  0  0  0
   -0.4423    0.6766    2.0138 C   0  0  0  0  0  0  0  0  0  0  0  0
   -0.0542    0.5801    3.3571 C   0  0  0  0  0  0  0  0  0  0  0  0
    1.1994    0.2754    3.7754 N   0  0  0  0  0  0  0  0  0  0  0  0
    2.0900    0.0873    2.7823 C   0  0  0  0  0  0  0  0  0  0  0  0
    1.7542    0.2443    1.4506 C   0  0  0  0  0  0  0  0  0  0  0  0
    2.7239   -0.0201    0.5126 O   0  0  0  0  0  0  0  0  0  0  0  0
    2.5784    0.7503   -0.6787 C   0  0  0  0  0  0  0  0  0  0  0  0
    3.2199   -0.0306   -1.8014 C   0  0  0  0  0  0  0  0  0  0  0  0
    2.4489   -0.9130   -2.5748 C   0  0  0  0  0  0  0  0  0  0  0  0
    3.0363   -1.6534   -3.6023 C   0  0  0  0  0  0  0  0  0  0  0  0
    4.3993   -1.5242   -3.8640 C   0  0  0  0  0  0  0  0  0  0  0  0
    5.1743   -0.6566   -3.0921 C   0  0  0  0  0  0  0  0  0  0  0  0
    6.8574   -0.4933   -3.4180 Cl  0  0  0  0  0  0  0  0  0  0  0  0
    4.5958    0.0844   -2.0605 C   0  0  0  0  0  0  0  0  0  0  0  0
    0.4940    0.5322    1.0482 N   0  0  0  0  0  0  0  0  0  0  0  0
   -2.0034    1.1638    0.2222 C   0  0  0  0  0  0  0  0  0  0  0  0
   -3.5160    1.3289   -0.0443 C   0  0  0  0  0  0  0  0  0  0  0  0
   -5.2116   -0.0772   -1.6099 H   0  0  0  0  0  0  0  0  0  0  0  0
   -5.2550   -1.5186   -0.6081 H   0  0  0  0  0  0  0  0  0  0  0  0
   -3.7278   -1.0346   -1.3718 H   0  0  0  0  0  0  0  0  0  0  0  0
   -3.0118   -1.4176    0.8633 H   0  0  0  0  0  0  0  0  0  0  0  0
   -4.4398   -1.2288    1.8792 H   0  0  0  0  0  0  0  0  0  0  0  0
   -2.3959   -0.5849    3.0601 H   0  0  0  0  0  0  0  0  0  0  0  0
   -3.4561    0.8147    2.9033 H   0  0  0  0  0  0  0  0  0  0  0  0
   -0.7665    0.7559    4.1552 H   0  0  0  0  0  0  0  0  0  0  0  0
    3.0893   -0.2051    3.0802 H   0  0  0  0  0  0  0  0  0  0  0  0
    3.1064    1.7056   -0.5421 H   0  0  0  0  0  0  0  0  0  0  0  0
    1.5392    0.9929   -0.9634 H   0  0  0  0  0  0  0  0  0  0  0  0
    1.3779   -1.0266   -2.3798 H   0  0  0  0  0  0  0  0  0  0  0  0
    2.4267   -2.3320   -4.1988 H   0  0  0  0  0  0  0  0  0  0  0  0
    4.8505   -2.1009   -4.6675 H   0  0  0  0  0  0  0  0  0  0  0  0
    5.2131    0.7501   -1.4619 H   0  0  0  0  0  0  0  0  0  0  0  0
   -1.6231    0.3339   -0.3848 H   0  0  0  0  0  0  0  0  0  0  0  0
   -1.4841    2.0776   -0.0925 H   0  0  0  0  0  0  0  0  0  0  0  0
   -3.8827    2.1551    0.5805 H   0  0  0  0  0  0  0  0  0  0  0  0
   -3.6822    1.6478   -1.0820 H   0  0  0  0  0  0  0  0  0  0  0  0
  1  2  1  0
  2  3  1  0
  3  4  1  0
  4  5  1  0
  5  6  1  0
  6  7  2  0
  7  8  1  0
  8  9  2  0
  9 10  1  0
 10 11  1  0
 11 12  1  0
 12 13  1  0
 13 14  2  0
 14 15  1  0
 15 16  2  0
 16 17  1  0
 17 18  1  0
 17 19  2  0
 10 20  2  0
  5 21  1  0
 21 22  1  0
 22  2  1  0
 20  6  1  0
 19 13  1  0
  1 23  1  0
  1 24  1  0
  1 25  1  0
  3 26  1  0
  3 27  1  0
  4 28  1  0
  4 29  1  0
  7 30  1  0
  9 31  1  0
 12 32  1  0
 12 33  1  0
 14 34  1  0
 15 35  1  0
 16 36  1  0
 19 37  1  0
 21 38  1  0
 21 39  1  0
 22 40  1  0
 22 41  1  0
M  END
$$$$
OCNT-2311138
     RDKit          3D

  0  0  0  0  0  0  0  0  0  0999 V3000
M  V30 BEGIN CTAB
M  V30 COUNTS 44 47 0 0 0
M  V30 BEGIN ATOM
M  V30 1 C 6.807931 0.021880 -0.971837 0
M  V30 2 O 5.784798 -0.467167 -0.117059 0
M  V30 3 C 4.518811 0.080142 -0.227568 0
M  V30 4 C 4.159159 1.050156 -1.097179 0
M  V30 5 C 2.800330 1.557537 -1.099086 0
M  V30 6 C 1.860330 1.069439 -0.272702 0
M  V30 7 C 2.188795 0.015183 0.630294 0
M  V30 8 C 1.496580 -0.723266 1.576468 0
M  V30 9 C 0.098365 -0.691261 1.954611 0
M  V30 10 O -0.291930 -1.042635 3.065226 0
M  V30 11 N -0.771585 -0.299474 0.967263 0
M  V30 12 C -2.216159 -0.306724 1.167702 0 CFG=1
M  V30 13 C -2.840633 0.662703 0.182562 0
M  V30 14 C -2.671789 2.044352 0.384233 0
M  V30 15 C -3.200444 2.966708 -0.517237 0
M  V30 16 C -3.902670 2.521355 -1.632427 0
M  V30 17 C -4.075409 1.154294 -1.847374 0
M  V30 18 C -3.540791 0.213714 -0.953166 0
M  V30 19 C -3.796172 -1.252219 -1.205510 0
M  V30 20 C -2.895712 -2.179269 -0.398447 0
M  V30 21 C -2.828281 -1.732326 1.058791 0 CFG=1
M  V30 22 O -2.097610 -2.719089 1.790587 0
M  V30 23 C 2.486687 -1.535413 2.161667 0
M  V30 24 N 3.688454 -1.387128 1.611683 0
M  V30 25 N 3.524451 -0.431507 0.651453 0
M  V30 26 H 7.729212 -0.520700 -0.739876 0
M  V30 27 H 6.991082 1.086673 -0.795022 0
M  V30 28 H 6.563355 -0.164544 -2.022548 0
M  V30 29 H 4.846928 1.498188 -1.803615 0
M  V30 30 H 2.566235 2.367815 -1.784297 0
M  V30 31 H 0.862844 1.498458 -0.279853 0
M  V30 32 H -0.437206 -0.308724 0.013879 0
M  V30 33 H -2.404810 0.048884 2.189582 0
M  V30 34 H -2.121976 2.406043 1.251668 0
M  V30 35 H -3.067002 4.031995 -0.347422 0
M  V30 36 H -4.321790 3.238472 -2.333660 0
M  V30 37 H -4.636679 0.823337 -2.719232 0
M  V30 38 H -3.663878 -1.474364 -2.271247 0
M  V30 39 H -4.843850 -1.459645 -0.953334 0
M  V30 40 H -3.263866 -3.210280 -0.466125 0
M  V30 41 H -1.885794 -2.198789 -0.828826 0
M  V30 42 H -3.844520 -1.716105 1.472813 0
M  V30 43 H -1.720158 -2.287861 2.585849 0
M  V30 44 H 2.366368 -2.248838 2.968317 0
M  V30 END ATOM
M  V30 BEGIN BOND
M  V30 1 1 1 2
M  V30 2 1 2 3
M  V30 3 2 3 4
M  V30 4 1 4 5
M  V30 5 2 5 6
M  V30 6 1 6 7
M  V30 7 2 7 8
M  V30 8 1 8 9
M  V30 9 2 9 10
M  V30 10 1 9 11
M  V30 11 1 11 12
M  V30 12 1 12 13
M  V30 13 2 13 14
M  V30 14 1 14 15
M  V30 15 2 15 16
M  V30 16 1 16 17
M  V30 17 2 17 18
M  V30 18 1 18 19
M  V30 19 1 19 20
M  V30 20 1 20 21
M  V30 21 1 21 22
M  V30 22 1 8 23
M  V30 23 2 23 24
M  V30 24 1 24 25
M  V30 25 1 25 3
M  V30 26 1 25 7
M  V30 27 1 21 12
M  V30 28 1 18 13
M  V30 29 1 1 26
M  V30 30 1 1 27
M  V30 31 1 1 28
M  V30 32 1 4 29
M  V30 33 1 5 30
M  V30 34 1 6 31
M  V30 35 1 11 32
M  V30 36 1 12 33 CFG=1
M  V30 37 1 14 34
M  V30 38 1 15 35
M  V30 39 1 16 36
M  V30 40 1 17 37
M  V30 41 1 19 38
M  V30 42 1 19 39
M  V30 43 1 20 40
M  V30 44 1 20 41
M  V30 45 1 21 42 CFG=1
M  V30 46 1 22 43
M  V30 47 1 23 44
M  V30 END BOND
M  V30 BEGIN COLLECTION
M  V30 MDLV30/STERAC1 ATOMS=(2 12 21)
M  V30 END COLLECTION
M  V30 END CTAB
M  END
>  <_CXSMILES_Data>  (434) 
|&1:11,20|

$$$$
OCNT-2311148
     RDKit          3D

 49 52  0  0  0  0  0  0  0  0999 V2000
   -6.1587   -0.0580   -0.7562 C   0  0  0  0  0  0  0  0  0  0  0  0
   -5.4636    0.0753    0.5649 C   0  0  0  0  0  0  0  0  0  0  0  0
   -6.1982    0.2367    1.7348 C   0  0  0  0  0  0  0  0  0  0  0  0
   -5.6542    0.3444    2.9659 N   0  0  0  0  0  0  0  0  0  0  0  0
   -4.3099    0.2862    3.0345 C   0  0  0  0  0  0  0  0  0  0  0  0
   -3.4828    0.1222    1.9346 C   0  0  0  0  0  0  0  0  0  0  0  0
   -4.0681    0.0078    0.6768 C   0  0  0  0  0  0  0  0  0  0  0  0
   -3.3919   -0.1534   -0.5023 O   0  0  0  0  0  0  0  0  0  0  0  0
   -1.9763   -0.3784   -0.4844 C   0  0  0  0  0  0  0  0  0  0  0  0
   -1.2109    0.9499   -0.4121 C   0  0  0  0  0  0  0  0  0  0  0  0
   -0.8427    1.4701   -1.8003 C   0  0  0  0  0  0  0  0  0  0  0  0
   -0.0600    0.5194   -2.5949 N   0  0  0  0  0  0  0  0  0  0  0  0
    1.3221    0.9339   -2.8633 C   0  0  0  0  0  0  0  0  0  0  0  0
    2.2052    0.8948   -1.6612 C   0  0  0  0  0  0  0  0  0  0  0  0
    3.1772   -0.0206   -1.3168 C   0  0  0  0  0  0  0  0  0  0  0  0
    3.6803    0.4250   -0.1165 N   0  0  0  0  0  0  0  0  0  0  0  0
    4.7007   -0.1446    0.6875 C   0  0  0  0  0  0  0  0  0  0  0  0
    5.0432    0.4648    1.9049 C   0  0  0  0  0  0  0  0  0  0  0  0
    6.0461   -0.0835    2.7078 C   0  0  0  0  0  0  0  0  0  0  0  0
    6.7129   -1.2377    2.3028 C   0  0  0  0  0  0  0  0  0  0  0  0
    6.3785   -1.8474    1.0946 C   0  0  0  0  0  0  0  0  0  0  0  0
    5.3741   -1.3070    0.2857 C   0  0  0  0  0  0  0  0  0  0  0  0
    3.0364    1.5636    0.2421 N   0  0  0  0  0  0  0  0  0  0  0  0
    2.1542    1.8658   -0.6994 N   0  0  0  0  0  0  0  0  0  0  0  0
   -0.2163   -0.8838   -2.2210 C   0  0  0  0  0  0  0  0  0  0  0  0
   -1.6423   -1.1642   -1.7616 C   0  0  0  0  0  0  0  0  0  0  0  0
   -5.7531    0.6547   -1.4797 H   0  0  0  0  0  0  0  0  0  0  0  0
   -7.2328    0.1411   -0.6692 H   0  0  0  0  0  0  0  0  0  0  0  0
   -6.0341   -1.0741   -1.1442 H   0  0  0  0  0  0  0  0  0  0  0  0
   -7.2838    0.2822    1.7166 H   0  0  0  0  0  0  0  0  0  0  0  0
   -3.8939    0.3843    4.0335 H   0  0  0  0  0  0  0  0  0  0  0  0
   -2.4119    0.1006    2.0928 H   0  0  0  0  0  0  0  0  0  0  0  0
   -1.7008   -1.0133    0.3667 H   0  0  0  0  0  0  0  0  0  0  0  0
   -1.7938    1.7162    0.1109 H   0  0  0  0  0  0  0  0  0  0  0  0
   -0.2919    0.7981    0.1666 H   0  0  0  0  0  0  0  0  0  0  0  0
   -1.7702    1.6763   -2.3502 H   0  0  0  0  0  0  0  0  0  0  0  0
   -0.3410    2.4412   -1.7101 H   0  0  0  0  0  0  0  0  0  0  0  0
    1.3303    1.9454   -3.2874 H   0  0  0  0  0  0  0  0  0  0  0  0
    1.7426    0.2892   -3.6457 H   0  0  0  0  0  0  0  0  0  0  0  0
    3.5245   -0.9133   -1.8115 H   0  0  0  0  0  0  0  0  0  0  0  0
    4.5405    1.3684    2.2447 H   0  0  0  0  0  0  0  0  0  0  0  0
    6.3075    0.3932    3.6495 H   0  0  0  0  0  0  0  0  0  0  0  0
    7.4952   -1.6612    2.9295 H   0  0  0  0  0  0  0  0  0  0  0  0
    6.9038   -2.7465    0.7811 H   0  0  0  0  0  0  0  0  0  0  0  0
    5.1492   -1.8135   -0.6466 H   0  0  0  0  0  0  0  0  0  0  0  0
    0.4683   -1.1745   -1.4159 H   0  0  0  0  0  0  0  0  0  0  0  0
    0.0140   -1.5154   -3.0860 H   0  0  0  0  0  0  0  0  0  0  0  0
   -1.7715   -2.2370   -1.5685 H   0  0  0  0  0  0  0  0  0  0  0  0
   -2.3521   -0.9234   -2.5655 H   0  0  0  0  0  0  0  0  0  0  0  0
  1  2  1  0
  2  3  2  0
  3  4  1  0
  4  5  2  0
  5  6  1  0
  6  7  2  0
  7  8  1  0
  8  9  1  0
  9 10  1  0
 10 11  1  0
 11 12  1  0
 12 13  1  0
 13 14  1  0
 14 15  2  0
 15 16  1  0
 16 17  1  0
 17 18  2  0
 18 19  1  0
 19 20  2  0
 20 21  1  0
 21 22  2  0
 16 23  1  0
 23 24  2  0
 12 25  1  0
 25 26  1  0
  7  2  1  0
 26  9  1  0
 24 14  1  0
 22 17  1  0
  1 27  1  0
  1 28  1  0
  1 29  1  0
  3 30  1  0
  5 31  1  0
  6 32  1  0
  9 33  1  0
 10 34  1  0
 10 35  1  0
 11 36  1  0
 11 37  1  0
 13 38  1  0
 13 39  1  0
 15 40  1  0
 18 41  1  0
 19 42  1  0
 20 43  1  0
 21 44  1  0
 22 45  1  0
 25 46  1  0
 25 47  1  0
 26 48  1  0
 26 49  1  0
M  END
$$$$
OCNT-2311155
     RDKit          3D

 42 44  0  0  0  0  0  0  0  0999 V2000
    7.0397    0.2466    1.5403 C   0  0  0  0  0  0  0  0  0  0  0  0
    5.8236    0.3921    0.7065 C   0  0  0  0  0  0  0  0  0  0  0  0
    5.6898   -0.3182   -0.4179 N   0  0  0  0  0  0  0  0  0  0  0  0
    4.4943    0.0613   -0.9116 N   0  0  0  0  0  0  0  0  0  0  0  0
    4.0211   -0.5399   -2.1370 C   0  0  0  0  0  0  0  0  0  0  0  0
    3.8521    0.9874   -0.1283 C   0  0  0  0  0  0  0  0  0  0  0  0
    2.5211    1.5682   -0.4440 C   0  0  0  0  0  0  0  0  0  0  0  0
    1.4754    0.5524   -0.5032 N   0  0  0  0  0  0  0  0  0  0  0  0
    1.1885   -0.0142    0.8197 C   0  0  0  0  0  0  0  0  0  0  0  0
   -0.0503   -0.8492    0.6960 C   0  0  0  0  0  0  0  0  0  0  0  0
   -0.1249   -2.2264    0.7334 C   0  0  0  0  0  0  0  0  0  0  0  0
   -1.7451   -2.7318    0.5357 S   0  0  0  0  0  0  0  0  0  0  0  0
   -2.2526   -1.0879    0.3994 C   0  0  0  0  0  0  0  0  0  0  0  0
   -3.6689   -0.7135    0.1963 C   0  0  0  0  0  0  0  0  0  0  0  0
   -4.0214    0.6468    0.2421 C   0  0  0  0  0  0  0  0  0  0  0  0
   -5.3436    1.0658    0.0560 C   0  0  0  0  0  0  0  0  0  0  0  0
   -6.3564    0.1313   -0.1913 C   0  0  0  0  0  0  0  0  0  0  0  0
   -7.7872    0.5765   -0.3709 C   0  0  0  0  0  0  0  0  0  0  0  0
   -7.8961    1.8104   -0.9379 F   0  0  0  0  0  0  0  0  0  0  0  0
   -8.5119   -0.2610   -1.1643 F   0  0  0  0  0  0  0  0  0  0  0  0
   -8.4591    0.6469    0.8109 F   0  0  0  0  0  0  0  0  0  0  0  0
   -6.0184   -1.2278   -0.2327 C   0  0  0  0  0  0  0  0  0  0  0  0
   -4.6931   -1.6431   -0.0456 C   0  0  0  0  0  0  0  0  0  0  0  0
   -1.2709   -0.2095    0.5046 N   0  0  0  0  0  0  0  0  0  0  0  0
    4.7047    1.2224    0.9317 C   0  0  0  0  0  0  0  0  0  0  0  0
    6.9974    0.9002    2.4173 H   0  0  0  0  0  0  0  0  0  0  0  0
    7.9337    0.5088    0.9655 H   0  0  0  0  0  0  0  0  0  0  0  0
    7.1431   -0.7849    1.8918 H   0  0  0  0  0  0  0  0  0  0  0  0
    3.3416   -1.3549   -1.8772 H   0  0  0  0  0  0  0  0  0  0  0  0
    4.8751   -0.9289   -2.6985 H   0  0  0  0  0  0  0  0  0  0  0  0
    3.5123    0.2168   -2.7381 H   0  0  0  0  0  0  0  0  0  0  0  0
    2.5784    2.0671   -1.4190 H   0  0  0  0  0  0  0  0  0  0  0  0
    2.2586    2.3499    0.2798 H   0  0  0  0  0  0  0  0  0  0  0  0
    0.6099    0.9958   -0.8198 H   0  0  0  0  0  0  0  0  0  0  0  0
    2.0198   -0.6339    1.1735 H   0  0  0  0  0  0  0  0  0  0  0  0
    1.0045    0.7746    1.5590 H   0  0  0  0  0  0  0  0  0  0  0  0
    0.6787   -2.9379    0.8590 H   0  0  0  0  0  0  0  0  0  0  0  0
   -3.2551    1.3990    0.4289 H   0  0  0  0  0  0  0  0  0  0  0  0
   -5.5754    2.1291    0.1035 H   0  0  0  0  0  0  0  0  0  0  0  0
   -6.7880   -1.9775   -0.4152 H   0  0  0  0  0  0  0  0  0  0  0  0
   -4.4865   -2.7096   -0.0975 H   0  0  0  0  0  0  0  0  0  0  0  0
    4.5414    1.9008    1.7571 H   0  0  0  0  0  0  0  0  0  0  0  0
  1  2  1  0
  2  3  2  0
  3  4  1  0
  4  5  1  0
  4  6  1  0
  6  7  1  0
  7  8  1  0
  8  9  1  0
  9 10  1  0
 10 11  2  0
 11 12  1  0
 12 13  1  0
 13 14  1  0
 14 15  1  0
 15 16  2  0
 16 17  1  0
 17 18  1  0
 18 19  1  0
 18 20  1  0
 18 21  1  0
 17 22  2  0
 22 23  1  0
 13 24  2  0
  6 25  2  0
 25  2  1  0
 24 10  1  0
 23 14  2  0
  1 26  1  0
  1 27  1  0
  1 28  1  0
  5 29  1  0
  5 30  1  0
  5 31  1  0
  7 32  1  0
  7 33  1  0
  8 34  1  0
  9 35  1  0
  9 36  1  0
 11 37  1  0
 15 38  1  0
 16 39  1  0
 22 40  1  0
 23 41  1  0
 25 42  1  0
M  END
$$$$
OCNT-2311160
     RDKit          3D

  0  0  0  0  0  0  0  0  0  0999 V3000
M  V30 BEGIN CTAB
M  V30 COUNTS 44 47 0 0 0
M  V30 BEGIN ATOM
M  V30 1 C -5.614198 -1.012966 -0.873258 0
M  V30 2 N -4.265684 -0.740301 -0.426257 0
M  V30 3 C -3.186417 -1.533307 -0.688433 0
M  V30 4 C -2.060295 -0.961865 -0.120116 0
M  V30 5 C -0.731541 -1.553948 -0.239154 0
M  V30 6 O -0.558252 -2.753999 -0.426315 0
M  V30 7 N 0.310062 -0.664283 -0.161609 0
M  V30 8 C 1.700084 -1.086781 -0.317439 0 CFG=1
M  V30 9 C 2.561487 0.077908 -0.788083 0
M  V30 10 C 2.145204 0.848294 -1.891759 0
M  V30 11 C 2.914561 1.915154 -2.355422 0
M  V30 12 C 4.118684 2.222890 -1.732521 0
M  V30 13 C 4.561104 1.453544 -0.657897 0
M  V30 14 C 3.803304 0.367207 -0.191650 0
M  V30 15 C 4.330625 -0.439056 0.968944 0
M  V30 16 C 3.721738 -1.837071 1.031546 0
M  V30 17 C 2.202050 -1.762282 0.989717 0 CFG=1
M  V30 18 O 1.749884 -1.051653 2.154158 0
M  V30 19 C -2.507799 0.222326 0.564773 0
M  V30 20 C -1.884776 1.197271 1.376947 0
M  V30 21 C -2.643518 2.249805 1.889414 0
M  V30 22 F -2.043288 3.172627 2.653376 0
M  V30 23 C -3.999901 2.362907 1.632667 0
M  V30 24 C -4.649690 1.405389 0.853468 0
M  V30 25 C -3.887073 0.342450 0.337387 0
M  V30 26 H -6.253867 -1.124428 0.005954 0
M  V30 27 H -5.627061 -1.935503 -1.459331 0
M  V30 28 H -5.948160 -0.176985 -1.493096 0
M  V30 29 H -3.281438 -2.443490 -1.268743 0
M  V30 30 H 0.118722 0.327206 -0.146496 0
M  V30 31 H 1.745750 -1.841586 -1.114837 0
M  V30 32 H 1.213183 0.615330 -2.403773 0
M  V30 33 H 2.574615 2.503736 -3.203468 0
M  V30 34 H 4.718801 3.056576 -2.087297 0
M  V30 35 H 5.509462 1.700987 -0.184989 0
M  V30 36 H 4.123177 0.108844 1.896166 0
M  V30 37 H 5.419626 -0.540582 0.885826 0
M  V30 38 H 4.085345 -2.445087 0.193867 0
M  V30 39 H 4.051039 -2.320550 1.958811 0
M  V30 40 H 1.783084 -2.772423 1.065745 0
M  V30 41 H 0.783089 -0.983475 2.060372 0
M  V30 42 H -0.831941 1.150454 1.633637 0
M  V30 43 H -4.553966 3.197165 2.052408 0
M  V30 44 H -5.715817 1.483550 0.663751 0
M  V30 END ATOM
M  V30 BEGIN BOND
M  V30 1 1 1 2
M  V30 2 1 2 3
M  V30 3 2 3 4
M  V30 4 1 4 5
M  V30 5 2 5 6
M  V30 6 1 5 7
M  V30 7 1 7 8
M  V30 8 1 8 9
M  V30 9 2 9 10
M  V30 10 1 10 11
M  V30 11 2 11 12
M  V30 12 1 12 13
M  V30 13 2 13 14
M  V30 14 1 14 15
M  V30 15 1 15 16
M  V30 16 1 16 17
M  V30 17 1 17 18
M  V30 18 1 4 19
M  V30 19 2 19 20
M  V30 20 1 20 21
M  V30 21 1 21 22
M  V30 22 2 21 23
M  V30 23 1 23 24
M  V30 24 2 24 25
M  V30 25 1 25 2
M  V30 26 1 17 8
M  V30 27 1 25 19
M  V30 28 1 14 9
M  V30 29 1 1 26
M  V30 30 1 1 27
M  V30 31 1 1 28
M  V30 32 1 3 29
M  V30 33 1 7 30
M  V30 34 1 8 31 CFG=3
M  V30 35 1 10 32
M  V30 36 1 11 33
M  V30 37 1 12 34
M  V30 38 1 13 35
M  V30 39 1 15 36
M  V30 40 1 15 37
M  V30 41 1 16 38
M  V30 42 1 16 39
M  V30 43 1 17 40 CFG=1
M  V30 44 1 18 41
M  V30 45 1 20 42
M  V30 46 1 23 43
M  V30 47 1 24 44
M  V30 END BOND
M  V30 BEGIN COLLECTION
M  V30 MDLV30/STERAC1 ATOMS=(2 8 17)
M  V30 END COLLECTION
M  V30 END CTAB
M  END
>  <_CXSMILES_Data>  (437) 
|&1:7,16|

$$$$
OCNT-2311187
     RDKit          3D

 43 45  0  0  0  0  0  0  0  0999 V2000
    5.8269   -1.1391    0.0482 C   0  0  0  0  0  0  0  0  0  0  0  0
    4.7553   -0.2413   -0.4967 C   0  0  0  0  0  0  0  0  0  0  0  0
    4.4735   -0.2248   -1.8698 C   0  0  0  0  0  0  0  0  0  0  0  0
    3.4648    0.5955   -2.3817 C   0  0  0  0  0  0  0  0  0  0  0  0
    2.7139    1.3977   -1.5247 C   0  0  0  0  0  0  0  0  0  0  0  0
    2.9719    1.3613   -0.1523 C   0  0  0  0  0  0  0  0  0  0  0  0
    2.0227    2.3732    0.9552 S   0  0  0  0  0  0  0  0  0  0  0  0
    1.2546    3.3129    0.1680 O   0  0  0  0  0  0  0  0  0  0  0  0
    2.8990    2.8089    2.0196 O   0  0  0  0  0  0  0  0  0  0  0  0
    0.9530    1.2800    1.6286 N   0  0  0  0  0  0  0  0  0  0  0  0
    0.0392    0.5223    0.7542 C   0  0  0  0  0  0  0  0  0  0  0  0
   -1.0892   -0.0815    1.6127 C   0  0  0  0  0  0  0  0  0  0  0  0
   -0.5039   -0.9589    2.5936 O   0  0  0  0  0  0  0  0  0  0  0  0
   -2.1033   -0.8252    0.7580 C   0  0  0  0  0  0  0  0  0  0  0  0
   -1.8926   -2.1931    0.4914 C   0  0  0  0  0  0  0  0  0  0  0  0
   -2.7864   -2.9184   -0.2874 C   0  0  0  0  0  0  0  0  0  0  0  0
   -3.9026   -2.2878   -0.8254 C   0  0  0  0  0  0  0  0  0  0  0  0
   -4.1353   -0.9234   -0.6051 C   0  0  0  0  0  0  0  0  0  0  0  0
   -5.2621   -0.3098   -1.1770 C   0  0  0  0  0  0  0  0  0  0  0  0
   -5.5137    1.0473   -0.9910 C   0  0  0  0  0  0  0  0  0  0  0  0
   -4.6382    1.8094   -0.2315 C   0  0  0  0  0  0  0  0  0  0  0  0
   -3.5145    1.2130    0.3474 C   0  0  0  0  0  0  0  0  0  0  0  0
   -3.2322   -0.1654    0.1860 C   0  0  0  0  0  0  0  0  0  0  0  0
    3.9903    0.5532    0.3655 C   0  0  0  0  0  0  0  0  0  0  0  0
    5.4033   -2.1160    0.3006 H   0  0  0  0  0  0  0  0  0  0  0  0
    6.6289   -1.2791   -0.6841 H   0  0  0  0  0  0  0  0  0  0  0  0
    6.2796   -0.7062    0.9464 H   0  0  0  0  0  0  0  0  0  0  0  0
    5.0477   -0.8472   -2.5537 H   0  0  0  0  0  0  0  0  0  0  0  0
    3.2680    0.6098   -3.4512 H   0  0  0  0  0  0  0  0  0  0  0  0
    1.9353    2.0400   -1.9301 H   0  0  0  0  0  0  0  0  0  0  0  0
    1.3051    0.7764    2.4447 H   0  0  0  0  0  0  0  0  0  0  0  0
    0.6080   -0.2836    0.2764 H   0  0  0  0  0  0  0  0  0  0  0  0
   -0.3766    1.1742   -0.0206 H   0  0  0  0  0  0  0  0  0  0  0  0
   -1.5800    0.7015    2.1996 H   0  0  0  0  0  0  0  0  0  0  0  0
   -1.2517   -1.3764    3.0578 H   0  0  0  0  0  0  0  0  0  0  0  0
   -1.0183   -2.7046    0.8921 H   0  0  0  0  0  0  0  0  0  0  0  0
   -2.6125   -3.9742   -0.4782 H   0  0  0  0  0  0  0  0  0  0  0  0
   -4.5906   -2.8731   -1.4323 H   0  0  0  0  0  0  0  0  0  0  0  0
   -5.9571   -0.8893   -1.7815 H   0  0  0  0  0  0  0  0  0  0  0  0
   -6.3885    1.5071   -1.4429 H   0  0  0  0  0  0  0  0  0  0  0  0
   -4.8233    2.8711   -0.0878 H   0  0  0  0  0  0  0  0  0  0  0  0
   -2.8587    1.8612    0.9237 H   0  0  0  0  0  0  0  0  0  0  0  0
    4.1903    0.5477    1.4354 H   0  0  0  0  0  0  0  0  0  0  0  0
  1  2  1  0
  2  3  1  0
  3  4  2  0
  4  5  1  0
  5  6  2  0
  6  7  1  0
  7  8  2  0
  7  9  2  0
  7 10  1  0
 10 11  1  0
 11 12  1  0
 12 13  1  0
 12 14  1  0
 14 15  2  0
 15 16  1  0
 16 17  2  0
 17 18  1  0
 18 19  2  0
 19 20  1  0
 20 21  2  0
 21 22  1  0
 22 23  2  0
  6 24  1  0
 24  2  2  0
 23 14  1  0
 23 18  1  0
  1 25  1  0
  1 26  1  0
  1 27  1  0
  3 28  1  0
  4 29  1  0
  5 30  1  0
 10 31  1  0
 11 32  1  0
 11 33  1  0
 12 34  1  0
 13 35  1  0
 15 36  1  0
 16 37  1  0
 17 38  1  0
 19 39  1  0
 20 40  1  0
 21 41  1  0
 22 42  1  0
 24 43  1  0
M  END
$$$$
OCNT-2311194
     RDKit          3D

 48 50  0  0  0  0  0  0  0  0999 V2000
    4.6407    0.7720    0.8253 C   0  0  0  0  0  0  0  0  0  0  0  0
    3.9381   -0.5762    0.6305 C   0  0  0  0  0  0  0  0  0  0  0  0
    3.6763   -1.2848    1.9643 C   0  0  0  0  0  0  0  0  0  0  0  0
    4.8340   -1.4756   -0.2349 C   0  0  0  0  0  0  0  0  0  0  0  0
    2.7152   -0.4286   -0.1358 O   0  0  0  0  0  0  0  0  0  0  0  0
    1.6895    0.3126    0.3390 C   0  0  0  0  0  0  0  0  0  0  0  0
    1.6629    0.9164    1.3987 O   0  0  0  0  0  0  0  0  0  0  0  0
    0.6706    0.2692   -0.5580 N   0  0  0  0  0  0  0  0  0  0  0  0
   -0.5963    0.9281   -0.3421 C   0  0  0  0  0  0  0  0  0  0  0  0
   -1.2041    1.2752   -1.6744 C   0  0  0  0  0  0  0  0  0  0  0  0
   -0.8441    2.3048   -2.5306 C   0  0  0  0  0  0  0  0  0  0  0  0
   -1.5191    2.4238   -3.7468 C   0  0  0  0  0  0  0  0  0  0  0  0
   -2.5294    1.5138   -4.0945 C   0  0  0  0  0  0  0  0  0  0  0  0
   -2.8791    0.4737   -3.2308 C   0  0  0  0  0  0  0  0  0  0  0  0
   -2.2122    0.3719   -2.0216 C   0  0  0  0  0  0  0  0  0  0  0  0
   -2.3914   -0.6639   -0.9555 C   0  0  0  0  0  0  0  0  0  0  0  0
   -1.7094    0.0072    0.2815 C   0  0  0  0  0  0  0  0  0  0  0  0
   -1.1720   -1.0669    1.2474 C   0  0  0  0  0  0  0  0  0  0  0  0
   -2.2948   -1.9181    1.8542 C   0  0  0  0  0  0  0  0  0  0  0  0
   -3.5187   -1.1810    2.1741 N   0  0  0  0  0  0  0  0  0  0  0  0
   -3.2653    0.2446    2.3413 C   0  0  0  0  0  0  0  0  0  0  0  0
   -2.7535    0.8884    1.0482 C   0  0  0  0  0  0  0  0  0  0  0  0
    4.0802    1.4328    1.4933 H   0  0  0  0  0  0  0  0  0  0  0  0
    4.7391    1.3006   -0.1295 H   0  0  0  0  0  0  0  0  0  0  0  0
    5.6394    0.6421    1.2562 H   0  0  0  0  0  0  0  0  0  0  0  0
    4.6136   -1.5456    2.4675 H   0  0  0  0  0  0  0  0  0  0  0  0
    3.0984   -0.6609    2.6526 H   0  0  0  0  0  0  0  0  0  0  0  0
    3.0965   -2.2018    1.8099 H   0  0  0  0  0  0  0  0  0  0  0  0
    5.0141   -1.0186   -1.2151 H   0  0  0  0  0  0  0  0  0  0  0  0
    5.8017   -1.6654    0.2412 H   0  0  0  0  0  0  0  0  0  0  0  0
    4.3483   -2.4392   -0.4280 H   0  0  0  0  0  0  0  0  0  0  0  0
    0.8209   -0.2819   -1.3909 H   0  0  0  0  0  0  0  0  0  0  0  0
   -0.4350    1.8278    0.2618 H   0  0  0  0  0  0  0  0  0  0  0  0
   -0.0535    3.0004   -2.2660 H   0  0  0  0  0  0  0  0  0  0  0  0
   -1.2569    3.2248   -4.4339 H   0  0  0  0  0  0  0  0  0  0  0  0
   -3.0415    1.6187   -5.0481 H   0  0  0  0  0  0  0  0  0  0  0  0
   -3.6555   -0.2332   -3.5055 H   0  0  0  0  0  0  0  0  0  0  0  0
   -3.4487   -0.8895   -0.7872 H   0  0  0  0  0  0  0  0  0  0  0  0
   -1.8693   -1.5794   -1.2570 H   0  0  0  0  0  0  0  0  0  0  0  0
   -0.4652   -1.7376    0.7444 H   0  0  0  0  0  0  0  0  0  0  0  0
   -0.6166   -0.5789    2.0589 H   0  0  0  0  0  0  0  0  0  0  0  0
   -1.9208   -2.3976    2.7662 H   0  0  0  0  0  0  0  0  0  0  0  0
   -2.5518   -2.7335    1.1675 H   0  0  0  0  0  0  0  0  0  0  0  0
   -4.2029   -1.3137    1.4300 H   0  0  0  0  0  0  0  0  0  0  0  0
   -4.1922    0.7418    2.6488 H   0  0  0  0  0  0  0  0  0  0  0  0
   -2.5522    0.4054    3.1596 H   0  0  0  0  0  0  0  0  0  0  0  0
   -3.6093    1.1188    0.4007 H   0  0  0  0  0  0  0  0  0  0  0  0
   -2.3185    1.8571    1.3229 H   0  0  0  0  0  0  0  0  0  0  0  0
  1  2  1  0
  2  3  1  0
  2  4  1  0
  2  5  1  0
  5  6  1  0
  6  7  2  0
  6  8  1  0
  8  9  1  0
  9 10  1  0
 10 11  2  0
 11 12  1  0
 12 13  2  0
 13 14  1  0
 14 15  2  0
 15 16  1  0
 16 17  1  0
 17 18  1  0
 18 19  1  0
 19 20  1  0
 20 21  1  0
 21 22  1  0
 17  9  1  0
 15 10  1  0
 22 17  1  0
  1 23  1  0
  1 24  1  0
  1 25  1  0
  3 26  1  0
  3 27  1  0
  3 28  1  0
  4 29  1  0
  4 30  1  0
  4 31  1  0
  8 32  1  0
  9 33  1  0
 11 34  1  0
 12 35  1  0
 13 36  1  0
 14 37  1  0
 16 38  1  0
 16 39  1  0
 18 40  1  0
 18 41  1  0
 19 42  1  0
 19 43  1  0
 20 44  1  0
 21 45  1  0
 21 46  1  0
 22 47  1  0
 22 48  1  0
M  END
$$$$
OCNT-2311202
     RDKit          3D

 46 48  0  0  0  0  0  0  0  0999 V2000
   -3.2202   -1.4128   -0.8835 C   0  0  0  0  0  0  0  0  0  0  0  0
   -3.7822   -0.2403   -0.1688 N   0  0  0  0  0  0  0  0  0  0  0  0
   -5.1750   -0.3878    0.1732 C   0  0  0  0  0  0  0  0  0  0  0  0
   -5.6064   -1.2294    1.2026 C   0  0  0  0  0  0  0  0  0  0  0  0
   -6.9717   -1.3884    1.4469 C   0  0  0  0  0  0  0  0  0  0  0  0
   -7.9058   -0.7235    0.6525 C   0  0  0  0  0  0  0  0  0  0  0  0
   -7.4773    0.0966   -0.3908 C   0  0  0  0  0  0  0  0  0  0  0  0
   -6.1127    0.2571   -0.6359 C   0  0  0  0  0  0  0  0  0  0  0  0
   -2.8127    0.3644    1.1124 S   0  0  0  0  0  0  0  0  0  0  0  0
   -3.4460    1.5346    1.6854 O   0  0  0  0  0  0  0  0  0  0  0  0
   -2.4060   -0.7482    1.9475 O   0  0  0  0  0  0  0  0  0  0  0  0
   -1.3722    0.9477    0.2441 C   0  0  0  0  0  0  0  0  0  0  0  0
   -1.4424    2.1637   -0.4443 C   0  0  0  0  0  0  0  0  0  0  0  0
   -0.3202    2.6374   -1.1233 C   0  0  0  0  0  0  0  0  0  0  0  0
    0.8695    1.9047   -1.1038 C   0  0  0  0  0  0  0  0  0  0  0  0
    0.9417    0.6986   -0.3904 C   0  0  0  0  0  0  0  0  0  0  0  0
    2.1869   -0.1158   -0.3641 C   0  0  0  0  0  0  0  0  0  0  0  0
    2.0759   -1.3360   -0.3997 O   0  0  0  0  0  0  0  0  0  0  0  0
    3.3551    0.6165   -0.2749 N   0  0  0  0  0  0  0  0  0  0  0  0
    4.6315    0.0869   -0.2672 C   0  0  0  0  0  0  0  0  0  0  0  0
    5.0073   -1.2271   -0.4015 C   0  0  0  0  0  0  0  0  0  0  0  0
    6.3742   -1.2911   -0.3471 N   0  0  0  0  0  0  0  0  0  0  0  0
    6.9021   -0.0335   -0.1552 C   0  0  0  0  0  0  0  0  0  0  0  0
    8.3030    0.2907   -0.0512 C   0  0  0  0  0  0  0  0  0  0  0  0
    9.1322   -0.7545    0.2460 N   0  0  0  0  0  0  0  0  0  0  0  0
    8.7669    1.4182   -0.1779 O   0  0  0  0  0  0  0  0  0  0  0  0
    5.8242    0.8387   -0.1272 C   0  0  0  0  0  0  0  0  0  0  0  0
   -0.1844    0.2138    0.2835 C   0  0  0  0  0  0  0  0  0  0  0  0
   -2.2708   -1.1551   -1.3596 H   0  0  0  0  0  0  0  0  0  0  0  0
   -3.8975   -1.7264   -1.6859 H   0  0  0  0  0  0  0  0  0  0  0  0
   -3.0727   -2.2614   -0.2086 H   0  0  0  0  0  0  0  0  0  0  0  0
   -4.8921   -1.7642    1.8231 H   0  0  0  0  0  0  0  0  0  0  0  0
   -7.3058   -2.0318    2.2569 H   0  0  0  0  0  0  0  0  0  0  0  0
   -8.9686   -0.8465    0.8460 H   0  0  0  0  0  0  0  0  0  0  0  0
   -8.2050    0.6113   -1.0126 H   0  0  0  0  0  0  0  0  0  0  0  0
   -5.7825    0.8936   -1.4517 H   0  0  0  0  0  0  0  0  0  0  0  0
   -2.3679    2.7373   -0.4570 H   0  0  0  0  0  0  0  0  0  0  0  0
   -0.3752    3.5739   -1.6744 H   0  0  0  0  0  0  0  0  0  0  0  0
    1.7217    2.2715   -1.6710 H   0  0  0  0  0  0  0  0  0  0  0  0
    3.2992    1.6179   -0.1456 H   0  0  0  0  0  0  0  0  0  0  0  0
    4.4238   -2.1278   -0.5428 H   0  0  0  0  0  0  0  0  0  0  0  0
    6.9173   -2.1353   -0.4665 H   0  0  0  0  0  0  0  0  0  0  0  0
    8.7771   -1.5506    0.7535 H   0  0  0  0  0  0  0  0  0  0  0  0
   10.0786   -0.4714    0.4680 H   0  0  0  0  0  0  0  0  0  0  0  0
    5.9124    1.9116   -0.0081 H   0  0  0  0  0  0  0  0  0  0  0  0
   -0.1275   -0.7273    0.8283 H   0  0  0  0  0  0  0  0  0  0  0  0
  1  2  1  0
  2  3  1  0
  3  4  2  0
  4  5  1  0
  5  6  2  0
  6  7  1  0
  7  8  2  0
  2  9  1  0
  9 10  2  0
  9 11  2  0
  9 12  1  0
 12 13  2  0
 13 14  1  0
 14 15  2  0
 15 16  1  0
 16 17  1  0
 17 18  2  0
 17 19  1  0
 19 20  1  0
 20 21  2  0
 21 22  1  0
 22 23  1  0
 23 24  1  0
 24 25  1  0
 24 26  2  0
 23 27  2  0
 16 28  2  0
  8  3  1  0
 28 12  1  0
 27 20  1  0
  1 29  1  0
  1 30  1  0
  1 31  1  0
  4 32  1  0
  5 33  1  0
  6 34  1  0
  7 35  1  0
  8 36  1  0
 13 37  1  0
 14 38  1  0
 15 39  1  0
 19 40  1  0
 21 41  1  0
 22 42  1  0
 25 43  1  0
 25 44  1  0
 27 45  1  0
 28 46  1  0
M  END
$$$$
OCNT-2311203
     RDKit          3D

  0  0  0  0  0  0  0  0  0  0999 V3000
M  V30 BEGIN CTAB
M  V30 COUNTS 52 55 0 0 0
M  V30 BEGIN ATOM
M  V30 1 C 7.756443 -0.296358 -2.333500 0
M  V30 2 C 7.190593 1.098452 -2.107310 0
M  V30 3 N 5.839726 1.050008 -1.559953 0
M  V30 4 C 4.781377 0.979440 -2.451226 0
M  V30 5 O 4.904080 0.967139 -3.675168 0
M  V30 6 N 3.526815 0.912882 -1.913721 0
M  V30 7 C 3.265749 0.892432 -0.546829 0
M  V30 8 C 1.947821 0.829069 -0.089921 0
M  V30 9 C 1.696798 0.805454 1.289407 0
M  V30 10 C 0.311582 0.747513 1.828503 0
M  V30 11 O 0.051669 1.260382 2.909103 0
M  V30 12 N -0.612613 0.065601 1.060285 0
M  V30 13 C -1.952002 -0.166346 1.574962 0
M  V30 14 C -2.915703 -0.630819 0.476308 0 CFG=1
M  V30 15 C -2.660806 -2.065151 0.044552 0
M  V30 16 C -3.435038 -2.869291 1.063841 0
M  V30 17 O -4.551479 -2.068918 1.462335 0
M  V30 18 C -4.349406 -0.711420 1.020591 0 CFG=2
M  V30 19 C -5.384375 -0.311587 -0.018436 0
M  V30 20 C -5.532948 1.045336 -0.352166 0
M  V30 21 C -6.464086 1.448388 -1.311429 0
M  V30 22 C -7.260274 0.502131 -1.950764 0
M  V30 23 C -7.130582 -0.846073 -1.626851 0
M  V30 24 C -6.200182 -1.250327 -0.666727 0
M  V30 25 C 2.763395 0.867631 2.196889 0
M  V30 26 C 4.078697 0.924800 1.730801 0
M  V30 27 C 4.324510 0.933897 0.354370 0
M  V30 28 C 5.701743 0.990758 -0.174383 0
M  V30 29 O 6.644419 0.974175 0.613499 0
M  V30 30 H 7.802956 -0.860110 -1.396469 0
M  V30 31 H 7.136428 -0.864496 -3.034094 0
M  V30 32 H 8.768054 -0.233796 -2.745293 0
M  V30 33 H 7.844235 1.649854 -1.422103 0
M  V30 34 H 7.182201 1.646803 -3.056078 0
M  V30 35 H 2.775245 0.878152 -2.590846 0
M  V30 36 H 1.125007 0.828245 -0.798617 0
M  V30 37 H -0.257048 -0.572330 0.360754 0
M  V30 38 H -1.871350 -0.894293 2.390245 0
M  V30 39 H -2.306949 0.775139 2.012042 0
M  V30 40 H -2.820800 0.054571 -0.374873 0
M  V30 41 H -3.094260 -2.225722 -0.950178 0
M  V30 42 H -1.607854 -2.354386 -0.004630 0
M  V30 43 H -3.790835 -3.821997 0.661630 0
M  V30 44 H -2.832483 -3.075195 1.954099 0
M  V30 45 H -4.498867 -0.068968 1.896934 0
M  V30 46 H -4.923953 1.800777 0.139883 0
M  V30 47 H -6.570150 2.501873 -1.557110 0
M  V30 48 H -7.987990 0.814671 -2.695461 0
M  V30 49 H -7.757991 -1.586129 -2.117326 0
M  V30 50 H -6.123800 -2.307929 -0.423555 0
M  V30 51 H 2.570583 0.869539 3.268969 0
M  V30 52 H 4.903698 0.966527 2.439519 0
M  V30 END ATOM
M  V30 BEGIN BOND
M  V30 1 1 1 2
M  V30 2 1 2 3
M  V30 3 1 3 4
M  V30 4 2 4 5
M  V30 5 1 4 6
M  V30 6 1 6 7
M  V30 7 1 7 8
M  V30 8 2 8 9
M  V30 9 1 9 10
M  V30 10 2 10 11
M  V30 11 1 10 12
M  V30 12 1 12 13
M  V30 13 1 13 14
M  V30 14 1 14 15
M  V30 15 1 15 16
M  V30 16 1 16 17
M  V30 17 1 17 18
M  V30 18 1 18 19
M  V30 19 2 19 20
M  V30 20 1 20 21
M  V30 21 2 21 22
M  V30 22 1 22 23
M  V30 23 2 23 24
M  V30 24 1 9 25
M  V30 25 2 25 26
M  V30 26 1 26 27
M  V30 27 1 27 28
M  V30 28 2 28 29
M  V30 29 1 28 3
M  V30 30 2 27 7
M  V30 31 1 18 14
M  V30 32 1 24 19
M  V30 33 1 1 30
M  V30 34 1 1 31
M  V30 35 1 1 32
M  V30 36 1 2 33
M  V30 37 1 2 34
M  V30 38 1 6 35
M  V30 39 1 8 36
M  V30 40 1 12 37
M  V30 41 1 13 38
M  V30 42 1 13 39
M  V30 43 1 14 40 CFG=3
M  V30 44 1 15 41
M  V30 45 1 15 42
M  V30 46 1 16 43
M  V30 47 1 16 44
M  V30 48 1 18 45 CFG=1
M  V30 49 1 20 46
M  V30 50 1 21 47
M  V30 51 1 22 48
M  V30 52 1 23 49
M  V30 53 1 24 50
M  V30 54 1 25 51
M  V30 55 1 26 52
M  V30 END BOND
M  V30 BEGIN COLLECTION
M  V30 MDLV30/STERAC1 ATOMS=(2 14 18)
M  V30 END COLLECTION
M  V30 END CTAB
M  END
>  <_CXSMILES_Data>  (441) 
|&1:13,17|

$$$$
OCNT-2311206
     RDKit          3D

 42 45  0  0  0  0  0  0  0  0999 V2000
    2.6782   -1.8728   -2.2764 O   0  0  0  0  0  0  0  0  0  0  0  0
    2.5084   -0.6785   -1.4764 S   0  0  0  0  0  0  0  0  0  0  0  0
    3.0167    0.5999   -1.9236 O   0  0  0  0  0  0  0  0  0  0  0  0
    0.7685   -0.5106   -1.1631 C   0  0  0  0  0  0  0  0  0  0  0  0
    0.0589   -1.6114   -0.6803 C   0  0  0  0  0  0  0  0  0  0  0  0
   -1.3091   -1.4884   -0.4238 C   0  0  0  0  0  0  0  0  0  0  0  0
   -1.9849   -0.2745   -0.6472 C   0  0  0  0  0  0  0  0  0  0  0  0
   -3.4274   -0.1531   -0.3807 C   0  0  0  0  0  0  0  0  0  0  0  0
   -4.3496   -1.0700   -0.9253 C   0  0  0  0  0  0  0  0  0  0  0  0
   -5.7317   -0.9641   -0.6778 C   0  0  0  0  0  0  0  0  0  0  0  0
   -6.2291    0.0625    0.1231 C   0  0  0  0  0  0  0  0  0  0  0  0
   -5.3228    0.9552    0.6518 C   0  0  0  0  0  0  0  0  0  0  0  0
   -3.9682    0.8561    0.4099 C   0  0  0  0  0  0  0  0  0  0  0  0
   -3.2724    1.8446    1.0459 O   0  0  0  0  0  0  0  0  0  0  0  0
   -4.3346    2.5635    1.7006 C   0  0  0  0  0  0  0  0  0  0  0  0
   -5.6394    2.0075    1.4538 O   0  0  0  0  0  0  0  0  0  0  0  0
   -1.2446    0.8145   -1.1427 C   0  0  0  0  0  0  0  0  0  0  0  0
    0.1239    0.7025   -1.4037 C   0  0  0  0  0  0  0  0  0  0  0  0
    3.1351   -0.9845    0.0793 N   0  0  0  0  0  0  0  0  0  0  0  0
    3.0143    0.1190    1.0823 C   0  0  0  0  0  0  0  0  0  0  0  0
    4.1767    1.1287    0.9968 C   0  0  0  0  0  0  0  0  0  0  0  0
    5.5090    0.4997    1.0542 N   0  0  0  0  0  0  0  0  0  0  0  0
    5.6041   -0.5184   -0.0091 C   0  0  0  0  0  0  0  0  0  0  0  0
    4.5028   -1.5877    0.0943 C   0  0  0  0  0  0  0  0  0  0  0  0
    0.5634   -2.5583   -0.5017 H   0  0  0  0  0  0  0  0  0  0  0  0
   -1.8486   -2.3506   -0.0353 H   0  0  0  0  0  0  0  0  0  0  0  0
   -3.9981   -1.8774   -1.5664 H   0  0  0  0  0  0  0  0  0  0  0  0
   -6.4143   -1.6874   -1.1181 H   0  0  0  0  0  0  0  0  0  0  0  0
   -7.2902    0.1578    0.3239 H   0  0  0  0  0  0  0  0  0  0  0  0
   -4.3233    3.6018    1.3497 H   0  0  0  0  0  0  0  0  0  0  0  0
   -4.1486    2.5569    2.7808 H   0  0  0  0  0  0  0  0  0  0  0  0
   -1.7396    1.7651   -1.3361 H   0  0  0  0  0  0  0  0  0  0  0  0
    0.6691    1.5598   -1.7917 H   0  0  0  0  0  0  0  0  0  0  0  0
    3.0026   -0.3441    2.0773 H   0  0  0  0  0  0  0  0  0  0  0  0
    2.0578    0.6397    0.9804 H   0  0  0  0  0  0  0  0  0  0  0  0
    4.1030    1.7274    0.0828 H   0  0  0  0  0  0  0  0  0  0  0  0
    4.0933    1.8354    1.8302 H   0  0  0  0  0  0  0  0  0  0  0  0
    5.6110    0.0358    1.9569 H   0  0  0  0  0  0  0  0  0  0  0  0
    6.5832   -1.0044    0.0652 H   0  0  0  0  0  0  0  0  0  0  0  0
    5.5727   -0.0268   -0.9883 H   0  0  0  0  0  0  0  0  0  0  0  0
    4.6102   -2.1441    1.0343 H   0  0  0  0  0  0  0  0  0  0  0  0
    4.6138   -2.3261   -0.7061 H   0  0  0  0  0  0  0  0  0  0  0  0
  1  2  2  0
  2  3  2  0
  2  4  1  0
  4  5  1  0
  5  6  2  0
  6  7  1  0
  7  8  1  0
  8  9  2  0
  9 10  1  0
 10 11  2  0
 11 12  1  0
 12 13  2  0
 13 14  1  0
 14 15  1  0
 15 16  1  0
  7 17  2  0
 17 18  1  0
  2 19  1  0
 19 20  1  0
 20 21  1  0
 21 22  1  0
 22 23  1  0
 23 24  1  0
 18  4  2  0
 24 19  1  0
 13  8  1  0
 16 12  1  0
  5 25  1  0
  6 26  1  0
  9 27  1  0
 10 28  1  0
 11 29  1  0
 15 30  1  0
 15 31  1  0
 17 32  1  0
 18 33  1  0
 20 34  1  0
 20 35  1  0
 21 36  1  0
 21 37  1  0
 22 38  1  0
 23 39  1  0
 23 40  1  0
 24 41  1  0
 24 42  1  0
M  END
$$$$
OCNT-2311212
     RDKit          3D

 39 41  0  0  0  0  0  0  0  0999 V2000
   -3.5974    2.1061    0.4695 C   0  0  0  0  0  0  0  0  0  0  0  0
   -2.7378    1.4939   -0.9647 S   0  0  0  0  0  0  0  0  0  0  0  0
   -3.7175    1.3832   -2.0309 O   0  0  0  0  0  0  0  0  0  0  0  0
   -1.5615    2.3198   -1.1598 O   0  0  0  0  0  0  0  0  0  0  0  0
   -2.1901   -0.1756   -0.5627 C   0  0  2  0  0  0  0  0  0  0  0  0
   -3.3748   -1.1177   -0.3317 C   0  0  0  0  0  0  0  0  0  0  0  0
   -2.9165   -2.5685   -0.1742 C   0  0  0  0  0  0  0  0  0  0  0  0
   -1.5683   -2.7061    0.5326 C   0  0  0  0  0  0  0  0  0  0  0  0
   -1.2746   -1.5076    1.4270 C   0  0  0  0  0  0  0  0  0  0  0  0
   -1.1965   -0.1944    0.6178 C   0  0  1  0  0  0  0  0  0  0  0  0
    0.1749    0.0216    0.1606 N   0  0  0  0  0  0  0  0  0  0  0  0
    1.1408    0.5544    0.9855 C   0  0  0  0  0  0  0  0  0  0  0  0
    0.9043    0.8869    2.1435 O   0  0  0  0  0  0  0  0  0  0  0  0
    2.4605    0.6742    0.4055 C   0  0  0  0  0  0  0  0  0  0  0  0
    2.9487    0.4220   -0.8840 C   0  0  0  0  0  0  0  0  0  0  0  0
    4.3024    0.7255   -0.8254 C   0  0  0  0  0  0  0  0  0  0  0  0
    4.6402    1.1414    0.4002 C   0  0  0  0  0  0  0  0  0  0  0  0
    3.5355    1.1292    1.1764 N   0  0  0  0  0  0  0  0  0  0  0  0
    6.2488    1.5303    0.5589 S   0  0  0  0  0  0  0  0  0  0  0  0
    6.4905    1.1188   -1.0992 C   0  0  0  0  0  0  0  0  0  0  0  0
    8.0619    1.2646   -1.7797 Cl  0  0  0  0  0  0  0  0  0  0  0  0
    5.3436    0.6923   -1.7495 C   0  0  0  0  0  0  0  0  0  0  0  0
   -4.4273    1.4399    0.7062 H   0  0  0  0  0  0  0  0  0  0  0  0
   -2.9077    2.1899    1.3087 H   0  0  0  0  0  0  0  0  0  0  0  0
   -3.9868    3.0970    0.2230 H   0  0  0  0  0  0  0  0  0  0  0  0
   -1.6788   -0.5067   -1.4781 H   0  0  0  0  0  0  0  0  0  0  0  0
   -3.9201   -0.8154    0.5707 H   0  0  0  0  0  0  0  0  0  0  0  0
   -4.0962   -1.0607   -1.1547 H   0  0  0  0  0  0  0  0  0  0  0  0
   -3.6847   -3.1207    0.3806 H   0  0  0  0  0  0  0  0  0  0  0  0
   -2.8487   -3.0466   -1.1590 H   0  0  0  0  0  0  0  0  0  0  0  0
   -0.7720   -2.8037   -0.2159 H   0  0  0  0  0  0  0  0  0  0  0  0
   -1.5559   -3.6305    1.1211 H   0  0  0  0  0  0  0  0  0  0  0  0
   -2.0753   -1.4220    2.1732 H   0  0  0  0  0  0  0  0  0  0  0  0
   -0.3487   -1.6840    1.9869 H   0  0  0  0  0  0  0  0  0  0  0  0
   -1.4190    0.6140    1.3209 H   0  0  0  0  0  0  0  0  0  0  0  0
    0.4585   -0.3156   -0.7486 H   0  0  0  0  0  0  0  0  0  0  0  0
    2.3838    0.0757   -1.7380 H   0  0  0  0  0  0  0  0  0  0  0  0
    3.4646    1.3997    2.1499 H   0  0  0  0  0  0  0  0  0  0  0  0
    5.2972    0.3953   -2.7878 H   0  0  0  0  0  0  0  0  0  0  0  0
  1  2  1  0
  2  3  2  0
  2  4  2  0
  2  5  1  0
  5  6  1  0
  6  7  1  0
  7  8  1  0
  8  9  1  0
  9 10  1  0
 10 11  1  0
 11 12  1  0
 12 13  2  0
 12 14  1  0
 14 15  2  0
 15 16  1  0
 16 17  2  0
 17 18  1  0
 17 19  1  0
 19 20  1  0
 20 21  1  0
 20 22  2  0
 10  5  1  0
 18 14  1  0
 22 16  1  0
  1 23  1  0
  1 24  1  0
  1 25  1  0
  5 26  1  6
  6 27  1  0
  6 28  1  0
  7 29  1  0
  7 30  1  0
  8 31  1  0
  8 32  1  0
  9 33  1  0
  9 34  1  0
 10 35  1  1
 11 36  1  0
 15 37  1  0
 18 38  1  0
 22 39  1  0
M  END
$$$$
OCNT-2311225
     RDKit          3D

  0  0  0  0  0  0  0  0  0  0999 V3000
M  V30 BEGIN CTAB
M  V30 COUNTS 43 46 0 0 0
M  V30 BEGIN ATOM
M  V30 1 O -1.042512 1.437863 -2.181414 0
M  V30 2 C -0.719557 0.920934 -1.117809 0
M  V30 3 C -1.741080 0.725746 -0.050766 0 CFG=1
M  V30 4 C -1.947479 1.792995 0.991045 0
M  V30 5 C -3.011515 1.567825 -0.056569 0 CFG=2
M  V30 6 C -4.349146 0.969492 0.343892 0
M  V30 7 C -4.755272 -0.290460 -0.130034 0
M  V30 8 F -3.941174 -0.989333 -0.936609 0
M  V30 9 C -5.982873 -0.864332 0.203865 0
M  V30 10 C -6.864509 -0.178249 1.029677 0
M  V30 11 C -6.510766 1.080536 1.508057 0
M  V30 12 C -5.274441 1.646044 1.164058 0
M  V30 13 Cl -4.930507 3.227694 1.779078 0
M  V30 14 N 0.567947 0.498796 -0.832275 0
M  V30 15 C 1.609385 0.624445 -1.851268 0
M  V30 16 C 2.562561 -0.586023 -1.881991 0
M  V30 17 N 3.075021 -0.939597 -0.542950 0
M  V30 18 C 4.419035 -1.288900 -0.427815 0
M  V30 19 C 5.071146 -2.079490 -1.385301 0
M  V30 20 N 6.376891 -2.453950 -1.320280 0
M  V30 21 C 7.033268 -2.020368 -0.227882 0
M  V30 22 C 6.413856 -1.256702 0.742323 0
M  V30 23 N 5.113372 -0.885342 0.663041 0
M  V30 24 C 2.502048 -0.214131 0.600988 0
M  V30 25 C 0.975491 -0.090081 0.447864 0
M  V30 26 H -1.842549 -0.305484 0.271326 0
M  V30 27 H -2.133875 1.471167 2.009150 0
M  V30 28 H -1.367331 2.706939 0.919568 0
M  V30 29 H -3.077070 2.324082 -0.838701 0
M  V30 30 H -6.238164 -1.843506 -0.190148 0
M  V30 31 H -7.824254 -0.615567 1.292765 0
M  V30 32 H -7.203974 1.625337 2.145316 0
M  V30 33 H 2.173160 1.534317 -1.611048 0
M  V30 34 H 1.168147 0.769325 -2.843032 0
M  V30 35 H 3.372989 -0.350260 -2.582684 0
M  V30 36 H 2.024868 -1.457082 -2.275175 0
M  V30 37 H 4.540618 -2.461687 -2.250643 0
M  V30 38 H 8.075514 -2.306142 -0.148896 0
M  V30 39 H 6.948946 -0.916416 1.621274 0
M  V30 40 H 2.945560 0.787818 0.670422 0
M  V30 41 H 2.703557 -0.744369 1.540011 0
M  V30 42 H 0.515408 -1.084066 0.499308 0
M  V30 43 H 0.569261 0.510185 1.267808 0
M  V30 END ATOM
M  V30 BEGIN BOND
M  V30 1 2 1 2
M  V30 2 1 2 3
M  V30 3 1 3 4
M  V30 4 1 4 5
M  V30 5 1 5 6
M  V30 6 2 6 7
M  V30 7 1 7 8
M  V30 8 1 7 9
M  V30 9 2 9 10
M  V30 10 1 10 11
M  V30 11 2 11 12
M  V30 12 1 12 13
M  V30 13 1 2 14
M  V30 14 1 14 15
M  V30 15 1 15 16
M  V30 16 1 16 17
M  V30 17 1 17 18
M  V30 18 2 18 19
M  V30 19 1 19 20
M  V30 20 2 20 21
M  V30 21 1 21 22
M  V30 22 2 22 23
M  V30 23 1 17 24
M  V30 24 1 24 25
M  V30 25 1 5 3
M  V30 26 1 12 6
M  V30 27 1 25 14
M  V30 28 1 23 18
M  V30 29 1 3 26 CFG=1
M  V30 30 1 4 27
M  V30 31 1 4 28
M  V30 32 1 5 29 CFG=3
M  V30 33 1 9 30
M  V30 34 1 10 31
M  V30 35 1 11 32
M  V30 36 1 15 33
M  V30 37 1 15 34
M  V30 38 1 16 35
M  V30 39 1 16 36
M  V30 40 1 19 37
M  V30 41 1 21 38
M  V30 42 1 22 39
M  V30 43 1 24 40
M  V30 44 1 24 41
M  V30 45 1 25 42
M  V30 46 1 25 43
M  V30 END BOND
M  V30 BEGIN COLLECTION
M  V30 MDLV30/STERAC1 ATOMS=(2 3 5)
M  V30 END COLLECTION
M  V30 END CTAB
M  END
>  <_CXSMILES_Data>  (444) 
|&1:2,4|

$$$$
OCNT-2311229
     RDKit          3D

 50 53  0  0  0  0  0  0  0  0999 V2000
    3.9947   -1.8391    0.9313 C   0  0  0  0  0  0  0  0  0  0  0  0
    3.5981   -0.4335    0.8982 N   0  0  0  0  0  0  0  0  0  0  0  0
    4.5591    0.5319    0.5854 C   0  0  0  0  0  0  0  0  0  0  0  0
    4.3778    1.8754    0.9580 C   0  0  0  0  0  0  0  0  0  0  0  0
    5.3293    2.8608    0.6697 C   0  0  0  0  0  0  0  0  0  0  0  0
    6.5004    2.5226    0.0041 C   0  0  0  0  0  0  0  0  0  0  0  0
    6.7184    1.2003   -0.3642 C   0  0  0  0  0  0  0  0  0  0  0  0
    5.7611    0.2207   -0.0714 C   0  0  0  0  0  0  0  0  0  0  0  0
    2.1701   -0.1073    0.6598 C   0  0  0  0  0  0  0  0  0  0  0  0
    1.3563   -0.3098    1.9474 C   0  0  0  0  0  0  0  0  0  0  0  0
   -0.0358   -0.8891    1.6923 C   0  0  0  0  0  0  0  0  0  0  0  0
   -0.5964   -0.3167    0.4785 N   0  0  0  0  0  0  0  0  0  0  0  0
   -1.9804   -0.3352    0.3435 C   0  0  0  0  0  0  0  0  0  0  0  0
   -2.7401   -0.6462    1.4051 N   0  0  0  0  0  0  0  0  0  0  0  0
   -4.0765   -0.6358    1.2446 C   0  0  0  0  0  0  0  0  0  0  0  0
   -4.7058   -0.3351    0.0592 C   0  0  0  0  0  0  0  0  0  0  0  0
   -6.1973   -0.2976   -0.0582 C   0  0  0  0  0  0  0  0  0  0  0  0
   -6.6752   -0.2942   -1.5108 C   0  0  0  0  0  0  0  0  0  0  0  0
   -5.8710    0.7039   -2.3382 C   0  0  0  0  0  0  0  0  0  0  0  0
   -4.3924    0.3186   -2.3494 C   0  0  0  0  0  0  0  0  0  0  0  0
   -3.8576   -0.0091   -0.9802 C   0  0  0  0  0  0  0  0  0  0  0  0
   -2.5131   -0.0176   -0.8503 N   0  0  0  0  0  0  0  0  0  0  0  0
    0.1447   -0.4734   -0.7716 C   0  0  0  0  0  0  0  0  0  0  0  0
    1.5910   -0.8958   -0.5166 C   0  0  0  0  0  0  0  0  0  0  0  0
    4.9249   -1.9753    1.4947 H   0  0  0  0  0  0  0  0  0  0  0  0
    3.2366   -2.4478    1.4354 H   0  0  0  0  0  0  0  0  0  0  0  0
    4.1279   -2.2384   -0.0795 H   0  0  0  0  0  0  0  0  0  0  0  0
    3.4930    2.1719    1.5157 H   0  0  0  0  0  0  0  0  0  0  0  0
    5.1526    3.8877    0.9777 H   0  0  0  0  0  0  0  0  0  0  0  0
    7.2425    3.2832   -0.2196 H   0  0  0  0  0  0  0  0  0  0  0  0
    7.6330    0.9233   -0.8819 H   0  0  0  0  0  0  0  0  0  0  0  0
    5.9722   -0.7952   -0.3907 H   0  0  0  0  0  0  0  0  0  0  0  0
    2.0623    0.9497    0.3826 H   0  0  0  0  0  0  0  0  0  0  0  0
    1.2552    0.6657    2.4417 H   0  0  0  0  0  0  0  0  0  0  0  0
    1.8762   -0.9491    2.6705 H   0  0  0  0  0  0  0  0  0  0  0  0
    0.0205   -1.9811    1.5975 H   0  0  0  0  0  0  0  0  0  0  0  0
   -0.6409   -0.6736    2.5815 H   0  0  0  0  0  0  0  0  0  0  0  0
   -4.6419   -0.8851    2.1380 H   0  0  0  0  0  0  0  0  0  0  0  0
   -6.5586    0.6097    0.4418 H   0  0  0  0  0  0  0  0  0  0  0  0
   -6.6381   -1.1582    0.4590 H   0  0  0  0  0  0  0  0  0  0  0  0
   -7.7416   -0.0464   -1.5482 H   0  0  0  0  0  0  0  0  0  0  0  0
   -6.5630   -1.2977   -1.9409 H   0  0  0  0  0  0  0  0  0  0  0  0
   -6.2509    0.7370   -3.3652 H   0  0  0  0  0  0  0  0  0  0  0  0
   -5.9918    1.7101   -1.9173 H   0  0  0  0  0  0  0  0  0  0  0  0
   -3.8080    1.1354   -2.7883 H   0  0  0  0  0  0  0  0  0  0  0  0
   -4.2514   -0.5640   -2.9848 H   0  0  0  0  0  0  0  0  0  0  0  0
   -0.3126   -1.2296   -1.4233 H   0  0  0  0  0  0  0  0  0  0  0  0
    0.1396    0.4813   -1.3126 H   0  0  0  0  0  0  0  0  0  0  0  0
    2.1870   -0.7386   -1.4238 H   0  0  0  0  0  0  0  0  0  0  0  0
    1.6162   -1.9735   -0.3112 H   0  0  0  0  0  0  0  0  0  0  0  0
  1  2  1  0
  2  3  1  0
  3  4  2  0
  4  5  1  0
  5  6  2  0
  6  7  1  0
  7  8  2  0
  2  9  1  0
  9 10  1  0
 10 11  1  0
 11 12  1  0
 12 13  1  0
 13 14  2  0
 14 15  1  0
 15 16  2  0
 16 17  1  0
 17 18  1  0
 18 19  1  0
 19 20  1  0
 20 21  1  0
 21 22  2  0
 12 23  1  0
 23 24  1  0
  8  3  1  0
 24  9  1  0
 22 13  1  0
 21 16  1  0
  1 25  1  0
  1 26  1  0
  1 27  1  0
  4 28  1  0
  5 29  1  0
  6 30  1  0
  7 31  1  0
  8 32  1  0
  9 33  1  0
 10 34  1  0
 10 35  1  0
 11 36  1  0
 11 37  1  0
 15 38  1  0
 17 39  1  0
 17 40  1  0
 18 41  1  0
 18 42  1  0
 19 43  1  0
 19 44  1  0
 20 45  1  0
 20 46  1  0
 23 47  1  0
 23 48  1  0
 24 49  1  0
 24 50  1  0
M  END
$$$$
OCNT-2311231
     RDKit          3D

 56 58  0  0  0  0  0  0  0  0999 V2000
    7.0519    0.6290    0.1843 C   0  0  0  0  0  0  0  0  0  0  0  0
    5.8130    0.9919    1.0174 C   0  0  0  0  0  0  0  0  0  0  0  0
    5.7589    2.5146    1.1725 C   0  0  0  0  0  0  0  0  0  0  0  0
    5.9097    0.2797    2.3707 C   0  0  0  0  0  0  0  0  0  0  0  0
    4.6931    0.4985    0.2405 O   0  0  0  0  0  0  0  0  0  0  0  0
    3.4154    0.6482    0.6750 C   0  0  0  0  0  0  0  0  0  0  0  0
    3.1002    1.1935    1.7247 O   0  0  0  0  0  0  0  0  0  0  0  0
    2.5003    0.1014   -0.2087 N   0  0  0  0  0  0  0  0  0  0  0  0
    2.8958   -0.5122   -1.4738 C   0  0  0  0  0  0  0  0  0  0  0  0
    1.7553   -0.5110   -2.4826 C   0  0  0  0  0  0  0  0  0  0  0  0
    0.5025   -1.2103   -1.9495 C   0  0  0  0  0  0  0  0  0  0  0  0
    0.3763   -1.1542   -0.4138 C   0  0  2  0  0  0  0  0  0  0  0  0
   -1.0884   -1.1922    0.0605 C   0  0  0  0  0  0  0  0  0  0  0  0
   -1.7464   -2.4359   -0.3463 N   0  0  0  0  0  0  0  0  0  0  0  0
   -3.1419   -2.5099    0.1132 C   0  0  0  0  0  0  0  0  0  0  0  0
   -4.0296   -1.6013   -0.6789 C   0  0  0  0  0  0  0  0  0  0  0  0
   -4.0876   -1.7030   -2.0209 N   0  0  0  0  0  0  0  0  0  0  0  0
   -4.9819   -0.7254   -2.4411 O   0  0  0  0  0  0  0  0  0  0  0  0
   -5.4334   -0.0627   -1.3564 C   0  0  0  0  0  0  0  0  0  0  0  0
   -4.8756   -0.5696   -0.2126 C   0  0  0  0  0  0  0  0  0  0  0  0
   -5.1793   -0.0200    1.1302 C   0  0  0  0  0  0  0  0  0  0  0  0
   -6.4481    0.8637    1.0808 C   0  0  0  0  0  0  0  0  0  0  0  0
   -6.4762    1.8001   -0.1492 C   0  0  0  0  0  0  0  0  0  0  0  0
   -6.4180    1.0286   -1.4858 C   0  0  0  0  0  0  0  0  0  0  0  0
    1.0848    0.0860    0.1452 C   0  0  0  0  0  0  0  0  0  0  0  0
    7.9786    0.9559    0.6678 H   0  0  0  0  0  0  0  0  0  0  0  0
    7.1085   -0.4529    0.0235 H   0  0  0  0  0  0  0  0  0  0  0  0
    6.9994    1.0859   -0.8105 H   0  0  0  0  0  0  0  0  0  0  0  0
    5.5991    2.9991    0.2030 H   0  0  0  0  0  0  0  0  0  0  0  0
    4.9365    2.8310    1.8205 H   0  0  0  0  0  0  0  0  0  0  0  0
    6.6851    2.9034    1.6078 H   0  0  0  0  0  0  0  0  0  0  0  0
    5.8607   -0.8064    2.2421 H   0  0  0  0  0  0  0  0  0  0  0  0
    5.0869    0.5530    3.0377 H   0  0  0  0  0  0  0  0  0  0  0  0
    6.8440    0.5283    2.8855 H   0  0  0  0  0  0  0  0  0  0  0  0
    3.7569    0.0195   -1.8934 H   0  0  0  0  0  0  0  0  0  0  0  0
    3.2149   -1.5382   -1.2538 H   0  0  0  0  0  0  0  0  0  0  0  0
    1.4996    0.5288   -2.7258 H   0  0  0  0  0  0  0  0  0  0  0  0
    2.0738   -0.9815   -3.4198 H   0  0  0  0  0  0  0  0  0  0  0  0
    0.5183   -2.2624   -2.2612 H   0  0  0  0  0  0  0  0  0  0  0  0
   -0.3740   -0.7615   -2.4328 H   0  0  0  0  0  0  0  0  0  0  0  0
    0.8906   -2.0370   -0.0059 H   0  0  0  0  0  0  0  0  0  0  0  0
   -1.6184   -0.3186   -0.3375 H   0  0  0  0  0  0  0  0  0  0  0  0
   -1.1073   -1.1184    1.1546 H   0  0  0  0  0  0  0  0  0  0  0  0
   -1.7699   -2.4965   -1.3675 H   0  0  0  0  0  0  0  0  0  0  0  0
   -3.2066   -2.2966    1.1865 H   0  0  0  0  0  0  0  0  0  0  0  0
   -3.4923   -3.5407   -0.0199 H   0  0  0  0  0  0  0  0  0  0  0  0
   -4.3296    0.5856    1.4666 H   0  0  0  0  0  0  0  0  0  0  0  0
   -5.3207   -0.8255    1.8585 H   0  0  0  0  0  0  0  0  0  0  0  0
   -6.5140    1.4551    2.0006 H   0  0  0  0  0  0  0  0  0  0  0  0
   -7.3371    0.2191    1.0514 H   0  0  0  0  0  0  0  0  0  0  0  0
   -7.3780    2.4222   -0.1247 H   0  0  0  0  0  0  0  0  0  0  0  0
   -5.6173    2.4813   -0.0881 H   0  0  0  0  0  0  0  0  0  0  0  0
   -7.4031    0.6028   -1.7073 H   0  0  0  0  0  0  0  0  0  0  0  0
   -6.1522    1.7088   -2.3009 H   0  0  0  0  0  0  0  0  0  0  0  0
    0.9771    0.1264    1.2344 H   0  0  0  0  0  0  0  0  0  0  0  0
    0.6395    1.0028   -0.2596 H   0  0  0  0  0  0  0  0  0  0  0  0
  1  2  1  0
  2  3  1  0
  2  4  1  0
  2  5  1  0
  5  6  1  0
  6  7  2  0
  6  8  1  0
  8  9  1  0
  9 10  1  0
 10 11  1  0
 11 12  1  0
 12 13  1  0
 13 14  1  0
 14 15  1  0
 15 16  1  0
 16 17  2  0
 17 18  1  0
 18 19  1  0
 19 20  2  0
 20 21  1  0
 21 22  1  0
 22 23  1  0
 23 24  1  0
 12 25  1  0
 25  8  1  0
 20 16  1  0
 24 19  1  0
  1 26  1  0
  1 27  1  0
  1 28  1  0
  3 29  1  0
  3 30  1  0
  3 31  1  0
  4 32  1  0
  4 33  1  0
  4 34  1  0
  9 35  1  0
  9 36  1  0
 10 37  1  0
 10 38  1  0
 11 39  1  0
 11 40  1  0
 12 41  1  1
 13 42  1  0
 13 43  1  0
 14 44  1  0
 15 45  1  0
 15 46  1  0
 21 47  1  0
 21 48  1  0
 22 49  1  0
 22 50  1  0
 23 51  1  0
 23 52  1  0
 24 53  1  0
 24 54  1  0
 25 55  1  0
 25 56  1  0
M  END
$$$$
OCNT-2311233
     RDKit          3D

 39 41  0  0  0  0  0  0  0  0999 V2000
   -1.8162    1.6217    2.1374 C   0  0  0  0  0  0  0  0  0  0  0  0
   -1.7815    1.4944    0.7157 O   0  0  0  0  0  0  0  0  0  0  0  0
   -2.7511    0.6300    0.2558 C   0  0  0  0  0  0  0  0  0  0  0  0
   -4.0966    0.9888    0.4550 C   0  0  0  0  0  0  0  0  0  0  0  0
   -5.1209    0.1848   -0.0293 C   0  0  0  0  0  0  0  0  0  0  0  0
   -4.8023   -0.9693   -0.7281 C   0  0  0  0  0  0  0  0  0  0  0  0
   -3.4609   -1.3083   -0.9496 C   0  0  0  0  0  0  0  0  0  0  0  0
   -2.3867   -0.5251   -0.4781 C   0  0  0  0  0  0  0  0  0  0  0  0
   -1.0851   -0.9049   -0.7419 N   0  0  0  0  0  0  0  0  0  0  0  0
   -0.7106   -1.9848   -1.6504 C   0  0  0  0  0  0  0  0  0  0  0  0
    0.7883   -1.7938   -1.8596 C   0  0  0  0  0  0  0  0  0  0  0  0
    1.2521   -1.2608   -0.5118 C   0  0  0  0  0  0  0  0  0  0  0  0
    2.5481   -0.6086   -0.5842 N   0  0  0  0  0  0  0  0  0  0  0  0
    3.2308   -0.2996    0.5674 C   0  0  0  0  0  0  0  0  0  0  0  0
    2.9082   -0.6637    1.6887 O   0  0  0  0  0  0  0  0  0  0  0  0
    4.4380    0.5225    0.3555 C   0  0  0  0  0  0  0  0  0  0  0  0
    4.9255    1.4531    1.4441 C   0  0  0  0  0  0  0  0  0  0  0  0
    4.3325    2.0148    0.1875 C   0  0  0  0  0  0  0  0  0  0  0  0
    5.4230    2.7709   -0.9726 Cl  0  0  0  0  0  0  0  0  0  0  0  0
    2.7778    2.8228    0.3025 Cl  0  0  0  0  0  0  0  0  0  0  0  0
    0.0970   -0.3236   -0.1007 C   0  0  0  0  0  0  0  0  0  0  0  0
   -2.5874    2.3350    2.4439 H   0  0  0  0  0  0  0  0  0  0  0  0
   -1.9667    0.6552    2.6322 H   0  0  0  0  0  0  0  0  0  0  0  0
   -0.8478    2.0170    2.4593 H   0  0  0  0  0  0  0  0  0  0  0  0
   -4.3468    1.9108    0.9710 H   0  0  0  0  0  0  0  0  0  0  0  0
   -6.1586    0.4635    0.1289 H   0  0  0  0  0  0  0  0  0  0  0  0
   -5.5915   -1.6091   -1.1140 H   0  0  0  0  0  0  0  0  0  0  0  0
   -3.2721   -2.2233   -1.5039 H   0  0  0  0  0  0  0  0  0  0  0  0
   -1.2316   -1.9278   -2.6122 H   0  0  0  0  0  0  0  0  0  0  0  0
   -0.9116   -2.9567   -1.1849 H   0  0  0  0  0  0  0  0  0  0  0  0
    1.2925   -2.7215   -2.1467 H   0  0  0  0  0  0  0  0  0  0  0  0
    0.9659   -1.0561   -2.6527 H   0  0  0  0  0  0  0  0  0  0  0  0
    1.3171   -2.0879    0.2078 H   0  0  0  0  0  0  0  0  0  0  0  0
    2.7779   -0.1010   -1.4296 H   0  0  0  0  0  0  0  0  0  0  0  0
    5.2160    0.0070   -0.1983 H   0  0  0  0  0  0  0  0  0  0  0  0
    5.9946    1.5352    1.5968 H   0  0  0  0  0  0  0  0  0  0  0  0
    4.3497    1.5135    2.3613 H   0  0  0  0  0  0  0  0  0  0  0  0
    0.0155   -0.3046    0.9910 H   0  0  0  0  0  0  0  0  0  0  0  0
    0.2757    0.6896   -0.4788 H   0  0  0  0  0  0  0  0  0  0  0  0
  1  2  1  0
  2  3  1  0
  3  4  2  0
  4  5  1  0
  5  6  2  0
  6  7  1  0
  7  8  2  0
  8  9  1  0
  9 10  1  0
 10 11  1  0
 11 12  1  0
 12 13  1  0
 13 14  1  0
 14 15  2  0
 14 16  1  0
 16 17  1  0
 17 18  1  0
 18 19  1  0
 18 20  1  0
 12 21  1  0
  8  3  1  0
 21  9  1  0
 18 16  1  0
  1 22  1  0
  1 23  1  0
  1 24  1  0
  4 25  1  0
  5 26  1  0
  6 27  1  0
  7 28  1  0
 10 29  1  0
 10 30  1  0
 11 31  1  0
 11 32  1  0
 12 33  1  0
 13 34  1  0
 16 35  1  0
 17 36  1  0
 17 37  1  0
 21 38  1  0
 21 39  1  0
M  END
$$$$
OCNT-2311240
     RDKit          3D

 40 42  0  0  0  0  0  0  0  0999 V2000
    1.1636    1.3028    1.6334 O   0  0  0  0  0  0  0  0  0  0  0  0
    0.9532    0.2868    0.9812 C   0  0  0  0  0  0  0  0  0  0  0  0
   -0.2824   -0.1741    0.5555 N   0  0  0  0  0  0  0  0  0  0  0  0
   -1.5382    0.4492    0.7278 C   0  0  0  0  0  0  0  0  0  0  0  0
   -1.7171    1.6871    1.3443 C   0  0  0  0  0  0  0  0  0  0  0  0
   -2.9953    2.2369    1.4676 C   0  0  0  0  0  0  0  0  0  0  0  0
   -4.1068    1.5543    0.9735 C   0  0  0  0  0  0  0  0  0  0  0  0
   -3.9522    0.3120    0.3495 C   0  0  0  0  0  0  0  0  0  0  0  0
   -5.0983   -0.4162   -0.1671 C   0  0  0  0  0  0  0  0  0  0  0  0
   -6.2402    0.1579   -0.6854 C   0  0  0  0  0  0  0  0  0  0  0  0
   -7.0499   -0.8719   -1.0701 N   0  0  0  0  0  0  0  0  0  0  0  0
   -6.5179   -2.0833   -0.8435 N   0  0  0  0  0  0  0  0  0  0  0  0
   -5.3331   -1.8056   -0.2934 C   0  0  0  0  0  0  0  0  0  0  0  0
   -2.6623   -0.2311    0.2337 C   0  0  0  0  0  0  0  0  0  0  0  0
    2.0823   -0.6515    0.5967 C   0  0  0  0  0  0  0  0  0  0  0  0
    2.2117   -0.8484   -0.9150 C   0  0  0  0  0  0  0  0  0  0  0  0
    3.6917   -1.0467   -1.1219 C   0  0  0  0  0  0  0  0  0  0  0  0
    4.2189   -1.3970   -2.1632 O   0  0  0  0  0  0  0  0  0  0  0  0
    4.3426   -0.7396    0.0629 N   0  0  0  0  0  0  0  0  0  0  0  0
    5.7938   -0.5371    0.1111 C   0  0  0  0  0  0  0  0  0  0  0  0
    6.2868    0.8457   -0.3218 C   0  0  0  0  0  0  0  0  0  0  0  0
    5.8536    1.1891   -1.5518 F   0  0  0  0  0  0  0  0  0  0  0  0
    5.8680    1.7994    0.5432 F   0  0  0  0  0  0  0  0  0  0  0  0
    7.6396    0.8849   -0.3345 F   0  0  0  0  0  0  0  0  0  0  0  0
    3.4451   -0.1006    0.9945 C   0  0  0  0  0  0  0  0  0  0  0  0
   -0.3032   -1.0684    0.0809 H   0  0  0  0  0  0  0  0  0  0  0  0
   -0.8833    2.2577    1.7408 H   0  0  0  0  0  0  0  0  0  0  0  0
   -3.1218    3.2014    1.9537 H   0  0  0  0  0  0  0  0  0  0  0  0
   -5.0908    2.0003    1.0951 H   0  0  0  0  0  0  0  0  0  0  0  0
   -6.5444    1.1851   -0.8262 H   0  0  0  0  0  0  0  0  0  0  0  0
   -7.9700   -0.8221   -1.4954 H   0  0  0  0  0  0  0  0  0  0  0  0
   -4.6916   -2.6275   -0.0033 H   0  0  0  0  0  0  0  0  0  0  0  0
   -2.5347   -1.1907   -0.2610 H   0  0  0  0  0  0  0  0  0  0  0  0
    1.9200   -1.6201    1.0878 H   0  0  0  0  0  0  0  0  0  0  0  0
    1.8855    0.0288   -1.4831 H   0  0  0  0  0  0  0  0  0  0  0  0
    1.6636   -1.7333   -1.2506 H   0  0  0  0  0  0  0  0  0  0  0  0
    6.2544   -1.2872   -0.5417 H   0  0  0  0  0  0  0  0  0  0  0  0
    6.1210   -0.7455    1.1352 H   0  0  0  0  0  0  0  0  0  0  0  0
    3.5205    0.9841    0.8623 H   0  0  0  0  0  0  0  0  0  0  0  0
    3.7176   -0.3655    2.0204 H   0  0  0  0  0  0  0  0  0  0  0  0
  1  2  2  0
  2  3  1  0
  3  4  1  0
  4  5  2  0
  5  6  1  0
  6  7  2  0
  7  8  1  0
  8  9  1  0
  9 10  2  0
 10 11  1  0
 11 12  1  0
 12 13  2  0
  8 14  2  0
  2 15  1  0
 15 16  1  0
 16 17  1  0
 17 18  2  0
 17 19  1  0
 19 20  1  0
 20 21  1  0
 21 22  1  0
 21 23  1  0
 21 24  1  0
 19 25  1  0
 14  4  1  0
 25 15  1  0
 13  9  1  0
  3 26  1  0
  5 27  1  0
  6 28  1  0
  7 29  1  0
 10 30  1  0
 11 31  1  0
 13 32  1  0
 14 33  1  0
 15 34  1  0
 16 35  1  0
 16 36  1  0
 20 37  1  0
 20 38  1  0
 25 39  1  0
 25 40  1  0
M  END
$$$$
OCNT-2311245
     RDKit          3D

 44 46  0  0  0  0  0  0  0  0999 V2000
   -1.6524   -1.0974    1.5339 O   0  0  0  0  0  0  0  0  0  0  0  0
   -1.9475   -0.8306    0.3777 C   0  0  0  0  0  0  0  0  0  0  0  0
   -1.0329   -0.7390   -0.6515 N   0  0  0  0  0  0  0  0  0  0  0  0
    0.3948   -0.8953   -0.4290 C   0  0  0  0  0  0  0  0  0  0  0  0
    1.1502    0.4612   -0.4173 C   0  0  0  0  0  0  0  0  0  0  0  0
    0.8105    1.3223    0.7980 C   0  0  0  0  0  0  0  0  0  0  0  0
    1.7425    0.8148    1.8869 C   0  0  0  0  0  0  0  0  0  0  0  0
    2.8722    0.1082    1.1413 C   0  0  0  0  0  0  0  0  0  0  0  0
    2.6233    0.3886   -0.2787 N   0  0  0  0  0  0  0  0  0  0  0  0
    3.2716   -0.5393   -1.2043 C   0  0  0  0  0  0  0  0  0  0  0  0
    4.6928   -0.1408   -1.6140 C   0  0  0  0  0  0  0  0  0  0  0  0
    5.7166   -0.1391   -0.4918 C   0  0  0  0  0  0  0  0  0  0  0  0
    7.0205   -0.0638   -1.0615 O   0  0  0  0  0  0  0  0  0  0  0  0
   -3.3519   -0.5708   -0.0124 C   0  0  0  0  0  0  0  0  0  0  0  0
   -3.8918   -1.2361   -1.1259 C   0  0  0  0  0  0  0  0  0  0  0  0
   -5.2036   -1.0105   -1.5145 C   0  0  0  0  0  0  0  0  0  0  0  0
   -6.0011   -0.1180   -0.7958 C   0  0  0  0  0  0  0  0  0  0  0  0
   -5.4893    0.5672    0.3346 C   0  0  0  0  0  0  0  0  0  0  0  0
   -4.1606    0.3299    0.7183 C   0  0  0  0  0  0  0  0  0  0  0  0
   -3.7496    1.2876    2.1000 S   0  0  0  0  0  0  0  0  0  0  0  0
   -5.3024    1.9755    2.1959 C   0  0  0  0  0  0  0  0  0  0  0  0
   -6.1301    1.5163    1.2005 C   0  0  0  0  0  0  0  0  0  0  0  0
   -1.3415   -0.4241   -1.5619 H   0  0  0  0  0  0  0  0  0  0  0  0
    0.5635   -1.4539    0.4986 H   0  0  0  0  0  0  0  0  0  0  0  0
    0.7492   -1.5195   -1.2563 H   0  0  0  0  0  0  0  0  0  0  0  0
    0.8947    1.0127   -1.3308 H   0  0  0  0  0  0  0  0  0  0  0  0
   -0.2388    1.2854    1.1021 H   0  0  0  0  0  0  0  0  0  0  0  0
    1.0459    2.3742    0.5841 H   0  0  0  0  0  0  0  0  0  0  0  0
    1.2210    0.1094    2.5442 H   0  0  0  0  0  0  0  0  0  0  0  0
    2.1102    1.6433    2.5012 H   0  0  0  0  0  0  0  0  0  0  0  0
    3.8392    0.4941    1.4732 H   0  0  0  0  0  0  0  0  0  0  0  0
    2.8404   -0.9661    1.3630 H   0  0  0  0  0  0  0  0  0  0  0  0
    3.2613   -1.5670   -0.8205 H   0  0  0  0  0  0  0  0  0  0  0  0
    2.6999   -0.5589   -2.1419 H   0  0  0  0  0  0  0  0  0  0  0  0
    5.0285   -0.8318   -2.3980 H   0  0  0  0  0  0  0  0  0  0  0  0
    4.6816    0.8472   -2.0912 H   0  0  0  0  0  0  0  0  0  0  0  0
    5.5866    0.7313    0.1584 H   0  0  0  0  0  0  0  0  0  0  0  0
    5.6571   -1.0556    0.1047 H   0  0  0  0  0  0  0  0  0  0  0  0
    7.6464    0.0293   -0.3222 H   0  0  0  0  0  0  0  0  0  0  0  0
   -3.2886   -1.9529   -1.6792 H   0  0  0  0  0  0  0  0  0  0  0  0
   -5.6172   -1.5325   -2.3752 H   0  0  0  0  0  0  0  0  0  0  0  0
   -7.0298    0.0508   -1.1077 H   0  0  0  0  0  0  0  0  0  0  0  0
   -5.5347    2.6885    2.9743 H   0  0  0  0  0  0  0  0  0  0  0  0
   -7.1570    1.8425    1.0907 H   0  0  0  0  0  0  0  0  0  0  0  0
  1  2  2  0
  2  3  1  0
  3  4  1  0
  4  5  1  0
  5  6  1  0
  6  7  1  0
  7  8  1  0
  8  9  1  0
  9 10  1  0
 10 11  1  0
 11 12  1  0
 12 13  1  0
  2 14  1  0
 14 15  1  0
 15 16  2  0
 16 17  1  0
 17 18  2  0
 18 19  1  0
 19 20  1  0
 20 21  1  0
 21 22  2  0
  9  5  1  0
 19 14  2  0
 22 18  1  0
  3 23  1  0
  4 24  1  0
  4 25  1  0
  5 26  1  0
  6 27  1  0
  6 28  1  0
  7 29  1  0
  7 30  1  0
  8 31  1  0
  8 32  1  0
 10 33  1  0
 10 34  1  0
 11 35  1  0
 11 36  1  0
 12 37  1  0
 12 38  1  0
 13 39  1  0
 15 40  1  0
 16 41  1  0
 17 42  1  0
 21 43  1  0
 22 44  1  0
M  END
$$$$
OCNT-2311251
     RDKit          3D

 37 40  0  0  0  0  0  0  0  0999 V2000
   -3.0369   -1.3655   -0.7301 C   0  0  0  0  0  0  0  0  0  0  0  0
   -1.5691   -1.7663   -0.6203 C   0  0  0  0  0  0  0  0  0  0  0  0
   -1.4350   -3.2740   -0.3730 C   0  0  0  0  0  0  0  0  0  0  0  0
   -0.6868   -1.2482   -1.7785 C   0  0  0  0  0  0  0  0  0  0  0  0
    0.2814   -0.8723   -0.7953 N   0  0  0  0  0  0  0  0  0  0  0  0
    1.4582   -0.1419   -1.0035 C   0  0  0  0  0  0  0  0  0  0  0  0
    1.7805    0.1846   -2.2821 N   0  0  0  0  0  0  0  0  0  0  0  0
    2.8906    0.8927   -2.5230 C   0  0  0  0  0  0  0  0  0  0  0  0
    3.7709    1.3428   -1.6308 N   0  0  0  0  0  0  0  0  0  0  0  0
    3.4799    1.0082   -0.3517 C   0  0  0  0  0  0  0  0  0  0  0  0
    2.3494    0.2691    0.0036 C   0  0  0  0  0  0  0  0  0  0  0  0
    2.3323    0.0027    1.7108 S   0  0  0  0  0  0  0  0  0  0  0  0
    3.7570    0.8786    1.9357 C   0  0  0  0  0  0  0  0  0  0  0  0
    4.5567    1.1513    3.6494 Br  0  0  0  0  0  0  0  0  0  0  0  0
    4.2838    1.3651    0.7716 C   0  0  0  0  0  0  0  0  0  0  0  0
   -0.6423   -0.9105    0.3038 C   0  0  0  0  0  0  0  0  0  0  0  0
   -1.1256    0.5214    0.8209 C   0  0  0  0  0  0  0  0  0  0  0  0
   -1.5326    0.6906    2.1579 C   0  0  0  0  0  0  0  0  0  0  0  0
   -1.9523    1.9317    2.6174 C   0  0  0  0  0  0  0  0  0  0  0  0
   -2.0053    3.0344    1.8480 N   0  0  0  0  0  0  0  0  0  0  0  0
   -1.6197    2.8845    0.5669 C   0  0  0  0  0  0  0  0  0  0  0  0
   -1.1873    1.6811    0.0258 C   0  0  0  0  0  0  0  0  0  0  0  0
   -3.5411   -1.9456   -1.5109 H   0  0  0  0  0  0  0  0  0  0  0  0
   -3.1597   -0.3087   -0.9865 H   0  0  0  0  0  0  0  0  0  0  0  0
   -3.5614   -1.5452    0.2145 H   0  0  0  0  0  0  0  0  0  0  0  0
   -1.9096   -3.8446   -1.1787 H   0  0  0  0  0  0  0  0  0  0  0  0
   -0.3864   -3.5872   -0.3196 H   0  0  0  0  0  0  0  0  0  0  0  0
   -1.9148   -3.5551    0.5708 H   0  0  0  0  0  0  0  0  0  0  0  0
   -1.0785   -0.3906   -2.3356 H   0  0  0  0  0  0  0  0  0  0  0  0
   -0.3166   -2.0031   -2.4781 H   0  0  0  0  0  0  0  0  0  0  0  0
    3.0936    1.1272   -3.5632 H   0  0  0  0  0  0  0  0  0  0  0  0
    5.1956    1.9434    0.7025 H   0  0  0  0  0  0  0  0  0  0  0  0
   -0.2251   -1.5050    1.1289 H   0  0  0  0  0  0  0  0  0  0  0  0
   -1.5171   -0.1515    2.8440 H   0  0  0  0  0  0  0  0  0  0  0  0
   -2.2645    2.0694    3.6486 H   0  0  0  0  0  0  0  0  0  0  0  0
   -1.6665    3.7837   -0.0407 H   0  0  0  0  0  0  0  0  0  0  0  0
   -0.8958    1.6529   -1.0197 H   0  0  0  0  0  0  0  0  0  0  0  0
  1  2  1  0
  2  3  1  0
  2  4  1  0
  4  5  1  0
  5  6  1  0
  6  7  1  0
  7  8  2  0
  8  9  1  0
  9 10  2  0
 10 11  1  0
 11 12  1  0
 12 13  1  0
 13 14  1  0
 13 15  2  0
  5 16  1  0
 16 17  1  0
 17 18  2  0
 18 19  1  0
 19 20  2  0
 20 21  1  0
 21 22  2  0
 16  2  1  0
 22 17  1  0
 11  6  2  0
 15 10  1  0
  1 23  1  0
  1 24  1  0
  1 25  1  0
  3 26  1  0
  3 27  1  0
  3 28  1  0
  4 29  1  0
  4 30  1  0
  8 31  1  0
 15 32  1  0
 16 33  1  0
 18 34  1  0
 19 35  1  0
 21 36  1  0
 22 37  1  0
M  END
$$$$
OCNT-2311253
     RDKit          3D

 46 48  0  0  0  0  0  0  0  0999 V2000
    5.2805   -3.6695   -0.1888 C   0  0  0  0  0  0  0  0  0  0  0  0
    4.5213   -2.3789   -0.1022 C   0  0  0  0  0  0  0  0  0  0  0  0
    3.8914   -1.8533   -1.2343 C   0  0  0  0  0  0  0  0  0  0  0  0
    3.1618   -0.6636   -1.1495 C   0  0  0  0  0  0  0  0  0  0  0  0
    3.0437    0.0180    0.0679 C   0  0  0  0  0  0  0  0  0  0  0  0
    2.2989    1.2112    0.0633 N   0  0  0  0  0  0  0  0  0  0  0  0
    1.9830    2.0267    1.1392 C   0  0  0  0  0  0  0  0  0  0  0  0
    2.2677    1.8362    2.3186 O   0  0  0  0  0  0  0  0  0  0  0  0
    1.1335    3.2318    0.7198 C   0  0  0  0  0  0  0  0  0  0  0  0
   -0.2567    2.8271    0.4990 N   0  0  0  0  0  0  0  0  0  0  0  0
   -1.1198    2.7902    1.6734 C   0  0  0  0  0  0  0  0  0  0  0  0
   -0.5637    2.2522   -0.7303 C   0  0  0  0  0  0  0  0  0  0  0  0
    0.2384    2.1958   -1.6613 O   0  0  0  0  0  0  0  0  0  0  0  0
   -1.8847    1.6264   -0.9227 C   0  0  0  0  0  0  0  0  0  0  0  0
   -2.7846    2.2123   -1.8105 C   0  0  0  0  0  0  0  0  0  0  0  0
   -4.0200    1.6080   -2.0217 C   0  0  0  0  0  0  0  0  0  0  0  0
   -4.3473    0.4193   -1.3576 C   0  0  0  0  0  0  0  0  0  0  0  0
   -3.4341   -0.1858   -0.4775 C   0  0  0  0  0  0  0  0  0  0  0  0
   -3.7700   -1.3995    0.1927 N   0  0  0  0  0  0  0  0  0  0  0  0
   -4.9362   -2.1272    0.0752 C   0  0  0  0  0  0  0  0  0  0  0  0
   -4.8083   -3.2019    0.9238 C   0  0  0  0  0  0  0  0  0  0  0  0
   -3.6055   -3.1696    1.5656 N   0  0  0  0  0  0  0  0  0  0  0  0
   -3.0033   -2.0941    1.1064 C   0  0  0  0  0  0  0  0  0  0  0  0
   -2.1895    0.4243   -0.2682 C   0  0  0  0  0  0  0  0  0  0  0  0
    3.6627   -0.5114    1.1997 C   0  0  0  0  0  0  0  0  0  0  0  0
    4.3905   -1.7053    1.1164 C   0  0  0  0  0  0  0  0  0  0  0  0
    5.9755   -3.7776    0.6504 H   0  0  0  0  0  0  0  0  0  0  0  0
    4.5856   -4.5152   -0.1771 H   0  0  0  0  0  0  0  0  0  0  0  0
    5.8734   -3.7059   -1.1090 H   0  0  0  0  0  0  0  0  0  0  0  0
    3.9671   -2.3651   -2.1919 H   0  0  0  0  0  0  0  0  0  0  0  0
    2.6875   -0.2786   -2.0490 H   0  0  0  0  0  0  0  0  0  0  0  0
    1.8765    1.4755   -0.8288 H   0  0  0  0  0  0  0  0  0  0  0  0
    1.5527    3.6671   -0.1942 H   0  0  0  0  0  0  0  0  0  0  0  0
    1.1785    4.0016    1.4978 H   0  0  0  0  0  0  0  0  0  0  0  0
   -0.8698    1.9063    2.2667 H   0  0  0  0  0  0  0  0  0  0  0  0
   -0.9580    3.6929    2.2710 H   0  0  0  0  0  0  0  0  0  0  0  0
   -2.1746    2.7531    1.3932 H   0  0  0  0  0  0  0  0  0  0  0  0
   -2.5219    3.1270   -2.3371 H   0  0  0  0  0  0  0  0  0  0  0  0
   -4.7320    2.0577   -2.7097 H   0  0  0  0  0  0  0  0  0  0  0  0
   -5.3273   -0.0061   -1.5554 H   0  0  0  0  0  0  0  0  0  0  0  0
   -5.7484   -1.8496   -0.5778 H   0  0  0  0  0  0  0  0  0  0  0  0
   -5.5237   -3.9944    1.1046 H   0  0  0  0  0  0  0  0  0  0  0  0
   -2.0165   -1.7809    1.4168 H   0  0  0  0  0  0  0  0  0  0  0  0
   -1.4318   -0.0062    0.3796 H   0  0  0  0  0  0  0  0  0  0  0  0
    3.6005   -0.0213    2.1654 H   0  0  0  0  0  0  0  0  0  0  0  0
    4.8572   -2.0997    2.0168 H   0  0  0  0  0  0  0  0  0  0  0  0
  1  2  1  0
  2  3  1  0
  3  4  2  0
  4  5  1  0
  5  6  1  0
  6  7  1  0
  7  8  2  0
  7  9  1  0
  9 10  1  0
 10 11  1  0
 10 12  1  0
 12 13  2  0
 12 14  1  0
 14 15  1  0
 15 16  2  0
 16 17  1  0
 17 18  2  0
 18 19  1  0
 19 20  1  0
 20 21  2  0
 21 22  1  0
 22 23  2  0
 18 24  1  0
  5 25  2  0
 25 26  1  0
 26  2  2  0
 24 14  2  0
 23 19  1  0
  1 27  1  0
  1 28  1  0
  1 29  1  0
  3 30  1  0
  4 31  1  0
  6 32  1  0
  9 33  1  0
  9 34  1  0
 11 35  1  0
 11 36  1  0
 11 37  1  0
 15 38  1  0
 16 39  1  0
 17 40  1  0
 20 41  1  0
 21 42  1  0
 23 43  1  0
 24 44  1  0
 25 45  1  0
 26 46  1  0
M  END
$$$$
OCNT-2311256
     RDKit          3D

 50 52  0  0  0  0  0  0  0  0999 V2000
    7.1577   -1.2550   -0.9807 C   0  0  0  0  0  0  0  0  0  0  0  0
    6.0191   -0.4727   -0.6242 O   0  0  0  0  0  0  0  0  0  0  0  0
    5.0428   -1.1757    0.0215 C   0  0  0  0  0  0  0  0  0  0  0  0
    5.1171   -2.3731    0.2765 O   0  0  0  0  0  0  0  0  0  0  0  0
    3.8830   -0.3606    0.3854 C   0  0  0  0  0  0  0  0  0  0  0  0
    3.6717    0.9981    0.1714 C   0  0  0  0  0  0  0  0  0  0  0  0
    4.5206    2.0367   -0.4726 C   0  0  0  0  0  0  0  0  0  0  0  0
    2.4392    1.3217    0.6892 N   0  0  0  0  0  0  0  0  0  0  0  0
    1.8350    0.2092    1.2177 C   0  0  0  0  0  0  0  0  0  0  0  0
    0.4838    0.2736    1.8467 C   0  0  0  0  0  0  0  0  0  0  0  0
   -0.4373   -0.6997    1.2769 N   0  0  0  0  0  0  0  0  0  0  0  0
   -0.8601   -0.4575   -0.1136 C   0  0  0  0  0  0  0  0  0  0  0  0
   -1.5419   -1.7328   -0.6388 C   0  0  0  0  0  0  0  0  0  0  0  0
   -2.8464   -1.9894    0.1108 C   0  0  0  0  0  0  0  0  0  0  0  0
   -3.8778   -0.8494   -0.0907 C   0  0  0  0  0  0  0  0  0  0  0  0
   -4.8839   -0.9279    1.0786 C   0  0  0  0  0  0  0  0  0  0  0  0
   -4.6395   -1.1120   -1.4121 C   0  0  0  0  0  0  0  0  0  0  0  0
   -3.2277    0.5414   -0.1691 C   0  0  0  0  0  0  0  0  0  0  0  0
   -4.0439    1.6894   -0.2578 C   0  0  0  0  0  0  0  0  0  0  0  0
   -3.4998    2.9627   -0.4292 C   0  0  0  0  0  0  0  0  0  0  0  0
   -2.1252    3.1185   -0.5322 C   0  0  0  0  0  0  0  0  0  0  0  0
   -1.2977    2.0018   -0.4440 C   0  0  0  0  0  0  0  0  0  0  0  0
   -1.8257    0.7107   -0.2403 C   0  0  0  0  0  0  0  0  0  0  0  0
    2.7175   -0.8402    1.0583 C   0  0  0  0  0  0  0  0  0  0  0  0
    7.8721   -0.6011   -1.4890 H   0  0  0  0  0  0  0  0  0  0  0  0
    7.6389   -1.6637   -0.0863 H   0  0  0  0  0  0  0  0  0  0  0  0
    6.8732   -2.0565   -1.6700 H   0  0  0  0  0  0  0  0  0  0  0  0
    4.0416    3.0210   -0.4468 H   0  0  0  0  0  0  0  0  0  0  0  0
    5.4814    2.1212    0.0448 H   0  0  0  0  0  0  0  0  0  0  0  0
    4.7063    1.7830   -1.5210 H   0  0  0  0  0  0  0  0  0  0  0  0
    2.0340    2.2493    0.6817 H   0  0  0  0  0  0  0  0  0  0  0  0
    0.0707    1.2866    1.8218 H   0  0  0  0  0  0  0  0  0  0  0  0
    0.5998    0.0375    2.9120 H   0  0  0  0  0  0  0  0  0  0  0  0
    0.0023   -1.6158    1.3342 H   0  0  0  0  0  0  0  0  0  0  0  0
    0.0115   -0.2857   -0.7579 H   0  0  0  0  0  0  0  0  0  0  0  0
   -1.7379   -1.6390   -1.7145 H   0  0  0  0  0  0  0  0  0  0  0  0
   -0.8752   -2.5970   -0.5236 H   0  0  0  0  0  0  0  0  0  0  0  0
   -3.2681   -2.9500   -0.2120 H   0  0  0  0  0  0  0  0  0  0  0  0
   -2.6274   -2.1152    1.1795 H   0  0  0  0  0  0  0  0  0  0  0  0
   -4.4050   -0.6667    2.0297 H   0  0  0  0  0  0  0  0  0  0  0  0
   -5.2925   -1.9407    1.1765 H   0  0  0  0  0  0  0  0  0  0  0  0
   -5.7352   -0.2524    0.9429 H   0  0  0  0  0  0  0  0  0  0  0  0
   -5.4537   -0.3941   -1.5646 H   0  0  0  0  0  0  0  0  0  0  0  0
   -3.9763   -1.0389   -2.2818 H   0  0  0  0  0  0  0  0  0  0  0  0
   -5.0897   -2.1115   -1.4180 H   0  0  0  0  0  0  0  0  0  0  0  0
   -5.1272    1.6011   -0.2144 H   0  0  0  0  0  0  0  0  0  0  0  0
   -4.1545    3.8271   -0.4984 H   0  0  0  0  0  0  0  0  0  0  0  0
   -1.6981    4.1057   -0.6832 H   0  0  0  0  0  0  0  0  0  0  0  0
   -0.2242    2.1383   -0.5382 H   0  0  0  0  0  0  0  0  0  0  0  0
    2.5528   -1.8606    1.3843 H   0  0  0  0  0  0  0  0  0  0  0  0
  1  2  1  0
  2  3  1  0
  3  4  2  0
  3  5  1  0
  5  6  2  0
  6  7  1  0
  6  8  1  0
  8  9  1  0
  9 10  1  0
 10 11  1  0
 11 12  1  0
 12 13  1  0
 13 14  1  0
 14 15  1  0
 15 16  1  0
 15 17  1  0
 15 18  1  0
 18 19  2  0
 19 20  1  0
 20 21  2  0
 21 22  1  0
 22 23  2  0
  9 24  2  0
 24  5  1  0
 23 12  1  0
 23 18  1  0
  1 25  1  0
  1 26  1  0
  1 27  1  0
  7 28  1  0
  7 29  1  0
  7 30  1  0
  8 31  1  0
 10 32  1  0
 10 33  1  0
 11 34  1  0
 12 35  1  0
 13 36  1  0
 13 37  1  0
 14 38  1  0
 14 39  1  0
 16 40  1  0
 16 41  1  0
 16 42  1  0
 17 43  1  0
 17 44  1  0
 17 45  1  0
 19 46  1  0
 20 47  1  0
 21 48  1  0
 22 49  1  0
 24 50  1  0
M  END
$$$$
OCNT-2311260
     RDKit          3D

 56 59  0  0  0  0  0  0  0  0999 V2000
    7.8692    3.0804    2.6256 C   0  0  0  0  0  0  0  0  0  0  0  0
    7.1354    1.7719    2.7077 C   0  0  0  0  0  0  0  0  0  0  0  0
    7.5079    0.8012    3.6451 C   0  0  0  0  0  0  0  0  0  0  0  0
    6.8430   -0.4230    3.6966 C   0  0  0  0  0  0  0  0  0  0  0  0
    5.8052   -0.6945    2.8038 C   0  0  0  0  0  0  0  0  0  0  0  0
    5.4154    0.2583    1.8529 C   0  0  0  0  0  0  0  0  0  0  0  0
    4.3199   -0.0028    0.8388 C   0  0  0  0  0  0  0  0  0  0  0  0
    3.5372   -1.1498    1.1877 O   0  0  0  0  0  0  0  0  0  0  0  0
    2.4260   -1.3796    0.4192 C   0  0  0  0  0  0  0  0  0  0  0  0
    1.5038   -2.2680    0.9737 C   0  0  0  0  0  0  0  0  0  0  0  0
    0.3334   -2.6017    0.2876 C   0  0  0  0  0  0  0  0  0  0  0  0
    0.0675   -2.0633   -0.9824 C   0  0  0  0  0  0  0  0  0  0  0  0
   -1.2142   -2.4465   -1.7105 C   0  0  0  0  0  0  0  0  0  0  0  0
   -0.9683   -2.7223   -3.2017 C   0  0  0  0  0  0  0  0  0  0  0  0
   -2.2234   -1.4058   -1.4673 N   0  0  0  0  0  0  0  0  0  0  0  0
   -3.5395   -1.7343   -2.0417 C   0  0  0  0  0  0  0  0  0  0  0  0
   -4.5401   -0.6884   -1.5586 C   0  0  0  0  0  0  0  0  0  0  0  0
   -5.0513    0.1587   -2.3911 N   0  0  0  0  0  0  0  0  0  0  0  0
   -5.8391    1.2346   -1.9537 C   0  0  0  0  0  0  0  0  0  0  0  0
   -6.1418    2.2250   -2.8962 C   0  0  0  0  0  0  0  0  0  0  0  0
   -6.8897    3.3561   -2.5464 C   0  0  0  0  0  0  0  0  0  0  0  0
   -7.3446    3.5181   -1.2416 C   0  0  0  0  0  0  0  0  0  0  0  0
   -7.0564    2.5461   -0.2876 C   0  0  0  0  0  0  0  0  0  0  0  0
   -6.3128    1.4192   -0.6595 C   0  0  0  0  0  0  0  0  0  0  0  0
   -5.9820    0.1834    0.5212 S   0  0  0  0  0  0  0  0  0  0  0  0
   -7.1532   -0.6583    0.6226 O   0  0  0  0  0  0  0  0  0  0  0  0
   -5.4008    0.8137    1.6855 O   0  0  0  0  0  0  0  0  0  0  0  0
   -4.7801   -0.6946   -0.1814 N   0  0  0  0  0  0  0  0  0  0  0  0
    0.9934   -1.1573   -1.5204 C   0  0  0  0  0  0  0  0  0  0  0  0
    2.1662   -0.8250   -0.8297 C   0  0  0  0  0  0  0  0  0  0  0  0
    6.0984    1.4870    1.8098 C   0  0  0  0  0  0  0  0  0  0  0  0
    8.4030    3.2941    3.5615 H   0  0  0  0  0  0  0  0  0  0  0  0
    8.5964    3.0520    1.8082 H   0  0  0  0  0  0  0  0  0  0  0  0
    7.1705    3.9085    2.4530 H   0  0  0  0  0  0  0  0  0  0  0  0
    8.3210    0.9907    4.3416 H   0  0  0  0  0  0  0  0  0  0  0  0
    7.1363   -1.1698    4.4303 H   0  0  0  0  0  0  0  0  0  0  0  0
    5.3050   -1.6594    2.8571 H   0  0  0  0  0  0  0  0  0  0  0  0
    4.8002   -0.1662   -0.1340 H   0  0  0  0  0  0  0  0  0  0  0  0
    3.6728    0.8818    0.8061 H   0  0  0  0  0  0  0  0  0  0  0  0
    1.6957   -2.7110    1.9486 H   0  0  0  0  0  0  0  0  0  0  0  0
   -0.3706   -3.2856    0.7535 H   0  0  0  0  0  0  0  0  0  0  0  0
   -1.5694   -3.3873   -1.2690 H   0  0  0  0  0  0  0  0  0  0  0  0
   -0.7719   -1.8032   -3.7637 H   0  0  0  0  0  0  0  0  0  0  0  0
   -0.1091   -3.3891   -3.3402 H   0  0  0  0  0  0  0  0  0  0  0  0
   -1.8320   -3.2129   -3.6597 H   0  0  0  0  0  0  0  0  0  0  0  0
   -1.8958   -0.5244   -1.8728 H   0  0  0  0  0  0  0  0  0  0  0  0
   -3.5210   -1.7318   -3.1366 H   0  0  0  0  0  0  0  0  0  0  0  0
   -3.8792   -2.7157   -1.6868 H   0  0  0  0  0  0  0  0  0  0  0  0
   -5.7803    2.1164   -3.9158 H   0  0  0  0  0  0  0  0  0  0  0  0
   -7.1104    4.1113   -3.3011 H   0  0  0  0  0  0  0  0  0  0  0  0
   -7.9253    4.3969   -0.9712 H   0  0  0  0  0  0  0  0  0  0  0  0
   -7.4093    2.6620    0.7359 H   0  0  0  0  0  0  0  0  0  0  0  0
   -4.0124   -0.9839    0.4282 H   0  0  0  0  0  0  0  0  0  0  0  0
    0.8198   -0.6961   -2.4891 H   0  0  0  0  0  0  0  0  0  0  0  0
    2.8635   -0.1464   -1.3112 H   0  0  0  0  0  0  0  0  0  0  0  0
    5.8177    2.2311    1.0658 H   0  0  0  0  0  0  0  0  0  0  0  0
  1  2  1  0
  2  3  1  0
  3  4  2  0
  4  5  1  0
  5  6  2  0
  6  7  1  0
  7  8  1  0
  8  9  1  0
  9 10  1  0
 10 11  2  0
 11 12  1  0
 12 13  1  0
 13 14  1  0
 13 15  1  0
 15 16  1  0
 16 17  1  0
 17 18  2  0
 18 19  1  0
 19 20  2  0
 20 21  1  0
 21 22  2  0
 22 23  1  0
 23 24  2  0
 24 25  1  0
 25 26  2  0
 25 27  2  0
 25 28  1  0
 12 29  2  0
 29 30  1  0
  6 31  1  0
 31  2  2  0
 30  9  2  0
 28 17  1  0
 24 19  1  0
  1 32  1  0
  1 33  1  0
  1 34  1  0
  3 35  1  0
  4 36  1  0
  5 37  1  0
  7 38  1  0
  7 39  1  0
 10 40  1  0
 11 41  1  0
 13 42  1  0
 14 43  1  0
 14 44  1  0
 14 45  1  0
 15 46  1  0
 16 47  1  0
 16 48  1  0
 20 49  1  0
 21 50  1  0
 22 51  1  0
 23 52  1  0
 28 53  1  0
 29 54  1  0
 30 55  1  0
 31 56  1  0
M  END
$$$$
OCNT-2311263
     RDKit          3D

 51 53  0  0  0  0  0  0  0  0999 V2000
    7.4920   -1.7989    1.8920 C   0  0  0  0  0  0  0  0  0  0  0  0
    6.2697   -2.2014    2.4955 O   0  0  0  0  0  0  0  0  0  0  0  0
    5.4192   -1.0855    2.8097 C   0  0  0  0  0  0  0  0  0  0  0  0
    4.7874   -0.4328    1.6201 C   0  0  0  0  0  0  0  0  0  0  0  0
    5.3105    0.6484    1.0169 N   0  0  0  0  0  0  0  0  0  0  0  0
    4.4246    0.8569    0.0325 N   0  0  0  0  0  0  0  0  0  0  0  0
    4.5664    1.9435   -0.9101 C   0  0  0  0  0  0  0  0  0  0  0  0
    3.2537    2.2231   -1.6404 C   0  0  0  0  0  0  0  0  0  0  0  0
    2.6007    0.9158   -2.1062 C   0  0  0  0  0  0  0  0  0  0  0  0
    2.2889   -0.0311   -0.9274 C   0  0  0  0  0  0  0  0  0  0  0  0
    1.1113    0.3704   -0.1710 N   0  0  0  0  0  0  0  0  0  0  0  0
   -0.1526    0.2461   -0.7062 C   0  0  0  0  0  0  0  0  0  0  0  0
   -0.3585   -0.0726   -1.8776 O   0  0  0  0  0  0  0  0  0  0  0  0
   -1.3054    0.5169    0.2815 C   0  0  0  0  0  0  0  0  0  0  0  0
   -1.2362    1.9342    0.8380 C   0  0  0  0  0  0  0  0  0  0  0  0
   -2.5598    0.2980   -0.4330 N   0  0  0  0  0  0  0  0  0  0  0  0
   -3.7048   -0.0518    0.2484 C   0  0  0  0  0  0  0  0  0  0  0  0
   -3.7418   -0.1074    1.4701 O   0  0  0  0  0  0  0  0  0  0  0  0
   -4.7393   -0.2879   -0.6276 N   0  0  0  0  0  0  0  0  0  0  0  0
   -6.0460   -0.7188   -0.3258 C   0  0  0  0  0  0  0  0  0  0  0  0
   -6.4674   -1.0925    0.9514 C   0  0  0  0  0  0  0  0  0  0  0  0
   -7.7826   -1.5167    1.1680 C   0  0  0  0  0  0  0  0  0  0  0  0
   -8.6857   -1.5736    0.1091 C   0  0  0  0  0  0  0  0  0  0  0  0
   -8.2744   -1.2075   -1.1694 C   0  0  0  0  0  0  0  0  0  0  0  0
   -6.9604   -0.7836   -1.3856 C   0  0  0  0  0  0  0  0  0  0  0  0
    3.4238   -0.0696    0.0444 C   0  0  0  0  0  0  0  0  0  0  0  0
    3.6068   -0.8795    1.0664 N   0  0  0  0  0  0  0  0  0  0  0  0
    8.0156   -1.0707    2.5190 H   0  0  0  0  0  0  0  0  0  0  0  0
    7.3184   -1.3874    0.8939 H   0  0  0  0  0  0  0  0  0  0  0  0
    8.1265   -2.6834    1.7877 H   0  0  0  0  0  0  0  0  0  0  0  0
    5.9764   -0.3552    3.4089 H   0  0  0  0  0  0  0  0  0  0  0  0
    4.6217   -1.4744    3.4528 H   0  0  0  0  0  0  0  0  0  0  0  0
    4.9012    2.8315   -0.3644 H   0  0  0  0  0  0  0  0  0  0  0  0
    5.3486    1.6453   -1.6168 H   0  0  0  0  0  0  0  0  0  0  0  0
    3.4427    2.8775   -2.4986 H   0  0  0  0  0  0  0  0  0  0  0  0
    2.5645    2.7574   -0.9746 H   0  0  0  0  0  0  0  0  0  0  0  0
    3.2933    0.4104   -2.7927 H   0  0  0  0  0  0  0  0  0  0  0  0
    1.7004    1.1469   -2.6845 H   0  0  0  0  0  0  0  0  0  0  0  0
    2.1031   -1.0398   -1.3154 H   0  0  0  0  0  0  0  0  0  0  0  0
    1.1818    0.2488    0.8352 H   0  0  0  0  0  0  0  0  0  0  0  0
   -1.2309   -0.2166    1.0931 H   0  0  0  0  0  0  0  0  0  0  0  0
   -2.0810    2.1417    1.5028 H   0  0  0  0  0  0  0  0  0  0  0  0
   -1.2593    2.6747    0.0303 H   0  0  0  0  0  0  0  0  0  0  0  0
   -0.3150    2.0949    1.4074 H   0  0  0  0  0  0  0  0  0  0  0  0
   -2.4491   -0.0887   -1.3639 H   0  0  0  0  0  0  0  0  0  0  0  0
   -4.5617   -0.0232   -1.5844 H   0  0  0  0  0  0  0  0  0  0  0  0
   -5.7943   -1.0686    1.8027 H   0  0  0  0  0  0  0  0  0  0  0  0
   -8.0969   -1.8033    2.1684 H   0  0  0  0  0  0  0  0  0  0  0  0
   -9.7065   -1.9038    0.2816 H   0  0  0  0  0  0  0  0  0  0  0  0
   -8.9750   -1.2519   -1.9990 H   0  0  0  0  0  0  0  0  0  0  0  0
   -6.6645   -0.5043   -2.3931 H   0  0  0  0  0  0  0  0  0  0  0  0
  1  2  1  0
  2  3  1  0
  3  4  1  0
  4  5  2  0
  5  6  1  0
  6  7  1  0
  7  8  1  0
  8  9  1  0
  9 10  1  0
 10 11  1  0
 11 12  1  0
 12 13  2  0
 12 14  1  0
 14 15  1  0
 14 16  1  0
 16 17  1  0
 17 18  2  0
 17 19  1  0
 19 20  1  0
 20 21  2  0
 21 22  1  0
 22 23  2  0
 23 24  1  0
 24 25  2  0
 10 26  1  0
 26 27  2  0
 27  4  1  0
 26  6  1  0
 25 20  1  0
  1 28  1  0
  1 29  1  0
  1 30  1  0
  3 31  1  0
  3 32  1  0
  7 33  1  0
  7 34  1  0
  8 35  1  0
  8 36  1  0
  9 37  1  0
  9 38  1  0
 10 39  1  0
 11 40  1  0
 14 41  1  0
 15 42  1  0
 15 43  1  0
 15 44  1  0
 16 45  1  0
 19 46  1  0
 21 47  1  0
 22 48  1  0
 23 49  1  0
 24 50  1  0
 25 51  1  0
M  END
$$$$
OCNT-2311283
     RDKit          3D

 54 56  0  0  0  0  0  0  0  0999 V2000
   -3.2123    3.4126    2.7551 C   0  0  0  0  0  0  0  0  0  0  0  0
   -2.3766    2.4185    2.1728 O   0  0  0  0  0  0  0  0  0  0  0  0
   -2.7665    1.9268    0.9645 C   0  0  0  0  0  0  0  0  0  0  0  0
   -3.8731    2.2916    0.2238 C   0  0  0  0  0  0  0  0  0  0  0  0
   -4.1990    1.7513   -0.9770 N   0  0  0  0  0  0  0  0  0  0  0  0
   -3.4173    0.8048   -1.5012 C   0  0  0  0  0  0  0  0  0  0  0  0
   -3.7824    0.3060   -2.6720 N   0  0  0  0  0  0  0  0  0  0  0  0
   -3.0056   -0.6384   -3.2018 C   0  0  0  0  0  0  0  0  0  0  0  0
   -1.8845   -1.1302   -2.6710 N   0  0  0  0  0  0  0  0  0  0  0  0
   -1.5177   -0.6282   -1.4807 C   0  0  0  0  0  0  0  0  0  0  0  0
   -0.3000   -1.0862   -0.8814 N   0  0  0  0  0  0  0  0  0  0  0  0
   -0.1767   -2.5624   -0.9727 C   0  0  0  0  0  0  0  0  0  0  0  0
   -0.8179   -3.3030    0.2197 C   0  0  0  0  0  0  0  0  0  0  0  0
   -0.2755   -2.8207    1.5654 C   0  0  0  0  0  0  0  0  0  0  0  0
   -2.3454   -3.2720    0.2115 C   0  0  0  0  0  0  0  0  0  0  0  0
    0.8055   -0.3575   -1.5516 C   0  0  0  0  0  0  0  0  0  0  0  0
    2.0844   -0.3324   -0.6904 C   0  0  0  0  0  0  0  0  0  0  0  0
    1.8885    0.4528    0.6145 C   0  0  0  0  0  0  0  0  0  0  0  0
    3.2015    0.5911    1.3888 C   0  0  0  0  0  0  0  0  0  0  0  0
    4.3036    1.1609    0.6056 N   0  0  0  0  0  0  0  0  0  0  0  0
    4.1430    2.5960    0.3845 C   0  0  0  0  0  0  0  0  0  0  0  0
    4.5061    0.4208   -0.6439 C   0  0  0  0  0  0  0  0  0  0  0  0
    3.2426    0.2787   -1.4954 C   0  0  0  0  0  0  0  0  0  0  0  0
   -2.2694    0.3706   -0.8369 C   0  0  0  0  0  0  0  0  0  0  0  0
   -1.9562    0.9457    0.4162 C   0  0  0  0  0  0  0  0  0  0  0  0
   -4.2162    3.0199    2.9480 H   0  0  0  0  0  0  0  0  0  0  0  0
   -3.2532    4.3091    2.1277 H   0  0  0  0  0  0  0  0  0  0  0  0
   -2.7740    3.6969    3.7166 H   0  0  0  0  0  0  0  0  0  0  0  0
   -4.5737    3.0496    0.5576 H   0  0  0  0  0  0  0  0  0  0  0  0
   -3.3137   -1.0437   -4.1596 H   0  0  0  0  0  0  0  0  0  0  0  0
   -0.5558   -2.9676   -1.9196 H   0  0  0  0  0  0  0  0  0  0  0  0
    0.8866   -2.8326   -0.9674 H   0  0  0  0  0  0  0  0  0  0  0  0
   -0.5276   -4.3576    0.1150 H   0  0  0  0  0  0  0  0  0  0  0  0
    0.8191   -2.8498    1.5788 H   0  0  0  0  0  0  0  0  0  0  0  0
   -0.6358   -3.4623    2.3768 H   0  0  0  0  0  0  0  0  0  0  0  0
   -0.5941   -1.7976    1.7870 H   0  0  0  0  0  0  0  0  0  0  0  0
   -2.7382   -2.2832    0.4631 H   0  0  0  0  0  0  0  0  0  0  0  0
   -2.7428   -3.9748    0.9522 H   0  0  0  0  0  0  0  0  0  0  0  0
   -2.7390   -3.5655   -0.7671 H   0  0  0  0  0  0  0  0  0  0  0  0
    0.5199    0.6843   -1.7583 H   0  0  0  0  0  0  0  0  0  0  0  0
    1.0209   -0.8243   -2.5230 H   0  0  0  0  0  0  0  0  0  0  0  0
    2.3709   -1.3574   -0.4246 H   0  0  0  0  0  0  0  0  0  0  0  0
    1.4734    1.4453    0.4012 H   0  0  0  0  0  0  0  0  0  0  0  0
    1.1638   -0.0612    1.2546 H   0  0  0  0  0  0  0  0  0  0  0  0
    3.0346    1.1844    2.2964 H   0  0  0  0  0  0  0  0  0  0  0  0
    3.5088   -0.4017    1.7431 H   0  0  0  0  0  0  0  0  0  0  0  0
    3.2546    2.8479   -0.2030 H   0  0  0  0  0  0  0  0  0  0  0  0
    4.0775    3.1244    1.3423 H   0  0  0  0  0  0  0  0  0  0  0  0
    5.0190    3.0024   -0.1333 H   0  0  0  0  0  0  0  0  0  0  0  0
    5.3014    0.8882   -1.2375 H   0  0  0  0  0  0  0  0  0  0  0  0
    4.8794   -0.5812   -0.3946 H   0  0  0  0  0  0  0  0  0  0  0  0
    2.9501    1.2575   -1.8952 H   0  0  0  0  0  0  0  0  0  0  0  0
    3.4652   -0.3574   -2.3609 H   0  0  0  0  0  0  0  0  0  0  0  0
   -1.0800    0.6107    0.9629 H   0  0  0  0  0  0  0  0  0  0  0  0
  1  2  1  0
  2  3  1  0
  3  4  1  0
  4  5  2  0
  5  6  1  0
  6  7  2  0
  7  8  1  0
  8  9  2  0
  9 10  1  0
 10 11  1  0
 11 12  1  0
 12 13  1  0
 13 14  1  0
 13 15  1  0
 11 16  1  0
 16 17  1  0
 17 18  1  0
 18 19  1  0
 19 20  1  0
 20 21  1  0
 20 22  1  0
 22 23  1  0
 10 24  2  0
 24 25  1  0
 25  3  2  0
 24  6  1  0
 23 17  1  0
  1 26  1  0
  1 27  1  0
  1 28  1  0
  4 29  1  0
  8 30  1  0
 12 31  1  0
 12 32  1  0
 13 33  1  0
 14 34  1  0
 14 35  1  0
 14 36  1  0
 15 37  1  0
 15 38  1  0
 15 39  1  0
 16 40  1  0
 16 41  1  0
 17 42  1  0
 18 43  1  0
 18 44  1  0
 19 45  1  0
 19 46  1  0
 21 47  1  0
 21 48  1  0
 21 49  1  0
 22 50  1  0
 22 51  1  0
 23 52  1  0
 23 53  1  0
 25 54  1  0
M  END
$$$$
OCNT-2311302
     RDKit          3D

 42 45  0  0  0  0  0  0  0  0999 V2000
   -2.1132    2.8192    1.0223 O   0  0  0  0  0  0  0  0  0  0  0  0
   -2.7730    1.9618    0.4542 C   0  0  0  0  0  0  0  0  0  0  0  0
   -4.0951    2.1657    0.0389 N   0  0  0  0  0  0  0  0  0  0  0  0
   -4.5735    1.0149   -0.5566 C   0  0  0  0  0  0  0  0  0  0  0  0
   -5.8358    0.7939   -1.0667 C   0  0  0  0  0  0  0  0  0  0  0  0
   -6.1012   -0.4797   -1.5678 C   0  0  0  0  0  0  0  0  0  0  0  0
   -5.1162   -1.4827   -1.5261 C   0  0  0  0  0  0  0  0  0  0  0  0
   -3.8414   -1.2258   -0.9990 C   0  0  0  0  0  0  0  0  0  0  0  0
   -3.5663    0.0488   -0.5387 C   0  0  0  0  0  0  0  0  0  0  0  0
   -2.4068    0.6202    0.0627 N   0  0  0  0  0  0  0  0  0  0  0  0
   -1.1350    0.0835    0.2573 C   0  0  0  0  0  0  0  0  0  0  0  0
   -0.6343   -0.9522   -0.4422 C   0  0  0  0  0  0  0  0  0  0  0  0
    0.7424   -1.5238   -0.2441 C   0  0  0  0  0  0  0  0  0  0  0  0
    1.6407   -0.6651    0.5357 N   0  0  0  0  0  0  0  0  0  0  0  0
    2.8827   -1.3858    0.8703 C   0  0  0  0  0  0  0  0  0  0  0  0
    4.0512   -0.4816    1.3097 C   0  0  0  0  0  0  0  0  0  0  0  0
    4.6256    0.3503    0.1945 C   0  0  0  0  0  0  0  0  0  0  0  0
    4.0405    1.4932   -0.3203 C   0  0  0  0  0  0  0  0  0  0  0  0
    4.9560    2.2016   -1.5778 S   0  0  0  0  0  0  0  0  0  0  0  0
    6.1567    0.9930   -1.4552 C   0  0  0  0  0  0  0  0  0  0  0  0
    5.8621    0.0698   -0.4766 C   0  0  0  0  0  0  0  0  0  0  0  0
    0.9433   -0.1561    1.7221 C   0  0  0  0  0  0  0  0  0  0  0  0
   -0.2478    0.7236    1.3095 C   0  0  0  0  0  0  0  0  0  0  0  0
   -4.5907    3.0287    0.1891 H   0  0  0  0  0  0  0  0  0  0  0  0
   -6.5944    1.5673   -1.0708 H   0  0  0  0  0  0  0  0  0  0  0  0
   -7.0826   -0.7067   -1.9785 H   0  0  0  0  0  0  0  0  0  0  0  0
   -5.3518   -2.4782   -1.8976 H   0  0  0  0  0  0  0  0  0  0  0  0
   -3.1299   -2.0374   -0.9368 H   0  0  0  0  0  0  0  0  0  0  0  0
   -1.1833   -1.4089   -1.2536 H   0  0  0  0  0  0  0  0  0  0  0  0
    0.6309   -2.5099    0.2258 H   0  0  0  0  0  0  0  0  0  0  0  0
    1.1857   -1.6815   -1.2350 H   0  0  0  0  0  0  0  0  0  0  0  0
    2.6846   -2.1232    1.6593 H   0  0  0  0  0  0  0  0  0  0  0  0
    3.2208   -1.9534   -0.0076 H   0  0  0  0  0  0  0  0  0  0  0  0
    4.8459   -1.1278    1.7058 H   0  0  0  0  0  0  0  0  0  0  0  0
    3.7621    0.1709    2.1411 H   0  0  0  0  0  0  0  0  0  0  0  0
    3.1026    1.9428   -0.0213 H   0  0  0  0  0  0  0  0  0  0  0  0
    7.0198    1.0169   -2.1057 H   0  0  0  0  0  0  0  0  0  0  0  0
    6.5060   -0.7714   -0.2503 H   0  0  0  0  0  0  0  0  0  0  0  0
    0.5971   -0.9840    2.3559 H   0  0  0  0  0  0  0  0  0  0  0  0
    1.6069    0.4607    2.3372 H   0  0  0  0  0  0  0  0  0  0  0  0
   -0.8281    0.9330    2.2163 H   0  0  0  0  0  0  0  0  0  0  0  0
    0.1366    1.6751    0.9207 H   0  0  0  0  0  0  0  0  0  0  0  0
  1  2  2  0
  2  3  1  0
  3  4  1  0
  4  5  2  0
  5  6  1  0
  6  7  2  0
  7  8  1  0
  8  9  2  0
  9 10  1  0
 10 11  1  0
 11 12  2  0
 12 13  1  0
 13 14  1  0
 14 15  1  0
 15 16  1  0
 16 17  1  0
 17 18  2  0
 18 19  1  0
 19 20  1  0
 20 21  2  0
 14 22  1  0
 22 23  1  0
 10  2  1  0
 23 11  1  0
  9  4  1  0
 21 17  1  0
  3 24  1  0
  5 25  1  0
  6 26  1  0
  7 27  1  0
  8 28  1  0
 12 29  1  0
 13 30  1  0
 13 31  1  0
 15 32  1  0
 15 33  1  0
 16 34  1  0
 16 35  1  0
 18 36  1  0
 20 37  1  0
 21 38  1  0
 22 39  1  0
 22 40  1  0
 23 41  1  0
 23 42  1  0
M  END
$$$$
OCNT-2311311
     RDKit          3D

 42 45  0  0  0  0  0  0  0  0999 V2000
    7.9764   -1.7742    0.2081 C   0  0  0  0  0  0  0  0  0  0  0  0
    6.6014   -1.5357   -0.3668 C   0  0  0  0  0  0  0  0  0  0  0  0
    6.3406   -1.8886   -1.5106 O   0  0  0  0  0  0  0  0  0  0  0  0
    5.7722   -0.8858    0.5175 N   0  0  0  0  0  0  0  0  0  0  0  0
    4.4670   -0.5141    0.3125 C   0  0  0  0  0  0  0  0  0  0  0  0
    3.8003    0.1155    1.2547 N   0  0  0  0  0  0  0  0  0  0  0  0
    2.5179    0.3730    0.7991 C   0  0  0  0  0  0  0  0  0  0  0  0
    1.4621    1.0107    1.4370 C   0  0  0  0  0  0  0  0  0  0  0  0
    0.2770    1.1541    0.7985 N   0  0  0  0  0  0  0  0  0  0  0  0
    0.1384    0.6816   -0.4563 C   0  0  0  0  0  0  0  0  0  0  0  0
   -1.0863    0.8304   -1.1139 N   0  0  0  0  0  0  0  0  0  0  0  0
   -2.3721    0.9880   -0.4555 C   0  0  0  0  0  0  0  0  0  0  0  0
   -2.7099   -0.2611    0.3672 C   0  0  0  0  0  0  0  0  0  0  0  0
   -4.0091   -0.1922    1.1577 C   0  0  0  0  0  0  0  0  0  0  0  0
   -4.4283   -1.6407    1.1991 C   0  0  0  0  0  0  0  0  0  0  0  0
   -4.0173   -2.1225   -0.1733 C   0  0  0  0  0  0  0  0  0  0  0  0
   -2.8306   -1.3980   -0.5221 O   0  0  0  0  0  0  0  0  0  0  0  0
   -3.4172    1.4500   -1.5296 C   0  0  0  0  0  0  0  0  0  0  0  0
   -3.0783    2.9086   -1.1705 C   0  0  0  0  0  0  0  0  0  0  0  0
   -2.5401    2.4041    0.1821 C   0  0  0  0  0  0  0  0  0  0  0  0
    1.0897    0.0492   -1.1525 N   0  0  0  0  0  0  0  0  0  0  0  0
    2.2457   -0.0728   -0.4825 C   0  0  0  0  0  0  0  0  0  0  0  0
    3.6218   -0.8320   -1.1341 S   0  0  0  0  0  0  0  0  0  0  0  0
    8.6351   -0.9518   -0.0831 H   0  0  0  0  0  0  0  0  0  0  0  0
    8.3716   -2.7165   -0.1826 H   0  0  0  0  0  0  0  0  0  0  0  0
    7.9475   -1.8478    1.2991 H   0  0  0  0  0  0  0  0  0  0  0  0
    6.1203   -0.6227    1.4288 H   0  0  0  0  0  0  0  0  0  0  0  0
    1.5330    1.4095    2.4408 H   0  0  0  0  0  0  0  0  0  0  0  0
   -1.0973    0.1080   -1.8312 H   0  0  0  0  0  0  0  0  0  0  0  0
   -1.8986   -0.4979    1.0663 H   0  0  0  0  0  0  0  0  0  0  0  0
   -3.8699    0.2416    2.1525 H   0  0  0  0  0  0  0  0  0  0  0  0
   -4.7812    0.3936    0.6506 H   0  0  0  0  0  0  0  0  0  0  0  0
   -3.8553   -2.1697    1.9698 H   0  0  0  0  0  0  0  0  0  0  0  0
   -5.4926   -1.7846    1.4022 H   0  0  0  0  0  0  0  0  0  0  0  0
   -4.7831   -1.8908   -0.9213 H   0  0  0  0  0  0  0  0  0  0  0  0
   -3.8153   -3.1968   -0.2002 H   0  0  0  0  0  0  0  0  0  0  0  0
   -3.2109    1.1689   -2.5676 H   0  0  0  0  0  0  0  0  0  0  0  0
   -4.4594    1.1887   -1.3194 H   0  0  0  0  0  0  0  0  0  0  0  0
   -3.9291    3.5925   -1.1153 H   0  0  0  0  0  0  0  0  0  0  0  0
   -2.3090    3.3529   -1.8124 H   0  0  0  0  0  0  0  0  0  0  0  0
   -1.6411    2.9184    0.5317 H   0  0  0  0  0  0  0  0  0  0  0  0
   -3.2860    2.4569    0.9837 H   0  0  0  0  0  0  0  0  0  0  0  0
  1  2  1  0
  2  3  2  0
  2  4  1  0
  4  5  1  0
  5  6  2  0
  6  7  1  0
  7  8  2  0
  8  9  1  0
  9 10  2  0
 10 11  1  0
 11 12  1  0
 12 13  1  0
 13 14  1  0
 14 15  1  0
 15 16  1  0
 16 17  1  0
 12 18  1  0
 18 19  1  0
 19 20  1  0
 10 21  1  0
 21 22  2  0
 22 23  1  0
 23  5  1  0
 22  7  1  0
 20 12  1  0
 17 13  1  0
  1 24  1  0
  1 25  1  0
  1 26  1  0
  4 27  1  0
  8 28  1  0
 11 29  1  0
 13 30  1  0
 14 31  1  0
 14 32  1  0
 15 33  1  0
 15 34  1  0
 16 35  1  0
 16 36  1  0
 18 37  1  0
 18 38  1  0
 19 39  1  0
 19 40  1  0
 20 41  1  0
 20 42  1  0
M  END
$$$$
OCNT-2311312
     RDKit          3D

 41 44  0  0  0  0  0  0  0  0999 V2000
    5.8057    0.0988   -2.9316 C   0  0  0  0  0  0  0  0  0  0  0  0
    5.3495   -0.9920   -2.1412 O   0  0  0  0  0  0  0  0  0  0  0  0
    4.2892   -0.7504   -1.3126 C   0  0  0  0  0  0  0  0  0  0  0  0
    3.6061    0.4558   -1.1823 C   0  0  0  0  0  0  0  0  0  0  0  0
    2.5314    0.5609   -0.2899 C   0  0  0  0  0  0  0  0  0  0  0  0
    2.1116   -0.5250    0.4972 C   0  0  0  0  0  0  0  0  0  0  0  0
    0.9289   -0.3965    1.4470 C   0  0  0  0  0  0  0  0  0  0  0  0
   -0.3347   -0.6878    0.8244 N   0  0  0  0  0  0  0  0  0  0  0  0
   -1.0920    0.2679    0.1596 C   0  0  0  0  0  0  0  0  0  0  0  0
   -0.7608    1.4577    0.1361 O   0  0  0  0  0  0  0  0  0  0  0  0
   -2.3392   -0.3143   -0.5696 C   0  0  0  0  0  0  0  0  0  0  0  0
   -3.2123   -1.4149    0.1427 C   0  0  0  0  0  0  0  0  0  0  0  0
   -4.3227   -0.4090    0.1459 C   0  0  0  0  0  0  0  0  0  0  0  0
   -5.6320   -0.1957    0.5071 C   0  0  0  0  0  0  0  0  0  0  0  0
   -6.1676    1.0697    0.2531 C   0  0  0  0  0  0  0  0  0  0  0  0
   -5.3840    2.0745   -0.3465 C   0  0  0  0  0  0  0  0  0  0  0  0
   -4.0568    1.8243   -0.7028 C   0  0  0  0  0  0  0  0  0  0  0  0
   -3.5591    0.5686   -0.4413 C   0  0  0  0  0  0  0  0  0  0  0  0
    1.0022    0.6181    2.5720 C   0  0  0  0  0  0  0  0  0  0  0  0
    1.1175   -0.8367    2.8909 C   0  0  0  0  0  0  0  0  0  0  0  0
    2.8092   -1.7335    0.3416 C   0  0  0  0  0  0  0  0  0  0  0  0
    3.8838   -1.8435   -0.5471 C   0  0  0  0  0  0  0  0  0  0  0  0
    5.0290    0.4347   -3.6265 H   0  0  0  0  0  0  0  0  0  0  0  0
    6.6548   -0.2518   -3.5263 H   0  0  0  0  0  0  0  0  0  0  0  0
    6.1579    0.9229   -2.3023 H   0  0  0  0  0  0  0  0  0  0  0  0
    3.8742    1.3350   -1.7581 H   0  0  0  0  0  0  0  0  0  0  0  0
    1.9995    1.5090   -0.2094 H   0  0  0  0  0  0  0  0  0  0  0  0
   -0.5636   -1.6642    0.6986 H   0  0  0  0  0  0  0  0  0  0  0  0
   -2.0924   -0.5829   -1.6062 H   0  0  0  0  0  0  0  0  0  0  0  0
   -2.8624   -1.7316    1.1314 H   0  0  0  0  0  0  0  0  0  0  0  0
   -3.3716   -2.3141   -0.4632 H   0  0  0  0  0  0  0  0  0  0  0  0
   -6.2249   -0.9729    0.9750 H   0  0  0  0  0  0  0  0  0  0  0  0
   -7.1983    1.2850    0.5246 H   0  0  0  0  0  0  0  0  0  0  0  0
   -5.8161    3.0550   -0.5315 H   0  0  0  0  0  0  0  0  0  0  0  0
   -3.4392    2.5895   -1.1604 H   0  0  0  0  0  0  0  0  0  0  0  0
    1.8915    1.2319    2.6582 H   0  0  0  0  0  0  0  0  0  0  0  0
    0.0912    1.1366    2.8492 H   0  0  0  0  0  0  0  0  0  0  0  0
    0.2846   -1.3033    3.4035 H   0  0  0  0  0  0  0  0  0  0  0  0
    2.0880   -1.1983    3.2112 H   0  0  0  0  0  0  0  0  0  0  0  0
    2.5157   -2.6048    0.9220 H   0  0  0  0  0  0  0  0  0  0  0  0
    4.4084   -2.7910   -0.6427 H   0  0  0  0  0  0  0  0  0  0  0  0
  1  2  1  0
  2  3  1  0
  3  4  1  0
  4  5  2  0
  5  6  1  0
  6  7  1  0
  7  8  1  0
  8  9  1  0
  9 10  2  0
  9 11  1  0
 11 12  1  0
 12 13  1  0
 13 14  2  0
 14 15  1  0
 15 16  2  0
 16 17  1  0
 17 18  2  0
  7 19  1  0
 19 20  1  0
  6 21  2  0
 21 22  1  0
 22  3  2  0
 20  7  1  0
 18 11  1  0
 18 13  1  0
  1 23  1  0
  1 24  1  0
  1 25  1  0
  4 26  1  0
  5 27  1  0
  8 28  1  0
 11 29  1  0
 12 30  1  0
 12 31  1  0
 14 32  1  0
 15 33  1  0
 16 34  1  0
 17 35  1  0
 19 36  1  0
 19 37  1  0
 20 38  1  0
 20 39  1  0
 21 40  1  0
 22 41  1  0
M  END
$$$$
OCNT-2311317
     RDKit          3D

 38 42  0  0  0  0  0  0  0  0999 V2000
    1.9354   -0.2030   -2.1934 F   0  0  0  0  0  0  0  0  0  0  0  0
    2.6180   -0.8729   -1.2042 C   0  0  0  0  0  0  0  0  0  0  0  0
    1.8329   -1.9290   -0.8081 F   0  0  0  0  0  0  0  0  0  0  0  0
    4.0854   -1.0209   -1.2863 C   0  0  0  0  0  0  0  0  0  0  0  0
    3.4485   -0.1221   -0.2334 C   0  0  0  0  0  0  0  0  0  0  0  0
    3.4560   -0.4695    1.1942 N   0  0  0  0  0  0  0  0  0  0  0  0
    4.5118   -1.1164    1.7285 N   0  0  0  0  0  0  0  0  0  0  0  0
    4.1762   -1.2575    3.0124 C   0  0  0  0  0  0  0  0  0  0  0  0
    2.9316   -0.6757    3.3070 C   0  0  0  0  0  0  0  0  0  0  0  0
    2.4927   -0.1473    2.1108 C   0  0  0  0  0  0  0  0  0  0  0  0
    1.1713    0.6321    1.9349 C   0  0  0  0  0  0  0  0  0  0  0  0
    0.6681    1.2151    0.7993 C   0  0  0  0  0  0  0  0  0  0  0  0
   -0.5295    1.7400    1.2026 N   0  0  0  0  0  0  0  0  0  0  0  0
   -1.4951    2.4823    0.4142 C   0  0  0  0  0  0  0  0  0  0  0  0
   -2.0704    1.6234   -0.6576 C   0  0  0  0  0  0  0  0  0  0  0  0
   -1.8056    1.8802   -1.9487 N   0  0  0  0  0  0  0  0  0  0  0  0
   -2.4693    0.9145   -2.6103 N   0  0  0  0  0  0  0  0  0  0  0  0
   -3.1662    0.0570   -1.8034 C   0  0  0  0  0  0  0  0  0  0  0  0
   -3.9696   -1.0487   -2.0983 C   0  0  0  0  0  0  0  0  0  0  0  0
   -4.5398   -1.7271   -1.0163 C   0  0  0  0  0  0  0  0  0  0  0  0
   -4.3108   -1.3140    0.2964 C   0  0  0  0  0  0  0  0  0  0  0  0
   -3.5028   -0.2032    0.5691 C   0  0  0  0  0  0  0  0  0  0  0  0
   -2.9234    0.4942   -0.5069 C   0  0  0  0  0  0  0  0  0  0  0  0
   -0.7337    1.5354    2.5172 N   0  0  0  0  0  0  0  0  0  0  0  0
    0.3037    0.8480    2.9749 N   0  0  0  0  0  0  0  0  0  0  0  0
    4.5095   -1.9651   -0.9688 H   0  0  0  0  0  0  0  0  0  0  0  0
    4.5920   -0.5480   -2.1163 H   0  0  0  0  0  0  0  0  0  0  0  0
    3.5614    0.9435   -0.3948 H   0  0  0  0  0  0  0  0  0  0  0  0
    4.8551   -1.7717    3.6812 H   0  0  0  0  0  0  0  0  0  0  0  0
    2.4243   -0.6315    4.2610 H   0  0  0  0  0  0  0  0  0  0  0  0
    1.0028    1.3001   -0.2225 H   0  0  0  0  0  0  0  0  0  0  0  0
   -2.2839    2.8450    1.0826 H   0  0  0  0  0  0  0  0  0  0  0  0
   -0.9699    3.3522    0.0043 H   0  0  0  0  0  0  0  0  0  0  0  0
   -2.4078    0.8940   -3.6218 H   0  0  0  0  0  0  0  0  0  0  0  0
   -4.1446   -1.3754   -3.1180 H   0  0  0  0  0  0  0  0  0  0  0  0
   -5.1691   -2.5953   -1.2013 H   0  0  0  0  0  0  0  0  0  0  0  0
   -4.7602   -1.8632    1.1209 H   0  0  0  0  0  0  0  0  0  0  0  0
   -3.3249    0.1008    1.5974 H   0  0  0  0  0  0  0  0  0  0  0  0
  1  2  1  0
  2  3  1  0
  2  4  1  0
  4  5  1  0
  5  6  1  0
  6  7  1  0
  7  8  2  0
  8  9  1  0
  9 10  2  0
 10 11  1  0
 11 12  2  0
 12 13  1  0
 13 14  1  0
 14 15  1  0
 15 16  2  0
 16 17  1  0
 17 18  1  0
 18 19  2  0
 19 20  1  0
 20 21  2  0
 21 22  1  0
 22 23  2  0
 13 24  1  0
 24 25  2  0
  5  2  1  0
 10  6  1  0
 25 11  1  0
 23 15  1  0
 23 18  1  0
  4 26  1  0
  4 27  1  0
  5 28  1  0
  8 29  1  0
  9 30  1  0
 12 31  1  0
 14 32  1  0
 14 33  1  0
 17 34  1  0
 19 35  1  0
 20 36  1  0
 21 37  1  0
 22 38  1  0
M  END
$$$$
OCNT-2311328
     RDKit          3D

 42 45  0  0  0  0  0  0  0  0999 V2000
   -0.7448    1.7947    2.0833 O   0  0  0  0  0  0  0  0  0  0  0  0
   -0.2200    0.9416    1.3684 C   0  0  0  0  0  0  0  0  0  0  0  0
    1.0529    0.3744    1.8414 C   0  0  0  0  0  0  0  0  0  0  0  0
    2.1119    1.2471    2.0996 C   0  0  0  0  0  0  0  0  0  0  0  0
    3.3450    0.8847    2.5423 N   0  0  0  0  0  0  0  0  0  0  0  0
    3.4767   -0.4486    2.7605 C   0  0  0  0  0  0  0  0  0  0  0  0
    4.5830   -1.1965    3.2194 C   0  0  0  0  0  0  0  0  0  0  0  0
    4.1648   -2.5091    3.2628 C   0  0  0  0  0  0  0  0  0  0  0  0
    2.8681   -2.6203    2.8594 O   0  0  0  0  0  0  0  0  0  0  0  0
    2.4488   -1.3624    2.5493 C   0  0  0  0  0  0  0  0  0  0  0  0
    1.1925   -0.9927    2.0888 C   0  0  0  0  0  0  0  0  0  0  0  0
   -0.7508    0.5231    0.1557 N   0  0  0  0  0  0  0  0  0  0  0  0
   -0.0352   -0.2740   -0.8526 C   0  0  0  0  0  0  0  0  0  0  0  0
   -0.5933   -1.6732   -1.0530 C   0  0  0  0  0  0  0  0  0  0  0  0
   -0.3657   -2.3326   -2.2633 C   0  0  0  0  0  0  0  0  0  0  0  0
   -0.8494   -3.6278   -2.4276 C   0  0  0  0  0  0  0  0  0  0  0  0
   -1.5404   -4.2346   -1.3850 C   0  0  0  0  0  0  0  0  0  0  0  0
   -1.7107   -3.5216   -0.2099 C   0  0  0  0  0  0  0  0  0  0  0  0
   -1.2518   -2.2650   -0.0203 N   0  0  0  0  0  0  0  0  0  0  0  0
   -2.0712    1.0277   -0.2282 C   0  0  0  0  0  0  0  0  0  0  0  0
   -1.9944    2.2612   -1.1067 C   0  0  0  0  0  0  0  0  0  0  0  0
   -1.8940    3.5275   -0.5338 C   0  0  0  0  0  0  0  0  0  0  0  0
   -1.8059    4.6401   -1.3661 C   0  0  0  0  0  0  0  0  0  0  0  0
   -1.8157    4.4623   -2.7437 C   0  0  0  0  0  0  0  0  0  0  0  0
   -1.9078    3.1716   -3.2348 C   0  0  0  0  0  0  0  0  0  0  0  0
   -1.9902    2.0713   -2.4537 N   0  0  0  0  0  0  0  0  0  0  0  0
    1.9891    2.3179    1.9432 H   0  0  0  0  0  0  0  0  0  0  0  0
    5.5589   -0.8202    3.4887 H   0  0  0  0  0  0  0  0  0  0  0  0
    4.6430   -3.4369    3.5459 H   0  0  0  0  0  0  0  0  0  0  0  0
    0.3936   -1.7096    1.9497 H   0  0  0  0  0  0  0  0  0  0  0  0
   -0.0740    0.2768   -1.7990 H   0  0  0  0  0  0  0  0  0  0  0  0
    1.0246   -0.3633   -0.5957 H   0  0  0  0  0  0  0  0  0  0  0  0
    0.1798   -1.8483   -3.0694 H   0  0  0  0  0  0  0  0  0  0  0  0
   -0.6880   -4.1587   -3.3633 H   0  0  0  0  0  0  0  0  0  0  0  0
   -1.9307   -5.2413   -1.4834 H   0  0  0  0  0  0  0  0  0  0  0  0
   -2.2381   -3.9535    0.6369 H   0  0  0  0  0  0  0  0  0  0  0  0
   -2.6622    1.2572    0.6681 H   0  0  0  0  0  0  0  0  0  0  0  0
   -2.6157    0.2368   -0.7574 H   0  0  0  0  0  0  0  0  0  0  0  0
   -1.8823    3.6470    0.5463 H   0  0  0  0  0  0  0  0  0  0  0  0
   -1.7304    5.6360   -0.9399 H   0  0  0  0  0  0  0  0  0  0  0  0
   -1.7515    5.3090   -3.4185 H   0  0  0  0  0  0  0  0  0  0  0  0
   -1.9187    2.9818   -4.3044 H   0  0  0  0  0  0  0  0  0  0  0  0
  1  2  2  0
  2  3  1  0
  3  4  1  0
  4  5  2  0
  5  6  1  0
  6  7  1  0
  7  8  2  0
  8  9  1  0
  9 10  1  0
 10 11  1  0
  2 12  1  0
 12 13  1  0
 13 14  1  0
 14 15  2  0
 15 16  1  0
 16 17  2  0
 17 18  1  0
 18 19  2  0
 12 20  1  0
 20 21  1  0
 21 22  2  0
 22 23  1  0
 23 24  2  0
 24 25  1  0
 25 26  2  0
 11  3  2  0
 19 14  1  0
 26 21  1  0
 10  6  2  0
  4 27  1  0
  7 28  1  0
  8 29  1  0
 11 30  1  0
 13 31  1  0
 13 32  1  0
 15 33  1  0
 16 34  1  0
 17 35  1  0
 18 36  1  0
 20 37  1  0
 20 38  1  0
 22 39  1  0
 23 40  1  0
 24 41  1  0
 25 42  1  0
M  END
$$$$
OCNT-2311336
     RDKit          3D

 43 46  0  0  0  0  0  0  0  0999 V2000
    0.5209    1.7813   -0.7651 O   0  0  0  0  0  0  0  0  0  0  0  0
    1.1265    0.9209   -0.1330 C   0  0  0  0  0  0  0  0  0  0  0  0
    0.9611   -0.4285   -0.3782 N   0  0  0  0  0  0  0  0  0  0  0  0
    0.1527   -0.8914   -1.4786 C   0  0  0  0  0  0  0  0  0  0  0  0
   -1.2881   -1.0238   -1.0791 C   0  0  0  0  0  0  0  0  0  0  0  0
   -1.7543   -2.1448   -0.3914 C   0  0  0  0  0  0  0  0  0  0  0  0
   -3.0981   -2.2281   -0.0146 C   0  0  0  0  0  0  0  0  0  0  0  0
   -3.9512   -1.1707   -0.3359 C   0  0  0  0  0  0  0  0  0  0  0  0
   -5.3286   -1.2061    0.0316 N   0  0  0  0  0  0  0  0  0  0  0  0
   -6.2595   -0.2179   -0.2328 C   0  0  0  0  0  0  0  0  0  0  0  0
   -7.4475   -0.6574    0.2991 C   0  0  0  0  0  0  0  0  0  0  0  0
   -7.2908   -1.8859    0.8829 N   0  0  0  0  0  0  0  0  0  0  0  0
   -6.0164   -2.1859    0.7093 C   0  0  0  0  0  0  0  0  0  0  0  0
   -3.5182   -0.0671   -0.9993 N   0  0  0  0  0  0  0  0  0  0  0  0
   -2.2081   -0.0113   -1.3407 C   0  0  0  0  0  0  0  0  0  0  0  0
    2.1690    1.2298    0.9727 C   0  0  0  0  0  0  0  0  0  0  0  0
    1.9674    2.6504    1.5457 C   0  0  0  0  0  0  0  0  0  0  0  0
    3.3515    3.2823    1.5497 C   0  0  0  0  0  0  0  0  0  0  0  0
    4.0531    2.6124    0.3768 C   0  0  0  0  0  0  0  0  0  0  0  0
    3.5453    1.2535    0.4344 N   0  0  0  0  0  0  0  0  0  0  0  0
    4.0872    0.2052   -0.2377 C   0  0  0  0  0  0  0  0  0  0  0  0
    3.6109   -1.0230   -0.1713 N   0  0  0  0  0  0  0  0  0  0  0  0
    4.3548   -1.8825   -0.9602 C   0  0  0  0  0  0  0  0  0  0  0  0
    5.3909   -1.3036   -1.6527 C   0  0  0  0  0  0  0  0  0  0  0  0
    5.4726    0.3563   -1.2744 S   0  0  0  0  0  0  0  0  0  0  0  0
    1.7717   -0.9954   -0.1254 H   0  0  0  0  0  0  0  0  0  0  0  0
    0.2680   -0.2190   -2.3374 H   0  0  0  0  0  0  0  0  0  0  0  0
    0.5433   -1.8715   -1.7877 H   0  0  0  0  0  0  0  0  0  0  0  0
   -1.0749   -2.9570   -0.1375 H   0  0  0  0  0  0  0  0  0  0  0  0
   -3.4286   -3.1130    0.5195 H   0  0  0  0  0  0  0  0  0  0  0  0
   -5.9905    0.6866   -0.7611 H   0  0  0  0  0  0  0  0  0  0  0  0
   -8.4061   -0.1544    0.2915 H   0  0  0  0  0  0  0  0  0  0  0  0
   -5.5610   -3.1003    1.0600 H   0  0  0  0  0  0  0  0  0  0  0  0
   -1.9060    0.9075   -1.8419 H   0  0  0  0  0  0  0  0  0  0  0  0
    2.0829    0.4900    1.7767 H   0  0  0  0  0  0  0  0  0  0  0  0
    1.2908    3.2612    0.9399 H   0  0  0  0  0  0  0  0  0  0  0  0
    1.5442    2.6183    2.5559 H   0  0  0  0  0  0  0  0  0  0  0  0
    3.8662    3.0416    2.4853 H   0  0  0  0  0  0  0  0  0  0  0  0
    3.3193    4.3700    1.4531 H   0  0  0  0  0  0  0  0  0  0  0  0
    3.7703    3.0816   -0.5736 H   0  0  0  0  0  0  0  0  0  0  0  0
    5.1387    2.6750    0.5025 H   0  0  0  0  0  0  0  0  0  0  0  0
    4.0819   -2.9318   -1.0039 H   0  0  0  0  0  0  0  0  0  0  0  0
    6.0868   -1.7536   -2.3455 H   0  0  0  0  0  0  0  0  0  0  0  0
  1  2  2  0
  2  3  1  0
  3  4  1  0
  4  5  1  0
  5  6  2  0
  6  7  1  0
  7  8  2  0
  8  9  1  0
  9 10  1  0
 10 11  2  0
 11 12  1  0
 12 13  2  0
  8 14  1  0
 14 15  2  0
  2 16  1  0
 16 17  1  0
 17 18  1  0
 18 19  1  0
 19 20  1  0
 20 21  1  0
 21 22  2  0
 22 23  1  0
 23 24  2  0
 24 25  1  0
 15  5  1  0
 20 16  1  0
 25 21  1  0
 13  9  1  0
  3 26  1  0
  4 27  1  0
  4 28  1  0
  6 29  1  0
  7 30  1  0
 10 31  1  0
 11 32  1  0
 13 33  1  0
 15 34  1  0
 16 35  1  0
 17 36  1  0
 17 37  1  0
 18 38  1  0
 18 39  1  0
 19 40  1  0
 19 41  1  0
 23 42  1  0
 24 43  1  0
M  END
$$$$
OCNT-2311340
     RDKit          3D

 53 56  0  0  0  0  0  0  0  0999 V2000
   -3.5474   -2.9001    0.9421 N   0  0  0  0  0  0  0  0  0  0  0  0
   -2.9570   -1.6756    0.7529 C   0  0  0  0  0  0  0  0  0  0  0  0
   -2.1033   -1.2906    1.5486 O   0  0  0  0  0  0  0  0  0  0  0  0
   -3.4605   -0.8843   -0.4864 C   0  0  0  0  0  0  0  0  0  0  0  0
   -4.7425   -0.0933   -0.2253 C   0  0  0  0  0  0  0  0  0  0  0  0
   -5.1321    0.3244    1.0578 C   0  0  0  0  0  0  0  0  0  0  0  0
   -6.3140    1.0459    1.2449 C   0  0  0  0  0  0  0  0  0  0  0  0
   -7.1191    1.3671    0.1546 C   0  0  0  0  0  0  0  0  0  0  0  0
   -6.7406    0.9753   -1.1266 C   0  0  0  0  0  0  0  0  0  0  0  0
   -5.5602    0.2546   -1.3158 C   0  0  0  0  0  0  0  0  0  0  0  0
   -2.4115   -0.0578   -1.1264 N   0  0  0  0  0  0  0  0  0  0  0  0
   -1.3668   -0.8611   -1.7795 C   0  0  0  0  0  0  0  0  0  0  0  0
   -0.1999    0.0034   -2.2845 C   0  0  0  0  0  0  0  0  0  0  0  0
    0.4610    0.7206   -1.1968 N   0  0  0  0  0  0  0  0  0  0  0  0
    1.7535    1.1617   -1.3956 C   0  0  0  0  0  0  0  0  0  0  0  0
    2.3213    1.0811   -2.4820 O   0  0  0  0  0  0  0  0  0  0  0  0
    2.3529    1.7001   -0.2882 N   0  0  0  0  0  0  0  0  0  0  0  0
    3.7289    2.1419   -0.3255 C   0  0  0  0  0  0  0  0  0  0  0  0
    4.6620    1.0649    0.1752 C   0  0  0  0  0  0  0  0  0  0  0  0
    5.0835    1.0566    1.5160 C   0  0  0  0  0  0  0  0  0  0  0  0
    5.9318    0.0590    2.0122 C   0  0  0  0  0  0  0  0  0  0  0  0
    6.3270   -0.9257    1.1114 C   0  0  0  0  0  0  0  0  0  0  0  0
    7.1439   -1.9779    1.3964 O   0  0  0  0  0  0  0  0  0  0  0  0
    7.2734   -2.6980    0.2513 C   0  0  0  0  0  0  0  0  0  0  0  0
    6.5496   -2.1233   -0.7682 C   0  0  0  0  0  0  0  0  0  0  0  0
    5.9322   -0.9686   -0.2198 C   0  0  0  0  0  0  0  0  0  0  0  0
    5.0812    0.0420   -0.7007 C   0  0  0  0  0  0  0  0  0  0  0  0
   -0.3524    0.9715   -0.0018 C   0  0  0  0  0  0  0  0  0  0  0  0
   -1.8665    1.0351   -0.3006 C   0  0  0  0  0  0  0  0  0  0  0  0
   -4.4558   -3.0971    0.5413 H   0  0  0  0  0  0  0  0  0  0  0  0
   -3.3116   -3.3735    1.8056 H   0  0  0  0  0  0  0  0  0  0  0  0
   -3.7475   -1.6547   -1.2191 H   0  0  0  0  0  0  0  0  0  0  0  0
   -4.5172    0.1077    1.9291 H   0  0  0  0  0  0  0  0  0  0  0  0
   -6.6020    1.3642    2.2438 H   0  0  0  0  0  0  0  0  0  0  0  0
   -8.0354    1.9325    0.3023 H   0  0  0  0  0  0  0  0  0  0  0  0
   -7.3598    1.2368   -1.9806 H   0  0  0  0  0  0  0  0  0  0  0  0
   -5.2690   -0.0283   -2.3259 H   0  0  0  0  0  0  0  0  0  0  0  0
   -0.9660   -1.6156   -1.0908 H   0  0  0  0  0  0  0  0  0  0  0  0
   -1.8026   -1.3938   -2.6326 H   0  0  0  0  0  0  0  0  0  0  0  0
    0.5313   -0.6271   -2.8031 H   0  0  0  0  0  0  0  0  0  0  0  0
   -0.5578    0.7516   -3.0025 H   0  0  0  0  0  0  0  0  0  0  0  0
    2.0440    1.3180    0.5910 H   0  0  0  0  0  0  0  0  0  0  0  0
    4.0137    2.4554   -1.3363 H   0  0  0  0  0  0  0  0  0  0  0  0
    3.7983    3.0270    0.3165 H   0  0  0  0  0  0  0  0  0  0  0  0
    4.7517    1.8401    2.1954 H   0  0  0  0  0  0  0  0  0  0  0  0
    6.2653    0.0454    3.0424 H   0  0  0  0  0  0  0  0  0  0  0  0
    7.9006   -3.5756    0.3218 H   0  0  0  0  0  0  0  0  0  0  0  0
    6.4747   -2.4883   -1.7823 H   0  0  0  0  0  0  0  0  0  0  0  0
    4.7453    0.0315   -1.7355 H   0  0  0  0  0  0  0  0  0  0  0  0
   -0.1330    0.1615    0.7020 H   0  0  0  0  0  0  0  0  0  0  0  0
   -0.0436    1.9118    0.4668 H   0  0  0  0  0  0  0  0  0  0  0  0
   -2.0493    1.9595   -0.8642 H   0  0  0  0  0  0  0  0  0  0  0  0
   -2.4025    1.1621    0.6458 H   0  0  0  0  0  0  0  0  0  0  0  0
  1  2  1  0
  2  3  2  0
  2  4  1  0
  4  5  1  0
  5  6  2  0
  6  7  1  0
  7  8  2  0
  8  9  1  0
  9 10  2  0
  4 11  1  0
 11 12  1  0
 12 13  1  0
 13 14  1  0
 14 15  1  0
 15 16  2  0
 15 17  1  0
 17 18  1  0
 18 19  1  0
 19 20  2  0
 20 21  1  0
 21 22  2  0
 22 23  1  0
 23 24  1  0
 24 25  2  0
 25 26  1  0
 26 27  2  0
 14 28  1  0
 28 29  1  0
 10  5  1  0
 29 11  1  0
 27 19  1  0
 26 22  1  0
  1 30  1  0
  1 31  1  0
  4 32  1  0
  6 33  1  0
  7 34  1  0
  8 35  1  0
  9 36  1  0
 10 37  1  0
 12 38  1  0
 12 39  1  0
 13 40  1  0
 13 41  1  0
 17 42  1  0
 18 43  1  0
 18 44  1  0
 20 45  1  0
 21 46  1  0
 24 47  1  0
 25 48  1  0
 27 49  1  0
 28 50  1  0
 28 51  1  0
 29 52  1  0
 29 53  1  0
M  END
$$$$
OCNT-2311344
     RDKit          3D

 45 46  0  0  0  0  0  0  0  0999 V2000
    7.6149    0.9475    0.3254 C   0  0  0  0  0  0  0  0  0  0  0  0
    6.8715   -0.1278   -0.2334 O   0  0  0  0  0  0  0  0  0  0  0  0
    5.5221   -0.1378   -0.0110 C   0  0  0  0  0  0  0  0  0  0  0  0
    4.8076    0.8258    0.7010 C   0  0  0  0  0  0  0  0  0  0  0  0
    3.4208    0.6998    0.8567 C   0  0  0  0  0  0  0  0  0  0  0  0
    2.7339   -0.3882    0.3015 C   0  0  0  0  0  0  0  0  0  0  0  0
    1.2691   -0.4848    0.4888 C   0  0  0  0  0  0  0  0  0  0  0  0
    0.5941    0.3271    1.2404 N   0  0  0  0  0  0  0  0  0  0  0  0
   -0.7570   -0.0926    1.1875 O   0  0  0  0  0  0  0  0  0  0  0  0
   -0.9070   -0.9053    0.0152 C   0  0  0  0  0  0  0  0  0  0  0  0
   -2.0275   -1.9335    0.2045 C   0  0  0  0  0  0  0  0  0  0  0  0
   -3.3677   -1.4185    0.4933 N   0  0  0  0  0  0  0  0  0  0  0  0
   -4.0757   -0.6330   -0.5411 C   0  0  0  0  0  0  0  0  0  0  0  0
   -3.8742   -1.1561   -1.9647 C   0  0  0  0  0  0  0  0  0  0  0  0
   -3.8136    0.9005   -0.3959 C   0  0  0  0  0  0  0  0  0  0  0  0
   -4.7522    1.7302   -1.2727 C   0  0  0  0  0  0  0  0  0  0  0  0
   -4.0341    1.2439    0.9856 O   0  0  0  0  0  0  0  0  0  0  0  0
   -3.3027    2.3891    1.4053 C   0  0  0  0  0  0  0  0  0  0  0  0
    0.4516   -1.5523   -0.1560 C   0  0  0  0  0  0  0  0  0  0  0  0
    3.4440   -1.3563   -0.4070 C   0  0  0  0  0  0  0  0  0  0  0  0
    4.8233   -1.2206   -0.5564 C   0  0  0  0  0  0  0  0  0  0  0  0
    5.4810   -2.1664   -1.2449 F   0  0  0  0  0  0  0  0  0  0  0  0
    8.6668    0.7988    0.0632 H   0  0  0  0  0  0  0  0  0  0  0  0
    7.5414    0.9527    1.4179 H   0  0  0  0  0  0  0  0  0  0  0  0
    7.2987    1.9069   -0.0971 H   0  0  0  0  0  0  0  0  0  0  0  0
    5.2929    1.6869    1.1495 H   0  0  0  0  0  0  0  0  0  0  0  0
    2.8803    1.4611    1.4182 H   0  0  0  0  0  0  0  0  0  0  0  0
   -1.1102   -0.2463   -0.8352 H   0  0  0  0  0  0  0  0  0  0  0  0
   -2.0604   -2.6135   -0.6541 H   0  0  0  0  0  0  0  0  0  0  0  0
   -1.7679   -2.5623    1.0659 H   0  0  0  0  0  0  0  0  0  0  0  0
   -3.3291   -0.8267    1.3332 H   0  0  0  0  0  0  0  0  0  0  0  0
   -5.1366   -0.7852   -0.2995 H   0  0  0  0  0  0  0  0  0  0  0  0
   -4.5984   -0.7103   -2.6538 H   0  0  0  0  0  0  0  0  0  0  0  0
   -4.0297   -2.2399   -2.0092 H   0  0  0  0  0  0  0  0  0  0  0  0
   -2.8718   -0.9355   -2.3439 H   0  0  0  0  0  0  0  0  0  0  0  0
   -2.7784    1.1272   -0.6698 H   0  0  0  0  0  0  0  0  0  0  0  0
   -5.7993    1.5209   -1.0281 H   0  0  0  0  0  0  0  0  0  0  0  0
   -4.5923    1.5350   -2.3365 H   0  0  0  0  0  0  0  0  0  0  0  0
   -4.6022    2.8017   -1.1088 H   0  0  0  0  0  0  0  0  0  0  0  0
   -3.4934    2.5428    2.4709 H   0  0  0  0  0  0  0  0  0  0  0  0
   -2.2290    2.2367    1.2651 H   0  0  0  0  0  0  0  0  0  0  0  0
   -3.6285    3.2820    0.8658 H   0  0  0  0  0  0  0  0  0  0  0  0
    0.5616   -2.4767    0.4198 H   0  0  0  0  0  0  0  0  0  0  0  0
    0.6960   -1.7221   -1.2064 H   0  0  0  0  0  0  0  0  0  0  0  0
    2.9671   -2.2248   -0.8465 H   0  0  0  0  0  0  0  0  0  0  0  0
  1  2  1  0
  2  3  1  0
  3  4  1  0
  4  5  2  0
  5  6  1  0
  6  7  1  0
  7  8  2  0
  8  9  1  0
  9 10  1  0
 10 11  1  0
 11 12  1  0
 12 13  1  0
 13 14  1  0
 13 15  1  0
 15 16  1  0
 15 17  1  0
 17 18  1  0
 10 19  1  0
  6 20  2  0
 20 21  1  0
 21 22  1  0
 21  3  2  0
 19  7  1  0
  1 23  1  0
  1 24  1  0
  1 25  1  0
  4 26  1  0
  5 27  1  0
 10 28  1  0
 11 29  1  0
 11 30  1  0
 12 31  1  0
 13 32  1  0
 14 33  1  0
 14 34  1  0
 14 35  1  0
 15 36  1  0
 16 37  1  0
 16 38  1  0
 16 39  1  0
 18 40  1  0
 18 41  1  0
 18 42  1  0
 19 43  1  0
 19 44  1  0
 20 45  1  0
M  END
$$$$
OCNT-2311351
     RDKit          3D

 47 49  0  0  0  0  0  0  0  0999 V2000
    0.6064   -1.0144   -2.6903 C   0  0  0  0  0  0  0  0  0  0  0  0
    0.5471   -0.9365   -1.1600 C   0  0  0  0  0  0  0  0  0  0  0  0
   -0.5114   -0.0296   -0.7049 N   0  0  0  0  0  0  0  0  0  0  0  0
   -1.8222   -0.6780   -0.6223 C   0  0  0  0  0  0  0  0  0  0  0  0
   -2.9669    0.3245   -0.2797 C   0  0  0  0  0  0  0  0  0  0  0  0
   -3.1776    1.3199   -1.4526 C   0  0  0  0  0  0  0  0  0  0  0  0
   -2.0068    2.0622   -1.7789 O   0  0  0  0  0  0  0  0  0  0  0  0
   -2.6307    1.0669    1.0437 C   0  0  0  0  0  0  0  0  0  0  0  0
   -3.8963    1.4639    1.7919 C   0  0  0  0  0  0  0  0  0  0  0  0
   -4.7013    0.3458    2.1649 O   0  0  0  0  0  0  0  0  0  0  0  0
   -4.5354   -0.8202    1.3604 C   0  0  0  0  0  0  0  0  0  0  0  0
   -4.2927   -0.4704   -0.1008 C   0  0  0  0  0  0  0  0  0  0  0  0
    1.8795   -0.5014   -0.5841 C   0  0  0  0  0  0  0  0  0  0  0  0
    2.6683   -1.3583    0.0852 C   0  0  0  0  0  0  0  0  0  0  0  0
    3.9239   -0.8635    0.6323 C   0  0  0  0  0  0  0  0  0  0  0  0
    4.7033   -1.6572    1.4810 C   0  0  0  0  0  0  0  0  0  0  0  0
    5.9229   -1.1792    1.9668 C   0  0  0  0  0  0  0  0  0  0  0  0
    6.3727    0.0884    1.5990 C   0  0  0  0  0  0  0  0  0  0  0  0
    5.6012    0.8805    0.7487 C   0  0  0  0  0  0  0  0  0  0  0  0
    4.3758    0.4092    0.2767 C   0  0  0  0  0  0  0  0  0  0  0  0
    3.6904    1.2318   -0.5728 O   0  0  0  0  0  0  0  0  0  0  0  0
    2.2927    0.9430   -0.7479 C   0  0  0  0  0  0  0  0  0  0  0  0
    0.7448   -0.0296   -3.1499 H   0  0  0  0  0  0  0  0  0  0  0  0
   -0.3151   -1.4420   -3.0996 H   0  0  0  0  0  0  0  0  0  0  0  0
    1.4354   -1.6532   -3.0155 H   0  0  0  0  0  0  0  0  0  0  0  0
    0.3343   -1.9482   -0.7875 H   0  0  0  0  0  0  0  0  0  0  0  0
   -0.5989    0.7556   -1.3614 H   0  0  0  0  0  0  0  0  0  0  0  0
   -2.0610   -1.1723   -1.5721 H   0  0  0  0  0  0  0  0  0  0  0  0
   -1.7834   -1.4590    0.1475 H   0  0  0  0  0  0  0  0  0  0  0  0
   -3.4709    0.7746   -2.3570 H   0  0  0  0  0  0  0  0  0  0  0  0
   -3.9784    2.0347   -1.2324 H   0  0  0  0  0  0  0  0  0  0  0  0
   -1.8988    2.7524   -1.1010 H   0  0  0  0  0  0  0  0  0  0  0  0
   -2.0103    1.9512    0.8669 H   0  0  0  0  0  0  0  0  0  0  0  0
   -2.0498    0.4047    1.6997 H   0  0  0  0  0  0  0  0  0  0  0  0
   -3.6385    2.0016    2.7101 H   0  0  0  0  0  0  0  0  0  0  0  0
   -4.5117    2.1396    1.1877 H   0  0  0  0  0  0  0  0  0  0  0  0
   -5.4481   -1.4168    1.4581 H   0  0  0  0  0  0  0  0  0  0  0  0
   -3.7145   -1.4186    1.7710 H   0  0  0  0  0  0  0  0  0  0  0  0
   -4.2905   -1.3802   -0.7122 H   0  0  0  0  0  0  0  0  0  0  0  0
   -5.1405    0.1373   -0.4439 H   0  0  0  0  0  0  0  0  0  0  0  0
    2.3990   -2.3960    0.2443 H   0  0  0  0  0  0  0  0  0  0  0  0
    4.3703   -2.6510    1.7687 H   0  0  0  0  0  0  0  0  0  0  0  0
    6.5244   -1.7985    2.6272 H   0  0  0  0  0  0  0  0  0  0  0  0
    7.3244    0.4588    1.9704 H   0  0  0  0  0  0  0  0  0  0  0  0
    5.9512    1.8656    0.4538 H   0  0  0  0  0  0  0  0  0  0  0  0
    2.0491    1.2882   -1.7576 H   0  0  0  0  0  0  0  0  0  0  0  0
    1.7341    1.5735   -0.0457 H   0  0  0  0  0  0  0  0  0  0  0  0
  1  2  1  0
  2  3  1  0
  3  4  1  0
  4  5  1  0
  5  6  1  0
  6  7  1  0
  5  8  1  0
  8  9  1  0
  9 10  1  0
 10 11  1  0
 11 12  1  0
  2 13  1  0
 13 14  2  0
 14 15  1  0
 15 16  2  0
 16 17  1  0
 17 18  2  0
 18 19  1  0
 19 20  2  0
 20 21  1  0
 21 22  1  0
 12  5  1  0
 22 13  1  0
 20 15  1  0
  1 23  1  0
  1 24  1  0
  1 25  1  0
  2 26  1  0
  3 27  1  0
  4 28  1  0
  4 29  1  0
  6 30  1  0
  6 31  1  0
  7 32  1  0
  8 33  1  0
  8 34  1  0
  9 35  1  0
  9 36  1  0
 11 37  1  0
 11 38  1  0
 12 39  1  0
 12 40  1  0
 14 41  1  0
 16 42  1  0
 17 43  1  0
 18 44  1  0
 19 45  1  0
 22 46  1  0
 22 47  1  0
M  END
$$$$
OCNT-2311357
     RDKit          3D

 44 46  0  0  0  0  0  0  0  0999 V2000
    0.2770    0.8767    3.4414 C   0  0  0  0  0  0  0  0  0  0  0  0
   -0.6474    2.0647    3.1981 C   0  0  0  0  0  0  0  0  0  0  0  0
   -2.3984    1.7080    3.5491 S   0  0  0  0  0  0  0  0  0  0  0  0
   -2.9177    0.7757    2.1656 C   0  0  0  0  0  0  0  0  0  0  0  0
   -2.1065   -0.0316    1.5215 N   0  0  0  0  0  0  0  0  0  0  0  0
   -2.8032   -0.6815    0.5141 C   0  0  0  0  0  0  0  0  0  0  0  0
   -2.2727   -1.6488   -0.3626 C   0  0  0  0  0  0  0  0  0  0  0  0
   -3.0852   -2.2119   -1.3514 C   0  0  0  0  0  0  0  0  0  0  0  0
   -4.4162   -1.8258   -1.4728 C   0  0  0  0  0  0  0  0  0  0  0  0
   -4.9695   -0.8751   -0.6095 C   0  0  0  0  0  0  0  0  0  0  0  0
   -4.1443   -0.3179    0.3806 C   0  0  0  0  0  0  0  0  0  0  0  0
   -4.5275    0.8452    1.5889 S   0  0  0  0  0  0  0  0  0  0  0  0
   -0.4833    2.7553    1.8425 C   0  0  0  0  0  0  0  0  0  0  0  0
   -0.6216    3.9720    1.7171 O   0  0  0  0  0  0  0  0  0  0  0  0
   -0.1981    1.9439    0.7703 N   0  0  0  0  0  0  0  0  0  0  0  0
   -0.1294    2.4955   -0.5736 C   0  0  0  0  0  0  0  0  0  0  0  0
    0.4095    1.5363   -1.6281 C   0  0  0  0  0  0  0  0  0  0  0  0
    0.6275    1.8659   -2.7882 O   0  0  0  0  0  0  0  0  0  0  0  0
    0.5849    0.2826   -1.1258 O   0  0  0  0  0  0  0  0  0  0  0  0
    1.1754   -0.6703   -2.0165 C   0  0  0  0  0  0  0  0  0  0  0  0
    2.6056   -0.8923   -1.6037 C   0  0  0  0  0  0  0  0  0  0  0  0
    2.9184   -1.7866   -0.5706 C   0  0  0  0  0  0  0  0  0  0  0  0
    4.2437   -1.9744   -0.1757 C   0  0  0  0  0  0  0  0  0  0  0  0
    5.2660   -1.2651   -0.8034 C   0  0  0  0  0  0  0  0  0  0  0  0
    4.9643   -0.3631   -1.8217 C   0  0  0  0  0  0  0  0  0  0  0  0
    3.6398   -0.1735   -2.2182 C   0  0  0  0  0  0  0  0  0  0  0  0
    0.2237    0.5475    4.4848 H   0  0  0  0  0  0  0  0  0  0  0  0
    0.0543    0.0148    2.8075 H   0  0  0  0  0  0  0  0  0  0  0  0
    1.3166    1.1583    3.2389 H   0  0  0  0  0  0  0  0  0  0  0  0
   -0.3539    2.8224    3.9369 H   0  0  0  0  0  0  0  0  0  0  0  0
   -1.2368   -1.9532   -0.2591 H   0  0  0  0  0  0  0  0  0  0  0  0
   -2.6741   -2.9587   -2.0275 H   0  0  0  0  0  0  0  0  0  0  0  0
   -5.0383   -2.2727   -2.2460 H   0  0  0  0  0  0  0  0  0  0  0  0
   -6.0105   -0.5803   -0.7012 H   0  0  0  0  0  0  0  0  0  0  0  0
   -0.4474    0.9585    0.8502 H   0  0  0  0  0  0  0  0  0  0  0  0
    0.5147    3.3802   -0.5499 H   0  0  0  0  0  0  0  0  0  0  0  0
   -1.1447    2.7877   -0.8599 H   0  0  0  0  0  0  0  0  0  0  0  0
    1.1062   -0.3839   -3.0727 H   0  0  0  0  0  0  0  0  0  0  0  0
    0.6141   -1.6067   -1.9229 H   0  0  0  0  0  0  0  0  0  0  0  0
    2.1303   -2.3383   -0.0633 H   0  0  0  0  0  0  0  0  0  0  0  0
    4.4792   -2.6707    0.6248 H   0  0  0  0  0  0  0  0  0  0  0  0
    6.2978   -1.4109   -0.4945 H   0  0  0  0  0  0  0  0  0  0  0  0
    5.7605    0.1967   -2.3055 H   0  0  0  0  0  0  0  0  0  0  0  0
    3.4172    0.5425   -3.0078 H   0  0  0  0  0  0  0  0  0  0  0  0
  1  2  1  0
  2  3  1  0
  3  4  1  0
  4  5  2  0
  5  6  1  0
  6  7  2  0
  7  8  1  0
  8  9  2  0
  9 10  1  0
 10 11  2  0
 11 12  1  0
  2 13  1  0
 13 14  2  0
 13 15  1  0
 15 16  1  0
 16 17  1  0
 17 18  2  0
 17 19  1  0
 19 20  1  0
 20 21  1  0
 21 22  2  0
 22 23  1  0
 23 24  2  0
 24 25  1  0
 25 26  2  0
 12  4  1  0
 26 21  1  0
 11  6  1  0
  1 27  1  0
  1 28  1  0
  1 29  1  0
  2 30  1  0
  7 31  1  0
  8 32  1  0
  9 33  1  0
 10 34  1  0
 15 35  1  0
 16 36  1  0
 16 37  1  0
 20 38  1  0
 20 39  1  0
 22 40  1  0
 23 41  1  0
 24 42  1  0
 25 43  1  0
 26 44  1  0
M  END
$$$$
OCNT-2311380
     RDKit          3D

  0  0  0  0  0  0  0  0  0  0999 V3000
M  V30 BEGIN CTAB
M  V30 COUNTS 38 41 0 0 0
M  V30 BEGIN ATOM
M  V30 1 O 1.980304 2.582957 -1.026209 0
M  V30 2 C 2.269577 1.536619 -0.449611 0
M  V30 3 C 3.639195 1.138361 -0.250760 0
M  V30 4 C 4.723290 1.337421 -1.083284 0
M  V30 5 N 5.875457 0.833411 -0.534530 0
M  V30 6 C 5.522413 0.379195 0.643963 0
M  V30 7 N 4.187640 0.555706 0.867210 0
M  V30 8 N 1.275511 0.696508 0.033118 0
M  V30 9 C 1.405799 -0.712562 0.362288 0
M  V30 10 C -0.016081 -1.289586 0.292287 0 CFG=1
M  V30 11 C -0.328743 -2.161604 1.486774 0
M  V30 12 O -0.570342 -1.264307 2.574712 0
M  V30 13 C -0.991942 0.007122 2.035823 0
M  V30 14 C -0.934097 -0.076663 0.495326 0 CFG=2
M  V30 15 C -2.340158 -0.133233 -0.097805 0
M  V30 16 C -3.163217 1.008687 -0.022718 0
M  V30 17 C -4.455540 1.009162 -0.552367 0
M  V30 18 C -4.955097 -0.132736 -1.167779 0
M  V30 19 C -4.162305 -1.272846 -1.251264 0
M  V30 20 C -2.867768 -1.274009 -0.721477 0
M  V30 21 C -0.119373 1.063047 -0.137094 0
M  V30 22 H 4.723616 1.812076 -2.057080 0
M  V30 23 H 6.182208 -0.071045 1.373955 0
M  V30 24 H 3.699993 0.339489 1.724625 0
M  V30 25 H 1.837970 -0.792750 1.364662 0
M  V30 26 H 2.073968 -1.210590 -0.347916 0
M  V30 27 H -0.141670 -1.810291 -0.661875 0
M  V30 28 H -1.236209 -2.754264 1.332956 0
M  V30 29 H 0.485201 -2.843704 1.749664 0
M  V30 30 H -0.311562 0.764780 2.440013 0
M  V30 31 H -1.990616 0.219724 2.431060 0
M  V30 32 H -2.806664 1.919623 0.455291 0
M  V30 33 H -5.071003 1.902617 -0.483192 0
M  V30 34 H -5.960253 -0.135126 -1.580799 0
M  V30 35 H -4.551834 -2.167689 -1.730771 0
M  V30 36 H -2.295725 -2.192291 -0.812538 0
M  V30 37 H -0.304726 2.041736 0.319502 0
M  V30 38 H -0.307219 1.147054 -1.215568 0
M  V30 END ATOM
M  V30 BEGIN BOND
M  V30 1 2 1 2
M  V30 2 1 2 3
M  V30 3 2 3 4
M  V30 4 1 4 5
M  V30 5 2 5 6
M  V30 6 1 6 7
M  V30 7 1 2 8
M  V30 8 1 8 9
M  V30 9 1 9 10
M  V30 10 1 10 11
M  V30 11 1 11 12
M  V30 12 1 12 13
M  V30 13 1 13 14
M  V30 14 1 14 15 CFG=3
M  V30 15 2 15 16
M  V30 16 1 16 17
M  V30 17 2 17 18
M  V30 18 1 18 19
M  V30 19 2 19 20
M  V30 20 1 14 21
M  V30 21 1 7 3
M  V30 22 1 21 8
M  V30 23 1 14 10
M  V30 24 1 20 15
M  V30 25 1 4 22
M  V30 26 1 6 23
M  V30 27 1 7 24
M  V30 28 1 9 25
M  V30 29 1 9 26
M  V30 30 1 10 27 CFG=3
M  V30 31 1 11 28
M  V30 32 1 11 29
M  V30 33 1 13 30
M  V30 34 1 13 31
M  V30 35 1 16 32
M  V30 36 1 17 33
M  V30 37 1 18 34
M  V30 38 1 19 35
M  V30 39 1 20 36
M  V30 40 1 21 37
M  V30 41 1 21 38
M  V30 END BOND
M  V30 BEGIN COLLECTION
M  V30 MDLV30/STERAC1 ATOMS=(2 10 14)
M  V30 END COLLECTION
M  V30 END CTAB
M  END
>  <_CXSMILES_Data>  (466) 
|&1:9,13|

$$$$
OCNT-2311391
     RDKit          3D

 49 51  0  0  0  0  0  0  0  0999 V2000
    2.5650    0.2722   -0.8841 C   0  0  0  0  0  0  0  0  0  0  0  0
    2.1453   -0.4467    0.4118 C   0  0  0  0  0  0  0  0  0  0  0  0
    2.2705   -1.9680    0.2027 C   0  0  0  0  0  0  0  0  0  0  0  0
    0.6804   -0.0804    0.7748 C   0  0  0  0  0  0  0  0  0  0  0  0
   -0.3535   -0.4587   -0.2592 C   0  0  0  0  0  0  0  0  0  0  0  0
   -0.9017   -1.5519   -0.3254 O   0  0  0  0  0  0  0  0  0  0  0  0
   -0.5988    0.5776   -1.1041 O   0  0  0  0  0  0  0  0  0  0  0  0
   -1.5341    0.3034   -2.1534 C   0  0  0  0  0  0  0  0  0  0  0  0
   -2.9792    0.2579   -1.6589 C   0  0  0  0  0  0  0  0  0  0  0  0
   -3.6998    1.3273   -1.6989 N   0  0  0  0  0  0  0  0  0  0  0  0
   -4.9829    1.3875   -1.1398 C   0  0  0  0  0  0  0  0  0  0  0  0
   -5.6135    2.6380   -1.1346 C   0  0  0  0  0  0  0  0  0  0  0  0
   -6.8787    2.8133   -0.5627 C   0  0  0  0  0  0  0  0  0  0  0  0
   -7.5376    1.7326    0.0184 C   0  0  0  0  0  0  0  0  0  0  0  0
   -6.9321    0.4791    0.0204 C   0  0  0  0  0  0  0  0  0  0  0  0
   -5.6665    0.3263   -0.5605 C   0  0  0  0  0  0  0  0  0  0  0  0
   -4.9313   -1.2518   -0.5830 S   0  0  0  0  0  0  0  0  0  0  0  0
   -4.7973   -1.6958    0.7876 O   0  0  0  0  0  0  0  0  0  0  0  0
   -5.6193   -2.0480   -1.5747 O   0  0  0  0  0  0  0  0  0  0  0  0
   -3.4051   -0.9657   -1.1357 N   0  0  0  0  0  0  0  0  0  0  0  0
    3.0247    0.0187    1.6164 C   0  0  0  0  0  0  0  0  0  0  0  0
    4.5185   -0.1922    1.5104 C   0  0  0  0  0  0  0  0  0  0  0  0
    5.3418    0.8070    0.9700 C   0  0  0  0  0  0  0  0  0  0  0  0
    6.7219    0.6154    0.8735 C   0  0  0  0  0  0  0  0  0  0  0  0
    7.2884   -0.5747    1.3221 C   0  0  0  0  0  0  0  0  0  0  0  0
    8.9885   -0.8108    1.2002 Cl  0  0  0  0  0  0  0  0  0  0  0  0
    6.4870   -1.5734    1.8697 C   0  0  0  0  0  0  0  0  0  0  0  0
    5.1066   -1.3809    1.9663 C   0  0  0  0  0  0  0  0  0  0  0  0
    3.5934    0.0263   -1.1680 H   0  0  0  0  0  0  0  0  0  0  0  0
    2.4942    1.3596   -0.7735 H   0  0  0  0  0  0  0  0  0  0  0  0
    1.9345   -0.0208   -1.7303 H   0  0  0  0  0  0  0  0  0  0  0  0
    1.9761   -2.5154    1.1045 H   0  0  0  0  0  0  0  0  0  0  0  0
    3.2944   -2.2593   -0.0514 H   0  0  0  0  0  0  0  0  0  0  0  0
    1.6384   -2.3160   -0.6210 H   0  0  0  0  0  0  0  0  0  0  0  0
    0.3834   -0.5712    1.7115 H   0  0  0  0  0  0  0  0  0  0  0  0
    0.5872    0.9964    0.9704 H   0  0  0  0  0  0  0  0  0  0  0  0
   -1.4400    1.1126   -2.8857 H   0  0  0  0  0  0  0  0  0  0  0  0
   -1.2756   -0.6324   -2.6626 H   0  0  0  0  0  0  0  0  0  0  0  0
   -5.1061    3.4927   -1.5773 H   0  0  0  0  0  0  0  0  0  0  0  0
   -7.3439    3.7961   -0.5696 H   0  0  0  0  0  0  0  0  0  0  0  0
   -8.5197    1.8672    0.4653 H   0  0  0  0  0  0  0  0  0  0  0  0
   -7.4388   -0.3729    0.4679 H   0  0  0  0  0  0  0  0  0  0  0  0
   -2.6916   -1.5993   -0.7566 H   0  0  0  0  0  0  0  0  0  0  0  0
    2.6771   -0.4803    2.5323 H   0  0  0  0  0  0  0  0  0  0  0  0
    2.8488    1.0886    1.7995 H   0  0  0  0  0  0  0  0  0  0  0  0
    4.9133    1.7435    0.6183 H   0  0  0  0  0  0  0  0  0  0  0  0
    7.3466    1.3969    0.4497 H   0  0  0  0  0  0  0  0  0  0  0  0
    6.9283   -2.5012    2.2230 H   0  0  0  0  0  0  0  0  0  0  0  0
    4.4929   -2.1685    2.3995 H   0  0  0  0  0  0  0  0  0  0  0  0
  1  2  1  0
  2  3  1  0
  2  4  1  0
  4  5  1  0
  5  6  2  0
  5  7  1  0
  7  8  1  0
  8  9  1  0
  9 10  2  0
 10 11  1  0
 11 12  2  0
 12 13  1  0
 13 14  2  0
 14 15  1  0
 15 16  2  0
 16 17  1  0
 17 18  2  0
 17 19  2  0
 17 20  1  0
  2 21  1  0
 21 22  1  0
 22 23  1  0
 23 24  2  0
 24 25  1  0
 25 26  1  0
 25 27  2  0
 27 28  1  0
 20  9  1  0
 28 22  2  0
 16 11  1  0
  1 29  1  0
  1 30  1  0
  1 31  1  0
  3 32  1  0
  3 33  1  0
  3 34  1  0
  4 35  1  0
  4 36  1  0
  8 37  1  0
  8 38  1  0
 12 39  1  0
 13 40  1  0
 14 41  1  0
 15 42  1  0
 20 43  1  0
 21 44  1  0
 21 45  1  0
 23 46  1  0
 24 47  1  0
 27 48  1  0
 28 49  1  0
M  END
$$$$
OCNT-2311397
     RDKit          3D

 44 46  0  0  0  0  0  0  0  0999 V2000
    1.5645    2.3145   -1.8044 C   0  0  0  0  0  0  0  0  0  0  0  0
    2.0235    1.2617   -0.7899 C   0  0  0  0  0  0  0  0  0  0  0  0
    1.3774   -0.0064   -1.1035 N   0  0  0  0  0  0  0  0  0  0  0  0
    0.9449   -0.8518   -0.1166 C   0  0  0  0  0  0  0  0  0  0  0  0
    1.0356   -0.6266    1.0833 O   0  0  0  0  0  0  0  0  0  0  0  0
    0.3544   -1.9700   -0.6431 N   0  0  0  0  0  0  0  0  0  0  0  0
   -0.2964   -2.9357    0.2235 C   0  0  0  0  0  0  0  0  0  0  0  0
   -1.7071   -2.5476    0.4962 C   0  0  0  0  0  0  0  0  0  0  0  0
   -2.2927   -1.3066    0.6359 C   0  0  0  0  0  0  0  0  0  0  0  0
   -3.6127   -1.5572    0.9241 N   0  0  0  0  0  0  0  0  0  0  0  0
   -4.6594   -0.6315    1.1737 C   0  0  0  0  0  0  0  0  0  0  0  0
   -5.9375   -1.1055    1.5056 C   0  0  0  0  0  0  0  0  0  0  0  0
   -6.9757   -0.2074    1.7613 C   0  0  0  0  0  0  0  0  0  0  0  0
   -6.7477    1.1640    1.6844 C   0  0  0  0  0  0  0  0  0  0  0  0
   -5.4806    1.6436    1.3511 C   0  0  0  0  0  0  0  0  0  0  0  0
   -4.4357    0.7511    1.0965 C   0  0  0  0  0  0  0  0  0  0  0  0
   -3.8140   -2.9012    0.9529 N   0  0  0  0  0  0  0  0  0  0  0  0
   -2.6661   -3.5058    0.6813 N   0  0  0  0  0  0  0  0  0  0  0  0
    3.5359    1.0852   -0.7003 C   0  0  0  0  0  0  0  0  0  0  0  0
    4.0925    0.6084    0.5024 C   0  0  0  0  0  0  0  0  0  0  0  0
    5.4730    0.4450    0.6463 C   0  0  0  0  0  0  0  0  0  0  0  0
    6.3254    0.7549   -0.4150 C   0  0  0  0  0  0  0  0  0  0  0  0
    7.7426    0.6235   -0.2586 C   0  0  0  0  0  0  0  0  0  0  0  0
    8.8893    0.5341   -0.1231 N   0  0  0  0  0  0  0  0  0  0  0  0
    5.7883    1.2093   -1.6234 C   0  0  0  0  0  0  0  0  0  0  0  0
    4.4046    1.3651   -1.7675 C   0  0  0  0  0  0  0  0  0  0  0  0
    0.4811    2.4524   -1.7412 H   0  0  0  0  0  0  0  0  0  0  0  0
    2.0416    3.2859   -1.6213 H   0  0  0  0  0  0  0  0  0  0  0  0
    1.7818    2.0119   -2.8353 H   0  0  0  0  0  0  0  0  0  0  0  0
    1.6686    1.6040    0.1923 H   0  0  0  0  0  0  0  0  0  0  0  0
    1.6659   -0.4495   -1.9657 H   0  0  0  0  0  0  0  0  0  0  0  0
   -0.0254   -1.8733   -1.5733 H   0  0  0  0  0  0  0  0  0  0  0  0
    0.2594   -3.0375    1.1635 H   0  0  0  0  0  0  0  0  0  0  0  0
   -0.2691   -3.8984   -0.3021 H   0  0  0  0  0  0  0  0  0  0  0  0
   -1.8787   -0.3120    0.5783 H   0  0  0  0  0  0  0  0  0  0  0  0
   -6.1439   -2.1734    1.5743 H   0  0  0  0  0  0  0  0  0  0  0  0
   -7.9630   -0.5815    2.0244 H   0  0  0  0  0  0  0  0  0  0  0  0
   -7.5574    1.8601    1.8853 H   0  0  0  0  0  0  0  0  0  0  0  0
   -5.3048    2.7175    1.2931 H   0  0  0  0  0  0  0  0  0  0  0  0
   -3.4668    1.1680    0.8370 H   0  0  0  0  0  0  0  0  0  0  0  0
    3.4452    0.3627    1.3454 H   0  0  0  0  0  0  0  0  0  0  0  0
    5.8702    0.0813    1.5934 H   0  0  0  0  0  0  0  0  0  0  0  0
    6.4413    1.4534   -2.4605 H   0  0  0  0  0  0  0  0  0  0  0  0
    4.0277    1.7214   -2.7240 H   0  0  0  0  0  0  0  0  0  0  0  0
  1  2  1  0
  2  3  1  0
  3  4  1  0
  4  5  2  0
  4  6  1  0
  6  7  1  0
  7  8  1  0
  8  9  2  0
  9 10  1  0
 10 11  1  0
 11 12  2  0
 12 13  1  0
 13 14  2  0
 14 15  1  0
 15 16  2  0
 10 17  1  0
 17 18  2  0
  2 19  1  0
 19 20  1  0
 20 21  2  0
 21 22  1  0
 22 23  1  0
 23 24  3  0
 22 25  2  0
 25 26  1  0
 18  8  1  0
 26 19  2  0
 16 11  1  0
  1 27  1  0
  1 28  1  0
  1 29  1  0
  2 30  1  0
  3 31  1  0
  6 32  1  0
  7 33  1  0
  7 34  1  0
  9 35  1  0
 12 36  1  0
 13 37  1  0
 14 38  1  0
 15 39  1  0
 16 40  1  0
 20 41  1  0
 21 42  1  0
 25 43  1  0
 26 44  1  0
M  END
$$$$
OCNT-2311405
     RDKit          3D

 54 55  0  0  0  0  0  0  0  0999 V2000
   -5.8821    0.7993   -0.4814 C   0  0  0  0  0  0  0  0  0  0  0  0
   -4.5154    1.2710    0.0334 C   0  0  0  0  0  0  0  0  0  0  0  0
   -3.8786    2.1116   -1.0892 C   0  0  0  0  0  0  0  0  0  0  0  0
   -3.5909    0.1820    0.4667 N   0  0  0  0  0  0  0  0  0  0  0  0
   -4.2207   -0.8133    1.3758 C   0  0  0  0  0  0  0  0  0  0  0  0
   -4.8582   -1.9925    0.6165 C   0  0  0  0  0  0  0  0  0  0  0  0
   -4.0124   -2.3924   -0.4606 O   0  0  0  0  0  0  0  0  0  0  0  0
   -2.3737    0.7527    1.1030 C   0  0  0  0  0  0  0  0  0  0  0  0
   -1.1146    0.5134    0.2385 C   0  0  0  0  0  0  0  0  0  0  0  0
   -0.7052   -0.9734    0.1658 C   0  0  0  0  0  0  0  0  0  0  0  0
    0.4711   -1.3087    1.0771 C   0  0  0  0  0  0  0  0  0  0  0  0
    1.6323   -0.4811    0.7772 N   0  0  0  0  0  0  0  0  0  0  0  0
    2.9012   -1.0170    0.9032 C   0  0  0  0  0  0  0  0  0  0  0  0
    3.1324   -2.1461    1.3192 O   0  0  0  0  0  0  0  0  0  0  0  0
    3.8674   -0.1459    0.5030 O   0  0  0  0  0  0  0  0  0  0  0  0
    5.2173   -0.6312    0.5775 C   0  0  0  0  0  0  0  0  0  0  0  0
    6.1584    0.5620    0.4497 C   0  0  0  0  0  0  0  0  0  0  0  0
    6.1757    0.8782   -1.0444 C   0  0  0  0  0  0  0  0  0  0  0  0
    5.7854   -0.4166   -1.7566 C   0  0  0  0  0  0  0  0  0  0  0  0
    5.5655   -1.4546   -0.6582 C   0  0  0  0  0  0  0  0  0  0  0  0
    1.3982    0.8809    0.3104 C   0  0  0  0  0  0  0  0  0  0  0  0
    0.0367    1.3982    0.7564 C   0  0  0  0  0  0  0  0  0  0  0  0
   -6.4820    0.3550    0.3182 H   0  0  0  0  0  0  0  0  0  0  0  0
   -6.4650    1.6455   -0.8643 H   0  0  0  0  0  0  0  0  0  0  0  0
   -5.7766    0.0782   -1.2988 H   0  0  0  0  0  0  0  0  0  0  0  0
   -4.7142    1.9325    0.8878 H   0  0  0  0  0  0  0  0  0  0  0  0
   -2.9759    2.6332   -0.7579 H   0  0  0  0  0  0  0  0  0  0  0  0
   -3.6162    1.4863   -1.9501 H   0  0  0  0  0  0  0  0  0  0  0  0
   -4.5726    2.8848   -1.4380 H   0  0  0  0  0  0  0  0  0  0  0  0
   -4.9266   -0.3526    2.0767 H   0  0  0  0  0  0  0  0  0  0  0  0
   -3.4413   -1.2820    1.9915 H   0  0  0  0  0  0  0  0  0  0  0  0
   -5.8387   -1.7496    0.2042 H   0  0  0  0  0  0  0  0  0  0  0  0
   -4.9868   -2.8492    1.2858 H   0  0  0  0  0  0  0  0  0  0  0  0
   -3.6065   -1.5560   -0.7709 H   0  0  0  0  0  0  0  0  0  0  0  0
   -2.4928    1.8281    1.2898 H   0  0  0  0  0  0  0  0  0  0  0  0
   -2.1930    0.3318    2.1012 H   0  0  0  0  0  0  0  0  0  0  0  0
   -1.3360    0.8340   -0.7881 H   0  0  0  0  0  0  0  0  0  0  0  0
   -0.4128   -1.1975   -0.8690 H   0  0  0  0  0  0  0  0  0  0  0  0
   -1.5412   -1.6385    0.3967 H   0  0  0  0  0  0  0  0  0  0  0  0
    0.2059   -1.1337    2.1264 H   0  0  0  0  0  0  0  0  0  0  0  0
    0.7275   -2.3689    0.9777 H   0  0  0  0  0  0  0  0  0  0  0  0
    5.3870   -1.1664    1.5182 H   0  0  0  0  0  0  0  0  0  0  0  0
    7.1672    0.2824    0.7758 H   0  0  0  0  0  0  0  0  0  0  0  0
    5.8299    1.4282    1.0326 H   0  0  0  0  0  0  0  0  0  0  0  0
    7.1595    1.2377   -1.3626 H   0  0  0  0  0  0  0  0  0  0  0  0
    5.4482    1.6641   -1.2780 H   0  0  0  0  0  0  0  0  0  0  0  0
    6.5556   -0.7419   -2.4633 H   0  0  0  0  0  0  0  0  0  0  0  0
    4.8616   -0.2625   -2.3263 H   0  0  0  0  0  0  0  0  0  0  0  0
    4.7845   -2.1655   -0.9429 H   0  0  0  0  0  0  0  0  0  0  0  0
    6.4955   -2.0099   -0.4880 H   0  0  0  0  0  0  0  0  0  0  0  0
    1.4692    0.8704   -0.7836 H   0  0  0  0  0  0  0  0  0  0  0  0
    2.1852    1.5425    0.6879 H   0  0  0  0  0  0  0  0  0  0  0  0
    0.0167    1.4360    1.8538 H   0  0  0  0  0  0  0  0  0  0  0  0
   -0.1051    2.4272    0.4049 H   0  0  0  0  0  0  0  0  0  0  0  0
  1  2  1  0
  2  3  1  0
  2  4  1  0
  4  5  1  0
  5  6  1  0
  6  7  1  0
  4  8  1  0
  8  9  1  0
  9 10  1  0
 10 11  1  0
 11 12  1  0
 12 13  1  0
 13 14  2  0
 13 15  1  0
 15 16  1  0
 16 17  1  0
 17 18  1  0
 18 19  1  0
 19 20  1  0
 12 21  1  0
 21 22  1  0
 22  9  1  0
 20 16  1  0
  1 23  1  0
  1 24  1  0
  1 25  1  0
  2 26  1  0
  3 27  1  0
  3 28  1  0
  3 29  1  0
  5 30  1  0
  5 31  1  0
  6 32  1  0
  6 33  1  0
  7 34  1  0
  8 35  1  0
  8 36  1  0
  9 37  1  0
 10 38  1  0
 10 39  1  0
 11 40  1  0
 11 41  1  0
 16 42  1  0
 17 43  1  0
 17 44  1  0
 18 45  1  0
 18 46  1  0
 19 47  1  0
 19 48  1  0
 20 49  1  0
 20 50  1  0
 21 51  1  0
 21 52  1  0
 22 53  1  0
 22 54  1  0
M  END
$$$$
OCNT-2311414
     RDKit          3D

 51 53  0  0  0  0  0  0  0  0999 V2000
   -3.4274   -1.9657   -0.2298 C   0  0  0  0  0  0  0  0  0  0  0  0
   -3.1031   -1.5523    1.0089 C   0  0  0  0  0  0  0  0  0  0  0  0
   -3.8122   -2.1076    2.2141 C   0  0  0  0  0  0  0  0  0  0  0  0
   -2.0229   -0.5327    1.3295 C   0  0  0  0  0  0  0  0  0  0  0  0
   -1.7146    0.4074    0.2639 N   0  0  0  0  0  0  0  0  0  0  0  0
   -2.5298    1.4101   -0.2280 C   0  0  0  0  0  0  0  0  0  0  0  0
   -3.8099    1.8626    0.3093 C   0  0  0  0  0  0  0  0  0  0  0  0
   -4.6779    2.6321   -0.4607 C   0  0  0  0  0  0  0  0  0  0  0  0
   -5.8720    3.0898    0.0000 N   0  0  0  0  0  0  0  0  0  0  0  0
   -6.1606    2.7545    1.2751 C   0  0  0  0  0  0  0  0  0  0  0  0
   -5.2985    2.0006    2.0536 C   0  0  0  0  0  0  0  0  0  0  0  0
   -4.1094    1.5414    1.5947 N   0  0  0  0  0  0  0  0  0  0  0  0
   -1.9667    1.8882   -1.3256 N   0  0  0  0  0  0  0  0  0  0  0  0
   -0.7758    1.2448   -1.5235 N   0  0  0  0  0  0  0  0  0  0  0  0
   -0.5886    0.4012   -0.5319 C   0  0  0  0  0  0  0  0  0  0  0  0
    0.4798   -0.4227   -0.3181 N   0  0  0  0  0  0  0  0  0  0  0  0
    1.2467   -0.7497   -1.5343 C   0  0  0  0  0  0  0  0  0  0  0  0
    2.4775   -1.5780   -1.1730 C   0  0  0  0  0  0  0  0  0  0  0  0
    3.4631   -0.7694   -0.2910 C   0  0  0  0  0  0  0  0  0  0  0  0
    4.1980   -1.7440    0.6528 C   0  0  0  0  0  0  0  0  0  0  0  0
    4.5054   -0.0584   -1.1884 C   0  0  0  0  0  0  0  0  0  0  0  0
    5.3943    0.7184   -0.3843 O   0  0  0  0  0  0  0  0  0  0  0  0
    6.3509    1.4108   -1.1754 C   0  0  0  0  0  0  0  0  0  0  0  0
    2.6982    0.2922    0.5429 C   0  0  0  0  0  0  0  0  0  0  0  0
    1.2838   -0.1634    0.8935 C   0  0  0  0  0  0  0  0  0  0  0  0
   -4.2098   -2.7004   -0.3971 H   0  0  0  0  0  0  0  0  0  0  0  0
   -2.9185   -1.5979   -1.1175 H   0  0  0  0  0  0  0  0  0  0  0  0
   -4.3299   -1.3082    2.7536 H   0  0  0  0  0  0  0  0  0  0  0  0
   -3.0925   -2.5767    2.8934 H   0  0  0  0  0  0  0  0  0  0  0  0
   -4.5572   -2.8638    1.9446 H   0  0  0  0  0  0  0  0  0  0  0  0
   -2.2812    0.0623    2.2113 H   0  0  0  0  0  0  0  0  0  0  0  0
   -1.1166   -1.0815    1.5998 H   0  0  0  0  0  0  0  0  0  0  0  0
   -4.4359    2.9076   -1.4826 H   0  0  0  0  0  0  0  0  0  0  0  0
   -7.1091    3.1123    1.6595 H   0  0  0  0  0  0  0  0  0  0  0  0
   -5.5443    1.7425    3.0775 H   0  0  0  0  0  0  0  0  0  0  0  0
    1.5539    0.1587   -2.0687 H   0  0  0  0  0  0  0  0  0  0  0  0
    0.6116   -1.3336   -2.2121 H   0  0  0  0  0  0  0  0  0  0  0  0
    2.1435   -2.4807   -0.6434 H   0  0  0  0  0  0  0  0  0  0  0  0
    2.9726   -1.9260   -2.0875 H   0  0  0  0  0  0  0  0  0  0  0  0
    3.4955   -2.2745    1.3050 H   0  0  0  0  0  0  0  0  0  0  0  0
    4.7542   -2.4963    0.0813 H   0  0  0  0  0  0  0  0  0  0  0  0
    4.9124   -1.2216    1.2986 H   0  0  0  0  0  0  0  0  0  0  0  0
    4.0032    0.6006   -1.9077 H   0  0  0  0  0  0  0  0  0  0  0  0
    5.0882   -0.7980   -1.7520 H   0  0  0  0  0  0  0  0  0  0  0  0
    5.8532    2.1071   -1.8565 H   0  0  0  0  0  0  0  0  0  0  0  0
    6.9647    0.7025   -1.7407 H   0  0  0  0  0  0  0  0  0  0  0  0
    7.0012    1.9810   -0.5073 H   0  0  0  0  0  0  0  0  0  0  0  0
    2.6241    1.2321   -0.0208 H   0  0  0  0  0  0  0  0  0  0  0  0
    3.2466    0.5297    1.4625 H   0  0  0  0  0  0  0  0  0  0  0  0
    0.8165    0.5975    1.5319 H   0  0  0  0  0  0  0  0  0  0  0  0
    1.3251   -1.0853    1.4857 H   0  0  0  0  0  0  0  0  0  0  0  0
  1  2  2  0
  2  3  1  0
  2  4  1  0
  4  5  1  0
  5  6  1  0
  6  7  1  0
  7  8  2  0
  8  9  1  0
  9 10  2  0
 10 11  1  0
 11 12  2  0
  6 13  2  0
 13 14  1  0
 14 15  2  0
 15 16  1  0
 16 17  1  0
 17 18  1  0
 18 19  1  0
 19 20  1  0
 19 21  1  0
 21 22  1  0
 22 23  1  0
 19 24  1  0
 24 25  1  0
 15  5  1  0
 25 16  1  0
 12  7  1  0
  1 26  1  0
  1 27  1  0
  3 28  1  0
  3 29  1  0
  3 30  1  0
  4 31  1  0
  4 32  1  0
  8 33  1  0
 10 34  1  0
 11 35  1  0
 17 36  1  0
 17 37  1  0
 18 38  1  0
 18 39  1  0
 20 40  1  0
 20 41  1  0
 20 42  1  0
 21 43  1  0
 21 44  1  0
 23 45  1  0
 23 46  1  0
 23 47  1  0
 24 48  1  0
 24 49  1  0
 25 50  1  0
 25 51  1  0
M  END
$$$$
OCNT-2311438
     RDKit          3D

 48 51  0  0  0  0  0  0  0  0999 V2000
    2.5573   -1.1060    2.4593 O   0  0  0  0  0  0  0  0  0  0  0  0
    2.3156   -0.7415    1.3089 C   0  0  0  0  0  0  0  0  0  0  0  0
    3.1710   -1.1407    0.2050 C   0  0  0  0  0  0  0  0  0  0  0  0
    4.1411   -0.4312   -0.4847 C   0  0  0  0  0  0  0  0  0  0  0  0
    4.4951    0.9277   -0.2228 N   0  0  0  0  0  0  0  0  0  0  0  0
    5.4597    1.6740   -0.8692 C   0  0  0  0  0  0  0  0  0  0  0  0
    5.4052    2.9135   -0.2840 C   0  0  0  0  0  0  0  0  0  0  0  0
    4.4443    2.9164    0.6763 N   0  0  0  0  0  0  0  0  0  0  0  0
    3.9020    1.7072    0.7141 N   0  0  0  0  0  0  0  0  0  0  0  0
    4.7600   -1.2370   -1.4972 C   0  0  0  0  0  0  0  0  0  0  0  0
    4.2592   -2.5199   -1.5241 C   0  0  0  0  0  0  0  0  0  0  0  0
    3.0592   -2.7654   -0.3357 S   0  0  0  0  0  0  0  0  0  0  0  0
    1.1922    0.0478    1.0078 N   0  0  0  0  0  0  0  0  0  0  0  0
    0.4320    0.5925    2.1249 C   0  0  0  0  0  0  0  0  0  0  0  0
   -0.7722   -0.2838    2.4479 C   0  0  0  0  0  0  0  0  0  0  0  0
   -1.9562   -0.0883    1.4994 C   0  0  0  0  0  0  0  0  0  0  0  0
   -1.6527   -0.3391    0.0039 C   0  0  0  0  0  0  0  0  0  0  0  0
   -2.8737   -0.3872   -0.8284 N   0  0  0  0  0  0  0  0  0  0  0  0
   -3.7035   -1.5907   -0.6240 C   0  0  0  0  0  0  0  0  0  0  0  0
   -5.1113   -1.2861   -0.0846 C   0  0  0  0  0  0  0  0  0  0  0  0
   -5.8535   -0.3809   -0.9105 O   0  0  0  0  0  0  0  0  0  0  0  0
   -5.0256    0.5733   -1.5887 C   0  0  0  0  0  0  0  0  0  0  0  0
   -3.6909    0.8370   -0.8721 C   0  0  0  0  0  0  0  0  0  0  0  0
   -0.6890    0.7231   -0.5674 C   0  0  0  0  0  0  0  0  0  0  0  0
    0.7895    0.3950   -0.3520 C   0  0  0  0  0  0  0  0  0  0  0  0
    6.0798    1.2736   -1.6548 H   0  0  0  0  0  0  0  0  0  0  0  0
    5.9980    3.7910   -0.4990 H   0  0  0  0  0  0  0  0  0  0  0  0
    5.5418   -0.9144   -2.1740 H   0  0  0  0  0  0  0  0  0  0  0  0
    4.5497   -3.3322   -2.1772 H   0  0  0  0  0  0  0  0  0  0  0  0
    0.1462    1.6272    1.9054 H   0  0  0  0  0  0  0  0  0  0  0  0
    1.0753    0.6391    3.0113 H   0  0  0  0  0  0  0  0  0  0  0  0
   -0.4832   -1.3420    2.4595 H   0  0  0  0  0  0  0  0  0  0  0  0
   -1.1155   -0.0412    3.4614 H   0  0  0  0  0  0  0  0  0  0  0  0
   -2.7513   -0.7632    1.8373 H   0  0  0  0  0  0  0  0  0  0  0  0
   -2.3381    0.9303    1.6419 H   0  0  0  0  0  0  0  0  0  0  0  0
   -1.1603   -1.3160   -0.0951 H   0  0  0  0  0  0  0  0  0  0  0  0
   -3.8109   -2.0678   -1.6062 H   0  0  0  0  0  0  0  0  0  0  0  0
   -3.2137   -2.3260    0.0247 H   0  0  0  0  0  0  0  0  0  0  0  0
   -5.6920   -2.2115   -0.0109 H   0  0  0  0  0  0  0  0  0  0  0  0
   -5.0574   -0.8592    0.9234 H   0  0  0  0  0  0  0  0  0  0  0  0
   -4.8532    0.2091   -2.6084 H   0  0  0  0  0  0  0  0  0  0  0  0
   -5.5979    1.5031   -1.6697 H   0  0  0  0  0  0  0  0  0  0  0  0
   -3.1547    1.6275   -1.4071 H   0  0  0  0  0  0  0  0  0  0  0  0
   -3.9133    1.1998    0.1372 H   0  0  0  0  0  0  0  0  0  0  0  0
   -0.8262    0.8121   -1.6539 H   0  0  0  0  0  0  0  0  0  0  0  0
   -0.9231    1.7128   -0.1556 H   0  0  0  0  0  0  0  0  0  0  0  0
    1.3877    1.2625   -0.6533 H   0  0  0  0  0  0  0  0  0  0  0  0
    1.0575   -0.4243   -1.0267 H   0  0  0  0  0  0  0  0  0  0  0  0
  1  2  2  0
  2  3  1  0
  3  4  2  0
  4  5  1  0
  5  6  1  0
  6  7  2  0
  7  8  1  0
  8  9  2  0
  4 10  1  0
 10 11  2  0
 11 12  1  0
  2 13  1  0
 13 14  1  0
 14 15  1  0
 15 16  1  0
 16 17  1  0
 17 18  1  0
 18 19  1  0
 19 20  1  0
 20 21  1  0
 21 22  1  0
 22 23  1  0
 17 24  1  0
 24 25  1  0
 12  3  1  0
 25 13  1  0
  9  5  1  0
 23 18  1  0
  6 26  1  0
  7 27  1  0
 10 28  1  0
 11 29  1  0
 14 30  1  0
 14 31  1  0
 15 32  1  0
 15 33  1  0
 16 34  1  0
 16 35  1  0
 17 36  1  0
 19 37  1  0
 19 38  1  0
 20 39  1  0
 20 40  1  0
 22 41  1  0
 22 42  1  0
 23 43  1  0
 23 44  1  0
 24 45  1  0
 24 46  1  0
 25 47  1  0
 25 48  1  0
M  END
$$$$
OCNT-2311440
     RDKit          3D

 56 59  0  0  0  0  0  0  0  0999 V2000
   -7.0968    0.1561    2.1011 C   0  0  0  0  0  0  0  0  0  0  0  0
   -6.9383    0.3486    0.6231 C   0  0  0  0  0  0  0  0  0  0  0  0
   -5.7083    0.1285    0.1012 N   0  0  0  0  0  0  0  0  0  0  0  0
   -5.5371    0.2495   -1.2298 C   0  0  0  0  0  0  0  0  0  0  0  0
   -4.2796    0.0215   -1.8157 N   0  0  0  0  0  0  0  0  0  0  0  0
   -3.2000   -0.3230   -0.8847 C   0  0  0  0  0  0  0  0  0  0  0  0
   -2.0427   -1.0448   -1.6209 C   0  0  0  0  0  0  0  0  0  0  0  0
   -2.3740   -2.5140   -1.9248 C   0  0  0  0  0  0  0  0  0  0  0  0
   -1.9105   -3.2447   -0.6718 C   0  0  0  0  0  0  0  0  0  0  0  0
   -0.6497   -2.4894   -0.2746 C   0  0  0  0  0  0  0  0  0  0  0  0
   -0.8322   -1.1412   -0.7980 N   0  0  0  0  0  0  0  0  0  0  0  0
    0.0686   -0.0832   -0.7495 C   0  0  0  0  0  0  0  0  0  0  0  0
   -0.1794    0.9625   -1.3514 O   0  0  0  0  0  0  0  0  0  0  0  0
    1.3279   -0.2470   -0.0080 C   0  0  0  0  0  0  0  0  0  0  0  0
    2.4512    0.5805   -0.0442 C   0  0  0  0  0  0  0  0  0  0  0  0
    2.6527    1.8767   -0.7365 C   0  0  0  0  0  0  0  0  0  0  0  0
    3.3736   -0.0506    0.7856 N   0  0  0  0  0  0  0  0  0  0  0  0
    4.7444    0.2229    1.0699 C   0  0  0  0  0  0  0  0  0  0  0  0
    5.3534   -0.4199    2.1607 C   0  0  0  0  0  0  0  0  0  0  0  0
    6.6975   -0.1786    2.4727 C   0  0  0  0  0  0  0  0  0  0  0  0
    7.4607    0.6997    1.7059 C   0  0  0  0  0  0  0  0  0  0  0  0
    8.7525    0.8458    2.1235 O   0  0  0  0  0  0  0  0  0  0  0  0
    9.4937    1.9050    1.5507 C   0  0  0  0  0  0  0  0  0  0  0  0
   10.6822    1.9696    2.2072 F   0  0  0  0  0  0  0  0  0  0  0  0
    9.7794    1.6060    0.2604 F   0  0  0  0  0  0  0  0  0  0  0  0
    6.8722    1.3168    0.6026 C   0  0  0  0  0  0  0  0  0  0  0  0
    5.5237    1.0791    0.2850 C   0  0  0  0  0  0  0  0  0  0  0  0
    2.7698   -1.1073    1.3889 N   0  0  0  0  0  0  0  0  0  0  0  0
    1.5628   -1.2587    0.8821 N   0  0  0  0  0  0  0  0  0  0  0  0
   -6.5849    0.6287   -2.0637 C   0  0  0  0  0  0  0  0  0  0  0  0
   -7.8452    0.8551   -1.5228 C   0  0  0  0  0  0  0  0  0  0  0  0
   -8.0310    0.7025   -0.1570 C   0  0  0  0  0  0  0  0  0  0  0  0
   -6.1205    0.1311    2.5979 H   0  0  0  0  0  0  0  0  0  0  0  0
   -7.6133   -0.7843    2.2995 H   0  0  0  0  0  0  0  0  0  0  0  0
   -7.6699    0.9832    2.5373 H   0  0  0  0  0  0  0  0  0  0  0  0
   -4.3850   -0.6289   -2.5894 H   0  0  0  0  0  0  0  0  0  0  0  0
   -3.5479   -0.9666   -0.0693 H   0  0  0  0  0  0  0  0  0  0  0  0
   -2.8292    0.6036   -0.4302 H   0  0  0  0  0  0  0  0  0  0  0  0
   -1.8129   -0.5121   -2.5518 H   0  0  0  0  0  0  0  0  0  0  0  0
   -3.4270   -2.6967   -2.1536 H   0  0  0  0  0  0  0  0  0  0  0  0
   -1.7770   -2.8538   -2.7814 H   0  0  0  0  0  0  0  0  0  0  0  0
   -2.6678   -3.1577    0.1166 H   0  0  0  0  0  0  0  0  0  0  0  0
   -1.7260   -4.3085   -0.8421 H   0  0  0  0  0  0  0  0  0  0  0  0
    0.2362   -2.9292   -0.7421 H   0  0  0  0  0  0  0  0  0  0  0  0
   -0.5296   -2.4683    0.8095 H   0  0  0  0  0  0  0  0  0  0  0  0
    3.1886    2.5840   -0.0981 H   0  0  0  0  0  0  0  0  0  0  0  0
    3.1942    1.7442   -1.6758 H   0  0  0  0  0  0  0  0  0  0  0  0
    1.7059    2.3652   -0.9733 H   0  0  0  0  0  0  0  0  0  0  0  0
    4.7965   -1.1074    2.7953 H   0  0  0  0  0  0  0  0  0  0  0  0
    7.1459   -0.6840    3.3258 H   0  0  0  0  0  0  0  0  0  0  0  0
    8.9939    2.8772    1.6263 H   0  0  0  0  0  0  0  0  0  0  0  0
    7.4368    1.9723   -0.0569 H   0  0  0  0  0  0  0  0  0  0  0  0
    5.1440    1.5504   -0.6134 H   0  0  0  0  0  0  0  0  0  0  0  0
   -6.4176    0.7568   -3.1275 H   0  0  0  0  0  0  0  0  0  0  0  0
   -8.6692    1.1567   -2.1598 H   0  0  0  0  0  0  0  0  0  0  0  0
   -9.0060    0.8619    0.2891 H   0  0  0  0  0  0  0  0  0  0  0  0
  1  2  1  0
  2  3  1  0
  3  4  2  0
  4  5  1  0
  5  6  1  0
  6  7  1  0
  7  8  1  0
  8  9  1  0
  9 10  1  0
 10 11  1  0
 11 12  1  0
 12 13  2  0
 12 14  1  0
 14 15  2  0
 15 16  1  0
 15 17  1  0
 17 18  1  0
 18 19  1  0
 19 20  2  0
 20 21  1  0
 21 22  1  0
 22 23  1  0
 23 24  1  0
 23 25  1  0
 21 26  2  0
 26 27  1  0
 17 28  1  0
 28 29  2  0
  4 30  1  0
 30 31  2  0
 31 32  1  0
 32  2  2  0
 11  7  1  0
 29 14  1  0
 27 18  2  0
  1 33  1  0
  1 34  1  0
  1 35  1  0
  5 36  1  0
  6 37  1  0
  6 38  1  0
  7 39  1  0
  8 40  1  0
  8 41  1  0
  9 42  1  0
  9 43  1  0
 10 44  1  0
 10 45  1  0
 16 46  1  0
 16 47  1  0
 16 48  1  0
 19 49  1  0
 20 50  1  0
 23 51  1  0
 26 52  1  0
 27 53  1  0
 30 54  1  0
 31 55  1  0
 32 56  1  0
M  END
$$$$
OCNT-2311450
     RDKit          3D

 49 51  0  0  0  0  0  0  0  0999 V2000
    4.8708   -0.8662    2.4665 C   0  0  0  0  0  0  0  0  0  0  0  0
    4.5882   -0.8949    0.9912 C   0  0  0  0  0  0  0  0  0  0  0  0
    5.4083   -1.5783    0.0991 C   0  0  0  0  0  0  0  0  0  0  0  0
    6.5667   -2.2977    0.5308 C   0  0  0  0  0  0  0  0  0  0  0  0
    7.5053   -2.8838    0.8810 N   0  0  0  0  0  0  0  0  0  0  0  0
    5.0746   -1.5400   -1.2511 C   0  0  0  0  0  0  0  0  0  0  0  0
    3.9419   -0.8349   -1.6599 C   0  0  0  0  0  0  0  0  0  0  0  0
    3.1449   -0.1817   -0.7218 C   0  0  0  0  0  0  0  0  0  0  0  0
    2.0239    0.5420   -1.1073 N   0  0  0  0  0  0  0  0  0  0  0  0
    1.1450    0.0226   -2.1619 C   0  0  0  0  0  0  0  0  0  0  0  0
   -0.2808   -0.1316   -1.6349 C   0  0  0  0  0  0  0  0  0  0  0  0
   -0.8566    1.2162   -1.1651 C   0  0  0  0  0  0  0  0  0  0  0  0
   -1.4868    1.8488   -2.2974 O   0  0  0  0  0  0  0  0  0  0  0  0
   -1.9606    1.0293   -0.0789 C   0  0  0  0  0  0  0  0  0  0  0  0
   -3.1682    0.3874   -0.6557 N   0  0  0  0  0  0  0  0  0  0  0  0
   -3.3040   -1.0303   -0.2785 C   0  0  0  0  0  0  0  0  0  0  0  0
   -3.7202   -1.2627    1.1777 C   0  0  0  0  0  0  0  0  0  0  0  0
   -4.9796   -0.4801    1.5300 C   0  0  0  0  0  0  0  0  0  0  0  0
   -4.8305    0.9853    1.1391 C   0  0  0  0  0  0  0  0  0  0  0  0
   -4.4025    1.1214   -0.3235 C   0  0  0  0  0  0  0  0  0  0  0  0
    0.2508    2.1650   -0.6708 C   0  0  0  0  0  0  0  0  0  0  0  0
    1.4158    1.3843   -0.0733 C   0  0  0  0  0  0  0  0  0  0  0  0
    3.4849   -0.2083    0.5877 N   0  0  0  0  0  0  0  0  0  0  0  0
    4.1109   -0.2808    2.9950 H   0  0  0  0  0  0  0  0  0  0  0  0
    4.8580   -1.8800    2.8788 H   0  0  0  0  0  0  0  0  0  0  0  0
    5.8437   -0.4041    2.6608 H   0  0  0  0  0  0  0  0  0  0  0  0
    5.6896   -2.0427   -1.9939 H   0  0  0  0  0  0  0  0  0  0  0  0
    3.7102   -0.7780   -2.7184 H   0  0  0  0  0  0  0  0  0  0  0  0
    1.4687   -0.9567   -2.5327 H   0  0  0  0  0  0  0  0  0  0  0  0
    1.1649    0.7109   -3.0153 H   0  0  0  0  0  0  0  0  0  0  0  0
   -0.9072   -0.5691   -2.4213 H   0  0  0  0  0  0  0  0  0  0  0  0
   -0.2498   -0.8420   -0.7992 H   0  0  0  0  0  0  0  0  0  0  0  0
   -2.3686    1.4232   -2.3513 H   0  0  0  0  0  0  0  0  0  0  0  0
   -1.5621    0.4879    0.7867 H   0  0  0  0  0  0  0  0  0  0  0  0
   -2.2279    2.0302    0.2854 H   0  0  0  0  0  0  0  0  0  0  0  0
   -4.0575   -1.4845   -0.9356 H   0  0  0  0  0  0  0  0  0  0  0  0
   -2.3790   -1.5782   -0.4835 H   0  0  0  0  0  0  0  0  0  0  0  0
   -2.9089   -0.9730    1.8555 H   0  0  0  0  0  0  0  0  0  0  0  0
   -3.8973   -2.3320    1.3410 H   0  0  0  0  0  0  0  0  0  0  0  0
   -5.1881   -0.5650    2.6021 H   0  0  0  0  0  0  0  0  0  0  0  0
   -5.8375   -0.9131    1.0009 H   0  0  0  0  0  0  0  0  0  0  0  0
   -4.0964    1.4685    1.7950 H   0  0  0  0  0  0  0  0  0  0  0  0
   -5.7834    1.5043    1.2929 H   0  0  0  0  0  0  0  0  0  0  0  0
   -5.2091    0.7466   -0.9675 H   0  0  0  0  0  0  0  0  0  0  0  0
   -4.2952    2.1814   -0.5853 H   0  0  0  0  0  0  0  0  0  0  0  0
   -0.1406    2.8733    0.0690 H   0  0  0  0  0  0  0  0  0  0  0  0
    0.6156    2.7825   -1.5033 H   0  0  0  0  0  0  0  0  0  0  0  0
    1.0611    0.7787    0.7708 H   0  0  0  0  0  0  0  0  0  0  0  0
    2.1545    2.0999    0.3090 H   0  0  0  0  0  0  0  0  0  0  0  0
  1  2  1  0
  2  3  2  0
  3  4  1  0
  4  5  3  0
  3  6  1  0
  6  7  2  0
  7  8  1  0
  8  9  1  0
  9 10  1  0
 10 11  1  0
 11 12  1  0
 12 13  1  0
 12 14  1  0
 14 15  1  0
 15 16  1  0
 16 17  1  0
 17 18  1  0
 18 19  1  0
 19 20  1  0
 12 21  1  0
 21 22  1  0
  8 23  2  0
 23  2  1  0
 22  9  1  0
 20 15  1  0
  1 24  1  0
  1 25  1  0
  1 26  1  0
  6 27  1  0
  7 28  1  0
 10 29  1  0
 10 30  1  0
 11 31  1  0
 11 32  1  0
 13 33  1  0
 14 34  1  0
 14 35  1  0
 16 36  1  0
 16 37  1  0
 17 38  1  0
 17 39  1  0
 18 40  1  0
 18 41  1  0
 19 42  1  0
 19 43  1  0
 20 44  1  0
 20 45  1  0
 21 46  1  0
 21 47  1  0
 22 48  1  0
 22 49  1  0
M  END
$$$$
OCNT-2311473
     RDKit          3D

 40 42  0  0  0  0  0  0  0  0999 V2000
   -1.5336    1.2266    2.3182 C   0  0  0  0  0  0  0  0  0  0  0  0
   -1.6930    0.8806    0.8995 N   0  0  0  0  0  0  0  0  0  0  0  0
   -2.6502    1.7324    0.1634 C   0  0  0  0  0  0  0  0  0  0  0  0
   -1.9928    3.0495   -0.2757 C   0  0  0  0  0  0  0  0  0  0  0  0
   -0.9089    2.8544   -1.3343 C   0  0  0  0  0  0  0  0  0  0  0  0
    0.2062    2.0887   -0.8337 N   0  0  0  0  0  0  0  0  0  0  0  0
    1.3554    1.8763   -1.5709 C   0  0  0  0  0  0  0  0  0  0  0  0
    1.5973    2.5164   -2.5930 O   0  0  0  0  0  0  0  0  0  0  0  0
    2.1960    0.8127   -1.0261 C   0  0  0  0  0  0  0  0  0  0  0  0
    1.8328    0.0854    0.0132 N   0  0  0  0  0  0  0  0  0  0  0  0
    2.8011   -0.8705    0.2770 C   0  0  0  0  0  0  0  0  0  0  0  0
    2.7668   -1.8385    1.2901 C   0  0  0  0  0  0  0  0  0  0  0  0
    3.7863   -2.7213    1.4460 N   0  0  0  0  0  0  0  0  0  0  0  0
    4.8406   -2.6539    0.6069 C   0  0  0  0  0  0  0  0  0  0  0  0
    4.9701   -1.7404   -0.4255 C   0  0  0  0  0  0  0  0  0  0  0  0
    3.9102   -0.8417   -0.5714 C   0  0  0  0  0  0  0  0  0  0  0  0
    3.7033    0.4188   -1.7287 S   0  0  0  0  0  0  0  0  0  0  0  0
   -1.9416   -0.5024    0.7256 C   0  0  0  0  0  0  0  0  0  0  0  0
   -1.7964   -1.0660   -0.5456 C   0  0  0  0  0  0  0  0  0  0  0  0
   -2.0012   -2.4320   -0.7314 C   0  0  0  0  0  0  0  0  0  0  0  0
   -2.3423   -3.2171    0.3578 C   0  0  0  0  0  0  0  0  0  0  0  0
   -2.4568   -2.5965    1.5870 C   0  0  0  0  0  0  0  0  0  0  0  0
   -2.2612   -1.2735    1.7878 N   0  0  0  0  0  0  0  0  0  0  0  0
   -2.4669    1.0992    2.8796 H   0  0  0  0  0  0  0  0  0  0  0  0
   -1.2263    2.2726    2.4193 H   0  0  0  0  0  0  0  0  0  0  0  0
   -0.7423    0.6275    2.7846 H   0  0  0  0  0  0  0  0  0  0  0  0
   -3.0515    1.2388   -0.7306 H   0  0  0  0  0  0  0  0  0  0  0  0
   -3.5137    1.9543    0.8039 H   0  0  0  0  0  0  0  0  0  0  0  0
   -1.5735    3.5769    0.5886 H   0  0  0  0  0  0  0  0  0  0  0  0
   -2.7709    3.6981   -0.6959 H   0  0  0  0  0  0  0  0  0  0  0  0
   -0.5331    3.8261   -1.6733 H   0  0  0  0  0  0  0  0  0  0  0  0
   -1.3096    2.3325   -2.2106 H   0  0  0  0  0  0  0  0  0  0  0  0
    0.0104    1.3963   -0.1035 H   0  0  0  0  0  0  0  0  0  0  0  0
    1.9345   -1.9209    1.9795 H   0  0  0  0  0  0  0  0  0  0  0  0
    5.6191   -3.3904    0.7923 H   0  0  0  0  0  0  0  0  0  0  0  0
    5.8354   -1.7268   -1.0758 H   0  0  0  0  0  0  0  0  0  0  0  0
   -1.4974   -0.4519   -1.3881 H   0  0  0  0  0  0  0  0  0  0  0  0
   -1.8828   -2.8742   -1.7159 H   0  0  0  0  0  0  0  0  0  0  0  0
   -2.5054   -4.2835    0.2553 H   0  0  0  0  0  0  0  0  0  0  0  0
   -2.7145   -3.1630    2.4771 H   0  0  0  0  0  0  0  0  0  0  0  0
  1  2  1  0
  2  3  1  0
  3  4  1  0
  4  5  1  0
  5  6  1  0
  6  7  1  0
  7  8  2  0
  7  9  1  0
  9 10  2  0
 10 11  1  0
 11 12  2  0
 12 13  1  0
 13 14  2  0
 14 15  1  0
 15 16  2  0
 16 17  1  0
  2 18  1  0
 18 19  2  0
 19 20  1  0
 20 21  2  0
 21 22  1  0
 22 23  2  0
 17  9  1  0
 23 18  1  0
 16 11  1  0
  1 24  1  0
  1 25  1  0
  1 26  1  0
  3 27  1  0
  3 28  1  0
  4 29  1  0
  4 30  1  0
  5 31  1  0
  5 32  1  0
  6 33  1  0
 12 34  1  0
 14 35  1  0
 15 36  1  0
 19 37  1  0
 20 38  1  0
 21 39  1  0
 22 40  1  0
M  END
$$$$
OCNT-2311479
     RDKit          3D

  0  0  0  0  0  0  0  0  0  0999 V3000
M  V30 BEGIN CTAB
M  V30 COUNTS 42 44 0 0 0
M  V30 BEGIN ATOM
M  V30 1 C 5.398685 1.838399 0.061976 0
M  V30 2 C 4.237232 0.900655 0.197379 0
M  V30 3 C 4.150339 -0.255485 -0.590550 0
M  V30 4 C 3.076775 -1.135667 -0.434864 0
M  V30 5 C 2.092829 -0.858870 0.518368 0
M  V30 6 S 0.714476 -1.954375 0.729203 0
M  V30 7 O 0.628749 -2.259867 2.140939 0
M  V30 8 O 0.802794 -3.002120 -0.265594 0
M  V30 9 N -0.596800 -0.956936 0.321584 0
M  V30 10 C -0.692004 -0.503057 -1.096895 0 CFG=1
M  V30 11 C -1.830976 -1.308573 -1.741447 0
M  V30 12 C -2.402643 -2.177456 -0.637170 0
M  V30 13 C -1.945669 -1.510058 0.652466 0 CFG=2
M  V30 14 C -2.890200 -0.371544 1.121774 0
M  V30 15 N -3.122335 0.756176 0.177431 0
M  V30 16 C -4.177965 1.618477 0.723478 0
M  V30 17 C -1.892922 1.543851 -0.022307 0
M  V30 18 C -0.955550 1.004203 -1.113186 0
M  V30 19 C 2.175063 0.276310 1.325404 0
M  V30 20 C 3.247265 1.142260 1.156516 0
M  V30 21 F 3.324515 2.232626 1.932535 0
M  V30 22 H 5.066583 2.879125 0.137046 0
M  V30 23 H 6.134276 1.639679 0.847484 0
M  V30 24 H 5.887990 1.723504 -0.910947 0
M  V30 25 H 4.918950 -0.477971 -1.328345 0
M  V30 26 H 3.018219 -2.029408 -1.052989 0
M  V30 27 H 0.232484 -0.693562 -1.652524 0
M  V30 28 H -2.602146 -0.665792 -2.179741 0
M  V30 29 H -1.450610 -1.935469 -2.556172 0
M  V30 30 H -3.489513 -2.283810 -0.707898 0
M  V30 31 H -1.971360 -3.183344 -0.708099 0
M  V30 32 H -1.893261 -2.248361 1.460126 0
M  V30 33 H -2.515235 0.019456 2.077991 0
M  V30 34 H -3.858338 -0.843195 1.338247 0
M  V30 35 H -3.895526 2.059810 1.686247 0
M  V30 36 H -4.411489 2.429665 0.024671 0
M  V30 37 H -5.106740 1.053090 0.859494 0
M  V30 38 H -1.345351 1.663179 0.922573 0
M  V30 39 H -2.151385 2.564999 -0.335142 0
M  V30 40 H -1.334624 1.295860 -2.101090 0
M  V30 41 H 0.004717 1.524321 -0.996714 0
M  V30 42 H 1.420703 0.489276 2.076885 0
M  V30 END ATOM
M  V30 BEGIN BOND
M  V30 1 1 1 2
M  V30 2 1 2 3
M  V30 3 2 3 4
M  V30 4 1 4 5
M  V30 5 1 5 6
M  V30 6 2 6 7
M  V30 7 2 6 8
M  V30 8 1 6 9
M  V30 9 1 9 10
M  V30 10 1 10 11
M  V30 11 1 11 12
M  V30 12 1 12 13
M  V30 13 1 13 14
M  V30 14 1 14 15
M  V30 15 1 15 16
M  V30 16 1 15 17
M  V30 17 1 17 18
M  V30 18 2 5 19
M  V30 19 1 19 20
M  V30 20 1 20 21
M  V30 21 2 20 2
M  V30 22 1 13 9
M  V30 23 1 18 10
M  V30 24 1 1 22
M  V30 25 1 1 23
M  V30 26 1 1 24
M  V30 27 1 3 25
M  V30 28 1 4 26
M  V30 29 1 10 27 CFG=3
M  V30 30 1 11 28
M  V30 31 1 11 29
M  V30 32 1 12 30
M  V30 33 1 12 31
M  V30 34 1 13 32 CFG=1
M  V30 35 1 14 33
M  V30 36 1 14 34
M  V30 37 1 16 35
M  V30 38 1 16 36
M  V30 39 1 16 37
M  V30 40 1 17 38
M  V30 41 1 17 39
M  V30 42 1 18 40
M  V30 43 1 18 41
M  V30 44 1 19 42
M  V30 END BOND
M  V30 BEGIN COLLECTION
M  V30 MDLV30/STERAC1 ATOMS=(2 10 13)
M  V30 END COLLECTION
M  V30 END CTAB
M  END
>  <_CXSMILES_Data>  (475) 
|&1:9,12|

$$$$
OCNT-2311515
     RDKit          3D

 50 52  0  0  0  0  0  0  0  0999 V2000
   -0.1163   -2.4845    2.2263 O   0  0  0  0  0  0  0  0  0  0  0  0
   -0.0712   -1.6458    1.3368 C   0  0  0  0  0  0  0  0  0  0  0  0
   -1.1678   -0.9859    0.8488 N   0  0  0  0  0  0  0  0  0  0  0  0
   -2.4883   -1.3854    1.2771 C   0  0  0  0  0  0  0  0  0  0  0  0
   -3.5196   -0.3567    0.8775 C   0  0  0  0  0  0  0  0  0  0  0  0
   -3.8128    0.6835    1.7808 C   0  0  0  0  0  0  0  0  0  0  0  0
   -4.7515    1.6203    1.4149 C   0  0  0  0  0  0  0  0  0  0  0  0
   -5.3909    1.5593    0.2026 C   0  0  0  0  0  0  0  0  0  0  0  0
   -5.1251    0.5663   -0.7185 C   0  0  0  0  0  0  0  0  0  0  0  0
   -4.1655   -0.4003   -0.3881 C   0  0  0  0  0  0  0  0  0  0  0  0
   -3.7817   -1.4267   -1.2109 O   0  0  0  0  0  0  0  0  0  0  0  0
   -4.2890   -1.4288   -2.5355 C   0  0  0  0  0  0  0  0  0  0  0  0
   -5.6091   -1.7318   -2.5080 F   0  0  0  0  0  0  0  0  0  0  0  0
   -3.6704   -2.4369   -3.2006 F   0  0  0  0  0  0  0  0  0  0  0  0
   -6.2842    2.5722    0.0364 O   0  0  0  0  0  0  0  0  0  0  0  0
   -6.1419    3.2691    1.2927 C   0  0  0  0  0  0  0  0  0  0  0  0
   -5.1574    2.6779    2.1653 O   0  0  0  0  0  0  0  0  0  0  0  0
    1.0873   -1.2152    0.7440 N   0  0  0  0  0  0  0  0  0  0  0  0
    2.3519   -1.8518    1.0523 C   0  0  0  0  0  0  0  0  0  0  0  0
    3.5703   -1.0558    0.5506 C   0  0  0  0  0  0  0  0  0  0  0  0
    3.6244   -1.0373   -1.0221 C   0  0  0  0  0  0  0  0  0  0  0  0
    4.9129   -0.5122   -1.7230 C   0  0  0  0  0  0  0  0  0  0  0  0
    5.0738    1.0215   -1.9351 C   0  0  0  0  0  0  0  0  0  0  0  0
    5.1857    1.9470   -0.6761 C   0  0  0  0  0  0  0  0  0  0  0  0
    4.4452    1.3741    0.5312 C   0  0  0  0  0  0  0  0  0  0  0  0
    5.4840    0.3722    0.5094 F   0  0  0  0  0  0  0  0  0  0  0  0
    3.3134    1.3217   -0.3699 F   0  0  0  0  0  0  0  0  0  0  0  0
    3.6602    0.3270    1.3167 C   0  0  0  0  0  0  0  0  0  0  0  0
   -1.0935   -0.6231   -0.0869 H   0  0  0  0  0  0  0  0  0  0  0  0
   -2.4911   -1.5237    2.3655 H   0  0  0  0  0  0  0  0  0  0  0  0
   -2.7125   -2.3671    0.8441 H   0  0  0  0  0  0  0  0  0  0  0  0
   -3.3171    0.7502    2.7446 H   0  0  0  0  0  0  0  0  0  0  0  0
   -5.6781    0.5674   -1.6499 H   0  0  0  0  0  0  0  0  0  0  0  0
   -4.1094   -0.4914   -3.0731 H   0  0  0  0  0  0  0  0  0  0  0  0
   -5.8511    4.3058    1.0871 H   0  0  0  0  0  0  0  0  0  0  0  0
   -7.1110    3.2701    1.8052 H   0  0  0  0  0  0  0  0  0  0  0  0
    0.9988   -0.7500   -0.1453 H   0  0  0  0  0  0  0  0  0  0  0  0
    2.3335   -2.8517    0.6029 H   0  0  0  0  0  0  0  0  0  0  0  0
    2.4166   -1.9899    2.1384 H   0  0  0  0  0  0  0  0  0  0  0  0
    4.4500   -1.6378    0.8637 H   0  0  0  0  0  0  0  0  0  0  0  0
    3.5182   -2.0836   -1.3427 H   0  0  0  0  0  0  0  0  0  0  0  0
    2.7508   -0.5240   -1.4401 H   0  0  0  0  0  0  0  0  0  0  0  0
    5.8031   -0.9277   -1.2365 H   0  0  0  0  0  0  0  0  0  0  0  0
    4.9120   -0.9499   -2.7313 H   0  0  0  0  0  0  0  0  0  0  0  0
    5.9598    1.1962   -2.5583 H   0  0  0  0  0  0  0  0  0  0  0  0
    4.2212    1.3647   -2.5366 H   0  0  0  0  0  0  0  0  0  0  0  0
    6.2474    2.1058   -0.4402 H   0  0  0  0  0  0  0  0  0  0  0  0
    4.7927    2.9398   -0.9314 H   0  0  0  0  0  0  0  0  0  0  0  0
    4.1350    0.1521    2.2921 H   0  0  0  0  0  0  0  0  0  0  0  0
    2.6586    0.7109    1.5535 H   0  0  0  0  0  0  0  0  0  0  0  0
  1  2  2  0
  2  3  1  0
  3  4  1  0
  4  5  1  0
  5  6  1  0
  6  7  2  0
  7  8  1  0
  8  9  2  0
  9 10  1  0
 10 11  1  0
 11 12  1  0
 12 13  1  0
 12 14  1  0
  8 15  1  0
 15 16  1  0
 16 17  1  0
  2 18  1  0
 18 19  1  0
 19 20  1  0
 20 21  1  0
 21 22  1  0
 22 23  1  0
 23 24  1  0
 24 25  1  0
 25 26  1  0
 25 27  1  0
 25 28  1  0
 10  5  2  0
 28 20  1  0
 17  7  1  0
  3 29  1  0
  4 30  1  0
  4 31  1  0
  6 32  1  0
  9 33  1  0
 12 34  1  0
 16 35  1  0
 16 36  1  0
 18 37  1  0
 19 38  1  0
 19 39  1  0
 20 40  1  0
 21 41  1  0
 21 42  1  0
 22 43  1  0
 22 44  1  0
 23 45  1  0
 23 46  1  0
 24 47  1  0
 24 48  1  0
 28 49  1  0
 28 50  1  0
M  END
$$$$
OCNT-2311523
     RDKit          3D

 37 40  0  0  0  0  0  0  0  0999 V2000
   -1.2715   -1.7474   -2.7909 O   0  0  0  0  0  0  0  0  0  0  0  0
   -1.5785   -0.3796   -2.4345 S   0  0  0  0  0  0  0  0  0  0  0  0
   -2.5032    0.4118   -3.2164 O   0  0  0  0  0  0  0  0  0  0  0  0
   -0.1408    0.5006   -2.3727 N   0  0  0  0  0  0  0  0  0  0  0  0
    0.8852    0.1027   -1.4669 C   0  0  0  0  0  0  0  0  0  0  0  0
    1.3847    0.9731   -0.5233 C   0  0  0  0  0  0  0  0  0  0  0  0
    2.3419    0.6486    0.3720 N   0  0  0  0  0  0  0  0  0  0  0  0
    2.8337   -0.6082    0.3253 C   0  0  0  0  0  0  0  0  0  0  0  0
    3.8968   -1.0029    1.3194 C   0  0  0  0  0  0  0  0  0  0  0  0
    5.1910   -1.6261    0.8422 C   0  0  0  0  0  0  0  0  0  0  0  0
    5.1959   -0.2303    1.3917 C   0  0  0  0  0  0  0  0  0  0  0  0
    2.4070   -1.5292   -0.5651 N   0  0  0  0  0  0  0  0  0  0  0  0
    1.4521   -1.1527   -1.4447 C   0  0  0  0  0  0  0  0  0  0  0  0
   -2.1313   -0.3504   -0.7497 C   0  0  0  0  0  0  0  0  0  0  0  0
   -1.9509   -1.4750    0.0665 C   0  0  0  0  0  0  0  0  0  0  0  0
   -2.3792   -1.4504    1.4021 C   0  0  0  0  0  0  0  0  0  0  0  0
   -2.9955   -0.3132    1.9290 C   0  0  0  0  0  0  0  0  0  0  0  0
   -3.1726    0.7846    1.1023 C   0  0  0  0  0  0  0  0  0  0  0  0
   -2.7563    0.7709   -0.2236 C   0  0  0  0  0  0  0  0  0  0  0  0
   -3.1273    2.0640   -0.8536 C   0  0  0  0  0  0  0  0  0  0  0  0
   -3.4584    2.9155    0.2689 O   0  0  0  0  0  0  0  0  0  0  0  0
   -3.8124    2.0907    1.4028 C   0  0  0  0  0  0  0  0  0  0  0  0
   -0.2715    1.4930   -2.5650 H   0  0  0  0  0  0  0  0  0  0  0  0
    1.0197    1.9920   -0.4392 H   0  0  0  0  0  0  0  0  0  0  0  0
    3.5074   -1.3751    2.2628 H   0  0  0  0  0  0  0  0  0  0  0  0
    5.3383   -1.7559   -0.2247 H   0  0  0  0  0  0  0  0  0  0  0  0
    5.6210   -2.4161    1.4472 H   0  0  0  0  0  0  0  0  0  0  0  0
    5.6308   -0.0674    2.3711 H   0  0  0  0  0  0  0  0  0  0  0  0
    5.3428    0.5940    0.7026 H   0  0  0  0  0  0  0  0  0  0  0  0
    1.1654   -1.9242   -2.1538 H   0  0  0  0  0  0  0  0  0  0  0  0
   -1.4760   -2.3750   -0.3208 H   0  0  0  0  0  0  0  0  0  0  0  0
   -2.2306   -2.3257    2.0313 H   0  0  0  0  0  0  0  0  0  0  0  0
   -3.3284   -0.2967    2.9627 H   0  0  0  0  0  0  0  0  0  0  0  0
   -2.3002    2.5292   -1.3961 H   0  0  0  0  0  0  0  0  0  0  0  0
   -4.0110    1.9690   -1.4920 H   0  0  0  0  0  0  0  0  0  0  0  0
   -3.4162    2.5553    2.3088 H   0  0  0  0  0  0  0  0  0  0  0  0
   -4.9018    2.0067    1.4536 H   0  0  0  0  0  0  0  0  0  0  0  0
  1  2  2  0
  2  3  2  0
  2  4  1  0
  4  5  1  0
  5  6  2  0
  6  7  1  0
  7  8  2  0
  8  9  1  0
  9 10  1  0
 10 11  1  0
  8 12  1  0
 12 13  2  0
  2 14  1  0
 14 15  2  0
 15 16  1  0
 16 17  2  0
 17 18  1  0
 18 19  2  0
 19 20  1  0
 20 21  1  0
 21 22  1  0
 13  5  1  0
 19 14  1  0
 11  9  1  0
 22 18  1  0
  4 23  1  0
  6 24  1  0
  9 25  1  0
 10 26  1  0
 10 27  1  0
 11 28  1  0
 11 29  1  0
 13 30  1  0
 15 31  1  0
 16 32  1  0
 17 33  1  0
 20 34  1  0
 20 35  1  0
 22 36  1  0
 22 37  1  0
M  END
$$$$
OCNT-2311525
     RDKit          3D

 51 53  0  0  0  0  0  0  0  0999 V2000
   -5.0610    1.9073    1.3229 C   0  0  0  0  0  0  0  0  0  0  0  0
   -3.8894    0.9902    0.9614 C   0  0  0  0  0  0  0  0  0  0  0  0
   -3.7693   -0.1279    1.9982 C   0  0  0  0  0  0  0  0  0  0  0  0
   -2.5983    1.8205    0.8387 C   0  0  0  0  0  0  0  0  0  0  0  0
   -1.3336    1.0379    0.4416 C   0  0  0  0  0  0  0  0  0  0  0  0
   -1.4174    0.1911   -0.8615 C   0  0  0  0  0  0  0  0  0  0  0  0
   -1.8541    1.1024   -2.0290 C   0  0  0  0  0  0  0  0  0  0  0  0
   -0.1220   -0.4844   -1.1478 N   0  0  0  0  0  0  0  0  0  0  0  0
   -0.0545   -1.0810   -2.4949 C   0  0  0  0  0  0  0  0  0  0  0  0
    1.0745   -2.1005   -2.7040 C   0  0  0  0  0  0  0  0  0  0  0  0
    2.2322   -1.8507   -1.7525 C   0  0  0  0  0  0  0  0  0  0  0  0
    1.7352   -1.9999   -0.3094 C   0  0  0  0  0  0  0  0  0  0  0  0
    2.7017   -1.5089    0.6530 N   0  0  0  0  0  0  0  0  0  0  0  0
    3.5237   -2.3108    1.4620 C   0  0  0  0  0  0  0  0  0  0  0  0
    3.5508   -3.5282    1.5322 O   0  0  0  0  0  0  0  0  0  0  0  0
    4.3382   -1.4432    2.2047 N   0  0  0  0  0  0  0  0  0  0  0  0
    4.0329   -0.1404    1.8383 C   0  0  0  0  0  0  0  0  0  0  0  0
    4.5671    1.0457    2.2786 C   0  0  0  0  0  0  0  0  0  0  0  0
    4.0403    2.2039    1.7067 C   0  0  0  0  0  0  0  0  0  0  0  0
    3.0291    2.0937    0.7416 C   0  0  0  0  0  0  0  0  0  0  0  0
    2.5067    0.9222    0.3036 N   0  0  0  0  0  0  0  0  0  0  0  0
    3.0271   -0.1653    0.8754 C   0  0  0  0  0  0  0  0  0  0  0  0
    0.2903   -1.4552   -0.1159 C   0  0  0  0  0  0  0  0  0  0  0  0
   -4.9045    2.3881    2.2954 H   0  0  0  0  0  0  0  0  0  0  0  0
   -5.1860    2.6929    0.5700 H   0  0  0  0  0  0  0  0  0  0  0  0
   -5.9986    1.3420    1.3724 H   0  0  0  0  0  0  0  0  0  0  0  0
   -4.1200    0.5341   -0.0081 H   0  0  0  0  0  0  0  0  0  0  0  0
   -3.5162    0.2708    2.9869 H   0  0  0  0  0  0  0  0  0  0  0  0
   -4.7148   -0.6763    2.0866 H   0  0  0  0  0  0  0  0  0  0  0  0
   -3.0008   -0.8539    1.7154 H   0  0  0  0  0  0  0  0  0  0  0  0
   -2.3965    2.3103    1.8007 H   0  0  0  0  0  0  0  0  0  0  0  0
   -2.7561    2.6387    0.1258 H   0  0  0  0  0  0  0  0  0  0  0  0
   -0.5087    1.7592    0.3461 H   0  0  0  0  0  0  0  0  0  0  0  0
   -1.0801    0.4064    1.2986 H   0  0  0  0  0  0  0  0  0  0  0  0
   -2.1871   -0.5818   -0.7365 H   0  0  0  0  0  0  0  0  0  0  0  0
   -2.8056    1.5996   -1.8223 H   0  0  0  0  0  0  0  0  0  0  0  0
   -2.0179    0.5405   -2.9546 H   0  0  0  0  0  0  0  0  0  0  0  0
   -1.1042    1.8773   -2.2261 H   0  0  0  0  0  0  0  0  0  0  0  0
    0.0956   -0.2747   -3.2228 H   0  0  0  0  0  0  0  0  0  0  0  0
   -0.9978   -1.5819   -2.7460 H   0  0  0  0  0  0  0  0  0  0  0  0
    1.4233   -2.0591   -3.7426 H   0  0  0  0  0  0  0  0  0  0  0  0
    0.6848   -3.1145   -2.5400 H   0  0  0  0  0  0  0  0  0  0  0  0
    3.0471   -2.5581   -1.9454 H   0  0  0  0  0  0  0  0  0  0  0  0
    2.6444   -0.8504   -1.9320 H   0  0  0  0  0  0  0  0  0  0  0  0
    1.6605   -3.0809   -0.1248 H   0  0  0  0  0  0  0  0  0  0  0  0
    5.0225   -1.7532    2.8742 H   0  0  0  0  0  0  0  0  0  0  0  0
    5.3497    1.0864    3.0254 H   0  0  0  0  0  0  0  0  0  0  0  0
    4.4030    3.1833    2.0026 H   0  0  0  0  0  0  0  0  0  0  0  0
    2.5972    2.9832    0.2869 H   0  0  0  0  0  0  0  0  0  0  0  0
    0.2261   -1.0443    0.8946 H   0  0  0  0  0  0  0  0  0  0  0  0
   -0.4096   -2.3024   -0.1391 H   0  0  0  0  0  0  0  0  0  0  0  0
  1  2  1  0
  2  3  1  0
  2  4  1  0
  4  5  1  0
  5  6  1  0
  6  7  1  0
  6  8  1  0
  8  9  1  0
  9 10  1  0
 10 11  1  0
 11 12  1  0
 12 13  1  0
 13 14  1  0
 14 15  2  0
 14 16  1  0
 16 17  1  0
 17 18  1  0
 18 19  2  0
 19 20  1  0
 20 21  2  0
 21 22  1  0
 12 23  1  0
 23  8  1  0
 22 13  1  0
 22 17  2  0
  1 24  1  0
  1 25  1  0
  1 26  1  0
  2 27  1  0
  3 28  1  0
  3 29  1  0
  3 30  1  0
  4 31  1  0
  4 32  1  0
  5 33  1  0
  5 34  1  0
  6 35  1  0
  7 36  1  0
  7 37  1  0
  7 38  1  0
  9 39  1  0
  9 40  1  0
 10 41  1  0
 10 42  1  0
 11 43  1  0
 11 44  1  0
 12 45  1  0
 16 46  1  0
 18 47  1  0
 19 48  1  0
 20 49  1  0
 23 50  1  0
 23 51  1  0
M  END
$$$$
OCNT-2311532
     RDKit          3D

 39 41  0  0  0  0  0  0  0  0999 V2000
   -5.8818    0.4737   -0.8215 C   0  0  0  0  0  0  0  0  0  0  0  0
   -4.6309   -0.3942   -0.7127 C   0  0  2  0  0  0  0  0  0  0  0  0
   -4.8800   -1.4097    0.2616 O   0  0  0  0  0  0  0  0  0  0  0  0
   -3.3447    0.3166   -0.3387 C   0  0  0  0  0  0  0  0  0  0  0  0
   -3.2280    1.7103   -0.2619 C   0  0  0  0  0  0  0  0  0  0  0  0
   -2.0087    2.3074    0.0628 C   0  0  0  0  0  0  0  0  0  0  0  0
   -0.8839    1.5210    0.3128 C   0  0  0  0  0  0  0  0  0  0  0  0
   -0.9551    0.1229    0.2434 C   0  0  0  0  0  0  0  0  0  0  0  0
    0.2270   -0.7119    0.5136 C   0  0  0  0  0  0  0  0  0  0  0  0
    0.1773   -1.7518    1.4524 C   0  0  0  0  0  0  0  0  0  0  0  0
    1.3043   -2.5262    1.7034 C   0  0  0  0  0  0  0  0  0  0  0  0
    1.2374   -3.5148    2.6049 F   0  0  0  0  0  0  0  0  0  0  0  0
    2.5023   -2.2947    1.0372 C   0  0  0  0  0  0  0  0  0  0  0  0
    2.5874   -1.2651    0.0936 C   0  0  0  0  0  0  0  0  0  0  0  0
    3.8768   -1.0059   -0.6436 C   0  0  0  0  0  0  0  0  0  0  0  0
    4.4329    0.2971   -0.3226 N   0  0  0  0  0  0  0  0  0  0  0  0
    4.5085    1.3767   -1.1594 C   0  0  0  0  0  0  0  0  0  0  0  0
    5.1476    2.3486   -0.4254 C   0  0  0  0  0  0  0  0  0  0  0  0
    5.4674    1.8836    0.8238 N   0  0  0  0  0  0  0  0  0  0  0  0
    5.0263    0.6462    0.8574 C   0  0  0  0  0  0  0  0  0  0  0  0
    1.4427   -0.4863   -0.1605 C   0  0  0  0  0  0  0  0  0  0  0  0
   -2.1929   -0.4571   -0.0871 C   0  0  0  0  0  0  0  0  0  0  0  0
   -6.7548   -0.1429   -1.0632 H   0  0  0  0  0  0  0  0  0  0  0  0
   -6.1047    0.9687    0.1306 H   0  0  0  0  0  0  0  0  0  0  0  0
   -5.7803    1.2358   -1.6005 H   0  0  0  0  0  0  0  0  0  0  0  0
   -4.4680   -0.8922   -1.6765 H   0  0  0  0  0  0  0  0  0  0  0  0
   -5.6759   -1.8907   -0.0185 H   0  0  0  0  0  0  0  0  0  0  0  0
   -4.0797    2.3592   -0.4460 H   0  0  0  0  0  0  0  0  0  0  0  0
   -1.9357    3.3902    0.1284 H   0  0  0  0  0  0  0  0  0  0  0  0
    0.0502    2.0109    0.5810 H   0  0  0  0  0  0  0  0  0  0  0  0
   -0.7345   -1.9599    2.0064 H   0  0  0  0  0  0  0  0  0  0  0  0
    3.3557   -2.9259    1.2684 H   0  0  0  0  0  0  0  0  0  0  0  0
    3.7076   -1.0562   -1.7254 H   0  0  0  0  0  0  0  0  0  0  0  0
    4.6422   -1.7504   -0.3950 H   0  0  0  0  0  0  0  0  0  0  0  0
    4.1184    1.3695   -2.1673 H   0  0  0  0  0  0  0  0  0  0  0  0
    5.3980    3.3564   -0.7305 H   0  0  0  0  0  0  0  0  0  0  0  0
    5.1081   -0.0286    1.6999 H   0  0  0  0  0  0  0  0  0  0  0  0
    1.4946    0.3124   -0.9009 H   0  0  0  0  0  0  0  0  0  0  0  0
   -2.2733   -1.5425   -0.1500 H   0  0  0  0  0  0  0  0  0  0  0  0
  1  2  1  0
  2  3  1  0
  2  4  1  0
  4  5  2  0
  5  6  1  0
  6  7  2  0
  7  8  1  0
  8  9  1  0
  9 10  1  0
 10 11  2  0
 11 12  1  0
 11 13  1  0
 13 14  2  0
 14 15  1  0
 15 16  1  0
 16 17  1  0
 17 18  2  0
 18 19  1  0
 19 20  2  0
 14 21  1  0
  8 22  2  0
 22  4  1  0
 21  9  2  0
 20 16  1  0
  1 23  1  0
  1 24  1  0
  1 25  1  0
  2 26  1  6
  3 27  1  0
  5 28  1  0
  6 29  1  0
  7 30  1  0
 10 31  1  0
 13 32  1  0
 15 33  1  0
 15 34  1  0
 17 35  1  0
 18 36  1  0
 20 37  1  0
 21 38  1  0
 22 39  1  0
M  END
$$$$
OCNT-2311552
     RDKit          3D

 44 47  0  0  0  0  0  0  0  0999 V2000
    0.8443   -3.0829    1.0664 C   0  0  0  0  0  0  0  0  0  0  0  0
    2.1136   -2.4058    0.7359 C   0  0  0  0  0  0  0  0  0  0  0  0
    2.5395   -1.0938    0.7227 C   0  0  0  0  0  0  0  0  0  0  0  0
    1.7784    0.0776    1.0877 C   0  0  0  0  0  0  0  0  0  0  0  0
    2.2330    0.9785    1.7859 O   0  0  0  0  0  0  0  0  0  0  0  0
    0.4918    0.0902    0.6167 N   0  0  0  0  0  0  0  0  0  0  0  0
   -0.3715    1.2236    0.8245 C   0  0  0  0  0  0  0  0  0  0  0  0
   -1.7372    0.8652    0.3469 C   0  0  0  0  0  0  0  0  0  0  0  0
   -2.1143   -0.2759   -0.2106 N   0  0  0  0  0  0  0  0  0  0  0  0
   -3.4479   -0.1289   -0.4634 C   0  0  0  0  0  0  0  0  0  0  0  0
   -3.8895    1.1080   -0.0607 C   0  0  0  0  0  0  0  0  0  0  0  0
   -5.2677    1.6335   -0.1858 C   0  0  0  0  0  0  0  0  0  0  0  0
   -6.2329    0.4621   -0.4694 C   0  0  0  0  0  0  0  0  0  0  0  0
   -5.6693   -0.5408   -1.5021 C   0  0  0  0  0  0  0  0  0  0  0  0
   -4.3302   -1.1660   -1.0543 C   0  0  0  0  0  0  0  0  0  0  0  0
   -2.7956    1.7404    0.4500 N   0  0  0  0  0  0  0  0  0  0  0  0
    3.9083   -1.1751    0.3277 C   0  0  0  0  0  0  0  0  0  0  0  0
    4.8464   -0.0796    0.0901 C   0  0  0  0  0  0  0  0  0  0  0  0
    6.1957   -0.2154    0.4050 C   0  0  0  0  0  0  0  0  0  0  0  0
    7.0502    0.8561    0.1613 C   0  0  0  0  0  0  0  0  0  0  0  0
    6.5370    2.0236   -0.3906 C   0  0  0  0  0  0  0  0  0  0  0  0
    5.1853    2.0700   -0.6857 C   0  0  0  0  0  0  0  0  0  0  0  0
    4.3309    1.0466   -0.4667 N   0  0  0  0  0  0  0  0  0  0  0  0
    4.2723   -2.4588    0.1517 N   0  0  0  0  0  0  0  0  0  0  0  0
    3.1479   -3.2156    0.3945 O   0  0  0  0  0  0  0  0  0  0  0  0
    0.0941   -2.8930    0.2920 H   0  0  0  0  0  0  0  0  0  0  0  0
    0.9818   -4.1674    1.1413 H   0  0  0  0  0  0  0  0  0  0  0  0
    0.4529   -2.7286    2.0243 H   0  0  0  0  0  0  0  0  0  0  0  0
    0.1693   -0.6027   -0.0487 H   0  0  0  0  0  0  0  0  0  0  0  0
   -0.3818    1.4797    1.8908 H   0  0  0  0  0  0  0  0  0  0  0  0
    0.0286    2.0727    0.2614 H   0  0  0  0  0  0  0  0  0  0  0  0
   -5.3066    2.3496   -1.0140 H   0  0  0  0  0  0  0  0  0  0  0  0
   -5.5763    2.1585    0.7253 H   0  0  0  0  0  0  0  0  0  0  0  0
   -6.4335   -0.0766    0.4669 H   0  0  0  0  0  0  0  0  0  0  0  0
   -7.1925    0.8585   -0.8196 H   0  0  0  0  0  0  0  0  0  0  0  0
   -6.4008   -1.3372   -1.6811 H   0  0  0  0  0  0  0  0  0  0  0  0
   -5.5236   -0.0186   -2.4565 H   0  0  0  0  0  0  0  0  0  0  0  0
   -3.8423   -1.6514   -1.9045 H   0  0  0  0  0  0  0  0  0  0  0  0
   -4.5241   -1.9377   -0.2985 H   0  0  0  0  0  0  0  0  0  0  0  0
   -2.7598    2.6727    0.8388 H   0  0  0  0  0  0  0  0  0  0  0  0
    6.5775   -1.1342    0.8400 H   0  0  0  0  0  0  0  0  0  0  0  0
    8.1044    0.7792    0.4063 H   0  0  0  0  0  0  0  0  0  0  0  0
    7.1757    2.8790   -0.5873 H   0  0  0  0  0  0  0  0  0  0  0  0
    4.7382    2.9607   -1.1173 H   0  0  0  0  0  0  0  0  0  0  0  0
  1  2  1  0
  2  3  2  0
  3  4  1  0
  4  5  2  0
  4  6  1  0
  6  7  1  0
  7  8  1  0
  8  9  2  0
  9 10  1  0
 10 11  2  0
 11 12  1  0
 12 13  1  0
 13 14  1  0
 14 15  1  0
 11 16  1  0
  3 17  1  0
 17 18  1  0
 18 19  2  0
 19 20  1  0
 20 21  2  0
 21 22  1  0
 22 23  2  0
 17 24  2  0
 24 25  1  0
 25  2  1  0
 16  8  1  0
 23 18  1  0
 15 10  1  0
  1 26  1  0
  1 27  1  0
  1 28  1  0
  6 29  1  0
  7 30  1  0
  7 31  1  0
 12 32  1  0
 12 33  1  0
 13 34  1  0
 13 35  1  0
 14 36  1  0
 14 37  1  0
 15 38  1  0
 15 39  1  0
 16 40  1  0
 19 41  1  0
 20 42  1  0
 21 43  1  0
 22 44  1  0
M  END
$$$$
OCNT-2311554
     RDKit          3D

 42 44  0  0  0  0  0  0  0  0999 V2000
   -2.8826   -1.2739    3.3499 C   0  0  0  0  0  0  0  0  0  0  0  0
   -3.3478   -0.6328    2.0937 C   0  0  0  0  0  0  0  0  0  0  0  0
   -2.9780    0.5417    1.4715 C   0  0  0  0  0  0  0  0  0  0  0  0
   -1.7626    1.6721    2.0268 S   0  0  0  0  0  0  0  0  0  0  0  0
   -0.2422    0.8057    1.5173 C   0  0  0  0  0  0  0  0  0  0  0  0
   -0.0241    0.8768    0.0038 C   0  0  0  0  0  0  0  0  0  0  0  0
    1.1457    0.1265   -0.4383 N   0  0  0  0  0  0  0  0  0  0  0  0
    2.4168    0.6036   -0.1696 C   0  0  0  0  0  0  0  0  0  0  0  0
    2.6173    1.6129    0.4918 O   0  0  0  0  0  0  0  0  0  0  0  0
    3.3710   -0.2240   -0.7288 N   0  0  0  0  0  0  0  0  0  0  0  0
    4.7290    0.0394   -0.6707 C   0  0  0  0  0  0  0  0  0  0  0  0
    5.4348    1.1242   -0.1953 C   0  0  0  0  0  0  0  0  0  0  0  0
    6.7880    0.8127   -0.4125 C   0  0  0  0  0  0  0  0  0  0  0  0
    6.9488   -0.3794   -0.9886 N   0  0  0  0  0  0  0  0  0  0  0  0
    5.6882   -0.8325   -1.1358 N   0  0  0  0  0  0  0  0  0  0  0  0
    5.4783   -2.1286   -1.7354 C   0  0  0  0  0  0  0  0  0  0  0  0
   -3.7668    0.7001    0.2963 C   0  0  0  0  0  0  0  0  0  0  0  0
   -3.8608    1.6781   -0.7172 C   0  0  0  0  0  0  0  0  0  0  0  0
   -4.7691    1.4998   -1.7668 C   0  0  0  0  0  0  0  0  0  0  0  0
   -5.5792    0.3684   -1.8188 C   0  0  0  0  0  0  0  0  0  0  0  0
   -5.5093   -0.6139   -0.8265 C   0  0  0  0  0  0  0  0  0  0  0  0
   -4.5958   -0.4196    0.2167 C   0  0  0  0  0  0  0  0  0  0  0  0
   -4.3269   -1.2038    1.3157 N   0  0  0  0  0  0  0  0  0  0  0  0
   -3.5626   -2.0706    3.6691 H   0  0  0  0  0  0  0  0  0  0  0  0
   -1.8903   -1.7131    3.2074 H   0  0  0  0  0  0  0  0  0  0  0  0
   -2.8247   -0.5419    4.1617 H   0  0  0  0  0  0  0  0  0  0  0  0
   -0.2760   -0.2363    1.8531 H   0  0  0  0  0  0  0  0  0  0  0  0
    0.5913    1.2776    2.0465 H   0  0  0  0  0  0  0  0  0  0  0  0
    0.0916    1.9155   -0.3278 H   0  0  0  0  0  0  0  0  0  0  0  0
   -0.8718    0.4396   -0.5330 H   0  0  0  0  0  0  0  0  0  0  0  0
    1.0533   -0.3100   -1.3435 H   0  0  0  0  0  0  0  0  0  0  0  0
    3.0544   -1.1167   -1.0735 H   0  0  0  0  0  0  0  0  0  0  0  0
    5.0339    2.0227    0.2521 H   0  0  0  0  0  0  0  0  0  0  0  0
    7.6614    1.4063   -0.1752 H   0  0  0  0  0  0  0  0  0  0  0  0
    5.0064   -2.7779   -0.9938 H   0  0  0  0  0  0  0  0  0  0  0  0
    6.4382   -2.5519   -2.0427 H   0  0  0  0  0  0  0  0  0  0  0  0
    4.8329   -2.0057   -2.6087 H   0  0  0  0  0  0  0  0  0  0  0  0
   -3.2380    2.5675   -0.6815 H   0  0  0  0  0  0  0  0  0  0  0  0
   -4.8441    2.2556   -2.5448 H   0  0  0  0  0  0  0  0  0  0  0  0
   -6.2814    0.2490   -2.6407 H   0  0  0  0  0  0  0  0  0  0  0  0
   -6.1477   -1.4905   -0.8673 H   0  0  0  0  0  0  0  0  0  0  0  0
   -4.7996   -2.0729    1.5217 H   0  0  0  0  0  0  0  0  0  0  0  0
  1  2  1  0
  2  3  2  0
  3  4  1  0
  4  5  1  0
  5  6  1  0
  6  7  1  0
  7  8  1  0
  8  9  2  0
  8 10  1  0
 10 11  1  0
 11 12  2  0
 12 13  1  0
 13 14  2  0
 14 15  1  0
 15 16  1  0
  3 17  1  0
 17 18  2  0
 18 19  1  0
 19 20  2  0
 20 21  1  0
 21 22  2  0
 22 23  1  0
 23  2  1  0
 15 11  1  0
 22 17  1  0
  1 24  1  0
  1 25  1  0
  1 26  1  0
  5 27  1  0
  5 28  1  0
  6 29  1  0
  6 30  1  0
  7 31  1  0
 10 32  1  0
 12 33  1  0
 13 34  1  0
 16 35  1  0
 16 36  1  0
 16 37  1  0
 18 38  1  0
 19 39  1  0
 20 40  1  0
 21 41  1  0
 23 42  1  0
M  END
$$$$
OCNT-2311559
     RDKit          3D

 43 45  0  0  0  0  0  0  0  0999 V2000
   -6.9885   -1.6330   -0.2701 C   0  0  0  0  0  0  0  0  0  0  0  0
   -5.8609   -1.3471   -1.2251 C   0  0  0  0  0  0  0  0  0  0  0  0
   -5.6551   -2.0377   -2.2176 O   0  0  0  0  0  0  0  0  0  0  0  0
   -5.0905   -0.2622   -0.8765 N   0  0  0  0  0  0  0  0  0  0  0  0
   -3.8953    0.0714   -1.6289 C   0  0  0  0  0  0  0  0  0  0  0  0
   -3.2936    1.4205   -1.2291 C   0  0  0  0  0  0  0  0  0  0  0  0
   -2.5518    1.3758    0.0851 C   0  0  0  0  0  0  0  0  0  0  0  0
   -1.1537    1.2425    0.1115 C   0  0  0  0  0  0  0  0  0  0  0  0
   -0.4437    1.1968    1.3254 C   0  0  0  0  0  0  0  0  0  0  0  0
    1.0113    1.0574    1.2956 C   0  0  0  0  0  0  0  0  0  0  0  0
    1.8547    1.3635    2.3430 C   0  0  0  0  0  0  0  0  0  0  0  0
    3.4798    1.0792    1.8892 S   0  0  0  0  0  0  0  0  0  0  0  0
    2.9602    0.5325    0.3356 C   0  0  0  0  0  0  0  0  0  0  0  0
    3.7805    0.1522   -0.6720 N   0  0  0  0  0  0  0  0  0  0  0  0
    5.0352   -0.4846   -0.6428 C   0  0  0  0  0  0  0  0  0  0  0  0
    5.8503   -0.3813   -1.7851 C   0  0  0  0  0  0  0  0  0  0  0  0
    7.1243   -0.9541   -1.8207 C   0  0  0  0  0  0  0  0  0  0  0  0
    7.5964   -1.6338   -0.7080 C   0  0  0  0  0  0  0  0  0  0  0  0
    8.8163   -2.1853   -0.7370 F   0  0  0  0  0  0  0  0  0  0  0  0
    6.8177   -1.7502    0.4345 C   0  0  0  0  0  0  0  0  0  0  0  0
    5.5433   -1.1737    0.4665 C   0  0  0  0  0  0  0  0  0  0  0  0
    1.6597    0.6148    0.1513 N   0  0  0  0  0  0  0  0  0  0  0  0
   -1.1636    1.2739    2.5271 C   0  0  0  0  0  0  0  0  0  0  0  0
   -2.5550    1.3996    2.5132 C   0  0  0  0  0  0  0  0  0  0  0  0
   -3.2328    1.4491    1.3005 C   0  0  0  0  0  0  0  0  0  0  0  0
   -4.5704    1.5461    1.3114 F   0  0  0  0  0  0  0  0  0  0  0  0
   -7.9007   -1.8262   -0.8414 H   0  0  0  0  0  0  0  0  0  0  0  0
   -6.7352   -2.5109    0.3299 H   0  0  0  0  0  0  0  0  0  0  0  0
   -7.1763   -0.7868    0.3967 H   0  0  0  0  0  0  0  0  0  0  0  0
   -5.1874    0.1143    0.0603 H   0  0  0  0  0  0  0  0  0  0  0  0
   -3.1749   -0.7445   -1.4976 H   0  0  0  0  0  0  0  0  0  0  0  0
   -4.1738    0.0977   -2.6890 H   0  0  0  0  0  0  0  0  0  0  0  0
   -2.5981    1.7424   -2.0147 H   0  0  0  0  0  0  0  0  0  0  0  0
   -4.0723    2.1923   -1.1813 H   0  0  0  0  0  0  0  0  0  0  0  0
   -0.6051    1.1752   -0.8281 H   0  0  0  0  0  0  0  0  0  0  0  0
    1.6223    1.7476    3.3248 H   0  0  0  0  0  0  0  0  0  0  0  0
    3.3087    0.0423   -1.5632 H   0  0  0  0  0  0  0  0  0  0  0  0
    5.4985    0.1644   -2.6581 H   0  0  0  0  0  0  0  0  0  0  0  0
    7.7477   -0.8680   -2.7046 H   0  0  0  0  0  0  0  0  0  0  0  0
    7.2009   -2.2916    1.2935 H   0  0  0  0  0  0  0  0  0  0  0  0
    4.9475   -1.3103    1.3638 H   0  0  0  0  0  0  0  0  0  0  0  0
   -0.6624    1.2213    3.4898 H   0  0  0  0  0  0  0  0  0  0  0  0
   -3.1141    1.4520    3.4425 H   0  0  0  0  0  0  0  0  0  0  0  0
  1  2  1  0
  2  3  2  0
  2  4  1  0
  4  5  1  0
  5  6  1  0
  6  7  1  0
  7  8  1  0
  8  9  2  0
  9 10  1  0
 10 11  2  0
 11 12  1  0
 12 13  1  0
 13 14  1  0
 14 15  1  0
 15 16  1  0
 16 17  2  0
 17 18  1  0
 18 19  1  0
 18 20  2  0
 20 21  1  0
 13 22  2  0
  9 23  1  0
 23 24  2  0
 24 25  1  0
 25 26  1  0
 25  7  2  0
 22 10  1  0
 21 15  2  0
  1 27  1  0
  1 28  1  0
  1 29  1  0
  4 30  1  0
  5 31  1  0
  5 32  1  0
  6 33  1  0
  6 34  1  0
  8 35  1  0
 11 36  1  0
 14 37  1  0
 16 38  1  0
 17 39  1  0
 20 40  1  0
 21 41  1  0
 23 42  1  0
 24 43  1  0
M  END
$$$$
OCNT-2311573
     RDKit          3D

 39 41  0  0  0  0  0  0  0  0999 V2000
   -1.2782    1.5678   -1.4241 C   0  0  0  0  0  0  0  0  0  0  0  0
   -0.4765    0.2626   -1.5263 C   0  0  0  0  0  0  0  0  0  0  0  0
   -1.1637   -0.9720   -0.8675 C   0  0  0  0  0  0  0  0  0  0  0  0
   -1.6314   -0.9105    0.5687 C   0  0  0  0  0  0  0  0  0  0  0  0
   -2.7980   -0.2179    0.9232 C   0  0  0  0  0  0  0  0  0  0  0  0
   -3.2285   -0.1796    2.2515 C   0  0  0  0  0  0  0  0  0  0  0  0
   -2.5056   -0.8436    3.2412 C   0  0  0  0  0  0  0  0  0  0  0  0
   -1.3593   -1.5535    2.8949 C   0  0  0  0  0  0  0  0  0  0  0  0
   -0.3724   -2.4531    4.2323 Br  0  0  0  0  0  0  0  0  0  0  0  0
   -0.9270   -1.5990    1.5693 C   0  0  0  0  0  0  0  0  0  0  0  0
   -0.3415   -0.0893   -3.0503 C   0  0  0  0  0  0  0  0  0  0  0  0
    0.9780    0.5262   -3.4746 C   0  0  0  0  0  0  0  0  0  0  0  0
    1.8506    0.2600   -2.2609 C   0  0  0  0  0  0  0  0  0  0  0  0
    0.9413    0.4774   -1.1321 N   0  0  0  0  0  0  0  0  0  0  0  0
    1.5037    0.4933    0.1213 C   0  0  0  0  0  0  0  0  0  0  0  0
    0.8819    1.0639    1.2141 C   0  0  0  0  0  0  0  0  0  0  0  0
    1.5436    1.0402    2.4245 C   0  0  0  0  0  0  0  0  0  0  0  0
    2.7602    0.5069    2.5925 N   0  0  0  0  0  0  0  0  0  0  0  0
    3.3039   -0.0073    1.4789 C   0  0  0  0  0  0  0  0  0  0  0  0
    4.6162   -0.5864    1.5951 C   0  0  0  0  0  0  0  0  0  0  0  0
    5.6783   -1.0554    1.6837 N   0  0  0  0  0  0  0  0  0  0  0  0
    2.7371   -0.0304    0.2573 N   0  0  0  0  0  0  0  0  0  0  0  0
   -0.7767    2.3861   -1.9537 H   0  0  0  0  0  0  0  0  0  0  0  0
   -1.4202    1.9045   -0.3964 H   0  0  0  0  0  0  0  0  0  0  0  0
   -2.2741    1.4495   -1.8662 H   0  0  0  0  0  0  0  0  0  0  0  0
   -2.0505   -1.2348   -1.4634 H   0  0  0  0  0  0  0  0  0  0  0  0
   -0.4943   -1.8387   -0.9687 H   0  0  0  0  0  0  0  0  0  0  0  0
   -3.3897    0.2920    0.1659 H   0  0  0  0  0  0  0  0  0  0  0  0
   -4.1337    0.3630    2.5135 H   0  0  0  0  0  0  0  0  0  0  0  0
   -2.8474   -0.8093    4.2722 H   0  0  0  0  0  0  0  0  0  0  0  0
   -0.0292   -2.1590    1.3136 H   0  0  0  0  0  0  0  0  0  0  0  0
   -0.2819   -1.1754   -3.2011 H   0  0  0  0  0  0  0  0  0  0  0  0
   -1.1803    0.2749   -3.6528 H   0  0  0  0  0  0  0  0  0  0  0  0
    1.3812    0.0783   -4.3870 H   0  0  0  0  0  0  0  0  0  0  0  0
    0.8632    1.6037   -3.6398 H   0  0  0  0  0  0  0  0  0  0  0  0
    2.7060    0.9450   -2.2494 H   0  0  0  0  0  0  0  0  0  0  0  0
    2.2139   -0.7752   -2.2711 H   0  0  0  0  0  0  0  0  0  0  0  0
   -0.0892    1.5285    1.1567 H   0  0  0  0  0  0  0  0  0  0  0  0
    1.0903    1.4665    3.3152 H   0  0  0  0  0  0  0  0  0  0  0  0
  1  2  1  0
  2  3  1  0
  3  4  1  0
  4  5  2  0
  5  6  1  0
  6  7  2  0
  7  8  1  0
  8  9  1  0
  8 10  2  0
  2 11  1  0
 11 12  1  0
 12 13  1  0
 13 14  1  0
 14 15  1  0
 15 16  1  0
 16 17  2  0
 17 18  1  0
 18 19  2  0
 19 20  1  0
 20 21  3  0
 19 22  1  0
 14  2  1  0
 22 15  2  0
 10  4  1  0
  1 23  1  0
  1 24  1  0
  1 25  1  0
  3 26  1  0
  3 27  1  0
  5 28  1  0
  6 29  1  0
  7 30  1  0
 10 31  1  0
 11 32  1  0
 11 33  1  0
 12 34  1  0
 12 35  1  0
 13 36  1  0
 13 37  1  0
 16 38  1  0
 17 39  1  0
M  END
$$$$
OCNT-2311582
     RDKit          3D

 36 38  0  0  0  0  0  0  0  0999 V2000
   -2.1269   -1.6100   -1.9645 O   0  0  0  0  0  0  0  0  0  0  0  0
   -2.0577   -0.6846   -1.1606 C   0  0  0  0  0  0  0  0  0  0  0  0
   -3.3045   -0.2887   -0.4863 C   0  0  0  0  0  0  0  0  0  0  0  0
   -3.7526    1.0256   -0.5174 C   0  0  0  0  0  0  0  0  0  0  0  0
   -4.8983    1.4407    0.0731 N   0  0  0  0  0  0  0  0  0  0  0  0
   -5.6419    0.4858    0.6857 C   0  0  0  0  0  0  0  0  0  0  0  0
   -6.7785    0.8931    1.2719 F   0  0  0  0  0  0  0  0  0  0  0  0
   -5.2879   -0.8594    0.7354 C   0  0  0  0  0  0  0  0  0  0  0  0
   -6.2775   -2.0222    1.5241 Cl  0  0  0  0  0  0  0  0  0  0  0  0
   -4.0979   -1.2555    0.1325 C   0  0  0  0  0  0  0  0  0  0  0  0
   -0.8819   -0.0080   -0.8689 N   0  0  0  0  0  0  0  0  0  0  0  0
    0.3220   -0.3551   -1.6403 C   0  0  0  0  0  0  0  0  0  0  0  0
    1.4034    0.7288   -1.5301 C   0  0  0  0  0  0  0  0  0  0  0  0
    1.8115    0.9664   -0.1246 N   0  0  0  0  0  0  0  0  0  0  0  0
    3.0013    0.3051    0.2431 C   0  0  0  0  0  0  0  0  0  0  0  0
    3.6748    0.7102    1.4023 C   0  0  0  0  0  0  0  0  0  0  0  0
    4.8494    0.0654    1.7895 C   0  0  0  0  0  0  0  0  0  0  0  0
    5.3250   -0.9694    1.0073 C   0  0  0  0  0  0  0  0  0  0  0  0
    6.4486   -1.6140    1.3431 F   0  0  0  0  0  0  0  0  0  0  0  0
    4.6191   -1.3192   -0.1258 C   0  0  0  0  0  0  0  0  0  0  0  0
    3.4755   -0.7059   -0.5194 N   0  0  0  0  0  0  0  0  0  0  0  0
    0.7469    0.7422    0.8836 C   0  0  0  0  0  0  0  0  0  0  0  0
   -0.6665    0.8840    0.2841 C   0  0  0  0  0  0  0  0  0  0  0  0
   -3.1971    1.8025   -1.0366 H   0  0  0  0  0  0  0  0  0  0  0  0
   -3.7888   -2.2977    0.1351 H   0  0  0  0  0  0  0  0  0  0  0  0
    0.0418   -0.5020   -2.6894 H   0  0  0  0  0  0  0  0  0  0  0  0
    0.6890   -1.3138   -1.2552 H   0  0  0  0  0  0  0  0  0  0  0  0
    0.9883    1.6738   -1.9050 H   0  0  0  0  0  0  0  0  0  0  0  0
    2.2496    0.5060   -2.1912 H   0  0  0  0  0  0  0  0  0  0  0  0
    3.2987    1.5406    1.9909 H   0  0  0  0  0  0  0  0  0  0  0  0
    5.3874    0.3694    2.6802 H   0  0  0  0  0  0  0  0  0  0  0  0
    4.9640   -2.1244   -0.7655 H   0  0  0  0  0  0  0  0  0  0  0  0
    0.8276   -0.2667    1.3127 H   0  0  0  0  0  0  0  0  0  0  0  0
    0.8590    1.4655    1.6997 H   0  0  0  0  0  0  0  0  0  0  0  0
   -1.4094    0.6827    1.0617 H   0  0  0  0  0  0  0  0  0  0  0  0
   -0.8157    1.9088   -0.0757 H   0  0  0  0  0  0  0  0  0  0  0  0
  1  2  2  0
  2  3  1  0
  3  4  1  0
  4  5  2  0
  5  6  1  0
  6  7  1  0
  6  8  2  0
  8  9  1  0
  8 10  1  0
  2 11  1  0
 11 12  1  0
 12 13  1  0
 13 14  1  0
 14 15  1  0
 15 16  2  0
 16 17  1  0
 17 18  2  0
 18 19  1  0
 18 20  1  0
 20 21  2  0
 14 22  1  0
 22 23  1  0
 10  3  2  0
 23 11  1  0
 21 15  1  0
  4 24  1  0
 10 25  1  0
 12 26  1  0
 12 27  1  0
 13 28  1  0
 13 29  1  0
 16 30  1  0
 17 31  1  0
 20 32  1  0
 22 33  1  0
 22 34  1  0
 23 35  1  0
 23 36  1  0
M  END
$$$$
OCNT-2311590
     RDKit          3D

 56 57  0  0  0  0  0  0  0  0999 V2000
    0.5648    2.2421    0.0223 C   0  0  0  0  0  0  0  0  0  0  0  0
   -0.5630    1.3040    0.4428 C   0  0  0  0  0  0  0  0  0  0  0  0
   -0.1254   -0.0643    0.7988 N   0  0  0  0  0  0  0  0  0  0  0  0
    0.7574   -0.0349    2.0075 C   0  0  0  0  0  0  0  0  0  0  0  0
    2.2437   -0.0171    1.6089 C   0  0  0  0  0  0  0  0  0  0  0  0
    3.1065    0.3399    2.4061 O   0  0  0  0  0  0  0  0  0  0  0  0
    2.4443   -0.4897    0.3255 N   0  0  0  0  0  0  0  0  0  0  0  0
    3.6484   -0.6573   -0.3769 C   0  0  0  0  0  0  0  0  0  0  0  0
    3.5526   -1.0871   -1.7057 C   0  0  0  0  0  0  0  0  0  0  0  0
    4.7021   -1.2802   -2.4709 C   0  0  0  0  0  0  0  0  0  0  0  0
    5.9546   -1.0447   -1.9087 C   0  0  0  0  0  0  0  0  0  0  0  0
    6.0673   -0.6159   -0.5845 C   0  0  0  0  0  0  0  0  0  0  0  0
    7.3538   -0.4231   -0.1574 O   0  0  0  0  0  0  0  0  0  0  0  0
    7.5227    0.0439    1.1761 C   0  0  0  0  0  0  0  0  0  0  0  0
    4.9108   -0.4248    0.1787 C   0  0  0  0  0  0  0  0  0  0  0  0
   -1.2947   -0.9379    1.0537 C   0  0  0  0  0  0  0  0  0  0  0  0
   -2.0664   -1.4982   -0.1729 C   0  0  0  0  0  0  0  0  0  0  0  0
   -1.3121   -1.4139   -1.5051 C   0  0  0  0  0  0  0  0  0  0  0  0
   -3.5365   -1.0269   -0.2967 C   0  0  0  0  0  0  0  0  0  0  0  0
   -3.7047    0.3938   -0.6503 N   0  0  0  0  0  0  0  0  0  0  0  0
   -4.1243    1.2079    0.5191 C   0  0  0  0  0  0  0  0  0  0  0  0
   -5.6139    1.6080    0.5499 C   0  0  0  0  0  0  0  0  0  0  0  0
   -6.4428    0.5422    0.0882 O   0  0  0  0  0  0  0  0  0  0  0  0
   -6.1516    0.2010   -1.2751 C   0  0  0  0  0  0  0  0  0  0  0  0
   -4.7147    0.5534   -1.7161 C   0  0  0  0  0  0  0  0  0  0  0  0
    1.1369    1.8245   -0.8122 H   0  0  0  0  0  0  0  0  0  0  0  0
    1.2485    2.4602    0.8475 H   0  0  0  0  0  0  0  0  0  0  0  0
    0.1448    3.1972   -0.3116 H   0  0  0  0  0  0  0  0  0  0  0  0
   -1.2442    1.2609   -0.4088 H   0  0  0  0  0  0  0  0  0  0  0  0
   -1.1176    1.7599    1.2726 H   0  0  0  0  0  0  0  0  0  0  0  0
    0.5383    0.8223    2.6543 H   0  0  0  0  0  0  0  0  0  0  0  0
    0.6433   -0.9425    2.6131 H   0  0  0  0  0  0  0  0  0  0  0  0
    1.5703   -0.6608   -0.1703 H   0  0  0  0  0  0  0  0  0  0  0  0
    2.5830   -1.2745   -2.1599 H   0  0  0  0  0  0  0  0  0  0  0  0
    4.6231   -1.6131   -3.5021 H   0  0  0  0  0  0  0  0  0  0  0  0
    6.8519   -1.1949   -2.5039 H   0  0  0  0  0  0  0  0  0  0  0  0
    7.1403   -0.6828    1.9006 H   0  0  0  0  0  0  0  0  0  0  0  0
    7.0567    1.0254    1.3134 H   0  0  0  0  0  0  0  0  0  0  0  0
    8.5960    0.1577    1.3558 H   0  0  0  0  0  0  0  0  0  0  0  0
    4.9900   -0.0980    1.2072 H   0  0  0  0  0  0  0  0  0  0  0  0
   -0.9175   -1.8398    1.5574 H   0  0  0  0  0  0  0  0  0  0  0  0
   -1.9752   -0.4807    1.7813 H   0  0  0  0  0  0  0  0  0  0  0  0
   -2.1523   -2.5791    0.0224 H   0  0  0  0  0  0  0  0  0  0  0  0
   -1.2161   -0.3887   -1.8711 H   0  0  0  0  0  0  0  0  0  0  0  0
   -0.3087   -1.8432   -1.4131 H   0  0  0  0  0  0  0  0  0  0  0  0
   -1.8398   -1.9853   -2.2770 H   0  0  0  0  0  0  0  0  0  0  0  0
   -3.9863   -1.6616   -1.0737 H   0  0  0  0  0  0  0  0  0  0  0  0
   -4.0859   -1.2875    0.6180 H   0  0  0  0  0  0  0  0  0  0  0  0
   -3.5329    2.1312    0.5232 H   0  0  0  0  0  0  0  0  0  0  0  0
   -3.8768    0.7034    1.4601 H   0  0  0  0  0  0  0  0  0  0  0  0
   -5.7994    2.4982   -0.0637 H   0  0  0  0  0  0  0  0  0  0  0  0
   -5.9114    1.8510    1.5751 H   0  0  0  0  0  0  0  0  0  0  0  0
   -6.3295   -0.8746   -1.3770 H   0  0  0  0  0  0  0  0  0  0  0  0
   -6.8744    0.7155   -1.9175 H   0  0  0  0  0  0  0  0  0  0  0  0
   -4.4417   -0.0227   -2.6090 H   0  0  0  0  0  0  0  0  0  0  0  0
   -4.6920    1.6022   -2.0418 H   0  0  0  0  0  0  0  0  0  0  0  0
  1  2  1  0
  2  3  1  0
  3  4  1  0
  4  5  1  0
  5  6  2  0
  5  7  1  0
  7  8  1  0
  8  9  2  0
  9 10  1  0
 10 11  2  0
 11 12  1  0
 12 13  1  0
 13 14  1  0
 12 15  2  0
  3 16  1  0
 16 17  1  0
 17 18  1  0
 17 19  1  0
 19 20  1  0
 20 21  1  0
 21 22  1  0
 22 23  1  0
 23 24  1  0
 24 25  1  0
 15  8  1  0
 25 20  1  0
  1 26  1  0
  1 27  1  0
  1 28  1  0
  2 29  1  0
  2 30  1  0
  4 31  1  0
  4 32  1  0
  7 33  1  0
  9 34  1  0
 10 35  1  0
 11 36  1  0
 14 37  1  0
 14 38  1  0
 14 39  1  0
 15 40  1  0
 16 41  1  0
 16 42  1  0
 17 43  1  0
 18 44  1  0
 18 45  1  0
 18 46  1  0
 19 47  1  0
 19 48  1  0
 21 49  1  0
 21 50  1  0
 22 51  1  0
 22 52  1  0
 24 53  1  0
 24 54  1  0
 25 55  1  0
 25 56  1  0
M  END
$$$$
OCNT-2311596
     RDKit          3D

 57 62  0  0  0  0  0  0  0  0999 V2000
   -2.7621    2.6254   -2.1374 O   0  0  0  0  0  0  0  0  0  0  0  0
   -2.8234    1.4942   -1.6479 C   0  0  0  0  0  0  0  0  0  0  0  0
   -2.1856    0.4144   -2.4138 C   0  0  0  0  0  0  0  0  0  0  0  0
   -2.7449    0.1002   -3.6594 C   0  0  0  0  0  0  0  0  0  0  0  0
   -2.2039   -0.9372   -4.4023 C   0  0  0  0  0  0  0  0  0  0  0  0
   -1.1242   -1.6137   -3.8678 C   0  0  0  0  0  0  0  0  0  0  0  0
   -0.5549   -1.3139   -2.6773 N   0  0  0  0  0  0  0  0  0  0  0  0
   -1.0565   -0.2808   -1.9507 C   0  0  0  0  0  0  0  0  0  0  0  0
   -0.4213    0.0287   -0.7436 N   0  0  0  0  0  0  0  0  0  0  0  0
    0.3778   -1.0503   -0.1642 C   0  0  0  0  0  0  0  0  0  0  0  0
    0.8725   -0.6260    1.2143 C   0  0  0  0  0  0  0  0  0  0  0  0
    1.7312    0.6476    1.1400 C   0  0  0  0  0  0  0  0  0  0  0  0
    3.1833    0.3568    1.3888 C   0  0  0  0  0  0  0  0  0  0  0  0
    3.8895    0.7808    2.4171 N   0  0  0  0  0  0  0  0  0  0  0  0
    5.1527    0.2732    2.2380 C   0  0  0  0  0  0  0  0  0  0  0  0
    6.2984    0.4150    3.0334 C   0  0  0  0  0  0  0  0  0  0  0  0
    7.4819   -0.2126    2.6237 C   0  0  0  0  0  0  0  0  0  0  0  0
    7.5227   -0.9639    1.4466 C   0  0  0  0  0  0  0  0  0  0  0  0
    6.3886   -1.1156    0.6397 C   0  0  0  0  0  0  0  0  0  0  0  0
    5.2232   -0.4810    1.0732 C   0  0  0  0  0  0  0  0  0  0  0  0
    3.9574   -0.4138    0.5519 N   0  0  0  0  0  0  0  0  0  0  0  0
    1.5387    1.4230   -0.1708 C   0  0  0  0  0  0  0  0  0  0  0  0
    0.0809    1.4039   -0.6177 C   0  0  0  0  0  0  0  0  0  0  0  0
   -3.4303    1.2433   -0.4290 N   0  0  0  0  0  0  0  0  0  0  0  0
   -3.8676    2.3650    0.4107 C   0  0  0  0  0  0  0  0  0  0  0  0
   -4.1998    1.7901    1.7885 C   0  0  0  0  0  0  0  0  0  0  0  0
   -4.2946    0.3285    1.4850 C   0  0  0  0  0  0  0  0  0  0  0  0
   -4.7426   -0.6717    2.3359 C   0  0  0  0  0  0  0  0  0  0  0  0
   -4.7251   -1.9867    1.8757 C   0  0  0  0  0  0  0  0  0  0  0  0
   -4.2639   -2.2776    0.5859 C   0  0  0  0  0  0  0  0  0  0  0  0
   -3.8066   -1.2595   -0.2601 C   0  0  0  0  0  0  0  0  0  0  0  0
   -3.8118    0.0444    0.2025 C   0  0  0  0  0  0  0  0  0  0  0  0
   -3.5994    0.6587   -4.0329 H   0  0  0  0  0  0  0  0  0  0  0  0
   -2.6160   -1.2145   -5.3656 H   0  0  0  0  0  0  0  0  0  0  0  0
   -0.6661   -2.4421   -4.3998 H   0  0  0  0  0  0  0  0  0  0  0  0
   -0.2380   -1.9505   -0.0461 H   0  0  0  0  0  0  0  0  0  0  0  0
    1.2308   -1.3084   -0.8039 H   0  0  0  0  0  0  0  0  0  0  0  0
    1.4080   -1.4550    1.6921 H   0  0  0  0  0  0  0  0  0  0  0  0
   -0.0022   -0.4198    1.8467 H   0  0  0  0  0  0  0  0  0  0  0  0
    1.4005    1.2994    1.9617 H   0  0  0  0  0  0  0  0  0  0  0  0
    6.2578    1.0005    3.9445 H   0  0  0  0  0  0  0  0  0  0  0  0
    8.3776   -0.1117    3.2318 H   0  0  0  0  0  0  0  0  0  0  0  0
    8.4547   -1.4413    1.1504 H   0  0  0  0  0  0  0  0  0  0  0  0
    6.4213   -1.6986   -0.2734 H   0  0  0  0  0  0  0  0  0  0  0  0
    3.6496   -0.8485   -0.3057 H   0  0  0  0  0  0  0  0  0  0  0  0
    1.8751    2.4596   -0.0409 H   0  0  0  0  0  0  0  0  0  0  0  0
    2.1586    1.0019   -0.9739 H   0  0  0  0  0  0  0  0  0  0  0  0
   -0.5307    1.9352    0.1208 H   0  0  0  0  0  0  0  0  0  0  0  0
    0.0110    1.9584   -1.5617 H   0  0  0  0  0  0  0  0  0  0  0  0
   -4.7551    2.8064   -0.0596 H   0  0  0  0  0  0  0  0  0  0  0  0
   -3.0915    3.1359    0.4609 H   0  0  0  0  0  0  0  0  0  0  0  0
   -5.1319    2.2025    2.1853 H   0  0  0  0  0  0  0  0  0  0  0  0
   -3.3831    1.9704    2.4943 H   0  0  0  0  0  0  0  0  0  0  0  0
   -5.0949   -0.4416    3.3362 H   0  0  0  0  0  0  0  0  0  0  0  0
   -5.0720   -2.7914    2.5192 H   0  0  0  0  0  0  0  0  0  0  0  0
   -4.2626   -3.3069    0.2353 H   0  0  0  0  0  0  0  0  0  0  0  0
   -3.4813   -1.5290   -1.2546 H   0  0  0  0  0  0  0  0  0  0  0  0
  1  2  2  0
  2  3  1  0
  3  4  1  0
  4  5  2  0
  5  6  1  0
  6  7  2  0
  7  8  1  0
  8  9  1  0
  9 10  1  0
 10 11  1  0
 11 12  1  0
 12 13  1  0
 13 14  2  0
 14 15  1  0
 15 16  2  0
 16 17  1  0
 17 18  2  0
 18 19  1  0
 19 20  2  0
 20 21  1  0
 12 22  1  0
 22 23  1  0
  2 24  1  0
 24 25  1  0
 25 26  1  0
 26 27  1  0
 27 28  2  0
 28 29  1  0
 29 30  2  0
 30 31  1  0
 31 32  2  0
  8  3  2  0
 23  9  1  0
 32 24  1  0
 21 13  1  0
 32 27  1  0
 20 15  1  0
  4 33  1  0
  5 34  1  0
  6 35  1  0
 10 36  1  0
 10 37  1  0
 11 38  1  0
 11 39  1  0
 12 40  1  0
 16 41  1  0
 17 42  1  0
 18 43  1  0
 19 44  1  0
 21 45  1  0
 22 46  1  0
 22 47  1  0
 23 48  1  0
 23 49  1  0
 25 50  1  0
 25 51  1  0
 26 52  1  0
 26 53  1  0
 28 54  1  0
 29 55  1  0
 30 56  1  0
 31 57  1  0
M  END
$$$$
OCNT-2311600
     RDKit          3D

 41 43  0  0  0  0  0  0  0  0999 V2000
   -6.0863    1.7830    0.0210 C   0  0  0  0  0  0  0  0  0  0  0  0
   -4.7677    1.1117   -0.0436 C   0  0  0  0  0  0  0  0  0  0  0  0
   -4.0928    0.4991   -1.0825 C   0  0  0  0  0  0  0  0  0  0  0  0
   -4.5414    0.3399   -2.4897 C   0  0  0  0  0  0  0  0  0  0  0  0
   -2.8574    0.0396   -0.5103 C   0  0  0  0  0  0  0  0  0  0  0  0
   -1.7989   -0.7290   -1.2180 C   0  0  0  0  0  0  0  0  0  0  0  0
   -2.0676   -1.3342   -2.2595 O   0  0  0  0  0  0  0  0  0  0  0  0
   -0.4961   -0.7665   -0.6946 N   0  0  0  0  0  0  0  0  0  0  0  0
    0.4691   -1.6760   -1.3036 C   0  0  0  0  0  0  0  0  0  0  0  0
    1.4804   -2.1704   -0.2776 C   0  0  0  0  0  0  0  0  0  0  0  0
    2.2610   -1.0117    0.3630 C   0  0  0  0  0  0  0  0  0  0  0  0
    3.5155   -0.9135   -0.3335 O   0  0  0  0  0  0  0  0  0  0  0  0
    4.5453   -0.3411    0.3817 C   0  0  0  0  0  0  0  0  0  0  0  0
    5.7829   -0.2536   -0.2427 C   0  0  0  0  0  0  0  0  0  0  0  0
    6.8702    0.2952    0.3547 N   0  0  0  0  0  0  0  0  0  0  0  0
    6.6598    0.7538    1.6084 C   0  0  0  0  0  0  0  0  0  0  0  0
    5.4248    0.6687    2.2320 C   0  0  0  0  0  0  0  0  0  0  0  0
    4.3401    0.1213    1.6350 N   0  0  0  0  0  0  0  0  0  0  0  0
    1.5103    0.3224    0.2587 C   0  0  0  0  0  0  0  0  0  0  0  0
    0.0016    0.1355    0.3443 C   0  0  0  0  0  0  0  0  0  0  0  0
   -2.8076    0.3506    0.8009 N   0  0  0  0  0  0  0  0  0  0  0  0
   -3.9573    0.9898    1.0454 N   0  0  0  0  0  0  0  0  0  0  0  0
   -6.8737    1.1142   -0.3415 H   0  0  0  0  0  0  0  0  0  0  0  0
   -6.0852    2.6834   -0.6018 H   0  0  0  0  0  0  0  0  0  0  0  0
   -6.3401    2.0787    1.0442 H   0  0  0  0  0  0  0  0  0  0  0  0
   -4.7685   -0.7097   -2.7014 H   0  0  0  0  0  0  0  0  0  0  0  0
   -5.4433    0.9266   -2.6910 H   0  0  0  0  0  0  0  0  0  0  0  0
   -3.7654    0.6781   -3.1838 H   0  0  0  0  0  0  0  0  0  0  0  0
   -0.0507   -2.5332   -1.7455 H   0  0  0  0  0  0  0  0  0  0  0  0
    0.9672   -1.1385   -2.1192 H   0  0  0  0  0  0  0  0  0  0  0  0
    0.9336   -2.7041    0.5108 H   0  0  0  0  0  0  0  0  0  0  0  0
    2.1613   -2.8912   -0.7447 H   0  0  0  0  0  0  0  0  0  0  0  0
    2.4221   -1.2912    1.4128 H   0  0  0  0  0  0  0  0  0  0  0  0
    5.9312   -0.6262   -1.2496 H   0  0  0  0  0  0  0  0  0  0  0  0
    7.5166    1.1962    2.1039 H   0  0  0  0  0  0  0  0  0  0  0  0
    5.2744    1.0427    3.2384 H   0  0  0  0  0  0  0  0  0  0  0  0
    1.7651    0.8208   -0.6864 H   0  0  0  0  0  0  0  0  0  0  0  0
    1.8421    1.0020    1.0520 H   0  0  0  0  0  0  0  0  0  0  0  0
   -0.4767    1.1145    0.2428 H   0  0  0  0  0  0  0  0  0  0  0  0
   -0.2678   -0.2937    1.3159 H   0  0  0  0  0  0  0  0  0  0  0  0
   -4.1303    1.3163    1.9903 H   0  0  0  0  0  0  0  0  0  0  0  0
  1  2  1  0
  2  3  2  0
  3  4  1  0
  3  5  1  0
  5  6  1  0
  6  7  2  0
  6  8  1  0
  8  9  1  0
  9 10  1  0
 10 11  1  0
 11 12  1  0
 12 13  1  0
 13 14  2  0
 14 15  1  0
 15 16  2  0
 16 17  1  0
 17 18  2  0
 11 19  1  0
 19 20  1  0
  5 21  2  0
 21 22  1  0
 22  2  1  0
 20  8  1  0
 18 13  1  0
  1 23  1  0
  1 24  1  0
  1 25  1  0
  4 26  1  0
  4 27  1  0
  4 28  1  0
  9 29  1  0
  9 30  1  0
 10 31  1  0
 10 32  1  0
 11 33  1  0
 14 34  1  0
 16 35  1  0
 17 36  1  0
 19 37  1  0
 19 38  1  0
 20 39  1  0
 20 40  1  0
 22 41  1  0
M  END
$$$$
OCNT-2311604
     RDKit          3D

 50 53  0  0  0  0  0  0  0  0999 V2000
    4.5951   -2.6897   -0.9268 C   0  0  0  0  0  0  0  0  0  0  0  0
    4.6257   -1.4614    0.0002 C   0  0  0  0  0  0  0  0  0  0  0  0
    5.7463   -0.5261   -0.4537 C   0  0  0  0  0  0  0  0  0  0  0  0
    6.8290   -0.2831    0.2628 N   0  0  0  0  0  0  0  0  0  0  0  0
    7.6452    0.6061   -0.4068 C   0  0  0  0  0  0  0  0  0  0  0  0
    7.1823    1.0355   -1.6302 C   0  0  0  0  0  0  0  0  0  0  0  0
    5.6697    0.3069   -1.9655 S   0  0  0  0  0  0  0  0  0  0  0  0
    3.3182   -0.7648    0.1233 N   0  0  0  0  0  0  0  0  0  0  0  0
    2.1800   -1.6541    0.3981 C   0  0  0  0  0  0  0  0  0  0  0  0
    0.8464   -0.8798    0.4974 C   0  0  0  0  0  0  0  0  0  0  0  0
    0.9058    0.2822    1.3884 N   0  0  0  0  0  0  0  0  0  0  0  0
   -0.1127    1.2238    1.5660 C   0  0  0  0  0  0  0  0  0  0  0  0
    0.0505    2.2192    2.2787 O   0  0  0  0  0  0  0  0  0  0  0  0
   -1.4414    1.0853    0.8914 C   0  0  0  0  0  0  0  0  0  0  0  0
   -2.2819    2.1802    0.7911 C   0  0  0  0  0  0  0  0  0  0  0  0
   -3.5276    2.0231    0.1785 C   0  0  0  0  0  0  0  0  0  0  0  0
   -3.9220    0.7833   -0.3107 C   0  0  0  0  0  0  0  0  0  0  0  0
   -5.1341    0.5979   -0.9359 N   0  0  0  0  0  0  0  0  0  0  0  0
   -5.5148   -0.7444   -1.3622 C   0  0  0  0  0  0  0  0  0  0  0  0
   -6.9332   -0.5460   -1.8869 C   0  0  0  0  0  0  0  0  0  0  0  0
   -7.4917    0.5043   -0.9396 C   0  0  0  0  0  0  0  0  0  0  0  0
   -6.3031    1.4345   -0.6894 C   0  0  0  0  0  0  0  0  0  0  0  0
   -3.0613   -0.2532   -0.1930 N   0  0  0  0  0  0  0  0  0  0  0  0
   -1.8249   -0.1121    0.4182 N   0  0  0  0  0  0  0  0  0  0  0  0
    2.1818    0.4760    2.0690 C   0  0  0  0  0  0  0  0  0  0  0  0
    3.3811    0.3515    1.1047 C   0  0  0  0  0  0  0  0  0  0  0  0
    5.6044   -3.0887   -1.0837 H   0  0  0  0  0  0  0  0  0  0  0  0
    4.1796   -2.4462   -1.9112 H   0  0  0  0  0  0  0  0  0  0  0  0
    3.9975   -3.5001   -0.4964 H   0  0  0  0  0  0  0  0  0  0  0  0
    4.9071   -1.8360    0.9954 H   0  0  0  0  0  0  0  0  0  0  0  0
    8.5791    0.9125    0.0483 H   0  0  0  0  0  0  0  0  0  0  0  0
    7.6458    1.7229   -2.3225 H   0  0  0  0  0  0  0  0  0  0  0  0
    2.0558   -2.3889   -0.4045 H   0  0  0  0  0  0  0  0  0  0  0  0
    2.3518   -2.2108    1.3286 H   0  0  0  0  0  0  0  0  0  0  0  0
    0.5530   -0.5265   -0.4980 H   0  0  0  0  0  0  0  0  0  0  0  0
    0.0787   -1.5632    0.8741 H   0  0  0  0  0  0  0  0  0  0  0  0
   -1.9795    3.1489    1.1763 H   0  0  0  0  0  0  0  0  0  0  0  0
   -4.1726    2.8893    0.0809 H   0  0  0  0  0  0  0  0  0  0  0  0
   -5.5219   -1.4377   -0.5118 H   0  0  0  0  0  0  0  0  0  0  0  0
   -4.8561   -1.1353   -2.1450 H   0  0  0  0  0  0  0  0  0  0  0  0
   -6.9077   -0.1518   -2.9100 H   0  0  0  0  0  0  0  0  0  0  0  0
   -7.5148   -1.4719   -1.8867 H   0  0  0  0  0  0  0  0  0  0  0  0
   -8.3564    1.0326   -1.3508 H   0  0  0  0  0  0  0  0  0  0  0  0
   -7.7983    0.0305    0.0010 H   0  0  0  0  0  0  0  0  0  0  0  0
   -6.3473    1.8277    0.3325 H   0  0  0  0  0  0  0  0  0  0  0  0
   -6.3120    2.2716   -1.3963 H   0  0  0  0  0  0  0  0  0  0  0  0
    2.2461   -0.2966    2.8455 H   0  0  0  0  0  0  0  0  0  0  0  0
    2.2255    1.4439    2.5784 H   0  0  0  0  0  0  0  0  0  0  0  0
    4.2825    0.2988    1.7282 H   0  0  0  0  0  0  0  0  0  0  0  0
    3.4516    1.2796    0.5242 H   0  0  0  0  0  0  0  0  0  0  0  0
  1  2  1  0
  2  3  1  0
  3  4  2  0
  4  5  1  0
  5  6  2  0
  6  7  1  0
  2  8  1  0
  8  9  1  0
  9 10  1  0
 10 11  1  0
 11 12  1  0
 12 13  2  0
 12 14  1  0
 14 15  2  0
 15 16  1  0
 16 17  2  0
 17 18  1  0
 18 19  1  0
 19 20  1  0
 20 21  1  0
 21 22  1  0
 17 23  1  0
 23 24  2  0
 11 25  1  0
 25 26  1  0
  7  3  1  0
 26  8  1  0
 24 14  1  0
 22 18  1  0
  1 27  1  0
  1 28  1  0
  1 29  1  0
  2 30  1  0
  5 31  1  0
  6 32  1  0
  9 33  1  0
  9 34  1  0
 10 35  1  0
 10 36  1  0
 15 37  1  0
 16 38  1  0
 19 39  1  0
 19 40  1  0
 20 41  1  0
 20 42  1  0
 21 43  1  0
 21 44  1  0
 22 45  1  0
 22 46  1  0
 25 47  1  0
 25 48  1  0
 26 49  1  0
 26 50  1  0
M  END
$$$$
OCNT-2311606
     RDKit          3D

 51 54  0  0  0  0  0  0  0  0999 V2000
    4.2106    2.2365    1.5482 O   0  0  0  0  0  0  0  0  0  0  0  0
    3.9056    1.2338    0.9035 C   0  0  0  0  0  0  0  0  0  0  0  0
    4.9997    0.4671    0.2645 C   0  0  0  0  0  0  0  0  0  0  0  0
    5.1860   -0.8890    0.5620 C   0  0  0  0  0  0  0  0  0  0  0  0
    6.2353   -1.5921   -0.0377 C   0  0  0  0  0  0  0  0  0  0  0  0
    7.0986   -0.9373   -0.9214 C   0  0  0  0  0  0  0  0  0  0  0  0
    6.9215    0.4204   -1.2024 C   0  0  0  0  0  0  0  0  0  0  0  0
    5.8772    1.1287   -0.6013 C   0  0  0  0  0  0  0  0  0  0  0  0
    2.5947    0.7811    0.7484 N   0  0  0  0  0  0  0  0  0  0  0  0
    2.1776   -0.1667   -0.2888 C   0  0  0  0  0  0  0  0  0  0  0  0
    0.7533    0.1059   -0.7596 C   0  0  0  0  0  0  0  0  0  0  0  0
   -0.2442   -0.0027    0.4078 C   0  0  0  0  0  0  0  0  0  0  0  0
   -1.5051    0.6438    0.0110 N   0  0  0  0  0  0  0  0  0  0  0  0
   -2.6816    0.1925    0.7781 C   0  0  0  0  0  0  0  0  0  0  0  0
   -3.7733    1.2769    0.6535 C   0  0  0  0  0  0  0  0  0  0  0  0
   -4.6393    1.1361   -0.6020 C   0  0  0  0  0  0  0  0  0  0  0  0
   -5.0313   -0.3211   -0.8895 C   0  0  0  0  0  0  0  0  0  0  0  0
   -5.6547   -0.9999    0.3402 C   0  0  0  0  0  0  0  0  0  0  0  0
   -4.4696   -1.5975    1.1153 C   0  0  0  0  0  0  0  0  0  0  0  0
   -3.2134   -1.1953    0.3169 C   0  0  0  0  0  0  0  0  0  0  0  0
   -3.7674   -1.1448   -1.1086 C   0  0  0  0  0  0  0  0  0  0  0  0
    0.3287    0.6014    1.7074 C   0  0  0  0  0  0  0  0  0  0  0  0
    1.5364    1.4955    1.4594 C   0  0  0  0  0  0  0  0  0  0  0  0
    4.5302   -1.3897    1.2685 H   0  0  0  0  0  0  0  0  0  0  0  0
    6.3889   -2.6456    0.1918 H   0  0  0  0  0  0  0  0  0  0  0  0
    7.9185   -1.4868   -1.3844 H   0  0  0  0  0  0  0  0  0  0  0  0
    7.6045    0.9288   -1.8806 H   0  0  0  0  0  0  0  0  0  0  0  0
    5.7502    2.1885   -0.7985 H   0  0  0  0  0  0  0  0  0  0  0  0
    2.2469   -1.1733    0.1394 H   0  0  0  0  0  0  0  0  0  0  0  0
    2.8600   -0.1117   -1.1438 H   0  0  0  0  0  0  0  0  0  0  0  0
    0.4788   -0.6023   -1.5511 H   0  0  0  0  0  0  0  0  0  0  0  0
    0.7140    1.1083   -1.2073 H   0  0  0  0  0  0  0  0  0  0  0  0
   -0.4173   -1.0729    0.5803 H   0  0  0  0  0  0  0  0  0  0  0  0
   -1.6742    0.5321   -0.9907 H   0  0  0  0  0  0  0  0  0  0  0  0
   -2.4146    0.1317    1.8395 H   0  0  0  0  0  0  0  0  0  0  0  0
   -4.4245    1.2184    1.5368 H   0  0  0  0  0  0  0  0  0  0  0  0
   -3.3369    2.2820    0.6901 H   0  0  0  0  0  0  0  0  0  0  0  0
   -5.5415    1.7471   -0.4826 H   0  0  0  0  0  0  0  0  0  0  0  0
   -4.0968    1.5396   -1.4668 H   0  0  0  0  0  0  0  0  0  0  0  0
   -5.6993   -0.3617   -1.7534 H   0  0  0  0  0  0  0  0  0  0  0  0
   -6.2428   -0.3107    0.9554 H   0  0  0  0  0  0  0  0  0  0  0  0
   -6.3261   -1.8051    0.0253 H   0  0  0  0  0  0  0  0  0  0  0  0
   -4.4401   -1.2584    2.1573 H   0  0  0  0  0  0  0  0  0  0  0  0
   -4.5659   -2.6894    1.1328 H   0  0  0  0  0  0  0  0  0  0  0  0
   -2.4369   -1.9603    0.4181 H   0  0  0  0  0  0  0  0  0  0  0  0
   -3.0884   -0.7052   -1.8438 H   0  0  0  0  0  0  0  0  0  0  0  0
   -4.0190   -2.1539   -1.4575 H   0  0  0  0  0  0  0  0  0  0  0  0
    0.6324   -0.2255    2.3649 H   0  0  0  0  0  0  0  0  0  0  0  0
   -0.4268    1.1659    2.2675 H   0  0  0  0  0  0  0  0  0  0  0  0
    1.2601    2.3693    0.8576 H   0  0  0  0  0  0  0  0  0  0  0  0
    1.9215    1.8672    2.4157 H   0  0  0  0  0  0  0  0  0  0  0  0
  1  2  2  0
  2  3  1  0
  3  4  2  0
  4  5  1  0
  5  6  2  0
  6  7  1  0
  7  8  2  0
  2  9  1  0
  9 10  1  0
 10 11  1  0
 11 12  1  0
 12 13  1  0
 13 14  1  0
 14 15  1  0
 15 16  1  0
 16 17  1  0
 17 18  1  0
 18 19  1  0
 19 20  1  0
 20 21  1  0
 12 22  1  0
 22 23  1  0
  8  3  1  0
 23  9  1  0
 20 14  1  0
 21 17  1  0
  4 24  1  0
  5 25  1  0
  6 26  1  0
  7 27  1  0
  8 28  1  0
 10 29  1  0
 10 30  1  0
 11 31  1  0
 11 32  1  0
 12 33  1  0
 13 34  1  0
 14 35  1  0
 15 36  1  0
 15 37  1  0
 16 38  1  0
 16 39  1  0
 17 40  1  0
 18 41  1  0
 18 42  1  0
 19 43  1  0
 19 44  1  0
 20 45  1  0
 21 46  1  0
 21 47  1  0
 22 48  1  0
 22 49  1  0
 23 50  1  0
 23 51  1  0
M  END
$$$$
OCNT-2311610
     RDKit          3D

 45 48  0  0  0  0  0  0  0  0999 V2000
    3.6588   -1.4503   -1.2008 O   0  0  0  0  0  0  0  0  0  0  0  0
    3.2099   -0.6839   -0.3468 C   0  0  0  0  0  0  0  0  0  0  0  0
    4.1153    0.1182    0.5854 C   0  0  0  0  0  0  0  0  0  0  0  0
    5.5091    0.2131    0.0517 C   0  0  0  0  0  0  0  0  0  0  0  0
    6.5532   -0.6849    0.1666 C   0  0  0  0  0  0  0  0  0  0  0  0
    7.7473   -0.2976   -0.4101 N   0  0  0  0  0  0  0  0  0  0  0  0
    7.5880    0.8736   -0.9848 C   0  0  0  0  0  0  0  0  0  0  0  0
    6.0339    1.5836   -0.8403 S   0  0  0  0  0  0  0  0  0  0  0  0
    1.8350   -0.5269   -0.1703 N   0  0  0  0  0  0  0  0  0  0  0  0
    1.2166    0.2385    0.9143 C   0  0  0  0  0  0  0  0  0  0  0  0
   -0.1464   -0.3310    1.2906 C   0  0  0  0  0  0  0  0  0  0  0  0
   -1.1334   -0.3074    0.0979 C   0  0  0  0  0  0  0  0  0  0  0  0
   -0.3741   -0.4246   -1.2504 C   0  0  0  0  0  0  0  0  0  0  0  0
    0.9343   -1.1893   -1.1111 C   0  0  0  0  0  0  0  0  0  0  0  0
   -2.1316   -1.5088    0.2197 C   0  0  0  0  0  0  0  0  0  0  0  0
   -2.9543   -1.5957    1.4391 N   0  0  0  0  0  0  0  0  0  0  0  0
   -3.5586   -0.3195    1.8264 C   0  0  0  0  0  0  0  0  0  0  0  0
   -4.0124    0.5079    0.6580 C   0  0  0  0  0  0  0  0  0  0  0  0
   -5.3719    0.6697    0.3609 C   0  0  0  0  0  0  0  0  0  0  0  0
   -5.7665    1.4590   -0.7214 C   0  0  0  0  0  0  0  0  0  0  0  0
   -4.8084    2.0952   -1.5103 C   0  0  0  0  0  0  0  0  0  0  0  0
   -3.4531    1.9335   -1.2264 C   0  0  0  0  0  0  0  0  0  0  0  0
   -3.0596    1.1227   -0.1640 C   0  0  0  0  0  0  0  0  0  0  0  0
   -1.7212    1.0233    0.0852 O   0  0  0  0  0  0  0  0  0  0  0  0
    4.1303   -0.3847    1.5592 H   0  0  0  0  0  0  0  0  0  0  0  0
    3.7061    1.1247    0.7255 H   0  0  0  0  0  0  0  0  0  0  0  0
    6.4987   -1.6441    0.6677 H   0  0  0  0  0  0  0  0  0  0  0  0
    8.3894    1.3694   -1.5164 H   0  0  0  0  0  0  0  0  0  0  0  0
    1.8654    0.2269    1.7948 H   0  0  0  0  0  0  0  0  0  0  0  0
    1.1289    1.2776    0.5771 H   0  0  0  0  0  0  0  0  0  0  0  0
    0.0029   -1.3604    1.6419 H   0  0  0  0  0  0  0  0  0  0  0  0
   -0.5447    0.2456    2.1331 H   0  0  0  0  0  0  0  0  0  0  0  0
   -0.1533    0.5774   -1.6443 H   0  0  0  0  0  0  0  0  0  0  0  0
   -1.0055   -0.9028   -2.0088 H   0  0  0  0  0  0  0  0  0  0  0  0
    1.4168   -1.2741   -2.0911 H   0  0  0  0  0  0  0  0  0  0  0  0
    0.7604   -2.2068   -0.7426 H   0  0  0  0  0  0  0  0  0  0  0  0
   -2.8030   -1.5215   -0.6500 H   0  0  0  0  0  0  0  0  0  0  0  0
   -1.5647   -2.4463    0.1573 H   0  0  0  0  0  0  0  0  0  0  0  0
   -3.7030   -2.2661    1.2640 H   0  0  0  0  0  0  0  0  0  0  0  0
   -4.4025   -0.5248    2.4965 H   0  0  0  0  0  0  0  0  0  0  0  0
   -2.8552    0.2621    2.4337 H   0  0  0  0  0  0  0  0  0  0  0  0
   -6.1310    0.1899    0.9741 H   0  0  0  0  0  0  0  0  0  0  0  0
   -6.8231    1.5860   -0.9441 H   0  0  0  0  0  0  0  0  0  0  0  0
   -5.1175    2.7200   -2.3443 H   0  0  0  0  0  0  0  0  0  0  0  0
   -2.7052    2.4337   -1.8350 H   0  0  0  0  0  0  0  0  0  0  0  0
  1  2  2  0
  2  3  1  0
  3  4  1  0
  4  5  2  0
  5  6  1  0
  6  7  2  0
  7  8  1  0
  2  9  1  0
  9 10  1  0
 10 11  1  0
 11 12  1  0
 12 13  1  0
 13 14  1  0
 12 15  1  0
 15 16  1  0
 16 17  1  0
 17 18  1  0
 18 19  2  0
 19 20  1  0
 20 21  2  0
 21 22  1  0
 22 23  2  0
 23 24  1  0
  8  4  1  0
 14  9  1  0
 23 18  1  0
 24 12  1  0
  3 25  1  0
  3 26  1  0
  5 27  1  0
  7 28  1  0
 10 29  1  0
 10 30  1  0
 11 31  1  0
 11 32  1  0
 13 33  1  0
 13 34  1  0
 14 35  1  0
 14 36  1  0
 15 37  1  0
 15 38  1  0
 16 39  1  0
 17 40  1  0
 17 41  1  0
 19 42  1  0
 20 43  1  0
 21 44  1  0
 22 45  1  0
M  END
$$$$
OCNT-2311617
     RDKit          3D

 48 51  0  0  0  0  0  0  0  0999 V2000
    5.2137    0.2844    0.3071 C   0  0  0  0  0  0  0  0  0  0  0  0
    4.1404    0.2026    1.2948 N   0  0  0  0  0  0  0  0  0  0  0  0
    3.4639   -1.0973    1.2773 C   0  0  0  0  0  0  0  0  0  0  0  0
    2.5328   -1.3033    0.0766 C   0  0  0  0  0  0  0  0  0  0  0  0
    1.4730   -0.1812   -0.0858 C   0  0  0  0  0  0  0  0  0  0  0  0
    2.2325    1.1804   -0.0232 C   0  0  0  0  0  0  0  0  0  0  0  0
    3.1839    1.3046    1.1737 C   0  0  0  0  0  0  0  0  0  0  0  0
    0.4245   -0.2728    1.0584 C   0  0  0  0  0  0  0  0  0  0  0  0
   -0.7728    0.6575    0.8707 C   0  0  0  0  0  0  0  0  0  0  0  0
   -1.3887    0.4603   -0.4444 N   0  0  0  0  0  0  0  0  0  0  0  0
   -2.7153    0.8442   -0.6121 C   0  0  0  0  0  0  0  0  0  0  0  0
   -3.0274    1.7662   -1.4786 N   0  0  0  0  0  0  0  0  0  0  0  0
   -4.3367    2.1547   -1.6141 C   0  0  0  0  0  0  0  0  0  0  0  0
   -5.3633    1.6978   -0.9679 N   0  0  0  0  0  0  0  0  0  0  0  0
   -5.0552    0.7272   -0.0963 N   0  0  0  0  0  0  0  0  0  0  0  0
   -5.9444    0.0488    0.6929 C   0  0  0  0  0  0  0  0  0  0  0  0
   -5.2317   -0.8959    1.3870 C   0  0  0  0  0  0  0  0  0  0  0  0
   -5.9053   -2.1466    2.6052 Br  0  0  0  0  0  0  0  0  0  0  0  0
   -3.8751   -0.7896    1.0261 C   0  0  0  0  0  0  0  0  0  0  0  0
   -3.7959    0.2526    0.1223 C   0  0  0  0  0  0  0  0  0  0  0  0
   -0.4607    0.6652   -1.5592 C   0  0  0  0  0  0  0  0  0  0  0  0
    0.7475   -0.2909   -1.4762 C   0  0  0  0  0  0  0  0  0  0  0  0
    0.3442   -1.7139   -1.9256 C   0  0  0  0  0  0  0  0  0  0  0  0
   -0.4084   -2.4183   -0.9550 O   0  0  0  0  0  0  0  0  0  0  0  0
    5.7515    1.2340    0.4059 H   0  0  0  0  0  0  0  0  0  0  0  0
    5.9518   -0.5072    0.4787 H   0  0  0  0  0  0  0  0  0  0  0  0
    4.8604    0.2008   -0.7253 H   0  0  0  0  0  0  0  0  0  0  0  0
    4.2044   -1.9066    1.3064 H   0  0  0  0  0  0  0  0  0  0  0  0
    2.8910   -1.2049    2.2066 H   0  0  0  0  0  0  0  0  0  0  0  0
    2.0450   -2.2787    0.1909 H   0  0  0  0  0  0  0  0  0  0  0  0
    3.1383   -1.3690   -0.8366 H   0  0  0  0  0  0  0  0  0  0  0  0
    2.8156    1.3130   -0.9441 H   0  0  0  0  0  0  0  0  0  0  0  0
    1.5339    2.0232    0.0054 H   0  0  0  0  0  0  0  0  0  0  0  0
    3.7182    2.2614    1.1146 H   0  0  0  0  0  0  0  0  0  0  0  0
    2.6017    1.3656    2.1009 H   0  0  0  0  0  0  0  0  0  0  0  0
    0.8785   -0.0523    2.0303 H   0  0  0  0  0  0  0  0  0  0  0  0
    0.0547   -1.3010    1.1438 H   0  0  0  0  0  0  0  0  0  0  0  0
   -1.4847    0.4634    1.6796 H   0  0  0  0  0  0  0  0  0  0  0  0
   -0.4714    1.7059    0.9803 H   0  0  0  0  0  0  0  0  0  0  0  0
   -4.5175    2.9503   -2.3568 H   0  0  0  0  0  0  0  0  0  0  0  0
   -6.9960    0.2938    0.6704 H   0  0  0  0  0  0  0  0  0  0  0  0
   -3.0475   -1.3963    1.3697 H   0  0  0  0  0  0  0  0  0  0  0  0
   -0.1215    1.7084   -1.5668 H   0  0  0  0  0  0  0  0  0  0  0  0
   -0.9732    0.5026   -2.5163 H   0  0  0  0  0  0  0  0  0  0  0  0
    1.4522    0.0488   -2.2494 H   0  0  0  0  0  0  0  0  0  0  0  0
   -0.2431   -1.6662   -2.8497 H   0  0  0  0  0  0  0  0  0  0  0  0
    1.2387   -2.3054   -2.1477 H   0  0  0  0  0  0  0  0  0  0  0  0
   -0.7565   -3.2200   -1.3812 H   0  0  0  0  0  0  0  0  0  0  0  0
  1  2  1  0
  2  3  1  0
  3  4  1  0
  4  5  1  0
  5  6  1  0
  6  7  1  0
  5  8  1  0
  8  9  1  0
  9 10  1  0
 10 11  1  0
 11 12  2  0
 12 13  1  0
 13 14  2  0
 14 15  1  0
 15 16  1  0
 16 17  2  0
 17 18  1  0
 17 19  1  0
 19 20  2  0
 10 21  1  0
 21 22  1  0
 22 23  1  0
 23 24  1  0
  7  2  1  0
 20 11  1  0
 22  5  1  0
 20 15  1  0
  1 25  1  0
  1 26  1  0
  1 27  1  0
  3 28  1  0
  3 29  1  0
  4 30  1  0
  4 31  1  0
  6 32  1  0
  6 33  1  0
  7 34  1  0
  7 35  1  0
  8 36  1  0
  8 37  1  0
  9 38  1  0
  9 39  1  0
 13 40  1  0
 16 41  1  0
 19 42  1  0
 21 43  1  0
 21 44  1  0
 22 45  1  0
 23 46  1  0
 23 47  1  0
 24 48  1  0
M  END
$$$$
OCNT-2311621
     RDKit          3D

 45 48  0  0  0  0  0  0  0  0999 V2000
    7.3355    1.9015    1.9170 C   0  0  0  0  0  0  0  0  0  0  0  0
    6.4685    0.8769    2.3875 O   0  0  0  0  0  0  0  0  0  0  0  0
    5.4056    0.5487    1.5946 C   0  0  0  0  0  0  0  0  0  0  0  0
    4.5850   -0.4547    2.1047 C   0  0  0  0  0  0  0  0  0  0  0  0
    3.4612   -0.8856    1.3924 C   0  0  0  0  0  0  0  0  0  0  0  0
    3.1270   -0.3355    0.1653 C   0  0  0  0  0  0  0  0  0  0  0  0
    2.0375   -0.7831   -0.4804 N   0  0  0  0  0  0  0  0  0  0  0  0
    1.7440   -0.2159   -1.6851 C   0  0  0  0  0  0  0  0  0  0  0  0
    0.5183   -0.7351   -2.3745 C   0  0  0  0  0  0  0  0  0  0  0  0
    0.1420   -0.2796   -3.4481 O   0  0  0  0  0  0  0  0  0  0  0  0
   -0.1298   -1.7391   -1.6893 N   0  0  0  0  0  0  0  0  0  0  0  0
   -1.4021   -2.2711   -2.1016 C   0  0  0  0  0  0  0  0  0  0  0  0
   -2.5294   -1.5960   -1.3651 C   0  0  0  0  0  0  0  0  0  0  0  0
   -3.0653   -2.1523   -0.1995 C   0  0  0  0  0  0  0  0  0  0  0  0
   -4.0972   -1.5057    0.4944 C   0  0  0  0  0  0  0  0  0  0  0  0
   -4.6118   -0.2794    0.0391 C   0  0  0  0  0  0  0  0  0  0  0  0
   -5.6620    0.3693    0.7540 N   0  0  0  0  0  0  0  0  0  0  0  0
   -6.2895    1.5621    0.4612 C   0  0  0  0  0  0  0  0  0  0  0  0
   -7.2311    1.7620    1.4423 C   0  0  0  0  0  0  0  0  0  0  0  0
   -7.2174    0.7378    2.3399 N   0  0  0  0  0  0  0  0  0  0  0  0
   -6.2780   -0.0753    1.9092 C   0  0  0  0  0  0  0  0  0  0  0  0
   -4.0610    0.2744   -1.1227 C   0  0  0  0  0  0  0  0  0  0  0  0
   -4.4817    1.4417   -1.6271 F   0  0  0  0  0  0  0  0  0  0  0  0
   -3.0339   -0.3710   -1.8138 C   0  0  0  0  0  0  0  0  0  0  0  0
    2.4952    0.7863   -2.2763 C   0  0  0  0  0  0  0  0  0  0  0  0
    3.6195    1.2394   -1.5968 C   0  0  0  0  0  0  0  0  0  0  0  0
    3.9576    0.6825   -0.3552 C   0  0  0  0  0  0  0  0  0  0  0  0
    5.0897    1.1171    0.3621 C   0  0  0  0  0  0  0  0  0  0  0  0
    6.8023    2.8521    1.8122 H   0  0  0  0  0  0  0  0  0  0  0  0
    7.8153    1.6109    0.9765 H   0  0  0  0  0  0  0  0  0  0  0  0
    8.1232    2.0419    2.6634 H   0  0  0  0  0  0  0  0  0  0  0  0
    4.8185   -0.9078    3.0654 H   0  0  0  0  0  0  0  0  0  0  0  0
    2.8359   -1.6700    1.8113 H   0  0  0  0  0  0  0  0  0  0  0  0
    0.2354   -1.9525   -0.7653 H   0  0  0  0  0  0  0  0  0  0  0  0
   -1.3941   -3.3454   -1.8875 H   0  0  0  0  0  0  0  0  0  0  0  0
   -1.5337   -2.1561   -3.1835 H   0  0  0  0  0  0  0  0  0  0  0  0
   -2.6822   -3.0974    0.1822 H   0  0  0  0  0  0  0  0  0  0  0  0
   -4.4669   -1.9971    1.3894 H   0  0  0  0  0  0  0  0  0  0  0  0
   -6.0412    2.1733   -0.3917 H   0  0  0  0  0  0  0  0  0  0  0  0
   -7.9163    2.5940    1.5427 H   0  0  0  0  0  0  0  0  0  0  0  0
   -6.0143   -0.9966    2.4072 H   0  0  0  0  0  0  0  0  0  0  0  0
   -2.6251    0.0996   -2.7063 H   0  0  0  0  0  0  0  0  0  0  0  0
    2.2134    1.2037   -3.2375 H   0  0  0  0  0  0  0  0  0  0  0  0
    4.2262    2.0259   -2.0394 H   0  0  0  0  0  0  0  0  0  0  0  0
    5.7073    1.9009   -0.0649 H   0  0  0  0  0  0  0  0  0  0  0  0
  1  2  1  0
  2  3  1  0
  3  4  2  0
  4  5  1  0
  5  6  2  0
  6  7  1  0
  7  8  2  0
  8  9  1  0
  9 10  2  0
  9 11  1  0
 11 12  1  0
 12 13  1  0
 13 14  1  0
 14 15  2  0
 15 16  1  0
 16 17  1  0
 17 18  1  0
 18 19  2  0
 19 20  1  0
 20 21  2  0
 16 22  2  0
 22 23  1  0
 22 24  1  0
  8 25  1  0
 25 26  2  0
 26 27  1  0
 27 28  2  0
 28  3  1  0
 27  6  1  0
 24 13  2  0
 21 17  1  0
  1 29  1  0
  1 30  1  0
  1 31  1  0
  4 32  1  0
  5 33  1  0
 11 34  1  0
 12 35  1  0
 12 36  1  0
 14 37  1  0
 15 38  1  0
 18 39  1  0
 19 40  1  0
 21 41  1  0
 24 42  1  0
 25 43  1  0
 26 44  1  0
 28 45  1  0
M  END
$$$$
OCNT-2311623
     RDKit          3D

 54 57  0  0  0  0  0  0  0  0999 V2000
    0.9527   -1.8305   -1.7606 O   0  0  0  0  0  0  0  0  0  0  0  0
    1.4343   -1.0425   -0.9449 C   0  0  0  0  0  0  0  0  0  0  0  0
    0.7116   -0.6657    0.3464 C   0  0  0  0  0  0  0  0  0  0  0  0
   -0.7673   -0.9773    0.3456 C   0  0  0  0  0  0  0  0  0  0  0  0
   -1.2302   -2.2437    0.7210 C   0  0  0  0  0  0  0  0  0  0  0  0
   -2.5970   -2.5217    0.7198 C   0  0  0  0  0  0  0  0  0  0  0  0
   -3.5155   -1.5435    0.3316 C   0  0  0  0  0  0  0  0  0  0  0  0
   -3.0683   -0.2859   -0.0705 C   0  0  0  0  0  0  0  0  0  0  0  0
   -3.8627    0.7561   -0.4645 O   0  0  0  0  0  0  0  0  0  0  0  0
   -5.1691    0.4415   -0.9564 C   0  0  0  0  0  0  0  0  0  0  0  0
   -6.2360    0.4600    0.1163 C   0  0  0  0  0  0  0  0  0  0  0  0
   -7.3924   -0.3195   -0.0392 C   0  0  0  0  0  0  0  0  0  0  0  0
   -8.4012   -0.2944    0.9256 C   0  0  0  0  0  0  0  0  0  0  0  0
   -8.2708    0.5173    2.0505 C   0  0  0  0  0  0  0  0  0  0  0  0
   -7.1345    1.3076    2.2095 C   0  0  0  0  0  0  0  0  0  0  0  0
   -6.1253    1.2840    1.2453 C   0  0  0  0  0  0  0  0  0  0  0  0
   -1.6986   -0.0057   -0.0509 C   0  0  0  0  0  0  0  0  0  0  0  0
    2.6872   -0.4640   -1.1507 N   0  0  0  0  0  0  0  0  0  0  0  0
    3.3682   -0.7135   -2.4199 C   0  0  0  0  0  0  0  0  0  0  0  0
    4.2625    0.4550   -2.8154 C   0  0  0  0  0  0  0  0  0  0  0  0
    5.3252    0.7586   -1.7577 C   0  0  0  0  0  0  0  0  0  0  0  0
    4.9114    0.3212   -0.3421 C   0  0  0  0  0  0  0  0  0  0  0  0
    5.6112    1.1402    0.7167 C   0  0  0  0  0  0  0  0  0  0  0  0
    5.2178    2.5186    0.7783 O   0  0  0  0  0  0  0  0  0  0  0  0
    5.9388    0.5194    2.0485 C   0  0  0  0  0  0  0  0  0  0  0  0
    7.0423    0.8508    1.0835 C   0  0  0  0  0  0  0  0  0  0  0  0
    3.3868    0.3678   -0.1643 C   0  0  0  0  0  0  0  0  0  0  0  0
    1.1906   -1.2000    1.1758 H   0  0  0  0  0  0  0  0  0  0  0  0
    0.8339    0.4071    0.5359 H   0  0  0  0  0  0  0  0  0  0  0  0
   -0.5286   -3.0223    1.0116 H   0  0  0  0  0  0  0  0  0  0  0  0
   -2.9492   -3.5044    1.0226 H   0  0  0  0  0  0  0  0  0  0  0  0
   -4.5709   -1.7906    0.3673 H   0  0  0  0  0  0  0  0  0  0  0  0
   -5.4236    1.2233   -1.6823 H   0  0  0  0  0  0  0  0  0  0  0  0
   -5.1658   -0.5038   -1.5145 H   0  0  0  0  0  0  0  0  0  0  0  0
   -7.5141   -0.9541   -0.9144 H   0  0  0  0  0  0  0  0  0  0  0  0
   -9.2903   -0.9065    0.7982 H   0  0  0  0  0  0  0  0  0  0  0  0
   -9.0558    0.5369    2.8017 H   0  0  0  0  0  0  0  0  0  0  0  0
   -7.0323    1.9446    3.0841 H   0  0  0  0  0  0  0  0  0  0  0  0
   -5.2454    1.9097    1.3825 H   0  0  0  0  0  0  0  0  0  0  0  0
   -1.3604    0.9811   -0.3588 H   0  0  0  0  0  0  0  0  0  0  0  0
    2.6334   -0.8980   -3.2111 H   0  0  0  0  0  0  0  0  0  0  0  0
    3.9595   -1.6291   -2.3002 H   0  0  0  0  0  0  0  0  0  0  0  0
    4.7451    0.2567   -3.7789 H   0  0  0  0  0  0  0  0  0  0  0  0
    3.6387    1.3476   -2.9539 H   0  0  0  0  0  0  0  0  0  0  0  0
    6.2590    0.2446   -2.0203 H   0  0  0  0  0  0  0  0  0  0  0  0
    5.5587    1.8295   -1.7964 H   0  0  0  0  0  0  0  0  0  0  0  0
    5.2173   -0.7294   -0.2293 H   0  0  0  0  0  0  0  0  0  0  0  0
    5.8068    3.0798    0.2439 H   0  0  0  0  0  0  0  0  0  0  0  0
    5.8343    1.1357    2.9345 H   0  0  0  0  0  0  0  0  0  0  0  0
    5.7039   -0.5260    2.2107 H   0  0  0  0  0  0  0  0  0  0  0  0
    7.6925    1.6815    1.3321 H   0  0  0  0  0  0  0  0  0  0  0  0
    7.5488    0.0265    0.5946 H   0  0  0  0  0  0  0  0  0  0  0  0
    3.0087    1.3904   -0.2837 H   0  0  0  0  0  0  0  0  0  0  0  0
    3.1244    0.0401    0.8466 H   0  0  0  0  0  0  0  0  0  0  0  0
  1  2  2  0
  2  3  1  0
  3  4  1  0
  4  5  2  0
  5  6  1  0
  6  7  2  0
  7  8  1  0
  8  9  1  0
  9 10  1  0
 10 11  1  0
 11 12  2  0
 12 13  1  0
 13 14  2  0
 14 15  1  0
 15 16  2  0
  8 17  2  0
  2 18  1  0
 18 19  1  0
 19 20  1  0
 20 21  1  0
 21 22  1  0
 22 23  1  0
 23 24  1  0
 23 25  1  0
 25 26  1  0
 22 27  1  0
 17  4  1  0
 27 18  1  0
 16 11  1  0
 26 23  1  0
  3 28  1  0
  3 29  1  0
  5 30  1  0
  6 31  1  0
  7 32  1  0
 10 33  1  0
 10 34  1  0
 12 35  1  0
 13 36  1  0
 14 37  1  0
 15 38  1  0
 16 39  1  0
 17 40  1  0
 19 41  1  0
 19 42  1  0
 20 43  1  0
 20 44  1  0
 21 45  1  0
 21 46  1  0
 22 47  1  0
 24 48  1  0
 25 49  1  0
 25 50  1  0
 26 51  1  0
 26 52  1  0
 27 53  1  0
 27 54  1  0
M  END
$$$$
OCNT-2311624
     RDKit          3D

 48 50  0  0  0  0  0  0  0  0999 V2000
   -6.7531    0.3511    1.2423 C   0  0  0  0  0  0  0  0  0  0  0  0
   -5.9757    0.4363    0.0309 N   0  0  0  0  0  0  0  0  0  0  0  0
   -5.1042   -0.4929   -0.4520 C   0  0  0  0  0  0  0  0  0  0  0  0
   -4.5983    0.0193   -1.6285 C   0  0  0  0  0  0  0  0  0  0  0  0
   -3.6009   -0.6014   -2.5477 C   0  0  0  0  0  0  0  0  0  0  0  0
   -2.1579   -0.2860   -2.1541 C   0  0  0  0  0  0  0  0  0  0  0  0
   -1.6510   -1.1408   -0.9999 C   0  0  0  0  0  0  0  0  0  0  0  0
   -2.2299   -2.1719   -0.6558 O   0  0  0  0  0  0  0  0  0  0  0  0
   -0.4758   -0.7202   -0.3831 N   0  0  0  0  0  0  0  0  0  0  0  0
    0.0053   -1.4619    0.7810 C   0  0  0  0  0  0  0  0  0  0  0  0
    0.7140   -0.5458    1.7732 C   0  0  0  0  0  0  0  0  0  0  0  0
    1.9157    0.1909    1.1464 C   0  0  0  0  0  0  0  0  0  0  0  0
    3.2423   -0.4917    1.5431 C   0  0  0  0  0  0  0  0  0  0  0  0
    4.4709    0.2713    1.1080 C   0  0  0  0  0  0  0  0  0  0  0  0
    5.2712   -0.2014    0.0567 C   0  0  0  0  0  0  0  0  0  0  0  0
    6.4041    0.5084   -0.3512 C   0  0  0  0  0  0  0  0  0  0  0  0
    6.7483    1.6973    0.2885 C   0  0  0  0  0  0  0  0  0  0  0  0
    5.9580    2.1653    1.3309 C   0  0  0  0  0  0  0  0  0  0  0  0
    6.2883    3.3081    1.9469 F   0  0  0  0  0  0  0  0  0  0  0  0
    4.8282    1.4670    1.7454 C   0  0  0  0  0  0  0  0  0  0  0  0
    1.7757    0.3078   -0.3841 C   0  0  0  0  0  0  0  0  0  0  0  0
    0.3193    0.4286   -0.8186 C   0  0  0  0  0  0  0  0  0  0  0  0
   -5.2443    1.2701   -1.7593 C   0  0  0  0  0  0  0  0  0  0  0  0
   -6.0761    1.5289   -0.7479 N   0  0  0  0  0  0  0  0  0  0  0  0
   -6.4723    1.1840    1.8916 H   0  0  0  0  0  0  0  0  0  0  0  0
   -6.5455   -0.5981    1.7424 H   0  0  0  0  0  0  0  0  0  0  0  0
   -7.8118    0.4094    0.9775 H   0  0  0  0  0  0  0  0  0  0  0  0
   -4.9087   -1.4232    0.0652 H   0  0  0  0  0  0  0  0  0  0  0  0
   -3.7697   -1.6835   -2.6043 H   0  0  0  0  0  0  0  0  0  0  0  0
   -3.7770   -0.2115   -3.5587 H   0  0  0  0  0  0  0  0  0  0  0  0
   -1.5093   -0.4979   -3.0125 H   0  0  0  0  0  0  0  0  0  0  0  0
   -2.0669    0.7760   -1.9013 H   0  0  0  0  0  0  0  0  0  0  0  0
   -0.8300   -1.9651    1.2799 H   0  0  0  0  0  0  0  0  0  0  0  0
    0.6867   -2.2398    0.4169 H   0  0  0  0  0  0  0  0  0  0  0  0
    1.0150   -1.1149    2.6601 H   0  0  0  0  0  0  0  0  0  0  0  0
   -0.0069    0.2060    2.1224 H   0  0  0  0  0  0  0  0  0  0  0  0
    1.9165    1.2070    1.5645 H   0  0  0  0  0  0  0  0  0  0  0  0
    3.2722   -1.5121    1.1391 H   0  0  0  0  0  0  0  0  0  0  0  0
    3.2907   -0.6046    2.6345 H   0  0  0  0  0  0  0  0  0  0  0  0
    5.0166   -1.1281   -0.4542 H   0  0  0  0  0  0  0  0  0  0  0  0
    7.0169    0.1325   -1.1667 H   0  0  0  0  0  0  0  0  0  0  0  0
    7.6250    2.2594   -0.0160 H   0  0  0  0  0  0  0  0  0  0  0  0
    4.2375    1.8640    2.5656 H   0  0  0  0  0  0  0  0  0  0  0  0
    2.2115   -0.5750   -0.8703 H   0  0  0  0  0  0  0  0  0  0  0  0
    2.3391    1.1769   -0.7435 H   0  0  0  0  0  0  0  0  0  0  0  0
    0.2735    0.5198   -1.9079 H   0  0  0  0  0  0  0  0  0  0  0  0
   -0.1380    1.3265   -0.3870 H   0  0  0  0  0  0  0  0  0  0  0  0
   -5.1391    2.0032   -2.5488 H   0  0  0  0  0  0  0  0  0  0  0  0
  1  2  1  0
  2  3  1  0
  3  4  2  0
  4  5  1  0
  5  6  1  0
  6  7  1  0
  7  8  2  0
  7  9  1  0
  9 10  1  0
 10 11  1  0
 11 12  1  0
 12 13  1  0
 13 14  1  0
 14 15  2  0
 15 16  1  0
 16 17  2  0
 17 18  1  0
 18 19  1  0
 18 20  2  0
 12 21  1  0
 21 22  1  0
  4 23  1  0
 23 24  2  0
 24  2  1  0
 22  9  1  0
 20 14  1  0
  1 25  1  0
  1 26  1  0
  1 27  1  0
  3 28  1  0
  5 29  1  0
  5 30  1  0
  6 31  1  0
  6 32  1  0
 10 33  1  0
 10 34  1  0
 11 35  1  0
 11 36  1  0
 12 37  1  0
 13 38  1  0
 13 39  1  0
 15 40  1  0
 16 41  1  0
 17 42  1  0
 20 43  1  0
 21 44  1  0
 21 45  1  0
 22 46  1  0
 22 47  1  0
 23 48  1  0
M  END
$$$$
OCNT-2311626
     RDKit          3D

 45 47  0  0  0  0  0  0  0  0999 V2000
    3.2329    0.6881   -5.0306 C   0  0  0  0  0  0  0  0  0  0  0  0
    4.0952    0.6195   -3.7788 C   0  0  0  0  0  0  0  0  0  0  0  0
    3.2854    0.5952   -2.5699 N   0  0  0  0  0  0  0  0  0  0  0  0
    2.9130    1.7691   -1.9676 C   0  0  0  0  0  0  0  0  0  0  0  0
    2.1700    1.8633   -0.9168 N   0  0  0  0  0  0  0  0  0  0  0  0
    1.7206    0.6875   -0.3665 C   0  0  0  0  0  0  0  0  0  0  0  0
    1.9942   -0.5280   -0.8681 C   0  0  0  0  0  0  0  0  0  0  0  0
    1.4936   -1.8008   -0.2530 C   0  0  0  0  0  0  0  0  0  0  0  0
    0.8657   -1.5699    1.1312 C   0  0  0  0  0  0  0  0  0  0  0  0
    0.0281   -0.3591    1.2164 N   0  0  0  0  0  0  0  0  0  0  0  0
   -1.1774   -0.4832    0.3858 C   0  0  0  0  0  0  0  0  0  0  0  0
   -2.2847    0.4286    0.8983 C   0  0  0  0  0  0  0  0  0  0  0  0
   -2.5778    0.3663    2.3886 C   0  0  0  0  0  0  0  0  0  0  0  0
   -3.3156   -1.2255    2.7695 S   0  0  0  0  0  0  0  0  0  0  0  0
   -3.7048   -1.0408    4.4911 C   0  0  0  0  0  0  0  0  0  0  0  0
   -2.3220   -2.2791    2.6838 O   0  0  0  0  0  0  0  0  0  0  0  0
   -4.5815   -1.3444    2.0685 O   0  0  0  0  0  0  0  0  0  0  0  0
   -2.4380    1.7863    0.2234 C   0  0  0  0  0  0  0  0  0  0  0  0
   -3.4441    0.7120   -0.0453 C   0  0  0  0  0  0  0  0  0  0  0  0
    0.8461    0.8219    0.8714 C   0  0  0  0  0  0  0  0  0  0  0  0
    2.8272   -0.6129   -2.0862 C   0  0  0  0  0  0  0  0  0  0  0  0
    3.0663   -1.7003   -2.6049 O   0  0  0  0  0  0  0  0  0  0  0  0
    2.6069    1.5865   -5.0275 H   0  0  0  0  0  0  0  0  0  0  0  0
    3.8624    0.7120   -5.9253 H   0  0  0  0  0  0  0  0  0  0  0  0
    2.5697   -0.1802   -5.1012 H   0  0  0  0  0  0  0  0  0  0  0  0
    4.7258   -0.2758   -3.8145 H   0  0  0  0  0  0  0  0  0  0  0  0
    4.7566    1.4929   -3.7464 H   0  0  0  0  0  0  0  0  0  0  0  0
    3.3019    2.6800   -2.4506 H   0  0  0  0  0  0  0  0  0  0  0  0
    2.3144   -2.5199   -0.1471 H   0  0  0  0  0  0  0  0  0  0  0  0
    0.7506   -2.2490   -0.9241 H   0  0  0  0  0  0  0  0  0  0  0  0
    1.6672   -1.4859    1.8781 H   0  0  0  0  0  0  0  0  0  0  0  0
    0.2911   -2.4557    1.4285 H   0  0  0  0  0  0  0  0  0  0  0  0
   -1.5617   -1.5094    0.4082 H   0  0  0  0  0  0  0  0  0  0  0  0
   -0.9642   -0.2787   -0.6716 H   0  0  0  0  0  0  0  0  0  0  0  0
   -1.6796    0.4849    2.9998 H   0  0  0  0  0  0  0  0  0  0  0  0
   -3.3065    1.1295    2.6826 H   0  0  0  0  0  0  0  0  0  0  0  0
   -2.7814   -0.8599    5.0444 H   0  0  0  0  0  0  0  0  0  0  0  0
   -4.1723   -1.9652    4.8369 H   0  0  0  0  0  0  0  0  0  0  0  0
   -4.3974   -0.2056    4.6104 H   0  0  0  0  0  0  0  0  0  0  0  0
   -2.7494    2.6373    0.8192 H   0  0  0  0  0  0  0  0  0  0  0  0
   -1.7649    2.0534   -0.5851 H   0  0  0  0  0  0  0  0  0  0  0  0
   -4.4412    0.8334    0.3653 H   0  0  0  0  0  0  0  0  0  0  0  0
   -3.4426    0.2405   -1.0229 H   0  0  0  0  0  0  0  0  0  0  0  0
    1.5099    1.0307    1.7215 H   0  0  0  0  0  0  0  0  0  0  0  0
    0.2122    1.7105    0.7838 H   0  0  0  0  0  0  0  0  0  0  0  0
  1  2  1  0
  2  3  1  0
  3  4  1  0
  4  5  2  0
  5  6  1  0
  6  7  2  0
  7  8  1  0
  8  9  1  0
  9 10  1  0
 10 11  1  0
 11 12  1  0
 12 13  1  0
 13 14  1  0
 14 15  1  0
 14 16  2  0
 14 17  2  0
 12 18  1  0
 18 19  1  0
 10 20  1  0
  7 21  1  0
 21 22  2  0
 21  3  1  0
 20  6  1  0
 19 12  1  0
  1 23  1  0
  1 24  1  0
  1 25  1  0
  2 26  1  0
  2 27  1  0
  4 28  1  0
  8 29  1  0
  8 30  1  0
  9 31  1  0
  9 32  1  0
 11 33  1  0
 11 34  1  0
 13 35  1  0
 13 36  1  0
 15 37  1  0
 15 38  1  0
 15 39  1  0
 18 40  1  0
 18 41  1  0
 19 42  1  0
 19 43  1  0
 20 44  1  0
 20 45  1  0
M  END
$$$$
OCNT-2311634
     RDKit          3D

 42 44  0  0  0  0  0  0  0  0999 V2000
   -3.0108    1.7179    0.7101 C   0  0  0  0  0  0  0  0  0  0  0  0
   -3.2384    0.2708    0.5889 N   0  0  0  0  0  0  0  0  0  0  0  0
   -4.6550   -0.0566    0.8375 C   0  0  0  0  0  0  0  0  0  0  0  0
   -5.6129    0.4065   -0.2655 C   0  0  0  0  0  0  0  0  0  0  0  0
   -5.1765   -0.0928   -1.6394 C   0  0  0  0  0  0  0  0  0  0  0  0
   -3.7043    0.2124   -1.9040 C   0  0  0  0  0  0  0  0  0  0  0  0
   -2.8294   -0.2749   -0.7422 C   0  0  0  0  0  0  0  0  0  0  0  0
   -1.3171   -0.0635   -0.9978 C   0  0  0  0  0  0  0  0  0  0  0  0
   -0.8783    0.2907   -2.0869 O   0  0  0  0  0  0  0  0  0  0  0  0
   -0.5725   -0.3769    0.1306 N   0  0  0  0  0  0  0  0  0  0  0  0
    0.8233   -0.3722    0.2839 C   0  0  0  0  0  0  0  0  0  0  0  0
    1.7199   -0.1417   -0.7567 C   0  0  0  0  0  0  0  0  0  0  0  0
    3.1011   -0.1602   -0.5192 C   0  0  0  0  0  0  0  0  0  0  0  0
    3.6155   -0.4058    0.7613 C   0  0  0  0  0  0  0  0  0  0  0  0
    5.0633   -0.4132    0.9648 C   0  0  0  0  0  0  0  0  0  0  0  0
    5.6884   -0.3054    2.1925 C   0  0  0  0  0  0  0  0  0  0  0  0
    7.3912   -0.3449    1.9914 S   0  0  0  0  0  0  0  0  0  0  0  0
    7.1764   -0.5035    0.2979 C   0  0  0  0  0  0  0  0  0  0  0  0
    8.2253   -0.5900   -0.5375 N   0  0  0  0  0  0  0  0  0  0  0  0
    5.9344   -0.5109   -0.1130 N   0  0  0  0  0  0  0  0  0  0  0  0
    2.7088   -0.6463    1.8008 C   0  0  0  0  0  0  0  0  0  0  0  0
    1.3278   -0.6294    1.5629 C   0  0  0  0  0  0  0  0  0  0  0  0
   -3.5572    2.3119   -0.0282 H   0  0  0  0  0  0  0  0  0  0  0  0
   -1.9483    1.9642    0.6182 H   0  0  0  0  0  0  0  0  0  0  0  0
   -3.3116    2.0609    1.7068 H   0  0  0  0  0  0  0  0  0  0  0  0
   -4.7418   -1.1452    0.9491 H   0  0  0  0  0  0  0  0  0  0  0  0
   -4.9730    0.3602    1.8012 H   0  0  0  0  0  0  0  0  0  0  0  0
   -6.6227    0.0391   -0.0489 H   0  0  0  0  0  0  0  0  0  0  0  0
   -5.6771    1.5009   -0.2768 H   0  0  0  0  0  0  0  0  0  0  0  0
   -5.7998    0.3596   -2.4187 H   0  0  0  0  0  0  0  0  0  0  0  0
   -5.3348   -1.1772   -1.6944 H   0  0  0  0  0  0  0  0  0  0  0  0
   -3.5682    1.2879   -2.0698 H   0  0  0  0  0  0  0  0  0  0  0  0
   -3.3994   -0.2787   -2.8363 H   0  0  0  0  0  0  0  0  0  0  0  0
   -2.9376   -1.3689   -0.6876 H   0  0  0  0  0  0  0  0  0  0  0  0
   -1.1391   -0.5334    0.9606 H   0  0  0  0  0  0  0  0  0  0  0  0
    1.3822    0.0504   -1.7703 H   0  0  0  0  0  0  0  0  0  0  0  0
    3.7763    0.0209   -1.3542 H   0  0  0  0  0  0  0  0  0  0  0  0
    5.2587   -0.1986    3.1769 H   0  0  0  0  0  0  0  0  0  0  0  0
    9.0992   -0.1863   -0.2248 H   0  0  0  0  0  0  0  0  0  0  0  0
    8.0083   -0.3898   -1.5077 H   0  0  0  0  0  0  0  0  0  0  0  0
    3.0512   -0.8644    2.8081 H   0  0  0  0  0  0  0  0  0  0  0  0
    0.6548   -0.8234    2.3944 H   0  0  0  0  0  0  0  0  0  0  0  0
  1  2  1  0
  2  3  1  0
  3  4  1  0
  4  5  1  0
  5  6  1  0
  6  7  1  0
  7  8  1  0
  8  9  2  0
  8 10  1  0
 10 11  1  0
 11 12  1  0
 12 13  2  0
 13 14  1  0
 14 15  1  0
 15 16  2  0
 16 17  1  0
 17 18  1  0
 18 19  1  0
 18 20  2  0
 14 21  2  0
 21 22  1  0
  7  2  1  0
 22 11  2  0
 20 15  1  0
  1 23  1  0
  1 24  1  0
  1 25  1  0
  3 26  1  0
  3 27  1  0
  4 28  1  0
  4 29  1  0
  5 30  1  0
  5 31  1  0
  6 32  1  0
  6 33  1  0
  7 34  1  0
 10 35  1  0
 12 36  1  0
 13 37  1  0
 16 38  1  0
 19 39  1  0
 19 40  1  0
 21 41  1  0
 22 42  1  0
M  END
$$$$
OCNT-2311636
     RDKit          3D

 61 65  0  0  0  0  0  0  0  0999 V2000
   -1.0913    2.0978    0.6810 C   0  0  0  0  0  0  0  0  0  0  0  0
    0.1703    1.2006    0.7492 C   0  0  0  0  0  0  0  0  0  0  0  0
    0.5381    1.0706    2.2516 C   0  0  0  0  0  0  0  0  0  0  0  0
    1.3511    1.8527   -0.0452 C   0  0  0  0  0  0  0  0  0  0  0  0
    1.8509    3.1926    0.4565 C   0  0  0  0  0  0  0  0  0  0  0  0
    2.9110    3.2611    1.3720 C   0  0  0  0  0  0  0  0  0  0  0  0
    3.3721    4.4954    1.8331 C   0  0  0  0  0  0  0  0  0  0  0  0
    2.7838    5.6743    1.3796 C   0  0  0  0  0  0  0  0  0  0  0  0
    1.7378    5.6202    0.4607 C   0  0  0  0  0  0  0  0  0  0  0  0
    1.2759    4.3866   -0.0015 C   0  0  0  0  0  0  0  0  0  0  0  0
   -0.1820   -0.2462    0.1797 C   0  0  0  0  0  0  0  0  0  0  0  0
    0.9882   -1.1501    0.2530 N   0  0  0  0  0  0  0  0  0  0  0  0
    0.7014   -2.5445   -0.0959 C   0  0  0  0  0  0  0  0  0  0  0  0
    1.9389   -3.4401    0.0653 C   0  0  0  0  0  0  0  0  0  0  0  0
    3.1108   -3.2233   -0.8561 C   0  0  0  0  0  0  0  0  0  0  0  0
    3.1461   -2.2740   -1.8746 C   0  0  0  0  0  0  0  0  0  0  0  0
    4.2144   -2.1119   -2.6976 N   0  0  0  0  0  0  0  0  0  0  0  0
    5.2591   -2.9338   -2.4649 C   0  0  0  0  0  0  0  0  0  0  0  0
    5.2407   -3.8794   -1.4584 C   0  0  0  0  0  0  0  0  0  0  0  0
    4.1759   -4.0463   -0.6402 N   0  0  0  0  0  0  0  0  0  0  0  0
   -0.7292   -0.1776   -1.2250 C   0  0  0  0  0  0  0  0  0  0  0  0
   -0.0109    0.0702   -2.3080 N   0  0  0  0  0  0  0  0  0  0  0  0
   -0.8916    0.3125   -3.3183 N   0  0  0  0  0  0  0  0  0  0  0  0
   -2.1373    0.2068   -2.8930 N   0  0  0  0  0  0  0  0  0  0  0  0
   -2.0671   -0.2210   -1.6076 N   0  0  0  0  0  0  0  0  0  0  0  0
   -3.2517   -0.6158   -0.9324 C   0  0  0  0  0  0  0  0  0  0  0  0
   -4.4938   -0.1003   -1.3857 C   0  0  0  0  0  0  0  0  0  0  0  0
   -5.6946   -0.4596   -0.7631 C   0  0  0  0  0  0  0  0  0  0  0  0
   -5.6292   -1.3442    0.2886 C   0  0  0  0  0  0  0  0  0  0  0  0
   -6.6852   -1.8123    1.0035 O   0  0  0  0  0  0  0  0  0  0  0  0
   -6.0201   -2.7055    1.9207 C   0  0  0  0  0  0  0  0  0  0  0  0
   -4.5864   -2.7390    1.7476 O   0  0  0  0  0  0  0  0  0  0  0  0
   -4.4324   -1.8666    0.7154 C   0  0  0  0  0  0  0  0  0  0  0  0
   -3.2287   -1.5331    0.1252 C   0  0  0  0  0  0  0  0  0  0  0  0
   -1.3447    2.3666   -0.3499 H   0  0  0  0  0  0  0  0  0  0  0  0
   -1.9572    1.5913    1.1227 H   0  0  0  0  0  0  0  0  0  0  0  0
   -0.9558    3.0325    1.2356 H   0  0  0  0  0  0  0  0  0  0  0  0
    1.5094    0.5868    2.3965 H   0  0  0  0  0  0  0  0  0  0  0  0
    0.5871    2.0490    2.7425 H   0  0  0  0  0  0  0  0  0  0  0  0
   -0.2141    0.4839    2.7918 H   0  0  0  0  0  0  0  0  0  0  0  0
    1.0670    1.9904   -1.0956 H   0  0  0  0  0  0  0  0  0  0  0  0
    2.2089    1.1674   -0.0696 H   0  0  0  0  0  0  0  0  0  0  0  0
    3.3891    2.3512    1.7279 H   0  0  0  0  0  0  0  0  0  0  0  0
    4.1950    4.5363    2.5418 H   0  0  0  0  0  0  0  0  0  0  0  0
    3.1459    6.6350    1.7356 H   0  0  0  0  0  0  0  0  0  0  0  0
    1.2849    6.5391    0.0975 H   0  0  0  0  0  0  0  0  0  0  0  0
    0.4669    4.3628   -0.7286 H   0  0  0  0  0  0  0  0  0  0  0  0
   -0.9303   -0.6460    0.8642 H   0  0  0  0  0  0  0  0  0  0  0  0
    1.4016   -1.1144    1.1837 H   0  0  0  0  0  0  0  0  0  0  0  0
   -0.0783   -2.9285    0.5720 H   0  0  0  0  0  0  0  0  0  0  0  0
    0.3274   -2.6294   -1.1222 H   0  0  0  0  0  0  0  0  0  0  0  0
    2.3025   -3.3625    1.0995 H   0  0  0  0  0  0  0  0  0  0  0  0
    1.6119   -4.4804   -0.0706 H   0  0  0  0  0  0  0  0  0  0  0  0
    2.3196   -1.5998   -2.0769 H   0  0  0  0  0  0  0  0  0  0  0  0
    6.1181   -2.8105   -3.1145 H   0  0  0  0  0  0  0  0  0  0  0  0
    6.0862   -4.5346   -1.2802 H   0  0  0  0  0  0  0  0  0  0  0  0
   -4.5379    0.6025   -2.2190 H   0  0  0  0  0  0  0  0  0  0  0  0
   -6.6450   -0.0574   -1.0992 H   0  0  0  0  0  0  0  0  0  0  0  0
   -6.4141   -3.7179    1.7740 H   0  0  0  0  0  0  0  0  0  0  0  0
   -6.2417   -2.3863    2.9458 H   0  0  0  0  0  0  0  0  0  0  0  0
   -2.3375   -2.0438    0.4619 H   0  0  0  0  0  0  0  0  0  0  0  0
  1  2  1  0
  2  3  1  0
  2  4  1  0
  4  5  1  0
  5  6  2  0
  6  7  1  0
  7  8  2  0
  8  9  1  0
  9 10  2  0
  2 11  1  0
 11 12  1  0
 12 13  1  0
 13 14  1  0
 14 15  1  0
 15 16  2  0
 16 17  1  0
 17 18  2  0
 18 19  1  0
 19 20  2  0
 11 21  1  0
 21 22  2  0
 22 23  1  0
 23 24  2  0
 24 25  1  0
 25 26  1  0
 26 27  1  0
 27 28  2  0
 28 29  1  0
 29 30  1  0
 30 31  1  0
 31 32  1  0
 32 33  1  0
 33 34  1  0
 10  5  1  0
 20 15  1  0
 25 21  1  0
 34 26  2  0
 33 29  2  0
  1 35  1  0
  1 36  1  0
  1 37  1  0
  3 38  1  0
  3 39  1  0
  3 40  1  0
  4 41  1  0
  4 42  1  0
  6 43  1  0
  7 44  1  0
  8 45  1  0
  9 46  1  0
 10 47  1  0
 11 48  1  0
 12 49  1  0
 13 50  1  0
 13 51  1  0
 14 52  1  0
 14 53  1  0
 16 54  1  0
 18 55  1  0
 19 56  1  0
 27 57  1  0
 28 58  1  0
 31 59  1  0
 31 60  1  0
 34 61  1  0
M  END
$$$$
OCNT-2311637
     RDKit          3D

 49 53  0  0  0  0  0  0  0  0999 V2000
    0.2693    2.7936   -2.1439 O   0  0  0  0  0  0  0  0  0  0  0  0
   -0.2133    1.7702   -1.6689 C   0  0  0  0  0  0  0  0  0  0  0  0
    0.5623    0.5214   -1.8213 C   0  0  0  0  0  0  0  0  0  0  0  0
    1.7732    0.4266   -1.1001 C   0  0  0  0  0  0  0  0  0  0  0  0
    2.4037   -0.7919   -1.3457 C   0  0  0  0  0  0  0  0  0  0  0  0
    3.5937   -1.2309   -0.8252 C   0  0  0  0  0  0  0  0  0  0  0  0
    4.5941   -0.7457    0.1148 C   0  0  0  0  0  0  0  0  0  0  0  0
    4.2195   -0.0577    1.2798 C   0  0  0  0  0  0  0  0  0  0  0  0
    5.1878    0.4053    2.1754 C   0  0  0  0  0  0  0  0  0  0  0  0
    6.5324    0.1785    1.9107 C   0  0  0  0  0  0  0  0  0  0  0  0
    7.4583    0.6220    2.7704 F   0  0  0  0  0  0  0  0  0  0  0  0
    6.9283   -0.5053    0.7691 C   0  0  0  0  0  0  0  0  0  0  0  0
    5.9606   -0.9685   -0.1261 C   0  0  0  0  0  0  0  0  0  0  0  0
    3.8462   -2.4649   -1.3598 O   0  0  0  0  0  0  0  0  0  0  0  0
    2.8303   -2.8439   -2.2183 N   0  0  0  0  0  0  0  0  0  0  0  0
    1.9436   -1.8374   -2.2323 C   0  0  0  0  0  0  0  0  0  0  0  0
    0.7421   -1.7028   -2.9510 C   0  0  0  0  0  0  0  0  0  0  0  0
    0.0704   -0.4828   -2.7183 C   0  0  0  0  0  0  0  0  0  0  0  0
   -1.4217    1.7262   -0.9837 N   0  0  0  0  0  0  0  0  0  0  0  0
   -2.3045    2.8913   -1.0703 C   0  0  0  0  0  0  0  0  0  0  0  0
   -3.1365    3.0667    0.2010 C   0  0  0  0  0  0  0  0  0  0  0  0
   -3.8491    1.8640    0.5235 O   0  0  0  0  0  0  0  0  0  0  0  0
   -2.9297    0.7838    0.7724 C   0  0  0  0  0  0  0  0  0  0  0  0
   -3.6994   -0.4578    1.1815 C   0  0  0  0  0  0  0  0  0  0  0  0
   -4.9615   -0.7481    0.6349 C   0  0  0  0  0  0  0  0  0  0  0  0
   -5.6439   -1.9096    1.0000 C   0  0  0  0  0  0  0  0  0  0  0  0
   -5.0656   -2.7867    1.9083 C   0  0  0  0  0  0  0  0  0  0  0  0
   -5.7197   -3.9021    2.2576 F   0  0  0  0  0  0  0  0  0  0  0  0
   -3.8172   -2.5249    2.4588 C   0  0  0  0  0  0  0  0  0  0  0  0
   -3.1330   -1.3633    2.0957 C   0  0  0  0  0  0  0  0  0  0  0  0
   -2.0653    0.5042   -0.4772 C   0  0  0  0  0  0  0  0  0  0  0  0
    2.1422    1.2216   -0.4666 H   0  0  0  0  0  0  0  0  0  0  0  0
    3.1715    0.1104    1.5148 H   0  0  0  0  0  0  0  0  0  0  0  0
    4.9015    0.9355    3.0783 H   0  0  0  0  0  0  0  0  0  0  0  0
    7.9839   -0.6748    0.5813 H   0  0  0  0  0  0  0  0  0  0  0  0
    6.2829   -1.5012   -1.0196 H   0  0  0  0  0  0  0  0  0  0  0  0
    0.3773   -2.4615   -3.6303 H   0  0  0  0  0  0  0  0  0  0  0  0
   -0.8584   -0.2927   -3.2575 H   0  0  0  0  0  0  0  0  0  0  0  0
   -2.9670    2.7100   -1.9252 H   0  0  0  0  0  0  0  0  0  0  0  0
   -1.7335    3.8025   -1.2741 H   0  0  0  0  0  0  0  0  0  0  0  0
   -2.5036    3.3471    1.0513 H   0  0  0  0  0  0  0  0  0  0  0  0
   -3.8738    3.8627    0.0573 H   0  0  0  0  0  0  0  0  0  0  0  0
   -2.2873    1.0904    1.6092 H   0  0  0  0  0  0  0  0  0  0  0  0
   -5.4227   -0.0620   -0.0736 H   0  0  0  0  0  0  0  0  0  0  0  0
   -6.6213   -2.1323    0.5844 H   0  0  0  0  0  0  0  0  0  0  0  0
   -3.3866   -3.2256    3.1671 H   0  0  0  0  0  0  0  0  0  0  0  0
   -2.1565   -1.1688    2.5345 H   0  0  0  0  0  0  0  0  0  0  0  0
   -1.3159   -0.2585   -0.2452 H   0  0  0  0  0  0  0  0  0  0  0  0
   -2.6879    0.1263   -1.2982 H   0  0  0  0  0  0  0  0  0  0  0  0
  1  2  2  0
  2  3  1  0
  3  4  2  0
  4  5  1  0
  5  6  2  0
  6  7  1  0
  7  8  1  0
  8  9  2  0
  9 10  1  0
 10 11  1  0
 10 12  2  0
 12 13  1  0
  6 14  1  0
 14 15  1  0
 15 16  2  0
 16 17  1  0
 17 18  2  0
  2 19  1  0
 19 20  1  0
 20 21  1  0
 21 22  1  0
 22 23  1  0
 23 24  1  0
 24 25  1  0
 25 26  2  0
 26 27  1  0
 27 28  1  0
 27 29  2  0
 29 30  1  0
 23 31  1  0
 18  3  1  0
 31 19  1  0
 16  5  1  0
 30 24  2  0
 13  7  2  0
  4 32  1  0
  8 33  1  0
  9 34  1  0
 12 35  1  0
 13 36  1  0
 17 37  1  0
 18 38  1  0
 20 39  1  0
 20 40  1  0
 21 41  1  0
 21 42  1  0
 23 43  1  0
 25 44  1  0
 26 45  1  0
 29 46  1  0
 30 47  1  0
 31 48  1  0
 31 49  1  0
M  END
$$$$
OCNT-2311638
     RDKit          3D

 48 51  0  0  0  0  0  0  0  0999 V2000
   -4.3951    2.9029   -0.3138 C   0  0  0  0  0  0  0  0  0  0  0  0
   -3.6487    1.6875   -0.2648 O   0  0  0  0  0  0  0  0  0  0  0  0
   -2.8235    1.5888    0.8196 C   0  0  0  0  0  0  0  0  0  0  0  0
   -2.7566    2.4282    1.7098 O   0  0  0  0  0  0  0  0  0  0  0  0
   -2.0491    0.3575    0.8283 C   0  0  0  0  0  0  0  0  0  0  0  0
   -2.3468   -0.8487    0.2106 C   0  0  0  0  0  0  0  0  0  0  0  0
   -3.4785   -1.2929   -0.6553 C   0  0  0  0  0  0  0  0  0  0  0  0
   -3.5886   -2.8200   -0.7230 C   0  0  0  0  0  0  0  0  0  0  0  0
   -2.2182   -3.4632   -0.9412 C   0  0  0  0  0  0  0  0  0  0  0  0
   -1.2723   -3.1112    0.2053 C   0  0  0  0  0  0  0  0  0  0  0  0
   -1.3298   -1.7001    0.5415 N   0  0  0  0  0  0  0  0  0  0  0  0
   -0.3800   -1.1465    1.3077 N   0  0  0  0  0  0  0  0  0  0  0  0
   -0.8076    0.1153    1.4905 C   0  0  0  0  0  0  0  0  0  0  0  0
    0.0191    1.0792    2.2836 C   0  0  0  0  0  0  0  0  0  0  0  0
    1.2243    1.4192    1.5491 N   0  0  0  0  0  0  0  0  0  0  0  0
    1.2137    2.3548    0.5422 C   0  0  0  0  0  0  0  0  0  0  0  0
    0.1890    2.9464    0.2166 O   0  0  0  0  0  0  0  0  0  0  0  0
    2.4864    2.6720   -0.0318 C   0  0  0  0  0  0  0  0  0  0  0  0
    2.9305    3.9462   -0.3320 C   0  0  0  0  0  0  0  0  0  0  0  0
    4.2355    3.9164   -0.6996 N   0  0  0  0  0  0  0  0  0  0  0  0
    4.6292    2.6540   -0.6687 N   0  0  0  0  0  0  0  0  0  0  0  0
    3.5517    1.8662   -0.3966 N   0  0  0  0  0  0  0  0  0  0  0  0
    3.6580    0.4566   -0.5543 C   0  0  0  0  0  0  0  0  0  0  0  0
    2.5294   -0.3592   -0.6864 C   0  0  0  0  0  0  0  0  0  0  0  0
    2.6788   -1.7410   -0.8405 C   0  0  0  0  0  0  0  0  0  0  0  0
    3.9472   -2.3156   -0.8781 C   0  0  0  0  0  0  0  0  0  0  0  0
    5.0759   -1.5083   -0.7768 C   0  0  0  0  0  0  0  0  0  0  0  0
    4.9353   -0.1274   -0.6232 C   0  0  0  0  0  0  0  0  0  0  0  0
   -4.9841    2.9027   -1.2354 H   0  0  0  0  0  0  0  0  0  0  0  0
   -5.0827    2.9632    0.5360 H   0  0  0  0  0  0  0  0  0  0  0  0
   -3.7250    3.7681   -0.3346 H   0  0  0  0  0  0  0  0  0  0  0  0
   -4.4260   -0.8849   -0.2864 H   0  0  0  0  0  0  0  0  0  0  0  0
   -3.3220   -0.8949   -1.6656 H   0  0  0  0  0  0  0  0  0  0  0  0
   -4.2712   -3.1039   -1.5318 H   0  0  0  0  0  0  0  0  0  0  0  0
   -4.0217   -3.2001    0.2117 H   0  0  0  0  0  0  0  0  0  0  0  0
   -2.3165   -4.5520   -1.0198 H   0  0  0  0  0  0  0  0  0  0  0  0
   -1.7982   -3.1065   -1.8910 H   0  0  0  0  0  0  0  0  0  0  0  0
   -1.5473   -3.6574    1.1153 H   0  0  0  0  0  0  0  0  0  0  0  0
   -0.2398   -3.3604   -0.0571 H   0  0  0  0  0  0  0  0  0  0  0  0
    0.3315    0.6173    3.2267 H   0  0  0  0  0  0  0  0  0  0  0  0
   -0.5191    1.9981    2.5257 H   0  0  0  0  0  0  0  0  0  0  0  0
    2.0497    0.8738    1.7523 H   0  0  0  0  0  0  0  0  0  0  0  0
    2.3853    4.8763   -0.2423 H   0  0  0  0  0  0  0  0  0  0  0  0
    1.5186    0.0380   -0.7092 H   0  0  0  0  0  0  0  0  0  0  0  0
    1.7978   -2.3695   -0.9386 H   0  0  0  0  0  0  0  0  0  0  0  0
    4.0554   -3.3910   -0.9966 H   0  0  0  0  0  0  0  0  0  0  0  0
    6.0682   -1.9511   -0.8184 H   0  0  0  0  0  0  0  0  0  0  0  0
    5.8381    0.4771   -0.5472 H   0  0  0  0  0  0  0  0  0  0  0  0
  1  2  1  0
  2  3  1  0
  3  4  2  0
  3  5  1  0
  5  6  2  0
  6  7  1  0
  7  8  1  0
  8  9  1  0
  9 10  1  0
 10 11  1  0
 11 12  1  0
 12 13  2  0
 13 14  1  0
 14 15  1  0
 15 16  1  0
 16 17  2  0
 16 18  1  0
 18 19  2  0
 19 20  1  0
 20 21  2  0
 21 22  1  0
 22 23  1  0
 23 24  2  0
 24 25  1  0
 25 26  2  0
 26 27  1  0
 27 28  2  0
 13  5  1  0
 22 18  1  0
 28 23  1  0
 11  6  1  0
  1 29  1  0
  1 30  1  0
  1 31  1  0
  7 32  1  0
  7 33  1  0
  8 34  1  0
  8 35  1  0
  9 36  1  0
  9 37  1  0
 10 38  1  0
 10 39  1  0
 14 40  1  0
 14 41  1  0
 15 42  1  0
 19 43  1  0
 24 44  1  0
 25 45  1  0
 26 46  1  0
 27 47  1  0
 28 48  1  0
M  END
$$$$
OCNT-2311652
     RDKit          3D

 50 52  0  0  0  0  0  0  0  0999 V2000
   -5.7707   -0.9763   -0.6693 C   0  0  0  0  0  0  0  0  0  0  0  0
   -4.5178   -0.1064   -0.5593 C   0  0  0  0  0  0  0  0  0  0  0  0
   -4.4892    0.9310   -1.6841 C   0  0  0  0  0  0  0  0  0  0  0  0
   -4.4314    0.5388    0.7997 C   0  0  0  0  0  0  0  0  0  0  0  0
   -3.5779    0.1986    1.8381 C   0  0  0  0  0  0  0  0  0  0  0  0
   -2.5393   -0.8046    1.9020 C   0  0  0  0  0  0  0  0  0  0  0  0
   -2.6405   -1.7949    2.6260 O   0  0  0  0  0  0  0  0  0  0  0  0
   -1.4100   -0.6149    1.0949 N   0  0  0  0  0  0  0  0  0  0  0  0
   -1.0786    0.6458    0.4260 C   0  0  0  0  0  0  0  0  0  0  0  0
    0.4280    0.8798    0.4014 C   0  0  0  0  0  0  0  0  0  0  0  0
    1.1741   -0.2423   -0.3474 C   0  0  0  0  0  0  0  0  0  0  0  0
    2.6518   -0.2651    0.0962 C   0  0  0  0  0  0  0  0  0  0  0  0
    3.5573   -1.0638   -0.8520 C   0  0  0  0  0  0  0  0  0  0  0  0
    5.0156   -1.1014   -0.3898 C   0  0  0  0  0  0  0  0  0  0  0  0
    5.6773    0.1842   -0.4461 N   0  0  0  0  0  0  0  0  0  0  0  0
    6.1730    0.7893   -1.5680 C   0  0  0  0  0  0  0  0  0  0  0  0
    6.7150    1.9718   -1.1208 C   0  0  0  0  0  0  0  0  0  0  0  0
    6.5681    2.0912    0.2384 N   0  0  0  0  0  0  0  0  0  0  0  0
    5.9499    0.9953    0.6184 C   0  0  0  0  0  0  0  0  0  0  0  0
    0.4700   -1.6035   -0.1738 C   0  0  0  0  0  0  0  0  0  0  0  0
   -0.3966   -1.6646    1.0803 C   0  0  0  0  0  0  0  0  0  0  0  0
   -3.9391    1.1290    3.2316 S   0  0  0  0  0  0  0  0  0  0  0  0
   -5.1551    1.9464    2.3483 C   0  0  0  0  0  0  0  0  0  0  0  0
   -5.3183    1.5677    1.1009 N   0  0  0  0  0  0  0  0  0  0  0  0
   -6.6851   -0.3786   -0.5739 H   0  0  0  0  0  0  0  0  0  0  0  0
   -5.7884   -1.7388    0.1170 H   0  0  0  0  0  0  0  0  0  0  0  0
   -5.8039   -1.4901   -1.6347 H   0  0  0  0  0  0  0  0  0  0  0  0
   -3.6507   -0.7634   -0.7000 H   0  0  0  0  0  0  0  0  0  0  0  0
   -3.5916    1.5572   -1.6197 H   0  0  0  0  0  0  0  0  0  0  0  0
   -4.4873    0.4399   -2.6643 H   0  0  0  0  0  0  0  0  0  0  0  0
   -5.3612    1.5952   -1.6437 H   0  0  0  0  0  0  0  0  0  0  0  0
   -1.4675    0.5869   -0.5963 H   0  0  0  0  0  0  0  0  0  0  0  0
   -1.5662    1.4866    0.9271 H   0  0  0  0  0  0  0  0  0  0  0  0
    0.7911    0.9482    1.4355 H   0  0  0  0  0  0  0  0  0  0  0  0
    0.6474    1.8436   -0.0727 H   0  0  0  0  0  0  0  0  0  0  0  0
    1.1526    0.0022   -1.4191 H   0  0  0  0  0  0  0  0  0  0  0  0
    2.7272   -0.6728    1.1122 H   0  0  0  0  0  0  0  0  0  0  0  0
    3.0163    0.7685    0.1408 H   0  0  0  0  0  0  0  0  0  0  0  0
    3.4953   -0.6359   -1.8596 H   0  0  0  0  0  0  0  0  0  0  0  0
    3.2046   -2.0972   -0.9253 H   0  0  0  0  0  0  0  0  0  0  0  0
    5.5907   -1.7806   -1.0316 H   0  0  0  0  0  0  0  0  0  0  0  0
    5.0906   -1.4794    0.6355 H   0  0  0  0  0  0  0  0  0  0  0  0
    6.1037    0.3501   -2.5533 H   0  0  0  0  0  0  0  0  0  0  0  0
    7.2060    2.7413   -1.7032 H   0  0  0  0  0  0  0  0  0  0  0  0
    5.6765    0.7482    1.6373 H   0  0  0  0  0  0  0  0  0  0  0  0
   -0.1774   -1.7675   -1.0459 H   0  0  0  0  0  0  0  0  0  0  0  0
    1.1829   -2.4331   -0.1629 H   0  0  0  0  0  0  0  0  0  0  0  0
    0.2185   -1.5450    1.9812 H   0  0  0  0  0  0  0  0  0  0  0  0
   -0.8846   -2.6442    1.1439 H   0  0  0  0  0  0  0  0  0  0  0  0
   -5.7549    2.7276    2.7973 H   0  0  0  0  0  0  0  0  0  0  0  0
  1  2  1  0
  2  3  1  0
  2  4  1  0
  4  5  2  0
  5  6  1  0
  6  7  2  0
  6  8  1  0
  8  9  1  0
  9 10  1  0
 10 11  1  0
 11 12  1  0
 12 13  1  0
 13 14  1  0
 14 15  1  0
 15 16  1  0
 16 17  2  0
 17 18  1  0
 18 19  2  0
 11 20  1  0
 20 21  1  0
  5 22  1  0
 22 23  1  0
 23 24  2  0
 24  4  1  0
 21  8  1  0
 19 15  1  0
  1 25  1  0
  1 26  1  0
  1 27  1  0
  2 28  1  0
  3 29  1  0
  3 30  1  0
  3 31  1  0
  9 32  1  0
  9 33  1  0
 10 34  1  0
 10 35  1  0
 11 36  1  0
 12 37  1  0
 12 38  1  0
 13 39  1  0
 13 40  1  0
 14 41  1  0
 14 42  1  0
 16 43  1  0
 17 44  1  0
 19 45  1  0
 20 46  1  0
 20 47  1  0
 21 48  1  0
 21 49  1  0
 23 50  1  0
M  END
$$$$
