OCNT-2318024
     RDKit          3D

 50 53  0  0  0  0  0  0  0  0999 V2000
   -1.9415    1.8418    1.5290 C   0  0  0  0  0  0  0  0  0  0  0  0
   -2.8668    1.5696    0.3437 C   0  0  0  0  0  0  0  0  0  0  0  0
   -2.0939    0.9024   -0.8221 C   0  0  0  0  0  0  0  0  0  0  0  0
   -1.6507   -0.4755   -0.5513 N   0  0  0  0  0  0  0  0  0  0  0  0
   -0.3330   -0.8509   -0.3500 C   0  0  0  0  0  0  0  0  0  0  0  0
   -0.0136   -1.8935    0.2137 O   0  0  0  0  0  0  0  0  0  0  0  0
    0.5974    0.0316   -0.8407 N   0  0  0  0  0  0  0  0  0  0  0  0
    2.0167   -0.2693   -0.7263 C   0  0  0  0  0  0  0  0  0  0  0  0
    2.5702   -0.1523    0.7114 C   0  0  0  0  0  0  0  0  0  0  0  0
    2.3670    1.2379    1.3224 C   0  0  0  0  0  0  0  0  0  0  0  0
    3.3465    2.2254    0.7115 C   0  0  0  0  0  0  0  0  0  0  0  0
    4.7100    1.8680    0.9426 O   0  0  0  0  0  0  0  0  0  0  0  0
    5.0070    0.5382    0.8173 C   0  0  0  0  0  0  0  0  0  0  0  0
    6.3661    0.2202    0.8295 C   0  0  0  0  0  0  0  0  0  0  0  0
    6.7798   -1.1080    0.7313 C   0  0  0  0  0  0  0  0  0  0  0  0
    5.8324   -2.1237    0.6291 C   0  0  0  0  0  0  0  0  0  0  0  0
    4.4727   -1.8107    0.6254 C   0  0  0  0  0  0  0  0  0  0  0  0
    4.0473   -0.4758    0.7195 C   0  0  0  0  0  0  0  0  0  0  0  0
   -2.6594   -1.4292   -0.0891 C   0  0  0  0  0  0  0  0  0  0  0  0
   -4.0615   -1.0833   -0.5118 C   0  0  0  0  0  0  0  0  0  0  0  0
   -4.7778   -1.8968   -1.3989 C   0  0  0  0  0  0  0  0  0  0  0  0
   -6.0860   -1.5646   -1.7583 C   0  0  0  0  0  0  0  0  0  0  0  0
   -6.6904   -0.4233   -1.2301 C   0  0  0  0  0  0  0  0  0  0  0  0
   -5.9843    0.3955   -0.3502 C   0  0  0  0  0  0  0  0  0  0  0  0
   -4.6711    0.0758   -0.0161 C   0  0  0  0  0  0  0  0  0  0  0  0
   -4.0201    0.8837    0.8701 O   0  0  0  0  0  0  0  0  0  0  0  0
   -2.4789    2.3819    2.3161 H   0  0  0  0  0  0  0  0  0  0  0  0
   -1.5876    0.9077    1.9777 H   0  0  0  0  0  0  0  0  0  0  0  0
   -1.0756    2.4394    1.2293 H   0  0  0  0  0  0  0  0  0  0  0  0
   -3.2288    2.5405   -0.0191 H   0  0  0  0  0  0  0  0  0  0  0  0
   -1.2472    1.5454   -1.0794 H   0  0  0  0  0  0  0  0  0  0  0  0
   -2.7195    0.8627   -1.7224 H   0  0  0  0  0  0  0  0  0  0  0  0
    0.3220    0.4132   -1.7334 H   0  0  0  0  0  0  0  0  0  0  0  0
    2.1739   -1.2822   -1.1181 H   0  0  0  0  0  0  0  0  0  0  0  0
    2.5383    0.4143   -1.4057 H   0  0  0  0  0  0  0  0  0  0  0  0
    2.0525   -0.8686    1.3619 H   0  0  0  0  0  0  0  0  0  0  0  0
    1.3374    1.5869    1.1961 H   0  0  0  0  0  0  0  0  0  0  0  0
    2.5562    1.1791    2.4029 H   0  0  0  0  0  0  0  0  0  0  0  0
    3.1907    2.3487   -0.3661 H   0  0  0  0  0  0  0  0  0  0  0  0
    3.1943    3.2106    1.1658 H   0  0  0  0  0  0  0  0  0  0  0  0
    7.1047    1.0123    0.9182 H   0  0  0  0  0  0  0  0  0  0  0  0
    7.8394   -1.3489    0.7408 H   0  0  0  0  0  0  0  0  0  0  0  0
    6.1511   -3.1606    0.5587 H   0  0  0  0  0  0  0  0  0  0  0  0
    3.7417   -2.6147    0.5565 H   0  0  0  0  0  0  0  0  0  0  0  0
   -2.6102   -1.4755    1.0069 H   0  0  0  0  0  0  0  0  0  0  0  0
   -2.3851   -2.4282   -0.4510 H   0  0  0  0  0  0  0  0  0  0  0  0
   -4.3250   -2.7970   -1.8084 H   0  0  0  0  0  0  0  0  0  0  0  0
   -6.6389   -2.2034   -2.4427 H   0  0  0  0  0  0  0  0  0  0  0  0
   -7.7136   -0.1754   -1.4997 H   0  0  0  0  0  0  0  0  0  0  0  0
   -6.4546    1.2787    0.0717 H   0  0  0  0  0  0  0  0  0  0  0  0
  1  2  1  0
  2  3  1  0
  3  4  1  0
  4  5  1  0
  5  6  2  0
  5  7  1  0
  7  8  1  0
  8  9  1  0
  9 10  1  0
 10 11  1  0
 11 12  1  0
 12 13  1  0
 13 14  2  0
 14 15  1  0
 15 16  2  0
 16 17  1  0
 17 18  2  0
  4 19  1  0
 19 20  1  0
 20 21  2  0
 21 22  1  0
 22 23  2  0
 23 24  1  0
 24 25  2  0
 25 26  1  0
 26  2  1  0
 18  9  1  0
 25 20  1  0
 18 13  1  0
  1 27  1  0
  1 28  1  0
  1 29  1  0
  2 30  1  0
  3 31  1  0
  3 32  1  0
  7 33  1  0
  8 34  1  0
  8 35  1  0
  9 36  1  0
 10 37  1  0
 10 38  1  0
 11 39  1  0
 11 40  1  0
 14 41  1  0
 15 42  1  0
 16 43  1  0
 17 44  1  0
 19 45  1  0
 19 46  1  0
 21 47  1  0
 22 48  1  0
 23 49  1  0
 24 50  1  0
M  END
$$$$
OCNT-2318042
     RDKit          3D

 52 54  0  0  0  0  0  0  0  0999 V2000
   -4.2292   -1.0701   -1.7027 C   0  0  0  0  0  0  0  0  0  0  0  0
   -3.0175   -1.1212   -0.7270 C   0  0  0  0  0  0  0  0  0  0  0  0
   -2.8214   -2.6266   -0.4228 C   0  0  0  0  0  0  0  0  0  0  0  0
   -1.7887   -0.5201   -1.5206 C   0  0  0  0  0  0  0  0  0  0  0  0
   -0.4871   -0.4493   -0.8192 N   0  0  0  0  0  0  0  0  0  0  0  0
    0.2312    0.7858   -1.1811 C   0  0  0  0  0  0  0  0  0  0  0  0
    1.5321    0.9175   -0.3945 C   0  0  0  0  0  0  0  0  0  0  0  0
    2.4358   -0.2932   -0.6271 C   0  0  0  0  0  0  0  0  0  0  0  0
    3.5657   -0.2601    0.2524 O   0  0  0  0  0  0  0  0  0  0  0  0
    4.6360    0.4958   -0.1827 C   0  0  0  0  0  0  0  0  0  0  0  0
    4.5658    1.1472   -1.3691 N   0  0  0  0  0  0  0  0  0  0  0  0
    5.6507    1.8715   -1.7272 C   0  0  0  0  0  0  0  0  0  0  0  0
    6.8019    1.9764   -0.9590 C   0  0  0  0  0  0  0  0  0  0  0  0
    6.8490    1.2975    0.2545 C   0  0  0  0  0  0  0  0  0  0  0  0
    5.7495    0.5465    0.6478 C   0  0  0  0  0  0  0  0  0  0  0  0
    5.7829   -0.1122    1.8150 F   0  0  0  0  0  0  0  0  0  0  0  0
    1.6543   -1.5696   -0.3126 C   0  0  0  0  0  0  0  0  0  0  0  0
    0.3533   -1.6230   -1.1083 C   0  0  0  0  0  0  0  0  0  0  0  0
   -3.3833   -0.4114    0.5303 N   0  0  0  0  0  0  0  0  0  0  0  0
   -2.4193   -0.4998    1.6483 C   0  0  0  0  0  0  0  0  0  0  0  0
   -1.8774    0.8586    2.1293 C   0  0  0  0  0  0  0  0  0  0  0  0
   -2.9051    1.7762    2.5208 O   0  0  0  0  0  0  0  0  0  0  0  0
   -4.1056    1.6247    1.7561 C   0  0  0  0  0  0  0  0  0  0  0  0
   -3.8843    0.9662    0.3830 C   0  0  0  0  0  0  0  0  0  0  0  0
   -4.0605   -1.7165   -2.5726 H   0  0  0  0  0  0  0  0  0  0  0  0
   -5.1498   -1.4135   -1.2158 H   0  0  0  0  0  0  0  0  0  0  0  0
   -4.4061   -0.0608   -2.0905 H   0  0  0  0  0  0  0  0  0  0  0  0
   -2.0114   -2.8302    0.2810 H   0  0  0  0  0  0  0  0  0  0  0  0
   -3.7321   -3.0611    0.0079 H   0  0  0  0  0  0  0  0  0  0  0  0
   -2.5986   -3.1843   -1.3402 H   0  0  0  0  0  0  0  0  0  0  0  0
   -1.6702   -1.0618   -2.4702 H   0  0  0  0  0  0  0  0  0  0  0  0
   -2.0840    0.4931   -1.8262 H   0  0  0  0  0  0  0  0  0  0  0  0
   -0.3891    1.6596   -0.9471 H   0  0  0  0  0  0  0  0  0  0  0  0
    0.4401    0.8142   -2.2587 H   0  0  0  0  0  0  0  0  0  0  0  0
    2.0443    1.8418   -0.6845 H   0  0  0  0  0  0  0  0  0  0  0  0
    1.3190    1.0224    0.6778 H   0  0  0  0  0  0  0  0  0  0  0  0
    2.7475   -0.3536   -1.6789 H   0  0  0  0  0  0  0  0  0  0  0  0
    5.5689    2.3845   -2.6819 H   0  0  0  0  0  0  0  0  0  0  0  0
    7.6414    2.5734   -1.2987 H   0  0  0  0  0  0  0  0  0  0  0  0
    7.7250    1.3471    0.8920 H   0  0  0  0  0  0  0  0  0  0  0  0
    1.4440   -1.6284    0.7640 H   0  0  0  0  0  0  0  0  0  0  0  0
    2.2725   -2.4460   -0.5430 H   0  0  0  0  0  0  0  0  0  0  0  0
    0.5807   -1.6849   -2.1810 H   0  0  0  0  0  0  0  0  0  0  0  0
   -0.1610   -2.5490   -0.8404 H   0  0  0  0  0  0  0  0  0  0  0  0
   -1.5702   -1.1559    1.4457 H   0  0  0  0  0  0  0  0  0  0  0  0
   -2.9628   -0.9588    2.4839 H   0  0  0  0  0  0  0  0  0  0  0  0
   -1.2757    1.3406    1.3528 H   0  0  0  0  0  0  0  0  0  0  0  0
   -1.2242    0.7125    2.9958 H   0  0  0  0  0  0  0  0  0  0  0  0
   -4.8154    1.0403    2.3537 H   0  0  0  0  0  0  0  0  0  0  0  0
   -4.5383    2.6222    1.6268 H   0  0  0  0  0  0  0  0  0  0  0  0
   -4.8449    0.9675   -0.1415 H   0  0  0  0  0  0  0  0  0  0  0  0
   -3.1783    1.5782   -0.1894 H   0  0  0  0  0  0  0  0  0  0  0  0
  1  2  1  0
  2  3  1  0
  2  4  1  0
  4  5  1  0
  5  6  1  0
  6  7  1  0
  7  8  1  0
  8  9  1  0
  9 10  1  0
 10 11  1  0
 11 12  2  0
 12 13  1  0
 13 14  2  0
 14 15  1  0
 15 16  1  0
  8 17  1  0
 17 18  1  0
  2 19  1  0
 19 20  1  0
 20 21  1  0
 21 22  1  0
 22 23  1  0
 23 24  1  0
 18  5  1  0
 24 19  1  0
 15 10  2  0
  1 25  1  0
  1 26  1  0
  1 27  1  0
  3 28  1  0
  3 29  1  0
  3 30  1  0
  4 31  1  0
  4 32  1  0
  6 33  1  0
  6 34  1  0
  7 35  1  0
  7 36  1  0
  8 37  1  0
 12 38  1  0
 13 39  1  0
 14 40  1  0
 17 41  1  0
 17 42  1  0
 18 43  1  0
 18 44  1  0
 20 45  1  0
 20 46  1  0
 21 47  1  0
 21 48  1  0
 23 49  1  0
 23 50  1  0
 24 51  1  0
 24 52  1  0
M  END
$$$$
OCNT-2318057
     RDKit          3D

 48 50  0  0  0  0  0  0  0  0999 V2000
   -2.2114    1.0616   -3.0475 C   0  0  0  0  0  0  0  0  0  0  0  0
   -1.4974    0.6678   -1.7858 C   0  0  0  0  0  0  0  0  0  0  0  0
   -0.0937    0.6288   -1.7693 C   0  0  0  0  0  0  0  0  0  0  0  0
    0.5901    0.2830   -0.6064 C   0  0  0  0  0  0  0  0  0  0  0  0
    1.9996    0.2676   -0.6505 N   0  0  0  0  0  0  0  0  0  0  0  0
    2.8582   -0.0424    0.3904 C   0  0  0  0  0  0  0  0  0  0  0  0
    2.5284   -0.3626    1.5259 O   0  0  0  0  0  0  0  0  0  0  0  0
    4.3095    0.0404   -0.0398 C   0  0  0  0  0  0  0  0  0  0  0  0
    5.2597   -0.2033    1.1288 C   0  0  0  0  0  0  0  0  0  0  0  0
    6.6848   -0.1931    0.7102 C   0  0  0  0  0  0  0  0  0  0  0  0
    7.7073   -1.0499    1.0509 C   0  0  0  0  0  0  0  0  0  0  0  0
    8.7870   -0.5551    0.3850 N   0  0  0  0  0  0  0  0  0  0  0  0
    8.4641    0.5309   -0.3315 N   0  0  0  0  0  0  0  0  0  0  0  0
    7.1755    0.7703   -0.1329 N   0  0  0  0  0  0  0  0  0  0  0  0
   -0.1833   -0.0164    0.5039 C   0  0  0  0  0  0  0  0  0  0  0  0
   -1.5409   -0.0005    0.5146 N   0  0  0  0  0  0  0  0  0  0  0  0
   -2.1965    0.3277   -0.6167 C   0  0  0  0  0  0  0  0  0  0  0  0
   -3.6010    0.3157   -0.6322 N   0  0  0  0  0  0  0  0  0  0  0  0
   -4.1179   -0.9887   -1.0844 C   0  0  0  0  0  0  0  0  0  0  0  0
   -4.1437   -2.0227    0.0428 C   0  0  0  0  0  0  0  0  0  0  0  0
   -4.9085   -1.5051    1.2568 C   0  0  0  0  0  0  0  0  0  0  0  0
   -4.3676   -0.1538    1.7184 C   0  0  0  0  0  0  0  0  0  0  0  0
   -4.3074    0.8478    0.5567 C   0  0  0  0  0  0  0  0  0  0  0  0
   -3.7884    2.2178    0.9957 C   0  0  0  0  0  0  0  0  0  0  0  0
   -2.6127    0.1767   -3.5501 H   0  0  0  0  0  0  0  0  0  0  0  0
   -3.0264    1.7612   -2.8348 H   0  0  0  0  0  0  0  0  0  0  0  0
   -1.5342    1.5683   -3.7437 H   0  0  0  0  0  0  0  0  0  0  0  0
    0.4527    0.8805   -2.6740 H   0  0  0  0  0  0  0  0  0  0  0  0
    2.4228    0.5191   -1.5359 H   0  0  0  0  0  0  0  0  0  0  0  0
    4.4868    1.0331   -0.4717 H   0  0  0  0  0  0  0  0  0  0  0  0
    4.4770   -0.7061   -0.8262 H   0  0  0  0  0  0  0  0  0  0  0  0
    5.1112    0.5661    1.8966 H   0  0  0  0  0  0  0  0  0  0  0  0
    5.0280   -1.1660    1.6018 H   0  0  0  0  0  0  0  0  0  0  0  0
    7.7600   -1.9233    1.6829 H   0  0  0  0  0  0  0  0  0  0  0  0
    9.7447   -0.8861    0.3647 H   0  0  0  0  0  0  0  0  0  0  0  0
    0.2480   -0.2918    1.4598 H   0  0  0  0  0  0  0  0  0  0  0  0
   -5.1394   -0.8384   -1.4568 H   0  0  0  0  0  0  0  0  0  0  0  0
   -3.5454   -1.3829   -1.9331 H   0  0  0  0  0  0  0  0  0  0  0  0
   -3.1216   -2.2848    0.3401 H   0  0  0  0  0  0  0  0  0  0  0  0
   -4.6126   -2.9450   -0.3188 H   0  0  0  0  0  0  0  0  0  0  0  0
   -4.8452   -2.2306    2.0754 H   0  0  0  0  0  0  0  0  0  0  0  0
   -5.9705   -1.4037    1.0014 H   0  0  0  0  0  0  0  0  0  0  0  0
   -3.3818   -0.2942    2.1740 H   0  0  0  0  0  0  0  0  0  0  0  0
   -5.0161    0.2389    2.5111 H   0  0  0  0  0  0  0  0  0  0  0  0
   -5.3442    1.0178    0.2322 H   0  0  0  0  0  0  0  0  0  0  0  0
   -4.4563    2.6550    1.7459 H   0  0  0  0  0  0  0  0  0  0  0  0
   -3.7402    2.9080    0.1464 H   0  0  0  0  0  0  0  0  0  0  0  0
   -2.7909    2.1625    1.4422 H   0  0  0  0  0  0  0  0  0  0  0  0
  1  2  1  0
  2  3  1  0
  3  4  2  0
  4  5  1  0
  5  6  1  0
  6  7  2  0
  6  8  1  0
  8  9  1  0
  9 10  1  0
 10 11  2  0
 11 12  1  0
 12 13  1  0
 13 14  2  0
  4 15  1  0
 15 16  2  0
 16 17  1  0
 17 18  1  0
 18 19  1  0
 19 20  1  0
 20 21  1  0
 21 22  1  0
 22 23  1  0
 23 24  1  0
 17  2  2  0
 23 18  1  0
 14 10  1  0
  1 25  1  0
  1 26  1  0
  1 27  1  0
  3 28  1  0
  5 29  1  0
  8 30  1  0
  8 31  1  0
  9 32  1  0
  9 33  1  0
 11 34  1  0
 12 35  1  0
 15 36  1  0
 19 37  1  0
 19 38  1  0
 20 39  1  0
 20 40  1  0
 21 41  1  0
 21 42  1  0
 22 43  1  0
 22 44  1  0
 23 45  1  0
 24 46  1  0
 24 47  1  0
 24 48  1  0
M  END
$$$$
OCNT-2318067
     RDKit          3D

 51 53  0  0  0  0  0  0  0  0999 V2000
    6.5941    1.1841   -1.0019 C   0  0  0  0  0  0  0  0  0  0  0  0
    5.4516    0.6906   -0.1212 C   0  0  0  0  0  0  0  0  0  0  0  0
    4.8627    1.8461    0.6828 C   0  0  0  0  0  0  0  0  0  0  0  0
    4.3893    0.1265   -0.9605 N   0  0  0  0  0  0  0  0  0  0  0  0
    4.3893   -1.4980   -1.3613 S   0  0  0  0  0  0  0  0  0  0  0  0
    3.6216   -1.6010   -2.5846 O   0  0  0  0  0  0  0  0  0  0  0  0
    5.7572   -1.9695   -1.3114 O   0  0  0  0  0  0  0  0  0  0  0  0
    3.4764   -2.2775   -0.0195 C   0  0  0  0  0  0  0  0  0  0  0  0
    2.1458   -1.6085    0.2102 C   0  0  0  0  0  0  0  0  0  0  0  0
    1.0783   -1.8053   -0.6758 C   0  0  0  0  0  0  0  0  0  0  0  0
   -0.1547   -1.1895   -0.4513 C   0  0  0  0  0  0  0  0  0  0  0  0
   -0.3488   -0.3651    0.6648 C   0  0  0  0  0  0  0  0  0  0  0  0
   -1.6926    0.2912    0.9034 C   0  0  0  0  0  0  0  0  0  0  0  0
   -2.6611   -0.7018    1.3589 N   0  0  0  0  0  0  0  0  0  0  0  0
   -4.0556   -0.2877    1.5496 C   0  0  0  0  0  0  0  0  0  0  0  0
   -4.2163    1.1102    2.1968 C   0  0  0  0  0  0  0  0  0  0  0  0
   -4.5559    1.6981    0.7992 C   0  0  0  0  0  0  0  0  0  0  0  0
   -4.7156    0.2681    0.3137 C   0  0  0  0  0  0  0  0  0  0  0  0
   -6.1468   -0.1816    0.0373 C   0  0  0  0  0  0  0  0  0  0  0  0
   -5.8257    0.0187   -1.4624 C   0  0  0  0  0  0  0  0  0  0  0  0
   -4.3251   -0.0974   -1.0987 C   0  0  0  0  0  0  0  0  0  0  0  0
    0.7113   -0.1810    1.5607 C   0  0  0  0  0  0  0  0  0  0  0  0
    1.9454   -0.7968    1.3355 C   0  0  0  0  0  0  0  0  0  0  0  0
    7.3893    1.6281   -0.3939 H   0  0  0  0  0  0  0  0  0  0  0  0
    7.0340    0.3664   -1.5814 H   0  0  0  0  0  0  0  0  0  0  0  0
    6.2492    1.9411   -1.7153 H   0  0  0  0  0  0  0  0  0  0  0  0
    5.8193   -0.0639    0.5830 H   0  0  0  0  0  0  0  0  0  0  0  0
    5.6228    2.3001    1.3270 H   0  0  0  0  0  0  0  0  0  0  0  0
    4.4608    2.6269    0.0271 H   0  0  0  0  0  0  0  0  0  0  0  0
    4.0436    1.5003    1.3215 H   0  0  0  0  0  0  0  0  0  0  0  0
    3.9551    0.7180   -1.6695 H   0  0  0  0  0  0  0  0  0  0  0  0
    3.3393   -3.3309   -0.2848 H   0  0  0  0  0  0  0  0  0  0  0  0
    4.1102   -2.2343    0.8725 H   0  0  0  0  0  0  0  0  0  0  0  0
    1.1960   -2.4376   -1.5548 H   0  0  0  0  0  0  0  0  0  0  0  0
   -0.9725   -1.3596   -1.1493 H   0  0  0  0  0  0  0  0  0  0  0  0
   -1.5625    1.0897    1.6411 H   0  0  0  0  0  0  0  0  0  0  0  0
   -1.9895    0.7675   -0.0349 H   0  0  0  0  0  0  0  0  0  0  0  0
   -2.2691   -1.1763    2.1718 H   0  0  0  0  0  0  0  0  0  0  0  0
   -4.6384   -1.0657    2.0560 H   0  0  0  0  0  0  0  0  0  0  0  0
   -3.3634    1.5544    2.7151 H   0  0  0  0  0  0  0  0  0  0  0  0
   -5.0705    1.1567    2.8855 H   0  0  0  0  0  0  0  0  0  0  0  0
   -5.4477    2.3315    0.7734 H   0  0  0  0  0  0  0  0  0  0  0  0
   -3.7308    2.2539    0.3419 H   0  0  0  0  0  0  0  0  0  0  0  0
   -6.9540    0.4416    0.4318 H   0  0  0  0  0  0  0  0  0  0  0  0
   -6.3520   -1.2271    0.2963 H   0  0  0  0  0  0  0  0  0  0  0  0
   -6.1102    1.0059   -1.8445 H   0  0  0  0  0  0  0  0  0  0  0  0
   -6.2111   -0.7498   -2.1371 H   0  0  0  0  0  0  0  0  0  0  0  0
   -3.6722    0.5966   -1.6343 H   0  0  0  0  0  0  0  0  0  0  0  0
   -3.9340   -1.1147   -1.2151 H   0  0  0  0  0  0  0  0  0  0  0  0
    0.5836    0.4435    2.4420 H   0  0  0  0  0  0  0  0  0  0  0  0
    2.7498   -0.6350    2.0497 H   0  0  0  0  0  0  0  0  0  0  0  0
  1  2  1  0
  2  3  1  0
  2  4  1  0
  4  5  1  0
  5  6  2  0
  5  7  2  0
  5  8  1  0
  8  9  1  0
  9 10  1  0
 10 11  2  0
 11 12  1  0
 12 13  1  0
 13 14  1  0
 14 15  1  0
 15 16  1  0
 16 17  1  0
 17 18  1  0
 18 19  1  0
 19 20  1  0
 20 21  1  0
 12 22  2  0
 22 23  1  0
 23  9  2  0
 18 15  1  0
 21 18  1  0
  1 24  1  0
  1 25  1  0
  1 26  1  0
  2 27  1  0
  3 28  1  0
  3 29  1  0
  3 30  1  0
  4 31  1  0
  8 32  1  0
  8 33  1  0
 10 34  1  0
 11 35  1  0
 13 36  1  0
 13 37  1  0
 14 38  1  0
 15 39  1  0
 16 40  1  0
 16 41  1  0
 17 42  1  0
 17 43  1  0
 19 44  1  0
 19 45  1  0
 20 46  1  0
 20 47  1  0
 21 48  1  0
 21 49  1  0
 22 50  1  0
 23 51  1  0
M  END
$$$$
OCNT-2318082
     RDKit          3D

 41 43  0  0  0  0  0  0  0  0999 V2000
    5.9815    1.5115    0.9219 C   0  0  0  0  0  0  0  0  0  0  0  0
    4.7332    0.7491    0.6132 C   0  0  0  0  0  0  0  0  0  0  0  0
    3.7991    1.2266   -0.3047 C   0  0  0  0  0  0  0  0  0  0  0  0
    2.6296    0.5070   -0.5377 C   0  0  0  0  0  0  0  0  0  0  0  0
    2.4159   -0.6793    0.1593 C   0  0  0  0  0  0  0  0  0  0  0  0
    1.1383   -1.4725   -0.0448 C   0  0  0  0  0  0  0  0  0  0  0  0
    0.0476   -1.0131    0.8370 N   0  0  0  0  0  0  0  0  0  0  0  0
   -0.8005   -0.1211    0.2727 C   0  0  0  0  0  0  0  0  0  0  0  0
   -0.5600    1.1523    0.0859 N   0  0  0  0  0  0  0  0  0  0  0  0
   -1.6798    1.6536   -0.5210 C   0  0  0  0  0  0  0  0  0  0  0  0
   -1.9410    2.9619   -0.9561 C   0  0  0  0  0  0  0  0  0  0  0  0
   -3.1710    3.2402   -1.5617 C   0  0  0  0  0  0  0  0  0  0  0  0
   -4.1235    2.2351   -1.7299 C   0  0  0  0  0  0  0  0  0  0  0  0
   -3.8818    0.9248   -1.2993 C   0  0  0  0  0  0  0  0  0  0  0  0
   -2.6436    0.6637   -0.6953 C   0  0  0  0  0  0  0  0  0  0  0  0
   -2.0663   -0.4686   -0.1497 N   0  0  0  0  0  0  0  0  0  0  0  0
   -2.7230   -1.7654   -0.0173 C   0  0  0  0  0  0  0  0  0  0  0  0
   -2.8553   -2.2215    1.4372 C   0  0  0  0  0  0  0  0  0  0  0  0
   -2.0884   -2.8421   -0.8971 C   0  0  0  0  0  0  0  0  0  0  0  0
    3.2992   -1.1498    1.0777 N   0  0  0  0  0  0  0  0  0  0  0  0
    4.4260   -0.4295    1.2816 C   0  0  0  0  0  0  0  0  0  0  0  0
    6.7916    0.8341    1.2118 H   0  0  0  0  0  0  0  0  0  0  0  0
    6.3244    2.0708    0.0450 H   0  0  0  0  0  0  0  0  0  0  0  0
    5.7994    2.2150    1.7400 H   0  0  0  0  0  0  0  0  0  0  0  0
    3.9663    2.1612   -0.8336 H   0  0  0  0  0  0  0  0  0  0  0  0
    1.8851    0.8820   -1.2342 H   0  0  0  0  0  0  0  0  0  0  0  0
    1.3447   -2.5205    0.2040 H   0  0  0  0  0  0  0  0  0  0  0  0
    0.8468   -1.4621   -1.1035 H   0  0  0  0  0  0  0  0  0  0  0  0
    0.5235   -0.5862    1.6358 H   0  0  0  0  0  0  0  0  0  0  0  0
   -1.1950    3.7367   -0.8193 H   0  0  0  0  0  0  0  0  0  0  0  0
   -3.3840    4.2506   -1.9020 H   0  0  0  0  0  0  0  0  0  0  0  0
   -5.0743    2.4738   -2.2024 H   0  0  0  0  0  0  0  0  0  0  0  0
   -4.6332    0.1550   -1.4350 H   0  0  0  0  0  0  0  0  0  0  0  0
   -3.7461   -1.6283   -0.3860 H   0  0  0  0  0  0  0  0  0  0  0  0
   -3.2980   -1.4334    2.0560 H   0  0  0  0  0  0  0  0  0  0  0  0
   -1.8900   -2.4906    1.8766 H   0  0  0  0  0  0  0  0  0  0  0  0
   -3.5016   -3.1036    1.5029 H   0  0  0  0  0  0  0  0  0  0  0  0
   -2.7220   -3.7353   -0.9230 H   0  0  0  0  0  0  0  0  0  0  0  0
   -1.9642   -2.4875   -1.9260 H   0  0  0  0  0  0  0  0  0  0  0  0
   -1.1072   -3.1508   -0.5262 H   0  0  0  0  0  0  0  0  0  0  0  0
    5.0976   -0.8437    2.0292 H   0  0  0  0  0  0  0  0  0  0  0  0
  1  2  1  0
  2  3  2  0
  3  4  1  0
  4  5  2  0
  5  6  1  0
  6  7  1  0
  7  8  1  0
  8  9  2  0
  9 10  1  0
 10 11  2  0
 11 12  1  0
 12 13  2  0
 13 14  1  0
 14 15  2  0
 15 16  1  0
 16 17  1  0
 17 18  1  0
 17 19  1  0
  5 20  1  0
 20 21  2  0
 21  2  1  0
 16  8  1  0
 15 10  1  0
  1 22  1  0
  1 23  1  0
  1 24  1  0
  3 25  1  0
  4 26  1  0
  6 27  1  0
  6 28  1  0
  7 29  1  0
 11 30  1  0
 12 31  1  0
 13 32  1  0
 14 33  1  0
 17 34  1  0
 18 35  1  0
 18 36  1  0
 18 37  1  0
 19 38  1  0
 19 39  1  0
 19 40  1  0
 21 41  1  0
M  END
$$$$
OCNT-2318089
     RDKit          3D

 40 41  0  0  0  0  0  0  0  0999 V2000
   -5.8100   -0.7513    1.2746 C   0  0  0  0  0  0  0  0  0  0  0  0
   -4.5803   -0.7609    0.3758 C   0  0  0  0  0  0  0  0  0  0  0  0
   -3.4239    0.0977    0.9178 C   0  0  0  0  0  0  0  0  0  0  0  0
   -3.8109    1.5904    1.0172 C   0  0  0  0  0  0  0  0  0  0  0  0
   -2.6612    2.3596    1.3749 O   0  0  0  0  0  0  0  0  0  0  0  0
   -2.2284    0.0198    0.0486 N   0  0  0  0  0  0  0  0  0  0  0  0
   -1.4340   -1.1871    0.2871 C   0  0  0  0  0  0  0  0  0  0  0  0
   -0.2561   -1.2136   -0.6221 C   0  0  0  0  0  0  0  0  0  0  0  0
   -0.0540   -1.7064   -1.8934 C   0  0  0  0  0  0  0  0  0  0  0  0
    1.2973   -1.4297   -2.2165 C   0  0  0  0  0  0  0  0  0  0  0  0
    1.8466   -0.7804   -1.1270 C   0  0  0  0  0  0  0  0  0  0  0  0
    3.1670   -0.2351   -0.8176 C   0  0  0  0  0  0  0  0  0  0  0  0
    4.2390   -0.4156   -1.7040 C   0  0  0  0  0  0  0  0  0  0  0  0
    5.5034    0.1065   -1.4191 C   0  0  0  0  0  0  0  0  0  0  0  0
    5.7167    0.8175   -0.2395 C   0  0  0  0  0  0  0  0  0  0  0  0
    4.6688    1.0073    0.6717 C   0  0  0  0  0  0  0  0  0  0  0  0
    4.8819    1.7916    1.9426 C   0  0  0  0  0  0  0  0  0  0  0  0
    4.1820    1.2958    3.0008 F   0  0  0  0  0  0  0  0  0  0  0  0
    6.1849    1.8181    2.3430 F   0  0  0  0  0  0  0  0  0  0  0  0
    4.5050    3.0939    1.8186 F   0  0  0  0  0  0  0  0  0  0  0  0
    3.3993    0.4834    0.3672 C   0  0  0  0  0  0  0  0  0  0  0  0
    0.8948   -0.6531   -0.1532 O   0  0  0  0  0  0  0  0  0  0  0  0
   -6.5596   -1.4511    0.8902 H   0  0  0  0  0  0  0  0  0  0  0  0
   -6.2737    0.2388    1.3114 H   0  0  0  0  0  0  0  0  0  0  0  0
   -5.5541   -1.0552    2.2948 H   0  0  0  0  0  0  0  0  0  0  0  0
   -4.2546   -1.8018    0.2680 H   0  0  0  0  0  0  0  0  0  0  0  0
   -4.8699   -0.4174   -0.6255 H   0  0  0  0  0  0  0  0  0  0  0  0
   -3.1471   -0.2345    1.9275 H   0  0  0  0  0  0  0  0  0  0  0  0
   -4.5714    1.7567    1.7849 H   0  0  0  0  0  0  0  0  0  0  0  0
   -4.1882    1.9712    0.0619 H   0  0  0  0  0  0  0  0  0  0  0  0
   -1.9198    1.9141    0.9125 H   0  0  0  0  0  0  0  0  0  0  0  0
   -2.5054    0.0527   -0.9323 H   0  0  0  0  0  0  0  0  0  0  0  0
   -2.0282   -2.0909    0.1156 H   0  0  0  0  0  0  0  0  0  0  0  0
   -1.0855   -1.2104    1.3264 H   0  0  0  0  0  0  0  0  0  0  0  0
   -0.7891   -2.2037   -2.5102 H   0  0  0  0  0  0  0  0  0  0  0  0
    1.8058   -1.6735   -3.1379 H   0  0  0  0  0  0  0  0  0  0  0  0
    4.1047   -0.9675   -2.6316 H   0  0  0  0  0  0  0  0  0  0  0  0
    6.3214   -0.0422   -2.1202 H   0  0  0  0  0  0  0  0  0  0  0  0
    6.7062    1.2225   -0.0312 H   0  0  0  0  0  0  0  0  0  0  0  0
    2.5808    0.6437    1.0704 H   0  0  0  0  0  0  0  0  0  0  0  0
  1  2  1  0
  2  3  1  0
  3  4  1  0
  4  5  1  0
  3  6  1  0
  6  7  1  0
  7  8  1  0
  8  9  2  0
  9 10  1  0
 10 11  2  0
 11 12  1  0
 12 13  1  0
 13 14  2  0
 14 15  1  0
 15 16  2  0
 16 17  1  0
 17 18  1  0
 17 19  1  0
 17 20  1  0
 16 21  1  0
 11 22  1  0
 22  8  1  0
 21 12  2  0
  1 23  1  0
  1 24  1  0
  1 25  1  0
  2 26  1  0
  2 27  1  0
  3 28  1  0
  4 29  1  0
  4 30  1  0
  5 31  1  0
  6 32  1  0
  7 33  1  0
  7 34  1  0
  9 35  1  0
 10 36  1  0
 13 37  1  0
 14 38  1  0
 15 39  1  0
 21 40  1  0
M  END
$$$$
OCNT-2318090
     RDKit          3D

 44 46  0  0  0  0  0  0  0  0999 V2000
    0.2586   -1.3284   -2.9478 C   0  0  0  0  0  0  0  0  0  0  0  0
    0.9549   -0.9721   -1.6858 C   0  0  0  0  0  0  0  0  0  0  0  0
    2.1948   -0.4876   -1.7208 N   0  0  0  0  0  0  0  0  0  0  0  0
    2.5048   -0.1736   -0.4352 N   0  0  0  0  0  0  0  0  0  0  0  0
    3.7277    0.5309   -0.1865 C   0  0  0  0  0  0  0  0  0  0  0  0
    3.9967    1.1818    1.0235 C   0  0  0  0  0  0  0  0  0  0  0  0
    5.2087    1.8604    1.2103 C   0  0  0  0  0  0  0  0  0  0  0  0
    6.1533    1.9024    0.1881 C   0  0  0  0  0  0  0  0  0  0  0  0
    7.6371    2.7382    0.4274 Cl  0  0  0  0  0  0  0  0  0  0  0  0
    5.8952    1.2799   -1.0276 C   0  0  0  0  0  0  0  0  0  0  0  0
    4.6860    0.6033   -1.2164 C   0  0  0  0  0  0  0  0  0  0  0  0
    1.5154   -0.6302    0.4354 C   0  0  0  0  0  0  0  0  0  0  0  0
    1.6049   -0.6395    1.9187 C   0  0  0  0  0  0  0  0  0  0  0  0
    0.4774   -1.1036   -0.3617 C   0  0  0  0  0  0  0  0  0  0  0  0
   -0.8419   -1.6624    0.0569 C   0  0  0  0  0  0  0  0  0  0  0  0
   -1.7852   -0.5527    0.1345 N   0  0  0  0  0  0  0  0  0  0  0  0
   -3.0903   -1.0100    0.6029 C   0  0  0  0  0  0  0  0  0  0  0  0
   -4.0531    0.1602    0.5580 C   0  0  0  0  0  0  0  0  0  0  0  0
   -4.5767    0.4841   -0.8222 C   0  0  0  0  0  0  0  0  0  0  0  0
   -5.5466   -0.4873   -1.1990 O   0  0  0  0  0  0  0  0  0  0  0  0
   -4.9977    0.3598    1.7335 C   0  0  0  0  0  0  0  0  0  0  0  0
   -3.8477    1.3018    1.5423 C   0  0  0  0  0  0  0  0  0  0  0  0
    0.1351   -2.4136   -3.0199 H   0  0  0  0  0  0  0  0  0  0  0  0
   -0.7318   -0.8635   -2.9844 H   0  0  0  0  0  0  0  0  0  0  0  0
    0.8195   -0.9915   -3.8258 H   0  0  0  0  0  0  0  0  0  0  0  0
    3.2802    1.2281    1.8329 H   0  0  0  0  0  0  0  0  0  0  0  0
    5.4019    2.3648    2.1539 H   0  0  0  0  0  0  0  0  0  0  0  0
    6.6226    1.3152   -1.8341 H   0  0  0  0  0  0  0  0  0  0  0  0
    4.5080    0.1232   -2.1783 H   0  0  0  0  0  0  0  0  0  0  0  0
    2.6054   -0.9193    2.2615 H   0  0  0  0  0  0  0  0  0  0  0  0
    1.3285    0.3360    2.3295 H   0  0  0  0  0  0  0  0  0  0  0  0
    0.9191   -1.3754    2.3504 H   0  0  0  0  0  0  0  0  0  0  0  0
   -1.1818   -2.4047   -0.6747 H   0  0  0  0  0  0  0  0  0  0  0  0
   -0.7508   -2.1726    1.0221 H   0  0  0  0  0  0  0  0  0  0  0  0
   -1.4211    0.1476    0.7770 H   0  0  0  0  0  0  0  0  0  0  0  0
   -3.0054   -1.4001    1.6246 H   0  0  0  0  0  0  0  0  0  0  0  0
   -3.4719   -1.8209   -0.0287 H   0  0  0  0  0  0  0  0  0  0  0  0
   -5.0529    1.4700   -0.8589 H   0  0  0  0  0  0  0  0  0  0  0  0
   -3.7740    0.4770   -1.5660 H   0  0  0  0  0  0  0  0  0  0  0  0
   -6.2695   -0.4249   -0.5536 H   0  0  0  0  0  0  0  0  0  0  0  0
   -5.9941    0.7472    1.5506 H   0  0  0  0  0  0  0  0  0  0  0  0
   -4.9513   -0.3352    2.5649 H   0  0  0  0  0  0  0  0  0  0  0  0
   -4.0636    2.3131    1.2149 H   0  0  0  0  0  0  0  0  0  0  0  0
   -3.0284    1.2440    2.2503 H   0  0  0  0  0  0  0  0  0  0  0  0
  1  2  1  0
  2  3  2  0
  3  4  1  0
  4  5  1  0
  5  6  1  0
  6  7  2  0
  7  8  1  0
  8  9  1  0
  8 10  2  0
 10 11  1  0
  4 12  1  0
 12 13  1  0
 12 14  2  0
 14 15  1  0
 15 16  1  0
 16 17  1  0
 17 18  1  0
 18 19  1  0
 19 20  1  0
 18 21  1  0
 21 22  1  0
 14  2  1  0
 22 18  1  0
 11  5  2  0
  1 23  1  0
  1 24  1  0
  1 25  1  0
  6 26  1  0
  7 27  1  0
 10 28  1  0
 11 29  1  0
 13 30  1  0
 13 31  1  0
 13 32  1  0
 15 33  1  0
 15 34  1  0
 16 35  1  0
 17 36  1  0
 17 37  1  0
 19 38  1  0
 19 39  1  0
 20 40  1  0
 21 41  1  0
 21 42  1  0
 22 43  1  0
 22 44  1  0
M  END
$$$$
OCNT-2318091
     RDKit          3D

 48 50  0  0  0  0  0  0  0  0999 V2000
    6.3136    0.0627    0.8094 C   0  0  0  0  0  0  0  0  0  0  0  0
    4.9767   -0.4577    0.3123 C   0  0  0  0  0  0  0  0  0  0  0  0
    3.9157    0.3950    0.7351 O   0  0  0  0  0  0  0  0  0  0  0  0
    3.6781    1.5051   -0.1280 C   0  0  0  0  0  0  0  0  0  0  0  0
    2.6788    1.1813   -1.2622 C   0  0  0  0  0  0  0  0  0  0  0  0
    1.2703    0.8832   -0.9467 N   0  0  0  0  0  0  0  0  0  0  0  0
    0.8172    1.2816    0.3982 C   0  0  0  0  0  0  0  0  0  0  0  0
   -0.7110    1.1208    0.5937 C   0  0  0  0  0  0  0  0  0  0  0  0
   -1.1481   -0.2315    0.2024 N   0  0  0  0  0  0  0  0  0  0  0  0
   -2.4474   -0.6117    0.5868 C   0  0  0  0  0  0  0  0  0  0  0  0
   -2.5559   -1.6009    1.5818 C   0  0  0  0  0  0  0  0  0  0  0  0
   -1.4162   -2.2182    2.1888 C   0  0  0  0  0  0  0  0  0  0  0  0
   -0.5286   -2.7560    2.7107 N   0  0  0  0  0  0  0  0  0  0  0  0
   -3.8126   -1.9963    1.9878 C   0  0  0  0  0  0  0  0  0  0  0  0
   -4.9559   -1.4915    1.4861 N   0  0  0  0  0  0  0  0  0  0  0  0
   -4.8935   -0.5427    0.5271 C   0  0  0  0  0  0  0  0  0  0  0  0
   -6.0777   -0.0089   -0.0071 C   0  0  0  0  0  0  0  0  0  0  0  0
   -7.6299   -0.5532    0.5523 Cl  0  0  0  0  0  0  0  0  0  0  0  0
   -6.0782    0.9720   -1.0013 C   0  0  0  0  0  0  0  0  0  0  0  0
   -4.8746    1.4459   -1.4894 C   0  0  0  0  0  0  0  0  0  0  0  0
   -3.6829    0.9350   -0.9779 C   0  0  0  0  0  0  0  0  0  0  0  0
   -3.6511   -0.0614    0.0341 C   0  0  0  0  0  0  0  0  0  0  0  0
   -0.7072   -0.6500   -1.1416 C   0  0  0  0  0  0  0  0  0  0  0  0
    0.8378   -0.4946   -1.2900 C   0  0  0  0  0  0  0  0  0  0  0  0
    1.5557   -1.6075   -0.5135 C   0  0  0  0  0  0  0  0  0  0  0  0
    6.5477    1.0393    0.3753 H   0  0  0  0  0  0  0  0  0  0  0  0
    6.2944    0.1937    1.8963 H   0  0  0  0  0  0  0  0  0  0  0  0
    7.1183   -0.6320    0.5520 H   0  0  0  0  0  0  0  0  0  0  0  0
    4.9783   -0.5803   -0.7761 H   0  0  0  0  0  0  0  0  0  0  0  0
    4.7936   -1.4421    0.7552 H   0  0  0  0  0  0  0  0  0  0  0  0
    4.6183    1.8635   -0.5636 H   0  0  0  0  0  0  0  0  0  0  0  0
    3.3018    2.3276    0.4883 H   0  0  0  0  0  0  0  0  0  0  0  0
    3.1028    0.3893   -1.8911 H   0  0  0  0  0  0  0  0  0  0  0  0
    2.6512    2.0696   -1.9064 H   0  0  0  0  0  0  0  0  0  0  0  0
    1.3304    0.7013    1.1732 H   0  0  0  0  0  0  0  0  0  0  0  0
    1.0504    2.3390    0.5692 H   0  0  0  0  0  0  0  0  0  0  0  0
   -1.2202    1.8888    0.0027 H   0  0  0  0  0  0  0  0  0  0  0  0
   -0.9487    1.3038    1.6490 H   0  0  0  0  0  0  0  0  0  0  0  0
   -3.9515   -2.7565    2.7535 H   0  0  0  0  0  0  0  0  0  0  0  0
   -7.0143    1.3624   -1.3919 H   0  0  0  0  0  0  0  0  0  0  0  0
   -4.8565    2.2087   -2.2639 H   0  0  0  0  0  0  0  0  0  0  0  0
   -2.7621    1.3348   -1.3911 H   0  0  0  0  0  0  0  0  0  0  0  0
   -1.1893   -0.0429   -1.9154 H   0  0  0  0  0  0  0  0  0  0  0  0
   -0.9901   -1.6941   -1.3268 H   0  0  0  0  0  0  0  0  0  0  0  0
    1.0525   -0.6556   -2.3552 H   0  0  0  0  0  0  0  0  0  0  0  0
    2.6229   -1.6279   -0.7469 H   0  0  0  0  0  0  0  0  0  0  0  0
    1.1541   -2.5883   -0.7918 H   0  0  0  0  0  0  0  0  0  0  0  0
    1.4429   -1.5025    0.5693 H   0  0  0  0  0  0  0  0  0  0  0  0
  1  2  1  0
  2  3  1  0
  3  4  1  0
  4  5  1  0
  5  6  1  0
  6  7  1  0
  7  8  1  0
  8  9  1  0
  9 10  1  0
 10 11  2  0
 11 12  1  0
 12 13  3  0
 11 14  1  0
 14 15  2  0
 15 16  1  0
 16 17  2  0
 17 18  1  0
 17 19  1  0
 19 20  2  0
 20 21  1  0
 21 22  2  0
  9 23  1  0
 23 24  1  0
 24 25  1  0
 24  6  1  0
 22 10  1  0
 22 16  1  0
  1 26  1  0
  1 27  1  0
  1 28  1  0
  2 29  1  0
  2 30  1  0
  4 31  1  0
  4 32  1  0
  5 33  1  0
  5 34  1  0
  7 35  1  0
  7 36  1  0
  8 37  1  0
  8 38  1  0
 14 39  1  0
 19 40  1  0
 20 41  1  0
 21 42  1  0
 23 43  1  0
 23 44  1  0
 24 45  1  0
 25 46  1  0
 25 47  1  0
 25 48  1  0
M  END
$$$$
OCNT-2318099
     RDKit          3D

 40 43  0  0  0  0  0  0  0  0999 V2000
    2.8534   -2.5064    0.7697 O   0  0  0  0  0  0  0  0  0  0  0  0
    3.9201   -2.0265   -0.0414 C   0  0  0  0  0  0  0  0  0  0  0  0
    3.5061   -0.8700   -0.9476 C   0  0  0  0  0  0  0  0  0  0  0  0
    2.2516   -1.1719   -1.7989 C   0  0  0  0  0  0  0  0  0  0  0  0
    1.5626    0.1146   -2.0142 N   0  0  0  0  0  0  0  0  0  0  0  0
    0.1672    0.1083   -2.4722 C   0  0  0  0  0  0  0  0  0  0  0  0
   -0.8950   -0.3282   -1.5151 C   0  0  0  0  0  0  0  0  0  0  0  0
   -1.6916    0.3850   -0.7493 N   0  0  0  0  0  0  0  0  0  0  0  0
   -2.4381   -0.5827   -0.1092 C   0  0  0  0  0  0  0  0  0  0  0  0
   -3.4618   -0.2496    0.8765 C   0  0  0  0  0  0  0  0  0  0  0  0
   -3.6992    1.0891    1.2237 C   0  0  0  0  0  0  0  0  0  0  0  0
   -4.6768    1.4189    2.1662 C   0  0  0  0  0  0  0  0  0  0  0  0
   -5.4278    0.4141    2.7725 C   0  0  0  0  0  0  0  0  0  0  0  0
   -5.2029   -0.9199    2.4388 C   0  0  0  0  0  0  0  0  0  0  0  0
   -4.2253   -1.2507    1.4962 C   0  0  0  0  0  0  0  0  0  0  0  0
   -2.1378   -1.8370   -0.4877 N   0  0  0  0  0  0  0  0  0  0  0  0
   -1.1147   -1.6697   -1.4166 O   0  0  0  0  0  0  0  0  0  0  0  0
    1.9321    0.8957   -0.9082 C   0  0  0  0  0  0  0  0  0  0  0  0
    1.3553    2.0741   -0.4629 C   0  0  0  0  0  0  0  0  0  0  0  0
    1.8965    2.7170    0.6555 C   0  0  0  0  0  0  0  0  0  0  0  0
    3.0178    2.1905    1.3100 C   0  0  0  0  0  0  0  0  0  0  0  0
    3.6118    1.0141    0.8554 C   0  0  0  0  0  0  0  0  0  0  0  0
    3.0528    0.3782   -0.2445 C   0  0  0  0  0  0  0  0  0  0  0  0
    2.5028   -1.7496    1.2750 H   0  0  0  0  0  0  0  0  0  0  0  0
    4.2634   -2.8678   -0.6525 H   0  0  0  0  0  0  0  0  0  0  0  0
    4.7461   -1.7414    0.6183 H   0  0  0  0  0  0  0  0  0  0  0  0
    4.3430   -0.5996   -1.6046 H   0  0  0  0  0  0  0  0  0  0  0  0
    2.5316   -1.6228   -2.7576 H   0  0  0  0  0  0  0  0  0  0  0  0
    1.5809   -1.8745   -1.2895 H   0  0  0  0  0  0  0  0  0  0  0  0
    0.1092   -0.5332   -3.3613 H   0  0  0  0  0  0  0  0  0  0  0  0
   -0.0882    1.1123   -2.8345 H   0  0  0  0  0  0  0  0  0  0  0  0
   -3.1204    1.8865    0.7613 H   0  0  0  0  0  0  0  0  0  0  0  0
   -4.8497    2.4602    2.4260 H   0  0  0  0  0  0  0  0  0  0  0  0
   -6.1880    0.6705    3.5061 H   0  0  0  0  0  0  0  0  0  0  0  0
   -5.7871   -1.7054    2.9116 H   0  0  0  0  0  0  0  0  0  0  0  0
   -4.0653   -2.2990    1.2511 H   0  0  0  0  0  0  0  0  0  0  0  0
    0.4958    2.5079   -0.9621 H   0  0  0  0  0  0  0  0  0  0  0  0
    1.4460    3.6390    1.0148 H   0  0  0  0  0  0  0  0  0  0  0  0
    3.4311    2.7097    2.1714 H   0  0  0  0  0  0  0  0  0  0  0  0
    4.4923    0.6204    1.3523 H   0  0  0  0  0  0  0  0  0  0  0  0
  1  2  1  0
  2  3  1  0
  3  4  1  0
  4  5  1  0
  5  6  1  0
  6  7  1  0
  7  8  2  0
  8  9  1  0
  9 10  1  0
 10 11  2  0
 11 12  1  0
 12 13  2  0
 13 14  1  0
 14 15  2  0
  9 16  2  0
 16 17  1  0
  5 18  1  0
 18 19  2  0
 19 20  1  0
 20 21  2  0
 21 22  1  0
 22 23  2  0
 23  3  1  0
 17  7  1  0
 23 18  1  0
 15 10  1  0
  1 24  1  0
  2 25  1  0
  2 26  1  0
  3 27  1  0
  4 28  1  0
  4 29  1  0
  6 30  1  0
  6 31  1  0
 11 32  1  0
 12 33  1  0
 13 34  1  0
 14 35  1  0
 15 36  1  0
 19 37  1  0
 20 38  1  0
 21 39  1  0
 22 40  1  0
M  END
$$$$
OCNT-2318103
     RDKit          3D

 44 46  0  0  0  0  0  0  0  0999 V2000
   -4.8721    1.3145   -0.4460 C   0  0  0  0  0  0  0  0  0  0  0  0
   -4.7735    0.0098    0.3436 C   0  0  0  0  0  0  0  0  0  0  0  0
   -4.5734    0.2821    1.8340 C   0  0  0  0  0  0  0  0  0  0  0  0
   -3.6651   -0.8647   -0.1974 C   0  0  0  0  0  0  0  0  0  0  0  0
   -4.0107   -2.0638   -0.6941 N   0  0  0  0  0  0  0  0  0  0  0  0
   -3.0050   -2.8060   -1.1791 C   0  0  0  0  0  0  0  0  0  0  0  0
   -1.6894   -2.4040   -1.1679 C   0  0  0  0  0  0  0  0  0  0  0  0
   -1.4087   -1.1661   -0.6199 C   0  0  0  0  0  0  0  0  0  0  0  0
   -0.1033   -0.6796   -0.5899 N   0  0  0  0  0  0  0  0  0  0  0  0
    0.9759   -1.5903   -0.1609 C   0  0  0  0  0  0  0  0  0  0  0  0
    1.8085   -0.9984    1.0005 C   0  0  0  0  0  0  0  0  0  0  0  0
    2.3843    0.3254    0.6662 N   0  0  0  0  0  0  0  0  0  0  0  0
    3.7527    0.3008    0.3535 C   0  0  0  0  0  0  0  0  0  0  0  0
    4.6925   -0.2034    1.2657 C   0  0  0  0  0  0  0  0  0  0  0  0
    6.0319   -0.2634    1.0425 N   0  0  0  0  0  0  0  0  0  0  0  0
    6.4259    0.2340   -0.1451 C   0  0  0  0  0  0  0  0  0  0  0  0
    5.5269    0.7575   -1.0541 C   0  0  0  0  0  0  0  0  0  0  0  0
    4.1928    0.8009   -0.8231 N   0  0  0  0  0  0  0  0  0  0  0  0
    1.5372    1.1656   -0.2321 C   0  0  0  0  0  0  0  0  0  0  0  0
    1.6522    2.6335    0.1859 C   0  0  0  0  0  0  0  0  0  0  0  0
    0.0457    0.7281   -0.1655 C   0  0  0  0  0  0  0  0  0  0  0  0
   -2.4034   -0.3917   -0.1498 N   0  0  0  0  0  0  0  0  0  0  0  0
   -5.7136    1.9188   -0.0907 H   0  0  0  0  0  0  0  0  0  0  0  0
   -3.9619    1.9173   -0.3492 H   0  0  0  0  0  0  0  0  0  0  0  0
   -5.0272    1.1160   -1.5123 H   0  0  0  0  0  0  0  0  0  0  0  0
   -5.7239   -0.5267    0.2252 H   0  0  0  0  0  0  0  0  0  0  0  0
   -3.6510    0.8426    2.0241 H   0  0  0  0  0  0  0  0  0  0  0  0
   -4.5150   -0.6550    2.3989 H   0  0  0  0  0  0  0  0  0  0  0  0
   -5.4088    0.8653    2.2361 H   0  0  0  0  0  0  0  0  0  0  0  0
   -3.2938   -3.7646   -1.5989 H   0  0  0  0  0  0  0  0  0  0  0  0
   -0.9210   -3.0296   -1.5996 H   0  0  0  0  0  0  0  0  0  0  0  0
    1.6289   -1.7738   -1.0225 H   0  0  0  0  0  0  0  0  0  0  0  0
    0.5909   -2.5619    0.1709 H   0  0  0  0  0  0  0  0  0  0  0  0
    1.1593   -0.8662    1.8755 H   0  0  0  0  0  0  0  0  0  0  0  0
    2.5684   -1.7319    1.2942 H   0  0  0  0  0  0  0  0  0  0  0  0
    4.3807   -0.5657    2.2396 H   0  0  0  0  0  0  0  0  0  0  0  0
    7.4899    0.2056   -0.3482 H   0  0  0  0  0  0  0  0  0  0  0  0
    5.8542    1.1619   -2.0050 H   0  0  0  0  0  0  0  0  0  0  0  0
    1.8486    1.0551   -1.2795 H   0  0  0  0  0  0  0  0  0  0  0  0
    1.0224    3.2684   -0.4462 H   0  0  0  0  0  0  0  0  0  0  0  0
    2.6815    2.9962    0.0996 H   0  0  0  0  0  0  0  0  0  0  0  0
    1.3404    2.7731    1.2270 H   0  0  0  0  0  0  0  0  0  0  0  0
   -0.3294    0.8575    0.8592 H   0  0  0  0  0  0  0  0  0  0  0  0
   -0.5418    1.3767   -0.8283 H   0  0  0  0  0  0  0  0  0  0  0  0
  1  2  1  0
  2  3  1  0
  2  4  1  0
  4  5  2  0
  5  6  1  0
  6  7  2  0
  7  8  1  0
  8  9  1  0
  9 10  1  0
 10 11  1  0
 11 12  1  0
 12 13  1  0
 13 14  2  0
 14 15  1  0
 15 16  2  0
 16 17  1  0
 17 18  2  0
 12 19  1  0
 19 20  1  0
 19 21  1  0
  8 22  2  0
 22  4  1  0
 21  9  1  0
 18 13  1  0
  1 23  1  0
  1 24  1  0
  1 25  1  0
  2 26  1  0
  3 27  1  0
  3 28  1  0
  3 29  1  0
  6 30  1  0
  7 31  1  0
 10 32  1  0
 10 33  1  0
 11 34  1  0
 11 35  1  0
 14 36  1  0
 16 37  1  0
 17 38  1  0
 19 39  1  0
 20 40  1  0
 20 41  1  0
 20 42  1  0
 21 43  1  0
 21 44  1  0
M  END
$$$$
OCNT-2318112
     RDKit          3D

 42 45  0  0  0  0  0  0  0  0999 V2000
   -2.0263    3.2446    0.2047 C   0  0  0  0  0  0  0  0  0  0  0  0
   -1.1343    2.0439    0.3704 C   0  0  0  0  0  0  0  0  0  0  0  0
   -0.1593    2.0488    1.3758 C   0  0  0  0  0  0  0  0  0  0  0  0
    0.6923    0.9534    1.5580 C   0  0  0  0  0  0  0  0  0  0  0  0
    0.6280   -0.1592    0.7179 C   0  0  0  0  0  0  0  0  0  0  0  0
    1.4175   -1.3082    0.8953 N   0  0  0  0  0  0  0  0  0  0  0  0
    2.8407   -1.1255    1.2513 C   0  0  0  0  0  0  0  0  0  0  0  0
    3.3601   -2.4778    1.7597 C   0  0  0  0  0  0  0  0  0  0  0  0
    3.7003   -0.6349    0.1106 C   0  0  0  0  0  0  0  0  0  0  0  0
    4.4583    0.5145    0.0208 C   0  0  0  0  0  0  0  0  0  0  0  0
    4.9850    0.5024   -1.2411 N   0  0  0  0  0  0  0  0  0  0  0  0
    4.5452   -0.6313   -1.8622 C   0  0  0  0  0  0  0  0  0  0  0  0
    3.7675   -1.3398   -1.0773 N   0  0  0  0  0  0  0  0  0  0  0  0
   -0.3793   -0.1783   -0.2569 C   0  0  0  0  0  0  0  0  0  0  0  0
   -1.2573    0.9058   -0.4469 C   0  0  0  0  0  0  0  0  0  0  0  0
   -2.2788    0.8223   -1.4852 C   0  0  0  0  0  0  0  0  0  0  0  0
   -2.4354    1.6310   -2.5193 N   0  0  0  0  0  0  0  0  0  0  0  0
   -3.5263    1.1684   -3.2171 N   0  0  0  0  0  0  0  0  0  0  0  0
   -4.0543    0.1057   -2.6274 N   0  0  0  0  0  0  0  0  0  0  0  0
   -3.2927   -0.1038   -1.5451 N   0  0  0  0  0  0  0  0  0  0  0  0
   -3.5619   -1.1862   -0.5756 C   0  0  0  0  0  0  0  0  0  0  0  0
   -4.9490   -1.4565   -0.0383 C   0  0  0  0  0  0  0  0  0  0  0  0
   -3.8912   -0.9137    0.8743 C   0  0  0  0  0  0  0  0  0  0  0  0
   -1.8438    3.7232   -0.7628 H   0  0  0  0  0  0  0  0  0  0  0  0
   -1.8396    3.9935    0.9824 H   0  0  0  0  0  0  0  0  0  0  0  0
   -3.0792    2.9542    0.2784 H   0  0  0  0  0  0  0  0  0  0  0  0
   -0.0593    2.9046    2.0403 H   0  0  0  0  0  0  0  0  0  0  0  0
    1.3975    0.9933    2.3815 H   0  0  0  0  0  0  0  0  0  0  0  0
    1.4039   -1.8714    0.0428 H   0  0  0  0  0  0  0  0  0  0  0  0
    2.9418   -0.4319    2.0937 H   0  0  0  0  0  0  0  0  0  0  0  0
    4.4095   -2.4061    2.0666 H   0  0  0  0  0  0  0  0  0  0  0  0
    3.2899   -3.2530    0.9874 H   0  0  0  0  0  0  0  0  0  0  0  0
    2.7763   -2.8179    2.6225 H   0  0  0  0  0  0  0  0  0  0  0  0
    4.6425    1.3216    0.7153 H   0  0  0  0  0  0  0  0  0  0  0  0
    5.5817    1.2074   -1.6516 H   0  0  0  0  0  0  0  0  0  0  0  0
    4.8195   -0.8821   -2.8782 H   0  0  0  0  0  0  0  0  0  0  0  0
   -0.4657   -1.0527   -0.8993 H   0  0  0  0  0  0  0  0  0  0  0  0
   -2.9583   -2.0635   -0.7880 H   0  0  0  0  0  0  0  0  0  0  0  0
   -5.7558   -0.7945   -0.3346 H   0  0  0  0  0  0  0  0  0  0  0  0
   -5.2511   -2.4901    0.0880 H   0  0  0  0  0  0  0  0  0  0  0  0
   -3.4680   -1.5750    1.6223 H   0  0  0  0  0  0  0  0  0  0  0  0
   -3.9903    0.1146    1.2050 H   0  0  0  0  0  0  0  0  0  0  0  0
  1  2  1  0
  2  3  1  0
  3  4  2  0
  4  5  1  0
  5  6  1  0
  6  7  1  0
  7  8  1  0
  7  9  1  0
  9 10  2  0
 10 11  1  0
 11 12  1  0
 12 13  2  0
  5 14  2  0
 14 15  1  0
 15 16  1  0
 16 17  2  0
 17 18  1  0
 18 19  2  0
 19 20  1  0
 20 21  1  0
 21 22  1  0
 22 23  1  0
 15  2  2  0
 20 16  1  0
 23 21  1  0
 13  9  1  0
  1 24  1  0
  1 25  1  0
  1 26  1  0
  3 27  1  0
  4 28  1  0
  6 29  1  0
  7 30  1  0
  8 31  1  0
  8 32  1  0
  8 33  1  0
 10 34  1  0
 11 35  1  0
 12 36  1  0
 14 37  1  0
 21 38  1  0
 22 39  1  0
 22 40  1  0
 23 41  1  0
 23 42  1  0
M  END
$$$$
OCNT-2318116
     RDKit          3D

 54 58  0  0  0  0  0  0  0  0999 V2000
   -2.9219    0.6974   -2.6468 C   0  0  0  0  0  0  0  0  0  0  0  0
   -3.4695    1.4456   -1.6908 N   0  0  0  0  0  0  0  0  0  0  0  0
   -3.3407    0.6996   -0.5744 N   0  0  0  0  0  0  0  0  0  0  0  0
   -3.8863    1.2175    0.6744 C   0  0  0  0  0  0  0  0  0  0  0  0
   -5.3632    0.9347    0.9107 C   0  0  0  0  0  0  0  0  0  0  0  0
   -6.4301    1.3912   -0.1247 C   0  0  0  0  0  0  0  0  0  0  0  0
   -7.2639    0.1683    0.3146 C   0  0  0  0  0  0  0  0  0  0  0  0
   -5.9341   -0.4997    0.7256 C   0  0  0  0  0  0  0  0  0  0  0  0
   -2.6304   -0.4619   -0.7832 C   0  0  0  0  0  0  0  0  0  0  0  0
   -2.2894   -1.4413    0.2837 C   0  0  0  0  0  0  0  0  0  0  0  0
   -1.1540   -0.9999    1.0859 N   0  0  0  0  0  0  0  0  0  0  0  0
    0.1214   -1.6190    0.7248 C   0  0  0  0  0  0  0  0  0  0  0  0
    0.7899   -1.1312   -0.5695 C   0  0  1  0  0  0  0  0  0  0  0  0
    1.0691    0.3621   -0.6096 C   0  0  0  0  0  0  0  0  0  0  0  0
    2.1940    0.4313   -1.6140 C   0  0  0  0  0  0  0  0  0  0  0  0
    2.9965   -0.8229   -1.3044 C   0  0  1  0  0  0  0  0  0  0  0  0
    4.0831   -0.5984   -0.3111 C   0  0  0  0  0  0  0  0  0  0  0  0
    4.9356    0.4029   -0.2301 N   0  0  0  0  0  0  0  0  0  0  0  0
    5.7063    0.0734    0.8532 C   0  0  0  0  0  0  0  0  0  0  0  0
    6.8685    0.9710    1.3544 C   0  0  0  0  0  0  0  0  0  0  0  0
    7.8323    1.5560    0.3535 C   0  0  0  0  0  0  0  0  0  0  0  0
    8.2834    0.4567    1.2705 C   0  0  0  0  0  0  0  0  0  0  0  0
    5.3800   -1.0768    1.4503 N   0  0  0  0  0  0  0  0  0  0  0  0
    4.3543   -1.4869    0.6899 N   0  0  0  0  0  0  0  0  0  0  0  0
    2.0759   -1.7742   -0.7233 O   0  0  0  0  0  0  0  0  0  0  0  0
   -2.3957   -0.5021   -2.1445 C   0  0  0  0  0  0  0  0  0  0  0  0
   -2.9272    1.0603   -3.6665 H   0  0  0  0  0  0  0  0  0  0  0  0
   -3.2919    0.8050    1.4952 H   0  0  0  0  0  0  0  0  0  0  0  0
   -3.7045    2.2993    0.6739 H   0  0  0  0  0  0  0  0  0  0  0  0
   -5.6137    1.3236    1.9116 H   0  0  0  0  0  0  0  0  0  0  0  0
   -6.1222    1.3439   -1.1739 H   0  0  0  0  0  0  0  0  0  0  0  0
   -6.8861    2.3664    0.0652 H   0  0  0  0  0  0  0  0  0  0  0  0
   -7.8246   -0.3348   -0.4769 H   0  0  0  0  0  0  0  0  0  0  0  0
   -7.9358    0.3707    1.1566 H   0  0  0  0  0  0  0  0  0  0  0  0
   -5.4827   -1.0847   -0.0826 H   0  0  0  0  0  0  0  0  0  0  0  0
   -5.9723   -1.1143    1.6286 H   0  0  0  0  0  0  0  0  0  0  0  0
   -2.1180   -2.4337   -0.1513 H   0  0  0  0  0  0  0  0  0  0  0  0
   -3.1488   -1.5630    0.9523 H   0  0  0  0  0  0  0  0  0  0  0  0
   -1.0722    0.0147    1.0700 H   0  0  0  0  0  0  0  0  0  0  0  0
    0.8177   -1.4367    1.5541 H   0  0  0  0  0  0  0  0  0  0  0  0
    0.0229   -2.7121    0.6980 H   0  0  0  0  0  0  0  0  0  0  0  0
    0.1963   -1.4333   -1.4381 H   0  0  0  0  0  0  0  0  0  0  0  0
    1.4194    0.7236    0.3648 H   0  0  0  0  0  0  0  0  0  0  0  0
    0.1995    0.9561   -0.9023 H   0  0  0  0  0  0  0  0  0  0  0  0
    1.7734    0.3542   -2.6247 H   0  0  0  0  0  0  0  0  0  0  0  0
    2.7630    1.3640   -1.5612 H   0  0  0  0  0  0  0  0  0  0  0  0
    3.4238   -1.2581   -2.2139 H   0  0  0  0  0  0  0  0  0  0  0  0
    6.6096    1.5808    2.2117 H   0  0  0  0  0  0  0  0  0  0  0  0
    7.6875    1.3193   -0.6947 H   0  0  0  0  0  0  0  0  0  0  0  0
    8.1989    2.5586    0.5359 H   0  0  0  0  0  0  0  0  0  0  0  0
    8.9564    0.7079    2.0810 H   0  0  0  0  0  0  0  0  0  0  0  0
    8.4448   -0.5284    0.8473 H   0  0  0  0  0  0  0  0  0  0  0  0
    3.8751   -2.3560    0.8983 H   0  0  0  0  0  0  0  0  0  0  0  0
   -1.8997   -1.2867   -2.6977 H   0  0  0  0  0  0  0  0  0  0  0  0
  1  2  2  0
  2  3  1  0
  3  4  1  0
  4  5  1  0
  5  6  1  0
  6  7  1  0
  7  8  1  0
  3  9  1  0
  9 10  1  0
 10 11  1  0
 11 12  1  0
 12 13  1  0
 13 14  1  0
 14 15  1  0
 15 16  1  0
 16 17  1  0
 17 18  2  0
 18 19  1  0
 19 20  1  0
 20 21  1  0
 21 22  1  0
 19 23  2  0
 23 24  1  0
 16 25  1  0
  9 26  2  0
 26  1  1  0
  8  5  1  0
 25 13  1  0
 24 17  1  0
 22 20  1  0
  1 27  1  0
  4 28  1  0
  4 29  1  0
  5 30  1  0
  6 31  1  0
  6 32  1  0
  7 33  1  0
  7 34  1  0
  8 35  1  0
  8 36  1  0
 10 37  1  0
 10 38  1  0
 11 39  1  0
 12 40  1  0
 12 41  1  0
 13 42  1  6
 14 43  1  0
 14 44  1  0
 15 45  1  0
 15 46  1  0
 16 47  1  6
 20 48  1  0
 21 49  1  0
 21 50  1  0
 22 51  1  0
 22 52  1  0
 24 53  1  0
 26 54  1  0
M  END
$$$$
OCNT-2318123
     RDKit          3D

 44 46  0  0  0  0  0  0  0  0999 V2000
    5.1494    2.2461   -0.8003 C   0  0  0  0  0  0  0  0  0  0  0  0
    5.6237    1.5672    0.4720 C   0  0  0  0  0  0  0  0  0  0  0  0
    5.0244    0.2591    0.6492 N   0  0  0  0  0  0  0  0  0  0  0  0
    3.9252   -0.0399    1.3977 C   0  0  0  0  0  0  0  0  0  0  0  0
    3.7277   -1.4017    1.2790 C   0  0  0  0  0  0  0  0  0  0  0  0
    2.6639   -2.2341    1.8955 C   0  0  0  0  0  0  0  0  0  0  0  0
    1.4240   -1.9931    1.1928 N   0  0  0  0  0  0  0  0  0  0  0  0
    0.5103   -1.0893    1.6622 C   0  0  0  0  0  0  0  0  0  0  0  0
    0.6342   -0.5047    2.7341 O   0  0  0  0  0  0  0  0  0  0  0  0
   -0.5744   -0.8972    0.8440 N   0  0  0  0  0  0  0  0  0  0  0  0
   -0.9097   -1.5989   -0.3827 C   0  0  0  0  0  0  0  0  0  0  0  0
   -2.3679   -1.2531   -0.6364 C   0  0  0  0  0  0  0  0  0  0  0  0
   -2.5104    0.1475   -0.0350 C   0  0  1  0  0  0  0  0  0  0  0  0
   -3.8499    0.4290    0.3524 O   0  0  0  0  0  0  0  0  0  0  0  0
   -4.7320    0.8643   -0.5951 C   0  0  0  0  0  0  0  0  0  0  0  0
   -4.4581    1.0964   -1.9376 C   0  0  0  0  0  0  0  0  0  0  0  0
   -5.4922    1.5388   -2.7498 C   0  0  0  0  0  0  0  0  0  0  0  0
   -6.7515    1.7586   -2.3183 N   0  0  0  0  0  0  0  0  0  0  0  0
   -6.9891    1.5273   -1.0112 C   0  0  0  0  0  0  0  0  0  0  0  0
   -6.0236    1.0857   -0.1234 C   0  0  0  0  0  0  0  0  0  0  0  0
   -1.6220    0.0417    1.2093 C   0  0  0  0  0  0  0  0  0  0  0  0
    4.7802   -1.8230    0.4350 C   0  0  0  0  0  0  0  0  0  0  0  0
    5.5632   -0.8155    0.0431 N   0  0  0  0  0  0  0  0  0  0  0  0
    5.4083    1.6542   -1.6846 H   0  0  0  0  0  0  0  0  0  0  0  0
    4.0623    2.3788   -0.7943 H   0  0  0  0  0  0  0  0  0  0  0  0
    5.6140    3.2317   -0.9011 H   0  0  0  0  0  0  0  0  0  0  0  0
    5.3672    2.1730    1.3479 H   0  0  0  0  0  0  0  0  0  0  0  0
    6.7112    1.4354    0.4617 H   0  0  0  0  0  0  0  0  0  0  0  0
    3.3756    0.7159    1.9436 H   0  0  0  0  0  0  0  0  0  0  0  0
    2.5606   -2.0140    2.9630 H   0  0  0  0  0  0  0  0  0  0  0  0
    2.8947   -3.2986    1.7849 H   0  0  0  0  0  0  0  0  0  0  0  0
    1.4571   -2.1096    0.1942 H   0  0  0  0  0  0  0  0  0  0  0  0
   -0.7461   -2.6755   -0.2796 H   0  0  0  0  0  0  0  0  0  0  0  0
   -0.2640   -1.2107   -1.1779 H   0  0  0  0  0  0  0  0  0  0  0  0
   -2.6248   -1.2949   -1.6986 H   0  0  0  0  0  0  0  0  0  0  0  0
   -3.0284   -1.9577   -0.1152 H   0  0  0  0  0  0  0  0  0  0  0  0
   -2.0901    0.9209   -0.6908 H   0  0  0  0  0  0  0  0  0  0  0  0
   -3.4817    0.9500   -2.3781 H   0  0  0  0  0  0  0  0  0  0  0  0
   -5.3274    1.7347   -3.8058 H   0  0  0  0  0  0  0  0  0  0  0  0
   -8.0081    1.7117   -0.6837 H   0  0  0  0  0  0  0  0  0  0  0  0
   -6.2720    0.9162    0.9184 H   0  0  0  0  0  0  0  0  0  0  0  0
   -2.1660   -0.3581    2.0734 H   0  0  0  0  0  0  0  0  0  0  0  0
   -1.1936    1.0078    1.4962 H   0  0  0  0  0  0  0  0  0  0  0  0
    5.0055   -2.8231    0.0869 H   0  0  0  0  0  0  0  0  0  0  0  0
  1  2  1  0
  2  3  1  0
  3  4  1  0
  4  5  2  0
  5  6  1  0
  6  7  1  0
  7  8  1  0
  8  9  2  0
  8 10  1  0
 10 11  1  0
 11 12  1  0
 12 13  1  0
 13 14  1  0
 14 15  1  0
 15 16  2  0
 16 17  1  0
 17 18  2  0
 18 19  1  0
 19 20  2  0
 13 21  1  0
  5 22  1  0
 22 23  2  0
 23  3  1  0
 21 10  1  0
 20 15  1  0
  1 24  1  0
  1 25  1  0
  1 26  1  0
  2 27  1  0
  2 28  1  0
  4 29  1  0
  6 30  1  0
  6 31  1  0
  7 32  1  0
 11 33  1  0
 11 34  1  0
 12 35  1  0
 12 36  1  0
 13 37  1  6
 16 38  1  0
 17 39  1  0
 19 40  1  0
 20 41  1  0
 21 42  1  0
 21 43  1  0
 22 44  1  0
M  END
$$$$
OCNT-2318132
     RDKit          3D

 43 44  0  0  0  0  0  0  0  0999 V2000
    2.4212   -0.6921    2.8282 C   0  0  0  0  0  0  0  0  0  0  0  0
    1.2412   -0.6915    1.8617 C   0  0  0  0  0  0  0  0  0  0  0  0
    1.2751    0.4860    0.8627 C   0  0  0  0  0  0  0  0  0  0  0  0
   -0.0045    0.6603    0.1500 N   0  0  0  0  0  0  0  0  0  0  0  0
   -0.4073   -0.4522   -0.7350 C   0  0  0  0  0  0  0  0  0  0  0  0
   -0.7797    0.1441   -2.1095 C   0  0  0  0  0  0  0  0  0  0  0  0
   -1.1562   -0.8783   -3.0293 O   0  0  0  0  0  0  0  0  0  0  0  0
   -1.5295   -1.3534   -0.1471 C   0  0  0  0  0  0  0  0  0  0  0  0
   -2.8259   -0.6698    0.2340 C   0  0  0  0  0  0  0  0  0  0  0  0
   -3.0533   -0.2548    1.5561 C   0  0  0  0  0  0  0  0  0  0  0  0
   -4.2490    0.3757    1.9031 C   0  0  0  0  0  0  0  0  0  0  0  0
   -5.2204    0.5855    0.9322 C   0  0  0  0  0  0  0  0  0  0  0  0
   -6.3677    1.1904    1.2671 F   0  0  0  0  0  0  0  0  0  0  0  0
   -5.0213    0.1724   -0.3788 C   0  0  0  0  0  0  0  0  0  0  0  0
   -3.8263   -0.4583   -0.7273 C   0  0  0  0  0  0  0  0  0  0  0  0
    2.4526    0.5857   -0.0962 C   0  0  0  0  0  0  0  0  0  0  0  0
    2.8145    1.8559   -0.5877 C   0  0  0  0  0  0  0  0  0  0  0  0
    3.8787    2.0124   -1.4804 C   0  0  0  0  0  0  0  0  0  0  0  0
    4.5991    0.9006   -1.9077 C   0  0  0  0  0  0  0  0  0  0  0  0
    4.2485   -0.3650   -1.4458 C   0  0  0  0  0  0  0  0  0  0  0  0
    3.1854   -0.5142   -0.5551 C   0  0  0  0  0  0  0  0  0  0  0  0
    2.8799   -1.7571   -0.1581 F   0  0  0  0  0  0  0  0  0  0  0  0
    3.3736   -0.8364    2.3113 H   0  0  0  0  0  0  0  0  0  0  0  0
    2.4712    0.2491    3.3850 H   0  0  0  0  0  0  0  0  0  0  0  0
    2.3098   -1.5053    3.5528 H   0  0  0  0  0  0  0  0  0  0  0  0
    1.1938   -1.6585    1.3511 H   0  0  0  0  0  0  0  0  0  0  0  0
    0.3267   -0.6191    2.4648 H   0  0  0  0  0  0  0  0  0  0  0  0
    1.3578    1.3796    1.4994 H   0  0  0  0  0  0  0  0  0  0  0  0
   -0.7457    0.8499    0.8217 H   0  0  0  0  0  0  0  0  0  0  0  0
    0.4353   -1.1287   -0.9220 H   0  0  0  0  0  0  0  0  0  0  0  0
    0.0835    0.6706   -2.5334 H   0  0  0  0  0  0  0  0  0  0  0  0
   -1.6041    0.8604   -2.0315 H   0  0  0  0  0  0  0  0  0  0  0  0
   -1.2544   -0.4462   -3.8954 H   0  0  0  0  0  0  0  0  0  0  0  0
   -1.7590   -2.1618   -0.8542 H   0  0  0  0  0  0  0  0  0  0  0  0
   -1.1434   -1.8709    0.7405 H   0  0  0  0  0  0  0  0  0  0  0  0
   -2.3038   -0.4274    2.3251 H   0  0  0  0  0  0  0  0  0  0  0  0
   -4.4311    0.6992    2.9228 H   0  0  0  0  0  0  0  0  0  0  0  0
   -5.7964    0.3393   -1.1194 H   0  0  0  0  0  0  0  0  0  0  0  0
   -3.6785   -0.7894   -1.7537 H   0  0  0  0  0  0  0  0  0  0  0  0
    2.2526    2.7356   -0.2774 H   0  0  0  0  0  0  0  0  0  0  0  0
    4.1390    3.0033   -1.8444 H   0  0  0  0  0  0  0  0  0  0  0  0
    5.4254    1.0185   -2.6035 H   0  0  0  0  0  0  0  0  0  0  0  0
    4.7927   -1.2441   -1.7767 H   0  0  0  0  0  0  0  0  0  0  0  0
  1  2  1  0
  2  3  1  0
  3  4  1  0
  4  5  1  0
  5  6  1  0
  6  7  1  0
  5  8  1  0
  8  9  1  0
  9 10  1  0
 10 11  2  0
 11 12  1  0
 12 13  1  0
 12 14  2  0
 14 15  1  0
  3 16  1  0
 16 17  2  0
 17 18  1  0
 18 19  2  0
 19 20  1  0
 20 21  2  0
 21 22  1  0
 15  9  2  0
 21 16  1  0
  1 23  1  0
  1 24  1  0
  1 25  1  0
  2 26  1  0
  2 27  1  0
  3 28  1  0
  4 29  1  0
  5 30  1  0
  6 31  1  0
  6 32  1  0
  7 33  1  0
  8 34  1  0
  8 35  1  0
 10 36  1  0
 11 37  1  0
 14 38  1  0
 15 39  1  0
 17 40  1  0
 18 41  1  0
 19 42  1  0
 20 43  1  0
M  END
$$$$
OCNT-2318133
     RDKit          3D

 47 50  0  0  0  0  0  0  0  0999 V2000
    4.8652   -0.7988   -0.6582 N   0  0  0  0  0  0  0  0  0  0  0  0
    4.1988   -2.3272   -0.6461 S   0  0  0  0  0  0  0  0  0  0  0  0
    4.0873   -2.7284   -2.0235 O   0  0  0  0  0  0  0  0  0  0  0  0
    4.9714   -3.0587    0.3254 O   0  0  0  0  0  0  0  0  0  0  0  0
    2.7060   -1.9718   -0.0084 N   0  0  0  0  0  0  0  0  0  0  0  0
    2.5777   -1.6794    1.4252 C   0  0  0  0  0  0  0  0  0  0  0  0
    1.5825   -0.5785    1.7719 C   0  0  0  0  0  0  0  0  0  0  0  0
    1.8515    0.7312    1.0317 C   0  0  0  0  0  0  0  0  0  0  0  0
    1.1805    0.8211   -0.2749 N   0  0  0  0  0  0  0  0  0  0  0  0
   -0.2103    1.0375   -0.2080 C   0  0  0  0  0  0  0  0  0  0  0  0
   -1.0237    0.0048   -0.4979 N   0  0  0  0  0  0  0  0  0  0  0  0
   -2.3478    0.1960   -0.3751 C   0  0  0  0  0  0  0  0  0  0  0  0
   -3.2388   -0.9417   -0.6737 C   0  0  0  0  0  0  0  0  0  0  0  0
   -2.7390   -2.1705   -1.1304 C   0  0  0  0  0  0  0  0  0  0  0  0
   -3.6169   -3.2103   -1.3956 C   0  0  0  0  0  0  0  0  0  0  0  0
   -4.9526   -3.1211   -1.2417 N   0  0  0  0  0  0  0  0  0  0  0  0
   -5.4300   -1.9390   -0.8051 C   0  0  0  0  0  0  0  0  0  0  0  0
   -4.6300   -0.8448   -0.5144 C   0  0  0  0  0  0  0  0  0  0  0  0
   -2.9195    1.3477    0.0097 N   0  0  0  0  0  0  0  0  0  0  0  0
   -2.1142    2.3835    0.2520 C   0  0  0  0  0  0  0  0  0  0  0  0
   -2.6894    3.5967    0.6125 C   0  0  0  0  0  0  0  0  0  0  0  0
   -1.9210    4.7386    0.8533 C   0  0  0  0  0  0  0  0  0  0  0  0
   -0.5416    4.6774    0.7238 C   0  0  0  0  0  0  0  0  0  0  0  0
    0.0555    3.4701    0.3688 C   0  0  0  0  0  0  0  0  0  0  0  0
   -0.7211    2.3020    0.1486 C   0  0  0  0  0  0  0  0  0  0  0  0
    1.6147   -0.1260   -1.3214 C   0  0  0  0  0  0  0  0  0  0  0  0
    1.5950   -1.6069   -0.9155 C   0  0  0  0  0  0  0  0  0  0  0  0
    5.5484   -0.7579   -1.4161 H   0  0  0  0  0  0  0  0  0  0  0  0
    5.3214   -0.6383    0.2392 H   0  0  0  0  0  0  0  0  0  0  0  0
    3.5526   -1.3961    1.8398 H   0  0  0  0  0  0  0  0  0  0  0  0
    2.2791   -2.6036    1.9338 H   0  0  0  0  0  0  0  0  0  0  0  0
    0.5547   -0.9266    1.6238 H   0  0  0  0  0  0  0  0  0  0  0  0
    1.6776   -0.3884    2.8490 H   0  0  0  0  0  0  0  0  0  0  0  0
    1.5318    1.5566    1.6784 H   0  0  0  0  0  0  0  0  0  0  0  0
    2.9290    0.8801    0.8906 H   0  0  0  0  0  0  0  0  0  0  0  0
   -1.6756   -2.3228   -1.2826 H   0  0  0  0  0  0  0  0  0  0  0  0
   -3.2541   -4.1708   -1.7504 H   0  0  0  0  0  0  0  0  0  0  0  0
   -6.5089   -1.8880   -0.6895 H   0  0  0  0  0  0  0  0  0  0  0  0
   -5.0922    0.0744   -0.1664 H   0  0  0  0  0  0  0  0  0  0  0  0
   -3.7722    3.6593    0.6998 H   0  0  0  0  0  0  0  0  0  0  0  0
   -2.4061    5.6720    1.1273 H   0  0  0  0  0  0  0  0  0  0  0  0
    0.0670    5.5624    0.8895 H   0  0  0  0  0  0  0  0  0  0  0  0
    1.1357    3.4348    0.2428 H   0  0  0  0  0  0  0  0  0  0  0  0
    2.6221    0.1655   -1.6364 H   0  0  0  0  0  0  0  0  0  0  0  0
    0.9912    0.0060   -2.2163 H   0  0  0  0  0  0  0  0  0  0  0  0
    1.6597   -2.2200   -1.8220 H   0  0  0  0  0  0  0  0  0  0  0  0
    0.6483   -1.9024   -0.4540 H   0  0  0  0  0  0  0  0  0  0  0  0
  1  2  1  0
  2  3  2  0
  2  4  2  0
  2  5  1  0
  5  6  1  0
  6  7  1  0
  7  8  1  0
  8  9  1  0
  9 10  1  0
 10 11  1  0
 11 12  2  0
 12 13  1  0
 13 14  2  0
 14 15  1  0
 15 16  2  0
 16 17  1  0
 17 18  2  0
 12 19  1  0
 19 20  2  0
 20 21  1  0
 21 22  2  0
 22 23  1  0
 23 24  2  0
 24 25  1  0
  9 26  1  0
 26 27  1  0
 27  5  1  0
 25 10  2  0
 18 13  1  0
 25 20  1  0
  1 28  1  0
  1 29  1  0
  6 30  1  0
  6 31  1  0
  7 32  1  0
  7 33  1  0
  8 34  1  0
  8 35  1  0
 14 36  1  0
 15 37  1  0
 17 38  1  0
 18 39  1  0
 21 40  1  0
 22 41  1  0
 23 42  1  0
 24 43  1  0
 26 44  1  0
 26 45  1  0
 27 46  1  0
 27 47  1  0
M  END
$$$$
OCNT-2318150
     RDKit          3D

 42 45  0  0  0  0  0  0  0  0999 V2000
    2.2264   -1.6681   -1.9054 C   0  0  0  0  0  0  0  0  0  0  0  0
    2.9059   -0.7833   -0.8930 C   0  0  0  0  0  0  0  0  0  0  0  0
    4.3026   -0.9188   -0.7344 C   0  0  0  0  0  0  0  0  0  0  0  0
    4.9899   -0.1197    0.1966 C   0  0  0  0  0  0  0  0  0  0  0  0
    4.2626    0.7945    0.9504 C   0  0  0  0  0  0  0  0  0  0  0  0
    2.8763    0.9520    0.8195 C   0  0  0  0  0  0  0  0  0  0  0  0
    2.1962    0.1625   -0.1212 C   0  0  0  0  0  0  0  0  0  0  0  0
    0.7933    0.2622   -0.2869 N   0  0  0  0  0  0  0  0  0  0  0  0
   -0.0379    1.2688    0.1581 C   0  0  0  0  0  0  0  0  0  0  0  0
    0.3398    2.3480    0.6053 O   0  0  0  0  0  0  0  0  0  0  0  0
   -1.4010    0.9627    0.0243 N   0  0  0  0  0  0  0  0  0  0  0  0
   -2.3383    2.0139    0.4106 C   0  0  0  0  0  0  0  0  0  0  0  0
   -3.6677    1.8720   -0.3247 C   0  0  0  0  0  0  0  0  0  0  0  0
   -4.2215    0.4761   -0.2100 C   0  0  0  0  0  0  0  0  0  0  0  0
   -5.5912    0.2464   -0.4066 C   0  0  0  0  0  0  0  0  0  0  0  0
   -6.1012   -1.0479   -0.3281 C   0  0  0  0  0  0  0  0  0  0  0  0
   -7.7839   -1.3197   -0.5625 Cl  0  0  0  0  0  0  0  0  0  0  0  0
   -5.2579   -2.1229   -0.0622 C   0  0  0  0  0  0  0  0  0  0  0  0
   -3.8914   -1.9029    0.1207 C   0  0  0  0  0  0  0  0  0  0  0  0
   -3.3584   -0.6060    0.0389 C   0  0  0  0  0  0  0  0  0  0  0  0
   -1.8735   -0.4055    0.2489 C   0  0  0  0  0  0  0  0  0  0  0  0
    5.1540    1.4427    1.7753 N   0  0  0  0  0  0  0  0  0  0  0  0
    6.4213    0.9654    1.5680 C   0  0  0  0  0  0  0  0  0  0  0  0
    6.3502   -0.0048    0.5942 C   0  0  0  0  0  0  0  0  0  0  0  0
    1.4660   -2.2879   -1.4193 H   0  0  0  0  0  0  0  0  0  0  0  0
    1.7620   -1.0608   -2.6890 H   0  0  0  0  0  0  0  0  0  0  0  0
    2.9358   -2.3455   -2.3930 H   0  0  0  0  0  0  0  0  0  0  0  0
    4.8610   -1.6382   -1.3270 H   0  0  0  0  0  0  0  0  0  0  0  0
    2.3607    1.6697    1.4471 H   0  0  0  0  0  0  0  0  0  0  0  0
    0.3916   -0.3028   -1.0163 H   0  0  0  0  0  0  0  0  0  0  0  0
   -2.4781    1.9519    1.4976 H   0  0  0  0  0  0  0  0  0  0  0  0
   -1.9163    3.0012    0.1908 H   0  0  0  0  0  0  0  0  0  0  0  0
   -3.5269    2.0948   -1.3896 H   0  0  0  0  0  0  0  0  0  0  0  0
   -4.3800    2.5992    0.0819 H   0  0  0  0  0  0  0  0  0  0  0  0
   -6.2587    1.0780   -0.6201 H   0  0  0  0  0  0  0  0  0  0  0  0
   -5.6563   -3.1320    0.0016 H   0  0  0  0  0  0  0  0  0  0  0  0
   -3.2425   -2.7520    0.3271 H   0  0  0  0  0  0  0  0  0  0  0  0
   -1.6207   -0.6696    1.2836 H   0  0  0  0  0  0  0  0  0  0  0  0
   -1.3383   -1.0898   -0.4167 H   0  0  0  0  0  0  0  0  0  0  0  0
    4.9003    2.1690    2.4311 H   0  0  0  0  0  0  0  0  0  0  0  0
    7.2598    1.3573    2.1276 H   0  0  0  0  0  0  0  0  0  0  0  0
    7.1864   -0.5717    0.2069 H   0  0  0  0  0  0  0  0  0  0  0  0
  1  2  1  0
  2  3  1  0
  3  4  2  0
  4  5  1  0
  5  6  2  0
  6  7  1  0
  7  8  1  0
  8  9  1  0
  9 10  2  0
  9 11  1  0
 11 12  1  0
 12 13  1  0
 13 14  1  0
 14 15  1  0
 15 16  2  0
 16 17  1  0
 16 18  1  0
 18 19  2  0
 19 20  1  0
 20 21  1  0
  5 22  1  0
 22 23  1  0
 23 24  2  0
  7  2  2  0
 21 11  1  0
 24  4  1  0
 20 14  2  0
  1 25  1  0
  1 26  1  0
  1 27  1  0
  3 28  1  0
  6 29  1  0
  8 30  1  0
 12 31  1  0
 12 32  1  0
 13 33  1  0
 13 34  1  0
 15 35  1  0
 18 36  1  0
 19 37  1  0
 21 38  1  0
 21 39  1  0
 22 40  1  0
 23 41  1  0
 24 42  1  0
M  END
$$$$
OCNT-2318152
     RDKit          3D

 46 48  0  0  0  0  0  0  0  0999 V2000
   -5.0392   -0.6490   -2.4590 C   0  0  0  0  0  0  0  0  0  0  0  0
   -4.2558   -0.7265   -1.2749 O   0  0  0  0  0  0  0  0  0  0  0  0
   -2.8853   -1.0201   -1.5637 C   0  0  0  0  0  0  0  0  0  0  0  0
   -2.1042   -1.0708   -0.2463 C   0  0  0  0  0  0  0  0  0  0  0  0
   -1.8991    0.2679    0.3388 N   0  0  0  0  0  0  0  0  0  0  0  0
   -2.9838    0.9438    0.9302 C   0  0  0  0  0  0  0  0  0  0  0  0
   -3.2587    2.1163    0.6578 O   0  0  0  0  0  0  0  0  0  0  0  0
   -3.8007    0.2228    1.8995 C   0  0  0  0  0  0  0  0  0  0  0  0
   -4.9909    0.5959    2.4981 C   0  0  0  0  0  0  0  0  0  0  0  0
   -5.3529   -0.4269    3.3936 C   0  0  0  0  0  0  0  0  0  0  0  0
   -4.3555   -1.3704    3.3075 C   0  0  0  0  0  0  0  0  0  0  0  0
   -3.4073   -0.9843    2.4174 O   0  0  0  0  0  0  0  0  0  0  0  0
   -0.8202    1.0224   -0.1331 C   0  0  0  0  0  0  0  0  0  0  0  0
    0.0061    0.6103   -1.0785 N   0  0  0  0  0  0  0  0  0  0  0  0
    0.9780    1.5712   -1.3233 C   0  0  0  0  0  0  0  0  0  0  0  0
    1.9900    1.3125   -2.3902 C   0  0  0  0  0  0  0  0  0  0  0  0
    3.3775    1.1297   -1.7935 C   0  0  0  0  0  0  0  0  0  0  0  0
    4.3045    1.8589   -2.1318 O   0  0  0  0  0  0  0  0  0  0  0  0
    3.4426    0.0982   -0.8756 N   0  0  0  0  0  0  0  0  0  0  0  0
    4.5290   -0.2515   -0.0458 C   0  0  0  0  0  0  0  0  0  0  0  0
    5.8104    0.2878   -0.1659 C   0  0  0  0  0  0  0  0  0  0  0  0
    6.8199   -0.0734    0.7368 C   0  0  0  0  0  0  0  0  0  0  0  0
    6.5533   -0.9830    1.7521 C   0  0  0  0  0  0  0  0  0  0  0  0
    7.7883   -1.4229    2.8729 Cl  0  0  0  0  0  0  0  0  0  0  0  0
    5.2896   -1.5469    1.8645 C   0  0  0  0  0  0  0  0  0  0  0  0
    4.2810   -1.1782    0.9652 C   0  0  0  0  0  0  0  0  0  0  0  0
    0.9288    2.6685   -0.4762 C   0  0  0  0  0  0  0  0  0  0  0  0
   -0.3482    2.4780    0.6459 S   0  0  0  0  0  0  0  0  0  0  0  0
   -4.6623    0.1409   -3.1225 H   0  0  0  0  0  0  0  0  0  0  0  0
   -6.0662   -0.3984   -2.1714 H   0  0  0  0  0  0  0  0  0  0  0  0
   -5.0421   -1.6152   -2.9801 H   0  0  0  0  0  0  0  0  0  0  0  0
   -2.4751   -0.2567   -2.2416 H   0  0  0  0  0  0  0  0  0  0  0  0
   -2.8314   -2.0019   -2.0510 H   0  0  0  0  0  0  0  0  0  0  0  0
   -1.1246   -1.5294   -0.4086 H   0  0  0  0  0  0  0  0  0  0  0  0
   -2.6386   -1.7165    0.4504 H   0  0  0  0  0  0  0  0  0  0  0  0
   -5.5144    1.5188    2.3045 H   0  0  0  0  0  0  0  0  0  0  0  0
   -6.2217   -0.4713    4.0374 H   0  0  0  0  0  0  0  0  0  0  0  0
   -4.1790   -2.3259    3.7975 H   0  0  0  0  0  0  0  0  0  0  0  0
    2.0114    2.1478   -3.0915 H   0  0  0  0  0  0  0  0  0  0  0  0
    1.7351    0.4076   -2.9564 H   0  0  0  0  0  0  0  0  0  0  0  0
    2.5631   -0.3697   -0.6727 H   0  0  0  0  0  0  0  0  0  0  0  0
    6.0717    0.9815   -0.9624 H   0  0  0  0  0  0  0  0  0  0  0  0
    7.8140    0.3676    0.6314 H   0  0  0  0  0  0  0  0  0  0  0  0
    5.0833   -2.2685    2.6489 H   0  0  0  0  0  0  0  0  0  0  0  0
    3.2938   -1.6209    1.0861 H   0  0  0  0  0  0  0  0  0  0  0  0
    1.5855    3.5296   -0.4515 H   0  0  0  0  0  0  0  0  0  0  0  0
  1  2  1  0
  2  3  1  0
  3  4  1  0
  4  5  1  0
  5  6  1  0
  6  7  2  0
  6  8  1  0
  8  9  2  0
  9 10  1  0
 10 11  2  0
 11 12  1  0
  5 13  1  0
 13 14  2  0
 14 15  1  0
 15 16  1  0
 16 17  1  0
 17 18  2  0
 17 19  1  0
 19 20  1  0
 20 21  1  0
 21 22  2  0
 22 23  1  0
 23 24  1  0
 23 25  2  0
 25 26  1  0
 15 27  2  0
 27 28  1  0
 12  8  1  0
 28 13  1  0
 26 20  2  0
  1 29  1  0
  1 30  1  0
  1 31  1  0
  3 32  1  0
  3 33  1  0
  4 34  1  0
  4 35  1  0
  9 36  1  0
 10 37  1  0
 11 38  1  0
 16 39  1  0
 16 40  1  0
 19 41  1  0
 21 42  1  0
 22 43  1  0
 25 44  1  0
 26 45  1  0
 27 46  1  0
M  END
$$$$
OCNT-2318156
     RDKit          3D

 46 49  0  0  0  0  0  0  0  0999 V2000
    0.5634   -0.1580   -2.3897 O   0  0  0  0  0  0  0  0  0  0  0  0
    0.1878    0.5373   -1.4526 C   0  0  0  0  0  0  0  0  0  0  0  0
   -1.1349    0.7112   -1.1114 N   0  0  0  0  0  0  0  0  0  0  0  0
   -2.2064   -0.0329   -1.7504 C   0  0  0  0  0  0  0  0  0  0  0  0
   -2.8115   -0.9815   -0.7013 C   0  0  0  0  0  0  0  0  0  0  0  0
   -3.5559   -0.1285    0.4364 C   0  0  0  0  0  0  0  0  0  0  0  0
   -4.9371    0.0372    0.5561 C   0  0  0  0  0  0  0  0  0  0  0  0
   -5.4546    0.8132    1.5914 C   0  0  0  0  0  0  0  0  0  0  0  0
   -4.5872    1.4153    2.4904 C   0  0  0  0  0  0  0  0  0  0  0  0
   -3.2314    1.2219    2.3095 C   0  0  0  0  0  0  0  0  0  0  0  0
   -2.7036    0.4829    1.3074 N   0  0  0  0  0  0  0  0  0  0  0  0
   -1.8301   -2.1054   -0.1980 C   0  0  0  0  0  0  0  0  0  0  0  0
   -3.0040   -3.0953   -0.3002 C   0  0  0  0  0  0  0  0  0  0  0  0
   -3.6096   -2.1638   -1.3655 C   0  0  0  0  0  0  0  0  0  0  0  0
    1.1870    1.2217   -0.5845 C   0  0  0  0  0  0  0  0  0  0  0  0
    0.8763    2.3865    0.1279 C   0  0  0  0  0  0  0  0  0  0  0  0
    1.8452    2.9952    0.9255 C   0  0  0  0  0  0  0  0  0  0  0  0
    3.1275    2.4472    1.0101 C   0  0  0  0  0  0  0  0  0  0  0  0
    3.4609    1.2874    0.2933 C   0  0  0  0  0  0  0  0  0  0  0  0
    4.8003    0.7129    0.3732 C   0  0  0  0  0  0  0  0  0  0  0  0
    5.7970    1.2283    1.1120 N   0  0  0  0  0  0  0  0  0  0  0  0
    6.8656    0.3662    0.8862 O   0  0  0  0  0  0  0  0  0  0  0  0
    6.4198   -0.5965    0.0279 C   0  0  0  0  0  0  0  0  0  0  0  0
    7.4151   -1.6311   -0.3469 C   0  0  0  0  0  0  0  0  0  0  0  0
    7.8729   -2.3168    0.7360 F   0  0  0  0  0  0  0  0  0  0  0  0
    8.5095   -1.0949   -0.9532 F   0  0  0  0  0  0  0  0  0  0  0  0
    6.9156   -2.5599   -1.2059 F   0  0  0  0  0  0  0  0  0  0  0  0
    5.1564   -0.4274   -0.3146 N   0  0  0  0  0  0  0  0  0  0  0  0
    2.4799    0.6840   -0.5075 C   0  0  0  0  0  0  0  0  0  0  0  0
   -1.3530    1.0745   -0.1856 H   0  0  0  0  0  0  0  0  0  0  0  0
   -2.9504    0.6899   -2.1027 H   0  0  0  0  0  0  0  0  0  0  0  0
   -1.8225   -0.5789   -2.6185 H   0  0  0  0  0  0  0  0  0  0  0  0
   -5.6144   -0.4312   -0.1498 H   0  0  0  0  0  0  0  0  0  0  0  0
   -6.5286    0.9419    1.6939 H   0  0  0  0  0  0  0  0  0  0  0  0
   -4.9580    2.0206    3.3092 H   0  0  0  0  0  0  0  0  0  0  0  0
   -2.5082    1.6686    2.9862 H   0  0  0  0  0  0  0  0  0  0  0  0
   -1.0089   -2.3369   -0.8875 H   0  0  0  0  0  0  0  0  0  0  0  0
   -1.4123   -1.9825    0.8054 H   0  0  0  0  0  0  0  0  0  0  0  0
   -2.7481   -4.1021   -0.6393 H   0  0  0  0  0  0  0  0  0  0  0  0
   -3.6021   -3.1713    0.6153 H   0  0  0  0  0  0  0  0  0  0  0  0
   -3.2891   -2.4149   -2.3849 H   0  0  0  0  0  0  0  0  0  0  0  0
   -4.7005   -2.1055   -1.3664 H   0  0  0  0  0  0  0  0  0  0  0  0
   -0.1064    2.8440    0.0542 H   0  0  0  0  0  0  0  0  0  0  0  0
    1.6059    3.9017    1.4766 H   0  0  0  0  0  0  0  0  0  0  0  0
    3.8677    2.9407    1.6381 H   0  0  0  0  0  0  0  0  0  0  0  0
    2.7152   -0.2152   -1.0767 H   0  0  0  0  0  0  0  0  0  0  0  0
  1  2  2  0
  2  3  1  0
  3  4  1  0
  4  5  1  0
  5  6  1  0
  6  7  2  0
  7  8  1  0
  8  9  2  0
  9 10  1  0
 10 11  2  0
  5 12  1  0
 12 13  1  0
 13 14  1  0
  2 15  1  0
 15 16  1  0
 16 17  2  0
 17 18  1  0
 18 19  2  0
 19 20  1  0
 20 21  2  0
 21 22  1  0
 22 23  1  0
 23 24  1  0
 24 25  1  0
 24 26  1  0
 24 27  1  0
 23 28  2  0
 19 29  1  0
 14  5  1  0
 29 15  2  0
 11  6  1  0
 28 20  1  0
  3 30  1  0
  4 31  1  0
  4 32  1  0
  7 33  1  0
  8 34  1  0
  9 35  1  0
 10 36  1  0
 12 37  1  0
 12 38  1  0
 13 39  1  0
 13 40  1  0
 14 41  1  0
 14 42  1  0
 16 43  1  0
 17 44  1  0
 18 45  1  0
 29 46  1  0
M  END
$$$$
OCNT-2318165
     RDKit          3D

 41 44  0  0  0  0  0  0  0  0999 V2000
    1.6220   -0.9660    0.8154 O   0  0  0  0  0  0  0  0  0  0  0  0
    1.6463    0.2300    0.5439 C   0  0  0  0  0  0  0  0  0  0  0  0
    0.4934    0.9938    0.4745 N   0  0  0  0  0  0  0  0  0  0  0  0
   -0.8139    0.4199    0.7495 C   0  0  0  0  0  0  0  0  0  0  0  0
   -1.3487   -0.4121   -0.4195 C   0  0  0  0  0  0  0  0  0  0  0  0
   -2.7343   -0.9154   -0.1637 C   0  0  0  0  0  0  0  0  0  0  0  0
   -3.0675   -2.1396    0.3824 C   0  0  0  0  0  0  0  0  0  0  0  0
   -4.4308   -2.2236    0.4580 N   0  0  0  0  0  0  0  0  0  0  0  0
   -5.0041   -1.0714   -0.0267 C   0  0  0  0  0  0  0  0  0  0  0  0
   -6.3527   -0.7137   -0.1405 C   0  0  0  0  0  0  0  0  0  0  0  0
   -6.6350    0.5391   -0.6818 C   0  0  0  0  0  0  0  0  0  0  0  0
   -7.9143    0.9189   -0.8072 F   0  0  0  0  0  0  0  0  0  0  0  0
   -5.6306    1.4041   -1.0949 C   0  0  0  0  0  0  0  0  0  0  0  0
   -4.2872    1.0310   -0.9741 C   0  0  0  0  0  0  0  0  0  0  0  0
   -3.9636   -0.2307   -0.4290 C   0  0  0  0  0  0  0  0  0  0  0  0
    2.9107    1.0215    0.2719 C   0  0  0  0  0  0  0  0  0  0  0  0
    2.9640    1.4776   -1.1912 C   0  0  0  0  0  0  0  0  0  0  0  0
    4.3319    1.4464   -1.6614 O   0  0  0  0  0  0  0  0  0  0  0  0
    4.9562    0.5945   -0.7892 C   0  0  0  0  0  0  0  0  0  0  0  0
    6.2330    0.1040   -0.9730 C   0  0  0  0  0  0  0  0  0  0  0  0
    6.7530   -0.7471    0.0035 C   0  0  0  0  0  0  0  0  0  0  0  0
    5.9931   -1.0775    1.1372 C   0  0  0  0  0  0  0  0  0  0  0  0
    4.7070   -0.5576    1.3090 C   0  0  0  0  0  0  0  0  0  0  0  0
    4.1973    0.2761    0.3268 C   0  0  0  0  0  0  0  0  0  0  0  0
    0.5588    1.9989    0.3784 H   0  0  0  0  0  0  0  0  0  0  0  0
   -1.4868    1.2571    0.9668 H   0  0  0  0  0  0  0  0  0  0  0  0
   -0.7429   -0.1921    1.6566 H   0  0  0  0  0  0  0  0  0  0  0  0
   -1.3409    0.1915   -1.3360 H   0  0  0  0  0  0  0  0  0  0  0  0
   -0.6815   -1.2608   -0.6145 H   0  0  0  0  0  0  0  0  0  0  0  0
   -2.4451   -2.9579    0.7220 H   0  0  0  0  0  0  0  0  0  0  0  0
   -4.9460   -3.0158    0.8169 H   0  0  0  0  0  0  0  0  0  0  0  0
   -7.1541   -1.3720    0.1732 H   0  0  0  0  0  0  0  0  0  0  0  0
   -5.8969    2.3696   -1.5134 H   0  0  0  0  0  0  0  0  0  0  0  0
   -3.5046    1.7085   -1.3017 H   0  0  0  0  0  0  0  0  0  0  0  0
    2.9649    1.8789    0.9534 H   0  0  0  0  0  0  0  0  0  0  0  0
    2.3698    0.8352   -1.8547 H   0  0  0  0  0  0  0  0  0  0  0  0
    2.5841    2.5000   -1.2981 H   0  0  0  0  0  0  0  0  0  0  0  0
    6.8099    0.3698   -1.8514 H   0  0  0  0  0  0  0  0  0  0  0  0
    7.7528   -1.1575   -0.1137 H   0  0  0  0  0  0  0  0  0  0  0  0
    6.4100   -1.7432    1.8894 H   0  0  0  0  0  0  0  0  0  0  0  0
    4.1232   -0.8124    2.1886 H   0  0  0  0  0  0  0  0  0  0  0  0
  1  2  2  0
  2  3  1  0
  3  4  1  0
  4  5  1  0
  5  6  1  0
  6  7  2  0
  7  8  1  0
  8  9  1  0
  9 10  2  0
 10 11  1  0
 11 12  1  0
 11 13  2  0
 13 14  1  0
 14 15  2  0
  2 16  1  0
 16 17  1  0
 17 18  1  0
 18 19  1  0
 19 20  2  0
 20 21  1  0
 21 22  2  0
 22 23  1  0
 23 24  2  0
 15  6  1  0
 24 16  1  0
 15  9  1  0
 24 19  1  0
  3 25  1  0
  4 26  1  0
  4 27  1  0
  5 28  1  0
  5 29  1  0
  7 30  1  0
  8 31  1  0
 10 32  1  0
 13 33  1  0
 14 34  1  0
 16 35  1  0
 17 36  1  0
 17 37  1  0
 20 38  1  0
 21 39  1  0
 22 40  1  0
 23 41  1  0
M  END
$$$$
OCNT-2318171
     RDKit          3D

 46 49  0  0  0  0  0  0  0  0999 V2000
    2.2514    0.3372    2.5676 C   0  0  0  0  0  0  0  0  0  0  0  0
    3.0509   -0.4129    1.5328 C   0  0  0  0  0  0  0  0  0  0  0  0
    4.0810   -1.2088    1.9136 C   0  0  0  0  0  0  0  0  0  0  0  0
    4.8947   -1.9540    0.9638 C   0  0  0  0  0  0  0  0  0  0  0  0
    4.6193   -1.8557   -0.3461 C   0  0  0  0  0  0  0  0  0  0  0  0
    3.5656   -1.0454   -0.7518 N   0  0  0  0  0  0  0  0  0  0  0  0
    3.0993   -0.7939   -2.0165 C   0  0  0  0  0  0  0  0  0  0  0  0
    2.0369    0.0713   -1.8608 C   0  0  0  0  0  0  0  0  0  0  0  0
    1.1482    0.6692   -2.8954 C   0  0  0  0  0  0  0  0  0  0  0  0
   -0.2819    0.1770   -2.7559 C   0  0  0  0  0  0  0  0  0  0  0  0
   -0.8836   -0.3577   -3.6844 O   0  0  0  0  0  0  0  0  0  0  0  0
   -0.8463    0.4150   -1.5183 N   0  0  0  0  0  0  0  0  0  0  0  0
   -2.1223   -0.1691   -1.1349 C   0  0  0  0  0  0  0  0  0  0  0  0
   -3.3178    0.5421   -1.7891 C   0  0  0  0  0  0  0  0  0  0  0  0
   -3.3660    2.0502   -1.5528 C   0  0  0  0  0  0  0  0  0  0  0  0
   -3.0177    2.4491   -0.1281 C   0  0  0  0  0  0  0  0  0  0  0  0
   -3.6955    1.6120    0.8079 O   0  0  0  0  0  0  0  0  0  0  0  0
   -2.9523    0.5379    1.2227 C   0  0  0  0  0  0  0  0  0  0  0  0
   -3.0217    0.2841    2.5954 C   0  0  0  0  0  0  0  0  0  0  0  0
   -2.2930   -0.7609    3.1458 C   0  0  0  0  0  0  0  0  0  0  0  0
   -2.3503   -0.9847    4.4662 F   0  0  0  0  0  0  0  0  0  0  0  0
   -1.4964   -1.5678    2.3490 C   0  0  0  0  0  0  0  0  0  0  0  0
   -1.4501   -1.3376    0.9739 C   0  0  0  0  0  0  0  0  0  0  0  0
   -2.1968   -0.2960    0.3803 C   0  0  0  0  0  0  0  0  0  0  0  0
    1.8419    0.3599   -0.5247 N   0  0  0  0  0  0  0  0  0  0  0  0
    2.7665   -0.3188    0.1255 C   0  0  0  0  0  0  0  0  0  0  0  0
    2.6070    0.1519    3.5867 H   0  0  0  0  0  0  0  0  0  0  0  0
    2.3106    1.4154    2.3830 H   0  0  0  0  0  0  0  0  0  0  0  0
    1.2010    0.0365    2.5234 H   0  0  0  0  0  0  0  0  0  0  0  0
    4.3424   -1.3186    2.9646 H   0  0  0  0  0  0  0  0  0  0  0  0
    5.7061   -2.5713    1.3353 H   0  0  0  0  0  0  0  0  0  0  0  0
    5.1789   -2.3789   -1.1127 H   0  0  0  0  0  0  0  0  0  0  0  0
    3.5453   -1.2436   -2.8924 H   0  0  0  0  0  0  0  0  0  0  0  0
    1.1508    1.7622   -2.8113 H   0  0  0  0  0  0  0  0  0  0  0  0
    1.5053    0.4128   -3.8981 H   0  0  0  0  0  0  0  0  0  0  0  0
   -0.1632    0.5661   -0.7731 H   0  0  0  0  0  0  0  0  0  0  0  0
   -2.1362   -1.1942   -1.5331 H   0  0  0  0  0  0  0  0  0  0  0  0
   -3.3077    0.3717   -2.8728 H   0  0  0  0  0  0  0  0  0  0  0  0
   -4.2509    0.0890   -1.4280 H   0  0  0  0  0  0  0  0  0  0  0  0
   -4.3839    2.3929   -1.7886 H   0  0  0  0  0  0  0  0  0  0  0  0
   -2.6967    2.5689   -2.2486 H   0  0  0  0  0  0  0  0  0  0  0  0
   -1.9328    2.4635    0.0460 H   0  0  0  0  0  0  0  0  0  0  0  0
   -3.3609    3.4766    0.0455 H   0  0  0  0  0  0  0  0  0  0  0  0
   -3.6302    0.9087    3.2403 H   0  0  0  0  0  0  0  0  0  0  0  0
   -0.9205   -2.3706    2.7953 H   0  0  0  0  0  0  0  0  0  0  0  0
   -0.8282   -1.9807    0.3528 H   0  0  0  0  0  0  0  0  0  0  0  0
  1  2  1  0
  2  3  2  0
  3  4  1  0
  4  5  2  0
  5  6  1  0
  6  7  1  0
  7  8  2  0
  8  9  1  0
  9 10  1  0
 10 11  2  0
 10 12  1  0
 12 13  1  0
 13 14  1  0
 14 15  1  0
 15 16  1  0
 16 17  1  0
 17 18  1  0
 18 19  1  0
 19 20  2  0
 20 21  1  0
 20 22  1  0
 22 23  2  0
 23 24  1  0
  8 25  1  0
 25 26  2  0
 26  2  1  0
 26  6  1  0
 24 13  1  0
 24 18  2  0
  1 27  1  0
  1 28  1  0
  1 29  1  0
  3 30  1  0
  4 31  1  0
  5 32  1  0
  7 33  1  0
  9 34  1  0
  9 35  1  0
 12 36  1  0
 13 37  1  0
 14 38  1  0
 14 39  1  0
 15 40  1  0
 15 41  1  0
 16 42  1  0
 16 43  1  0
 19 44  1  0
 22 45  1  0
 23 46  1  0
M  END
$$$$
OCNT-2318184
     RDKit          3D

 58 60  0  0  0  0  0  0  0  0999 V2000
   -4.0016    1.8199    3.5104 C   0  0  0  0  0  0  0  0  0  0  0  0
   -3.7840    0.7340    2.4989 C   0  0  0  0  0  0  0  0  0  0  0  0
   -3.7364    1.0309    1.1366 C   0  0  0  0  0  0  0  0  0  0  0  0
   -3.5610    0.0265    0.1647 C   0  0  0  0  0  0  0  0  0  0  0  0
   -3.5204    0.4784   -1.2704 C   0  0  0  0  0  0  0  0  0  0  0  0
   -3.4352   -1.3197    0.5876 C   0  0  0  0  0  0  0  0  0  0  0  0
   -3.2078   -2.6511   -0.6050 S   0  0  0  0  0  0  0  0  0  0  0  0
   -4.0149   -3.7762   -0.1774 O   0  0  0  0  0  0  0  0  0  0  0  0
   -3.3310   -2.1691   -1.9631 O   0  0  0  0  0  0  0  0  0  0  0  0
   -1.5963   -3.1163   -0.3454 N   0  0  0  0  0  0  0  0  0  0  0  0
   -0.5705   -2.3812   -1.0064 C   0  0  0  0  0  0  0  0  0  0  0  0
   -0.1476   -1.1718   -0.4510 C   0  0  0  0  0  0  0  0  0  0  0  0
    0.8239   -0.4011   -1.0978 C   0  0  0  0  0  0  0  0  0  0  0  0
    1.2289    0.8887   -0.4771 C   0  0  0  0  0  0  0  0  0  0  0  0
    0.4446    1.5014    0.2372 O   0  0  0  0  0  0  0  0  0  0  0  0
    2.5161    1.3106   -0.7300 N   0  0  0  0  0  0  0  0  0  0  0  0
    3.0532    2.5183   -0.1202 C   0  0  0  0  0  0  0  0  0  0  0  0
    2.4936    3.7767   -0.7923 C   0  0  0  0  0  0  0  0  0  0  0  0
    4.5643    2.4766   -0.1572 C   0  0  0  0  0  0  0  0  0  0  0  0
    5.2984    2.6288   -1.3396 C   0  0  0  0  0  0  0  0  0  0  0  0
    6.6879    2.5562   -1.3096 C   0  0  0  0  0  0  0  0  0  0  0  0
    7.3059    2.3222   -0.0937 C   0  0  0  0  0  0  0  0  0  0  0  0
    6.6369    2.1571    1.0656 N   0  0  0  0  0  0  0  0  0  0  0  0
    5.2879    2.2365    1.0084 C   0  0  0  0  0  0  0  0  0  0  0  0
    1.3589   -0.8378   -2.3139 C   0  0  0  0  0  0  0  0  0  0  0  0
    0.9340   -2.0476   -2.8687 C   0  0  0  0  0  0  0  0  0  0  0  0
   -0.0365   -2.8313   -2.2253 C   0  0  0  0  0  0  0  0  0  0  0  0
   -0.4826   -4.1188   -2.8607 C   0  0  0  0  0  0  0  0  0  0  0  0
   -3.4915   -1.6348    1.9712 C   0  0  0  0  0  0  0  0  0  0  0  0
   -3.3950   -3.0332    2.5245 C   0  0  0  0  0  0  0  0  0  0  0  0
   -3.6797   -0.5967    2.9025 C   0  0  0  0  0  0  0  0  0  0  0  0
   -3.6464    2.7850    3.1346 H   0  0  0  0  0  0  0  0  0  0  0  0
   -3.4494    1.6080    4.4320 H   0  0  0  0  0  0  0  0  0  0  0  0
   -5.0673    1.9048    3.7450 H   0  0  0  0  0  0  0  0  0  0  0  0
   -3.8319    2.0705    0.8237 H   0  0  0  0  0  0  0  0  0  0  0  0
   -4.3800    0.0843   -1.8204 H   0  0  0  0  0  0  0  0  0  0  0  0
   -2.5819    0.1844   -1.7477 H   0  0  0  0  0  0  0  0  0  0  0  0
   -3.5725    1.5702   -1.3497 H   0  0  0  0  0  0  0  0  0  0  0  0
   -1.5213   -4.1320   -0.3292 H   0  0  0  0  0  0  0  0  0  0  0  0
   -0.5624   -0.8252    0.4932 H   0  0  0  0  0  0  0  0  0  0  0  0
    3.1706    0.6691   -1.1567 H   0  0  0  0  0  0  0  0  0  0  0  0
    2.7208    2.5332    0.9260 H   0  0  0  0  0  0  0  0  0  0  0  0
    1.4087    3.8433   -0.6600 H   0  0  0  0  0  0  0  0  0  0  0  0
    2.6835    3.7818   -1.8715 H   0  0  0  0  0  0  0  0  0  0  0  0
    2.9383    4.6822   -0.3645 H   0  0  0  0  0  0  0  0  0  0  0  0
    4.7967    2.8028   -2.2875 H   0  0  0  0  0  0  0  0  0  0  0  0
    7.2741    2.6762   -2.2136 H   0  0  0  0  0  0  0  0  0  0  0  0
    8.3871    2.2572   -0.0188 H   0  0  0  0  0  0  0  0  0  0  0  0
    4.7894    2.0914    1.9644 H   0  0  0  0  0  0  0  0  0  0  0  0
    2.0809   -0.2372   -2.8601 H   0  0  0  0  0  0  0  0  0  0  0  0
    1.3530   -2.3673   -3.8216 H   0  0  0  0  0  0  0  0  0  0  0  0
   -1.5619   -4.1072   -3.0406 H   0  0  0  0  0  0  0  0  0  0  0  0
    0.0063   -4.2808   -3.8268 H   0  0  0  0  0  0  0  0  0  0  0  0
   -0.2305   -4.9659   -2.2145 H   0  0  0  0  0  0  0  0  0  0  0  0
   -2.5448   -3.5748    2.1045 H   0  0  0  0  0  0  0  0  0  0  0  0
   -3.2355   -3.0199    3.6090 H   0  0  0  0  0  0  0  0  0  0  0  0
   -4.3241   -3.5807    2.3417 H   0  0  0  0  0  0  0  0  0  0  0  0
   -3.7423   -0.8293    3.9650 H   0  0  0  0  0  0  0  0  0  0  0  0
  1  2  1  0
  2  3  2  0
  3  4  1  0
  4  5  1  0
  4  6  2  0
  6  7  1  0
  7  8  2  0
  7  9  2  0
  7 10  1  0
 10 11  1  0
 11 12  1  0
 12 13  2  0
 13 14  1  0
 14 15  2  0
 14 16  1  0
 16 17  1  0
 17 18  1  0
 17 19  1  0
 19 20  1  0
 20 21  2  0
 21 22  1  0
 22 23  2  0
 23 24  1  0
 13 25  1  0
 25 26  2  0
 26 27  1  0
 27 28  1  0
  6 29  1  0
 29 30  1  0
 29 31  2  0
 31  2  1  0
 27 11  2  0
 24 19  2  0
  1 32  1  0
  1 33  1  0
  1 34  1  0
  3 35  1  0
  5 36  1  0
  5 37  1  0
  5 38  1  0
 10 39  1  0
 12 40  1  0
 16 41  1  0
 17 42  1  0
 18 43  1  0
 18 44  1  0
 18 45  1  0
 20 46  1  0
 21 47  1  0
 22 48  1  0
 24 49  1  0
 25 50  1  0
 26 51  1  0
 28 52  1  0
 28 53  1  0
 28 54  1  0
 30 55  1  0
 30 56  1  0
 30 57  1  0
 31 58  1  0
M  END
$$$$
OCNT-2318193
     RDKit          3D

 45 48  0  0  0  0  0  0  0  0999 V2000
   -2.8321    3.6144   -0.1267 C   0  0  0  0  0  0  0  0  0  0  0  0
   -2.3263    2.2714    0.1514 N   0  0  0  0  0  0  0  0  0  0  0  0
   -0.8770    2.3050    0.4207 C   0  0  0  0  0  0  0  0  0  0  0  0
   -0.2848    0.9002    0.6387 C   0  0  0  0  0  0  0  0  0  0  0  0
   -0.5616   -0.0307   -0.4964 N   0  0  0  0  0  0  0  0  0  0  0  0
    0.4471    0.0843   -1.8515 S   0  0  0  0  0  0  0  0  0  0  0  0
    0.4646    1.4537   -2.3155 O   0  0  0  0  0  0  0  0  0  0  0  0
    0.1160   -1.0054   -2.7471 O   0  0  0  0  0  0  0  0  0  0  0  0
    2.1230   -0.2693   -1.3219 C   0  0  0  0  0  0  0  0  0  0  0  0
    2.8859   -1.4261   -1.4453 C   0  0  0  0  0  0  0  0  0  0  0  0
    4.1466   -1.1835   -0.8483 C   0  0  0  0  0  0  0  0  0  0  0  0
    5.3263   -1.9214   -0.6499 C   0  0  0  0  0  0  0  0  0  0  0  0
    6.4001   -1.3061    0.0099 C   0  0  0  0  0  0  0  0  0  0  0  0
    6.3070    0.0126    0.4631 C   0  0  0  0  0  0  0  0  0  0  0  0
    5.1405    0.7611    0.2742 C   0  0  0  0  0  0  0  0  0  0  0  0
    4.0927    0.1216   -0.3836 C   0  0  0  0  0  0  0  0  0  0  0  0
    2.8839    0.6746   -0.6599 O   0  0  0  0  0  0  0  0  0  0  0  0
   -2.0298   -0.0832   -0.8210 C   0  0  0  0  0  0  0  0  0  0  0  0
   -2.7539   -1.0198    0.1450 C   0  0  0  0  0  0  0  0  0  0  0  0
   -2.4731   -2.3976    0.0709 C   0  0  0  0  0  0  0  0  0  0  0  0
   -3.0981   -3.3080    0.9248 C   0  0  0  0  0  0  0  0  0  0  0  0
   -4.0124   -2.8566    1.8718 C   0  0  0  0  0  0  0  0  0  0  0  0
   -4.2977   -1.4967    1.9657 C   0  0  0  0  0  0  0  0  0  0  0  0
   -3.6725   -0.5845    1.1106 C   0  0  0  0  0  0  0  0  0  0  0  0
   -2.6104    1.3598   -0.9814 C   0  0  0  0  0  0  0  0  0  0  0  0
   -2.6542    4.2755    0.7287 H   0  0  0  0  0  0  0  0  0  0  0  0
   -2.3637    4.0612   -1.0110 H   0  0  0  0  0  0  0  0  0  0  0  0
   -3.9158    3.5900   -0.2858 H   0  0  0  0  0  0  0  0  0  0  0  0
   -0.3457    2.8139   -0.3913 H   0  0  0  0  0  0  0  0  0  0  0  0
   -0.6964    2.8905    1.3306 H   0  0  0  0  0  0  0  0  0  0  0  0
   -0.7039    0.4591    1.5518 H   0  0  0  0  0  0  0  0  0  0  0  0
    0.7909    0.9738    0.8203 H   0  0  0  0  0  0  0  0  0  0  0  0
    2.5471   -2.3359   -1.9223 H   0  0  0  0  0  0  0  0  0  0  0  0
    5.4102   -2.9462   -0.9994 H   0  0  0  0  0  0  0  0  0  0  0  0
    7.3202   -1.8651    0.1695 H   0  0  0  0  0  0  0  0  0  0  0  0
    7.1559    0.4666    0.9703 H   0  0  0  0  0  0  0  0  0  0  0  0
    5.0521    1.7848    0.6168 H   0  0  0  0  0  0  0  0  0  0  0  0
   -2.1642   -0.5555   -1.8042 H   0  0  0  0  0  0  0  0  0  0  0  0
   -1.7548   -2.7657   -0.6605 H   0  0  0  0  0  0  0  0  0  0  0  0
   -2.8680   -4.3674    0.8506 H   0  0  0  0  0  0  0  0  0  0  0  0
   -4.4994   -3.5626    2.5389 H   0  0  0  0  0  0  0  0  0  0  0  0
   -5.0066   -1.1412    2.7092 H   0  0  0  0  0  0  0  0  0  0  0  0
   -3.9134    0.4695    1.2234 H   0  0  0  0  0  0  0  0  0  0  0  0
   -2.1984    1.7935   -1.9027 H   0  0  0  0  0  0  0  0  0  0  0  0
   -3.6959    1.2914   -1.1287 H   0  0  0  0  0  0  0  0  0  0  0  0
  1  2  1  0
  2  3  1  0
  3  4  1  0
  4  5  1  0
  5  6  1  0
  6  7  2  0
  6  8  2  0
  6  9  1  0
  9 10  2  0
 10 11  1  0
 11 12  2  0
 12 13  1  0
 13 14  2  0
 14 15  1  0
 15 16  2  0
 16 17  1  0
  5 18  1  0
 18 19  1  0
 19 20  2  0
 20 21  1  0
 21 22  2  0
 22 23  1  0
 23 24  2  0
 18 25  1  0
 25  2  1  0
 17  9  1  0
 24 19  1  0
 16 11  1  0
  1 26  1  0
  1 27  1  0
  1 28  1  0
  3 29  1  0
  3 30  1  0
  4 31  1  0
  4 32  1  0
 10 33  1  0
 12 34  1  0
 13 35  1  0
 14 36  1  0
 15 37  1  0
 18 38  1  0
 20 39  1  0
 21 40  1  0
 22 41  1  0
 23 42  1  0
 24 43  1  0
 25 44  1  0
 25 45  1  0
M  END
$$$$
OCNT-2318205
     RDKit          3D

 45 47  0  0  0  0  0  0  0  0999 V2000
   -4.2157    2.0775   -4.0582 C   0  0  0  0  0  0  0  0  0  0  0  0
   -3.1367    1.4793   -3.1879 C   0  0  0  0  0  0  0  0  0  0  0  0
   -1.9586    1.5787   -3.5047 O   0  0  0  0  0  0  0  0  0  0  0  0
   -3.6626    0.8488   -2.0742 N   0  0  0  0  0  0  0  0  0  0  0  0
   -2.9728    0.1498   -1.0525 C   0  0  0  0  0  0  0  0  0  0  0  0
   -1.5944   -0.1205   -1.1146 C   0  0  0  0  0  0  0  0  0  0  0  0
   -0.9429   -0.8090   -0.0839 C   0  0  0  0  0  0  0  0  0  0  0  0
    0.4343   -1.1087   -0.0697 N   0  0  0  0  0  0  0  0  0  0  0  0
    1.3599   -0.9322   -1.0715 C   0  0  0  0  0  0  0  0  0  0  0  0
    1.1257   -0.5569   -2.2149 O   0  0  0  0  0  0  0  0  0  0  0  0
    2.6420   -1.2303   -0.6866 N   0  0  0  0  0  0  0  0  0  0  0  0
    3.8676   -0.9973   -1.4268 C   0  0  0  0  0  0  0  0  0  0  0  0
    4.6164   -1.5110   -0.1960 C   0  0  0  0  0  0  0  0  0  0  0  0
    3.2947   -1.4453    0.5980 C   0  0  0  0  0  0  0  0  0  0  0  0
    3.1560   -0.3249    1.7201 C   0  0  0  0  0  0  0  0  0  0  0  0
    2.8369    1.0213    1.4304 C   0  0  0  0  0  0  0  0  0  0  0  0
    2.7164    1.9885    2.4327 C   0  0  0  0  0  0  0  0  0  0  0  0
    2.9197    1.6292    3.7556 C   0  0  0  0  0  0  0  0  0  0  0  0
    2.8065    2.5521    4.7192 F   0  0  0  0  0  0  0  0  0  0  0  0
    3.2400    0.3226    4.0919 C   0  0  0  0  0  0  0  0  0  0  0  0
    3.3562   -0.6387    3.0832 C   0  0  0  0  0  0  0  0  0  0  0  0
   -1.6809   -1.2223    1.0275 C   0  0  0  0  0  0  0  0  0  0  0  0
   -3.0505   -0.9755    1.1002 C   0  0  0  0  0  0  0  0  0  0  0  0
   -3.7118   -0.2943    0.0673 C   0  0  0  0  0  0  0  0  0  0  0  0
   -5.1919   -0.0567    0.2096 C   0  0  0  0  0  0  0  0  0  0  0  0
   -3.7765    2.8347   -4.7146 H   0  0  0  0  0  0  0  0  0  0  0  0
   -4.9823    2.5634   -3.4475 H   0  0  0  0  0  0  0  0  0  0  0  0
   -4.6702    1.2910   -4.6664 H   0  0  0  0  0  0  0  0  0  0  0  0
   -4.6624    0.9307   -1.9590 H   0  0  0  0  0  0  0  0  0  0  0  0
   -1.0208    0.2087   -1.9731 H   0  0  0  0  0  0  0  0  0  0  0  0
    0.7856   -1.5584    0.7604 H   0  0  0  0  0  0  0  0  0  0  0  0
    4.0285    0.0576   -1.6670 H   0  0  0  0  0  0  0  0  0  0  0  0
    3.9660   -1.6152   -2.3230 H   0  0  0  0  0  0  0  0  0  0  0  0
    5.0169   -2.5262   -0.3064 H   0  0  0  0  0  0  0  0  0  0  0  0
    5.4200   -0.8559    0.1550 H   0  0  0  0  0  0  0  0  0  0  0  0
    3.0177   -2.4332    0.9946 H   0  0  0  0  0  0  0  0  0  0  0  0
    2.6716    1.3258    0.3964 H   0  0  0  0  0  0  0  0  0  0  0  0
    2.4640    3.0144    2.1827 H   0  0  0  0  0  0  0  0  0  0  0  0
    3.3993    0.0594    5.1331 H   0  0  0  0  0  0  0  0  0  0  0  0
    3.6120   -1.6602    3.3639 H   0  0  0  0  0  0  0  0  0  0  0  0
   -1.2036   -1.7504    1.8491 H   0  0  0  0  0  0  0  0  0  0  0  0
   -3.5983   -1.3189    1.9749 H   0  0  0  0  0  0  0  0  0  0  0  0
   -5.5746   -0.4443    1.1604 H   0  0  0  0  0  0  0  0  0  0  0  0
   -5.7364   -0.5630   -0.5936 H   0  0  0  0  0  0  0  0  0  0  0  0
   -5.4101    1.0158    0.1860 H   0  0  0  0  0  0  0  0  0  0  0  0
  1  2  1  0
  2  3  2  0
  2  4  1  0
  4  5  1  0
  5  6  1  0
  6  7  2  0
  7  8  1  0
  8  9  1  0
  9 10  2  0
  9 11  1  0
 11 12  1  0
 12 13  1  0
 13 14  1  0
 14 15  1  0
 15 16  1  0
 16 17  2  0
 17 18  1  0
 18 19  1  0
 18 20  2  0
 20 21  1  0
  7 22  1  0
 22 23  2  0
 23 24  1  0
 24 25  1  0
 24  5  2  0
 14 11  1  0
 21 15  2  0
  1 26  1  0
  1 27  1  0
  1 28  1  0
  4 29  1  0
  6 30  1  0
  8 31  1  0
 12 32  1  0
 12 33  1  0
 13 34  1  0
 13 35  1  0
 14 36  1  0
 16 37  1  0
 17 38  1  0
 20 39  1  0
 21 40  1  0
 22 41  1  0
 23 42  1  0
 25 43  1  0
 25 44  1  0
 25 45  1  0
M  END
$$$$
OCNT-2318213
     RDKit          3D

 53 56  0  0  0  0  0  0  0  0999 V2000
    3.1927    3.0990   -1.8494 C   0  0  0  0  0  0  0  0  0  0  0  0
    3.9142    2.3330   -0.8054 C   0  0  0  0  0  0  0  0  0  0  0  0
    5.0172    2.7573   -0.0889 C   0  0  0  0  0  0  0  0  0  0  0  0
    5.3240    1.7132    0.7913 C   0  0  0  0  0  0  0  0  0  0  0  0
    6.4209    1.6400    1.7851 C   0  0  0  0  0  0  0  0  0  0  0  0
    4.4721    0.6992    0.6592 N   0  0  0  0  0  0  0  0  0  0  0  0
    3.6140    1.0527   -0.3422 N   0  0  0  0  0  0  0  0  0  0  0  0
    2.6086    0.1041   -0.7294 C   0  0  0  0  0  0  0  0  0  0  0  0
    1.7409    0.2982   -1.8038 C   0  0  0  0  0  0  0  0  0  0  0  0
    0.7891   -0.6747   -2.1341 C   0  0  0  0  0  0  0  0  0  0  0  0
    0.6813   -1.8710   -1.4080 C   0  0  0  0  0  0  0  0  0  0  0  0
   -0.3870   -2.8670   -1.8027 C   0  0  0  0  0  0  0  0  0  0  0  0
   -1.5412   -2.7314   -0.9515 N   0  0  0  0  0  0  0  0  0  0  0  0
   -2.5628   -1.8758   -1.2644 C   0  0  0  0  0  0  0  0  0  0  0  0
   -2.6993   -1.3100   -2.3390 O   0  0  0  0  0  0  0  0  0  0  0  0
   -3.5522   -1.6863   -0.1728 C   0  0  0  0  0  0  0  0  0  0  0  0
   -3.1103   -1.3675    1.2370 C   0  0  0  0  0  0  0  0  0  0  0  0
   -3.8170   -0.3028    0.4228 C   0  0  0  0  0  0  0  0  0  0  0  0
   -5.2384    0.0570    0.8209 C   0  0  0  0  0  0  0  0  0  0  0  0
   -5.6807    1.3230    0.0898 C   0  0  0  0  0  0  0  0  0  0  0  0
   -4.8706    2.4577    0.4124 O   0  0  0  0  0  0  0  0  0  0  0  0
   -3.4899    2.1573    0.6535 C   0  0  0  0  0  0  0  0  0  0  0  0
   -3.0123    0.8958   -0.0608 C   0  0  0  0  0  0  0  0  0  0  0  0
    1.5346   -2.0768   -0.3045 C   0  0  0  0  0  0  0  0  0  0  0  0
    1.4438   -3.3234    0.5473 C   0  0  0  0  0  0  0  0  0  0  0  0
    2.2566   -3.3151    1.6390 F   0  0  0  0  0  0  0  0  0  0  0  0
    1.7609   -4.4520   -0.1446 F   0  0  0  0  0  0  0  0  0  0  0  0
    0.1854   -3.5294    1.0348 F   0  0  0  0  0  0  0  0  0  0  0  0
    2.4929   -1.0915    0.0095 C   0  0  0  0  0  0  0  0  0  0  0  0
    2.1301    3.1984   -1.6099 H   0  0  0  0  0  0  0  0  0  0  0  0
    3.3194    2.6359   -2.8323 H   0  0  0  0  0  0  0  0  0  0  0  0
    3.5941    4.1157   -1.9251 H   0  0  0  0  0  0  0  0  0  0  0  0
    5.5275    3.7048   -0.1928 H   0  0  0  0  0  0  0  0  0  0  0  0
    7.0755    2.5142    1.7150 H   0  0  0  0  0  0  0  0  0  0  0  0
    6.0166    1.5976    2.8020 H   0  0  0  0  0  0  0  0  0  0  0  0
    7.0320    0.7466    1.6174 H   0  0  0  0  0  0  0  0  0  0  0  0
    1.7609    1.1771   -2.4315 H   0  0  0  0  0  0  0  0  0  0  0  0
    0.1148   -0.4865   -2.9715 H   0  0  0  0  0  0  0  0  0  0  0  0
   -0.6754   -2.7257   -2.8506 H   0  0  0  0  0  0  0  0  0  0  0  0
   -0.0182   -3.8929   -1.7146 H   0  0  0  0  0  0  0  0  0  0  0  0
   -1.4836   -3.0921   -0.0073 H   0  0  0  0  0  0  0  0  0  0  0  0
   -4.4133   -2.3409   -0.2828 H   0  0  0  0  0  0  0  0  0  0  0  0
   -2.0528   -1.2339    1.4459 H   0  0  0  0  0  0  0  0  0  0  0  0
   -3.6482   -1.8435    2.0510 H   0  0  0  0  0  0  0  0  0  0  0  0
   -5.9314   -0.7607    0.5973 H   0  0  0  0  0  0  0  0  0  0  0  0
   -5.2664    0.2338    1.9026 H   0  0  0  0  0  0  0  0  0  0  0  0
   -6.7130    1.5705    0.3558 H   0  0  0  0  0  0  0  0  0  0  0  0
   -5.6481    1.1805   -0.9960 H   0  0  0  0  0  0  0  0  0  0  0  0
   -3.3538    2.0589    1.7376 H   0  0  0  0  0  0  0  0  0  0  0  0
   -2.9045    3.0239    0.3255 H   0  0  0  0  0  0  0  0  0  0  0  0
   -1.9398    0.7543    0.1133 H   0  0  0  0  0  0  0  0  0  0  0  0
   -3.1653    1.0194   -1.1400 H   0  0  0  0  0  0  0  0  0  0  0  0
    3.1552   -1.2682    0.8604 H   0  0  0  0  0  0  0  0  0  0  0  0
  1  2  1  0
  2  3  2  0
  3  4  1  0
  4  5  1  0
  4  6  2  0
  6  7  1  0
  7  8  1  0
  8  9  1  0
  9 10  2  0
 10 11  1  0
 11 12  1  0
 12 13  1  0
 13 14  1  0
 14 15  2  0
 14 16  1  0
 16 17  1  0
 17 18  1  0
 18 19  1  0
 19 20  1  0
 20 21  1  0
 21 22  1  0
 22 23  1  0
 11 24  2  0
 24 25  1  0
 25 26  1  0
 25 27  1  0
 25 28  1  0
 24 29  1  0
  7  2  1  0
 29  8  2  0
 18 16  1  0
 23 18  1  0
  1 30  1  0
  1 31  1  0
  1 32  1  0
  3 33  1  0
  5 34  1  0
  5 35  1  0
  5 36  1  0
  9 37  1  0
 10 38  1  0
 12 39  1  0
 12 40  1  0
 13 41  1  0
 16 42  1  0
 17 43  1  0
 17 44  1  0
 19 45  1  0
 19 46  1  0
 20 47  1  0
 20 48  1  0
 22 49  1  0
 22 50  1  0
 23 51  1  0
 23 52  1  0
 29 53  1  0
M  END
$$$$
OCNT-2318216
     RDKit          3D

 39 42  0  0  0  0  0  0  0  0999 V2000
   -0.5187    1.8993   -1.1760 O   0  0  0  0  0  0  0  0  0  0  0  0
   -0.1518    1.0142   -0.4043 C   0  0  0  0  0  0  0  0  0  0  0  0
   -1.0809    0.3379    0.3621 N   0  0  0  0  0  0  0  0  0  0  0  0
   -2.5159    0.5756    0.2362 C   0  0  0  0  0  0  0  0  0  0  0  0
   -3.2509    0.0547    1.4981 C   0  0  0  0  0  0  0  0  0  0  0  0
   -4.7638    0.3518    1.4654 C   0  0  0  0  0  0  0  0  0  0  0  0
   -5.3288    0.0301    0.1332 C   0  0  0  0  0  0  0  0  0  0  0  0
   -4.5557   -0.1310   -0.9928 C   0  0  0  0  0  0  0  0  0  0  0  0
   -3.0767   -0.0574   -1.0704 C   0  0  0  0  0  0  0  0  0  0  0  0
   -5.4109   -0.3882   -2.0200 N   0  0  0  0  0  0  0  0  0  0  0  0
   -6.6991   -0.4174   -1.6280 N   0  0  0  0  0  0  0  0  0  0  0  0
   -6.6466   -0.1550   -0.3174 C   0  0  0  0  0  0  0  0  0  0  0  0
    1.2404    0.6053   -0.2414 C   0  0  0  0  0  0  0  0  0  0  0  0
    1.8394   -0.3720    0.5336 C   0  0  0  0  0  0  0  0  0  0  0  0
    1.0290   -1.4614    1.5970 Cl  0  0  0  0  0  0  0  0  0  0  0  0
    3.2752   -0.4277    0.3835 C   0  0  0  0  0  0  0  0  0  0  0  0
    4.2506   -1.2645    0.9874 C   0  0  0  0  0  0  0  0  0  0  0  0
    5.6083   -1.1264    0.6763 C   0  0  0  0  0  0  0  0  0  0  0  0
    6.0362   -0.1667   -0.2412 C   0  0  0  0  0  0  0  0  0  0  0  0
    7.5045   -0.0054   -0.5573 C   0  0  0  0  0  0  0  0  0  0  0  0
    8.1104    0.9019    0.2561 F   0  0  0  0  0  0  0  0  0  0  0  0
    7.7324    0.4197   -1.8309 F   0  0  0  0  0  0  0  0  0  0  0  0
    8.2102   -1.1625   -0.4203 F   0  0  0  0  0  0  0  0  0  0  0  0
    5.0887    0.6772   -0.8427 C   0  0  0  0  0  0  0  0  0  0  0  0
    3.7226    0.5313   -0.5239 C   0  0  0  0  0  0  0  0  0  0  0  0
    2.4225    1.4530   -1.1544 S   0  0  0  0  0  0  0  0  0  0  0  0
   -0.7752   -0.4653    0.8967 H   0  0  0  0  0  0  0  0  0  0  0  0
   -2.6644    1.6631    0.1830 H   0  0  0  0  0  0  0  0  0  0  0  0
   -2.8148    0.4990    2.4013 H   0  0  0  0  0  0  0  0  0  0  0  0
   -3.0956   -1.0300    1.5809 H   0  0  0  0  0  0  0  0  0  0  0  0
   -5.2694   -0.2225    2.2494 H   0  0  0  0  0  0  0  0  0  0  0  0
   -4.9294    1.4152    1.6756 H   0  0  0  0  0  0  0  0  0  0  0  0
   -2.6742   -1.0704   -1.1962 H   0  0  0  0  0  0  0  0  0  0  0  0
   -2.7610    0.5278   -1.9413 H   0  0  0  0  0  0  0  0  0  0  0  0
   -5.1991   -0.5556   -2.9985 H   0  0  0  0  0  0  0  0  0  0  0  0
   -7.5701   -0.1097    0.2455 H   0  0  0  0  0  0  0  0  0  0  0  0
    3.9485   -2.0254    1.7049 H   0  0  0  0  0  0  0  0  0  0  0  0
    6.3309   -1.7827    1.1612 H   0  0  0  0  0  0  0  0  0  0  0  0
    5.4029    1.4400   -1.5540 H   0  0  0  0  0  0  0  0  0  0  0  0
  1  2  2  0
  2  3  1  0
  3  4  1  0
  4  5  1  0
  5  6  1  0
  6  7  1  0
  7  8  2  0
  8  9  1  0
  8 10  1  0
 10 11  1  0
 11 12  2  0
  2 13  1  0
 13 14  2  0
 14 15  1  0
 14 16  1  0
 16 17  2  0
 17 18  1  0
 18 19  2  0
 19 20  1  0
 20 21  1  0
 20 22  1  0
 20 23  1  0
 19 24  1  0
 24 25  2  0
 25 26  1  0
  9  4  1  0
 26 13  1  0
 12  7  1  0
 25 16  1  0
  3 27  1  0
  4 28  1  0
  5 29  1  0
  5 30  1  0
  6 31  1  0
  6 32  1  0
  9 33  1  0
  9 34  1  0
 10 35  1  0
 12 36  1  0
 17 37  1  0
 18 38  1  0
 24 39  1  0
M  END
$$$$
OCNT-2318220
     RDKit          3D

 62 65  0  0  0  0  0  0  0  0999 V2000
    5.4060   -1.0240   -3.4406 C   0  0  0  0  0  0  0  0  0  0  0  0
    5.0209   -0.8731   -2.0600 N   0  0  0  0  0  0  0  0  0  0  0  0
    4.2891    0.2188   -1.6409 C   0  0  0  0  0  0  0  0  0  0  0  0
    3.8693    1.0840   -2.3961 O   0  0  0  0  0  0  0  0  0  0  0  0
    4.0214    0.2156   -0.1431 C   0  0  0  0  0  0  0  0  0  0  0  0
    3.1376    1.3907    0.3239 C   0  0  0  0  0  0  0  0  0  0  0  0
    1.6989    1.2626   -0.2211 C   0  0  0  0  0  0  0  0  0  0  0  0
    0.6617    1.8193    0.7471 C   0  0  0  0  0  0  0  0  0  0  0  0
    0.7123    1.0751    2.0307 N   0  0  0  0  0  0  0  0  0  0  0  0
   -0.6017    0.0747    2.4323 S   0  0  0  0  0  0  0  0  0  0  0  0
   -1.8111    0.8510    2.2483 O   0  0  0  0  0  0  0  0  0  0  0  0
   -0.3185   -0.5592    3.7049 O   0  0  0  0  0  0  0  0  0  0  0  0
   -0.5547   -1.1979    1.1794 C   0  0  0  0  0  0  0  0  0  0  0  0
    0.3678   -2.2478    1.3722 C   0  0  0  0  0  0  0  0  0  0  0  0
    0.5431   -3.2412    0.4002 C   0  0  0  0  0  0  0  0  0  0  0  0
    1.5667   -4.3312    0.6001 C   0  0  0  0  0  0  0  0  0  0  0  0
    2.7431   -3.8447    1.0894 F   0  0  0  0  0  0  0  0  0  0  0  0
    1.8913   -4.9911   -0.5465 F   0  0  0  0  0  0  0  0  0  0  0  0
    1.1564   -5.2830    1.4816 F   0  0  0  0  0  0  0  0  0  0  0  0
   -0.2687   -3.2033   -0.7373 C   0  0  0  0  0  0  0  0  0  0  0  0
   -1.2191   -2.1869   -0.9019 C   0  0  0  0  0  0  0  0  0  0  0  0
   -1.3872   -1.1616    0.0457 C   0  0  0  0  0  0  0  0  0  0  0  0
   -2.3739   -0.1788   -0.1599 N   0  0  0  0  0  0  0  0  0  0  0  0
   -3.2215    0.0160   -1.3022 C   0  0  0  0  0  0  0  0  0  0  0  0
   -4.4472   -0.9285   -1.3052 C   0  0  0  0  0  0  0  0  0  0  0  0
   -5.2278    0.1677   -0.5550 C   0  0  0  0  0  0  0  0  0  0  0  0
   -4.2328    1.1978   -1.1489 C   0  0  0  0  0  0  0  0  0  0  0  0
   -3.8587    2.4613   -0.4047 C   0  0  0  0  0  0  0  0  0  0  0  0
   -4.8880    3.4911   -0.0138 C   0  0  0  0  0  0  0  0  0  0  0  0
   -4.1361    2.7363    1.0471 C   0  0  0  0  0  0  0  0  0  0  0  0
    2.0570    0.6743    2.5108 C   0  0  0  0  0  0  0  0  0  0  0  0
    3.1445    1.5193    1.8587 C   0  0  0  0  0  0  0  0  0  0  0  0
    6.2906   -0.4084   -3.6217 H   0  0  0  0  0  0  0  0  0  0  0  0
    4.5949   -0.7044   -4.1003 H   0  0  0  0  0  0  0  0  0  0  0  0
    5.6400   -2.0764   -3.6234 H   0  0  0  0  0  0  0  0  0  0  0  0
    5.4854   -1.4460   -1.3656 H   0  0  0  0  0  0  0  0  0  0  0  0
    3.5582   -0.7420    0.1254 H   0  0  0  0  0  0  0  0  0  0  0  0
    4.9962    0.2689    0.3546 H   0  0  0  0  0  0  0  0  0  0  0  0
    3.5695    2.3174   -0.0742 H   0  0  0  0  0  0  0  0  0  0  0  0
    1.6199    1.7915   -1.1756 H   0  0  0  0  0  0  0  0  0  0  0  0
    1.4677    0.2124   -0.4353 H   0  0  0  0  0  0  0  0  0  0  0  0
    0.8463    2.8792    0.9517 H   0  0  0  0  0  0  0  0  0  0  0  0
   -0.3333    1.7766    0.2943 H   0  0  0  0  0  0  0  0  0  0  0  0
    0.9526   -2.2946    2.2901 H   0  0  0  0  0  0  0  0  0  0  0  0
   -0.1783   -3.9704   -1.5067 H   0  0  0  0  0  0  0  0  0  0  0  0
   -1.8427   -2.2156   -1.7957 H   0  0  0  0  0  0  0  0  0  0  0  0
   -2.4387    0.5477    0.5720 H   0  0  0  0  0  0  0  0  0  0  0  0
   -2.6506    0.0451   -2.2369 H   0  0  0  0  0  0  0  0  0  0  0  0
   -4.8235   -1.1286   -2.3175 H   0  0  0  0  0  0  0  0  0  0  0  0
   -4.3490   -1.8811   -0.7755 H   0  0  0  0  0  0  0  0  0  0  0  0
   -5.1825    0.0535    0.5336 H   0  0  0  0  0  0  0  0  0  0  0  0
   -6.2750    0.2854   -0.8485 H   0  0  0  0  0  0  0  0  0  0  0  0
   -4.5752    1.5211   -2.1458 H   0  0  0  0  0  0  0  0  0  0  0  0
   -2.9161    2.8303   -0.7984 H   0  0  0  0  0  0  0  0  0  0  0  0
   -5.9434    3.2524   -0.1226 H   0  0  0  0  0  0  0  0  0  0  0  0
   -4.6508    4.5403   -0.1497 H   0  0  0  0  0  0  0  0  0  0  0  0
   -4.6845    2.0136    1.6367 H   0  0  0  0  0  0  0  0  0  0  0  0
   -3.3741    3.2665    1.6093 H   0  0  0  0  0  0  0  0  0  0  0  0
    2.0990    0.8188    3.5951 H   0  0  0  0  0  0  0  0  0  0  0  0
    2.2518   -0.3819    2.3038 H   0  0  0  0  0  0  0  0  0  0  0  0
    4.1234    1.2518    2.2770 H   0  0  0  0  0  0  0  0  0  0  0  0
    2.9819    2.5736    2.1223 H   0  0  0  0  0  0  0  0  0  0  0  0
  1  2  1  0
  2  3  1  0
  3  4  2  0
  3  5  1  0
  5  6  1  0
  6  7  1  0
  7  8  1  0
  8  9  1  0
  9 10  1  0
 10 11  2  0
 10 12  2  0
 10 13  1  0
 13 14  1  0
 14 15  2  0
 15 16  1  0
 16 17  1  0
 16 18  1  0
 16 19  1  0
 15 20  1  0
 20 21  2  0
 21 22  1  0
 22 23  1  0
 23 24  1  0
 24 25  1  0
 25 26  1  0
 26 27  1  0
 27 28  1  0
 28 29  1  0
 29 30  1  0
  9 31  1  0
 31 32  1  0
 32  6  1  0
 22 13  2  0
 27 24  1  0
 30 28  1  0
  1 33  1  0
  1 34  1  0
  1 35  1  0
  2 36  1  0
  5 37  1  0
  5 38  1  0
  6 39  1  0
  7 40  1  0
  7 41  1  0
  8 42  1  0
  8 43  1  0
 14 44  1  0
 20 45  1  0
 21 46  1  0
 23 47  1  0
 24 48  1  0
 25 49  1  0
 25 50  1  0
 26 51  1  0
 26 52  1  0
 27 53  1  0
 28 54  1  0
 29 55  1  0
 29 56  1  0
 30 57  1  0
 30 58  1  0
 31 59  1  0
 31 60  1  0
 32 61  1  0
 32 62  1  0
M  END
$$$$
OCNT-2318230
     RDKit          3D

  0  0  0  0  0  0  0  0  0  0999 V3000
M  V30 BEGIN CTAB
M  V30 COUNTS 33 36 0 0 0
M  V30 BEGIN ATOM
M  V30 1 F 6.936866 1.906926 -0.546069 0
M  V30 2 C 5.733833 1.319891 -0.587726 0
M  V30 3 C 5.647847 -0.067086 -0.562557 0
M  V30 4 C 4.393621 -0.683224 -0.603993 0
M  V30 5 C 3.211777 0.077117 -0.663546 0
M  V30 6 C 1.855614 -0.586126 -0.725248 0 CFG=1
M  V30 7 C 1.430038 -1.549194 0.358173 0
M  V30 8 C 0.779287 -0.197204 0.270489 0 CFG=2
M  V30 9 C -0.683413 -0.076317 -0.237115 0
M  V30 10 N -1.633429 -0.932576 0.066982 0
M  V30 11 C -2.724062 -0.406468 -0.580265 0
M  V30 12 C -4.063681 -1.034930 -0.542970 0
M  V30 13 N -4.908221 -0.395028 0.446168 0
M  V30 14 C -5.381091 0.883319 0.440809 0
M  V30 15 N -6.185870 1.059468 1.463591 0
M  V30 16 C -6.188522 -0.165049 2.067122 0
M  V30 17 N -5.440022 -1.096676 1.470363 0
M  V30 18 N -2.472362 0.705304 -1.286140 0
M  V30 19 O -1.115293 0.934096 -1.049087 0
M  V30 20 C 3.351612 1.476347 -0.697564 0
M  V30 21 F 2.252466 2.243437 -0.766940 0
M  V30 22 C 4.592955 2.102798 -0.657017 0
M  V30 23 H 6.555769 -0.661060 -0.513009 0
M  V30 24 H 4.336445 -1.770214 -0.590481 0
M  V30 25 H 1.517114 -0.828953 -1.731904 0
M  V30 26 H 0.851906 -2.419614 0.066144 0
M  V30 27 H 2.088578 -1.727372 1.200566 0
M  V30 28 H 1.026925 0.518574 1.046031 0
M  V30 29 H -3.985486 -2.098361 -0.291282 0
M  V30 30 H -4.573985 -0.950988 -1.508855 0
M  V30 31 H -5.115152 1.621462 -0.303853 0
M  V30 32 H -6.757509 -0.385858 2.961348 0
M  V30 33 H 4.665443 3.183557 -0.680266 0
M  V30 END ATOM
M  V30 BEGIN BOND
M  V30 1 1 1 2
M  V30 2 1 2 3
M  V30 3 2 3 4
M  V30 4 1 4 5
M  V30 5 1 5 6
M  V30 6 1 6 7
M  V30 7 1 7 8
M  V30 8 1 8 9
M  V30 9 2 9 10
M  V30 10 1 10 11
M  V30 11 1 11 12
M  V30 12 1 12 13
M  V30 13 1 13 14
M  V30 14 2 14 15
M  V30 15 1 15 16
M  V30 16 2 16 17
M  V30 17 2 11 18
M  V30 18 1 18 19
M  V30 19 2 5 20
M  V30 20 1 20 21
M  V30 21 1 20 22
M  V30 22 2 22 2
M  V30 23 1 8 6
M  V30 24 1 19 9
M  V30 25 1 17 13
M  V30 26 1 3 23
M  V30 27 1 4 24
M  V30 28 1 6 25 CFG=3
M  V30 29 1 7 26
M  V30 30 1 7 27
M  V30 31 1 8 28 CFG=1
M  V30 32 1 12 29
M  V30 33 1 12 30
M  V30 34 1 14 31
M  V30 35 1 16 32
M  V30 36 1 22 33
M  V30 END BOND
M  V30 BEGIN COLLECTION
M  V30 MDLV30/STERAC1 ATOMS=(2 6 8)
M  V30 END COLLECTION
M  V30 END CTAB
M  END
>  <_CXSMILES_Data>  (1327) 
|&1:5,7|

$$$$
OCNT-2318232
     RDKit          3D

 42 44  0  0  0  0  0  0  0  0999 V2000
    7.7281    1.2756   -0.7452 C   0  0  0  0  0  0  0  0  0  0  0  0
    6.4620    1.8440   -0.1299 C   0  0  0  0  0  0  0  0  0  0  0  0
    5.4677    0.8244    0.1160 N   0  0  0  0  0  0  0  0  0  0  0  0
    4.3989    0.4912   -0.6576 C   0  0  0  0  0  0  0  0  0  0  0  0
    3.7879   -0.5283    0.0426 C   0  0  0  0  0  0  0  0  0  0  0  0
    2.5548   -1.3045   -0.2856 C   0  0  0  0  0  0  0  0  0  0  0  0
    1.3104   -0.5313   -0.2131 N   0  0  0  0  0  0  0  0  0  0  0  0
    0.0824   -1.1793   -0.3974 C   0  0  0  0  0  0  0  0  0  0  0  0
   -0.0626   -2.3846   -1.0912 C   0  0  0  0  0  0  0  0  0  0  0  0
   -1.3235   -2.9478   -1.2991 C   0  0  0  0  0  0  0  0  0  0  0  0
   -2.4653   -2.2916   -0.8448 C   0  0  0  0  0  0  0  0  0  0  0  0
   -2.3672   -1.0570   -0.1938 C   0  0  0  0  0  0  0  0  0  0  0  0
   -3.5951   -0.3813    0.2424 C   0  0  0  0  0  0  0  0  0  0  0  0
   -4.8035   -0.9153    0.2769 N   0  0  0  0  0  0  0  0  0  0  0  0
   -5.6569    0.0574    0.7398 C   0  0  0  0  0  0  0  0  0  0  0  0
   -7.0999   -0.2255    0.9063 C   0  0  0  0  0  0  0  0  0  0  0  0
   -4.9629    1.2238    0.9840 C   0  0  0  0  0  0  0  0  0  0  0  0
   -5.3834    2.5520    1.4789 C   0  0  0  0  0  0  0  0  0  0  0  0
   -3.6622    0.9274    0.6630 N   0  0  0  0  0  0  0  0  0  0  0  0
   -1.0874   -0.5138    0.0135 C   0  0  0  0  0  0  0  0  0  0  0  0
    4.4921   -0.7609    1.1968 N   0  0  0  0  0  0  0  0  0  0  0  0
    5.5213    0.0751    1.2297 N   0  0  0  0  0  0  0  0  0  0  0  0
    8.4546    2.0738   -0.9258 H   0  0  0  0  0  0  0  0  0  0  0  0
    8.1913    0.5352   -0.0844 H   0  0  0  0  0  0  0  0  0  0  0  0
    7.5154    0.7834   -1.7002 H   0  0  0  0  0  0  0  0  0  0  0  0
    6.6798    2.3344    0.8252 H   0  0  0  0  0  0  0  0  0  0  0  0
    6.0167    2.5907   -0.7962 H   0  0  0  0  0  0  0  0  0  0  0  0
    4.1643    0.9787   -1.5920 H   0  0  0  0  0  0  0  0  0  0  0  0
    2.6825   -1.7018   -1.3002 H   0  0  0  0  0  0  0  0  0  0  0  0
    2.4928   -2.1604    0.3988 H   0  0  0  0  0  0  0  0  0  0  0  0
    1.3036    0.0528    0.6206 H   0  0  0  0  0  0  0  0  0  0  0  0
    0.7972   -2.9182   -1.4834 H   0  0  0  0  0  0  0  0  0  0  0  0
   -1.4176   -3.8951   -1.8234 H   0  0  0  0  0  0  0  0  0  0  0  0
   -3.4435   -2.7397   -1.0139 H   0  0  0  0  0  0  0  0  0  0  0  0
   -7.4179   -0.0103    1.9311 H   0  0  0  0  0  0  0  0  0  0  0  0
   -7.6913    0.3902    0.2218 H   0  0  0  0  0  0  0  0  0  0  0  0
   -7.3204   -1.2767    0.6961 H   0  0  0  0  0  0  0  0  0  0  0  0
   -5.1556    2.6502    2.5449 H   0  0  0  0  0  0  0  0  0  0  0  0
   -6.4595    2.7001    1.3448 H   0  0  0  0  0  0  0  0  0  0  0  0
   -4.8659    3.3527    0.9407 H   0  0  0  0  0  0  0  0  0  0  0  0
   -2.8837    1.5667    0.7077 H   0  0  0  0  0  0  0  0  0  0  0  0
   -0.9785    0.4436    0.5136 H   0  0  0  0  0  0  0  0  0  0  0  0
  1  2  1  0
  2  3  1  0
  3  4  1  0
  4  5  2  0
  5  6  1  0
  6  7  1  0
  7  8  1  0
  8  9  2  0
  9 10  1  0
 10 11  2  0
 11 12  1  0
 12 13  1  0
 13 14  2  0
 14 15  1  0
 15 16  1  0
 15 17  2  0
 17 18  1  0
 17 19  1  0
 12 20  2  0
  5 21  1  0
 21 22  2  0
 22  3  1  0
 20  8  1  0
 19 13  1  0
  1 23  1  0
  1 24  1  0
  1 25  1  0
  2 26  1  0
  2 27  1  0
  4 28  1  0
  6 29  1  0
  6 30  1  0
  7 31  1  0
  9 32  1  0
 10 33  1  0
 11 34  1  0
 16 35  1  0
 16 36  1  0
 16 37  1  0
 18 38  1  0
 18 39  1  0
 18 40  1  0
 19 41  1  0
 20 42  1  0
M  END
$$$$
OCNT-2318260
     RDKit          3D

 46 48  0  0  0  0  0  0  0  0999 V2000
    1.2896   -2.8389   -0.5904 C   0  0  0  0  0  0  0  0  0  0  0  0
    1.2958   -1.3073   -0.6086 C   0  0  0  0  0  0  0  0  0  0  0  0
    0.2703   -0.7656    0.2570 N   0  0  0  0  0  0  0  0  0  0  0  0
   -1.0637   -0.7533   -0.0707 C   0  0  0  0  0  0  0  0  0  0  0  0
   -1.5127   -1.1789   -1.1317 O   0  0  0  0  0  0  0  0  0  0  0  0
   -1.9054   -0.1865    0.9907 C   0  0  0  0  0  0  0  0  0  0  0  0
   -3.2871   -0.0137    0.8822 C   0  0  0  0  0  0  0  0  0  0  0  0
   -4.0599   -0.3611   -0.1874 N   0  0  0  0  0  0  0  0  0  0  0  0
   -5.3249    0.1076   -0.5972 C   0  0  0  0  0  0  0  0  0  0  0  0
   -6.0975   -0.7250   -1.4238 C   0  0  0  0  0  0  0  0  0  0  0  0
   -7.3768   -0.3492   -1.8429 C   0  0  0  0  0  0  0  0  0  0  0  0
   -7.9093    0.8700   -1.4370 C   0  0  0  0  0  0  0  0  0  0  0  0
   -7.1615    1.7083   -0.6153 C   0  0  0  0  0  0  0  0  0  0  0  0
   -5.8817    1.3265   -0.1969 C   0  0  0  0  0  0  0  0  0  0  0  0
   -3.8703    0.5991    2.3867 S   0  0  0  0  0  0  0  0  0  0  0  0
   -2.2797    0.6531    3.0008 C   0  0  0  0  0  0  0  0  0  0  0  0
   -1.3316    0.2199    2.2047 N   0  0  0  0  0  0  0  0  0  0  0  0
    2.6472   -0.7340   -0.2230 C   0  0  0  0  0  0  0  0  0  0  0  0
    3.2756    0.1968   -1.0617 C   0  0  0  0  0  0  0  0  0  0  0  0
    4.5166    0.7501   -0.7232 C   0  0  0  0  0  0  0  0  0  0  0  0
    5.1536    0.3875    0.4628 C   0  0  0  0  0  0  0  0  0  0  0  0
    6.3961    0.9062    0.8741 N   0  0  0  0  0  0  0  0  0  0  0  0
    7.2439    1.7083    0.1593 C   0  0  0  0  0  0  0  0  0  0  0  0
    8.3261    2.0853    0.9029 N   0  0  0  0  0  0  0  0  0  0  0  0
    7.1437    2.0888   -0.9970 O   0  0  0  0  0  0  0  0  0  0  0  0
    4.5252   -0.5288    1.3127 C   0  0  0  0  0  0  0  0  0  0  0  0
    3.2853   -1.0828    0.9759 C   0  0  0  0  0  0  0  0  0  0  0  0
    0.3407   -3.2299   -0.9733 H   0  0  0  0  0  0  0  0  0  0  0  0
    2.0944   -3.2425   -1.2145 H   0  0  0  0  0  0  0  0  0  0  0  0
    1.4133   -3.2376    0.4225 H   0  0  0  0  0  0  0  0  0  0  0  0
    1.0531   -0.9974   -1.6334 H   0  0  0  0  0  0  0  0  0  0  0  0
    0.5126   -0.3970    1.1719 H   0  0  0  0  0  0  0  0  0  0  0  0
   -3.5873   -0.8669   -0.9436 H   0  0  0  0  0  0  0  0  0  0  0  0
   -5.7063   -1.6893   -1.7404 H   0  0  0  0  0  0  0  0  0  0  0  0
   -7.9549   -1.0119   -2.4812 H   0  0  0  0  0  0  0  0  0  0  0  0
   -8.9031    1.1671   -1.7606 H   0  0  0  0  0  0  0  0  0  0  0  0
   -7.5688    2.6656   -0.3005 H   0  0  0  0  0  0  0  0  0  0  0  0
   -5.3182    2.0232    0.4146 H   0  0  0  0  0  0  0  0  0  0  0  0
   -2.0739    1.0176    3.9989 H   0  0  0  0  0  0  0  0  0  0  0  0
    2.8047    0.5064   -1.9931 H   0  0  0  0  0  0  0  0  0  0  0  0
    4.9573    1.4682   -1.4084 H   0  0  0  0  0  0  0  0  0  0  0  0
    6.7791    0.5456    1.7349 H   0  0  0  0  0  0  0  0  0  0  0  0
    8.1345    2.3592    1.8557 H   0  0  0  0  0  0  0  0  0  0  0  0
    8.9049    2.7516    0.4043 H   0  0  0  0  0  0  0  0  0  0  0  0
    4.9890   -0.8266    2.2493 H   0  0  0  0  0  0  0  0  0  0  0  0
    2.8222   -1.7876    1.6630 H   0  0  0  0  0  0  0  0  0  0  0  0
  1  2  1  0
  2  3  1  0
  3  4  1  0
  4  5  2  0
  4  6  1  0
  6  7  2  0
  7  8  1  0
  8  9  1  0
  9 10  2  0
 10 11  1  0
 11 12  2  0
 12 13  1  0
 13 14  2  0
  7 15  1  0
 15 16  1  0
 16 17  2  0
  2 18  1  0
 18 19  1  0
 19 20  2  0
 20 21  1  0
 21 22  1  0
 22 23  1  0
 23 24  1  0
 23 25  2  0
 21 26  2  0
 26 27  1  0
 17  6  1  0
 27 18  2  0
 14  9  1  0
  1 28  1  0
  1 29  1  0
  1 30  1  0
  2 31  1  0
  3 32  1  0
  8 33  1  0
 10 34  1  0
 11 35  1  0
 12 36  1  0
 13 37  1  0
 14 38  1  0
 16 39  1  0
 19 40  1  0
 20 41  1  0
 22 42  1  0
 24 43  1  0
 24 44  1  0
 26 45  1  0
 27 46  1  0
M  END
$$$$
OCNT-2318272
     RDKit          3D

 42 44  0  0  0  0  0  0  0  0999 V2000
   -2.5955    1.0357    1.7721 O   0  0  0  0  0  0  0  0  0  0  0  0
   -3.1011    0.1602    1.0796 C   0  0  0  0  0  0  0  0  0  0  0  0
   -2.4171   -0.7919    0.3376 N   0  0  0  0  0  0  0  0  0  0  0  0
   -1.0211   -0.9304    0.1916 C   0  0  0  0  0  0  0  0  0  0  0  0
   -0.5660   -1.9846   -0.6127 C   0  0  0  0  0  0  0  0  0  0  0  0
    0.8019   -2.1907   -0.8130 C   0  0  0  0  0  0  0  0  0  0  0  0
    1.7271   -1.3342   -0.2222 C   0  0  0  0  0  0  0  0  0  0  0  0
    3.0578   -1.6128   -0.4310 O   0  0  0  0  0  0  0  0  0  0  0  0
    3.8905   -0.5567   -0.7228 C   0  0  0  0  0  0  0  0  0  0  0  0
    3.5822    0.4049   -1.6871 C   0  0  0  0  0  0  0  0  0  0  0  0
    4.4873    1.4307   -1.9571 C   0  0  0  0  0  0  0  0  0  0  0  0
    5.7065    1.4843   -1.2785 C   0  0  0  0  0  0  0  0  0  0  0  0
    6.0405    0.5032   -0.3310 C   0  0  0  0  0  0  0  0  0  0  0  0
    7.3514    0.5632    0.4115 C   0  0  0  0  0  0  0  0  0  0  0  0
    7.2461    1.2296    1.5939 F   0  0  0  0  0  0  0  0  0  0  0  0
    8.3353    1.1955   -0.2878 F   0  0  0  0  0  0  0  0  0  0  0  0
    7.8484   -0.6676    0.7181 F   0  0  0  0  0  0  0  0  0  0  0  0
    5.1179   -0.5192   -0.0596 C   0  0  0  0  0  0  0  0  0  0  0  0
    1.2876   -0.2964    0.5993 C   0  0  0  0  0  0  0  0  0  0  0  0
   -0.0831   -0.0913    0.7969 C   0  0  0  0  0  0  0  0  0  0  0  0
   -4.6107   -0.0232    0.9900 C   0  0  0  0  0  0  0  0  0  0  0  0
   -5.1601    0.0881   -0.4338 C   0  0  0  0  0  0  0  0  0  0  0  0
   -6.3508    1.0320   -0.3335 C   0  0  0  0  0  0  0  0  0  0  0  0
   -6.6891    1.0838    1.0900 N   0  0  0  0  0  0  0  0  0  0  0  0
   -5.3830    1.0359    1.7645 C   0  0  0  0  0  0  0  0  0  0  0  0
   -2.9790   -1.4761   -0.1528 H   0  0  0  0  0  0  0  0  0  0  0  0
   -1.2658   -2.6637   -1.0924 H   0  0  0  0  0  0  0  0  0  0  0  0
    1.1439   -3.0158   -1.4319 H   0  0  0  0  0  0  0  0  0  0  0  0
    2.6432    0.3616   -2.2324 H   0  0  0  0  0  0  0  0  0  0  0  0
    4.2437    2.1871   -2.6996 H   0  0  0  0  0  0  0  0  0  0  0  0
    6.4026    2.2931   -1.4982 H   0  0  0  0  0  0  0  0  0  0  0  0
    5.3521   -1.2892    0.6737 H   0  0  0  0  0  0  0  0  0  0  0  0
    1.9979    0.3574    1.0982 H   0  0  0  0  0  0  0  0  0  0  0  0
   -0.3809    0.7326    1.4379 H   0  0  0  0  0  0  0  0  0  0  0  0
   -4.8518   -1.0152    1.3964 H   0  0  0  0  0  0  0  0  0  0  0  0
   -4.4254    0.4697   -1.1511 H   0  0  0  0  0  0  0  0  0  0  0  0
   -5.4832   -0.9005   -0.7811 H   0  0  0  0  0  0  0  0  0  0  0  0
   -7.1980    0.6913   -0.9365 H   0  0  0  0  0  0  0  0  0  0  0  0
   -6.0751    2.0342   -0.6818 H   0  0  0  0  0  0  0  0  0  0  0  0
   -7.2200    0.2484    1.3386 H   0  0  0  0  0  0  0  0  0  0  0  0
   -4.9121    2.0250    1.7175 H   0  0  0  0  0  0  0  0  0  0  0  0
   -5.4950    0.7701    2.8206 H   0  0  0  0  0  0  0  0  0  0  0  0
  1  2  2  0
  2  3  1  0
  3  4  1  0
  4  5  1  0
  5  6  2  0
  6  7  1  0
  7  8  1  0
  8  9  1  0
  9 10  1  0
 10 11  2  0
 11 12  1  0
 12 13  2  0
 13 14  1  0
 14 15  1  0
 14 16  1  0
 14 17  1  0
 13 18  1  0
  7 19  2  0
 19 20  1  0
  2 21  1  0
 21 22  1  0
 22 23  1  0
 23 24  1  0
 24 25  1  0
 20  4  2  0
 25 21  1  0
 18  9  2  0
  3 26  1  0
  5 27  1  0
  6 28  1  0
 10 29  1  0
 11 30  1  0
 12 31  1  0
 18 32  1  0
 19 33  1  0
 20 34  1  0
 21 35  1  0
 22 36  1  0
 22 37  1  0
 23 38  1  0
 23 39  1  0
 24 40  1  0
 25 41  1  0
 25 42  1  0
M  END
$$$$
OCNT-2318277
     RDKit          3D

 50 52  0  0  0  0  0  0  0  0999 V2000
    1.2428    1.0711   -3.7034 C   0  0  0  0  0  0  0  0  0  0  0  0
    1.9628    0.6723   -2.4679 C   0  0  0  0  0  0  0  0  0  0  0  0
    3.1992    1.1147   -2.2534 N   0  0  0  0  0  0  0  0  0  0  0  0
    3.5597    0.6389   -1.0267 N   0  0  0  0  0  0  0  0  0  0  0  0
    4.8053    1.0863   -0.4503 C   0  0  0  0  0  0  0  0  0  0  0  0
    5.0722    0.9394    0.9086 C   0  0  0  0  0  0  0  0  0  0  0  0
    6.2914    1.3941    1.4171 C   0  0  0  0  0  0  0  0  0  0  0  0
    7.2110    1.9924    0.5677 C   0  0  0  0  0  0  0  0  0  0  0  0
    6.8696    2.1253   -0.7635 C   0  0  0  0  0  0  0  0  0  0  0  0
    5.7001    1.6964   -1.2807 N   0  0  0  0  0  0  0  0  0  0  0  0
    2.5875   -0.2397   -0.5436 C   0  0  0  0  0  0  0  0  0  0  0  0
    2.7120   -1.1049    0.6590 C   0  0  0  0  0  0  0  0  0  0  0  0
    1.5165   -0.1764   -1.4294 C   0  0  0  0  0  0  0  0  0  0  0  0
    0.2039   -0.8833   -1.3436 C   0  0  0  0  0  0  0  0  0  0  0  0
   -0.5408   -0.3016   -0.2251 N   0  0  0  0  0  0  0  0  0  0  0  0
   -1.8737   -0.9179   -0.1174 C   0  0  0  0  0  0  0  0  0  0  0  0
   -2.6556   -0.4249    1.1237 C   0  0  1  0  0  0  0  0  0  0  0  0
   -2.7917    1.1093    1.1338 C   0  0  0  0  0  0  0  0  0  0  0  0
   -4.0897    1.3553    1.8717 C   0  0  0  0  0  0  0  0  0  0  0  0
   -4.9757    0.2529    1.3214 C   0  0  0  0  0  0  0  0  0  0  0  0
   -4.0767   -0.9228    1.2596 N   0  0  0  0  0  0  0  0  0  0  0  0
   -4.5943   -2.2718    0.3981 S   0  0  0  0  0  0  0  0  0  0  0  0
   -6.1163   -2.6973    1.2200 C   0  0  0  0  0  0  0  0  0  0  0  0
   -3.6554   -3.3448    0.6423 O   0  0  0  0  0  0  0  0  0  0  0  0
   -4.9019   -1.8393   -0.9479 O   0  0  0  0  0  0  0  0  0  0  0  0
    0.2899    1.5472   -3.4517 H   0  0  0  0  0  0  0  0  0  0  0  0
    1.0397    0.1941   -4.3261 H   0  0  0  0  0  0  0  0  0  0  0  0
    1.8252    1.7819   -4.2992 H   0  0  0  0  0  0  0  0  0  0  0  0
    4.3588    0.5288    1.6075 H   0  0  0  0  0  0  0  0  0  0  0  0
    6.5132    1.2909    2.4759 H   0  0  0  0  0  0  0  0  0  0  0  0
    8.1635    2.3567    0.9351 H   0  0  0  0  0  0  0  0  0  0  0  0
    7.5433    2.5946   -1.4744 H   0  0  0  0  0  0  0  0  0  0  0  0
    3.7216   -1.5138    0.7604 H   0  0  0  0  0  0  0  0  0  0  0  0
    2.4403   -0.5536    1.5640 H   0  0  0  0  0  0  0  0  0  0  0  0
    2.0395   -1.9666    0.5922 H   0  0  0  0  0  0  0  0  0  0  0  0
    0.3745   -1.9542   -1.1836 H   0  0  0  0  0  0  0  0  0  0  0  0
   -0.3547   -0.7700   -2.2797 H   0  0  0  0  0  0  0  0  0  0  0  0
   -0.6345    0.6991   -0.3947 H   0  0  0  0  0  0  0  0  0  0  0  0
   -2.4463   -0.7040   -1.0277 H   0  0  0  0  0  0  0  0  0  0  0  0
   -1.7409   -2.0016   -0.0508 H   0  0  0  0  0  0  0  0  0  0  0  0
   -2.1276   -0.7444    2.0320 H   0  0  0  0  0  0  0  0  0  0  0  0
   -2.8735    1.5038    0.1129 H   0  0  0  0  0  0  0  0  0  0  0  0
   -1.9406    1.5979    1.6184 H   0  0  0  0  0  0  0  0  0  0  0  0
   -3.9436    1.2297    2.9510 H   0  0  0  0  0  0  0  0  0  0  0  0
   -4.4993    2.3526    1.6900 H   0  0  0  0  0  0  0  0  0  0  0  0
   -5.8227    0.0708    1.9874 H   0  0  0  0  0  0  0  0  0  0  0  0
   -5.3400    0.5153    0.3225 H   0  0  0  0  0  0  0  0  0  0  0  0
   -6.8493   -1.9050    1.0619 H   0  0  0  0  0  0  0  0  0  0  0  0
   -6.4836   -3.6274    0.7801 H   0  0  0  0  0  0  0  0  0  0  0  0
   -5.9150   -2.8467    2.2823 H   0  0  0  0  0  0  0  0  0  0  0  0
  1  2  1  0
  2  3  2  0
  3  4  1  0
  4  5  1  0
  5  6  2  0
  6  7  1  0
  7  8  2  0
  8  9  1  0
  9 10  2  0
  4 11  1  0
 11 12  1  0
 11 13  2  0
 13 14  1  0
 14 15  1  0
 15 16  1  0
 16 17  1  0
 17 18  1  0
 18 19  1  0
 19 20  1  0
 20 21  1  0
 21 22  1  0
 22 23  1  0
 22 24  2  0
 22 25  2  0
 13  2  1  0
 21 17  1  0
 10  5  1  0
  1 26  1  0
  1 27  1  0
  1 28  1  0
  6 29  1  0
  7 30  1  0
  8 31  1  0
  9 32  1  0
 12 33  1  0
 12 34  1  0
 12 35  1  0
 14 36  1  0
 14 37  1  0
 15 38  1  0
 16 39  1  0
 16 40  1  0
 17 41  1  1
 18 42  1  0
 18 43  1  0
 19 44  1  0
 19 45  1  0
 20 46  1  0
 20 47  1  0
 23 48  1  0
 23 49  1  0
 23 50  1  0
M  END
$$$$
OCNT-2318281
     RDKit          3D

 44 46  0  0  0  0  0  0  0  0999 V2000
    3.5686    1.2545   -1.2330 C   0  0  0  0  0  0  0  0  0  0  0  0
    2.8640    1.6015    0.0747 C   0  0  0  0  0  0  0  0  0  0  0  0
    3.2556    0.6702    1.1978 C   0  0  0  0  0  0  0  0  0  0  0  0
    4.3054    1.0768    2.0278 C   0  0  0  0  0  0  0  0  0  0  0  0
    4.7898    0.3669    3.0712 N   0  0  0  0  0  0  0  0  0  0  0  0
    4.2148   -0.8250    3.3075 C   0  0  0  0  0  0  0  0  0  0  0  0
    3.1772   -1.3350    2.5480 C   0  0  0  0  0  0  0  0  0  0  0  0
    2.6751   -0.5891    1.4641 C   0  0  0  0  0  0  0  0  0  0  0  0
    1.5766   -1.1681    0.6805 C   0  0  0  0  0  0  0  0  0  0  0  0
    0.9523   -2.3135    1.0206 N   0  0  0  0  0  0  0  0  0  0  0  0
    0.0013   -2.4948    0.0227 O   0  0  0  0  0  0  0  0  0  0  0  0
    0.1309   -1.4363   -0.8250 C   0  0  0  0  0  0  0  0  0  0  0  0
   -0.7949   -1.3778   -1.9817 C   0  0  0  0  0  0  0  0  0  0  0  0
   -2.2655   -1.1913   -1.5543 C   0  0  0  0  0  0  0  0  0  0  0  0
   -3.1901   -1.2926   -2.7745 C   0  0  0  0  0  0  0  0  0  0  0  0
   -2.5131    0.1170   -0.8032 C   0  0  0  0  0  0  0  0  0  0  0  0
   -2.2363    1.3485   -1.4356 C   0  0  0  0  0  0  0  0  0  0  0  0
   -2.4448    2.5638   -0.7797 C   0  0  0  0  0  0  0  0  0  0  0  0
   -2.9357    2.5758    0.5208 C   0  0  0  0  0  0  0  0  0  0  0  0
   -3.2193    1.3715    1.1657 C   0  0  0  0  0  0  0  0  0  0  0  0
   -3.0139    0.1369    0.5218 C   0  0  0  0  0  0  0  0  0  0  0  0
   -3.3374   -1.1225    1.2851 C   0  0  0  0  0  0  0  0  0  0  0  0
    1.0928   -0.6136   -0.4832 N   0  0  0  0  0  0  0  0  0  0  0  0
    3.2731    1.9550   -2.0201 H   0  0  0  0  0  0  0  0  0  0  0  0
    4.6557    1.3117   -1.1196 H   0  0  0  0  0  0  0  0  0  0  0  0
    3.3267    0.2419   -1.5734 H   0  0  0  0  0  0  0  0  0  0  0  0
    1.7757    1.6326   -0.0507 H   0  0  0  0  0  0  0  0  0  0  0  0
    3.1327    2.6349    0.3464 H   0  0  0  0  0  0  0  0  0  0  0  0
    4.8100    2.0303    1.8668 H   0  0  0  0  0  0  0  0  0  0  0  0
    4.6192   -1.3836    4.1492 H   0  0  0  0  0  0  0  0  0  0  0  0
    2.7756   -2.3136    2.8020 H   0  0  0  0  0  0  0  0  0  0  0  0
   -0.4759   -0.5695   -2.6527 H   0  0  0  0  0  0  0  0  0  0  0  0
   -0.6919   -2.3103   -2.5538 H   0  0  0  0  0  0  0  0  0  0  0  0
   -2.5257   -2.0389   -0.9109 H   0  0  0  0  0  0  0  0  0  0  0  0
   -3.0931   -2.2759   -3.2501 H   0  0  0  0  0  0  0  0  0  0  0  0
   -2.9539   -0.5367   -3.5301 H   0  0  0  0  0  0  0  0  0  0  0  0
   -4.2386   -1.1623   -2.4838 H   0  0  0  0  0  0  0  0  0  0  0  0
   -1.8516    1.3750   -2.4535 H   0  0  0  0  0  0  0  0  0  0  0  0
   -2.2198    3.4992   -1.2850 H   0  0  0  0  0  0  0  0  0  0  0  0
   -3.0954    3.5219    1.0355 H   0  0  0  0  0  0  0  0  0  0  0  0
   -3.6030    1.3992    2.1850 H   0  0  0  0  0  0  0  0  0  0  0  0
   -2.4384   -1.7340    1.4157 H   0  0  0  0  0  0  0  0  0  0  0  0
   -4.1059   -1.6984    0.7597 H   0  0  0  0  0  0  0  0  0  0  0  0
   -3.7288   -0.9021    2.2854 H   0  0  0  0  0  0  0  0  0  0  0  0
  1  2  1  0
  2  3  1  0
  3  4  2  0
  4  5  1  0
  5  6  2  0
  6  7  1  0
  7  8  2  0
  8  9  1  0
  9 10  2  0
 10 11  1  0
 11 12  1  0
 12 13  1  0
 13 14  1  0
 14 15  1  0
 14 16  1  0
 16 17  2  0
 17 18  1  0
 18 19  2  0
 19 20  1  0
 20 21  2  0
 21 22  1  0
 12 23  2  0
  8  3  1  0
 23  9  1  0
 21 16  1  0
  1 24  1  0
  1 25  1  0
  1 26  1  0
  2 27  1  0
  2 28  1  0
  4 29  1  0
  6 30  1  0
  7 31  1  0
 13 32  1  0
 13 33  1  0
 14 34  1  0
 15 35  1  0
 15 36  1  0
 15 37  1  0
 17 38  1  0
 18 39  1  0
 19 40  1  0
 20 41  1  0
 22 42  1  0
 22 43  1  0
 22 44  1  0
M  END
$$$$
OCNT-2318286
     RDKit          3D

 49 52  0  0  0  0  0  0  0  0999 V2000
   -2.4319   -2.4838    0.2571 C   0  0  0  0  0  0  0  0  0  0  0  0
   -2.3871   -0.9417    0.0462 C   0  0  0  0  0  0  0  0  0  0  0  0
   -3.6572   -0.4312   -0.6865 C   0  0  0  0  0  0  0  0  0  0  0  0
   -3.9194    0.9486   -0.8007 C   0  0  0  0  0  0  0  0  0  0  0  0
   -5.0517    1.4326   -1.4639 C   0  0  0  0  0  0  0  0  0  0  0  0
   -5.9539    0.5475   -2.0390 C   0  0  0  0  0  0  0  0  0  0  0  0
   -5.7191   -0.8189   -1.9528 C   0  0  0  0  0  0  0  0  0  0  0  0
   -4.5852   -1.3014   -1.2877 C   0  0  0  0  0  0  0  0  0  0  0  0
   -1.1395   -0.6722   -0.8515 C   0  0  0  0  0  0  0  0  0  0  0  0
   -0.4886    0.7153   -0.8018 C   0  0  0  0  0  0  0  0  0  0  0  0
   -0.0162    1.1826    0.5766 C   0  0  0  0  0  0  0  0  0  0  0  0
    0.1974    0.0819    1.5142 N   0  0  0  0  0  0  0  0  0  0  0  0
    1.4546   -0.3376    1.9742 C   0  0  0  0  0  0  0  0  0  0  0  0
    1.5747   -1.0321    2.9863 O   0  0  0  0  0  0  0  0  0  0  0  0
    2.7080    0.0373    1.2421 C   0  0  0  0  0  0  0  0  0  0  0  0
    3.8957    0.1412    1.9573 C   0  0  0  0  0  0  0  0  0  0  0  0
    5.0701    0.4381    1.2641 C   0  0  0  0  0  0  0  0  0  0  0  0
    5.0461    0.6057   -0.1242 C   0  0  0  0  0  0  0  0  0  0  0  0
    6.2729    0.9099   -0.8480 C   0  0  0  0  0  0  0  0  0  0  0  0
    7.4197    1.3188   -0.3359 N   0  0  0  0  0  0  0  0  0  0  0  0
    8.2861    1.4789   -1.3886 N   0  0  0  0  0  0  0  0  0  0  0  0
    7.7012    1.1681   -2.5353 N   0  0  0  0  0  0  0  0  0  0  0  0
    6.4572    0.8071   -2.2024 N   0  0  0  0  0  0  0  0  0  0  0  0
    3.8071    0.4754   -0.7466 C   0  0  0  0  0  0  0  0  0  0  0  0
    2.6467    0.1922   -0.1061 N   0  0  0  0  0  0  0  0  0  0  0  0
   -0.9728   -0.4595    2.2032 C   0  0  0  0  0  0  0  0  0  0  0  0
   -2.3078   -0.2996    1.4656 C   0  0  0  0  0  0  0  0  0  0  0  0
   -1.5547   -2.8438    0.8057 H   0  0  0  0  0  0  0  0  0  0  0  0
   -2.4350   -3.0242   -0.6970 H   0  0  0  0  0  0  0  0  0  0  0  0
   -3.3183   -2.7878    0.8270 H   0  0  0  0  0  0  0  0  0  0  0  0
   -3.2426    1.6830   -0.3738 H   0  0  0  0  0  0  0  0  0  0  0  0
   -5.2258    2.5035   -1.5290 H   0  0  0  0  0  0  0  0  0  0  0  0
   -6.8345    0.9205   -2.5547 H   0  0  0  0  0  0  0  0  0  0  0  0
   -6.4193   -1.5178   -2.4036 H   0  0  0  0  0  0  0  0  0  0  0  0
   -4.4564   -2.3793   -1.2594 H   0  0  0  0  0  0  0  0  0  0  0  0
   -0.3522   -1.3981   -0.6029 H   0  0  0  0  0  0  0  0  0  0  0  0
   -1.3916   -0.8896   -1.8987 H   0  0  0  0  0  0  0  0  0  0  0  0
   -1.1422    1.4756   -1.2409 H   0  0  0  0  0  0  0  0  0  0  0  0
    0.3832    0.6819   -1.4684 H   0  0  0  0  0  0  0  0  0  0  0  0
   -0.7505    1.8653    1.0199 H   0  0  0  0  0  0  0  0  0  0  0  0
    0.8857    1.7942    0.4771 H   0  0  0  0  0  0  0  0  0  0  0  0
    3.9105   -0.0095    3.0326 H   0  0  0  0  0  0  0  0  0  0  0  0
    6.0055    0.5263    1.8161 H   0  0  0  0  0  0  0  0  0  0  0  0
    5.8239    0.4996   -2.9291 H   0  0  0  0  0  0  0  0  0  0  0  0
    3.6824    0.6085   -1.8171 H   0  0  0  0  0  0  0  0  0  0  0  0
   -1.0386    0.0657    3.1644 H   0  0  0  0  0  0  0  0  0  0  0  0
   -0.7917   -1.5134    2.4417 H   0  0  0  0  0  0  0  0  0  0  0  0
   -3.0983   -0.7311    2.0959 H   0  0  0  0  0  0  0  0  0  0  0  0
   -2.5466    0.7674    1.4363 H   0  0  0  0  0  0  0  0  0  0  0  0
  1  2  1  0
  2  3  1  0
  3  4  2  0
  4  5  1  0
  5  6  2  0
  6  7  1  0
  7  8  2  0
  2  9  1  0
  9 10  1  0
 10 11  1  0
 11 12  1  0
 12 13  1  0
 13 14  2  0
 13 15  1  0
 15 16  2  0
 16 17  1  0
 17 18  2  0
 18 19  1  0
 19 20  2  0
 20 21  1  0
 21 22  2  0
 22 23  1  0
 18 24  1  0
 24 25  2  0
 12 26  1  0
 26 27  1  0
 27  2  1  0
  8  3  1  0
 25 15  1  0
 23 19  1  0
  1 28  1  0
  1 29  1  0
  1 30  1  0
  4 31  1  0
  5 32  1  0
  6 33  1  0
  7 34  1  0
  8 35  1  0
  9 36  1  0
  9 37  1  0
 10 38  1  0
 10 39  1  0
 11 40  1  0
 11 41  1  0
 16 42  1  0
 17 43  1  0
 23 44  1  0
 24 45  1  0
 26 46  1  0
 26 47  1  0
 27 48  1  0
 27 49  1  0
M  END
$$$$
OCNT-2318287
     RDKit          3D

 53 55  0  0  0  0  0  0  0  0999 V2000
   -5.3622   -1.4186    2.5114 C   0  0  0  0  0  0  0  0  0  0  0  0
   -5.7144   -0.0097    2.5121 N   0  0  0  0  0  0  0  0  0  0  0  0
   -6.4140    0.6965    1.1667 S   0  0  0  0  0  0  0  0  0  0  0  0
   -6.5014    2.1123    1.4507 O   0  0  0  0  0  0  0  0  0  0  0  0
   -7.5748   -0.0822    0.7979 O   0  0  0  0  0  0  0  0  0  0  0  0
   -5.1671    0.4673   -0.0777 C   0  0  0  0  0  0  0  0  0  0  0  0
   -5.2661   -0.6033   -0.9702 C   0  0  0  0  0  0  0  0  0  0  0  0
   -4.2891   -0.7699   -1.9495 C   0  0  0  0  0  0  0  0  0  0  0  0
   -3.2321    0.1385   -2.0442 C   0  0  0  0  0  0  0  0  0  0  0  0
   -3.1424    1.2334   -1.1693 C   0  0  0  0  0  0  0  0  0  0  0  0
   -2.0006    2.2151   -1.2951 C   0  0  0  0  0  0  0  0  0  0  0  0
   -0.7635    1.6233   -0.7947 N   0  0  0  0  0  0  0  0  0  0  0  0
    0.3728    2.5526   -0.8861 C   0  0  0  0  0  0  0  0  0  0  0  0
    0.4334    3.5070    0.3094 C   0  0  0  0  0  0  0  0  0  0  0  0
    1.6456    1.7615   -1.0149 C   0  0  0  0  0  0  0  0  0  0  0  0
    2.1266    0.6487   -0.3342 C   0  0  0  0  0  0  0  0  0  0  0  0
    1.5466   -0.0786    0.8170 C   0  0  0  0  0  0  0  0  0  0  0  0
    3.3413    0.3672   -0.9572 N   0  0  0  0  0  0  0  0  0  0  0  0
    4.2523   -0.7223   -0.8206 C   0  0  0  0  0  0  0  0  0  0  0  0
    3.9046   -1.9205   -0.1888 C   0  0  0  0  0  0  0  0  0  0  0  0
    4.8350   -2.9625   -0.0823 C   0  0  0  0  0  0  0  0  0  0  0  0
    6.1187   -2.8353   -0.6215 C   0  0  0  0  0  0  0  0  0  0  0  0
    7.1208   -3.9416   -0.4754 C   0  0  0  0  0  0  0  0  0  0  0  0
    6.4674   -1.6424   -1.2587 C   0  0  0  0  0  0  0  0  0  0  0  0
    5.5412   -0.6005   -1.3683 C   0  0  0  0  0  0  0  0  0  0  0  0
    3.6274    1.3705   -1.8284 N   0  0  0  0  0  0  0  0  0  0  0  0
    2.5896    2.1817   -1.9086 N   0  0  0  0  0  0  0  0  0  0  0  0
   -4.1192    1.3902   -0.1763 C   0  0  0  0  0  0  0  0  0  0  0  0
   -4.3332   -1.5487    2.1666 H   0  0  0  0  0  0  0  0  0  0  0  0
   -6.0347   -2.0107    1.8858 H   0  0  0  0  0  0  0  0  0  0  0  0
   -5.4320   -1.8038    3.5326 H   0  0  0  0  0  0  0  0  0  0  0  0
   -5.2492    0.6330    3.1486 H   0  0  0  0  0  0  0  0  0  0  0  0
   -6.0949   -1.3053   -0.9102 H   0  0  0  0  0  0  0  0  0  0  0  0
   -4.3506   -1.6033   -2.6456 H   0  0  0  0  0  0  0  0  0  0  0  0
   -2.4714   -0.0043   -2.8110 H   0  0  0  0  0  0  0  0  0  0  0  0
   -2.2485    3.1329   -0.7492 H   0  0  0  0  0  0  0  0  0  0  0  0
   -1.8986    2.4908   -2.3524 H   0  0  0  0  0  0  0  0  0  0  0  0
   -0.8977    1.3391    0.1717 H   0  0  0  0  0  0  0  0  0  0  0  0
    0.2802    3.1525   -1.8019 H   0  0  0  0  0  0  0  0  0  0  0  0
    1.3015    4.1714    0.2295 H   0  0  0  0  0  0  0  0  0  0  0  0
    0.5231    2.9679    1.2590 H   0  0  0  0  0  0  0  0  0  0  0  0
   -0.4599    4.1373    0.3638 H   0  0  0  0  0  0  0  0  0  0  0  0
    0.9967   -0.9630    0.4821 H   0  0  0  0  0  0  0  0  0  0  0  0
    2.3155   -0.3733    1.5374 H   0  0  0  0  0  0  0  0  0  0  0  0
    0.8457    0.5526    1.3711 H   0  0  0  0  0  0  0  0  0  0  0  0
    2.9123   -2.1088    0.2003 H   0  0  0  0  0  0  0  0  0  0  0  0
    4.5425   -3.8848    0.4162 H   0  0  0  0  0  0  0  0  0  0  0  0
    7.8217   -3.9479   -1.3169 H   0  0  0  0  0  0  0  0  0  0  0  0
    7.6848   -3.8149    0.4539 H   0  0  0  0  0  0  0  0  0  0  0  0
    6.6251   -4.9179   -0.4589 H   0  0  0  0  0  0  0  0  0  0  0  0
    7.4625   -1.5125   -1.6793 H   0  0  0  0  0  0  0  0  0  0  0  0
    5.8536    0.3107   -1.8771 H   0  0  0  0  0  0  0  0  0  0  0  0
   -4.0707    2.2327    0.5108 H   0  0  0  0  0  0  0  0  0  0  0  0
  1  2  1  0
  2  3  1  0
  3  4  2  0
  3  5  2  0
  3  6  1  0
  6  7  2  0
  7  8  1  0
  8  9  2  0
  9 10  1  0
 10 11  1  0
 11 12  1  0
 12 13  1  0
 13 14  1  0
 13 15  1  0
 15 16  2  0
 16 17  1  0
 16 18  1  0
 18 19  1  0
 19 20  1  0
 20 21  2  0
 21 22  1  0
 22 23  1  0
 22 24  2  0
 24 25  1  0
 18 26  1  0
 26 27  2  0
 10 28  2  0
 28  6  1  0
 27 15  1  0
 25 19  2  0
  1 29  1  0
  1 30  1  0
  1 31  1  0
  2 32  1  0
  7 33  1  0
  8 34  1  0
  9 35  1  0
 11 36  1  0
 11 37  1  0
 12 38  1  0
 13 39  1  0
 14 40  1  0
 14 41  1  0
 14 42  1  0
 17 43  1  0
 17 44  1  0
 17 45  1  0
 20 46  1  0
 21 47  1  0
 23 48  1  0
 23 49  1  0
 23 50  1  0
 24 51  1  0
 25 52  1  0
 28 53  1  0
M  END
$$$$
OCNT-2318290
     RDKit          3D

 59 62  0  0  0  0  0  0  0  0999 V2000
   -6.1895   -1.2545    2.3806 C   0  0  0  0  0  0  0  0  0  0  0  0
   -6.7376   -0.7936    1.0673 C   0  0  0  0  0  0  0  0  0  0  0  0
   -8.1074   -0.7415    0.8407 C   0  0  0  0  0  0  0  0  0  0  0  0
   -8.6729   -0.3321   -0.3177 N   0  0  0  0  0  0  0  0  0  0  0  0
   -7.8334    0.0368   -1.3069 C   0  0  0  0  0  0  0  0  0  0  0  0
   -6.4557    0.0328   -1.1870 C   0  0  0  0  0  0  0  0  0  0  0  0
   -5.9085   -0.3655    0.0292 C   0  0  0  0  0  0  0  0  0  0  0  0
   -4.5536   -0.4304    0.2183 O   0  0  0  0  0  0  0  0  0  0  0  0
   -3.8682    0.8175    0.0041 C   0  0  0  0  0  0  0  0  0  0  0  0
   -2.8349    0.6161   -1.1101 C   0  0  0  0  0  0  0  0  0  0  0  0
   -1.4812    0.1882   -0.5543 C   0  0  0  0  0  0  0  0  0  0  0  0
   -0.9552    1.1634    0.4049 N   0  0  0  0  0  0  0  0  0  0  0  0
    0.3852    1.4831    0.5505 C   0  0  0  0  0  0  0  0  0  0  0  0
    0.7711    2.4723    1.1657 O   0  0  0  0  0  0  0  0  0  0  0  0
    1.2494    0.5992   -0.0471 N   0  0  0  0  0  0  0  0  0  0  0  0
    2.6952    0.7799    0.0520 C   0  0  0  0  0  0  0  0  0  0  0  0
    3.2232    0.3693    1.4191 C   0  0  0  0  0  0  0  0  0  0  0  0
    4.7261    0.5957    1.4953 C   0  0  0  0  0  0  0  0  0  0  0  0
    5.3604    0.6532    0.2196 O   0  0  0  0  0  0  0  0  0  0  0  0
    4.8991   -0.2811   -0.7664 C   0  0  0  0  0  0  0  0  0  0  0  0
    5.1450   -1.7325   -0.3183 C   0  0  0  0  0  0  0  0  0  0  0  0
    6.6298   -1.9986   -0.0655 C   0  0  0  0  0  0  0  0  0  0  0  0
    7.5050   -1.2434   -0.8991 O   0  0  0  0  0  0  0  0  0  0  0  0
    6.9475   -0.9484   -2.1691 C   0  0  0  0  0  0  0  0  0  0  0  0
    5.7325   -0.0284   -2.0475 C   0  0  0  0  0  0  0  0  0  0  0  0
    3.4038   -0.0059   -1.0582 C   0  0  0  0  0  0  0  0  0  0  0  0
   -1.9286    1.9756    1.1309 C   0  0  0  0  0  0  0  0  0  0  0  0
   -3.2306    1.2207    1.3397 C   0  0  0  0  0  0  0  0  0  0  0  0
   -5.4294   -2.0283    2.2301 H   0  0  0  0  0  0  0  0  0  0  0  0
   -5.7450   -0.4123    2.9204 H   0  0  0  0  0  0  0  0  0  0  0  0
   -6.9735   -1.6864    3.0120 H   0  0  0  0  0  0  0  0  0  0  0  0
   -8.8181   -1.0395    1.6072 H   0  0  0  0  0  0  0  0  0  0  0  0
   -8.3148    0.3417   -2.2318 H   0  0  0  0  0  0  0  0  0  0  0  0
   -5.8350    0.3209   -2.0259 H   0  0  0  0  0  0  0  0  0  0  0  0
   -4.5579    1.6150   -0.3050 H   0  0  0  0  0  0  0  0  0  0  0  0
   -3.1845   -0.1244   -1.8383 H   0  0  0  0  0  0  0  0  0  0  0  0
   -2.7037    1.5649   -1.6459 H   0  0  0  0  0  0  0  0  0  0  0  0
   -1.5632   -0.7717   -0.0316 H   0  0  0  0  0  0  0  0  0  0  0  0
   -0.7784    0.0592   -1.3837 H   0  0  0  0  0  0  0  0  0  0  0  0
    0.9180   -0.3527   -0.0531 H   0  0  0  0  0  0  0  0  0  0  0  0
    2.9000    1.8497   -0.0921 H   0  0  0  0  0  0  0  0  0  0  0  0
    2.7271    0.9092    2.2341 H   0  0  0  0  0  0  0  0  0  0  0  0
    2.9977   -0.6900    1.5964 H   0  0  0  0  0  0  0  0  0  0  0  0
    4.9276    1.5549    1.9844 H   0  0  0  0  0  0  0  0  0  0  0  0
    5.2058   -0.1729    2.1105 H   0  0  0  0  0  0  0  0  0  0  0  0
    4.5824   -2.0024    0.5806 H   0  0  0  0  0  0  0  0  0  0  0  0
    4.7952   -2.4125   -1.1069 H   0  0  0  0  0  0  0  0  0  0  0  0
    6.8865   -1.7531    0.9703 H   0  0  0  0  0  0  0  0  0  0  0  0
    6.8486   -3.0633   -0.2033 H   0  0  0  0  0  0  0  0  0  0  0  0
    7.7176   -0.4671   -2.7813 H   0  0  0  0  0  0  0  0  0  0  0  0
    6.6815   -1.8862   -2.6728 H   0  0  0  0  0  0  0  0  0  0  0  0
    6.0800    1.0131   -2.0516 H   0  0  0  0  0  0  0  0  0  0  0  0
    5.1335   -0.1639   -2.9563 H   0  0  0  0  0  0  0  0  0  0  0  0
    2.8875   -0.9545   -1.2577 H   0  0  0  0  0  0  0  0  0  0  0  0
    3.2868    0.5750   -1.9830 H   0  0  0  0  0  0  0  0  0  0  0  0
   -1.5100    2.2717    2.0992 H   0  0  0  0  0  0  0  0  0  0  0  0
   -2.0967    2.8915    0.5517 H   0  0  0  0  0  0  0  0  0  0  0  0
   -3.9381    1.8356    1.9091 H   0  0  0  0  0  0  0  0  0  0  0  0
   -3.0433    0.3308    1.9558 H   0  0  0  0  0  0  0  0  0  0  0  0
  1  2  1  0
  2  3  2  0
  3  4  1  0
  4  5  2  0
  5  6  1  0
  6  7  2  0
  7  8  1  0
  8  9  1  0
  9 10  1  0
 10 11  1  0
 11 12  1  0
 12 13  1  0
 13 14  2  0
 13 15  1  0
 15 16  1  0
 16 17  1  0
 17 18  1  0
 18 19  1  0
 19 20  1  0
 20 21  1  0
 21 22  1  0
 22 23  1  0
 23 24  1  0
 24 25  1  0
 20 26  1  0
 12 27  1  0
 27 28  1  0
  7  2  1  0
 28  9  1  0
 26 16  1  0
 25 20  1  0
  1 29  1  0
  1 30  1  0
  1 31  1  0
  3 32  1  0
  5 33  1  0
  6 34  1  0
  9 35  1  0
 10 36  1  0
 10 37  1  0
 11 38  1  0
 11 39  1  0
 15 40  1  0
 16 41  1  0
 17 42  1  0
 17 43  1  0
 18 44  1  0
 18 45  1  0
 21 46  1  0
 21 47  1  0
 22 48  1  0
 22 49  1  0
 24 50  1  0
 24 51  1  0
 25 52  1  0
 25 53  1  0
 26 54  1  0
 26 55  1  0
 27 56  1  0
 27 57  1  0
 28 58  1  0
 28 59  1  0
M  END
$$$$
OCNT-2318299
     RDKit          3D

 44 47  0  0  0  0  0  0  0  0999 V2000
    0.4097    1.3446    0.8278 O   0  0  0  0  0  0  0  0  0  0  0  0
   -0.1744    0.8658   -0.1375 C   0  0  0  0  0  0  0  0  0  0  0  0
   -1.5335    1.0131   -0.3204 N   0  0  0  0  0  0  0  0  0  0  0  0
   -2.3875    1.6801    0.6638 C   0  0  0  0  0  0  0  0  0  0  0  0
   -2.6530    0.7583    1.8875 C   0  0  0  0  0  0  0  0  0  0  0  0
   -3.4729   -0.5038    1.5413 C   0  0  0  0  0  0  0  0  0  0  0  0
   -4.5549   -0.1417    0.5982 C   0  0  0  0  0  0  0  0  0  0  0  0
   -4.6664    1.0314   -0.1101 C   0  0  0  0  0  0  0  0  0  0  0  0
   -3.7107    2.1625    0.0094 C   0  0  0  0  0  0  0  0  0  0  0  0
   -5.7661    1.0114   -0.9183 N   0  0  0  0  0  0  0  0  0  0  0  0
   -6.3298   -0.1568   -0.6926 C   0  0  0  0  0  0  0  0  0  0  0  0
   -5.6289   -0.8957    0.2252 N   0  0  0  0  0  0  0  0  0  0  0  0
    0.4965    0.0816   -1.1665 C   0  0  0  0  0  0  0  0  0  0  0  0
    0.0293   -0.1804   -2.4443 C   0  0  0  0  0  0  0  0  0  0  0  0
    1.0005   -0.8933   -3.0735 N   0  0  0  0  0  0  0  0  0  0  0  0
    2.0669   -1.1361   -2.3076 N   0  0  0  0  0  0  0  0  0  0  0  0
    1.7840   -0.5506   -1.1283 C   0  0  0  0  0  0  0  0  0  0  0  0
    2.7562   -0.6403   -0.0354 C   0  0  0  0  0  0  0  0  0  0  0  0
    2.3574   -0.9433    1.2715 C   0  0  0  0  0  0  0  0  0  0  0  0
    3.3032   -1.0368    2.2928 C   0  0  0  0  0  0  0  0  0  0  0  0
    4.6553   -0.8487    2.0089 C   0  0  0  0  0  0  0  0  0  0  0  0
    5.0758   -0.5751    0.7057 C   0  0  0  0  0  0  0  0  0  0  0  0
    6.4272   -0.4286    0.5586 O   0  0  0  0  0  0  0  0  0  0  0  0
    6.9232   -0.4904   -0.7677 C   0  0  0  0  0  0  0  0  0  0  0  0
    6.6630    0.6827   -1.3956 F   0  0  0  0  0  0  0  0  0  0  0  0
    8.2754   -0.5927   -0.6876 F   0  0  0  0  0  0  0  0  0  0  0  0
    4.1238   -0.4596   -0.3096 C   0  0  0  0  0  0  0  0  0  0  0  0
   -1.9900    0.4515   -1.0267 H   0  0  0  0  0  0  0  0  0  0  0  0
   -1.8378    2.5640    1.0111 H   0  0  0  0  0  0  0  0  0  0  0  0
   -3.2035    1.3405    2.6389 H   0  0  0  0  0  0  0  0  0  0  0  0
   -1.7109    0.4532    2.3575 H   0  0  0  0  0  0  0  0  0  0  0  0
   -2.8198   -1.2495    1.0733 H   0  0  0  0  0  0  0  0  0  0  0  0
   -3.8793   -0.9458    2.4572 H   0  0  0  0  0  0  0  0  0  0  0  0
   -3.5186    2.6070   -0.9735 H   0  0  0  0  0  0  0  0  0  0  0  0
   -4.1665    2.9328    0.6429 H   0  0  0  0  0  0  0  0  0  0  0  0
   -7.2364   -0.5219   -1.1568 H   0  0  0  0  0  0  0  0  0  0  0  0
   -5.8706   -1.8213    0.5525 H   0  0  0  0  0  0  0  0  0  0  0  0
   -0.8745    0.1026   -2.9645 H   0  0  0  0  0  0  0  0  0  0  0  0
    1.0065   -1.2414   -4.0272 H   0  0  0  0  0  0  0  0  0  0  0  0
    1.3093   -1.1015    1.5110 H   0  0  0  0  0  0  0  0  0  0  0  0
    2.9859   -1.2537    3.3092 H   0  0  0  0  0  0  0  0  0  0  0  0
    5.3873   -0.9216    2.8100 H   0  0  0  0  0  0  0  0  0  0  0  0
    6.5413   -1.3401   -1.3447 H   0  0  0  0  0  0  0  0  0  0  0  0
    4.4081   -0.2122   -1.3290 H   0  0  0  0  0  0  0  0  0  0  0  0
  1  2  2  0
  2  3  1  0
  3  4  1  0
  4  5  1  0
  5  6  1  0
  6  7  1  0
  7  8  2  0
  8  9  1  0
  8 10  1  0
 10 11  2  0
 11 12  1  0
  2 13  1  0
 13 14  2  0
 14 15  1  0
 15 16  1  0
 16 17  2  0
 17 18  1  0
 18 19  2  0
 19 20  1  0
 20 21  2  0
 21 22  1  0
 22 23  1  0
 23 24  1  0
 24 25  1  0
 24 26  1  0
 22 27  2  0
  9  4  1  0
 17 13  1  0
 27 18  1  0
 12  7  1  0
  3 28  1  0
  4 29  1  0
  5 30  1  0
  5 31  1  0
  6 32  1  0
  6 33  1  0
  9 34  1  0
  9 35  1  0
 11 36  1  0
 12 37  1  0
 14 38  1  0
 15 39  1  0
 19 40  1  0
 20 41  1  0
 21 42  1  0
 24 43  1  0
 27 44  1  0
M  END
$$$$
OCNT-2318306
     RDKit          3D

 38 40  0  0  0  0  0  0  0  0999 V2000
    8.1857    0.3506   -0.5526 C   0  0  0  0  0  0  0  0  0  0  0  0
    7.3597    1.2683    0.1556 O   0  0  0  0  0  0  0  0  0  0  0  0
    6.0497    0.9382    0.1776 C   0  0  0  0  0  0  0  0  0  0  0  0
    5.5861   -0.1629   -0.4184 N   0  0  0  0  0  0  0  0  0  0  0  0
    4.2206   -0.1520   -0.1778 O   0  0  0  0  0  0  0  0  0  0  0  0
    3.8932    0.9533    0.5566 C   0  0  0  0  0  0  0  0  0  0  0  0
    2.5137    1.1767    0.9305 C   0  0  0  0  0  0  0  0  0  0  0  0
    2.1816    2.1557    1.5904 O   0  0  0  0  0  0  0  0  0  0  0  0
    1.6547    0.1917    0.4711 N   0  0  0  0  0  0  0  0  0  0  0  0
    0.2606    0.0974    0.6511 C   0  0  0  0  0  0  0  0  0  0  0  0
   -0.3816   -1.0073    0.0791 C   0  0  0  0  0  0  0  0  0  0  0  0
   -1.7634   -1.1785    0.2080 C   0  0  0  0  0  0  0  0  0  0  0  0
   -2.5327   -0.2438    0.9104 C   0  0  0  0  0  0  0  0  0  0  0  0
   -4.0275   -0.4220    1.0533 C   0  0  0  0  0  0  0  0  0  0  0  0
   -4.7860   -0.3505   -0.2511 C   0  0  0  0  0  0  0  0  0  0  0  0
   -5.5259   -1.4444   -0.7095 C   0  0  0  0  0  0  0  0  0  0  0  0
   -6.2125   -1.3286   -1.9089 C   0  0  0  0  0  0  0  0  0  0  0  0
   -6.2139   -0.2148   -2.6707 N   0  0  0  0  0  0  0  0  0  0  0  0
   -5.4960    0.8318   -2.2109 C   0  0  0  0  0  0  0  0  0  0  0  0
   -4.7793    0.8149   -1.0243 C   0  0  0  0  0  0  0  0  0  0  0  0
   -1.8882    0.8582    1.4845 C   0  0  0  0  0  0  0  0  0  0  0  0
   -0.5041    1.0271    1.3553 C   0  0  0  0  0  0  0  0  0  0  0  0
    5.0379    1.6769    0.8045 C   0  0  0  0  0  0  0  0  0  0  0  0
    8.1669   -0.6417   -0.0884 H   0  0  0  0  0  0  0  0  0  0  0  0
    9.2143    0.7209   -0.5023 H   0  0  0  0  0  0  0  0  0  0  0  0
    7.9038    0.2957   -1.6100 H   0  0  0  0  0  0  0  0  0  0  0  0
    2.0872   -0.5530   -0.0638 H   0  0  0  0  0  0  0  0  0  0  0  0
    0.1806   -1.7524   -0.4784 H   0  0  0  0  0  0  0  0  0  0  0  0
   -2.2360   -2.0444   -0.2511 H   0  0  0  0  0  0  0  0  0  0  0  0
   -4.4414    0.3370    1.7300 H   0  0  0  0  0  0  0  0  0  0  0  0
   -4.2083   -1.3846    1.5495 H   0  0  0  0  0  0  0  0  0  0  0  0
   -5.5721   -2.3726   -0.1499 H   0  0  0  0  0  0  0  0  0  0  0  0
   -6.7982   -2.1558   -2.2995 H   0  0  0  0  0  0  0  0  0  0  0  0
   -5.5109    1.7161   -2.8414 H   0  0  0  0  0  0  0  0  0  0  0  0
   -4.2221    1.6937   -0.7165 H   0  0  0  0  0  0  0  0  0  0  0  0
   -2.4556    1.6022    2.0401 H   0  0  0  0  0  0  0  0  0  0  0  0
   -0.0592    1.9011    1.8203 H   0  0  0  0  0  0  0  0  0  0  0  0
    5.1183    2.6002    1.3574 H   0  0  0  0  0  0  0  0  0  0  0  0
  1  2  1  0
  2  3  1  0
  3  4  2  0
  4  5  1  0
  5  6  1  0
  6  7  1  0
  7  8  2  0
  7  9  1  0
  9 10  1  0
 10 11  1  0
 11 12  2  0
 12 13  1  0
 13 14  1  0
 14 15  1  0
 15 16  2  0
 16 17  1  0
 17 18  2  0
 18 19  1  0
 19 20  2  0
 13 21  2  0
 21 22  1  0
  6 23  2  0
 23  3  1  0
 22 10  2  0
 20 15  1  0
  1 24  1  0
  1 25  1  0
  1 26  1  0
  9 27  1  0
 11 28  1  0
 12 29  1  0
 14 30  1  0
 14 31  1  0
 16 32  1  0
 17 33  1  0
 19 34  1  0
 20 35  1  0
 21 36  1  0
 22 37  1  0
 23 38  1  0
M  END
$$$$
OCNT-2318312
     RDKit          3D

 43 45  0  0  0  0  0  0  0  0999 V2000
    1.1941    5.2563   -0.9784 C   0  0  0  0  0  0  0  0  0  0  0  0
    0.8472    3.9052   -0.6121 N   0  0  0  0  0  0  0  0  0  0  0  0
   -0.3798    3.4395   -0.2631 C   0  0  0  0  0  0  0  0  0  0  0  0
   -0.2315    2.0869   -0.0037 C   0  0  0  0  0  0  0  0  0  0  0  0
   -1.3236    1.1647    0.4198 C   0  0  0  0  0  0  0  0  0  0  0  0
   -1.9266    0.6057   -0.7885 N   0  0  0  0  0  0  0  0  0  0  0  0
   -2.9813   -0.4101   -0.5642 C   0  0  0  0  0  0  0  0  0  0  0  0
   -4.1063    0.0722    0.3805 C   0  0  0  0  0  0  0  0  0  0  0  0
   -3.7159   -0.0640    1.7433 O   0  0  0  0  0  0  0  0  0  0  0  0
   -2.3729   -1.7623   -0.1566 C   0  0  0  0  0  0  0  0  0  0  0  0
   -3.3909   -2.8814   -0.1356 C   0  0  0  0  0  0  0  0  0  0  0  0
   -4.3324   -2.7203    0.8138 F   0  0  0  0  0  0  0  0  0  0  0  0
   -2.7775   -4.0641    0.1016 F   0  0  0  0  0  0  0  0  0  0  0  0
   -4.0200   -2.9858   -1.3270 F   0  0  0  0  0  0  0  0  0  0  0  0
    1.1557    1.8433   -0.2366 C   0  0  0  0  0  0  0  0  0  0  0  0
    1.9688    0.4973   -0.1414 C   0  0  0  0  0  0  0  0  0  0  0  0
    1.5077   -0.7629    0.1909 C   0  0  0  0  0  0  0  0  0  0  0  0
    2.6156   -1.6504    0.1312 C   0  0  0  0  0  0  0  0  0  0  0  0
    2.8187   -3.0245    0.3490 C   0  0  0  0  0  0  0  0  0  0  0  0
    4.1099   -3.5468    0.1821 C   0  0  0  0  0  0  0  0  0  0  0  0
    5.1769   -2.7251   -0.1925 C   0  0  0  0  0  0  0  0  0  0  0  0
    4.9923   -1.3562   -0.4128 C   0  0  0  0  0  0  0  0  0  0  0  0
    3.6994   -0.8691   -0.2389 C   0  0  0  0  0  0  0  0  0  0  0  0
    3.3141    0.4218   -0.4039 O   0  0  0  0  0  0  0  0  0  0  0  0
    1.7982    2.9647   -0.5964 N   0  0  0  0  0  0  0  0  0  0  0  0
    0.3015    5.8854   -0.9372 H   0  0  0  0  0  0  0  0  0  0  0  0
    1.9424    5.6242   -0.2719 H   0  0  0  0  0  0  0  0  0  0  0  0
    1.5963    5.2459   -1.9946 H   0  0  0  0  0  0  0  0  0  0  0  0
   -1.2503    4.0798   -0.2305 H   0  0  0  0  0  0  0  0  0  0  0  0
   -0.9415    0.4000    1.0987 H   0  0  0  0  0  0  0  0  0  0  0  0
   -2.0625    1.7510    0.9780 H   0  0  0  0  0  0  0  0  0  0  0  0
   -1.1956    0.2299   -1.3919 H   0  0  0  0  0  0  0  0  0  0  0  0
   -3.4463   -0.5377   -1.5504 H   0  0  0  0  0  0  0  0  0  0  0  0
   -4.3619    1.1198    0.1859 H   0  0  0  0  0  0  0  0  0  0  0  0
   -5.0141   -0.5193    0.2223 H   0  0  0  0  0  0  0  0  0  0  0  0
   -4.4828    0.1999    2.2825 H   0  0  0  0  0  0  0  0  0  0  0  0
   -1.5860   -2.0349   -0.8713 H   0  0  0  0  0  0  0  0  0  0  0  0
   -1.8950   -1.7018    0.8273 H   0  0  0  0  0  0  0  0  0  0  0  0
    0.5008   -1.0384    0.4496 H   0  0  0  0  0  0  0  0  0  0  0  0
    1.9981   -3.6725    0.6413 H   0  0  0  0  0  0  0  0  0  0  0  0
    4.2828   -4.6083    0.3476 H   0  0  0  0  0  0  0  0  0  0  0  0
    6.1689   -3.1551   -0.3149 H   0  0  0  0  0  0  0  0  0  0  0  0
    5.8054   -0.7023   -0.7032 H   0  0  0  0  0  0  0  0  0  0  0  0
  1  2  1  0
  2  3  1  0
  3  4  2  0
  4  5  1  0
  5  6  1  0
  6  7  1  0
  7  8  1  0
  8  9  1  0
  7 10  1  0
 10 11  1  0
 11 12  1  0
 11 13  1  0
 11 14  1  0
  4 15  1  0
 15 16  1  0
 16 17  2  0
 17 18  1  0
 18 19  2  0
 19 20  1  0
 20 21  2  0
 21 22  1  0
 22 23  2  0
 23 24  1  0
 15 25  2  0
 25  2  1  0
 24 16  1  0
 23 18  1  0
  1 26  1  0
  1 27  1  0
  1 28  1  0
  3 29  1  0
  5 30  1  0
  5 31  1  0
  6 32  1  0
  7 33  1  0
  8 34  1  0
  8 35  1  0
  9 36  1  0
 10 37  1  0
 10 38  1  0
 17 39  1  0
 19 40  1  0
 20 41  1  0
 21 42  1  0
 22 43  1  0
M  END
$$$$
OCNT-2318326
     RDKit          3D

 40 43  0  0  0  0  0  0  0  0999 V2000
   -5.2337    1.7498   -3.2999 Br  0  0  0  0  0  0  0  0  0  0  0  0
   -4.0440    0.6029   -2.3448 C   0  0  0  0  0  0  0  0  0  0  0  0
   -2.9537    0.1215   -3.0689 C   0  0  0  0  0  0  0  0  0  0  0  0
   -2.0364   -0.7225   -2.4599 C   0  0  0  0  0  0  0  0  0  0  0  0
   -2.1944   -1.1072   -1.1171 C   0  0  0  0  0  0  0  0  0  0  0  0
   -1.1367   -2.0310   -0.5363 C   0  0  0  0  0  0  0  0  0  0  0  0
   -0.0048   -1.3000    0.0827 C   0  0  0  0  0  0  0  0  0  0  0  0
    1.0947   -0.8360   -0.4646 N   0  0  0  0  0  0  0  0  0  0  0  0
    1.7497   -0.2727    0.6019 C   0  0  0  0  0  0  0  0  0  0  0  0
    2.9435    0.3433    0.3994 N   0  0  0  0  0  0  0  0  0  0  0  0
    3.7884    0.5969    1.5761 C   0  0  0  0  0  0  0  0  0  0  0  0
    4.9249    1.5899    1.2524 C   0  0  0  0  0  0  0  0  0  0  0  0
    5.7261    1.2073    0.0731 N   0  0  0  0  0  0  0  0  0  0  0  0
    4.8107    1.0765   -1.0776 C   0  0  0  0  0  0  0  0  0  0  0  0
    3.6673    0.0646   -0.8492 C   0  0  0  0  0  0  0  0  0  0  0  0
    1.0980   -0.4105    1.7667 N   0  0  0  0  0  0  0  0  0  0  0  0
   -0.0655   -1.0894    1.4258 O   0  0  0  0  0  0  0  0  0  0  0  0
   -3.2941   -0.6083   -0.3581 C   0  0  0  0  0  0  0  0  0  0  0  0
   -3.4936   -0.9334    1.0060 C   0  0  0  0  0  0  0  0  0  0  0  0
   -4.5761   -0.4441    1.7380 C   0  0  0  0  0  0  0  0  0  0  0  0
   -5.4962    0.3885    1.1276 C   0  0  0  0  0  0  0  0  0  0  0  0
   -5.3285    0.7334   -0.2125 C   0  0  0  0  0  0  0  0  0  0  0  0
   -4.2386    0.2563   -0.9836 C   0  0  0  0  0  0  0  0  0  0  0  0
   -2.8080    0.4024   -4.1092 H   0  0  0  0  0  0  0  0  0  0  0  0
   -1.1854   -1.0776   -3.0395 H   0  0  0  0  0  0  0  0  0  0  0  0
   -1.5826   -2.7370    0.1726 H   0  0  0  0  0  0  0  0  0  0  0  0
   -0.7416   -2.6698   -1.3378 H   0  0  0  0  0  0  0  0  0  0  0  0
    3.1996    1.0207    2.3989 H   0  0  0  0  0  0  0  0  0  0  0  0
    4.2194   -0.3504    1.9253 H   0  0  0  0  0  0  0  0  0  0  0  0
    5.5920    1.6670    2.1181 H   0  0  0  0  0  0  0  0  0  0  0  0
    4.5060    2.5910    1.0900 H   0  0  0  0  0  0  0  0  0  0  0  0
    6.1417    0.2934    0.2541 H   0  0  0  0  0  0  0  0  0  0  0  0
    4.3898    2.0624   -1.3120 H   0  0  0  0  0  0  0  0  0  0  0  0
    5.3925    0.7692   -1.9537 H   0  0  0  0  0  0  0  0  0  0  0  0
    2.9975    0.1229   -1.7160 H   0  0  0  0  0  0  0  0  0  0  0  0
    4.0802   -0.9517   -0.8114 H   0  0  0  0  0  0  0  0  0  0  0  0
   -2.7996   -1.5764    1.5406 H   0  0  0  0  0  0  0  0  0  0  0  0
   -4.6925   -0.7137    2.7845 H   0  0  0  0  0  0  0  0  0  0  0  0
   -6.3422    0.7768    1.6885 H   0  0  0  0  0  0  0  0  0  0  0  0
   -6.0736    1.3949   -0.6485 H   0  0  0  0  0  0  0  0  0  0  0  0
  1  2  1  0
  2  3  2  0
  3  4  1  0
  4  5  2  0
  5  6  1  0
  6  7  1  0
  7  8  2  0
  8  9  1  0
  9 10  1  0
 10 11  1  0
 11 12  1  0
 12 13  1  0
 13 14  1  0
 14 15  1  0
  9 16  2  0
 16 17  1  0
  5 18  1  0
 18 19  2  0
 19 20  1  0
 20 21  2  0
 21 22  1  0
 22 23  2  0
 23  2  1  0
 17  7  1  0
 23 18  1  0
 15 10  1  0
  3 24  1  0
  4 25  1  0
  6 26  1  0
  6 27  1  0
 11 28  1  0
 11 29  1  0
 12 30  1  0
 12 31  1  0
 13 32  1  0
 14 33  1  0
 14 34  1  0
 15 35  1  0
 15 36  1  0
 19 37  1  0
 20 38  1  0
 21 39  1  0
 22 40  1  0
M  END
$$$$
OCNT-2318328
     RDKit          3D

 46 49  0  0  0  0  0  0  0  0999 V2000
    0.8872   -1.2691    2.2556 O   0  0  0  0  0  0  0  0  0  0  0  0
    0.1390   -0.9404    1.3356 C   0  0  0  0  0  0  0  0  0  0  0  0
   -1.3711   -0.9856    1.5460 C   0  0  0  0  0  0  0  0  0  0  0  0
   -2.2944    0.0546    0.3805 S   0  0  0  0  0  0  0  0  0  0  0  0
   -3.9284   -0.2282    0.9077 C   0  0  0  0  0  0  0  0  0  0  0  0
   -4.2451   -1.0367    1.9196 N   0  0  0  0  0  0  0  0  0  0  0  0
   -5.5821   -0.9169    1.9501 N   0  0  0  0  0  0  0  0  0  0  0  0
   -6.0425   -0.0722    0.9736 C   0  0  0  0  0  0  0  0  0  0  0  0
   -7.4412    0.2717    0.7340 C   0  0  0  0  0  0  0  0  0  0  0  0
   -7.7765    1.1729   -0.2814 C   0  0  0  0  0  0  0  0  0  0  0  0
   -9.1099    1.5037   -0.5157 C   0  0  0  0  0  0  0  0  0  0  0  0
  -10.0802    0.9205    0.2794 C   0  0  0  0  0  0  0  0  0  0  0  0
   -9.8050    0.0487    1.2729 N   0  0  0  0  0  0  0  0  0  0  0  0
   -8.4991   -0.2528    1.4737 C   0  0  0  0  0  0  0  0  0  0  0  0
   -4.9956    0.3691    0.2990 N   0  0  0  0  0  0  0  0  0  0  0  0
    0.5436   -0.5843    0.0628 N   0  0  0  0  0  0  0  0  0  0  0  0
    1.8538   -0.5094   -0.4471 C   0  0  0  0  0  0  0  0  0  0  0  0
    2.0011   -0.0277   -1.7544 C   0  0  0  0  0  0  0  0  0  0  0  0
    3.2674    0.0825   -2.3352 C   0  0  0  0  0  0  0  0  0  0  0  0
    4.4000   -0.2803   -1.6101 C   0  0  0  0  0  0  0  0  0  0  0  0
    5.6095   -0.1761   -2.2576 O   0  0  0  0  0  0  0  0  0  0  0  0
    6.6843    0.2857   -1.5332 C   0  0  0  0  0  0  0  0  0  0  0  0
    7.8815   -0.4199   -1.6546 C   0  0  0  0  0  0  0  0  0  0  0  0
    9.0157    0.0112   -0.9660 C   0  0  0  0  0  0  0  0  0  0  0  0
    8.9555    1.1568   -0.1727 C   0  0  0  0  0  0  0  0  0  0  0  0
    7.7646    1.8772   -0.0732 C   0  0  0  0  0  0  0  0  0  0  0  0
    6.6281    1.4474   -0.7598 C   0  0  0  0  0  0  0  0  0  0  0  0
    4.2617   -0.7921   -0.3199 C   0  0  0  0  0  0  0  0  0  0  0  0
    2.9928   -0.8960    0.2620 C   0  0  0  0  0  0  0  0  0  0  0  0
   -1.5726   -0.6437    2.5667 H   0  0  0  0  0  0  0  0  0  0  0  0
   -1.6841   -2.0297    1.4408 H   0  0  0  0  0  0  0  0  0  0  0  0
   -6.1039   -1.4331    2.6479 H   0  0  0  0  0  0  0  0  0  0  0  0
   -6.9975    1.6212   -0.8960 H   0  0  0  0  0  0  0  0  0  0  0  0
   -9.3812    2.1994   -1.3014 H   0  0  0  0  0  0  0  0  0  0  0  0
  -11.1337    1.1446    0.1354 H   0  0  0  0  0  0  0  0  0  0  0  0
   -8.3472   -0.9599    2.2831 H   0  0  0  0  0  0  0  0  0  0  0  0
   -0.2005   -0.2869   -0.5597 H   0  0  0  0  0  0  0  0  0  0  0  0
    1.1348    0.2712   -2.3391 H   0  0  0  0  0  0  0  0  0  0  0  0
    3.3699    0.4558   -3.3502 H   0  0  0  0  0  0  0  0  0  0  0  0
    7.9279   -1.3077   -2.2789 H   0  0  0  0  0  0  0  0  0  0  0  0
    9.9441   -0.5462   -1.0492 H   0  0  0  0  0  0  0  0  0  0  0  0
    9.8397    1.4923    0.3639 H   0  0  0  0  0  0  0  0  0  0  0  0
    7.7218    2.7747    0.5377 H   0  0  0  0  0  0  0  0  0  0  0  0
    5.7058    2.0180   -0.6866 H   0  0  0  0  0  0  0  0  0  0  0  0
    5.1307   -1.1202    0.2447 H   0  0  0  0  0  0  0  0  0  0  0  0
    2.9312   -1.2954    1.2693 H   0  0  0  0  0  0  0  0  0  0  0  0
  1  2  2  0
  2  3  1  0
  3  4  1  0
  4  5  1  0
  5  6  2  0
  6  7  1  0
  7  8  1  0
  8  9  1  0
  9 10  1  0
 10 11  2  0
 11 12  1  0
 12 13  2  0
 13 14  1  0
  8 15  2  0
  2 16  1  0
 16 17  1  0
 17 18  1  0
 18 19  2  0
 19 20  1  0
 20 21  1  0
 21 22  1  0
 22 23  2  0
 23 24  1  0
 24 25  2  0
 25 26  1  0
 26 27  2  0
 20 28  2  0
 28 29  1  0
 15  5  1  0
 29 17  2  0
 14  9  2  0
 27 22  1  0
  3 30  1  0
  3 31  1  0
  7 32  1  0
 10 33  1  0
 11 34  1  0
 12 35  1  0
 14 36  1  0
 16 37  1  0
 18 38  1  0
 19 39  1  0
 23 40  1  0
 24 41  1  0
 25 42  1  0
 26 43  1  0
 27 44  1  0
 28 45  1  0
 29 46  1  0
M  END
$$$$
OCNT-2318329
     RDKit          3D

 63 67  0  0  0  0  0  0  0  0999 V2000
    2.6777   -1.5662    1.9327 O   0  0  0  0  0  0  0  0  0  0  0  0
    2.7706   -0.5566    1.2413 C   0  0  0  0  0  0  0  0  0  0  0  0
    3.9229    0.4070    1.4446 C   0  0  0  0  0  0  0  0  0  0  0  0
    5.1750   -0.1742    0.7872 C   0  0  0  0  0  0  0  0  0  0  0  0
    6.2677    0.8068    0.6975 N   0  0  0  0  0  0  0  0  0  0  0  0
    6.8816    1.1343    2.0051 C   0  0  0  0  0  0  0  0  0  0  0  0
    8.2692    0.5057    2.2210 C   0  0  0  0  0  0  0  0  0  0  0  0
    9.2199    0.8767    1.2141 O   0  0  0  0  0  0  0  0  0  0  0  0
    8.6192    1.1056   -0.0690 C   0  0  0  0  0  0  0  0  0  0  0  0
    7.3015    0.3405   -0.2538 C   0  0  0  0  0  0  0  0  0  0  0  0
    1.9379   -0.1842    0.1993 N   0  0  0  0  0  0  0  0  0  0  0  0
    0.8113   -0.8744   -0.2938 C   0  0  0  0  0  0  0  0  0  0  0  0
    0.3498   -2.0846    0.2218 C   0  0  0  0  0  0  0  0  0  0  0  0
   -0.7682   -2.7109   -0.3380 C   0  0  0  0  0  0  0  0  0  0  0  0
   -1.4330   -2.1330   -1.4184 C   0  0  0  0  0  0  0  0  0  0  0  0
   -0.9941   -0.9143   -1.9462 C   0  0  0  0  0  0  0  0  0  0  0  0
   -1.6904   -0.3015   -3.1381 C   0  0  0  0  0  0  0  0  0  0  0  0
   -2.0485    1.1088   -2.9594 N   0  0  0  0  0  0  0  0  0  0  0  0
   -3.1149    1.3346   -1.9782 C   0  0  0  0  0  0  0  0  0  0  0  0
   -4.4473    0.8576   -2.4600 C   0  0  0  0  0  0  0  0  0  0  0  0
   -4.9522    0.8334   -3.7486 C   0  0  0  0  0  0  0  0  0  0  0  0
   -6.2151    0.3373   -3.6598 N   0  0  0  0  0  0  0  0  0  0  0  0
   -6.5940    0.0620   -2.4084 N   0  0  0  0  0  0  0  0  0  0  0  0
   -5.5315    0.3831   -1.6543 C   0  0  0  0  0  0  0  0  0  0  0  0
   -5.5897    0.2454   -0.2044 C   0  0  0  0  0  0  0  0  0  0  0  0
   -4.7627   -0.6885    0.4559 C   0  0  0  0  0  0  0  0  0  0  0  0
   -4.8227   -0.8370    1.8459 C   0  0  0  0  0  0  0  0  0  0  0  0
   -5.7104   -0.0402    2.5374 C   0  0  0  0  0  0  0  0  0  0  0  0
   -5.9094   -0.0538    3.8830 O   0  0  0  0  0  0  0  0  0  0  0  0
   -6.9110    0.9736    4.0222 C   0  0  0  0  0  0  0  0  0  0  0  0
   -7.3040    1.5654    2.7664 O   0  0  0  0  0  0  0  0  0  0  0  0
   -6.5143    0.8761    1.8992 C   0  0  0  0  0  0  0  0  0  0  0  0
   -6.4858    1.0382    0.5299 C   0  0  0  0  0  0  0  0  0  0  0  0
    0.1333   -0.2976   -1.3775 C   0  0  0  0  0  0  0  0  0  0  0  0
    4.0526    0.5529    2.5221 H   0  0  0  0  0  0  0  0  0  0  0  0
    3.6783    1.3866    1.0171 H   0  0  0  0  0  0  0  0  0  0  0  0
    4.9022   -0.4924   -0.2279 H   0  0  0  0  0  0  0  0  0  0  0  0
    5.5002   -1.0777    1.3200 H   0  0  0  0  0  0  0  0  0  0  0  0
    6.9965    2.2253    2.0303 H   0  0  0  0  0  0  0  0  0  0  0  0
    6.2323    0.8730    2.8464 H   0  0  0  0  0  0  0  0  0  0  0  0
    8.2009   -0.5881    2.2431 H   0  0  0  0  0  0  0  0  0  0  0  0
    8.6770    0.8225    3.1861 H   0  0  0  0  0  0  0  0  0  0  0  0
    9.3440    0.7977   -0.8299 H   0  0  0  0  0  0  0  0  0  0  0  0
    8.4649    2.1855   -0.1870 H   0  0  0  0  0  0  0  0  0  0  0  0
    6.9360    0.4790   -1.2758 H   0  0  0  0  0  0  0  0  0  0  0  0
    7.4995   -0.7289   -0.1063 H   0  0  0  0  0  0  0  0  0  0  0  0
    2.1509    0.6892   -0.2679 H   0  0  0  0  0  0  0  0  0  0  0  0
    0.8396   -2.5724    1.0584 H   0  0  0  0  0  0  0  0  0  0  0  0
   -1.1129   -3.6583    0.0682 H   0  0  0  0  0  0  0  0  0  0  0  0
   -2.2942   -2.6421   -1.8468 H   0  0  0  0  0  0  0  0  0  0  0  0
   -0.9930   -0.3671   -3.9834 H   0  0  0  0  0  0  0  0  0  0  0  0
   -2.5626   -0.9006   -3.4291 H   0  0  0  0  0  0  0  0  0  0  0  0
   -2.3451    1.4923   -3.8529 H   0  0  0  0  0  0  0  0  0  0  0  0
   -2.8495    0.8917   -1.0141 H   0  0  0  0  0  0  0  0  0  0  0  0
   -3.1860    2.4143   -1.8063 H   0  0  0  0  0  0  0  0  0  0  0  0
   -4.5329    1.1180   -4.7021 H   0  0  0  0  0  0  0  0  0  0  0  0
   -6.8770    0.1647   -4.4103 H   0  0  0  0  0  0  0  0  0  0  0  0
   -4.0804   -1.3144   -0.1146 H   0  0  0  0  0  0  0  0  0  0  0  0
   -4.1982   -1.5584    2.3592 H   0  0  0  0  0  0  0  0  0  0  0  0
   -7.7967    0.5391    4.4973 H   0  0  0  0  0  0  0  0  0  0  0  0
   -6.5129    1.7586    4.6730 H   0  0  0  0  0  0  0  0  0  0  0  0
   -7.1425    1.7495    0.0371 H   0  0  0  0  0  0  0  0  0  0  0  0
    0.4709    0.6461   -1.8008 H   0  0  0  0  0  0  0  0  0  0  0  0
  1  2  2  0
  2  3  1  0
  3  4  1  0
  4  5  1  0
  5  6  1  0
  6  7  1  0
  7  8  1  0
  8  9  1  0
  9 10  1  0
  2 11  1  0
 11 12  1  0
 12 13  1  0
 13 14  2  0
 14 15  1  0
 15 16  2  0
 16 17  1  0
 17 18  1  0
 18 19  1  0
 19 20  1  0
 20 21  2  0
 21 22  1  0
 22 23  1  0
 23 24  2  0
 24 25  1  0
 25 26  1  0
 26 27  2  0
 27 28  1  0
 28 29  1  0
 29 30  1  0
 30 31  1  0
 31 32  1  0
 32 33  1  0
 16 34  1  0
 10  5  1  0
 34 12  2  0
 24 20  1  0
 33 25  2  0
 32 28  2  0
  3 35  1  0
  3 36  1  0
  4 37  1  0
  4 38  1  0
  6 39  1  0
  6 40  1  0
  7 41  1  0
  7 42  1  0
  9 43  1  0
  9 44  1  0
 10 45  1  0
 10 46  1  0
 11 47  1  0
 13 48  1  0
 14 49  1  0
 15 50  1  0
 17 51  1  0
 17 52  1  0
 18 53  1  0
 19 54  1  0
 19 55  1  0
 21 56  1  0
 22 57  1  0
 26 58  1  0
 27 59  1  0
 30 60  1  0
 30 61  1  0
 33 62  1  0
 34 63  1  0
M  END
$$$$
OCNT-2318330
     RDKit          3D

 36 38  0  0  0  0  0  0  0  0999 V2000
   -1.1388    1.1642    1.5245 C   0  0  0  0  0  0  0  0  0  0  0  0
   -1.1032   -0.1642    0.8692 C   0  0  0  0  0  0  0  0  0  0  0  0
   -2.0773   -0.7712    0.0978 C   0  0  0  0  0  0  0  0  0  0  0  0
   -3.4072   -0.4104   -0.3793 C   0  0  0  0  0  0  0  0  0  0  0  0
   -3.7243    0.9170   -0.7015 C   0  0  0  0  0  0  0  0  0  0  0  0
   -5.0018    1.2567   -1.1566 C   0  0  0  0  0  0  0  0  0  0  0  0
   -5.9782    0.2733   -1.2973 C   0  0  0  0  0  0  0  0  0  0  0  0
   -5.6782   -1.0509   -0.9866 C   0  0  0  0  0  0  0  0  0  0  0  0
   -4.4010   -1.3904   -0.5320 C   0  0  0  0  0  0  0  0  0  0  0  0
   -1.6279   -1.9960   -0.3001 O   0  0  0  0  0  0  0  0  0  0  0  0
   -0.3526   -2.2111    0.1792 N   0  0  0  0  0  0  0  0  0  0  0  0
   -0.0427   -1.1176    0.8878 C   0  0  0  0  0  0  0  0  0  0  0  0
    1.3013   -1.0178    1.5319 C   0  0  0  0  0  0  0  0  0  0  0  0
    2.2466   -0.5115    0.5139 N   0  0  0  0  0  0  0  0  0  0  0  0
    3.8143   -0.3487    1.0964 S   0  0  0  0  0  0  0  0  0  0  0  0
    4.3822   -1.6728    1.1888 O   0  0  0  0  0  0  0  0  0  0  0  0
    3.7808    0.5570    2.2222 O   0  0  0  0  0  0  0  0  0  0  0  0
    4.7540    0.4427   -0.0857 C   0  0  0  0  0  0  0  0  0  0  0  0
    5.5506    1.5439    0.1316 C   0  0  0  0  0  0  0  0  0  0  0  0
    6.1648    1.9196   -1.0232 O   0  0  0  0  0  0  0  0  0  0  0  0
    5.7596    1.0451   -1.9846 C   0  0  0  0  0  0  0  0  0  0  0  0
    4.8942    0.1233   -1.4494 C   0  0  0  0  0  0  0  0  0  0  0  0
    4.0727   -1.2813   -2.3756 Br  0  0  0  0  0  0  0  0  0  0  0  0
   -0.4903    1.1943    2.4058 H   0  0  0  0  0  0  0  0  0  0  0  0
   -0.8030    1.9398    0.8284 H   0  0  0  0  0  0  0  0  0  0  0  0
   -2.1508    1.4134    1.8604 H   0  0  0  0  0  0  0  0  0  0  0  0
   -2.9767    1.7018   -0.6204 H   0  0  0  0  0  0  0  0  0  0  0  0
   -5.2318    2.2898   -1.4071 H   0  0  0  0  0  0  0  0  0  0  0  0
   -6.9709    0.5375   -1.6530 H   0  0  0  0  0  0  0  0  0  0  0  0
   -6.4368   -1.8217   -1.0968 H   0  0  0  0  0  0  0  0  0  0  0  0
   -4.1898   -2.4310   -0.2908 H   0  0  0  0  0  0  0  0  0  0  0  0
    1.6180   -2.0078    1.8805 H   0  0  0  0  0  0  0  0  0  0  0  0
    1.2621   -0.3407    2.3904 H   0  0  0  0  0  0  0  0  0  0  0  0
    2.2376   -1.1333   -0.3002 H   0  0  0  0  0  0  0  0  0  0  0  0
    5.7748    2.1462    1.0025 H   0  0  0  0  0  0  0  0  0  0  0  0
    6.1696    1.2127   -2.9709 H   0  0  0  0  0  0  0  0  0  0  0  0
  1  2  1  0
  2  3  2  0
  3  4  1  0
  4  5  2  0
  5  6  1  0
  6  7  2  0
  7  8  1  0
  8  9  2  0
  3 10  1  0
 10 11  1  0
 11 12  2  0
 12 13  1  0
 13 14  1  0
 14 15  1  0
 15 16  2  0
 15 17  2  0
 15 18  1  0
 18 19  2  0
 19 20  1  0
 20 21  1  0
 21 22  2  0
 22 23  1  0
 12  2  1  0
 22 18  1  0
  9  4  1  0
  1 24  1  0
  1 25  1  0
  1 26  1  0
  5 27  1  0
  6 28  1  0
  7 29  1  0
  8 30  1  0
  9 31  1  0
 13 32  1  0
 13 33  1  0
 14 34  1  0
 19 35  1  0
 21 36  1  0
M  END
$$$$
OCNT-2318340
     RDKit          3D

 37 39  0  0  0  0  0  0  0  0999 V2000
    1.7814   -2.3968    0.9945 O   0  0  0  0  0  0  0  0  0  0  0  0
    2.0395   -1.2102    1.1603 C   0  0  0  0  0  0  0  0  0  0  0  0
    1.2402   -0.3474    1.8791 N   0  0  0  0  0  0  0  0  0  0  0  0
   -0.0233   -0.7805    2.4330 C   0  0  0  0  0  0  0  0  0  0  0  0
   -1.1590   -0.4536    1.4987 C   0  0  0  0  0  0  0  0  0  0  0  0
   -1.4798   -1.3134    0.4426 C   0  0  0  0  0  0  0  0  0  0  0  0
   -2.5179   -1.0059   -0.4463 C   0  0  0  0  0  0  0  0  0  0  0  0
   -3.2586    0.1788   -0.3012 C   0  0  0  0  0  0  0  0  0  0  0  0
   -4.3133    0.4832   -1.2119 N   0  0  0  0  0  0  0  0  0  0  0  0
   -5.1422    1.5855   -1.2256 C   0  0  0  0  0  0  0  0  0  0  0  0
   -5.9922    1.4242   -2.2936 C   0  0  0  0  0  0  0  0  0  0  0  0
   -5.7269    0.2608   -2.9496 N   0  0  0  0  0  0  0  0  0  0  0  0
   -4.7275   -0.2798   -2.2877 C   0  0  0  0  0  0  0  0  0  0  0  0
   -2.9245    1.0372    0.7531 C   0  0  0  0  0  0  0  0  0  0  0  0
   -3.5685    2.1920    0.9673 F   0  0  0  0  0  0  0  0  0  0  0  0
   -1.8888    0.7298    1.6395 C   0  0  0  0  0  0  0  0  0  0  0  0
    3.2546   -0.6216    0.5330 C   0  0  0  0  0  0  0  0  0  0  0  0
    3.7695   -1.2322   -0.6195 C   0  0  0  0  0  0  0  0  0  0  0  0
    4.9087   -0.7190   -1.2447 C   0  0  0  0  0  0  0  0  0  0  0  0
    5.5397    0.4032   -0.7106 C   0  0  0  0  0  0  0  0  0  0  0  0
    6.6533    0.9108   -1.3196 O   0  0  0  0  0  0  0  0  0  0  0  0
    5.0403    1.0073    0.4484 C   0  0  0  0  0  0  0  0  0  0  0  0
    5.8067    2.3891    1.1437 Cl  0  0  0  0  0  0  0  0  0  0  0  0
    3.9016    0.4949    1.0748 C   0  0  0  0  0  0  0  0  0  0  0  0
    1.3803    0.6486    1.7869 H   0  0  0  0  0  0  0  0  0  0  0  0
   -0.0037   -1.8547    2.6491 H   0  0  0  0  0  0  0  0  0  0  0  0
   -0.1548   -0.2606    3.3885 H   0  0  0  0  0  0  0  0  0  0  0  0
   -0.9127   -2.2346    0.3022 H   0  0  0  0  0  0  0  0  0  0  0  0
   -2.7087   -1.7230   -1.2393 H   0  0  0  0  0  0  0  0  0  0  0  0
   -5.0831    2.3862   -0.5060 H   0  0  0  0  0  0  0  0  0  0  0  0
   -6.7810    2.0904   -2.6189 H   0  0  0  0  0  0  0  0  0  0  0  0
   -4.2759   -1.2234   -2.5571 H   0  0  0  0  0  0  0  0  0  0  0  0
   -1.6665    1.4311    2.4396 H   0  0  0  0  0  0  0  0  0  0  0  0
    3.2796   -2.1122   -1.0343 H   0  0  0  0  0  0  0  0  0  0  0  0
    5.2853   -1.2073   -2.1389 H   0  0  0  0  0  0  0  0  0  0  0  0
    6.8792    0.3676   -2.0922 H   0  0  0  0  0  0  0  0  0  0  0  0
    3.5492    0.9556    1.9925 H   0  0  0  0  0  0  0  0  0  0  0  0
  1  2  2  0
  2  3  1  0
  3  4  1  0
  4  5  1  0
  5  6  1  0
  6  7  2  0
  7  8  1  0
  8  9  1  0
  9 10  1  0
 10 11  2  0
 11 12  1  0
 12 13  2  0
  8 14  2  0
 14 15  1  0
 14 16  1  0
  2 17  1  0
 17 18  1  0
 18 19  2  0
 19 20  1  0
 20 21  1  0
 20 22  2  0
 22 23  1  0
 22 24  1  0
 16  5  2  0
 24 17  2  0
 13  9  1  0
  3 25  1  0
  4 26  1  0
  4 27  1  0
  6 28  1  0
  7 29  1  0
 10 30  1  0
 11 31  1  0
 13 32  1  0
 16 33  1  0
 18 34  1  0
 19 35  1  0
 21 36  1  0
 24 37  1  0
M  END
$$$$
OCNT-2318342
     RDKit          3D

 53 57  0  0  0  0  0  0  0  0999 V2000
    4.9060    2.1147    4.3311 C   0  0  0  0  0  0  0  0  0  0  0  0
    4.7041    1.6854    2.9336 C   0  0  0  0  0  0  0  0  0  0  0  0
    3.5924    1.5289    2.1369 C   0  0  0  0  0  0  0  0  0  0  0  0
    4.0556    1.0930    0.8583 C   0  0  0  0  0  0  0  0  0  0  0  0
    3.3011    0.7757   -0.3503 C   0  0  0  0  0  0  0  0  0  0  0  0
    1.9520    0.4441   -0.2613 C   0  0  0  0  0  0  0  0  0  0  0  0
    1.2421    0.1492   -1.4329 C   0  0  0  0  0  0  0  0  0  0  0  0
   -0.1892   -0.1984   -1.3693 C   0  0  0  0  0  0  0  0  0  0  0  0
   -0.9561    0.3842   -2.1226 O   0  0  0  0  0  0  0  0  0  0  0  0
   -0.4934   -1.1861   -0.4522 N   0  0  0  0  0  0  0  0  0  0  0  0
   -1.7743   -1.6837   -0.1310 C   0  0  0  0  0  0  0  0  0  0  0  0
   -1.8384   -2.7591    0.7623 C   0  0  0  0  0  0  0  0  0  0  0  0
   -3.0695   -3.2993    1.1393 C   0  0  0  0  0  0  0  0  0  0  0  0
   -4.2513   -2.7674    0.6289 C   0  0  0  0  0  0  0  0  0  0  0  0
   -4.2106   -1.6915   -0.2670 C   0  0  0  0  0  0  0  0  0  0  0  0
   -5.4835   -1.0913   -0.8077 C   0  0  0  0  0  0  0  0  0  0  0  0
   -5.9200    0.0371   -0.0059 N   0  0  0  0  0  0  0  0  0  0  0  0
   -5.6486    1.3567   -0.2421 C   0  0  0  0  0  0  0  0  0  0  0  0
   -6.3196    2.0384    0.7465 C   0  0  0  0  0  0  0  0  0  0  0  0
   -6.9949    1.1698    1.5648 N   0  0  0  0  0  0  0  0  0  0  0  0
   -6.7351   -0.0271    1.0885 C   0  0  0  0  0  0  0  0  0  0  0  0
   -2.9638   -1.1549   -0.6367 C   0  0  0  0  0  0  0  0  0  0  0  0
    1.9143    0.2235   -2.6601 C   0  0  0  0  0  0  0  0  0  0  0  0
    1.6631    0.0352   -4.0450 C   0  0  0  0  0  0  0  0  0  0  0  0
    0.4020   -0.3433   -4.7267 C   0  0  0  0  0  0  0  0  0  0  0  0
    2.7686    0.2411   -4.7744 N   0  0  0  0  0  0  0  0  0  0  0  0
    3.7628    0.5707   -3.8687 O   0  0  0  0  0  0  0  0  0  0  0  0
    3.2569    0.5605   -2.6059 C   0  0  0  0  0  0  0  0  0  0  0  0
    3.9880    0.8310   -1.5103 N   0  0  0  0  0  0  0  0  0  0  0  0
    5.4359    1.0184    0.9752 C   0  0  0  0  0  0  0  0  0  0  0  0
    6.5342    0.6447    0.0548 C   0  0  0  0  0  0  0  0  0  0  0  0
    5.8249    1.3713    2.2340 O   0  0  0  0  0  0  0  0  0  0  0  0
    5.4186    1.3345    4.9021 H   0  0  0  0  0  0  0  0  0  0  0  0
    3.9489    2.3217    4.8201 H   0  0  0  0  0  0  0  0  0  0  0  0
    5.5117    3.0252    4.3680 H   0  0  0  0  0  0  0  0  0  0  0  0
    2.5747    1.7234    2.4448 H   0  0  0  0  0  0  0  0  0  0  0  0
    1.4456    0.4282    0.6990 H   0  0  0  0  0  0  0  0  0  0  0  0
    0.2802   -1.6481    0.0104 H   0  0  0  0  0  0  0  0  0  0  0  0
   -0.9342   -3.1947    1.1796 H   0  0  0  0  0  0  0  0  0  0  0  0
   -3.1060   -4.1344    1.8347 H   0  0  0  0  0  0  0  0  0  0  0  0
   -5.2020   -3.1960    0.9394 H   0  0  0  0  0  0  0  0  0  0  0  0
   -6.2942   -1.8298   -0.8221 H   0  0  0  0  0  0  0  0  0  0  0  0
   -5.3467   -0.7456   -1.8392 H   0  0  0  0  0  0  0  0  0  0  0  0
   -5.0233    1.6914   -1.0579 H   0  0  0  0  0  0  0  0  0  0  0  0
   -6.3550    3.1078    0.9100 H   0  0  0  0  0  0  0  0  0  0  0  0
   -7.1090   -0.9586    1.4925 H   0  0  0  0  0  0  0  0  0  0  0  0
   -2.9512   -0.3068   -1.3151 H   0  0  0  0  0  0  0  0  0  0  0  0
   -0.2962    0.4994   -4.7332 H   0  0  0  0  0  0  0  0  0  0  0  0
   -0.0722   -1.1922   -4.2244 H   0  0  0  0  0  0  0  0  0  0  0  0
    0.5821   -0.6370   -5.7665 H   0  0  0  0  0  0  0  0  0  0  0  0
    7.4871    0.5649    0.5879 H   0  0  0  0  0  0  0  0  0  0  0  0
    6.6510    1.3987   -0.7297 H   0  0  0  0  0  0  0  0  0  0  0  0
    6.3346   -0.3235   -0.4142 H   0  0  0  0  0  0  0  0  0  0  0  0
  1  2  1  0
  2  3  2  0
  3  4  1  0
  4  5  1  0
  5  6  2  0
  6  7  1  0
  7  8  1  0
  8  9  2  0
  8 10  1  0
 10 11  1  0
 11 12  1  0
 12 13  2  0
 13 14  1  0
 14 15  2  0
 15 16  1  0
 16 17  1  0
 17 18  1  0
 18 19  2  0
 19 20  1  0
 20 21  2  0
 15 22  1  0
  7 23  2  0
 23 24  1  0
 24 25  1  0
 24 26  2  0
 26 27  1  0
 27 28  1  0
 28 29  2  0
  4 30  2  0
 30 31  1  0
 30 32  1  0
 32  2  1  0
 29  5  1  0
 22 11  2  0
 28 23  1  0
 21 17  1  0
  1 33  1  0
  1 34  1  0
  1 35  1  0
  3 36  1  0
  6 37  1  0
 10 38  1  0
 12 39  1  0
 13 40  1  0
 14 41  1  0
 16 42  1  0
 16 43  1  0
 18 44  1  0
 19 45  1  0
 21 46  1  0
 22 47  1  0
 25 48  1  0
 25 49  1  0
 25 50  1  0
 31 51  1  0
 31 52  1  0
 31 53  1  0
M  END
$$$$
OCNT-2318348
     RDKit          3D

 39 41  0  0  0  0  0  0  0  0999 V2000
   -4.1990    1.2019    3.3934 C   0  0  0  0  0  0  0  0  0  0  0  0
   -3.6743    0.0597    2.7290 O   0  0  0  0  0  0  0  0  0  0  0  0
   -2.6497    0.4119    1.7978 C   0  0  0  0  0  0  0  0  0  0  0  0
   -2.0688   -0.8562    1.1432 C   0  0  0  0  0  0  0  0  0  0  0  0
   -3.1229   -1.6708    0.3527 C   0  0  0  0  0  0  0  0  0  0  0  0
   -3.5748   -1.0340   -0.8987 N   0  0  0  0  0  0  0  0  0  0  0  0
   -2.4077   -0.7670   -1.7506 C   0  0  0  0  0  0  0  0  0  0  0  0
   -1.3201    0.0770   -1.0618 C   0  0  0  0  0  0  0  0  0  0  0  0
   -0.8953   -0.4732    0.2670 N   0  0  0  0  0  0  0  0  0  0  0  0
    0.3468   -1.6462    0.2117 S   0  0  0  0  0  0  0  0  0  0  0  0
    0.0143   -2.6064   -0.8157 O   0  0  0  0  0  0  0  0  0  0  0  0
    0.6529   -2.0403    1.5691 O   0  0  0  0  0  0  0  0  0  0  0  0
    1.8156   -0.8007   -0.3320 C   0  0  0  0  0  0  0  0  0  0  0  0
    2.2085    0.5174   -0.2262 C   0  0  0  0  0  0  0  0  0  0  0  0
    3.4969    0.7681   -0.8028 C   0  0  0  0  0  0  0  0  0  0  0  0
    4.2408    1.9682   -0.9069 C   0  0  0  0  0  0  0  0  0  0  0  0
    5.4953    1.9615   -1.5216 C   0  0  0  0  0  0  0  0  0  0  0  0
    6.3857    3.4297   -1.6436 Cl  0  0  0  0  0  0  0  0  0  0  0  0
    6.0304    0.7883   -2.0338 C   0  0  0  0  0  0  0  0  0  0  0  0
    5.3182   -0.4104   -1.9411 C   0  0  0  0  0  0  0  0  0  0  0  0
    4.0525   -0.4043   -1.3225 C   0  0  0  0  0  0  0  0  0  0  0  0
    3.0060   -1.7519   -1.0917 S   0  0  0  0  0  0  0  0  0  0  0  0
   -3.4140    1.7070    3.9644 H   0  0  0  0  0  0  0  0  0  0  0  0
   -4.6449    1.8929    2.6717 H   0  0  0  0  0  0  0  0  0  0  0  0
   -4.9767    0.8700    4.0864 H   0  0  0  0  0  0  0  0  0  0  0  0
   -1.8501    0.9446    2.3277 H   0  0  0  0  0  0  0  0  0  0  0  0
   -3.0659    1.0915    1.0457 H   0  0  0  0  0  0  0  0  0  0  0  0
   -1.7257   -1.4941    1.9667 H   0  0  0  0  0  0  0  0  0  0  0  0
   -4.0008   -1.8603    0.9804 H   0  0  0  0  0  0  0  0  0  0  0  0
   -2.7104   -2.6579    0.1088 H   0  0  0  0  0  0  0  0  0  0  0  0
   -4.0458   -0.1590   -0.6734 H   0  0  0  0  0  0  0  0  0  0  0  0
   -1.9943   -1.7195   -2.0988 H   0  0  0  0  0  0  0  0  0  0  0  0
   -2.7485   -0.2398   -2.6490 H   0  0  0  0  0  0  0  0  0  0  0  0
   -0.4571    0.1806   -1.7277 H   0  0  0  0  0  0  0  0  0  0  0  0
   -1.6911    1.0958   -0.8960 H   0  0  0  0  0  0  0  0  0  0  0  0
    1.5944    1.2722    0.2503 H   0  0  0  0  0  0  0  0  0  0  0  0
    3.8346    2.8937   -0.5073 H   0  0  0  0  0  0  0  0  0  0  0  0
    7.0083    0.7916   -2.5095 H   0  0  0  0  0  0  0  0  0  0  0  0
    5.7367   -1.3315   -2.3385 H   0  0  0  0  0  0  0  0  0  0  0  0
  1  2  1  0
  2  3  1  0
  3  4  1  0
  4  5  1  0
  5  6  1  0
  6  7  1  0
  7  8  1  0
  8  9  1  0
  9 10  1  0
 10 11  2  0
 10 12  2  0
 10 13  1  0
 13 14  2  0
 14 15  1  0
 15 16  2  0
 16 17  1  0
 17 18  1  0
 17 19  2  0
 19 20  1  0
 20 21  2  0
 21 22  1  0
  9  4  1  0
 22 13  1  0
 21 15  1  0
  1 23  1  0
  1 24  1  0
  1 25  1  0
  3 26  1  0
  3 27  1  0
  4 28  1  0
  5 29  1  0
  5 30  1  0
  6 31  1  0
  7 32  1  0
  7 33  1  0
  8 34  1  0
  8 35  1  0
 14 36  1  0
 16 37  1  0
 19 38  1  0
 20 39  1  0
M  END
$$$$
OCNT-2318359
     RDKit          3D

 57 59  0  0  0  0  0  0  0  0999 V2000
    8.0288   -0.8260   -0.7907 C   0  0  0  0  0  0  0  0  0  0  0  0
    7.3528    0.4238   -0.8442 O   0  0  0  0  0  0  0  0  0  0  0  0
    6.1113    0.4775   -0.2724 C   0  0  0  0  0  0  0  0  0  0  0  0
    5.4764   -0.5583    0.4117 C   0  0  0  0  0  0  0  0  0  0  0  0
    4.1998   -0.3667    0.9526 C   0  0  0  0  0  0  0  0  0  0  0  0
    3.5422    0.8634    0.8186 C   0  0  0  0  0  0  0  0  0  0  0  0
    2.1652    1.0634    1.4015 C   0  0  0  0  0  0  0  0  0  0  0  0
    1.0357    0.4325    0.5960 C   0  0  0  0  0  0  0  0  0  0  0  0
    1.1926   -0.1027   -0.4929 O   0  0  0  0  0  0  0  0  0  0  0  0
   -0.1839    0.5415    1.2296 N   0  0  0  0  0  0  0  0  0  0  0  0
   -1.4762   -0.0179    0.8018 C   0  0  0  0  0  0  0  0  0  0  0  0
   -1.6385   -1.4860    1.2072 C   0  0  0  0  0  0  0  0  0  0  0  0
   -2.8509   -1.9121    1.7883 C   0  0  0  0  0  0  0  0  0  0  0  0
   -3.0415   -3.2429    2.1708 C   0  0  0  0  0  0  0  0  0  0  0  0
   -2.0224   -4.1643    1.9718 C   0  0  0  0  0  0  0  0  0  0  0  0
   -2.2057   -5.4390    2.3427 F   0  0  0  0  0  0  0  0  0  0  0  0
   -0.8263   -3.7683    1.3904 C   0  0  0  0  0  0  0  0  0  0  0  0
    0.1545   -4.6606    1.1945 F   0  0  0  0  0  0  0  0  0  0  0  0
   -0.6304   -2.4435    1.0048 C   0  0  0  0  0  0  0  0  0  0  0  0
   -2.0680    0.3872   -0.6455 C   0  0  0  0  0  0  0  0  0  0  0  0
   -1.6751   -0.6898   -1.6907 C   0  0  0  0  0  0  0  0  0  0  0  0
   -1.4825    1.7376   -1.1210 C   0  0  0  0  0  0  0  0  0  0  0  0
   -3.5713    0.4509   -0.5337 N   0  0  0  0  0  0  0  0  0  0  0  0
   -4.3747    0.4016   -1.7597 C   0  0  0  0  0  0  0  0  0  0  0  0
   -4.7737    1.8300   -2.0855 C   0  0  0  0  0  0  0  0  0  0  0  0
   -4.6534    2.5858   -0.7753 C   0  0  0  0  0  0  0  0  0  0  0  0
   -4.1289    1.5741    0.2327 C   0  0  0  0  0  0  0  0  0  0  0  0
    4.1813    1.8971    0.1250 C   0  0  0  0  0  0  0  0  0  0  0  0
    5.4569    1.7031   -0.4108 C   0  0  0  0  0  0  0  0  0  0  0  0
    8.2455   -1.1129    0.2435 H   0  0  0  0  0  0  0  0  0  0  0  0
    8.9846   -0.7113   -1.3109 H   0  0  0  0  0  0  0  0  0  0  0  0
    7.4602   -1.6061   -1.3076 H   0  0  0  0  0  0  0  0  0  0  0  0
    5.9417   -1.5297    0.5394 H   0  0  0  0  0  0  0  0  0  0  0  0
    3.7180   -1.1931    1.4713 H   0  0  0  0  0  0  0  0  0  0  0  0
    2.1503    0.6453    2.4161 H   0  0  0  0  0  0  0  0  0  0  0  0
    1.9534    2.1357    1.4977 H   0  0  0  0  0  0  0  0  0  0  0  0
   -0.1669    0.8758    2.1838 H   0  0  0  0  0  0  0  0  0  0  0  0
   -2.1149    0.5089    1.5234 H   0  0  0  0  0  0  0  0  0  0  0  0
   -3.6657   -1.2040    1.9341 H   0  0  0  0  0  0  0  0  0  0  0  0
   -3.9784   -3.5639    2.6148 H   0  0  0  0  0  0  0  0  0  0  0  0
    0.3119   -2.1873    0.5315 H   0  0  0  0  0  0  0  0  0  0  0  0
   -1.8392   -0.3406   -2.7165 H   0  0  0  0  0  0  0  0  0  0  0  0
   -0.6206   -0.9607   -1.6366 H   0  0  0  0  0  0  0  0  0  0  0  0
   -2.2491   -1.6141   -1.5569 H   0  0  0  0  0  0  0  0  0  0  0  0
   -0.4154    1.6610   -1.3475 H   0  0  0  0  0  0  0  0  0  0  0  0
   -1.9531    2.0776   -2.0485 H   0  0  0  0  0  0  0  0  0  0  0  0
   -1.6001    2.5262   -0.3710 H   0  0  0  0  0  0  0  0  0  0  0  0
   -5.2833   -0.1719   -1.5328 H   0  0  0  0  0  0  0  0  0  0  0  0
   -3.9249   -0.0977   -2.6197 H   0  0  0  0  0  0  0  0  0  0  0  0
   -4.1028    2.2642   -2.8345 H   0  0  0  0  0  0  0  0  0  0  0  0
   -5.7914    1.8799   -2.4863 H   0  0  0  0  0  0  0  0  0  0  0  0
   -3.9590    3.4256   -0.8897 H   0  0  0  0  0  0  0  0  0  0  0  0
   -5.6188    2.9948   -0.4592 H   0  0  0  0  0  0  0  0  0  0  0  0
   -3.4440    2.0422    0.9454 H   0  0  0  0  0  0  0  0  0  0  0  0
   -4.9699    1.1916    0.8250 H   0  0  0  0  0  0  0  0  0  0  0  0
    3.6941    2.8595   -0.0106 H   0  0  0  0  0  0  0  0  0  0  0  0
    5.9432    2.5132   -0.9487 H   0  0  0  0  0  0  0  0  0  0  0  0
  1  2  1  0
  2  3  1  0
  3  4  1  0
  4  5  2  0
  5  6  1  0
  6  7  1  0
  7  8  1  0
  8  9  2  0
  8 10  1  0
 10 11  1  0
 11 12  1  0
 12 13  1  0
 13 14  2  0
 14 15  1  0
 15 16  1  0
 15 17  2  0
 17 18  1  0
 17 19  1  0
 11 20  1  0
 20 21  1  0
 20 22  1  0
 20 23  1  0
 23 24  1  0
 24 25  1  0
 25 26  1  0
 26 27  1  0
  6 28  2  0
 28 29  1  0
 29  3  2  0
 19 12  2  0
 27 23  1  0
  1 30  1  0
  1 31  1  0
  1 32  1  0
  4 33  1  0
  5 34  1  0
  7 35  1  0
  7 36  1  0
 10 37  1  0
 11 38  1  0
 13 39  1  0
 14 40  1  0
 19 41  1  0
 21 42  1  0
 21 43  1  0
 21 44  1  0
 22 45  1  0
 22 46  1  0
 22 47  1  0
 24 48  1  0
 24 49  1  0
 25 50  1  0
 25 51  1  0
 26 52  1  0
 26 53  1  0
 27 54  1  0
 27 55  1  0
 28 56  1  0
 29 57  1  0
M  END
$$$$
OCNT-2318363
     RDKit          3D

 44 46  0  0  0  0  0  0  0  0999 V2000
    4.3146    0.8412    0.4084 C   0  0  0  0  0  0  0  0  0  0  0  0
    3.7049   -0.4902    0.8649 C   0  0  0  0  0  0  0  0  0  0  0  0
    2.5279   -0.3126    1.8337 C   0  0  0  0  0  0  0  0  0  0  0  0
    4.8075   -1.2544    1.6294 C   0  0  0  0  0  0  0  0  0  0  0  0
    3.4014   -1.3595   -0.2373 O   0  0  0  0  0  0  0  0  0  0  0  0
    2.4130   -1.1603   -1.1488 C   0  0  0  0  0  0  0  0  0  0  0  0
    1.5981   -0.0420   -1.2902 C   0  0  0  0  0  0  0  0  0  0  0  0
    0.6095    0.0126   -2.2910 C   0  0  0  0  0  0  0  0  0  0  0  0
   -0.2873    1.2188   -2.4000 C   0  0  0  0  0  0  0  0  0  0  0  0
   -1.4573    1.0059   -1.6011 O   0  0  0  0  0  0  0  0  0  0  0  0
   -1.4359    1.5598   -0.3636 C   0  0  0  0  0  0  0  0  0  0  0  0
   -0.5390    2.2531    0.0957 O   0  0  0  0  0  0  0  0  0  0  0  0
   -2.6760    1.2228    0.3957 C   0  0  0  0  0  0  0  0  0  0  0  0
   -3.5936    0.3496   -0.0700 C   0  0  0  0  0  0  0  0  0  0  0  0
   -4.7248    0.0787    0.6936 N   0  0  0  0  0  0  0  0  0  0  0  0
   -5.7836   -0.7565    0.4384 C   0  0  0  0  0  0  0  0  0  0  0  0
   -6.6728   -0.7417    1.4086 N   0  0  0  0  0  0  0  0  0  0  0  0
   -6.1761    0.1366    2.3405 C   0  0  0  0  0  0  0  0  0  0  0  0
   -4.9731    0.6597    1.9267 C   0  0  0  0  0  0  0  0  0  0  0  0
   -4.0158    1.5762    2.4343 C   0  0  0  0  0  0  0  0  0  0  0  0
   -2.9161    1.8451    1.7032 C   0  0  0  0  0  0  0  0  0  0  0  0
    0.4392   -1.0799   -3.1491 C   0  0  0  0  0  0  0  0  0  0  0  0
    1.2573   -2.1984   -3.0225 C   0  0  0  0  0  0  0  0  0  0  0  0
    2.2374   -2.2323   -2.0300 C   0  0  0  0  0  0  0  0  0  0  0  0
    4.7325    1.3971    1.2551 H   0  0  0  0  0  0  0  0  0  0  0  0
    5.1134    0.6712   -0.3225 H   0  0  0  0  0  0  0  0  0  0  0  0
    3.5879    1.4971   -0.0746 H   0  0  0  0  0  0  0  0  0  0  0  0
    2.0725   -1.2804    2.0726 H   0  0  0  0  0  0  0  0  0  0  0  0
    1.7330    0.3145    1.4249 H   0  0  0  0  0  0  0  0  0  0  0  0
    2.8519    0.1579    2.7688 H   0  0  0  0  0  0  0  0  0  0  0  0
    4.4456   -2.2364    1.9568 H   0  0  0  0  0  0  0  0  0  0  0  0
    5.1525   -0.7026    2.5104 H   0  0  0  0  0  0  0  0  0  0  0  0
    5.6715   -1.4451    0.9815 H   0  0  0  0  0  0  0  0  0  0  0  0
    1.6955    0.8157   -0.6367 H   0  0  0  0  0  0  0  0  0  0  0  0
   -0.6174    1.3464   -3.4375 H   0  0  0  0  0  0  0  0  0  0  0  0
    0.2460    2.1411   -2.1389 H   0  0  0  0  0  0  0  0  0  0  0  0
   -3.5111   -0.1710   -1.0159 H   0  0  0  0  0  0  0  0  0  0  0  0
   -5.8500   -1.3454   -0.4662 H   0  0  0  0  0  0  0  0  0  0  0  0
   -6.7130    0.3423    3.2575 H   0  0  0  0  0  0  0  0  0  0  0  0
   -4.1758    2.0462    3.3998 H   0  0  0  0  0  0  0  0  0  0  0  0
   -2.1687    2.5420    2.0755 H   0  0  0  0  0  0  0  0  0  0  0  0
   -0.3299   -1.0650   -3.9177 H   0  0  0  0  0  0  0  0  0  0  0  0
    1.1330   -3.0466   -3.6903 H   0  0  0  0  0  0  0  0  0  0  0  0
    2.8713   -3.1113   -1.9352 H   0  0  0  0  0  0  0  0  0  0  0  0
  1  2  1  0
  2  3  1  0
  2  4  1  0
  2  5  1  0
  5  6  1  0
  6  7  2  0
  7  8  1  0
  8  9  1  0
  9 10  1  0
 10 11  1  0
 11 12  2  0
 11 13  1  0
 13 14  2  0
 14 15  1  0
 15 16  1  0
 16 17  2  0
 17 18  1  0
 18 19  2  0
 19 20  1  0
 20 21  2  0
  8 22  2  0
 22 23  1  0
 23 24  2  0
 24  6  1  0
 21 13  1  0
 19 15  1  0
  1 25  1  0
  1 26  1  0
  1 27  1  0
  3 28  1  0
  3 29  1  0
  3 30  1  0
  4 31  1  0
  4 32  1  0
  4 33  1  0
  7 34  1  0
  9 35  1  0
  9 36  1  0
 14 37  1  0
 16 38  1  0
 18 39  1  0
 20 40  1  0
 21 41  1  0
 22 42  1  0
 23 43  1  0
 24 44  1  0
M  END
$$$$
OCNT-2318369
     RDKit          3D

 51 54  0  0  0  0  0  0  0  0999 V2000
    2.6503   -1.9216    1.4930 O   0  0  0  0  0  0  0  0  0  0  0  0
    2.6905   -1.6317    0.2977 C   0  0  0  0  0  0  0  0  0  0  0  0
    3.9273   -1.8158   -0.5665 C   0  0  0  0  0  0  0  0  0  0  0  0
    4.9836   -0.8112   -0.2351 C   0  0  0  0  0  0  0  0  0  0  0  0
    6.1328   -1.0464    0.4965 C   0  0  0  0  0  0  0  0  0  0  0  0
    6.8369    0.1237    0.5863 N   0  0  0  0  0  0  0  0  0  0  0  0
    6.1781    1.1244   -0.0862 C   0  0  0  0  0  0  0  0  0  0  0  0
    6.5134    2.4600   -0.2673 C   0  0  0  0  0  0  0  0  0  0  0  0
    5.6841    3.2579   -0.9770 N   0  0  0  0  0  0  0  0  0  0  0  0
    4.5496    2.7322   -1.4857 C   0  0  0  0  0  0  0  0  0  0  0  0
    4.1557    1.4095   -1.3440 C   0  0  0  0  0  0  0  0  0  0  0  0
    5.0105    0.5717   -0.6116 C   0  0  0  0  0  0  0  0  0  0  0  0
    1.5940   -1.1149   -0.3616 N   0  0  0  0  0  0  0  0  0  0  0  0
    0.3517   -0.8038    0.3355 C   0  0  0  0  0  0  0  0  0  0  0  0
   -0.5280   -2.0467    0.5783 C   0  0  1  0  0  0  0  0  0  0  0  0
    0.1025   -2.9887    1.4580 O   0  0  0  0  0  0  0  0  0  0  0  0
   -1.8868   -1.6634    1.2067 C   0  0  0  0  0  0  0  0  0  0  0  0
   -2.6624   -0.6610    0.4544 N   0  0  0  0  0  0  0  0  0  0  0  0
   -3.2315   -1.2128   -0.7870 C   0  0  0  0  0  0  0  0  0  0  0  0
   -3.8598   -0.0941   -1.6324 C   0  0  0  0  0  0  0  0  0  0  0  0
   -4.7646    0.8057   -0.8313 C   0  0  0  0  0  0  0  0  0  0  0  0
   -5.6423    1.6832   -1.4806 C   0  0  0  0  0  0  0  0  0  0  0  0
   -6.4557    2.5396   -0.7397 C   0  0  0  0  0  0  0  0  0  0  0  0
   -6.3957    2.5293    0.6518 C   0  0  0  0  0  0  0  0  0  0  0  0
   -5.5166    1.6666    1.3050 C   0  0  0  0  0  0  0  0  0  0  0  0
   -4.6833    0.8094    0.5720 C   0  0  0  0  0  0  0  0  0  0  0  0
   -3.7590   -0.1432    1.2991 C   0  0  0  0  0  0  0  0  0  0  0  0
    3.6659   -1.7435   -1.6291 H   0  0  0  0  0  0  0  0  0  0  0  0
    4.2944   -2.8374   -0.4066 H   0  0  0  0  0  0  0  0  0  0  0  0
    6.4995   -1.9469    0.9725 H   0  0  0  0  0  0  0  0  0  0  0  0
    7.7126    0.2388    1.0779 H   0  0  0  0  0  0  0  0  0  0  0  0
    7.4120    2.9138    0.1317 H   0  0  0  0  0  0  0  0  0  0  0  0
    3.9314    3.4345   -2.0384 H   0  0  0  0  0  0  0  0  0  0  0  0
    3.2301    1.0581   -1.7791 H   0  0  0  0  0  0  0  0  0  0  0  0
    1.6426   -0.9381   -1.3551 H   0  0  0  0  0  0  0  0  0  0  0  0
   -0.1682   -0.0695   -0.2887 H   0  0  0  0  0  0  0  0  0  0  0  0
    0.6114   -0.3298    1.2890 H   0  0  0  0  0  0  0  0  0  0  0  0
   -0.6823   -2.5742   -0.3679 H   0  0  0  0  0  0  0  0  0  0  0  0
    0.9768   -2.6282    1.7204 H   0  0  0  0  0  0  0  0  0  0  0  0
   -1.6715   -1.2718    2.2117 H   0  0  0  0  0  0  0  0  0  0  0  0
   -2.4785   -2.5739    1.3738 H   0  0  0  0  0  0  0  0  0  0  0  0
   -2.4576   -1.6882   -1.3991 H   0  0  0  0  0  0  0  0  0  0  0  0
   -3.9813   -1.9847   -0.5617 H   0  0  0  0  0  0  0  0  0  0  0  0
   -4.4217   -0.5479   -2.4574 H   0  0  0  0  0  0  0  0  0  0  0  0
   -3.0641    0.5233   -2.0652 H   0  0  0  0  0  0  0  0  0  0  0  0
   -5.6925    1.7055   -2.5659 H   0  0  0  0  0  0  0  0  0  0  0  0
   -7.1355    3.2169   -1.2485 H   0  0  0  0  0  0  0  0  0  0  0  0
   -7.0327    3.1944    1.2296 H   0  0  0  0  0  0  0  0  0  0  0  0
   -5.4819    1.6675    2.3920 H   0  0  0  0  0  0  0  0  0  0  0  0
   -4.3662   -0.9679    1.6939 H   0  0  0  0  0  0  0  0  0  0  0  0
   -3.3181    0.3915    2.1489 H   0  0  0  0  0  0  0  0  0  0  0  0
  1  2  2  0
  2  3  1  0
  3  4  1  0
  4  5  2  0
  5  6  1  0
  6  7  1  0
  7  8  2  0
  8  9  1  0
  9 10  2  0
 10 11  1  0
 11 12  2  0
  2 13  1  0
 13 14  1  0
 14 15  1  0
 15 16  1  0
 15 17  1  0
 17 18  1  0
 18 19  1  0
 19 20  1  0
 20 21  1  0
 21 22  2  0
 22 23  1  0
 23 24  2  0
 24 25  1  0
 25 26  2  0
 26 27  1  0
 12  4  1  0
 27 18  1  0
 12  7  1  0
 26 21  1  0
  3 28  1  0
  3 29  1  0
  5 30  1  0
  6 31  1  0
  8 32  1  0
 10 33  1  0
 11 34  1  0
 13 35  1  0
 14 36  1  0
 14 37  1  0
 15 38  1  6
 16 39  1  0
 17 40  1  0
 17 41  1  0
 19 42  1  0
 19 43  1  0
 20 44  1  0
 20 45  1  0
 22 46  1  0
 23 47  1  0
 24 48  1  0
 25 49  1  0
 27 50  1  0
 27 51  1  0
M  END
$$$$
OCNT-2318390
     RDKit          3D

 38 41  0  0  0  0  0  0  0  0999 V2000
   -3.4686   -1.0108   -1.2088 C   0  0  0  0  0  0  0  0  0  0  0  0
   -2.6192   -0.3853   -0.2284 N   0  0  0  0  0  0  0  0  0  0  0  0
   -3.0431    0.4604    0.7701 C   0  0  0  0  0  0  0  0  0  0  0  0
   -4.5180    0.8779    1.0396 C   0  0  0  0  0  0  0  0  0  0  0  0
   -5.2056    1.8048    0.0711 C   0  0  0  0  0  0  0  0  0  0  0  0
   -4.8071    2.3044    1.4288 C   0  0  0  0  0  0  0  0  0  0  0  0
   -2.0345    0.8913    1.5008 N   0  0  0  0  0  0  0  0  0  0  0  0
   -0.9185    0.3270    0.9435 C   0  0  0  0  0  0  0  0  0  0  0  0
   -1.2639   -0.4844   -0.1128 C   0  0  0  0  0  0  0  0  0  0  0  0
   -0.2920   -1.2431   -0.9248 C   0  0  0  0  0  0  0  0  0  0  0  0
    1.0137   -1.4039   -0.1100 C   0  0  0  0  0  0  0  0  0  0  0  0
    1.4581   -0.1621    0.5703 N   0  0  0  0  0  0  0  0  0  0  0  0
    2.7796    0.2649    0.7068 C   0  0  0  0  0  0  0  0  0  0  0  0
    3.0497    1.3096    1.2938 O   0  0  0  0  0  0  0  0  0  0  0  0
    3.7193   -0.5780    0.1542 N   0  0  0  0  0  0  0  0  0  0  0  0
    5.0570   -0.2804   -0.0262 C   0  0  0  0  0  0  0  0  0  0  0  0
    6.0756   -1.1565   -0.3355 C   0  0  0  0  0  0  0  0  0  0  0  0
    7.3043   -0.4484   -0.4787 C   0  0  0  0  0  0  0  0  0  0  0  0
    7.2638    0.8705   -0.3157 N   0  0  0  0  0  0  0  0  0  0  0  0
    5.6937    1.2998    0.0281 S   0  0  0  0  0  0  0  0  0  0  0  0
    0.4734    0.5516    1.4234 C   0  0  0  0  0  0  0  0  0  0  0  0
   -4.3537   -1.4127   -0.7084 H   0  0  0  0  0  0  0  0  0  0  0  0
   -3.7544   -0.2563   -1.9463 H   0  0  0  0  0  0  0  0  0  0  0  0
   -2.9334   -1.8265   -1.6994 H   0  0  0  0  0  0  0  0  0  0  0  0
   -5.1136    0.1139    1.5273 H   0  0  0  0  0  0  0  0  0  0  0  0
   -6.2603    1.6483   -0.1203 H   0  0  0  0  0  0  0  0  0  0  0  0
   -4.6483    2.1819   -0.7789 H   0  0  0  0  0  0  0  0  0  0  0  0
   -5.5845    2.4777    2.1628 H   0  0  0  0  0  0  0  0  0  0  0  0
   -3.9716    2.9932    1.4985 H   0  0  0  0  0  0  0  0  0  0  0  0
   -0.6719   -2.2309   -1.2035 H   0  0  0  0  0  0  0  0  0  0  0  0
   -0.0824   -0.6858   -1.8453 H   0  0  0  0  0  0  0  0  0  0  0  0
    1.7817   -1.7763   -0.7925 H   0  0  0  0  0  0  0  0  0  0  0  0
    0.8794   -2.1557    0.6780 H   0  0  0  0  0  0  0  0  0  0  0  0
    3.4872   -1.5560    0.1223 H   0  0  0  0  0  0  0  0  0  0  0  0
    5.9641   -2.2254   -0.4501 H   0  0  0  0  0  0  0  0  0  0  0  0
    8.2663   -0.8870   -0.7122 H   0  0  0  0  0  0  0  0  0  0  0  0
    0.5843    0.1639    2.4422 H   0  0  0  0  0  0  0  0  0  0  0  0
    0.6932    1.6243    1.4348 H   0  0  0  0  0  0  0  0  0  0  0  0
  1  2  1  0
  2  3  1  0
  3  4  1  0
  4  5  1  0
  5  6  1  0
  3  7  2  0
  7  8  1  0
  8  9  2  0
  9 10  1  0
 10 11  1  0
 11 12  1  0
 12 13  1  0
 13 14  2  0
 13 15  1  0
 15 16  1  0
 16 17  2  0
 17 18  1  0
 18 19  2  0
 19 20  1  0
 12 21  1  0
  9  2  1  0
 20 16  1  0
  6  4  1  0
 21  8  1  0
  1 22  1  0
  1 23  1  0
  1 24  1  0
  4 25  1  0
  5 26  1  0
  5 27  1  0
  6 28  1  0
  6 29  1  0
 10 30  1  0
 10 31  1  0
 11 32  1  0
 11 33  1  0
 15 34  1  0
 17 35  1  0
 18 36  1  0
 21 37  1  0
 21 38  1  0
M  END
$$$$
OCNT-2318391
     RDKit          3D

  0  0  0  0  0  0  0  0  0  0999 V3000
M  V30 BEGIN CTAB
M  V30 COUNTS 53 56 0 0 0
M  V30 BEGIN ATOM
M  V30 1 O -2.749316 -2.264645 2.185919 0
M  V30 2 C -2.667345 -1.797446 0.851401 0 CFG=1
M  V30 3 C -3.805127 -0.829953 0.521611 0
M  V30 4 C -3.173007 0.289056 -0.330020 0
M  V30 5 C -3.954925 0.630765 -1.598598 0
M  V30 6 N -5.220389 1.282508 -1.329231 0
M  V30 7 C -5.398228 2.603669 -1.027578 0
M  V30 8 C -6.758444 2.754148 -0.889351 0
M  V30 9 N -7.403887 1.565003 -1.109938 0
M  V30 10 C -6.452852 0.698013 -1.375350 0
M  V30 11 C -1.750517 -0.199301 -0.639598 0
M  V30 12 C -1.381565 -0.984387 0.616594 0 CFG=2
M  V30 13 N -0.218219 -1.868404 0.493356 0
M  V30 14 C 1.065854 -1.156064 0.397489 0
M  V30 15 C 2.181056 -2.135732 0.018400 0
M  V30 16 C 3.503758 -1.377039 -0.164832 0
M  V30 17 N 3.804801 -0.392874 0.884713 0
M  V30 18 C 3.891654 0.989741 0.389361 0
M  V30 19 C 5.114622 1.227495 -0.434229 0
M  V30 20 C 5.357040 1.254259 -1.793555 0
M  V30 21 C 6.732458 1.550749 -1.950447 0
M  V30 22 C 7.240233 1.693976 -0.681114 0
M  V30 23 O 6.266003 1.507842 0.245155 0
M  V30 24 C 2.917875 -0.512708 2.041161 0
M  V30 25 C 1.427636 -0.421584 1.701096 0
M  V30 26 H -1.876439 -2.657339 2.379925 0
M  V30 27 H -2.718342 -2.663795 0.179395 0
M  V30 28 H -4.259226 -0.411880 1.427725 0
M  V30 29 H -4.597979 -1.364334 -0.013414 0
M  V30 30 H -3.094083 1.186511 0.299632 0
M  V30 31 H -4.157256 -0.267049 -2.194685 0
M  V30 32 H -3.377160 1.316383 -2.230478 0
M  V30 33 H -4.578967 3.302470 -0.935099 0
M  V30 34 H -7.307282 3.654611 -0.645592 0
M  V30 35 H -6.604417 -0.349424 -1.601183 0
M  V30 36 H -1.071623 0.639088 -0.825735 0
M  V30 37 H -1.743635 -0.846719 -1.525964 0
M  V30 38 H -1.242701 -0.306279 1.468678 0
M  V30 39 H -0.331423 -2.472878 -0.321446 0
M  V30 40 H 1.002009 -0.419711 -0.414264 0
M  V30 41 H 1.938734 -2.656505 -0.916580 0
M  V30 42 H 2.292850 -2.909448 0.789477 0
M  V30 43 H 3.487269 -0.913699 -1.158910 0
M  V30 44 H 4.320363 -2.108541 -0.191358 0
M  V30 45 H 3.939587 1.687038 1.236294 0
M  V30 46 H 2.995661 1.261762 -0.182446 0
M  V30 47 H 4.630121 1.076350 -2.573054 0
M  V30 48 H 7.287192 1.647963 -2.872781 0
M  V30 49 H 8.221392 1.917176 -0.286255 0
M  V30 50 H 3.168779 0.233029 2.805937 0
M  V30 51 H 3.114645 -1.478672 2.525529 0
M  V30 52 H 0.869090 -0.832453 2.552169 0
M  V30 53 H 1.123671 0.629260 1.613681 0
M  V30 END ATOM
M  V30 BEGIN BOND
M  V30 1 1 1 2
M  V30 2 1 2 3
M  V30 3 1 3 4
M  V30 4 1 4 5
M  V30 5 1 5 6
M  V30 6 1 6 7
M  V30 7 2 7 8
M  V30 8 1 8 9
M  V30 9 2 9 10
M  V30 10 1 4 11
M  V30 11 1 11 12
M  V30 12 1 12 13
M  V30 13 1 13 14
M  V30 14 1 14 15
M  V30 15 1 15 16
M  V30 16 1 16 17
M  V30 17 1 17 18
M  V30 18 1 18 19
M  V30 19 2 19 20
M  V30 20 1 20 21
M  V30 21 2 21 22
M  V30 22 1 22 23
M  V30 23 1 17 24
M  V30 24 1 24 25
M  V30 25 1 12 2
M  V30 26 1 25 14
M  V30 27 1 10 6
M  V30 28 1 23 19
M  V30 29 1 1 26
M  V30 30 1 2 27 CFG=3
M  V30 31 1 3 28
M  V30 32 1 3 29
M  V30 33 1 4 30
M  V30 34 1 5 31
M  V30 35 1 5 32
M  V30 36 1 7 33
M  V30 37 1 8 34
M  V30 38 1 10 35
M  V30 39 1 11 36
M  V30 40 1 11 37
M  V30 41 1 12 38 CFG=1
M  V30 42 1 13 39
M  V30 43 1 14 40
M  V30 44 1 15 41
M  V30 45 1 15 42
M  V30 46 1 16 43
M  V30 47 1 16 44
M  V30 48 1 18 45
M  V30 49 1 18 46
M  V30 50 1 20 47
M  V30 51 1 21 48
M  V30 52 1 22 49
M  V30 53 1 24 50
M  V30 54 1 24 51
M  V30 55 1 25 52
M  V30 56 1 25 53
M  V30 END BOND
M  V30 BEGIN COLLECTION
M  V30 MDLV30/STERAC1 ATOMS=(2 2 12)
M  V30 END COLLECTION
M  V30 END CTAB
M  END
>  <_CXSMILES_Data>  (1350) 
|&1:1,11|

$$$$
OCNT-2318397
     RDKit          3D

 41 43  0  0  0  0  0  0  0  0999 V2000
   -1.3806    0.7899   -1.8671 C   0  0  0  0  0  0  0  0  0  0  0  0
   -1.3889   -0.1932   -0.6910 C   0  0  0  0  0  0  0  0  0  0  0  0
    0.0583   -0.5082   -0.2225 C   0  0  0  0  0  0  0  0  0  0  0  0
    0.7189    0.5906    0.4922 N   0  0  0  0  0  0  0  0  0  0  0  0
    2.0937    0.8269    0.5244 C   0  0  0  0  0  0  0  0  0  0  0  0
    2.5551    1.8835    0.9621 O   0  0  0  0  0  0  0  0  0  0  0  0
    3.0657   -0.2041    0.0308 C   0  0  0  0  0  0  0  0  0  0  0  0
    4.3136    0.2173   -0.3834 C   0  0  0  0  0  0  0  0  0  0  0  0
    5.1914   -0.7695   -0.7859 C   0  0  0  0  0  0  0  0  0  0  0  0
    6.5721   -0.3828   -1.2654 C   0  0  0  0  0  0  0  0  0  0  0  0
    7.2621    0.3463   -0.3419 F   0  0  0  0  0  0  0  0  0  0  0  0
    6.5333    0.3901   -2.3890 F   0  0  0  0  0  0  0  0  0  0  0  0
    4.8514   -2.0822   -0.7695 N   0  0  0  0  0  0  0  0  0  0  0  0
    3.6200   -2.3810   -0.3320 C   0  0  0  0  0  0  0  0  0  0  0  0
    2.6967   -1.5041    0.0727 N   0  0  0  0  0  0  0  0  0  0  0  0
   -0.1609    1.5469    1.1620 C   0  0  0  0  0  0  0  0  0  0  0  0
   -1.5143    0.9407    1.5590 C   0  0  0  0  0  0  0  0  0  0  0  0
   -2.2291    0.3420    0.4113 N   0  0  0  0  0  0  0  0  0  0  0  0
   -3.5437   -0.1046    0.5747 C   0  0  0  0  0  0  0  0  0  0  0  0
   -4.3030   -0.5917   -0.4975 C   0  0  0  0  0  0  0  0  0  0  0  0
   -5.6127   -1.0145   -0.2981 C   0  0  0  0  0  0  0  0  0  0  0  0
   -6.2381   -0.9904    0.8921 N   0  0  0  0  0  0  0  0  0  0  0  0
   -5.5170   -0.5099    1.9206 C   0  0  0  0  0  0  0  0  0  0  0  0
   -4.2043   -0.0637    1.8101 C   0  0  0  0  0  0  0  0  0  0  0  0
   -0.9430    1.7553   -1.5979 H   0  0  0  0  0  0  0  0  0  0  0  0
   -2.3941    0.9883   -2.2292 H   0  0  0  0  0  0  0  0  0  0  0  0
   -0.8025    0.3830   -2.7036 H   0  0  0  0  0  0  0  0  0  0  0  0
   -1.7895   -1.1496   -1.0504 H   0  0  0  0  0  0  0  0  0  0  0  0
    0.0280   -1.3537    0.4759 H   0  0  0  0  0  0  0  0  0  0  0  0
    0.6569   -0.8011   -1.0906 H   0  0  0  0  0  0  0  0  0  0  0  0
    4.5915    1.2654   -0.3873 H   0  0  0  0  0  0  0  0  0  0  0  0
    7.1641   -1.2738   -1.4947 H   0  0  0  0  0  0  0  0  0  0  0  0
    3.3491   -3.4314   -0.3057 H   0  0  0  0  0  0  0  0  0  0  0  0
    0.3392    1.9381    2.0556 H   0  0  0  0  0  0  0  0  0  0  0  0
   -0.3054    2.3920    0.4795 H   0  0  0  0  0  0  0  0  0  0  0  0
   -2.1165    1.7423    2.0031 H   0  0  0  0  0  0  0  0  0  0  0  0
   -1.3457    0.1689    2.3209 H   0  0  0  0  0  0  0  0  0  0  0  0
   -3.9104   -0.6354   -1.5055 H   0  0  0  0  0  0  0  0  0  0  0  0
   -6.2070   -1.3898   -1.1261 H   0  0  0  0  0  0  0  0  0  0  0  0
   -6.0318   -0.4881    2.8768 H   0  0  0  0  0  0  0  0  0  0  0  0
   -3.7225    0.2970    2.7104 H   0  0  0  0  0  0  0  0  0  0  0  0
  1  2  1  0
  2  3  1  0
  3  4  1  0
  4  5  1  0
  5  6  2  0
  5  7  1  0
  7  8  2  0
  8  9  1  0
  9 10  1  0
 10 11  1  0
 10 12  1  0
  9 13  2  0
 13 14  1  0
 14 15  2  0
  4 16  1  0
 16 17  1  0
 17 18  1  0
 18 19  1  0
 19 20  2  0
 20 21  1  0
 21 22  2  0
 22 23  1  0
 23 24  2  0
 18  2  1  0
 24 19  1  0
 15  7  1  0
  1 25  1  0
  1 26  1  0
  1 27  1  0
  2 28  1  0
  3 29  1  0
  3 30  1  0
  8 31  1  0
 10 32  1  0
 14 33  1  0
 16 34  1  0
 16 35  1  0
 17 36  1  0
 17 37  1  0
 20 38  1  0
 21 39  1  0
 23 40  1  0
 24 41  1  0
M  END
$$$$
OCNT-2318399
     RDKit          3D

 41 43  0  0  0  0  0  0  0  0999 V2000
    2.8343    1.0848   -1.2744 O   0  0  0  0  0  0  0  0  0  0  0  0
    2.8828    0.1576   -0.4754 C   0  0  0  0  0  0  0  0  0  0  0  0
    4.0069   -0.2969    0.1922 N   0  0  0  0  0  0  0  0  0  0  0  0
    5.3353    0.1539    0.0260 C   0  0  0  0  0  0  0  0  0  0  0  0
    6.3066   -0.3849    0.8713 C   0  0  0  0  0  0  0  0  0  0  0  0
    7.6196    0.0352    0.7280 C   0  0  0  0  0  0  0  0  0  0  0  0
    8.0215    0.9383   -0.1875 N   0  0  0  0  0  0  0  0  0  0  0  0
    7.0651    1.4419   -0.9960 C   0  0  0  0  0  0  0  0  0  0  0  0
    5.7270    1.0852   -0.9302 C   0  0  0  0  0  0  0  0  0  0  0  0
    1.6118   -0.5392   -0.1246 C   0  0  0  0  0  0  0  0  0  0  0  0
    1.5795   -1.9020    0.2041 C   0  0  0  0  0  0  0  0  0  0  0  0
    0.3666   -2.5117    0.5293 C   0  0  0  0  0  0  0  0  0  0  0  0
   -0.8124   -1.7664    0.5219 C   0  0  0  0  0  0  0  0  0  0  0  0
   -0.7842   -0.4140    0.1808 C   0  0  0  0  0  0  0  0  0  0  0  0
   -2.0087    0.3300    0.1337 N   0  0  0  0  0  0  0  0  0  0  0  0
   -2.9367    0.0743   -1.2791 S   0  0  0  0  0  0  0  0  0  0  0  0
   -2.5273    1.1270   -2.1886 O   0  0  0  0  0  0  0  0  0  0  0  0
   -2.9244   -1.3136   -1.6839 O   0  0  0  0  0  0  0  0  0  0  0  0
   -4.5753    0.4641   -0.7218 C   0  0  0  0  0  0  0  0  0  0  0  0
   -5.2636    1.5223   -1.3349 C   0  0  0  0  0  0  0  0  0  0  0  0
   -6.5590    1.8450   -0.9275 C   0  0  0  0  0  0  0  0  0  0  0  0
   -7.1706    1.1120    0.0886 C   0  0  0  0  0  0  0  0  0  0  0  0
   -6.4842    0.0580    0.6937 C   0  0  0  0  0  0  0  0  0  0  0  0
   -7.2629   -0.8342    1.9504 Cl  0  0  0  0  0  0  0  0  0  0  0  0
   -5.1838   -0.2731    0.2937 C   0  0  0  0  0  0  0  0  0  0  0  0
   -4.5235   -1.3053    0.9014 O   0  0  0  0  0  0  0  0  0  0  0  0
    0.4210    0.1995   -0.1577 C   0  0  0  0  0  0  0  0  0  0  0  0
    3.8637   -0.9759    0.9278 H   0  0  0  0  0  0  0  0  0  0  0  0
    6.0640   -1.1161    1.6333 H   0  0  0  0  0  0  0  0  0  0  0  0
    8.4062   -0.3569    1.3663 H   0  0  0  0  0  0  0  0  0  0  0  0
    7.4107    2.1661   -1.7285 H   0  0  0  0  0  0  0  0  0  0  0  0
    5.0344    1.5394   -1.6274 H   0  0  0  0  0  0  0  0  0  0  0  0
    2.4783   -2.5119    0.1745 H   0  0  0  0  0  0  0  0  0  0  0  0
    0.3323   -3.5718    0.7692 H   0  0  0  0  0  0  0  0  0  0  0  0
   -1.7582   -2.2482    0.7605 H   0  0  0  0  0  0  0  0  0  0  0  0
   -1.8300    1.3347    0.1798 H   0  0  0  0  0  0  0  0  0  0  0  0
   -4.8022    2.0968   -2.1370 H   0  0  0  0  0  0  0  0  0  0  0  0
   -7.0919    2.6641   -1.4060 H   0  0  0  0  0  0  0  0  0  0  0  0
   -8.1808    1.3648    0.4016 H   0  0  0  0  0  0  0  0  0  0  0  0
   -5.1347   -1.7189    1.5405 H   0  0  0  0  0  0  0  0  0  0  0  0
    0.4470    1.2462   -0.4517 H   0  0  0  0  0  0  0  0  0  0  0  0
  1  2  2  0
  2  3  1  0
  3  4  1  0
  4  5  2  0
  5  6  1  0
  6  7  2  0
  7  8  1  0
  8  9  2  0
  2 10  1  0
 10 11  1  0
 11 12  2  0
 12 13  1  0
 13 14  2  0
 14 15  1  0
 15 16  1  0
 16 17  2  0
 16 18  2  0
 16 19  1  0
 19 20  2  0
 20 21  1  0
 21 22  2  0
 22 23  1  0
 23 24  1  0
 23 25  2  0
 25 26  1  0
 14 27  1  0
  9  4  1  0
 27 10  2  0
 25 19  1  0
  3 28  1  0
  5 29  1  0
  6 30  1  0
  8 31  1  0
  9 32  1  0
 11 33  1  0
 12 34  1  0
 13 35  1  0
 15 36  1  0
 20 37  1  0
 21 38  1  0
 22 39  1  0
 26 40  1  0
 27 41  1  0
M  END
$$$$
OCNT-2318401
     RDKit          3D

 40 43  0  0  0  0  0  0  0  0999 V2000
    5.0859    1.7037   -0.9786 C   0  0  0  0  0  0  0  0  0  0  0  0
    3.9456    0.8847   -0.5014 C   0  0  0  0  0  0  0  0  0  0  0  0
    2.7879    0.8752   -1.1809 N   0  0  0  0  0  0  0  0  0  0  0  0
    1.9890    0.0756   -0.4314 N   0  0  0  0  0  0  0  0  0  0  0  0
    0.6297   -0.1969   -0.8513 C   0  0  0  0  0  0  0  0  0  0  0  0
   -0.3887    0.6551   -0.1146 C   0  0  0  0  0  0  0  0  0  0  0  0
   -0.0755    1.4149    0.8028 O   0  0  0  0  0  0  0  0  0  0  0  0
   -1.7258    0.5321   -0.5333 N   0  0  0  0  0  0  0  0  0  0  0  0
   -2.1299   -0.2559   -1.6996 C   0  0  0  0  0  0  0  0  0  0  0  0
   -3.6177   -0.5936   -1.7979 C   0  0  0  0  0  0  0  0  0  0  0  0
   -4.1307   -1.3433   -0.5740 C   0  0  0  0  0  0  0  0  0  0  0  0
   -4.2113   -0.5623    0.6403 N   0  0  0  0  0  0  0  0  0  0  0  0
   -4.9646   -1.0245    1.6552 N   0  0  0  0  0  0  0  0  0  0  0  0
   -4.8340   -0.1820    2.6693 N   0  0  0  0  0  0  0  0  0  0  0  0
   -3.9912    0.8163    2.2793 C   0  0  0  0  0  0  0  0  0  0  0  0
   -3.5886    0.6076    0.9776 C   0  0  0  0  0  0  0  0  0  0  0  0
   -2.7113    1.4045    0.0943 C   0  0  0  0  0  0  0  0  0  0  0  0
    2.6269   -0.5005    0.6325 C   0  0  0  0  0  0  0  0  0  0  0  0
    2.1109   -1.3976    1.4985 N   0  0  0  0  0  0  0  0  0  0  0  0
    2.9869   -1.7486    2.4683 C   0  0  0  0  0  0  0  0  0  0  0  0
    4.2906   -1.2817    2.5938 C   0  0  0  0  0  0  0  0  0  0  0  0
    4.7802   -0.3693    1.6572 C   0  0  0  0  0  0  0  0  0  0  0  0
    3.9077    0.0321    0.6344 C   0  0  0  0  0  0  0  0  0  0  0  0
    5.8855    1.0578   -1.3549 H   0  0  0  0  0  0  0  0  0  0  0  0
    5.4888    2.3126   -0.1629 H   0  0  0  0  0  0  0  0  0  0  0  0
    4.7862    2.3800   -1.7859 H   0  0  0  0  0  0  0  0  0  0  0  0
    0.4325   -1.2569   -0.6630 H   0  0  0  0  0  0  0  0  0  0  0  0
    0.5756   -0.0024   -1.9274 H   0  0  0  0  0  0  0  0  0  0  0  0
   -1.5558   -1.1878   -1.7156 H   0  0  0  0  0  0  0  0  0  0  0  0
   -1.8338    0.3178   -2.5859 H   0  0  0  0  0  0  0  0  0  0  0  0
   -3.7644   -1.2251   -2.6829 H   0  0  0  0  0  0  0  0  0  0  0  0
   -4.2121    0.3121   -1.9667 H   0  0  0  0  0  0  0  0  0  0  0  0
   -5.1447   -1.7055   -0.7819 H   0  0  0  0  0  0  0  0  0  0  0  0
   -3.4997   -2.2119   -0.3533 H   0  0  0  0  0  0  0  0  0  0  0  0
   -3.7247    1.6244    2.9459 H   0  0  0  0  0  0  0  0  0  0  0  0
   -3.2845    1.9175   -0.6856 H   0  0  0  0  0  0  0  0  0  0  0  0
   -2.2251    2.1937    0.6779 H   0  0  0  0  0  0  0  0  0  0  0  0
    2.5931   -2.4592    3.1920 H   0  0  0  0  0  0  0  0  0  0  0  0
    4.9174   -1.6243    3.4104 H   0  0  0  0  0  0  0  0  0  0  0  0
    5.7935    0.0116    1.7216 H   0  0  0  0  0  0  0  0  0  0  0  0
  1  2  1  0
  2  3  2  0
  3  4  1  0
  4  5  1  0
  5  6  1  0
  6  7  2  0
  6  8  1  0
  8  9  1  0
  9 10  1  0
 10 11  1  0
 11 12  1  0
 12 13  1  0
 13 14  2  0
 14 15  1  0
 15 16  2  0
 16 17  1  0
  4 18  1  0
 18 19  1  0
 19 20  2  0
 20 21  1  0
 21 22  2  0
 22 23  1  0
 23  2  1  0
 17  8  1  0
 23 18  2  0
 16 12  1  0
  1 24  1  0
  1 25  1  0
  1 26  1  0
  5 27  1  0
  5 28  1  0
  9 29  1  0
  9 30  1  0
 10 31  1  0
 10 32  1  0
 11 33  1  0
 11 34  1  0
 15 35  1  0
 17 36  1  0
 17 37  1  0
 20 38  1  0
 21 39  1  0
 22 40  1  0
M  END
$$$$
OCNT-2318404
     RDKit          3D

 59 62  0  0  0  0  0  0  0  0999 V2000
    3.8938    1.7591    1.1895 C   0  0  0  0  0  0  0  0  0  0  0  0
    3.6541    0.3585    1.7373 C   0  0  0  0  0  0  0  0  0  0  0  0
    3.9167   -0.7130    0.7266 C   0  0  0  0  0  0  0  0  0  0  0  0
    2.9952   -1.4582   -0.0108 C   0  0  0  0  0  0  0  0  0  0  0  0
    1.5462   -1.4547   -0.1071 C   0  0  0  0  0  0  0  0  0  0  0  0
    0.8816   -2.4656   -0.3109 O   0  0  0  0  0  0  0  0  0  0  0  0
    0.9593   -0.2097    0.0224 N   0  0  0  0  0  0  0  0  0  0  0  0
   -0.4915    0.0444   -0.1125 C   0  0  0  0  0  0  0  0  0  0  0  0
   -1.2922   -0.7759    0.9374 C   0  0  0  0  0  0  0  0  0  0  0  0
   -2.7213   -0.5047    0.9635 N   0  0  0  0  0  0  0  0  0  0  0  0
   -3.3158    0.2602    1.9384 C   0  0  0  0  0  0  0  0  0  0  0  0
   -2.6748    0.8223    2.8245 O   0  0  0  0  0  0  0  0  0  0  0  0
   -4.8197    0.4718    1.8106 C   0  0  0  0  0  0  0  0  0  0  0  0
   -5.5700   -0.7604    1.3605 C   0  0  0  0  0  0  0  0  0  0  0  0
   -5.5685   -0.7338   -0.0774 O   0  0  0  0  0  0  0  0  0  0  0  0
   -5.3135    0.6130   -0.5146 C   0  0  0  0  0  0  0  0  0  0  0  0
   -6.4270    1.0728   -1.4369 C   0  0  0  0  0  0  0  0  0  0  0  0
   -5.1593    1.4732    0.7299 C   0  0  0  0  0  0  0  0  0  0  0  0
   -0.7275    1.5653    0.0149 C   0  0  0  0  0  0  0  0  0  0  0  0
   -0.4206    2.1529   -1.3685 C   0  0  0  0  0  0  0  0  0  0  0  0
   -0.3967    0.9763   -2.3405 C   0  0  0  0  0  0  0  0  0  0  0  0
   -0.9577   -0.2073   -1.5579 C   0  0  0  0  0  0  0  0  0  0  0  0
    3.6555   -2.3875   -0.7700 O   0  0  0  0  0  0  0  0  0  0  0  0
    4.9844   -2.2432   -0.5423 C   0  0  0  0  0  0  0  0  0  0  0  0
    5.9889   -3.0058   -1.1326 C   0  0  0  0  0  0  0  0  0  0  0  0
    7.3018   -2.7129   -0.7495 C   0  0  0  0  0  0  0  0  0  0  0  0
    7.5739   -1.7047    0.1798 C   0  0  0  0  0  0  0  0  0  0  0  0
    6.5385   -0.9519    0.7531 C   0  0  0  0  0  0  0  0  0  0  0  0
    5.2086   -1.2279    0.3762 C   0  0  0  0  0  0  0  0  0  0  0  0
    3.2429    1.9755    0.3365 H   0  0  0  0  0  0  0  0  0  0  0  0
    3.6970    2.5065    1.9650 H   0  0  0  0  0  0  0  0  0  0  0  0
    4.9297    1.8834    0.8570 H   0  0  0  0  0  0  0  0  0  0  0  0
    2.6291    0.2838    2.1187 H   0  0  0  0  0  0  0  0  0  0  0  0
    4.3075    0.2002    2.6055 H   0  0  0  0  0  0  0  0  0  0  0  0
    1.5760    0.5874   -0.0268 H   0  0  0  0  0  0  0  0  0  0  0  0
   -1.2052   -1.8486    0.7421 H   0  0  0  0  0  0  0  0  0  0  0  0
   -0.8738   -0.5992    1.9352 H   0  0  0  0  0  0  0  0  0  0  0  0
   -3.3042   -0.9958    0.2921 H   0  0  0  0  0  0  0  0  0  0  0  0
   -5.1731    0.7927    2.7968 H   0  0  0  0  0  0  0  0  0  0  0  0
   -6.6157   -0.7247    1.6867 H   0  0  0  0  0  0  0  0  0  0  0  0
   -5.1327   -1.7031    1.7046 H   0  0  0  0  0  0  0  0  0  0  0  0
   -4.3745    0.5988   -1.0755 H   0  0  0  0  0  0  0  0  0  0  0  0
   -6.4414    0.4552   -2.3407 H   0  0  0  0  0  0  0  0  0  0  0  0
   -6.2969    2.1171   -1.7355 H   0  0  0  0  0  0  0  0  0  0  0  0
   -7.4086    0.9558   -0.9688 H   0  0  0  0  0  0  0  0  0  0  0  0
   -6.1032    1.9753    0.9751 H   0  0  0  0  0  0  0  0  0  0  0  0
   -4.3978    2.2464    0.5854 H   0  0  0  0  0  0  0  0  0  0  0  0
   -1.7748    1.7975    0.2463 H   0  0  0  0  0  0  0  0  0  0  0  0
   -0.1116    2.0301    0.7947 H   0  0  0  0  0  0  0  0  0  0  0  0
   -1.1969    2.8793   -1.6509 H   0  0  0  0  0  0  0  0  0  0  0  0
    0.5410    2.6847   -1.3749 H   0  0  0  0  0  0  0  0  0  0  0  0
   -0.9773    1.1790   -3.2467 H   0  0  0  0  0  0  0  0  0  0  0  0
    0.6369    0.7713   -2.6500 H   0  0  0  0  0  0  0  0  0  0  0  0
   -2.0517   -0.1950   -1.6291 H   0  0  0  0  0  0  0  0  0  0  0  0
   -0.6096   -1.1564   -1.9766 H   0  0  0  0  0  0  0  0  0  0  0  0
    5.7558   -3.7886   -1.8453 H   0  0  0  0  0  0  0  0  0  0  0  0
    8.1218   -3.2844   -1.1796 H   0  0  0  0  0  0  0  0  0  0  0  0
    8.6036   -1.5022    0.4672 H   0  0  0  0  0  0  0  0  0  0  0  0
    6.7652   -0.1746    1.4779 H   0  0  0  0  0  0  0  0  0  0  0  0
  1  2  1  0
  2  3  1  0
  3  4  2  0
  4  5  1  0
  5  6  2  0
  5  7  1  0
  7  8  1  0
  8  9  1  0
  9 10  1  0
 10 11  1  0
 11 12  2  0
 11 13  1  0
 13 14  1  0
 14 15  1  0
 15 16  1  0
 16 17  1  0
 16 18  1  0
  8 19  1  0
 19 20  1  0
 20 21  1  0
 21 22  1  0
  4 23  1  0
 23 24  1  0
 24 25  2  0
 25 26  1  0
 26 27  2  0
 27 28  1  0
 28 29  2  0
 29  3  1  0
 22  8  1  0
 29 24  1  0
 18 13  1  0
  1 30  1  0
  1 31  1  0
  1 32  1  0
  2 33  1  0
  2 34  1  0
  7 35  1  0
  9 36  1  0
  9 37  1  0
 10 38  1  0
 13 39  1  0
 14 40  1  0
 14 41  1  0
 16 42  1  0
 17 43  1  0
 17 44  1  0
 17 45  1  0
 18 46  1  0
 18 47  1  0
 19 48  1  0
 19 49  1  0
 20 50  1  0
 20 51  1  0
 21 52  1  0
 21 53  1  0
 22 54  1  0
 22 55  1  0
 25 56  1  0
 26 57  1  0
 27 58  1  0
 28 59  1  0
M  END
$$$$
OCNT-2318405
     RDKit          3D

  0  0  0  0  0  0  0  0  0  0999 V3000
M  V30 BEGIN CTAB
M  V30 COUNTS 45 47 0 0 0
M  V30 BEGIN ATOM
M  V30 1 C -0.454696 -1.517550 -3.057633 0
M  V30 2 C -1.217616 -1.495532 -1.737771 0
M  V30 3 C -1.349316 -0.085219 -1.125961 0
M  V30 4 N -0.090130 0.601442 -0.801532 0
M  V30 5 C 0.705996 0.105391 0.333384 0 CFG=1
M  V30 6 C 1.991846 -0.550324 -0.130395 0
M  V30 7 C 2.053754 -1.931051 -0.375535 0
M  V30 8 C 3.232901 -2.526503 -0.827950 0
M  V30 9 C 4.371000 -1.751675 -1.027734 0
M  V30 10 C 4.332285 -0.385525 -0.757379 0
M  V30 11 C 3.154262 0.212061 -0.302880 0
M  V30 12 O 3.256136 1.541872 -0.005441 0
M  V30 13 C 2.076004 2.195688 0.474066 0
M  V30 14 C 1.128518 1.274808 1.248259 0 CFG=1
M  V30 15 C -0.055669 2.053432 1.816674 0
M  V30 16 O 0.387142 2.994154 2.792863 0
M  V30 17 C -2.387639 0.044454 -0.018481 0
M  V30 18 C -3.114797 1.246664 0.095083 0
M  V30 19 C -4.073491 1.413274 1.096725 0
M  V30 20 C -4.311623 0.381305 1.994938 0
M  V30 21 F -5.229743 0.541841 2.956425 0
M  V30 22 C -3.607446 -0.809833 1.914785 0
M  V30 23 C -2.652593 -0.968007 0.914610 0
M  V30 24 F -1.969770 -2.120499 0.882944 0
M  V30 25 H -0.929476 -0.862367 -3.794912 0
M  V30 26 H 0.584027 -1.200125 -2.934910 0
M  V30 27 H -0.445620 -2.532885 -3.467065 0
M  V30 28 H -0.746957 -2.191940 -1.041979 0
M  V30 29 H -2.222173 -1.895710 -1.929729 0
M  V30 30 H -1.769049 0.510888 -1.950606 0
M  V30 31 H 0.502286 0.634884 -1.631935 0
M  V30 32 H 0.147060 -0.611028 0.945179 0
M  V30 33 H 1.186957 -2.561940 -0.201732 0
M  V30 34 H 3.263190 -3.596419 -1.018043 0
M  V30 35 H 5.291701 -2.210936 -1.376978 0
M  V30 36 H 5.226962 0.217970 -0.887651 0
M  V30 37 H 2.419880 3.009014 1.122992 0
M  V30 38 H 1.580240 2.670843 -0.380959 0
M  V30 39 H 1.697940 0.861797 2.094958 0
M  V30 40 H -0.771774 1.384046 2.303145 0
M  V30 41 H -0.580353 2.616600 1.039403 0
M  V30 42 H 0.739484 2.490865 3.547348 0
M  V30 43 H -2.925329 2.066118 -0.597013 0
M  V30 44 H -4.629710 2.341843 1.182962 0
M  V30 45 H -3.794599 -1.606187 2.625457 0
M  V30 END ATOM
M  V30 BEGIN BOND
M  V30 1 1 1 2
M  V30 2 1 2 3
M  V30 3 1 3 4
M  V30 4 1 4 5
M  V30 5 1 5 6
M  V30 6 2 6 7
M  V30 7 1 7 8
M  V30 8 2 8 9
M  V30 9 1 9 10
M  V30 10 2 10 11
M  V30 11 1 11 12
M  V30 12 1 12 13
M  V30 13 1 13 14
M  V30 14 1 14 15
M  V30 15 1 15 16
M  V30 16 1 3 17
M  V30 17 1 17 18
M  V30 18 2 18 19
M  V30 19 1 19 20
M  V30 20 1 20 21
M  V30 21 2 20 22
M  V30 22 1 22 23
M  V30 23 1 23 24
M  V30 24 1 14 5
M  V30 25 2 23 17
M  V30 26 1 11 6
M  V30 27 1 1 25
M  V30 28 1 1 26
M  V30 29 1 1 27
M  V30 30 1 2 28
M  V30 31 1 2 29
M  V30 32 1 3 30
M  V30 33 1 4 31
M  V30 34 1 5 32 CFG=1
M  V30 35 1 7 33
M  V30 36 1 8 34
M  V30 37 1 9 35
M  V30 38 1 10 36
M  V30 39 1 13 37
M  V30 40 1 13 38
M  V30 41 1 14 39 CFG=1
M  V30 42 1 15 40
M  V30 43 1 15 41
M  V30 44 1 16 42
M  V30 45 1 18 43
M  V30 46 1 19 44
M  V30 47 1 22 45
M  V30 END BOND
M  V30 BEGIN COLLECTION
M  V30 MDLV30/STERAC1 ATOMS=(2 5 14)
M  V30 END COLLECTION
M  V30 END CTAB
M  END
>  <_CXSMILES_Data>  (1355) 
|&1:4,13|

$$$$
OCNT-2318428
     RDKit          3D

 47 49  0  0  0  0  0  0  0  0999 V2000
   -3.1896   -3.6111   -2.2463 C   0  0  0  0  0  0  0  0  0  0  0  0
   -2.9809   -2.7023   -1.0485 C   0  0  0  0  0  0  0  0  0  0  0  0
   -2.5235   -1.3146   -1.4510 C   0  0  0  0  0  0  0  0  0  0  0  0
   -2.3577   -0.9575   -2.6101 O   0  0  0  0  0  0  0  0  0  0  0  0
   -2.2834   -0.4956   -0.3691 N   0  0  0  0  0  0  0  0  0  0  0  0
   -2.0567    0.9326   -0.5734 C   0  0  0  0  0  0  0  0  0  0  0  0
   -0.7028    1.3974   -1.2092 C   0  0  0  0  0  0  0  0  0  0  0  0
   -0.6886    2.4725   -1.8276 O   0  0  0  0  0  0  0  0  0  0  0  0
    0.4903    0.7129   -0.9707 N   0  0  0  0  0  0  0  0  0  0  0  0
    0.5934   -0.5678   -0.2881 C   0  0  0  0  0  0  0  0  0  0  0  0
    1.9823   -0.8448    0.2135 C   0  0  0  0  0  0  0  0  0  0  0  0
    3.0673   -0.0669    0.0114 C   0  0  0  0  0  0  0  0  0  0  0  0
    4.3144   -0.4865    0.5967 C   0  0  0  0  0  0  0  0  0  0  0  0
    4.8363   -1.7599    0.7749 C   0  0  0  0  0  0  0  0  0  0  0  0
    6.1167   -1.7638    1.4008 C   0  0  0  0  0  0  0  0  0  0  0  0
    6.5506   -0.4915    1.6853 C   0  0  0  0  0  0  0  0  0  0  0  0
    5.4231    0.6932    1.1983 S   0  0  0  0  0  0  0  0  0  0  0  0
    2.9031    1.1892   -0.8238 C   0  0  0  0  0  0  0  0  0  0  0  0
    1.6732    1.1241   -1.7236 C   0  0  0  0  0  0  0  0  0  0  0  0
   -2.3741    1.6733    0.7241 C   0  0  0  0  0  0  0  0  0  0  0  0
   -3.6998    2.0677    0.9803 C   0  0  0  0  0  0  0  0  0  0  0  0
   -4.0386    2.7081    2.1737 C   0  0  0  0  0  0  0  0  0  0  0  0
   -3.0603    2.9563    3.1325 C   0  0  0  0  0  0  0  0  0  0  0  0
   -1.7441    2.5654    2.8985 C   0  0  0  0  0  0  0  0  0  0  0  0
   -1.4025    1.9246    1.7051 C   0  0  0  0  0  0  0  0  0  0  0  0
   -3.9471   -3.2022   -2.9229 H   0  0  0  0  0  0  0  0  0  0  0  0
   -2.2614   -3.7304   -2.8151 H   0  0  0  0  0  0  0  0  0  0  0  0
   -3.5207   -4.6018   -1.9205 H   0  0  0  0  0  0  0  0  0  0  0  0
   -2.2269   -3.1388   -0.3842 H   0  0  0  0  0  0  0  0  0  0  0  0
   -3.9199   -2.6097   -0.4917 H   0  0  0  0  0  0  0  0  0  0  0  0
   -2.6973   -0.7611    0.5154 H   0  0  0  0  0  0  0  0  0  0  0  0
   -2.8058    1.2424   -1.3182 H   0  0  0  0  0  0  0  0  0  0  0  0
   -0.0756   -0.5855    0.5739 H   0  0  0  0  0  0  0  0  0  0  0  0
    0.3016   -1.3544   -0.9908 H   0  0  0  0  0  0  0  0  0  0  0  0
    2.0590   -1.7498    0.8123 H   0  0  0  0  0  0  0  0  0  0  0  0
    4.3242   -2.6604    0.4583 H   0  0  0  0  0  0  0  0  0  0  0  0
    6.6902   -2.6553    1.6238 H   0  0  0  0  0  0  0  0  0  0  0  0
    7.4801   -0.1973    2.1531 H   0  0  0  0  0  0  0  0  0  0  0  0
    3.7865    1.3423   -1.4551 H   0  0  0  0  0  0  0  0  0  0  0  0
    2.8221    2.0516   -0.1502 H   0  0  0  0  0  0  0  0  0  0  0  0
    1.5331    2.0968   -2.2058 H   0  0  0  0  0  0  0  0  0  0  0  0
    1.8180    0.3900   -2.5269 H   0  0  0  0  0  0  0  0  0  0  0  0
   -4.4797    1.8852    0.2427 H   0  0  0  0  0  0  0  0  0  0  0  0
   -5.0653    3.0176    2.3527 H   0  0  0  0  0  0  0  0  0  0  0  0
   -3.3215    3.4604    4.0594 H   0  0  0  0  0  0  0  0  0  0  0  0
   -0.9779    2.7655    3.6436 H   0  0  0  0  0  0  0  0  0  0  0  0
   -0.3638    1.6401    1.5537 H   0  0  0  0  0  0  0  0  0  0  0  0
  1  2  1  0
  2  3  1  0
  3  4  2  0
  3  5  1  0
  5  6  1  0
  6  7  1  0
  7  8  2  0
  7  9  1  0
  9 10  1  0
 10 11  1  0
 11 12  2  0
 12 13  1  0
 13 14  2  0
 14 15  1  0
 15 16  2  0
 16 17  1  0
 12 18  1  0
 18 19  1  0
  6 20  1  0
 20 21  2  0
 21 22  1  0
 22 23  2  0
 23 24  1  0
 24 25  2  0
 19  9  1  0
 25 20  1  0
 17 13  1  0
  1 26  1  0
  1 27  1  0
  1 28  1  0
  2 29  1  0
  2 30  1  0
  5 31  1  0
  6 32  1  0
 10 33  1  0
 10 34  1  0
 11 35  1  0
 14 36  1  0
 15 37  1  0
 16 38  1  0
 18 39  1  0
 18 40  1  0
 19 41  1  0
 19 42  1  0
 21 43  1  0
 22 44  1  0
 23 45  1  0
 24 46  1  0
 25 47  1  0
M  END
$$$$
OCNT-2318429
     RDKit          3D

 42 45  0  0  0  0  0  0  0  0999 V2000
    6.8299    0.5058    2.1033 C   0  0  0  0  0  0  0  0  0  0  0  0
    6.3505    0.5299    0.6621 C   0  0  0  0  0  0  0  0  0  0  0  0
    6.4075   -0.7494    0.1878 F   0  0  0  0  0  0  0  0  0  0  0  0
    7.2692    1.2242   -0.0713 F   0  0  0  0  0  0  0  0  0  0  0  0
    4.9644    1.1209    0.5498 C   0  0  0  0  0  0  0  0  0  0  0  0
    4.7924    2.5045    0.4271 C   0  0  0  0  0  0  0  0  0  0  0  0
    3.5127    3.0447    0.3313 C   0  0  0  0  0  0  0  0  0  0  0  0
    2.3912    2.2111    0.3530 C   0  0  0  0  0  0  0  0  0  0  0  0
    2.5378    0.8295    0.4644 C   0  0  0  0  0  0  0  0  0  0  0  0
    1.4558   -0.0729    0.4952 N   0  0  0  0  0  0  0  0  0  0  0  0
    0.1264    0.2043    0.2445 C   0  0  0  0  0  0  0  0  0  0  0  0
   -0.3389    1.2681   -0.1386 O   0  0  0  0  0  0  0  0  0  0  0  0
   -0.6583   -0.9170    0.4722 N   0  0  0  0  0  0  0  0  0  0  0  0
   -2.0839   -0.8660    0.3033 C   0  0  0  0  0  0  0  0  0  0  0  0
   -2.8920   -2.1412    0.2680 C   0  0  0  0  0  0  0  0  0  0  0  0
   -4.3665   -2.1737    0.6485 C   0  0  0  0  0  0  0  0  0  0  0  0
   -5.0341   -1.3658   -0.4399 C   0  0  0  0  0  0  0  0  0  0  0  0
   -6.3857   -1.0870   -0.5662 C   0  0  0  0  0  0  0  0  0  0  0  0
   -6.7854   -0.2964   -1.6371 C   0  0  0  0  0  0  0  0  0  0  0  0
   -8.0849   -0.0055   -1.7832 F   0  0  0  0  0  0  0  0  0  0  0  0
   -5.8634    0.2040   -2.5622 C   0  0  0  0  0  0  0  0  0  0  0  0
   -4.5029   -0.0855   -2.4281 C   0  0  0  0  0  0  0  0  0  0  0  0
   -4.0886   -0.8765   -1.3644 C   0  0  0  0  0  0  0  0  0  0  0  0
   -2.7073   -1.3153   -0.9959 C   0  0  0  0  0  0  0  0  0  0  0  0
    3.8277    0.2931    0.5706 C   0  0  0  0  0  0  0  0  0  0  0  0
    7.8315    0.0679    2.1548 H   0  0  0  0  0  0  0  0  0  0  0  0
    6.1719   -0.0970    2.7382 H   0  0  0  0  0  0  0  0  0  0  0  0
    6.8873    1.5143    2.5258 H   0  0  0  0  0  0  0  0  0  0  0  0
    5.6565    3.1669    0.3970 H   0  0  0  0  0  0  0  0  0  0  0  0
    3.3816    4.1186    0.2322 H   0  0  0  0  0  0  0  0  0  0  0  0
    1.4125    2.6749    0.2799 H   0  0  0  0  0  0  0  0  0  0  0  0
    1.6890   -1.0527    0.5431 H   0  0  0  0  0  0  0  0  0  0  0  0
   -0.3111   -1.5548    1.1731 H   0  0  0  0  0  0  0  0  0  0  0  0
   -2.5303    0.0054    0.7829 H   0  0  0  0  0  0  0  0  0  0  0  0
   -2.3946   -3.0965    0.3480 H   0  0  0  0  0  0  0  0  0  0  0  0
   -4.7396   -3.2026    0.6360 H   0  0  0  0  0  0  0  0  0  0  0  0
   -4.5264   -1.7219    1.6318 H   0  0  0  0  0  0  0  0  0  0  0  0
   -7.1182   -1.4571    0.1431 H   0  0  0  0  0  0  0  0  0  0  0  0
   -6.2126    0.8294   -3.3768 H   0  0  0  0  0  0  0  0  0  0  0  0
   -3.7802    0.3105   -3.1345 H   0  0  0  0  0  0  0  0  0  0  0  0
   -2.0567   -1.7112   -1.7677 H   0  0  0  0  0  0  0  0  0  0  0  0
    3.9657   -0.7819    0.6567 H   0  0  0  0  0  0  0  0  0  0  0  0
  1  2  1  0
  2  3  1  0
  2  4  1  0
  2  5  1  0
  5  6  2  0
  6  7  1  0
  7  8  2  0
  8  9  1  0
  9 10  1  0
 10 11  1  0
 11 12  2  0
 11 13  1  0
 13 14  1  0
 14 15  1  0
 15 16  1  0
 16 17  1  0
 17 18  1  0
 18 19  2  0
 19 20  1  0
 19 21  1  0
 21 22  2  0
 22 23  1  0
 23 24  1  0
  9 25  2  0
 25  5  1  0
 24 14  1  0
 24 15  1  0
 23 17  2  0
  1 26  1  0
  1 27  1  0
  1 28  1  0
  6 29  1  0
  7 30  1  0
  8 31  1  0
 10 32  1  0
 13 33  1  0
 14 34  1  0
 15 35  1  0
 16 36  1  0
 16 37  1  0
 18 38  1  0
 21 39  1  0
 22 40  1  0
 24 41  1  0
 25 42  1  0
M  END
$$$$
OCNT-2318445
     RDKit          3D

 45 47  0  0  0  0  0  0  0  0999 V2000
    4.2906    0.6945    1.1016 C   0  0  0  0  0  0  0  0  0  0  0  0
    3.6473   -0.5091    0.4042 C   0  0  0  0  0  0  0  0  0  0  0  0
    3.8011   -1.7395    1.3120 C   0  0  0  0  0  0  0  0  0  0  0  0
    4.3069   -0.8136   -0.9452 C   0  0  0  0  0  0  0  0  0  0  0  0
    2.2136   -0.3364    0.2655 O   0  0  0  0  0  0  0  0  0  0  0  0
    1.6934    0.6764   -0.4849 C   0  0  0  0  0  0  0  0  0  0  0  0
    2.3796    1.4947   -1.0823 O   0  0  0  0  0  0  0  0  0  0  0  0
    0.3154    0.6383   -0.4678 N   0  0  0  0  0  0  0  0  0  0  0  0
   -0.4702   -0.3623    0.2632 C   0  0  0  0  0  0  0  0  0  0  0  0
   -1.9758   -0.0530    0.0233 C   0  0  0  0  0  0  0  0  0  0  0  0
   -2.6842   -1.2239   -0.6832 C   0  0  0  0  0  0  0  0  0  0  0  0
   -2.8773   -2.4172    0.2523 C   0  0  0  0  0  0  0  0  0  0  0  0
   -3.5915   -2.0281    1.4657 N   0  0  0  0  0  0  0  0  0  0  0  0
   -2.8928   -0.9791    2.2041 C   0  0  0  0  0  0  0  0  0  0  0  0
   -2.7004    0.2694    1.3436 C   0  0  0  0  0  0  0  0  0  0  0  0
   -1.8827    1.1637   -0.8724 C   0  0  0  0  0  0  0  0  0  0  0  0
   -0.5554    1.5185   -1.1233 C   0  0  0  0  0  0  0  0  0  0  0  0
   -0.2469    2.6072   -1.9230 C   0  0  0  0  0  0  0  0  0  0  0  0
   -1.2942    3.3484   -2.4775 C   0  0  0  0  0  0  0  0  0  0  0  0
   -2.6269    2.9961   -2.2285 C   0  0  0  0  0  0  0  0  0  0  0  0
   -2.9285    1.8980   -1.4219 C   0  0  0  0  0  0  0  0  0  0  0  0
    5.3356    0.4928    1.3607 H   0  0  0  0  0  0  0  0  0  0  0  0
    4.2780    1.5887    0.4714 H   0  0  0  0  0  0  0  0  0  0  0  0
    3.7469    0.9486    2.0184 H   0  0  0  0  0  0  0  0  0  0  0  0
    4.8532   -1.9799    1.4976 H   0  0  0  0  0  0  0  0  0  0  0  0
    3.3079   -1.5755    2.2773 H   0  0  0  0  0  0  0  0  0  0  0  0
    3.3191   -2.6166    0.8644 H   0  0  0  0  0  0  0  0  0  0  0  0
    4.2947    0.0531   -1.6127 H   0  0  0  0  0  0  0  0  0  0  0  0
    3.7747   -1.6181   -1.4651 H   0  0  0  0  0  0  0  0  0  0  0  0
    5.3530   -1.1129   -0.8185 H   0  0  0  0  0  0  0  0  0  0  0  0
   -0.1879   -0.3038    1.3211 H   0  0  0  0  0  0  0  0  0  0  0  0
   -0.1765   -1.3532   -0.1031 H   0  0  0  0  0  0  0  0  0  0  0  0
   -3.6698   -0.9031   -1.0477 H   0  0  0  0  0  0  0  0  0  0  0  0
   -2.1219   -1.5409   -1.5710 H   0  0  0  0  0  0  0  0  0  0  0  0
   -3.4597   -3.1856   -0.2679 H   0  0  0  0  0  0  0  0  0  0  0  0
   -1.9140   -2.8723    0.5103 H   0  0  0  0  0  0  0  0  0  0  0  0
   -3.7146   -2.8440    2.0659 H   0  0  0  0  0  0  0  0  0  0  0  0
   -3.4865   -0.7143    3.0861 H   0  0  0  0  0  0  0  0  0  0  0  0
   -1.9305   -1.3530    2.5722 H   0  0  0  0  0  0  0  0  0  0  0  0
   -2.1497    1.0277    1.9151 H   0  0  0  0  0  0  0  0  0  0  0  0
   -3.6872    0.7051    1.1349 H   0  0  0  0  0  0  0  0  0  0  0  0
    0.7781    2.8965   -2.1280 H   0  0  0  0  0  0  0  0  0  0  0  0
   -1.0705    4.2060   -3.1076 H   0  0  0  0  0  0  0  0  0  0  0  0
   -3.4304    3.5828   -2.6672 H   0  0  0  0  0  0  0  0  0  0  0  0
   -3.9632    1.6290   -1.2319 H   0  0  0  0  0  0  0  0  0  0  0  0
  1  2  1  0
  2  3  1  0
  2  4  1  0
  2  5  1  0
  5  6  1  0
  6  7  2  0
  6  8  1  0
  8  9  1  0
  9 10  1  0
 10 11  1  0
 11 12  1  0
 12 13  1  0
 13 14  1  0
 14 15  1  0
 10 16  1  0
 16 17  1  0
 17 18  2  0
 18 19  1  0
 19 20  2  0
 20 21  1  0
 17  8  1  0
 15 10  1  0
 21 16  2  0
  1 22  1  0
  1 23  1  0
  1 24  1  0
  3 25  1  0
  3 26  1  0
  3 27  1  0
  4 28  1  0
  4 29  1  0
  4 30  1  0
  9 31  1  0
  9 32  1  0
 11 33  1  0
 11 34  1  0
 12 35  1  0
 12 36  1  0
 13 37  1  0
 14 38  1  0
 14 39  1  0
 15 40  1  0
 15 41  1  0
 18 42  1  0
 19 43  1  0
 20 44  1  0
 21 45  1  0
M  END
$$$$
OCNT-2318446
     RDKit          3D

  0  0  0  0  0  0  0  0  0  0999 V3000
M  V30 BEGIN CTAB
M  V30 COUNTS 46 49 0 0 0
M  V30 BEGIN ATOM
M  V30 1 C -6.527863 1.379845 -2.161372 0
M  V30 2 C -6.074961 0.142033 -1.475476 0
M  V30 3 C -6.806154 -1.019666 -1.297224 0
M  V30 4 N -6.028493 -1.919297 -0.614674 0
M  V30 5 C -4.807653 -1.366849 -0.346826 0
M  V30 6 N -3.817671 -1.993496 0.316661 0
M  V30 7 C -2.710749 -1.221388 0.454764 0
M  V30 8 C -2.552305 0.071287 -0.036946 0
M  V30 9 C -1.298083 0.833698 0.155828 0
M  V30 10 O -1.323227 2.059295 0.205081 0
M  V30 11 N -0.128018 0.099130 0.241306 0
M  V30 12 C 1.161833 0.774832 0.233108 0 CFG=2
M  V30 13 C 2.321112 -0.204278 0.387911 0
M  V30 14 C 3.481278 0.714093 0.772995 0
M  V30 15 C 4.697811 -0.013423 1.343499 0
M  V30 16 N 5.333887 -0.890891 0.382250 0
M  V30 17 C 5.224210 -2.251809 0.330135 0
M  V30 18 C 6.004589 -2.627557 -0.738474 0
M  V30 19 N 6.584055 -1.532950 -1.326134 0
M  V30 20 C 6.170159 -0.502094 -0.624336 0
M  V30 21 C 2.847374 1.675431 1.785828 0
M  V30 22 C 1.366523 1.765686 1.402084 0 CFG=1
M  V30 23 O 1.046562 3.092509 1.005595 0
M  V30 24 C -3.623064 0.675575 -0.704981 0
M  V30 25 C -4.797995 -0.078008 -0.870789 0
M  V30 26 H -6.501285 2.229868 -1.472121 0
M  V30 27 H -5.878472 1.603512 -3.013768 0
M  V30 28 H -7.552332 1.276548 -2.533303 0
M  V30 29 H -7.813051 -1.280734 -1.596055 0
M  V30 30 H -6.294133 -2.852372 -0.336197 0
M  V30 31 H -1.919394 -1.704511 1.022655 0
M  V30 32 H -0.146361 -0.835259 -0.149666 0
M  V30 33 H 1.237633 1.304174 -0.726158 0
M  V30 34 H 2.511234 -0.753547 -0.539928 0
M  V30 35 H 2.116261 -0.937643 1.178381 0
M  V30 36 H 3.780910 1.289572 -0.114198 0
M  V30 37 H 4.424476 -0.618788 2.216076 0
M  V30 38 H 5.457254 0.706566 1.671319 0
M  V30 39 H 4.626388 -2.822787 1.026141 0
M  V30 40 H 6.182066 -3.626764 -1.114668 0
M  V30 41 H 6.439291 0.530945 -0.803901 0
M  V30 42 H 3.351723 2.647521 1.781479 0
M  V30 43 H 2.928570 1.263219 2.799266 0
M  V30 44 H 0.744104 1.513908 2.268846 0
M  V30 45 H 0.110373 3.055427 0.701465 0
M  V30 46 H -3.548413 1.689669 -1.085475 0
M  V30 END ATOM
M  V30 BEGIN BOND
M  V30 1 1 1 2
M  V30 2 2 2 3
M  V30 3 1 3 4
M  V30 4 1 4 5
M  V30 5 1 5 6
M  V30 6 2 6 7
M  V30 7 1 7 8
M  V30 8 1 8 9
M  V30 9 2 9 10
M  V30 10 1 9 11
M  V30 11 1 11 12
M  V30 12 1 12 13
M  V30 13 1 13 14
M  V30 14 1 14 15
M  V30 15 1 15 16
M  V30 16 1 16 17
M  V30 17 2 17 18
M  V30 18 1 18 19
M  V30 19 2 19 20
M  V30 20 1 14 21
M  V30 21 1 21 22
M  V30 22 1 22 23
M  V30 23 2 8 24
M  V30 24 1 24 25
M  V30 25 1 25 2
M  V30 26 2 25 5
M  V30 27 1 22 12
M  V30 28 1 20 16
M  V30 29 1 1 26
M  V30 30 1 1 27
M  V30 31 1 1 28
M  V30 32 1 3 29
M  V30 33 1 4 30
M  V30 34 1 7 31
M  V30 35 1 11 32
M  V30 36 1 12 33 CFG=3
M  V30 37 1 13 34
M  V30 38 1 13 35
M  V30 39 1 14 36
M  V30 40 1 15 37
M  V30 41 1 15 38
M  V30 42 1 17 39
M  V30 43 1 18 40
M  V30 44 1 20 41
M  V30 45 1 21 42
M  V30 46 1 21 43
M  V30 47 1 22 44 CFG=1
M  V30 48 1 23 45
M  V30 49 1 24 46
M  V30 END BOND
M  V30 BEGIN COLLECTION
M  V30 MDLV30/STERAC1 ATOMS=(2 12 22)
M  V30 END COLLECTION
M  V30 END CTAB
M  END
>  <_CXSMILES_Data>  (1359) 
|&1:11,21|

$$$$
OCNT-2318453
     RDKit          3D

 35 37  0  0  0  0  0  0  0  0999 V2000
   -0.6285    0.0359   -3.0915 O   0  0  0  0  0  0  0  0  0  0  0  0
   -0.3163   -0.0296   -1.9056 C   0  0  0  0  0  0  0  0  0  0  0  0
   -1.1976   -0.4033   -0.9245 N   0  0  0  0  0  0  0  0  0  0  0  0
   -2.5129   -0.9067   -1.2414 C   0  0  0  0  0  0  0  0  0  0  0  0
   -3.4290   -0.8411   -0.0517 C   0  0  0  0  0  0  0  0  0  0  0  0
   -3.6684    0.3758    0.6053 C   0  0  0  0  0  0  0  0  0  0  0  0
   -4.5311    0.4225    1.6990 C   0  0  0  0  0  0  0  0  0  0  0  0
   -4.7362    1.6004    2.3061 F   0  0  0  0  0  0  0  0  0  0  0  0
   -5.1701   -0.7316    2.1497 C   0  0  0  0  0  0  0  0  0  0  0  0
   -6.2371   -0.6751    3.4991 Cl  0  0  0  0  0  0  0  0  0  0  0  0
   -4.9492   -1.9442    1.5022 C   0  0  0  0  0  0  0  0  0  0  0  0
   -4.0861   -1.9869    0.4095 C   0  0  0  0  0  0  0  0  0  0  0  0
   -3.8913   -3.1618   -0.2052 F   0  0  0  0  0  0  0  0  0  0  0  0
    1.0615    0.2918   -1.4364 C   0  0  0  0  0  0  0  0  0  0  0  0
    1.9544    0.7450   -2.3326 C   0  0  0  0  0  0  0  0  0  0  0  0
    3.2515    1.0903   -2.0536 N   0  0  0  0  0  0  0  0  0  0  0  0
    3.7748    0.9351   -0.7653 C   0  0  0  0  0  0  0  0  0  0  0  0
    5.0999    1.2721   -0.4785 C   0  0  0  0  0  0  0  0  0  0  0  0
    5.5960    1.1384    0.8218 C   0  0  0  0  0  0  0  0  0  0  0  0
    4.7702    0.6755    1.8472 C   0  0  0  0  0  0  0  0  0  0  0  0
    3.4423    0.3468    1.5778 C   0  0  0  0  0  0  0  0  0  0  0  0
    2.9478    0.4811    0.2759 C   0  0  0  0  0  0  0  0  0  0  0  0
    1.5332    0.1372   -0.0292 C   0  0  0  0  0  0  0  0  0  0  0  0
    0.7847   -0.2717    0.8565 O   0  0  0  0  0  0  0  0  0  0  0  0
   -0.8245   -0.5637    0.0124 H   0  0  0  0  0  0  0  0  0  0  0  0
   -2.3832   -1.9359   -1.5938 H   0  0  0  0  0  0  0  0  0  0  0  0
   -2.9424   -0.3302   -2.0690 H   0  0  0  0  0  0  0  0  0  0  0  0
   -3.1856    1.2920    0.2739 H   0  0  0  0  0  0  0  0  0  0  0  0
   -5.4379   -2.8553    1.8322 H   0  0  0  0  0  0  0  0  0  0  0  0
    1.6913    0.8761   -3.3806 H   0  0  0  0  0  0  0  0  0  0  0  0
    3.8738    1.3147   -2.8219 H   0  0  0  0  0  0  0  0  0  0  0  0
    5.7573    1.6422   -1.2607 H   0  0  0  0  0  0  0  0  0  0  0  0
    6.6299    1.3997    1.0363 H   0  0  0  0  0  0  0  0  0  0  0  0
    5.1606    0.5745    2.8573 H   0  0  0  0  0  0  0  0  0  0  0  0
    2.7982   -0.0097    2.3784 H   0  0  0  0  0  0  0  0  0  0  0  0
  1  2  2  0
  2  3  1  0
  3  4  1  0
  4  5  1  0
  5  6  2  0
  6  7  1  0
  7  8  1  0
  7  9  2  0
  9 10  1  0
  9 11  1  0
 11 12  2  0
 12 13  1  0
  2 14  1  0
 14 15  2  0
 15 16  1  0
 16 17  1  0
 17 18  2  0
 18 19  1  0
 19 20  2  0
 20 21  1  0
 21 22  2  0
 22 23  1  0
 23 24  2  0
 12  5  1  0
 23 14  1  0
 22 17  1  0
  3 25  1  0
  4 26  1  0
  4 27  1  0
  6 28  1  0
 11 29  1  0
 15 30  1  0
 16 31  1  0
 18 32  1  0
 19 33  1  0
 20 34  1  0
 21 35  1  0
M  END
$$$$
OCNT-2318479
     RDKit          3D

 44 47  0  0  0  0  0  0  0  0999 V2000
    0.8712    2.7946   -2.4701 C   0  0  0  0  0  0  0  0  0  0  0  0
   -0.0064    2.9651   -1.2573 C   0  0  0  0  0  0  0  0  0  0  0  0
   -0.5191    4.2534   -1.0102 C   0  0  0  0  0  0  0  0  0  0  0  0
   -1.3604    4.4886    0.0702 C   0  0  0  0  0  0  0  0  0  0  0  0
   -1.8386    5.7217    0.2793 F   0  0  0  0  0  0  0  0  0  0  0  0
   -1.7035    3.4650    0.9370 C   0  0  0  0  0  0  0  0  0  0  0  0
   -1.1968    2.1820    0.7219 C   0  0  0  0  0  0  0  0  0  0  0  0
   -0.3549    1.9126   -0.3737 C   0  0  0  0  0  0  0  0  0  0  0  0
    0.1742    0.5968   -0.5277 N   0  0  0  0  0  0  0  0  0  0  0  0
    1.4305    0.4133   -1.0170 N   0  0  0  0  0  0  0  0  0  0  0  0
    1.6516   -0.8876   -0.8122 C   0  0  0  0  0  0  0  0  0  0  0  0
    2.9395   -1.5471   -1.1447 C   0  0  0  0  0  0  0  0  0  0  0  0
    3.8725   -1.4498   -0.0394 N   0  0  0  0  0  0  0  0  0  0  0  0
    4.3457   -0.3216    0.5617 C   0  0  0  0  0  0  0  0  0  0  0  0
    5.2384   -0.6459    1.4687 N   0  0  0  0  0  0  0  0  0  0  0  0
    5.2949   -2.0062    1.3707 C   0  0  0  0  0  0  0  0  0  0  0  0
    4.4943   -2.5465    0.4485 N   0  0  0  0  0  0  0  0  0  0  0  0
    0.5793   -1.5704   -0.3216 N   0  0  0  0  0  0  0  0  0  0  0  0
   -0.3563   -0.6466   -0.1905 C   0  0  0  0  0  0  0  0  0  0  0  0
   -1.7838   -0.9392    0.1543 C   0  0  0  0  0  0  0  0  0  0  0  0
   -2.3783   -2.0212   -0.7614 C   0  0  0  0  0  0  0  0  0  0  0  0
   -3.4215   -2.6984    0.1113 C   0  0  0  0  0  0  0  0  0  0  0  0
   -2.7148   -2.8129    1.4534 C   0  0  0  0  0  0  0  0  0  0  0  0
   -1.9224   -1.5101    1.5828 C   0  0  0  0  0  0  0  0  0  0  0  0
   -2.6506   -0.5814    2.3884 O   0  0  0  0  0  0  0  0  0  0  0  0
    0.5818    1.9070   -3.0417 H   0  0  0  0  0  0  0  0  0  0  0  0
    1.9234    2.7331   -2.1767 H   0  0  0  0  0  0  0  0  0  0  0  0
    0.7700    3.6447   -3.1544 H   0  0  0  0  0  0  0  0  0  0  0  0
   -0.2732    5.0881   -1.6620 H   0  0  0  0  0  0  0  0  0  0  0  0
   -2.3467    3.6714    1.7870 H   0  0  0  0  0  0  0  0  0  0  0  0
   -1.4339    1.4250    1.4644 H   0  0  0  0  0  0  0  0  0  0  0  0
    2.7809   -2.6077   -1.3678 H   0  0  0  0  0  0  0  0  0  0  0  0
    3.4176   -1.0811   -2.0130 H   0  0  0  0  0  0  0  0  0  0  0  0
    4.0160    0.6773    0.3085 H   0  0  0  0  0  0  0  0  0  0  0  0
    5.9427   -2.6191    1.9844 H   0  0  0  0  0  0  0  0  0  0  0  0
   -2.4088   -0.0478    0.0388 H   0  0  0  0  0  0  0  0  0  0  0  0
   -1.6277   -2.7565   -1.0767 H   0  0  0  0  0  0  0  0  0  0  0  0
   -2.8182   -1.5919   -1.6677 H   0  0  0  0  0  0  0  0  0  0  0  0
   -4.3138   -2.0678    0.2010 H   0  0  0  0  0  0  0  0  0  0  0  0
   -3.7253   -3.6723   -0.2827 H   0  0  0  0  0  0  0  0  0  0  0  0
   -2.0214   -3.6620    1.4212 H   0  0  0  0  0  0  0  0  0  0  0  0
   -3.4251   -2.9751    2.2695 H   0  0  0  0  0  0  0  0  0  0  0  0
   -0.9613   -1.6849    2.0789 H   0  0  0  0  0  0  0  0  0  0  0  0
   -2.7616   -0.9888    3.2664 H   0  0  0  0  0  0  0  0  0  0  0  0
  1  2  1  0
  2  3  1  0
  3  4  2  0
  4  5  1  0
  4  6  1  0
  6  7  2  0
  7  8  1  0
  8  9  1  0
  9 10  1  0
 10 11  2  0
 11 12  1  0
 12 13  1  0
 13 14  1  0
 14 15  2  0
 15 16  1  0
 16 17  2  0
 11 18  1  0
 18 19  2  0
 19 20  1  0
 20 21  1  0
 21 22  1  0
 22 23  1  0
 23 24  1  0
 24 25  1  0
  8  2  2  0
 19  9  1  0
 24 20  1  0
 17 13  1  0
  1 26  1  0
  1 27  1  0
  1 28  1  0
  3 29  1  0
  6 30  1  0
  7 31  1  0
 12 32  1  0
 12 33  1  0
 14 34  1  0
 16 35  1  0
 20 36  1  0
 21 37  1  0
 21 38  1  0
 22 39  1  0
 22 40  1  0
 23 41  1  0
 23 42  1  0
 24 43  1  0
 25 44  1  0
M  END
$$$$
OCNT-2318486
     RDKit          3D

 44 46  0  0  0  0  0  0  0  0999 V2000
    3.5999    1.3072   -0.6775 O   0  0  0  0  0  0  0  0  0  0  0  0
    3.2835    0.7506    0.3726 C   0  0  0  0  0  0  0  0  0  0  0  0
    4.3013    0.5361    1.4843 C   0  0  0  0  0  0  0  0  0  0  0  0
    5.4611   -0.3413    1.0645 C   0  0  0  0  0  0  0  0  0  0  0  0
    6.4946    0.1878    0.2737 C   0  0  0  0  0  0  0  0  0  0  0  0
    7.5727   -0.6089   -0.1153 C   0  0  0  0  0  0  0  0  0  0  0  0
    7.6205   -1.9437    0.2813 C   0  0  0  0  0  0  0  0  0  0  0  0
    9.0828   -3.0247   -0.2416 Br  0  0  0  0  0  0  0  0  0  0  0  0
    6.5978   -2.4882    1.0586 C   0  0  0  0  0  0  0  0  0  0  0  0
    5.5181   -1.6903    1.4459 C   0  0  0  0  0  0  0  0  0  0  0  0
    2.0187    0.2839    0.6998 N   0  0  0  0  0  0  0  0  0  0  0  0
    0.8591    0.3166   -0.1061 C   0  0  0  0  0  0  0  0  0  0  0  0
    0.8319    0.7686   -1.4267 C   0  0  0  0  0  0  0  0  0  0  0  0
   -0.3597    0.7576   -2.1630 C   0  0  0  0  0  0  0  0  0  0  0  0
   -1.5408    0.3029   -1.5825 C   0  0  0  0  0  0  0  0  0  0  0  0
   -1.5270   -0.1395   -0.2567 C   0  0  0  0  0  0  0  0  0  0  0  0
   -2.7557   -0.6442    0.4092 C   0  0  0  0  0  0  0  0  0  0  0  0
   -2.6796   -1.5350    1.2474 O   0  0  0  0  0  0  0  0  0  0  0  0
   -3.9335   -0.0273    0.0474 N   0  0  0  0  0  0  0  0  0  0  0  0
   -5.1372   -0.3002    0.7889 C   0  0  0  0  0  0  0  0  0  0  0  0
   -6.2415    0.4328    0.1220 C   0  0  0  0  0  0  0  0  0  0  0  0
   -6.7499    1.6976    0.3485 C   0  0  0  0  0  0  0  0  0  0  0  0
   -7.8039    1.9035   -0.5761 C   0  0  0  0  0  0  0  0  0  0  0  0
   -7.9235    0.7553   -1.3265 C   0  0  0  0  0  0  0  0  0  0  0  0
   -6.9715   -0.1309   -0.8988 N   0  0  0  0  0  0  0  0  0  0  0  0
   -0.3283   -0.1469    0.4722 C   0  0  0  0  0  0  0  0  0  0  0  0
    4.6751    1.5230    1.7909 H   0  0  0  0  0  0  0  0  0  0  0  0
    3.8215    0.1147    2.3775 H   0  0  0  0  0  0  0  0  0  0  0  0
    6.4568    1.2263   -0.0536 H   0  0  0  0  0  0  0  0  0  0  0  0
    8.3619   -0.1803   -0.7295 H   0  0  0  0  0  0  0  0  0  0  0  0
    6.6323   -3.5305    1.3657 H   0  0  0  0  0  0  0  0  0  0  0  0
    4.7280   -2.1320    2.0489 H   0  0  0  0  0  0  0  0  0  0  0  0
    1.8975   -0.1137    1.6258 H   0  0  0  0  0  0  0  0  0  0  0  0
    1.7282    1.1239   -1.9248 H   0  0  0  0  0  0  0  0  0  0  0  0
   -0.3550    1.0955   -3.1977 H   0  0  0  0  0  0  0  0  0  0  0  0
   -2.4512    0.2736   -2.1770 H   0  0  0  0  0  0  0  0  0  0  0  0
   -3.8800    0.8724   -0.4173 H   0  0  0  0  0  0  0  0  0  0  0  0
   -5.3159   -1.3841    0.8088 H   0  0  0  0  0  0  0  0  0  0  0  0
   -4.9963    0.0422    1.8224 H   0  0  0  0  0  0  0  0  0  0  0  0
   -6.3979    2.3894    1.1067 H   0  0  0  0  0  0  0  0  0  0  0  0
   -8.4184    2.7876   -0.6702 H   0  0  0  0  0  0  0  0  0  0  0  0
   -8.6075    0.4912   -2.1234 H   0  0  0  0  0  0  0  0  0  0  0  0
   -6.8280   -1.0658   -1.2644 H   0  0  0  0  0  0  0  0  0  0  0  0
   -0.3414   -0.5127    1.5026 H   0  0  0  0  0  0  0  0  0  0  0  0
  1  2  2  0
  2  3  1  0
  3  4  1  0
  4  5  1  0
  5  6  2  0
  6  7  1  0
  7  8  1  0
  7  9  2  0
  9 10  1  0
  2 11  1  0
 11 12  1  0
 12 13  2  0
 13 14  1  0
 14 15  2  0
 15 16  1  0
 16 17  1  0
 17 18  2  0
 17 19  1  0
 19 20  1  0
 20 21  1  0
 21 22  2  0
 22 23  1  0
 23 24  2  0
 24 25  1  0
 16 26  2  0
 10  4  2  0
 26 12  1  0
 25 21  1  0
  3 27  1  0
  3 28  1  0
  5 29  1  0
  6 30  1  0
  9 31  1  0
 10 32  1  0
 11 33  1  0
 13 34  1  0
 14 35  1  0
 15 36  1  0
 19 37  1  0
 20 38  1  0
 20 39  1  0
 22 40  1  0
 23 41  1  0
 24 42  1  0
 25 43  1  0
 26 44  1  0
M  END
$$$$
OCNT-2318494
     RDKit          3D

 36 38  0  0  0  0  0  0  0  0999 V2000
    6.3783   -0.6735   -0.4747 C   0  0  0  0  0  0  0  0  0  0  0  0
    4.9398   -0.3870   -0.1662 C   0  0  0  0  0  0  0  0  0  0  0  0
    4.6064    0.5664    0.7814 C   0  0  0  0  0  0  0  0  0  0  0  0
    3.2626    0.7923    1.0766 C   0  0  0  0  0  0  0  0  0  0  0  0
    2.9718    1.8480    1.9710 N   0  0  0  0  0  0  0  0  0  0  0  0
    2.2671    0.1125    0.3330 C   0  0  0  0  0  0  0  0  0  0  0  0
    0.8707    0.3227    0.4821 C   0  0  0  0  0  0  0  0  0  0  0  0
   -0.0690   -0.3937   -0.2702 C   0  0  0  0  0  0  0  0  0  0  0  0
   -1.4335   -0.1095   -0.0494 N   0  0  0  0  0  0  0  0  0  0  0  0
   -2.5225   -0.7465   -0.6179 C   0  0  0  0  0  0  0  0  0  0  0  0
   -2.5022   -1.7161   -1.3653 O   0  0  0  0  0  0  0  0  0  0  0  0
   -3.8486   -0.1920   -0.2237 C   0  0  0  0  0  0  0  0  0  0  0  0
   -4.0504    1.1845   -0.0506 C   0  0  0  0  0  0  0  0  0  0  0  0
   -5.3125    1.6632    0.3146 C   0  0  0  0  0  0  0  0  0  0  0  0
   -6.3693    0.7708    0.4971 C   0  0  0  0  0  0  0  0  0  0  0  0
   -7.9191    1.3658    0.9474 Cl  0  0  0  0  0  0  0  0  0  0  0  0
   -6.1801   -0.5974    0.3095 C   0  0  0  0  0  0  0  0  0  0  0  0
   -4.9208   -1.0789   -0.0569 C   0  0  0  0  0  0  0  0  0  0  0  0
    0.3925   -1.3261   -1.1895 C   0  0  0  0  0  0  0  0  0  0  0  0
    1.7672   -1.5342   -1.3493 C   0  0  0  0  0  0  0  0  0  0  0  0
    2.7108   -0.8346   -0.6137 C   0  0  0  0  0  0  0  0  0  0  0  0
    4.0082   -1.0844   -0.8507 N   0  0  0  0  0  0  0  0  0  0  0  0
    6.8703    0.2273   -0.8545 H   0  0  0  0  0  0  0  0  0  0  0  0
    6.4657   -1.4560   -1.2354 H   0  0  0  0  0  0  0  0  0  0  0  0
    6.8978   -1.0150    0.4260 H   0  0  0  0  0  0  0  0  0  0  0  0
    5.3817    1.1161    1.3057 H   0  0  0  0  0  0  0  0  0  0  0  0
    2.0619    1.7679    2.4099 H   0  0  0  0  0  0  0  0  0  0  0  0
    3.0600    2.7486    1.5035 H   0  0  0  0  0  0  0  0  0  0  0  0
    0.5174    1.0557    1.1997 H   0  0  0  0  0  0  0  0  0  0  0  0
   -1.6292    0.5891    0.6549 H   0  0  0  0  0  0  0  0  0  0  0  0
   -3.2492    1.8969   -0.2279 H   0  0  0  0  0  0  0  0  0  0  0  0
   -5.4695    2.7314    0.4431 H   0  0  0  0  0  0  0  0  0  0  0  0
   -7.0055   -1.2927    0.4403 H   0  0  0  0  0  0  0  0  0  0  0  0
   -4.7756   -2.1468   -0.2125 H   0  0  0  0  0  0  0  0  0  0  0  0
   -0.2819   -1.9092   -1.8087 H   0  0  0  0  0  0  0  0  0  0  0  0
    2.1086   -2.2655   -2.0792 H   0  0  0  0  0  0  0  0  0  0  0  0
  1  2  1  0
  2  3  1  0
  3  4  2  0
  4  5  1  0
  4  6  1  0
  6  7  2  0
  7  8  1  0
  8  9  1  0
  9 10  1  0
 10 11  2  0
 10 12  1  0
 12 13  1  0
 13 14  2  0
 14 15  1  0
 15 16  1  0
 15 17  2  0
 17 18  1  0
  8 19  2  0
 19 20  1  0
 20 21  2  0
 21 22  1  0
 22  2  2  0
 21  6  1  0
 18 12  2  0
  1 23  1  0
  1 24  1  0
  1 25  1  0
  3 26  1  0
  5 27  1  0
  5 28  1  0
  7 29  1  0
  9 30  1  0
 13 31  1  0
 14 32  1  0
 17 33  1  0
 18 34  1  0
 19 35  1  0
 20 36  1  0
M  END
$$$$
OCNT-2318495
     RDKit          3D

 48 51  0  0  0  0  0  0  0  0999 V2000
    3.3806    1.5507   -1.8220 C   0  0  0  0  0  0  0  0  0  0  0  0
    2.4270    0.3648   -1.7787 C   0  0  0  0  0  0  0  0  0  0  0  0
    1.3097    0.3540   -2.8601 C   0  0  0  0  0  0  0  0  0  0  0  0
    0.4374    1.0005   -1.8629 N   0  0  0  0  0  0  0  0  0  0  0  0
   -0.9770    0.6331   -1.9270 C   0  0  0  0  0  0  0  0  0  0  0  0
   -1.3350   -0.8115   -1.7753 C   0  0  0  0  0  0  0  0  0  0  0  0
   -1.4850   -1.7352   -2.7947 C   0  0  0  0  0  0  0  0  0  0  0  0
   -1.8154   -2.9134   -2.2045 N   0  0  0  0  0  0  0  0  0  0  0  0
   -2.0625   -4.1748   -2.8593 C   0  0  0  0  0  0  0  0  0  0  0  0
   -1.9118   -2.8358   -0.8710 N   0  0  0  0  0  0  0  0  0  0  0  0
   -1.6548   -1.5490   -0.5849 C   0  0  0  0  0  0  0  0  0  0  0  0
   -1.6743   -1.0935    0.8050 C   0  0  0  0  0  0  0  0  0  0  0  0
   -2.3604    0.0663    1.1838 C   0  0  0  0  0  0  0  0  0  0  0  0
   -2.3123    0.5183    2.5070 C   0  0  0  0  0  0  0  0  0  0  0  0
   -1.5915   -0.1972    3.4677 C   0  0  0  0  0  0  0  0  0  0  0  0
   -1.5180    0.2805    4.8171 C   0  0  0  0  0  0  0  0  0  0  0  0
   -1.4528    0.6622    5.9114 N   0  0  0  0  0  0  0  0  0  0  0  0
   -0.9392   -1.3795    3.1064 C   0  0  0  0  0  0  0  0  0  0  0  0
   -0.9837   -1.8252    1.7823 C   0  0  0  0  0  0  0  0  0  0  0  0
    1.2288    0.3791   -0.7711 C   0  0  0  0  0  0  0  0  0  0  0  0
    1.2997    1.2660    0.5431 C   0  0  0  0  0  0  0  0  0  0  0  0
    0.8450    2.5986    0.6283 C   0  0  0  0  0  0  0  0  0  0  0  0
    0.9002    3.3342    1.8170 C   0  0  0  0  0  0  0  0  0  0  0  0
    1.4218    2.7575    2.9685 C   0  0  0  0  0  0  0  0  0  0  0  0
    1.8942    1.4518    2.9268 C   0  0  0  0  0  0  0  0  0  0  0  0
    1.8342    0.7259    1.7331 C   0  0  0  0  0  0  0  0  0  0  0  0
    4.0403    1.4758   -2.6926 H   0  0  0  0  0  0  0  0  0  0  0  0
    2.8500    2.5060   -1.8857 H   0  0  0  0  0  0  0  0  0  0  0  0
    4.0105    1.5697   -0.9271 H   0  0  0  0  0  0  0  0  0  0  0  0
    3.0044   -0.5682   -1.7459 H   0  0  0  0  0  0  0  0  0  0  0  0
    1.0361   -0.6579   -3.1767 H   0  0  0  0  0  0  0  0  0  0  0  0
    1.5050    0.9542   -3.7539 H   0  0  0  0  0  0  0  0  0  0  0  0
   -1.5102    1.2272   -1.1795 H   0  0  0  0  0  0  0  0  0  0  0  0
   -1.3724    0.9880   -2.8884 H   0  0  0  0  0  0  0  0  0  0  0  0
   -1.3761   -1.6414   -3.8660 H   0  0  0  0  0  0  0  0  0  0  0  0
   -1.4161   -4.9323   -2.4082 H   0  0  0  0  0  0  0  0  0  0  0  0
   -3.1154   -4.4337   -2.7191 H   0  0  0  0  0  0  0  0  0  0  0  0
   -1.8379   -4.0819   -3.9247 H   0  0  0  0  0  0  0  0  0  0  0  0
   -2.9413    0.6292    0.4585 H   0  0  0  0  0  0  0  0  0  0  0  0
   -2.8339    1.4339    2.7771 H   0  0  0  0  0  0  0  0  0  0  0  0
   -0.3845   -1.9547    3.8448 H   0  0  0  0  0  0  0  0  0  0  0  0
   -0.4652   -2.7419    1.5069 H   0  0  0  0  0  0  0  0  0  0  0  0
    0.9567   -0.6566   -0.5262 H   0  0  0  0  0  0  0  0  0  0  0  0
    0.4372    3.0784   -0.2596 H   0  0  0  0  0  0  0  0  0  0  0  0
    0.5364    4.3579    1.8367 H   0  0  0  0  0  0  0  0  0  0  0  0
    1.4630    3.3246    3.8942 H   0  0  0  0  0  0  0  0  0  0  0  0
    2.3055    0.9933    3.8222 H   0  0  0  0  0  0  0  0  0  0  0  0
    2.2032   -0.2983    1.7276 H   0  0  0  0  0  0  0  0  0  0  0  0
  1  2  1  0
  2  3  1  0
  3  4  1  0
  4  5  1  0
  5  6  1  0
  6  7  2  0
  7  8  1  0
  8  9  1  0
  8 10  1  0
 10 11  2  0
 11 12  1  0
 12 13  1  0
 13 14  2  0
 14 15  1  0
 15 16  1  0
 16 17  3  0
 15 18  2  0
 18 19  1  0
  4 20  1  0
 20 21  1  0
 21 22  2  0
 22 23  1  0
 23 24  2  0
 24 25  1  0
 25 26  2  0
 20  2  1  0
 26 21  1  0
 11  6  1  0
 19 12  2  0
  1 27  1  0
  1 28  1  0
  1 29  1  0
  2 30  1  0
  3 31  1  0
  3 32  1  0
  5 33  1  0
  5 34  1  0
  7 35  1  0
  9 36  1  0
  9 37  1  0
  9 38  1  0
 13 39  1  0
 14 40  1  0
 18 41  1  0
 19 42  1  0
 20 43  1  0
 22 44  1  0
 23 45  1  0
 24 46  1  0
 25 47  1  0
 26 48  1  0
M  END
$$$$
OCNT-2318499
     RDKit          3D

  0  0  0  0  0  0  0  0  0  0999 V3000
M  V30 BEGIN CTAB
M  V30 COUNTS 56 58 0 0 0
M  V30 BEGIN ATOM
M  V30 1 C 0.214399 1.787869 -2.910714 0
M  V30 2 C 0.538775 1.972838 -1.418493 0
M  V30 3 N -0.543037 1.481939 -0.549149 0
M  V30 4 C -0.698379 0.031624 -0.515503 0
M  V30 5 C -1.979047 -0.256695 0.219514 0 CFG=1
M  V30 6 C -3.293895 -0.316982 -0.541009 0 CFG=2
M  V30 7 C -4.536843 0.353904 0.002320 0
M  V30 8 C -5.789811 -0.293025 -0.043408 0
M  V30 9 C -6.950201 0.328086 0.423723 0
M  V30 10 C -6.884570 1.623884 0.932732 0
M  V30 11 C -5.662611 2.292772 0.975185 0
M  V30 12 C -4.503548 1.664099 0.509575 0
M  V30 13 C -2.718221 -1.581813 0.101032 0
M  V30 14 C -3.305388 -2.134518 1.382783 0
M  V30 15 C -2.220052 -2.660503 -0.830063 0
M  V30 16 C 1.919421 1.483540 -0.986336 0
M  V30 17 C 2.585120 2.150037 0.058698 0
M  V30 18 C 3.856153 1.741466 0.481772 0
M  V30 19 C 4.461042 0.634225 -0.115376 0
M  V30 20 C 5.825682 0.241058 0.299898 0
M  V30 21 O 6.696687 1.107912 0.282942 0
M  V30 22 N 6.067485 -1.085790 0.659046 0
M  V30 23 C 5.041514 -2.000216 1.146504 0
M  V30 24 C 7.442388 -1.464769 0.929145 0
M  V30 25 C 3.817341 -0.041078 -1.155490 0
M  V30 26 C 2.552243 0.381261 -1.586792 0
M  V30 27 H 0.157204 0.738916 -3.215369 0
M  V30 28 H -0.747098 2.259085 -3.161113 0
M  V30 29 H 0.983499 2.264688 -3.531521 0
M  V30 30 H 0.547519 3.064382 -1.280327 0
M  V30 31 H -0.358184 1.801889 0.401128 0
M  V30 32 H -0.734489 -0.383798 -1.526021 0
M  V30 33 H 0.132436 -0.441512 0.021595 0
M  V30 34 H -1.972984 0.198858 1.206449 0
M  V30 35 H -3.205520 -0.238433 -1.627822 0
M  V30 36 H -5.855972 -1.297355 -0.462938 0
M  V30 37 H -7.904885 -0.188506 0.360922 0
M  V30 38 H -7.787145 2.114192 1.284819 0
M  V30 39 H -5.608079 3.310310 1.357973 0
M  V30 40 H -3.559049 2.207134 0.524302 0
M  V30 41 H -2.574607 -2.777542 1.889247 0
M  V30 42 H -3.590821 -1.345734 2.087150 0
M  V30 43 H -4.197488 -2.738251 1.167417 0
M  V30 44 H -1.349664 -3.162795 -0.395890 0
M  V30 45 H -3.004331 -3.413454 -0.989540 0
M  V30 46 H -1.937007 -2.273532 -1.815821 0
M  V30 47 H 2.124119 3.012878 0.537134 0
M  V30 48 H 4.377781 2.294059 1.258516 0
M  V30 49 H 4.036369 -1.580094 1.089747 0
M  V30 50 H 5.252085 -2.232722 2.198456 0
M  V30 51 H 5.085516 -2.918922 0.554248 0
M  V30 52 H 8.127913 -0.910412 0.283615 0
M  V30 53 H 7.572775 -2.535914 0.743904 0
M  V30 54 H 7.671825 -1.235433 1.974477 0
M  V30 55 H 4.307126 -0.876414 -1.648611 0
M  V30 56 H 2.078509 -0.156693 -2.404202 0
M  V30 END ATOM
M  V30 BEGIN BOND
M  V30 1 1 1 2
M  V30 2 1 2 3
M  V30 3 1 3 4
M  V30 4 1 4 5
M  V30 5 1 5 6
M  V30 6 1 6 7
M  V30 7 2 7 8
M  V30 8 1 8 9
M  V30 9 2 9 10
M  V30 10 1 10 11
M  V30 11 2 11 12
M  V30 12 1 6 13
M  V30 13 1 13 14
M  V30 14 1 13 15
M  V30 15 1 2 16
M  V30 16 1 16 17
M  V30 17 2 17 18
M  V30 18 1 18 19
M  V30 19 1 19 20
M  V30 20 2 20 21
M  V30 21 1 20 22
M  V30 22 1 22 23
M  V30 23 1 22 24
M  V30 24 2 19 25
M  V30 25 1 25 26
M  V30 26 1 13 5
M  V30 27 2 26 16
M  V30 28 1 12 7
M  V30 29 1 1 27
M  V30 30 1 1 28
M  V30 31 1 1 29
M  V30 32 1 2 30
M  V30 33 1 3 31
M  V30 34 1 4 32
M  V30 35 1 4 33
M  V30 36 1 5 34 CFG=1
M  V30 37 1 6 35 CFG=3
M  V30 38 1 8 36
M  V30 39 1 9 37
M  V30 40 1 10 38
M  V30 41 1 11 39
M  V30 42 1 12 40
M  V30 43 1 14 41
M  V30 44 1 14 42
M  V30 45 1 14 43
M  V30 46 1 15 44
M  V30 47 1 15 45
M  V30 48 1 15 46
M  V30 49 1 17 47
M  V30 50 1 18 48
M  V30 51 1 23 49
M  V30 52 1 23 50
M  V30 53 1 23 51
M  V30 54 1 24 52
M  V30 55 1 24 53
M  V30 56 1 24 54
M  V30 57 1 25 55
M  V30 58 1 26 56
M  V30 END BOND
M  V30 BEGIN COLLECTION
M  V30 MDLV30/STERAC1 ATOMS=(2 5 6)
M  V30 END COLLECTION
M  V30 END CTAB
M  END
>  <_CXSMILES_Data>  (1365) 
|&1:4,5|

$$$$
OCNT-2318507
     RDKit          3D

 42 44  0  0  0  0  0  0  0  0999 V2000
    6.4106   -1.0345    1.5351 N   0  0  0  0  0  0  0  0  0  0  0  0
    5.9295   -0.1451    0.1979 S   0  0  0  0  0  0  0  0  0  0  0  0
    5.6432   -1.1190   -0.8283 O   0  0  0  0  0  0  0  0  0  0  0  0
    6.9470    0.8661    0.0335 O   0  0  0  0  0  0  0  0  0  0  0  0
    4.4177    0.6247    0.7765 C   0  0  0  0  0  0  0  0  0  0  0  0
    3.2930   -0.3776    1.0243 C   0  0  0  0  0  0  0  0  0  0  0  0
    2.1663    0.2517    1.8558 C   0  0  0  0  0  0  0  0  0  0  0  0
    0.8878   -0.1761    1.1575 C   0  0  0  0  0  0  0  0  0  0  0  0
    1.3060   -0.1572   -0.2461 N   0  0  0  0  0  0  0  0  0  0  0  0
    0.3368   -0.8178   -1.1348 C   0  0  0  0  0  0  0  0  0  0  0  0
   -0.9289   -0.0147   -1.2297 C   0  0  0  0  0  0  0  0  0  0  0  0
   -2.0734   -0.4685   -0.7004 N   0  0  0  0  0  0  0  0  0  0  0  0
   -2.9925    0.4982   -0.9587 N   0  0  0  0  0  0  0  0  0  0  0  0
   -4.3408    0.3539   -0.5256 C   0  0  0  0  0  0  0  0  0  0  0  0
   -4.7218   -0.8037    0.1763 C   0  0  0  0  0  0  0  0  0  0  0  0
   -6.0401   -0.9682    0.6115 C   0  0  0  0  0  0  0  0  0  0  0  0
   -6.9852    0.0202    0.3498 C   0  0  0  0  0  0  0  0  0  0  0  0
   -6.6046    1.1631   -0.3438 C   0  0  0  0  0  0  0  0  0  0  0  0
   -7.5159    2.1127   -0.5942 F   0  0  0  0  0  0  0  0  0  0  0  0
   -5.2961    1.3437   -0.7851 C   0  0  0  0  0  0  0  0  0  0  0  0
   -2.4318    1.5465   -1.6549 C   0  0  0  0  0  0  0  0  0  0  0  0
   -1.1052    1.2439   -1.8420 C   0  0  0  0  0  0  0  0  0  0  0  0
    2.6023   -0.8416   -0.2660 C   0  0  0  0  0  0  0  0  0  0  0  0
    6.4533   -2.0275    1.2977 H   0  0  0  0  0  0  0  0  0  0  0  0
    7.2956   -0.6690    1.8930 H   0  0  0  0  0  0  0  0  0  0  0  0
    4.1348    1.3676    0.0226 H   0  0  0  0  0  0  0  0  0  0  0  0
    4.6843    1.1639    1.6925 H   0  0  0  0  0  0  0  0  0  0  0  0
    3.6776   -1.2553    1.5578 H   0  0  0  0  0  0  0  0  0  0  0  0
    2.1932   -0.0888    2.8960 H   0  0  0  0  0  0  0  0  0  0  0  0
    2.2406    1.3466    1.8617 H   0  0  0  0  0  0  0  0  0  0  0  0
    0.5914   -1.1802    1.4866 H   0  0  0  0  0  0  0  0  0  0  0  0
    0.0734    0.5235    1.3694 H   0  0  0  0  0  0  0  0  0  0  0  0
    0.1196   -1.8416   -0.8030 H   0  0  0  0  0  0  0  0  0  0  0  0
    0.7597   -0.8910   -2.1452 H   0  0  0  0  0  0  0  0  0  0  0  0
   -3.9983   -1.5892    0.3910 H   0  0  0  0  0  0  0  0  0  0  0  0
   -6.3245   -1.8672    1.1529 H   0  0  0  0  0  0  0  0  0  0  0  0
   -8.0128   -0.0916    0.6805 H   0  0  0  0  0  0  0  0  0  0  0  0
   -5.0690    2.2585   -1.3196 H   0  0  0  0  0  0  0  0  0  0  0  0
   -3.0001    2.4126   -1.9549 H   0  0  0  0  0  0  0  0  0  0  0  0
   -0.3581    1.8460   -2.3399 H   0  0  0  0  0  0  0  0  0  0  0  0
    3.1546   -0.5855   -1.1745 H   0  0  0  0  0  0  0  0  0  0  0  0
    2.4808   -1.9325   -0.2347 H   0  0  0  0  0  0  0  0  0  0  0  0
  1  2  1  0
  2  3  2  0
  2  4  2  0
  2  5  1  0
  5  6  1  0
  6  7  1  0
  7  8  1  0
  8  9  1  0
  9 10  1  0
 10 11  1  0
 11 12  2  0
 12 13  1  0
 13 14  1  0
 14 15  2  0
 15 16  1  0
 16 17  2  0
 17 18  1  0
 18 19  1  0
 18 20  2  0
 13 21  1  0
 21 22  2  0
  9 23  1  0
 23  6  1  0
 22 11  1  0
 20 14  1  0
  1 24  1  0
  1 25  1  0
  5 26  1  0
  5 27  1  0
  6 28  1  0
  7 29  1  0
  7 30  1  0
  8 31  1  0
  8 32  1  0
 10 33  1  0
 10 34  1  0
 15 35  1  0
 16 36  1  0
 17 37  1  0
 20 38  1  0
 21 39  1  0
 22 40  1  0
 23 41  1  0
 23 42  1  0
M  END
$$$$
OCNT-2318516
     RDKit          3D

 42 45  0  0  0  0  0  0  0  0999 V2000
   -1.0041   -0.5405    1.3505 O   0  0  0  0  0  0  0  0  0  0  0  0
   -1.6513    0.0637    0.4969 C   0  0  0  0  0  0  0  0  0  0  0  0
   -1.1741    0.5398   -0.7143 N   0  0  0  0  0  0  0  0  0  0  0  0
    0.1072    0.4706   -1.1891 C   0  0  0  0  0  0  0  0  0  0  0  0
    0.4891    1.1747   -2.2300 N   0  0  0  0  0  0  0  0  0  0  0  0
    1.8296    0.9457   -2.4712 C   0  0  0  0  0  0  0  0  0  0  0  0
    2.4418    0.0294   -1.6393 C   0  0  0  0  0  0  0  0  0  0  0  0
    3.8501   -0.4688   -1.6423 C   0  0  0  0  0  0  0  0  0  0  0  0
    4.7820    0.3496   -0.7748 C   0  0  0  0  0  0  0  0  0  0  0  0
    4.7447    0.2388    0.6219 C   0  0  0  0  0  0  0  0  0  0  0  0
    5.6297    0.9627    1.4204 C   0  0  0  0  0  0  0  0  0  0  0  0
    6.5697    1.7964    0.8210 C   0  0  0  0  0  0  0  0  0  0  0  0
    7.6971    2.6653    1.8052 Cl  0  0  0  0  0  0  0  0  0  0  0  0
    6.6155    1.9318   -0.5616 C   0  0  0  0  0  0  0  0  0  0  0  0
    5.7224    1.2203   -1.3509 C   0  0  0  0  0  0  0  0  0  0  0  0
    5.7670    1.3814   -2.6851 F   0  0  0  0  0  0  0  0  0  0  0  0
    1.2920   -0.5434   -0.5038 S   0  0  0  0  0  0  0  0  0  0  0  0
   -3.1271    0.4216    0.7071 C   0  0  0  0  0  0  0  0  0  0  0  0
   -3.5325    0.3812    2.2135 C   0  0  0  0  0  0  0  0  0  0  0  0
   -3.9562   -1.0202    2.7232 C   0  0  0  0  0  0  0  0  0  0  0  0
   -5.1433   -1.5988    1.9256 C   0  0  0  0  0  0  0  0  0  0  0  0
   -4.8856   -1.3907    0.4774 C   0  0  0  0  0  0  0  0  0  0  0  0
   -3.9970   -0.4962   -0.0828 C   0  0  0  0  0  0  0  0  0  0  0  0
   -4.0119   -0.5889   -1.4567 N   0  0  0  0  0  0  0  0  0  0  0  0
   -4.8675   -1.5560   -1.7238 C   0  0  0  0  0  0  0  0  0  0  0  0
   -5.4529   -2.0523   -0.5791 N   0  0  0  0  0  0  0  0  0  0  0  0
   -1.8030    1.0475   -1.3317 H   0  0  0  0  0  0  0  0  0  0  0  0
    2.3179    1.4806   -3.2760 H   0  0  0  0  0  0  0  0  0  0  0  0
    4.2203   -0.4912   -2.6755 H   0  0  0  0  0  0  0  0  0  0  0  0
    3.8861   -1.5139   -1.2976 H   0  0  0  0  0  0  0  0  0  0  0  0
    4.0220   -0.4217    1.1019 H   0  0  0  0  0  0  0  0  0  0  0  0
    5.5891    0.8564    2.5080 H   0  0  0  0  0  0  0  0  0  0  0  0
    7.3358    2.5916   -1.0341 H   0  0  0  0  0  0  0  0  0  0  0  0
   -3.2660    1.4516    0.3633 H   0  0  0  0  0  0  0  0  0  0  0  0
   -4.3891    1.0526    2.3568 H   0  0  0  0  0  0  0  0  0  0  0  0
   -2.7184    0.7770    2.8390 H   0  0  0  0  0  0  0  0  0  0  0  0
   -3.1045   -1.7039    2.6493 H   0  0  0  0  0  0  0  0  0  0  0  0
   -4.2289   -0.9606    3.7851 H   0  0  0  0  0  0  0  0  0  0  0  0
   -6.0619   -1.0796    2.2107 H   0  0  0  0  0  0  0  0  0  0  0  0
   -5.2818   -2.6591    2.1436 H   0  0  0  0  0  0  0  0  0  0  0  0
   -5.1123   -1.9472   -2.7075 H   0  0  0  0  0  0  0  0  0  0  0  0
   -6.1397   -2.7975   -0.5349 H   0  0  0  0  0  0  0  0  0  0  0  0
  1  2  2  0
  2  3  1  0
  3  4  1  0
  4  5  2  0
  5  6  1  0
  6  7  2  0
  7  8  1  0
  8  9  1  0
  9 10  1  0
 10 11  2  0
 11 12  1  0
 12 13  1  0
 12 14  2  0
 14 15  1  0
 15 16  1  0
  7 17  1  0
  2 18  1  0
 18 19  1  0
 19 20  1  0
 20 21  1  0
 21 22  1  0
 22 23  2  0
 23 24  1  0
 24 25  2  0
 25 26  1  0
 17  4  1  0
 23 18  1  0
 15  9  2  0
 26 22  1  0
  3 27  1  0
  6 28  1  0
  8 29  1  0
  8 30  1  0
 10 31  1  0
 11 32  1  0
 14 33  1  0
 18 34  1  0
 19 35  1  0
 19 36  1  0
 20 37  1  0
 20 38  1  0
 21 39  1  0
 21 40  1  0
 25 41  1  0
 26 42  1  0
M  END
$$$$
OCNT-2318523
     RDKit          3D

 50 52  0  0  0  0  0  0  0  0999 V2000
   -2.9145    3.6116    0.3613 C   0  0  0  0  0  0  0  0  0  0  0  0
   -3.8655    2.6738   -0.1364 O   0  0  0  0  0  0  0  0  0  0  0  0
   -3.3931    1.4405   -0.4841 C   0  0  0  0  0  0  0  0  0  0  0  0
   -4.3564    0.5674   -0.9860 C   0  0  0  0  0  0  0  0  0  0  0  0
   -4.0183   -0.7365   -1.3576 C   0  0  0  0  0  0  0  0  0  0  0  0
   -2.7036   -1.1909   -1.2299 C   0  0  0  0  0  0  0  0  0  0  0  0
   -2.2847   -2.4558   -1.5494 O   0  0  0  0  0  0  0  0  0  0  0  0
   -3.2457   -3.3480   -2.0989 C   0  0  0  0  0  0  0  0  0  0  0  0
   -1.7208   -0.3181   -0.7272 C   0  0  0  0  0  0  0  0  0  0  0  0
   -0.2785   -0.7497   -0.5596 C   0  0  0  0  0  0  0  0  0  0  0  0
    0.1646   -0.8319    0.8484 N   0  0  0  0  0  0  0  0  0  0  0  0
    1.4543   -0.4486    1.2595 C   0  0  0  0  0  0  0  0  0  0  0  0
    1.9034   -0.7492    2.3719 O   0  0  0  0  0  0  0  0  0  0  0  0
    2.3040    0.3935    0.2805 C   0  0  0  0  0  0  0  0  0  0  0  0
    3.5378    1.0072    0.9978 C   0  0  0  0  0  0  0  0  0  0  0  0
    4.5915    1.4920    0.0792 N   0  0  0  0  0  0  0  0  0  0  0  0
    4.1578    2.6851   -0.6453 C   0  0  0  0  0  0  0  0  0  0  0  0
    4.9736    0.4073   -0.8555 C   0  0  0  0  0  0  0  0  0  0  0  0
    4.0208   -0.8051   -0.8538 C   0  0  0  0  0  0  0  0  0  0  0  0
    2.6549   -0.3835   -0.8814 O   0  0  0  0  0  0  0  0  0  0  0  0
   -0.5504   -1.8008    1.6690 C   0  0  0  0  0  0  0  0  0  0  0  0
   -0.7517   -1.6206    3.1536 C   0  0  0  0  0  0  0  0  0  0  0  0
   -1.9232   -1.5203    2.2327 C   0  0  0  0  0  0  0  0  0  0  0  0
   -2.0771    0.9987   -0.3661 C   0  0  0  0  0  0  0  0  0  0  0  0
   -2.4193    3.2415    1.2657 H   0  0  0  0  0  0  0  0  0  0  0  0
   -2.1832    3.8775   -0.4110 H   0  0  0  0  0  0  0  0  0  0  0  0
   -3.4547    4.5193    0.6397 H   0  0  0  0  0  0  0  0  0  0  0  0
   -5.3867    0.9020   -1.0819 H   0  0  0  0  0  0  0  0  0  0  0  0
   -4.8131   -1.3728   -1.7339 H   0  0  0  0  0  0  0  0  0  0  0  0
   -2.7385   -4.2931   -2.3137 H   0  0  0  0  0  0  0  0  0  0  0  0
   -3.6479   -2.9635   -3.0414 H   0  0  0  0  0  0  0  0  0  0  0  0
   -4.0431   -3.5562   -1.3813 H   0  0  0  0  0  0  0  0  0  0  0  0
    0.3141   -0.0303   -1.1285 H   0  0  0  0  0  0  0  0  0  0  0  0
   -0.0726   -1.7248   -1.0160 H   0  0  0  0  0  0  0  0  0  0  0  0
    1.6765    1.2233   -0.0630 H   0  0  0  0  0  0  0  0  0  0  0  0
    3.2148    1.8106    1.6700 H   0  0  0  0  0  0  0  0  0  0  0  0
    4.0094    0.2649    1.6550 H   0  0  0  0  0  0  0  0  0  0  0  0
    3.3120    2.4924   -1.3152 H   0  0  0  0  0  0  0  0  0  0  0  0
    4.9823    3.0842   -1.2464 H   0  0  0  0  0  0  0  0  0  0  0  0
    3.8717    3.4800    0.0554 H   0  0  0  0  0  0  0  0  0  0  0  0
    5.0618    0.7897   -1.8869 H   0  0  0  0  0  0  0  0  0  0  0  0
    5.9762    0.0568   -0.5810 H   0  0  0  0  0  0  0  0  0  0  0  0
    4.1855   -1.4444    0.0218 H   0  0  0  0  0  0  0  0  0  0  0  0
    4.2013   -1.4216   -1.7430 H   0  0  0  0  0  0  0  0  0  0  0  0
   -0.3606   -2.8213    1.3400 H   0  0  0  0  0  0  0  0  0  0  0  0
   -0.6617   -2.4994    3.7811 H   0  0  0  0  0  0  0  0  0  0  0  0
   -0.3936   -0.7110    3.6201 H   0  0  0  0  0  0  0  0  0  0  0  0
   -2.6433   -2.3304    2.2235 H   0  0  0  0  0  0  0  0  0  0  0  0
   -2.3640   -0.5382    2.1173 H   0  0  0  0  0  0  0  0  0  0  0  0
   -1.3024    1.6464    0.0306 H   0  0  0  0  0  0  0  0  0  0  0  0
  1  2  1  0
  2  3  1  0
  3  4  1  0
  4  5  2  0
  5  6  1  0
  6  7  1  0
  7  8  1  0
  6  9  2  0
  9 10  1  0
 10 11  1  0
 11 12  1  0
 12 13  2  0
 12 14  1  0
 14 15  1  0
 15 16  1  0
 16 17  1  0
 16 18  1  0
 18 19  1  0
 19 20  1  0
 11 21  1  0
 21 22  1  0
 22 23  1  0
  9 24  1  0
 24  3  2  0
 20 14  1  0
 23 21  1  0
  1 25  1  0
  1 26  1  0
  1 27  1  0
  4 28  1  0
  5 29  1  0
  8 30  1  0
  8 31  1  0
  8 32  1  0
 10 33  1  0
 10 34  1  0
 14 35  1  0
 15 36  1  0
 15 37  1  0
 17 38  1  0
 17 39  1  0
 17 40  1  0
 18 41  1  0
 18 42  1  0
 19 43  1  0
 19 44  1  0
 21 45  1  0
 22 46  1  0
 22 47  1  0
 23 48  1  0
 23 49  1  0
 24 50  1  0
M  END
$$$$
OCNT-2318531
     RDKit          3D

 42 45  0  0  0  0  0  0  0  0999 V2000
   -3.8002    1.9902    1.9013 C   0  0  0  0  0  0  0  0  0  0  0  0
   -4.1345    1.4155    0.5225 C   0  0  0  0  0  0  0  0  0  0  0  0
   -4.0695    2.5031   -0.5525 C   0  0  0  0  0  0  0  0  0  0  0  0
   -3.2401    0.2362    0.1773 C   0  0  0  0  0  0  0  0  0  0  0  0
   -3.8175   -1.0349   -0.0362 C   0  0  0  0  0  0  0  0  0  0  0  0
   -3.0333   -2.1467   -0.3574 C   0  0  0  0  0  0  0  0  0  0  0  0
   -1.6640   -1.9801   -0.4513 C   0  0  0  0  0  0  0  0  0  0  0  0
   -0.6352   -3.0051   -0.8118 C   0  0  0  0  0  0  0  0  0  0  0  0
    0.6505   -2.3222   -0.3255 C   0  0  0  0  0  0  0  0  0  0  0  0
    0.4131   -0.8052   -0.4567 C   0  0  0  0  0  0  0  0  0  0  0  0
    1.1325   -0.0556    0.5589 N   0  0  0  0  0  0  0  0  0  0  0  0
    2.4940    0.0262    0.5650 C   0  0  0  0  0  0  0  0  0  0  0  0
    3.1480   -0.2945    1.6468 N   0  0  0  0  0  0  0  0  0  0  0  0
    4.5402   -0.2142    1.6737 C   0  0  0  0  0  0  0  0  0  0  0  0
    5.2125   -0.5357    2.6455 O   0  0  0  0  0  0  0  0  0  0  0  0
    5.1547    0.2850    0.4631 C   0  0  0  0  0  0  0  0  0  0  0  0
    4.3874    0.6098   -0.6169 C   0  0  0  0  0  0  0  0  0  0  0  0
    5.2124    1.0731   -1.5871 N   0  0  0  0  0  0  0  0  0  0  0  0
    6.5097    1.0501   -1.2019 N   0  0  0  0  0  0  0  0  0  0  0  0
    6.4641    0.5690    0.0527 C   0  0  0  0  0  0  0  0  0  0  0  0
    3.0549    0.4707   -0.6108 N   0  0  0  0  0  0  0  0  0  0  0  0
   -1.0737   -0.7291   -0.2442 C   0  0  0  0  0  0  0  0  0  0  0  0
   -1.8476    0.3823    0.0620 C   0  0  0  0  0  0  0  0  0  0  0  0
   -3.8569    1.2143    2.6730 H   0  0  0  0  0  0  0  0  0  0  0  0
   -4.5076    2.7823    2.1697 H   0  0  0  0  0  0  0  0  0  0  0  0
   -2.7930    2.4198    1.9335 H   0  0  0  0  0  0  0  0  0  0  0  0
   -5.1743    1.0649    0.5638 H   0  0  0  0  0  0  0  0  0  0  0  0
   -4.3206    2.0950   -1.5379 H   0  0  0  0  0  0  0  0  0  0  0  0
   -3.0727    2.9523   -0.6216 H   0  0  0  0  0  0  0  0  0  0  0  0
   -4.7810    3.3060   -0.3311 H   0  0  0  0  0  0  0  0  0  0  0  0
   -4.8954   -1.1638    0.0454 H   0  0  0  0  0  0  0  0  0  0  0  0
   -3.4948   -3.1147   -0.5262 H   0  0  0  0  0  0  0  0  0  0  0  0
   -0.7973   -3.9589   -0.3021 H   0  0  0  0  0  0  0  0  0  0  0  0
   -0.6178   -3.1566   -1.8960 H   0  0  0  0  0  0  0  0  0  0  0  0
    1.5304   -2.6531   -0.8875 H   0  0  0  0  0  0  0  0  0  0  0  0
    0.8251   -2.5973    0.7248 H   0  0  0  0  0  0  0  0  0  0  0  0
    0.6423   -0.4553   -1.4701 H   0  0  0  0  0  0  0  0  0  0  0  0
    0.8144   -0.3327    1.4872 H   0  0  0  0  0  0  0  0  0  0  0  0
    4.9893    1.4070   -2.5181 H   0  0  0  0  0  0  0  0  0  0  0  0
    7.3855    0.4532    0.6100 H   0  0  0  0  0  0  0  0  0  0  0  0
    2.4381    0.9021   -1.2877 H   0  0  0  0  0  0  0  0  0  0  0  0
   -1.3719    1.3476    0.2123 H   0  0  0  0  0  0  0  0  0  0  0  0
  1  2  1  0
  2  3  1  0
  2  4  1  0
  4  5  1  0
  5  6  2  0
  6  7  1  0
  7  8  1  0
  8  9  1  0
  9 10  1  0
 10 11  1  0
 11 12  1  0
 12 13  2  0
 13 14  1  0
 14 15  2  0
 14 16  1  0
 16 17  2  0
 17 18  1  0
 18 19  1  0
 19 20  2  0
 17 21  1  0
 10 22  1  0
 22 23  1  0
 23  4  2  0
 22  7  2  0
 21 12  1  0
 20 16  1  0
  1 24  1  0
  1 25  1  0
  1 26  1  0
  2 27  1  0
  3 28  1  0
  3 29  1  0
  3 30  1  0
  5 31  1  0
  6 32  1  0
  8 33  1  0
  8 34  1  0
  9 35  1  0
  9 36  1  0
 10 37  1  0
 11 38  1  0
 18 39  1  0
 20 40  1  0
 21 41  1  0
 23 42  1  0
M  END
$$$$
OCNT-2318536
     RDKit          3D

 42 44  0  0  0  0  0  0  0  0999 V2000
   -4.8629   -3.1955   -2.0034 C   0  0  0  0  0  0  0  0  0  0  0  0
   -3.2606   -3.3723   -1.2617 S   0  0  0  0  0  0  0  0  0  0  0  0
   -3.3827   -4.2529   -0.1153 O   0  0  0  0  0  0  0  0  0  0  0  0
   -2.3005   -3.6497   -2.3135 O   0  0  0  0  0  0  0  0  0  0  0  0
   -2.9109   -1.7437   -0.6376 C   0  0  0  0  0  0  0  0  0  0  0  0
   -2.2205   -0.8321   -1.4405 C   0  0  0  0  0  0  0  0  0  0  0  0
   -1.9038    0.4376   -0.9399 C   0  0  0  0  0  0  0  0  0  0  0  0
   -1.1123    1.4176   -1.7709 C   0  0  0  0  0  0  0  0  0  0  0  0
    0.3041    1.2048   -1.6036 N   0  0  0  0  0  0  0  0  0  0  0  0
    1.0073    1.8209   -0.6007 C   0  0  0  0  0  0  0  0  0  0  0  0
    0.5549    2.6607    0.1622 O   0  0  0  0  0  0  0  0  0  0  0  0
    2.4186    1.3837   -0.5005 C   0  0  2  0  0  0  0  0  0  0  0  0
    2.7637   -0.0634   -0.2456 C   0  0  0  0  0  0  0  0  0  0  0  0
    2.9610    0.9537    0.8475 C   0  0  1  0  0  0  0  0  0  0  0  0
    4.4125    1.3605    1.2472 C   0  0  0  0  0  0  0  0  0  0  0  0
    5.3782    0.4602    1.6395 C   0  0  0  0  0  0  0  0  0  0  0  0
    6.6104    1.1171    1.9421 C   0  0  0  0  0  0  0  0  0  0  0  0
    6.5005    2.4760    1.7749 C   0  0  0  0  0  0  0  0  0  0  0  0
    7.7368    3.6431    2.0163 Cl  0  0  0  0  0  0  0  0  0  0  0  0
    4.9585    2.9744    1.2829 S   0  0  0  0  0  0  0  0  0  0  0  0
   -2.2718    0.7631    0.3768 C   0  0  0  0  0  0  0  0  0  0  0  0
   -2.9622   -0.1511    1.1904 C   0  0  0  0  0  0  0  0  0  0  0  0
   -3.3142    0.2055    2.6157 C   0  0  0  0  0  0  0  0  0  0  0  0
   -3.5970    1.5262    2.7816 F   0  0  0  0  0  0  0  0  0  0  0  0
   -2.3095   -0.0814    3.4870 F   0  0  0  0  0  0  0  0  0  0  0  0
   -4.4107   -0.4652    3.0681 F   0  0  0  0  0  0  0  0  0  0  0  0
   -3.2723   -1.4173    0.6730 C   0  0  0  0  0  0  0  0  0  0  0  0
   -4.8006   -2.4739   -2.8219 H   0  0  0  0  0  0  0  0  0  0  0  0
   -5.5741   -2.8624   -1.2441 H   0  0  0  0  0  0  0  0  0  0  0  0
   -5.1639   -4.1706   -2.3922 H   0  0  0  0  0  0  0  0  0  0  0  0
   -1.9115   -1.1130   -2.4461 H   0  0  0  0  0  0  0  0  0  0  0  0
   -1.3450    1.2902   -2.8337 H   0  0  0  0  0  0  0  0  0  0  0  0
   -1.3748    2.4466   -1.5020 H   0  0  0  0  0  0  0  0  0  0  0  0
    0.7460    0.4523   -2.1123 H   0  0  0  0  0  0  0  0  0  0  0  0
    3.0899    1.9555   -1.1334 H   0  0  0  0  0  0  0  0  0  0  0  0
    1.9614   -0.7802   -0.1100 H   0  0  0  0  0  0  0  0  0  0  0  0
    3.6352   -0.4642   -0.7498 H   0  0  0  0  0  0  0  0  0  0  0  0
    2.2626    0.9417    1.6804 H   0  0  0  0  0  0  0  0  0  0  0  0
    5.2196   -0.6101    1.7045 H   0  0  0  0  0  0  0  0  0  0  0  0
    7.5164    0.6175    2.2615 H   0  0  0  0  0  0  0  0  0  0  0  0
   -1.9951    1.7390    0.7824 H   0  0  0  0  0  0  0  0  0  0  0  0
   -3.7803   -2.1491    1.3028 H   0  0  0  0  0  0  0  0  0  0  0  0
  1  2  1  0
  2  3  2  0
  2  4  2  0
  2  5  1  0
  5  6  1  0
  6  7  2  0
  7  8  1  0
  8  9  1  0
  9 10  1  0
 10 11  2  0
 10 12  1  0
 12 13  1  0
 13 14  1  0
 14 15  1  0
 15 16  2  0
 16 17  1  0
 17 18  2  0
 18 19  1  0
 18 20  1  0
  7 21  1  0
 21 22  2  0
 22 23  1  0
 23 24  1  0
 23 25  1  0
 23 26  1  0
 22 27  1  0
 27  5  2  0
 14 12  1  0
 20 15  1  0
  1 28  1  0
  1 29  1  0
  1 30  1  0
  6 31  1  0
  8 32  1  0
  8 33  1  0
  9 34  1  0
 12 35  1  6
 13 36  1  0
 13 37  1  0
 14 38  1  1
 16 39  1  0
 17 40  1  0
 21 41  1  0
 27 42  1  0
M  END
$$$$
OCNT-2318541
     RDKit          3D

 49 54  0  0  0  0  0  0  0  0999 V2000
   -1.4901    0.2297    2.1226 O   0  0  0  0  0  0  0  0  0  0  0  0
   -1.1057    0.1813    0.9637 C   0  0  0  0  0  0  0  0  0  0  0  0
   -0.0228    0.8542    0.4622 N   0  0  0  0  0  0  0  0  0  0  0  0
    0.8174    1.6972    1.2940 C   0  0  0  0  0  0  0  0  0  0  0  0
    2.2011    1.1467    1.3196 C   0  0  0  0  0  0  0  0  0  0  0  0
    2.9433    0.8090    2.3589 N   0  0  0  0  0  0  0  0  0  0  0  0
    4.1055    0.3492    1.7940 C   0  0  0  0  0  0  0  0  0  0  0  0
    5.2744   -0.1595    2.3748 C   0  0  0  0  0  0  0  0  0  0  0  0
    6.3146   -0.5622    1.5233 C   0  0  0  0  0  0  0  0  0  0  0  0
    6.1932   -0.4582    0.1311 C   0  0  0  0  0  0  0  0  0  0  0  0
    5.0314    0.0509   -0.4636 C   0  0  0  0  0  0  0  0  0  0  0  0
    4.0247    0.4357    0.4138 C   0  0  0  0  0  0  0  0  0  0  0  0
    2.8018    0.9533    0.0972 O   0  0  0  0  0  0  0  0  0  0  0  0
   -1.8039   -0.6929    0.0127 C   0  0  0  0  0  0  0  0  0  0  0  0
   -2.0124   -2.0299    0.3695 C   0  0  0  0  0  0  0  0  0  0  0  0
   -2.6160   -2.9170   -0.5242 C   0  0  0  0  0  0  0  0  0  0  0  0
   -2.8545   -4.3799   -0.1873 C   0  0  0  0  0  0  0  0  0  0  0  0
   -3.1795   -4.8417    1.2147 C   0  0  0  0  0  0  0  0  0  0  0  0
   -1.8501   -5.1863    0.6034 C   0  0  0  0  0  0  0  0  0  0  0  0
   -3.0145   -2.5226   -1.7558 N   0  0  0  0  0  0  0  0  0  0  0  0
   -2.8279   -1.2233   -2.0420 C   0  0  0  0  0  0  0  0  0  0  0  0
   -2.2627   -0.2530   -1.2334 C   0  0  0  0  0  0  0  0  0  0  0  0
   -2.3647    0.9445   -2.0007 C   0  0  0  0  0  0  0  0  0  0  0  0
   -2.0052    2.3089   -1.6328 C   0  0  0  0  0  0  0  0  0  0  0  0
   -2.4804    2.8783   -0.4441 C   0  0  0  0  0  0  0  0  0  0  0  0
   -2.1153    4.1792   -0.0896 C   0  0  0  0  0  0  0  0  0  0  0  0
   -1.2822    4.9216   -0.9242 C   0  0  0  0  0  0  0  0  0  0  0  0
   -0.8179    4.3691   -2.1169 C   0  0  0  0  0  0  0  0  0  0  0  0
   -1.1798    3.0682   -2.4730 C   0  0  0  0  0  0  0  0  0  0  0  0
   -2.8771    0.6883   -3.2158 N   0  0  0  0  0  0  0  0  0  0  0  0
   -3.1765   -0.6608   -3.2290 O   0  0  0  0  0  0  0  0  0  0  0  0
    0.2885    0.6999   -0.4884 H   0  0  0  0  0  0  0  0  0  0  0  0
    0.4157    1.7726    2.3094 H   0  0  0  0  0  0  0  0  0  0  0  0
    0.8245    2.6952    0.8461 H   0  0  0  0  0  0  0  0  0  0  0  0
    5.3645   -0.2395    3.4525 H   0  0  0  0  0  0  0  0  0  0  0  0
    7.2304   -0.9635    1.9549 H   0  0  0  0  0  0  0  0  0  0  0  0
    7.0189   -0.7804   -0.5017 H   0  0  0  0  0  0  0  0  0  0  0  0
    4.9201    0.1394   -1.5365 H   0  0  0  0  0  0  0  0  0  0  0  0
   -1.6859   -2.3719    1.3477 H   0  0  0  0  0  0  0  0  0  0  0  0
   -3.3643   -4.9290   -0.9777 H   0  0  0  0  0  0  0  0  0  0  0  0
   -3.2032   -4.1220    2.0230 H   0  0  0  0  0  0  0  0  0  0  0  0
   -3.9089   -5.6370    1.3245 H   0  0  0  0  0  0  0  0  0  0  0  0
   -1.6830   -6.2144    0.3002 H   0  0  0  0  0  0  0  0  0  0  0  0
   -0.9654   -4.7032    0.9990 H   0  0  0  0  0  0  0  0  0  0  0  0
   -3.1396    2.3211    0.2199 H   0  0  0  0  0  0  0  0  0  0  0  0
   -2.4853    4.6132    0.8370 H   0  0  0  0  0  0  0  0  0  0  0  0
   -1.0033    5.9361   -0.6495 H   0  0  0  0  0  0  0  0  0  0  0  0
   -0.1787    4.9534   -2.7738 H   0  0  0  0  0  0  0  0  0  0  0  0
   -0.8138    2.6522   -3.4100 H   0  0  0  0  0  0  0  0  0  0  0  0
  1  2  2  0
  2  3  1  0
  3  4  1  0
  4  5  1  0
  5  6  2  0
  6  7  1  0
  7  8  2  0
  8  9  1  0
  9 10  2  0
 10 11  1  0
 11 12  2  0
 12 13  1  0
  2 14  1  0
 14 15  1  0
 15 16  2  0
 16 17  1  0
 17 18  1  0
 18 19  1  0
 16 20  1  0
 20 21  2  0
 21 22  1  0
 22 23  1  0
 23 24  1  0
 24 25  2  0
 25 26  1  0
 26 27  2  0
 27 28  1  0
 28 29  2  0
 23 30  2  0
 30 31  1  0
 13  5  1  0
 22 14  2  0
 29 24  1  0
 12  7  1  0
 19 17  1  0
 31 21  1  0
  3 32  1  0
  4 33  1  0
  4 34  1  0
  8 35  1  0
  9 36  1  0
 10 37  1  0
 11 38  1  0
 15 39  1  0
 17 40  1  0
 18 41  1  0
 18 42  1  0
 19 43  1  0
 19 44  1  0
 25 45  1  0
 26 46  1  0
 27 47  1  0
 28 48  1  0
 29 49  1  0
M  END
$$$$
OCNT-2318543
     RDKit          3D

 50 54  0  0  0  0  0  0  0  0999 V2000
   -6.3378    1.5612    2.6271 C   0  0  0  0  0  0  0  0  0  0  0  0
   -5.8504    0.8861    1.3779 C   0  0  0  0  0  0  0  0  0  0  0  0
   -6.4482    1.1790    0.1339 C   0  0  0  0  0  0  0  0  0  0  0  0
   -6.0236    0.5428   -1.0358 C   0  0  0  0  0  0  0  0  0  0  0  0
   -5.0182   -0.3942   -0.9321 C   0  0  0  0  0  0  0  0  0  0  0  0
   -4.4946   -1.0840   -1.9947 O   0  0  0  0  0  0  0  0  0  0  0  0
   -3.7108   -2.1335   -1.3652 C   0  0  0  0  0  0  0  0  0  0  0  0
   -3.3390   -1.6888    0.0644 C   0  0  0  0  0  0  0  0  0  0  0  0
   -2.0406   -1.0448    0.1553 N   0  0  0  0  0  0  0  0  0  0  0  0
   -0.9065   -1.8077    0.0778 C   0  0  0  0  0  0  0  0  0  0  0  0
   -0.9614   -3.0282   -0.0481 O   0  0  0  0  0  0  0  0  0  0  0  0
    0.2827   -1.1004    0.1506 N   0  0  0  0  0  0  0  0  0  0  0  0
    1.5278   -1.8929    0.1302 C   0  0  0  0  0  0  0  0  0  0  0  0
    2.7098   -1.1466   -0.5268 C   0  0  0  0  0  0  0  0  0  0  0  0
    2.7590    0.2462   -0.0117 C   0  0  0  0  0  0  0  0  0  0  0  0
    1.6845    0.8454    0.6150 C   0  0  0  0  0  0  0  0  0  0  0  0
    0.3495    0.2148    0.8266 C   0  0  0  0  0  0  0  0  0  0  0  0
    2.0173    2.0828    1.0769 N   0  0  0  0  0  0  0  0  0  0  0  0
    3.2745    2.2421    0.7224 C   0  0  0  0  0  0  0  0  0  0  0  0
    3.7951    1.1605    0.0280 N   0  0  0  0  0  0  0  0  0  0  0  0
    5.1150    1.0751   -0.5064 C   0  0  0  0  0  0  0  0  0  0  0  0
    5.4309    0.1723   -1.5292 C   0  0  0  0  0  0  0  0  0  0  0  0
    6.7298    0.1085   -2.0446 C   0  0  0  0  0  0  0  0  0  0  0  0
    7.7244    0.9459   -1.5486 C   0  0  0  0  0  0  0  0  0  0  0  0
    7.4215    1.8541   -0.5390 C   0  0  0  0  0  0  0  0  0  0  0  0
    6.1244    1.9235   -0.0214 C   0  0  0  0  0  0  0  0  0  0  0  0
   -4.4250   -0.7009    0.2825 C   0  0  0  0  0  0  0  0  0  0  0  0
   -4.8284   -0.0726    1.4501 C   0  0  0  0  0  0  0  0  0  0  0  0
   -6.7641    2.5443    2.4015 H   0  0  0  0  0  0  0  0  0  0  0  0
   -5.5134    1.7184    3.3305 H   0  0  0  0  0  0  0  0  0  0  0  0
   -7.1041    0.9466    3.1092 H   0  0  0  0  0  0  0  0  0  0  0  0
   -7.2492    1.9131    0.0739 H   0  0  0  0  0  0  0  0  0  0  0  0
   -6.4733    0.7729   -1.9950 H   0  0  0  0  0  0  0  0  0  0  0  0
   -2.8396   -2.3452   -1.9935 H   0  0  0  0  0  0  0  0  0  0  0  0
   -4.3405   -3.0324   -1.3402 H   0  0  0  0  0  0  0  0  0  0  0  0
   -3.3788   -2.5354    0.7582 H   0  0  0  0  0  0  0  0  0  0  0  0
   -1.9844   -0.1503   -0.3094 H   0  0  0  0  0  0  0  0  0  0  0  0
    1.3739   -2.8391   -0.4004 H   0  0  0  0  0  0  0  0  0  0  0  0
    1.7636   -2.1420    1.1732 H   0  0  0  0  0  0  0  0  0  0  0  0
    2.5513   -1.1228   -1.6113 H   0  0  0  0  0  0  0  0  0  0  0  0
    3.6331   -1.6945   -0.3150 H   0  0  0  0  0  0  0  0  0  0  0  0
    0.1747    0.0488    1.8956 H   0  0  0  0  0  0  0  0  0  0  0  0
   -0.4297    0.8810    0.4472 H   0  0  0  0  0  0  0  0  0  0  0  0
    3.8436    3.1406    0.9147 H   0  0  0  0  0  0  0  0  0  0  0  0
    4.6869   -0.4673   -1.9883 H   0  0  0  0  0  0  0  0  0  0  0  0
    6.9613   -0.5910   -2.8447 H   0  0  0  0  0  0  0  0  0  0  0  0
    8.7324    0.8943   -1.9520 H   0  0  0  0  0  0  0  0  0  0  0  0
    8.1972    2.5086   -0.1488 H   0  0  0  0  0  0  0  0  0  0  0  0
    5.9485    2.6315    0.7836 H   0  0  0  0  0  0  0  0  0  0  0  0
   -4.3513   -0.3130    2.3961 H   0  0  0  0  0  0  0  0  0  0  0  0
  1  2  1  0
  2  3  1  0
  3  4  2  0
  4  5  1  0
  5  6  1  0
  6  7  1  0
  7  8  1  0
  8  9  1  0
  9 10  1  0
 10 11  2  0
 10 12  1  0
 12 13  1  0
 13 14  1  0
 14 15  1  0
 15 16  2  0
 16 17  1  0
 16 18  1  0
 18 19  2  0
 19 20  1  0
 20 21  1  0
 21 22  2  0
 22 23  1  0
 23 24  2  0
 24 25  1  0
 25 26  2  0
  8 27  1  0
 27 28  1  0
 28  2  2  0
 27  5  2  0
 17 12  1  0
 26 21  1  0
 20 15  1  0
  1 29  1  0
  1 30  1  0
  1 31  1  0
  3 32  1  0
  4 33  1  0
  7 34  1  0
  7 35  1  0
  8 36  1  0
  9 37  1  0
 13 38  1  0
 13 39  1  0
 14 40  1  0
 14 41  1  0
 17 42  1  0
 17 43  1  0
 19 44  1  0
 22 45  1  0
 23 46  1  0
 24 47  1  0
 25 48  1  0
 26 49  1  0
 28 50  1  0
M  END
$$$$
OCNT-2318555
     RDKit          3D

 40 42  0  0  0  0  0  0  0  0999 V2000
    5.2655    3.4283   -0.9581 C   0  0  0  0  0  0  0  0  0  0  0  0
    3.9680    2.6474   -0.8493 C   0  0  0  0  0  0  0  0  0  0  0  0
    4.2972    1.2626   -0.7312 O   0  0  0  0  0  0  0  0  0  0  0  0
    3.1912    0.4405   -0.6443 C   0  0  0  0  0  0  0  0  0  0  0  0
    3.4486   -0.9197   -0.5708 C   0  0  0  0  0  0  0  0  0  0  0  0
    2.3695   -1.7904   -0.4661 C   0  0  0  0  0  0  0  0  0  0  0  0
    1.0788   -1.2720   -0.4490 C   0  0  0  0  0  0  0  0  0  0  0  0
    0.9318    0.1013   -0.5568 C   0  0  0  0  0  0  0  0  0  0  0  0
   -0.3073    0.7753   -0.4898 N   0  0  0  0  0  0  0  0  0  0  0  0
   -1.4498    0.3896   -1.6534 S   0  0  0  0  0  0  0  0  0  0  0  0
   -2.4745    1.4075   -1.6028 O   0  0  0  0  0  0  0  0  0  0  0  0
   -0.7896    0.0461   -2.8925 O   0  0  0  0  0  0  0  0  0  0  0  0
   -2.2778   -1.0783   -1.1694 C   0  0  0  0  0  0  0  0  0  0  0  0
   -2.5124   -2.2635   -1.8494 C   0  0  0  0  0  0  0  0  0  0  0  0
   -3.1973   -3.0854   -0.9484 C   0  0  0  0  0  0  0  0  0  0  0  0
   -3.3889   -2.4882    0.2253 N   0  0  0  0  0  0  0  0  0  0  0  0
   -2.8685   -1.2499    0.0603 N   0  0  0  0  0  0  0  0  0  0  0  0
   -2.8893   -0.2501    1.1567 C   0  0  0  0  0  0  0  0  0  0  0  0
   -1.8646   -0.5642    2.2759 C   0  0  0  0  0  0  0  0  0  0  0  0
   -2.9337   -0.0839    3.2805 C   0  0  0  0  0  0  0  0  0  0  0  0
   -3.9934   -0.4684    2.2255 C   0  0  0  0  0  0  0  0  0  0  0  0
    1.9512    0.9738   -0.6232 N   0  0  0  0  0  0  0  0  0  0  0  0
    5.8927    3.2585   -0.0767 H   0  0  0  0  0  0  0  0  0  0  0  0
    5.8423    3.0981   -1.8284 H   0  0  0  0  0  0  0  0  0  0  0  0
    5.0688    4.5001   -1.0505 H   0  0  0  0  0  0  0  0  0  0  0  0
    3.4198    2.9868    0.0378 H   0  0  0  0  0  0  0  0  0  0  0  0
    3.3681    2.8231   -1.7504 H   0  0  0  0  0  0  0  0  0  0  0  0
    4.4681   -1.2889   -0.5874 H   0  0  0  0  0  0  0  0  0  0  0  0
    2.5345   -2.8617   -0.3913 H   0  0  0  0  0  0  0  0  0  0  0  0
    0.2343   -1.9387   -0.3370 H   0  0  0  0  0  0  0  0  0  0  0  0
   -0.1159    1.7771   -0.5302 H   0  0  0  0  0  0  0  0  0  0  0  0
   -2.2096   -2.4853   -2.8640 H   0  0  0  0  0  0  0  0  0  0  0  0
   -3.5581   -4.0967   -1.0909 H   0  0  0  0  0  0  0  0  0  0  0  0
   -2.8666    0.7901    0.8155 H   0  0  0  0  0  0  0  0  0  0  0  0
   -0.9450    0.0264    2.2632 H   0  0  0  0  0  0  0  0  0  0  0  0
   -1.6022   -1.6227    2.3906 H   0  0  0  0  0  0  0  0  0  0  0  0
   -2.9801   -0.6322    4.2245 H   0  0  0  0  0  0  0  0  0  0  0  0
   -2.8900    0.9908    3.4915 H   0  0  0  0  0  0  0  0  0  0  0  0
   -4.3654   -1.4907    2.3541 H   0  0  0  0  0  0  0  0  0  0  0  0
   -4.8507    0.2075    2.1597 H   0  0  0  0  0  0  0  0  0  0  0  0
  1  2  1  0
  2  3  1  0
  3  4  1  0
  4  5  1  0
  5  6  2  0
  6  7  1  0
  7  8  2  0
  8  9  1  0
  9 10  1  0
 10 11  2  0
 10 12  2  0
 10 13  1  0
 13 14  2  0
 14 15  1  0
 15 16  2  0
 16 17  1  0
 17 18  1  0
 18 19  1  0
 19 20  1  0
 20 21  1  0
  8 22  1  0
 22  4  2  0
 17 13  1  0
 21 18  1  0
  1 23  1  0
  1 24  1  0
  1 25  1  0
  2 26  1  0
  2 27  1  0
  5 28  1  0
  6 29  1  0
  7 30  1  0
  9 31  1  0
 14 32  1  0
 15 33  1  0
 18 34  1  0
 19 35  1  0
 19 36  1  0
 20 37  1  0
 20 38  1  0
 21 39  1  0
 21 40  1  0
M  END
$$$$
OCNT-2318566
     RDKit          3D

 35 37  0  0  0  0  0  0  0  0999 V2000
    0.6386    0.2848   -1.3776 O   0  0  0  0  0  0  0  0  0  0  0  0
   -0.0853   -0.5612   -0.8662 C   0  0  0  0  0  0  0  0  0  0  0  0
   -1.5429   -0.6683   -1.2704 C   0  0  0  0  0  0  0  0  0  0  0  0
   -2.3461    0.4824   -0.7399 C   0  0  0  0  0  0  0  0  0  0  0  0
   -2.3724    1.6970   -1.4147 C   0  0  0  0  0  0  0  0  0  0  0  0
   -3.1176    2.7422   -0.8921 C   0  0  0  0  0  0  0  0  0  0  0  0
   -3.8062    2.5540    0.2977 C   0  0  0  0  0  0  0  0  0  0  0  0
   -3.7317    1.3175    0.9383 C   0  0  0  0  0  0  0  0  0  0  0  0
   -4.4902    1.1264    2.2434 C   0  0  0  0  0  0  0  0  0  0  0  0
   -4.2234   -0.0467    2.8846 F   0  0  0  0  0  0  0  0  0  0  0  0
   -4.2221    2.1111    3.1526 F   0  0  0  0  0  0  0  0  0  0  0  0
   -5.8454    1.1531    2.0688 F   0  0  0  0  0  0  0  0  0  0  0  0
   -3.0130    0.2812    0.4196 N   0  0  0  0  0  0  0  0  0  0  0  0
    0.2656   -1.4875    0.0830 N   0  0  0  0  0  0  0  0  0  0  0  0
    1.4869   -1.7164    0.6664 C   0  0  0  0  0  0  0  0  0  0  0  0
    1.5075   -2.6820    1.5985 N   0  0  0  0  0  0  0  0  0  0  0  0
    2.7713   -2.6952    2.0435 N   0  0  0  0  0  0  0  0  0  0  0  0
    3.5770   -1.7919    1.4229 C   0  0  0  0  0  0  0  0  0  0  0  0
    2.7768   -1.1566    0.5042 C   0  0  0  0  0  0  0  0  0  0  0  0
    3.2628   -0.0328   -0.4358 C   0  0  0  0  0  0  0  0  0  0  0  0
    3.5466   -0.3587   -1.8802 C   0  0  0  0  0  0  0  0  0  0  0  0
    4.6795   -0.0284   -0.9579 C   0  0  0  0  0  0  0  0  0  0  0  0
   -1.5939   -0.7079   -2.3633 H   0  0  0  0  0  0  0  0  0  0  0  0
   -1.9788   -1.6092   -0.9163 H   0  0  0  0  0  0  0  0  0  0  0  0
   -1.8143    1.8316   -2.3325 H   0  0  0  0  0  0  0  0  0  0  0  0
   -3.1565    3.6943   -1.4141 H   0  0  0  0  0  0  0  0  0  0  0  0
   -4.3906    3.3645    0.7206 H   0  0  0  0  0  0  0  0  0  0  0  0
   -0.4421   -2.0930    0.4721 H   0  0  0  0  0  0  0  0  0  0  0  0
    3.0124   -3.3504    2.7786 H   0  0  0  0  0  0  0  0  0  0  0  0
    4.6196   -1.6855    1.6811 H   0  0  0  0  0  0  0  0  0  0  0  0
    2.8285    0.9389   -0.2211 H   0  0  0  0  0  0  0  0  0  0  0  0
    3.2465    0.3777   -2.6160 H   0  0  0  0  0  0  0  0  0  0  0  0
    3.4351   -1.3842   -2.2103 H   0  0  0  0  0  0  0  0  0  0  0  0
    5.3505   -0.8328   -0.6894 H   0  0  0  0  0  0  0  0  0  0  0  0
    5.1674    0.9321   -1.0793 H   0  0  0  0  0  0  0  0  0  0  0  0
  1  2  2  0
  2  3  1  0
  3  4  1  0
  4  5  2  0
  5  6  1  0
  6  7  2  0
  7  8  1  0
  8  9  1  0
  9 10  1  0
  9 11  1  0
  9 12  1  0
  8 13  2  0
  2 14  1  0
 14 15  1  0
 15 16  2  0
 16 17  1  0
 17 18  1  0
 18 19  2  0
 19 20  1  0
 20 21  1  0
 21 22  1  0
 13  4  1  0
 19 15  1  0
 22 20  1  0
  3 23  1  0
  3 24  1  0
  5 25  1  0
  6 26  1  0
  7 27  1  0
 14 28  1  0
 17 29  1  0
 18 30  1  0
 20 31  1  0
 21 32  1  0
 21 33  1  0
 22 34  1  0
 22 35  1  0
M  END
$$$$
OCNT-2318569
     RDKit          3D

 49 53  0  0  0  0  0  0  0  0999 V2000
   -2.6781   -0.2528   -3.7919 C   0  0  0  0  0  0  0  0  0  0  0  0
   -2.0498   -1.2527   -2.8223 C   0  0  0  0  0  0  0  0  0  0  0  0
   -2.8083   -1.3315   -1.4984 C   0  0  0  0  0  0  0  0  0  0  0  0
   -2.2276   -0.1800   -0.6431 C   0  0  0  0  0  0  0  0  0  0  0  0
   -2.1555   -0.5642    0.8174 C   0  0  0  0  0  0  0  0  0  0  0  0
   -1.3097   -1.5681    1.3052 C   0  0  0  0  0  0  0  0  0  0  0  0
   -1.2989   -1.8728    2.6631 C   0  0  0  0  0  0  0  0  0  0  0  0
   -2.1486   -1.1697    3.4987 C   0  0  0  0  0  0  0  0  0  0  0  0
   -2.9892   -0.2040    3.0723 N   0  0  0  0  0  0  0  0  0  0  0  0
   -2.9681    0.0777    1.7492 C   0  0  0  0  0  0  0  0  0  0  0  0
   -0.9414    0.1549   -1.3012 N   0  0  0  0  0  0  0  0  0  0  0  0
    0.1407    0.6274   -0.5637 C   0  0  0  0  0  0  0  0  0  0  0  0
    1.2439   -0.1460   -0.5365 N   0  0  0  0  0  0  0  0  0  0  0  0
    2.2641    0.2368    0.2467 C   0  0  0  0  0  0  0  0  0  0  0  0
    3.4503   -0.6382    0.2999 C   0  0  0  0  0  0  0  0  0  0  0  0
    3.5422   -1.7997   -0.4822 C   0  0  0  0  0  0  0  0  0  0  0  0
    4.6758   -2.5929   -0.3969 C   0  0  0  0  0  0  0  0  0  0  0  0
    5.7228   -2.3204    0.4065 N   0  0  0  0  0  0  0  0  0  0  0  0
    5.6314   -1.2031    1.1551 C   0  0  0  0  0  0  0  0  0  0  0  0
    4.5395   -0.3495    1.1361 C   0  0  0  0  0  0  0  0  0  0  0  0
    2.2755    1.3492    0.9951 N   0  0  0  0  0  0  0  0  0  0  0  0
    1.2056    2.1431    0.9256 C   0  0  0  0  0  0  0  0  0  0  0  0
    1.2155    3.3193    1.6661 C   0  0  0  0  0  0  0  0  0  0  0  0
    0.1560    4.2285    1.6275 C   0  0  0  0  0  0  0  0  0  0  0  0
   -0.9400    3.9690    0.8193 C   0  0  0  0  0  0  0  0  0  0  0  0
   -0.9726    2.7933    0.0727 C   0  0  0  0  0  0  0  0  0  0  0  0
    0.0870    1.8500    0.1349 C   0  0  0  0  0  0  0  0  0  0  0  0
   -0.6579   -0.8181   -2.3577 C   0  0  0  0  0  0  0  0  0  0  0  0
   -2.0848   -0.1857   -4.7098 H   0  0  0  0  0  0  0  0  0  0  0  0
   -3.6889   -0.5712   -4.0678 H   0  0  0  0  0  0  0  0  0  0  0  0
   -2.7486    0.7527   -3.3644 H   0  0  0  0  0  0  0  0  0  0  0  0
   -2.0093   -2.2321   -3.3119 H   0  0  0  0  0  0  0  0  0  0  0  0
   -2.6201   -2.3107   -1.0404 H   0  0  0  0  0  0  0  0  0  0  0  0
   -3.8936   -1.2403   -1.6182 H   0  0  0  0  0  0  0  0  0  0  0  0
   -2.8927    0.6837   -0.7637 H   0  0  0  0  0  0  0  0  0  0  0  0
   -0.6417   -2.1014    0.6329 H   0  0  0  0  0  0  0  0  0  0  0  0
   -0.6390   -2.6363    3.0587 H   0  0  0  0  0  0  0  0  0  0  0  0
   -2.1753   -1.3695    4.5659 H   0  0  0  0  0  0  0  0  0  0  0  0
   -3.6530    0.8684    1.4534 H   0  0  0  0  0  0  0  0  0  0  0  0
    2.7399   -2.0865   -1.1552 H   0  0  0  0  0  0  0  0  0  0  0  0
    4.7714   -3.4959   -0.9929 H   0  0  0  0  0  0  0  0  0  0  0  0
    6.4861   -1.0012    1.7943 H   0  0  0  0  0  0  0  0  0  0  0  0
    4.5406    0.5321    1.7705 H   0  0  0  0  0  0  0  0  0  0  0  0
    2.0795    3.5402    2.2892 H   0  0  0  0  0  0  0  0  0  0  0  0
    0.1997    5.1393    2.2188 H   0  0  0  0  0  0  0  0  0  0  0  0
   -1.7618    4.6779    0.7636 H   0  0  0  0  0  0  0  0  0  0  0  0
   -1.8195    2.6204   -0.5844 H   0  0  0  0  0  0  0  0  0  0  0  0
   -0.1228   -1.6929   -1.9659 H   0  0  0  0  0  0  0  0  0  0  0  0
   -0.0708   -0.3761   -3.1702 H   0  0  0  0  0  0  0  0  0  0  0  0
  1  2  1  0
  2  3  1  0
  3  4  1  0
  4  5  1  0
  5  6  1  0
  6  7  2  0
  7  8  1  0
  8  9  2  0
  9 10  1  0
  4 11  1  0
 11 12  1  0
 12 13  1  0
 13 14  2  0
 14 15  1  0
 15 16  2  0
 16 17  1  0
 17 18  2  0
 18 19  1  0
 19 20  2  0
 14 21  1  0
 21 22  2  0
 22 23  1  0
 23 24  2  0
 24 25  1  0
 25 26  2  0
 26 27  1  0
 11 28  1  0
 28  2  1  0
 10  5  2  0
 27 12  2  0
 20 15  1  0
 27 22  1  0
  1 29  1  0
  1 30  1  0
  1 31  1  0
  2 32  1  0
  3 33  1  0
  3 34  1  0
  4 35  1  0
  6 36  1  0
  7 37  1  0
  8 38  1  0
 10 39  1  0
 16 40  1  0
 17 41  1  0
 19 42  1  0
 20 43  1  0
 23 44  1  0
 24 45  1  0
 25 46  1  0
 26 47  1  0
 28 48  1  0
 28 49  1  0
M  END
$$$$
OCNT-2318570
     RDKit          3D

 41 44  0  0  0  0  0  0  0  0999 V2000
    3.1504   -1.9666    1.1701 C   0  0  0  0  0  0  0  0  0  0  0  0
    3.9038   -0.7361    1.0902 N   0  0  0  0  0  0  0  0  0  0  0  0
    4.8530   -0.4905    2.0167 N   0  0  0  0  0  0  0  0  0  0  0  0
    5.3263    0.7095    1.6814 C   0  0  0  0  0  0  0  0  0  0  0  0
    4.6915    1.2348    0.5442 C   0  0  0  0  0  0  0  0  0  0  0  0
    3.7678    0.2776    0.1725 C   0  0  0  0  0  0  0  0  0  0  0  0
    2.7998    0.2547   -0.9609 C   0  0  0  0  0  0  0  0  0  0  0  0
    1.4237    0.1656   -0.4744 N   0  0  0  0  0  0  0  0  0  0  0  0
    0.9443    1.4591    0.0559 C   0  0  0  0  0  0  0  0  0  0  0  0
   -0.4287    1.2253   -0.6931 C   0  0  0  0  0  0  0  0  0  0  0  0
   -0.9161    2.4190   -1.3781 O   0  0  0  0  0  0  0  0  0  0  0  0
   -1.6518    0.4766    0.0947 C   0  0  0  0  0  0  0  0  0  0  0  0
   -1.6415    0.3440    1.5032 C   0  0  0  0  0  0  0  0  0  0  0  0
   -2.6495   -0.3149    2.2040 C   0  0  0  0  0  0  0  0  0  0  0  0
   -3.7199   -0.8676    1.5170 C   0  0  0  0  0  0  0  0  0  0  0  0
   -3.8025   -0.7566    0.1264 C   0  0  0  0  0  0  0  0  0  0  0  0
   -4.9005   -1.3138   -0.5505 C   0  0  0  0  0  0  0  0  0  0  0  0
   -5.0192   -1.2085   -1.9339 C   0  0  0  0  0  0  0  0  0  0  0  0
   -4.0424   -0.5386   -2.6555 C   0  0  0  0  0  0  0  0  0  0  0  0
   -2.9439    0.0179   -1.9935 C   0  0  0  0  0  0  0  0  0  0  0  0
   -2.7814   -0.0786   -0.5941 C   0  0  0  0  0  0  0  0  0  0  0  0
    0.4611    0.2730   -1.5904 C   0  0  0  0  0  0  0  0  0  0  0  0
    2.2066   -1.7564    1.6786 H   0  0  0  0  0  0  0  0  0  0  0  0
    2.9747   -2.3489    0.1623 H   0  0  0  0  0  0  0  0  0  0  0  0
    3.7261   -2.7031    1.7375 H   0  0  0  0  0  0  0  0  0  0  0  0
    6.1140    1.1489    2.2796 H   0  0  0  0  0  0  0  0  0  0  0  0
    4.8809    2.1820    0.0602 H   0  0  0  0  0  0  0  0  0  0  0  0
    3.0188   -0.6195   -1.5875 H   0  0  0  0  0  0  0  0  0  0  0  0
    2.9593    1.1355   -1.5979 H   0  0  0  0  0  0  0  0  0  0  0  0
    1.4824    2.3497   -0.2986 H   0  0  0  0  0  0  0  0  0  0  0  0
    0.9229    1.5172    1.1465 H   0  0  0  0  0  0  0  0  0  0  0  0
   -0.1341    2.8172   -1.7934 H   0  0  0  0  0  0  0  0  0  0  0  0
   -0.8223    0.7604    2.0829 H   0  0  0  0  0  0  0  0  0  0  0  0
   -2.5952   -0.3964    3.2864 H   0  0  0  0  0  0  0  0  0  0  0  0
   -4.4964   -1.3806    2.0796 H   0  0  0  0  0  0  0  0  0  0  0  0
   -5.6803   -1.8345    0.0013 H   0  0  0  0  0  0  0  0  0  0  0  0
   -5.8762   -1.6409   -2.4425 H   0  0  0  0  0  0  0  0  0  0  0  0
   -4.1325   -0.4387   -3.7338 H   0  0  0  0  0  0  0  0  0  0  0  0
   -2.2158    0.5515   -2.5984 H   0  0  0  0  0  0  0  0  0  0  0  0
    0.0105   -0.6834   -1.8740 H   0  0  0  0  0  0  0  0  0  0  0  0
    0.8325    0.7548   -2.5047 H   0  0  0  0  0  0  0  0  0  0  0  0
  1  2  1  0
  2  3  1  0
  3  4  2  0
  4  5  1  0
  5  6  2  0
  6  7  1  0
  7  8  1  0
  8  9  1  0
  9 10  1  0
 10 11  1  0
 10 12  1  0
 12 13  2  0
 13 14  1  0
 14 15  2  0
 15 16  1  0
 16 17  2  0
 17 18  1  0
 18 19  2  0
 19 20  1  0
 20 21  2  0
 10 22  1  0
  6  2  1  0
 22  8  1  0
 21 12  1  0
 21 16  1  0
  1 23  1  0
  1 24  1  0
  1 25  1  0
  4 26  1  0
  5 27  1  0
  7 28  1  0
  7 29  1  0
  9 30  1  0
  9 31  1  0
 11 32  1  0
 13 33  1  0
 14 34  1  0
 15 35  1  0
 17 36  1  0
 18 37  1  0
 19 38  1  0
 20 39  1  0
 22 40  1  0
 22 41  1  0
M  END
$$$$
OCNT-2318576
     RDKit          3D

 63 65  0  0  0  0  0  0  0  0999 V2000
   -2.3712   -3.1185    1.0450 O   0  0  0  0  0  0  0  0  0  0  0  0
   -1.5152   -2.3288    1.4167 C   0  0  0  0  0  0  0  0  0  0  0  0
   -0.3028   -2.6710    1.9494 N   0  0  0  0  0  0  0  0  0  0  0  0
    0.1220   -4.0503    2.0735 C   0  0  0  0  0  0  0  0  0  0  0  0
    1.3513   -4.4208    1.2157 C   0  0  0  0  0  0  0  0  0  0  0  0
    1.0724   -4.3969   -0.2924 C   0  0  0  0  0  0  0  0  0  0  0  0
    1.0119   -2.9877   -0.8986 C   0  0  0  0  0  0  0  0  0  0  0  0
    1.6870   -1.9659   -0.0799 N   0  0  0  0  0  0  0  0  0  0  0  0
    1.9139   -0.7300   -0.8598 C   0  0  0  0  0  0  0  0  0  0  0  0
    2.0562    0.5249    0.0500 C   0  0  0  0  0  0  0  0  0  0  0  0
    0.9671    0.5458    0.9902 O   0  0  0  0  0  0  0  0  0  0  0  0
    2.0970    1.8672   -0.6600 C   0  0  0  0  0  0  0  0  0  0  0  0
    1.9564    3.0430    0.0997 C   0  0  0  0  0  0  0  0  0  0  0  0
    2.0092    4.3025   -0.4991 C   0  0  0  0  0  0  0  0  0  0  0  0
    2.2075    4.4119   -1.8713 C   0  0  0  0  0  0  0  0  0  0  0  0
    2.3605    3.2626   -2.6414 C   0  0  0  0  0  0  0  0  0  0  0  0
    2.3118    2.0005   -2.0409 C   0  0  0  0  0  0  0  0  0  0  0  0
    2.9207   -2.5020    0.4985 C   0  0  0  0  0  0  0  0  0  0  0  0
    2.5897   -3.5653    1.5545 C   0  0  0  0  0  0  0  0  0  0  0  0
   -1.6462   -0.9668    1.3397 N   0  0  0  0  0  0  0  0  0  0  0  0
   -2.8929   -0.3689    0.8793 C   0  0  0  0  0  0  0  0  0  0  0  0
   -4.0112   -0.5015    1.9454 C   0  0  0  0  0  0  0  0  0  0  0  0
   -5.2702   -0.0188    1.4776 O   0  0  0  0  0  0  0  0  0  0  0  0
   -2.5955    1.0462    0.4004 C   0  0  0  0  0  0  0  0  0  0  0  0
   -2.0279    1.2232   -0.8745 C   0  0  0  0  0  0  0  0  0  0  0  0
   -1.7091    2.4976   -1.3521 C   0  0  0  0  0  0  0  0  0  0  0  0
   -1.9466    3.6306   -0.5644 C   0  0  0  0  0  0  0  0  0  0  0  0
   -1.6383    5.0175   -1.0696 C   0  0  0  0  0  0  0  0  0  0  0  0
   -1.0269    5.0410   -2.2876 F   0  0  0  0  0  0  0  0  0  0  0  0
   -2.7639    5.7743   -1.2118 F   0  0  0  0  0  0  0  0  0  0  0  0
   -0.8285    5.7217   -0.2291 F   0  0  0  0  0  0  0  0  0  0  0  0
   -2.4997    3.4588    0.7123 C   0  0  0  0  0  0  0  0  0  0  0  0
   -2.8153    2.1830    1.1906 C   0  0  0  0  0  0  0  0  0  0  0  0
    0.4356   -2.0033    1.7482 H   0  0  0  0  0  0  0  0  0  0  0  0
    0.3692   -4.1951    3.1310 H   0  0  0  0  0  0  0  0  0  0  0  0
   -0.7094   -4.7256    1.8432 H   0  0  0  0  0  0  0  0  0  0  0  0
    1.5884   -5.4593    1.4854 H   0  0  0  0  0  0  0  0  0  0  0  0
    0.1497   -4.9424   -0.5231 H   0  0  0  0  0  0  0  0  0  0  0  0
    1.8839   -4.9455   -0.7892 H   0  0  0  0  0  0  0  0  0  0  0  0
   -0.0373   -2.6970   -1.0284 H   0  0  0  0  0  0  0  0  0  0  0  0
    1.4472   -3.0330   -1.9063 H   0  0  0  0  0  0  0  0  0  0  0  0
    1.0360   -0.5656   -1.5002 H   0  0  0  0  0  0  0  0  0  0  0  0
    2.7804   -0.8402   -1.5235 H   0  0  0  0  0  0  0  0  0  0  0  0
    2.9786    0.4444    0.6361 H   0  0  0  0  0  0  0  0  0  0  0  0
    0.2627    0.0065    0.5834 H   0  0  0  0  0  0  0  0  0  0  0  0
    1.7936    2.9765    1.1750 H   0  0  0  0  0  0  0  0  0  0  0  0
    1.8854    5.1969    0.1064 H   0  0  0  0  0  0  0  0  0  0  0  0
    2.2392    5.3925   -2.3387 H   0  0  0  0  0  0  0  0  0  0  0  0
    2.5190    3.3482   -3.7136 H   0  0  0  0  0  0  0  0  0  0  0  0
    2.4466    1.1333   -2.6808 H   0  0  0  0  0  0  0  0  0  0  0  0
    3.5101   -1.7194    0.9894 H   0  0  0  0  0  0  0  0  0  0  0  0
    3.5614   -2.9304   -0.2841 H   0  0  0  0  0  0  0  0  0  0  0  0
    2.4652   -3.0874    2.5346 H   0  0  0  0  0  0  0  0  0  0  0  0
    3.4619   -4.2246    1.6534 H   0  0  0  0  0  0  0  0  0  0  0  0
   -1.1360   -0.4515    2.0476 H   0  0  0  0  0  0  0  0  0  0  0  0
   -3.2356   -0.9366    0.0024 H   0  0  0  0  0  0  0  0  0  0  0  0
   -4.1529   -1.5488    2.2332 H   0  0  0  0  0  0  0  0  0  0  0  0
   -3.7574    0.0383    2.8634 H   0  0  0  0  0  0  0  0  0  0  0  0
   -5.5275   -0.5768    0.7224 H   0  0  0  0  0  0  0  0  0  0  0  0
   -1.8267    0.3588   -1.5058 H   0  0  0  0  0  0  0  0  0  0  0  0
   -1.2668    2.6001   -2.3420 H   0  0  0  0  0  0  0  0  0  0  0  0
   -2.6922    4.3255    1.3441 H   0  0  0  0  0  0  0  0  0  0  0  0
   -3.2459    2.1027    2.1856 H   0  0  0  0  0  0  0  0  0  0  0  0
  1  2  2  0
  2  3  1  0
  3  4  1  0
  4  5  1  0
  5  6  1  0
  6  7  1  0
  7  8  1  0
  8  9  1  0
  9 10  1  0
 10 11  1  0
 10 12  1  0
 12 13  2  0
 13 14  1  0
 14 15  2  0
 15 16  1  0
 16 17  2  0
  8 18  1  0
 18 19  1  0
  2 20  1  0
 20 21  1  0
 21 22  1  0
 22 23  1  0
 21 24  1  0
 24 25  1  0
 25 26  2  0
 26 27  1  0
 27 28  1  0
 28 29  1  0
 28 30  1  0
 28 31  1  0
 27 32  2  0
 32 33  1  0
 19  5  1  0
 33 24  2  0
 17 12  1  0
  3 34  1  0
  4 35  1  0
  4 36  1  0
  5 37  1  0
  6 38  1  0
  6 39  1  0
  7 40  1  0
  7 41  1  0
  9 42  1  0
  9 43  1  0
 10 44  1  0
 11 45  1  0
 13 46  1  0
 14 47  1  0
 15 48  1  0
 16 49  1  0
 17 50  1  0
 18 51  1  0
 18 52  1  0
 19 53  1  0
 19 54  1  0
 20 55  1  0
 21 56  1  0
 22 57  1  0
 22 58  1  0
 23 59  1  0
 25 60  1  0
 26 61  1  0
 32 62  1  0
 33 63  1  0
M  END
$$$$
OCNT-2318584
     RDKit          3D

 56 58  0  0  0  0  0  0  0  0999 V2000
   -5.2394    0.1301    2.2544 C   0  0  0  0  0  0  0  0  0  0  0  0
   -4.0666   -0.3843    2.8722 O   0  0  0  0  0  0  0  0  0  0  0  0
   -2.9475   -0.4803    2.0899 C   0  0  0  0  0  0  0  0  0  0  0  0
   -1.8469   -1.0635    2.7174 C   0  0  0  0  0  0  0  0  0  0  0  0
   -0.6461   -1.2290    2.0291 C   0  0  0  0  0  0  0  0  0  0  0  0
   -0.5341   -0.7992    0.7061 C   0  0  0  0  0  0  0  0  0  0  0  0
   -1.6157   -0.1841    0.0587 C   0  0  0  0  0  0  0  0  0  0  0  0
   -1.5429    0.3071   -1.3926 C   0  0  0  0  0  0  0  0  0  0  0  0
   -0.1623    0.9217   -1.7935 C   0  0  0  0  0  0  0  0  0  0  0  0
    0.1890    2.0735   -0.9308 N   0  0  0  0  0  0  0  0  0  0  0  0
    1.7214    2.7295   -1.0818 S   0  0  0  0  0  0  0  0  0  0  0  0
    2.1378    2.5591   -2.4562 O   0  0  0  0  0  0  0  0  0  0  0  0
    1.6547    4.0407   -0.4768 O   0  0  0  0  0  0  0  0  0  0  0  0
    2.7173    1.6688   -0.0411 C   0  0  0  0  0  0  0  0  0  0  0  0
    2.2975    1.7156    1.4231 C   0  0  0  0  0  0  0  0  0  0  0  0
    3.0390    0.7099    2.3037 C   0  0  0  0  0  0  0  0  0  0  0  0
    4.5454    0.9353    2.4140 C   0  0  0  0  0  0  0  0  0  0  0  0
    5.1418   -0.1923    1.6056 C   0  0  0  0  0  0  0  0  0  0  0  0
    4.1138   -1.2843    1.7791 C   0  0  0  0  0  0  0  0  0  0  0  0
    2.8472   -0.6162    1.7772 O   0  0  0  0  0  0  0  0  0  0  0  0
   -2.0830   -0.7280   -2.2937 N   0  0  0  0  0  0  0  0  0  0  0  0
   -1.2300   -1.8892   -2.5242 C   0  0  0  0  0  0  0  0  0  0  0  0
   -1.9459   -2.6163   -3.6548 C   0  0  0  0  0  0  0  0  0  0  0  0
   -2.7655   -1.5451   -4.3671 C   0  0  0  0  0  0  0  0  0  0  0  0
   -2.4674   -0.2530   -3.6201 C   0  0  0  0  0  0  0  0  0  0  0  0
   -2.8304   -0.0493    0.7651 C   0  0  0  0  0  0  0  0  0  0  0  0
   -5.5611   -0.5074    1.4236 H   0  0  0  0  0  0  0  0  0  0  0  0
   -6.0377    0.1300    3.0018 H   0  0  0  0  0  0  0  0  0  0  0  0
   -5.0935    1.1644    1.9263 H   0  0  0  0  0  0  0  0  0  0  0  0
   -1.9278   -1.3987    3.7486 H   0  0  0  0  0  0  0  0  0  0  0  0
    0.2064   -1.6894    2.5229 H   0  0  0  0  0  0  0  0  0  0  0  0
    0.4140   -0.9548    0.1994 H   0  0  0  0  0  0  0  0  0  0  0  0
   -2.2481    1.1520   -1.4355 H   0  0  0  0  0  0  0  0  0  0  0  0
    0.6332    0.1722   -1.7435 H   0  0  0  0  0  0  0  0  0  0  0  0
   -0.2180    1.2907   -2.8237 H   0  0  0  0  0  0  0  0  0  0  0  0
   -0.5240    2.7919   -0.8013 H   0  0  0  0  0  0  0  0  0  0  0  0
    2.6515    0.6602   -0.4590 H   0  0  0  0  0  0  0  0  0  0  0  0
    3.7469    2.0181   -0.1617 H   0  0  0  0  0  0  0  0  0  0  0  0
    2.4377    2.7271    1.8207 H   0  0  0  0  0  0  0  0  0  0  0  0
    1.2259    1.5018    1.4923 H   0  0  0  0  0  0  0  0  0  0  0  0
    2.5925    0.7364    3.3060 H   0  0  0  0  0  0  0  0  0  0  0  0
    4.8486    0.8298    3.4639 H   0  0  0  0  0  0  0  0  0  0  0  0
    4.8745    1.9251    2.0835 H   0  0  0  0  0  0  0  0  0  0  0  0
    5.2054    0.0989    0.5506 H   0  0  0  0  0  0  0  0  0  0  0  0
    6.1406   -0.4881    1.9388 H   0  0  0  0  0  0  0  0  0  0  0  0
    4.1414   -2.0241    0.9748 H   0  0  0  0  0  0  0  0  0  0  0  0
    4.2291   -1.7983    2.7401 H   0  0  0  0  0  0  0  0  0  0  0  0
   -0.2275   -1.6071   -2.8590 H   0  0  0  0  0  0  0  0  0  0  0  0
   -1.1385   -2.5311   -1.6455 H   0  0  0  0  0  0  0  0  0  0  0  0
   -1.2338   -3.0985   -4.3326 H   0  0  0  0  0  0  0  0  0  0  0  0
   -2.6127   -3.3912   -3.2585 H   0  0  0  0  0  0  0  0  0  0  0  0
   -2.4989   -1.4684   -5.4264 H   0  0  0  0  0  0  0  0  0  0  0  0
   -3.8323   -1.7926   -4.3066 H   0  0  0  0  0  0  0  0  0  0  0  0
   -1.6539    0.2784   -4.1272 H   0  0  0  0  0  0  0  0  0  0  0  0
   -3.3459    0.4000   -3.5891 H   0  0  0  0  0  0  0  0  0  0  0  0
   -3.6751    0.3955    0.2476 H   0  0  0  0  0  0  0  0  0  0  0  0
  1  2  1  0
  2  3  1  0
  3  4  1  0
  4  5  2  0
  5  6  1  0
  6  7  2  0
  7  8  1  0
  8  9  1  0
  9 10  1  0
 10 11  1  0
 11 12  2  0
 11 13  2  0
 11 14  1  0
 14 15  1  0
 15 16  1  0
 16 17  1  0
 17 18  1  0
 18 19  1  0
 19 20  1  0
  8 21  1  0
 21 22  1  0
 22 23  1  0
 23 24  1  0
 24 25  1  0
  7 26  1  0
 26  3  2  0
 20 16  1  0
 25 21  1  0
  1 27  1  0
  1 28  1  0
  1 29  1  0
  4 30  1  0
  5 31  1  0
  6 32  1  0
  8 33  1  0
  9 34  1  0
  9 35  1  0
 10 36  1  0
 14 37  1  0
 14 38  1  0
 15 39  1  0
 15 40  1  0
 16 41  1  0
 17 42  1  0
 17 43  1  0
 18 44  1  0
 18 45  1  0
 19 46  1  0
 19 47  1  0
 22 48  1  0
 22 49  1  0
 23 50  1  0
 23 51  1  0
 24 52  1  0
 24 53  1  0
 25 54  1  0
 25 55  1  0
 26 56  1  0
M  END
$$$$
OCNT-2318585
     RDKit          3D

 41 44  0  0  0  0  0  0  0  0999 V2000
    5.1202   -1.9134   -1.1861 C   0  0  0  0  0  0  0  0  0  0  0  0
    3.7759   -1.2546   -1.0149 C   0  0  0  0  0  0  0  0  0  0  0  0
    2.7894   -1.5726   -1.9651 C   0  0  0  0  0  0  0  0  0  0  0  0
    1.5064   -1.0220   -1.9038 C   0  0  0  0  0  0  0  0  0  0  0  0
    1.1466   -0.1570   -0.8746 C   0  0  0  0  0  0  0  0  0  0  0  0
   -0.0938    0.4756   -0.7934 N   0  0  0  0  0  0  0  0  0  0  0  0
   -1.2403   -0.0589   -1.5176 C   0  0  0  0  0  0  0  0  0  0  0  0
   -2.4994    0.6467   -1.0540 C   0  0  0  0  0  0  0  0  0  0  0  0
   -2.9487    1.7490   -1.8046 C   0  0  0  0  0  0  0  0  0  0  0  0
   -4.0917    2.4466   -1.4321 C   0  0  0  0  0  0  0  0  0  0  0  0
   -4.7986    2.0602   -0.2975 C   0  0  0  0  0  0  0  0  0  0  0  0
   -4.3697    0.9792    0.4863 C   0  0  0  0  0  0  0  0  0  0  0  0
   -5.0917    0.6173    1.6356 C   0  0  0  0  0  0  0  0  0  0  0  0
   -4.6806   -0.4453    2.4378 C   0  0  0  0  0  0  0  0  0  0  0  0
   -3.5392   -1.1593    2.1014 C   0  0  0  0  0  0  0  0  0  0  0  0
   -2.8111   -0.8131    0.9602 C   0  0  0  0  0  0  0  0  0  0  0  0
   -3.2048    0.2564    0.1211 C   0  0  0  0  0  0  0  0  0  0  0  0
    2.1404    0.1996    0.0507 C   0  0  0  0  0  0  0  0  0  0  0  0
    3.4471   -0.3395    0.0094 C   0  0  0  0  0  0  0  0  0  0  0  0
    4.3807    0.0731    1.0058 N   0  0  0  0  0  0  0  0  0  0  0  0
    4.2081    0.9619    2.0446 C   0  0  0  0  0  0  0  0  0  0  0  0
    5.3176    1.0549    2.7407 N   0  0  0  0  0  0  0  0  0  0  0  0
    6.2044    0.2148    2.1311 N   0  0  0  0  0  0  0  0  0  0  0  0
    5.6522   -0.3810    1.0853 N   0  0  0  0  0  0  0  0  0  0  0  0
    5.3655   -2.5238   -0.3117 H   0  0  0  0  0  0  0  0  0  0  0  0
    5.8970   -1.1645   -1.3685 H   0  0  0  0  0  0  0  0  0  0  0  0
    5.1295   -2.5897   -2.0487 H   0  0  0  0  0  0  0  0  0  0  0  0
    3.0158   -2.2562   -2.7825 H   0  0  0  0  0  0  0  0  0  0  0  0
    0.8023   -1.2903   -2.6858 H   0  0  0  0  0  0  0  0  0  0  0  0
   -0.3361    0.7695    0.1498 H   0  0  0  0  0  0  0  0  0  0  0  0
   -1.3460   -1.1409   -1.3758 H   0  0  0  0  0  0  0  0  0  0  0  0
   -1.1097    0.1001   -2.5956 H   0  0  0  0  0  0  0  0  0  0  0  0
   -2.3985    2.0709   -2.6871 H   0  0  0  0  0  0  0  0  0  0  0  0
   -4.4304    3.2940   -2.0225 H   0  0  0  0  0  0  0  0  0  0  0  0
   -5.6904    2.6199   -0.0227 H   0  0  0  0  0  0  0  0  0  0  0  0
   -5.9870    1.1674    1.9182 H   0  0  0  0  0  0  0  0  0  0  0  0
   -5.2509   -0.7112    3.3238 H   0  0  0  0  0  0  0  0  0  0  0  0
   -3.2114   -1.9876    2.7244 H   0  0  0  0  0  0  0  0  0  0  0  0
   -1.9213   -1.3982    0.7406 H   0  0  0  0  0  0  0  0  0  0  0  0
    1.8548    0.9227    0.8094 H   0  0  0  0  0  0  0  0  0  0  0  0
    3.2972    1.4990    2.2500 H   0  0  0  0  0  0  0  0  0  0  0  0
  1  2  1  0
  2  3  1  0
  3  4  2  0
  4  5  1  0
  5  6  1  0
  6  7  1  0
  7  8  1  0
  8  9  2  0
  9 10  1  0
 10 11  2  0
 11 12  1  0
 12 13  2  0
 13 14  1  0
 14 15  2  0
 15 16  1  0
 16 17  2  0
  5 18  2  0
 18 19  1  0
 19 20  1  0
 20 21  1  0
 21 22  2  0
 22 23  1  0
 23 24  2  0
 19  2  2  0
 24 20  1  0
 17  8  1  0
 17 12  1  0
  1 25  1  0
  1 26  1  0
  1 27  1  0
  3 28  1  0
  4 29  1  0
  6 30  1  0
  7 31  1  0
  7 32  1  0
  9 33  1  0
 10 34  1  0
 11 35  1  0
 13 36  1  0
 14 37  1  0
 15 38  1  0
 16 39  1  0
 18 40  1  0
 21 41  1  0
M  END
$$$$
OCNT-2318618
     RDKit          3D

 52 56  0  0  0  0  0  0  0  0999 V2000
    6.6284    0.0568    2.1281 C   0  0  0  0  0  0  0  0  0  0  0  0
    6.0131    1.1290    1.4265 O   0  0  0  0  0  0  0  0  0  0  0  0
    4.9045    0.8343    0.6756 C   0  0  0  0  0  0  0  0  0  0  0  0
    4.4001   -0.4525    0.4656 C   0  0  0  0  0  0  0  0  0  0  0  0
    3.2596   -0.6596   -0.3285 C   0  0  0  0  0  0  0  0  0  0  0  0
    2.5930    0.4360   -0.8986 C   0  0  0  0  0  0  0  0  0  0  0  0
    3.1102    1.7246   -0.6938 C   0  0  0  0  0  0  0  0  0  0  0  0
    4.2591    1.9334    0.0857 C   0  0  0  0  0  0  0  0  0  0  0  0
    4.7826    3.3294    0.2846 C   0  0  0  0  0  0  0  0  0  0  0  0
    1.3608    0.2674   -1.7675 C   0  0  0  0  0  0  0  0  0  0  0  0
    0.7869   -1.0887   -1.7328 N   0  0  0  0  0  0  0  0  0  0  0  0
   -0.3024   -1.3064   -0.9372 C   0  0  0  0  0  0  0  0  0  0  0  0
   -0.4526   -2.1987    0.0176 N   0  0  0  0  0  0  0  0  0  0  0  0
   -1.7080   -2.0610    0.5474 N   0  0  0  0  0  0  0  0  0  0  0  0
   -2.3395   -1.1000   -0.1049 C   0  0  0  0  0  0  0  0  0  0  0  0
   -3.7000   -0.6744    0.1899 C   0  0  0  0  0  0  0  0  0  0  0  0
   -4.6525   -1.5789    0.6866 C   0  0  0  0  0  0  0  0  0  0  0  0
   -5.9424   -1.1404    0.9977 C   0  0  0  0  0  0  0  0  0  0  0  0
   -6.9419   -2.1313    1.5247 C   0  0  0  0  0  0  0  0  0  0  0  0
   -6.3685    0.1400    0.8633 N   0  0  0  0  0  0  0  0  0  0  0  0
   -5.4105    0.9650    0.4114 C   0  0  0  0  0  0  0  0  0  0  0  0
   -4.1000    0.6638    0.0616 C   0  0  0  0  0  0  0  0  0  0  0  0
   -3.4473    1.8091   -0.3521 N   0  0  0  0  0  0  0  0  0  0  0  0
   -4.3366    2.7733   -0.2437 C   0  0  0  0  0  0  0  0  0  0  0  0
   -5.5383    2.3077    0.2101 N   0  0  0  0  0  0  0  0  0  0  0  0
   -1.5082   -0.6611   -1.1147 N   0  0  0  0  0  0  0  0  0  0  0  0
   -1.8765    0.1268   -2.2635 C   0  0  0  0  0  0  0  0  0  0  0  0
    1.8051   -2.1509   -1.7368 C   0  0  0  0  0  0  0  0  0  0  0  0
    2.7221   -2.0568   -0.5153 C   0  0  0  0  0  0  0  0  0  0  0  0
    7.4517    0.4722    2.7170 H   0  0  0  0  0  0  0  0  0  0  0  0
    5.9282   -0.4163    2.8245 H   0  0  0  0  0  0  0  0  0  0  0  0
    7.0532   -0.6751    1.4334 H   0  0  0  0  0  0  0  0  0  0  0  0
    4.8757   -1.3212    0.9097 H   0  0  0  0  0  0  0  0  0  0  0  0
    2.6086    2.5792   -1.1446 H   0  0  0  0  0  0  0  0  0  0  0  0
    5.7982    3.4133   -0.1158 H   0  0  0  0  0  0  0  0  0  0  0  0
    4.1615    4.0693   -0.2305 H   0  0  0  0  0  0  0  0  0  0  0  0
    4.7878    3.5855    1.3489 H   0  0  0  0  0  0  0  0  0  0  0  0
    0.6243    1.0232   -1.4718 H   0  0  0  0  0  0  0  0  0  0  0  0
    1.6475    0.4836   -2.8043 H   0  0  0  0  0  0  0  0  0  0  0  0
   -4.3791   -2.6215    0.8338 H   0  0  0  0  0  0  0  0  0  0  0  0
   -7.9028   -1.6464    1.7249 H   0  0  0  0  0  0  0  0  0  0  0  0
   -7.1076   -2.9268    0.7916 H   0  0  0  0  0  0  0  0  0  0  0  0
   -6.5807   -2.5709    2.4595 H   0  0  0  0  0  0  0  0  0  0  0  0
   -4.1710    3.8177   -0.4740 H   0  0  0  0  0  0  0  0  0  0  0  0
   -6.3758    2.8416    0.3851 H   0  0  0  0  0  0  0  0  0  0  0  0
   -1.3216   -0.2228   -3.1386 H   0  0  0  0  0  0  0  0  0  0  0  0
   -2.9418    0.0055   -2.4732 H   0  0  0  0  0  0  0  0  0  0  0  0
   -1.6347    1.1727   -2.0664 H   0  0  0  0  0  0  0  0  0  0  0  0
    1.3407   -3.1439   -1.7889 H   0  0  0  0  0  0  0  0  0  0  0  0
    2.4025   -2.0499   -2.6530 H   0  0  0  0  0  0  0  0  0  0  0  0
    3.5514   -2.7623   -0.6449 H   0  0  0  0  0  0  0  0  0  0  0  0
    2.1835   -2.3425    0.3954 H   0  0  0  0  0  0  0  0  0  0  0  0
  1  2  1  0
  2  3  1  0
  3  4  2  0
  4  5  1  0
  5  6  2  0
  6  7  1  0
  7  8  2  0
  8  9  1  0
  6 10  1  0
 10 11  1  0
 11 12  1  0
 12 13  2  0
 13 14  1  0
 14 15  2  0
 15 16  1  0
 16 17  1  0
 17 18  2  0
 18 19  1  0
 18 20  1  0
 20 21  2  0
 21 22  1  0
 22 23  1  0
 23 24  2  0
 24 25  1  0
 15 26  1  0
 26 27  1  0
 11 28  1  0
 28 29  1  0
  8  3  1  0
 26 12  1  0
 29  5  1  0
 22 16  2  0
 25 21  1  0
  1 30  1  0
  1 31  1  0
  1 32  1  0
  4 33  1  0
  7 34  1  0
  9 35  1  0
  9 36  1  0
  9 37  1  0
 10 38  1  0
 10 39  1  0
 17 40  1  0
 19 41  1  0
 19 42  1  0
 19 43  1  0
 24 44  1  0
 25 45  1  0
 27 46  1  0
 27 47  1  0
 27 48  1  0
 28 49  1  0
 28 50  1  0
 29 51  1  0
 29 52  1  0
M  END
$$$$
OCNT-2318623
     RDKit          3D

 52 56  0  0  0  0  0  0  0  0999 V2000
    4.8960   -3.5619    3.1829 C   0  0  0  0  0  0  0  0  0  0  0  0
    4.0512   -3.8860    2.0884 O   0  0  0  0  0  0  0  0  0  0  0  0
    3.0560   -2.9931    1.7746 C   0  0  0  0  0  0  0  0  0  0  0  0
    2.6440   -1.9490    2.6076 C   0  0  0  0  0  0  0  0  0  0  0  0
    1.6033   -1.0909    2.2202 C   0  0  0  0  0  0  0  0  0  0  0  0
    0.9785   -1.2470    0.9764 C   0  0  0  0  0  0  0  0  0  0  0  0
    1.3837   -2.3180    0.1550 C   0  0  0  0  0  0  0  0  0  0  0  0
    2.4132   -3.1868    0.5397 C   0  0  0  0  0  0  0  0  0  0  0  0
    2.8639   -4.2430   -0.2170 O   0  0  0  0  0  0  0  0  0  0  0  0
    2.2920   -4.4230   -1.5031 C   0  0  0  0  0  0  0  0  0  0  0  0
   -0.1419   -0.2961    0.5040 C   0  0  0  0  0  0  0  0  0  0  0  0
    0.2998    0.4071   -0.7745 C   0  0  0  0  0  0  0  0  0  0  0  0
    1.2676    1.3867   -0.9247 C   0  0  0  0  0  0  0  0  0  0  0  0
    1.4004    1.8242   -2.2721 C   0  0  0  0  0  0  0  0  0  0  0  0
    0.5354    1.1638   -3.1139 C   0  0  0  0  0  0  0  0  0  0  0  0
   -0.4105    0.0019   -2.2886 S   0  0  0  0  0  0  0  0  0  0  0  0
   -0.5679    0.7339    1.5056 N   0  0  0  0  0  0  0  0  0  0  0  0
   -2.0012    1.0829    1.3583 C   0  0  0  0  0  0  0  0  0  0  0  0
   -2.3138    1.9505    0.1966 C   0  0  0  0  0  0  0  0  0  0  0  0
   -1.8448    3.1535   -0.2778 C   0  0  0  0  0  0  0  0  0  0  0  0
   -2.5580    3.5316   -1.3864 N   0  0  0  0  0  0  0  0  0  0  0  0
   -3.4243    2.5520   -1.5579 C   0  0  0  0  0  0  0  0  0  0  0  0
   -4.4771    2.5234   -2.7073 C   0  0  0  0  0  0  0  0  0  0  0  0
   -5.3454    3.7362   -2.9296 C   0  0  0  0  0  0  0  0  0  0  0  0
   -4.2817    3.3814   -3.9307 C   0  0  0  0  0  0  0  0  0  0  0  0
   -3.3358    1.5561   -0.6220 O   0  0  0  0  0  0  0  0  0  0  0  0
   -0.3339    0.2934    2.8884 C   0  0  0  0  0  0  0  0  0  0  0  0
    1.1465    0.0092    3.1327 C   0  0  0  0  0  0  0  0  0  0  0  0
    5.3439   -2.5702    3.0615 H   0  0  0  0  0  0  0  0  0  0  0  0
    4.3557   -3.6388    4.1332 H   0  0  0  0  0  0  0  0  0  0  0  0
    5.7086   -4.2920    3.2048 H   0  0  0  0  0  0  0  0  0  0  0  0
    3.1046   -1.7926    3.5784 H   0  0  0  0  0  0  0  0  0  0  0  0
    0.8810   -2.4516   -0.7976 H   0  0  0  0  0  0  0  0  0  0  0  0
    2.7901   -5.2760   -1.9718 H   0  0  0  0  0  0  0  0  0  0  0  0
    1.2265   -4.6593   -1.4304 H   0  0  0  0  0  0  0  0  0  0  0  0
    2.4619   -3.5482   -2.1401 H   0  0  0  0  0  0  0  0  0  0  0  0
   -0.9986   -0.9600    0.3016 H   0  0  0  0  0  0  0  0  0  0  0  0
    1.8426    1.7778   -0.0936 H   0  0  0  0  0  0  0  0  0  0  0  0
    2.0891    2.5911   -2.6064 H   0  0  0  0  0  0  0  0  0  0  0  0
    0.4231    1.3002   -4.1821 H   0  0  0  0  0  0  0  0  0  0  0  0
   -2.3269    1.6534    2.2396 H   0  0  0  0  0  0  0  0  0  0  0  0
   -2.6240    0.1775    1.3453 H   0  0  0  0  0  0  0  0  0  0  0  0
   -1.0452    3.7572    0.1222 H   0  0  0  0  0  0  0  0  0  0  0  0
   -4.9334    1.5511   -2.8530 H   0  0  0  0  0  0  0  0  0  0  0  0
   -6.3800    3.5735   -3.2018 H   0  0  0  0  0  0  0  0  0  0  0  0
   -5.1792    4.6100   -2.3101 H   0  0  0  0  0  0  0  0  0  0  0  0
   -4.5956    2.9781   -4.8855 H   0  0  0  0  0  0  0  0  0  0  0  0
   -3.4002    4.0126   -3.9824 H   0  0  0  0  0  0  0  0  0  0  0  0
   -0.6325    1.0858    3.5854 H   0  0  0  0  0  0  0  0  0  0  0  0
   -0.9397   -0.5931    3.1237 H   0  0  0  0  0  0  0  0  0  0  0  0
    1.2795   -0.2857    4.1797 H   0  0  0  0  0  0  0  0  0  0  0  0
    1.7535    0.9064    2.9548 H   0  0  0  0  0  0  0  0  0  0  0  0
  1  2  1  0
  2  3  1  0
  3  4  2  0
  4  5  1  0
  5  6  2  0
  6  7  1  0
  7  8  2  0
  8  9  1  0
  9 10  1  0
  6 11  1  0
 11 12  1  0
 12 13  2  0
 13 14  1  0
 14 15  2  0
 15 16  1  0
 11 17  1  0
 17 18  1  0
 18 19  1  0
 19 20  2  0
 20 21  1  0
 21 22  2  0
 22 23  1  0
 23 24  1  0
 24 25  1  0
 22 26  1  0
 17 27  1  0
 27 28  1  0
  8  3  1  0
 16 12  1  0
 26 19  1  0
 28  5  1  0
 25 23  1  0
  1 29  1  0
  1 30  1  0
  1 31  1  0
  4 32  1  0
  7 33  1  0
 10 34  1  0
 10 35  1  0
 10 36  1  0
 11 37  1  0
 13 38  1  0
 14 39  1  0
 15 40  1  0
 18 41  1  0
 18 42  1  0
 20 43  1  0
 23 44  1  0
 24 45  1  0
 24 46  1  0
 25 47  1  0
 25 48  1  0
 27 49  1  0
 27 50  1  0
 28 51  1  0
 28 52  1  0
M  END
$$$$
OCNT-2318634
     RDKit          3D

 42 44  0  0  0  0  0  0  0  0999 V2000
    1.7217    1.1672    1.2741 C   0  0  0  0  0  0  0  0  0  0  0  0
    2.7098    0.7786    0.1787 C   0  0  0  0  0  0  0  0  0  0  0  0
    2.0705    0.0362   -1.0022 C   0  0  0  0  0  0  0  0  0  0  0  0
    1.5259   -1.2717   -0.6022 N   0  0  0  0  0  0  0  0  0  0  0  0
    0.1339   -1.3270   -0.3539 C   0  0  0  0  0  0  0  0  0  0  0  0
   -0.5810   -0.1952   -0.4352 N   0  0  0  0  0  0  0  0  0  0  0  0
   -1.8996   -0.2643   -0.1941 C   0  0  0  0  0  0  0  0  0  0  0  0
   -2.6775    0.9847   -0.2925 C   0  0  0  0  0  0  0  0  0  0  0  0
   -4.0493    1.0205   -0.0006 C   0  0  0  0  0  0  0  0  0  0  0  0
   -4.7385    2.2189   -0.1040 C   0  0  0  0  0  0  0  0  0  0  0  0
   -4.1683    3.3823   -0.4751 N   0  0  0  0  0  0  0  0  0  0  0  0
   -2.8508    3.3436   -0.7574 C   0  0  0  0  0  0  0  0  0  0  0  0
   -2.0801    2.1939   -0.6819 C   0  0  0  0  0  0  0  0  0  0  0  0
   -2.5543   -1.3897    0.1323 N   0  0  0  0  0  0  0  0  0  0  0  0
   -1.8364   -2.5111    0.2336 C   0  0  0  0  0  0  0  0  0  0  0  0
   -2.4886   -3.6876    0.5836 C   0  0  0  0  0  0  0  0  0  0  0  0
   -1.8063   -4.8992    0.7233 C   0  0  0  0  0  0  0  0  0  0  0  0
   -0.4353   -4.9448    0.5142 C   0  0  0  0  0  0  0  0  0  0  0  0
    0.2401   -3.7791    0.1601 C   0  0  0  0  0  0  0  0  0  0  0  0
   -0.4552   -2.5516    0.0071 C   0  0  0  0  0  0  0  0  0  0  0  0
    3.5433    2.2309   -0.4890 S   0  0  0  0  0  0  0  0  0  0  0  0
    4.3775    2.9584    0.9026 C   0  0  0  0  0  0  0  0  0  0  0  0
    4.5770    1.7653   -1.3960 O   0  0  0  0  0  0  0  0  0  0  0  0
    2.5401    3.1739   -0.9454 O   0  0  0  0  0  0  0  0  0  0  0  0
    1.2497    0.2854    1.7170 H   0  0  0  0  0  0  0  0  0  0  0  0
    2.2221    1.6931    2.0922 H   0  0  0  0  0  0  0  0  0  0  0  0
    0.9369    1.8274    0.8920 H   0  0  0  0  0  0  0  0  0  0  0  0
    3.4984    0.1529    0.6145 H   0  0  0  0  0  0  0  0  0  0  0  0
    2.8529   -0.1756   -1.7425 H   0  0  0  0  0  0  0  0  0  0  0  0
    1.3454    0.6615   -1.5377 H   0  0  0  0  0  0  0  0  0  0  0  0
    1.7326   -1.9775   -1.3080 H   0  0  0  0  0  0  0  0  0  0  0  0
   -4.5812    0.1246    0.3061 H   0  0  0  0  0  0  0  0  0  0  0  0
   -5.8007    2.2726    0.1169 H   0  0  0  0  0  0  0  0  0  0  0  0
   -2.4108    4.2908   -1.0571 H   0  0  0  0  0  0  0  0  0  0  0  0
   -1.0233    2.2475   -0.9282 H   0  0  0  0  0  0  0  0  0  0  0  0
   -3.5625   -3.6613    0.7572 H   0  0  0  0  0  0  0  0  0  0  0  0
   -2.3495   -5.7991    1.0008 H   0  0  0  0  0  0  0  0  0  0  0  0
    0.1071   -5.8797    0.6300 H   0  0  0  0  0  0  0  0  0  0  0  0
    1.3171   -3.8227    0.0155 H   0  0  0  0  0  0  0  0  0  0  0  0
    5.0210    3.7578    0.5281 H   0  0  0  0  0  0  0  0  0  0  0  0
    4.9839    2.1931    1.3901 H   0  0  0  0  0  0  0  0  0  0  0  0
    3.6425    3.3762    1.5911 H   0  0  0  0  0  0  0  0  0  0  0  0
  1  2  1  0
  2  3  1  0
  3  4  1  0
  4  5  1  0
  5  6  1  0
  6  7  2  0
  7  8  1  0
  8  9  2  0
  9 10  1  0
 10 11  2  0
 11 12  1  0
 12 13  2  0
  7 14  1  0
 14 15  2  0
 15 16  1  0
 16 17  2  0
 17 18  1  0
 18 19  2  0
 19 20  1  0
  2 21  1  0
 21 22  1  0
 21 23  2  0
 21 24  2  0
 20  5  2  0
 13  8  1  0
 20 15  1  0
  1 25  1  0
  1 26  1  0
  1 27  1  0
  2 28  1  0
  3 29  1  0
  3 30  1  0
  4 31  1  0
  9 32  1  0
 10 33  1  0
 12 34  1  0
 13 35  1  0
 16 36  1  0
 17 37  1  0
 18 38  1  0
 19 39  1  0
 22 40  1  0
 22 41  1  0
 22 42  1  0
M  END
$$$$
OCNT-2318636
     RDKit          3D

 48 50  0  0  0  0  0  0  0  0999 V2000
   -5.8842   -0.4551    1.4917 C   0  0  0  0  0  0  0  0  0  0  0  0
   -5.4613    0.2354    0.1939 C   0  0  0  0  0  0  0  0  0  0  0  0
   -6.6390    0.3234   -0.7763 C   0  0  0  0  0  0  0  0  0  0  0  0
   -4.3133   -0.4932   -0.4484 C   0  0  0  0  0  0  0  0  0  0  0  0
   -4.2319   -1.8033   -0.5942 N   0  0  0  0  0  0  0  0  0  0  0  0
   -3.0534   -2.0444   -1.2451 C   0  0  0  0  0  0  0  0  0  0  0  0
   -2.3959   -0.8687   -1.5031 C   0  0  0  0  0  0  0  0  0  0  0  0
   -3.1987    0.1136   -0.9859 N   0  0  0  0  0  0  0  0  0  0  0  0
   -2.8969    1.5335   -1.0322 C   0  0  0  0  0  0  0  0  0  0  0  0
   -2.2512    2.0373    0.2606 C   0  0  0  0  0  0  0  0  0  0  0  0
   -0.9329    1.4790    0.5036 N   0  0  0  0  0  0  0  0  0  0  0  0
    0.1713    1.8991   -0.2042 C   0  0  0  0  0  0  0  0  0  0  0  0
    0.1115    2.8086   -1.0265 O   0  0  0  0  0  0  0  0  0  0  0  0
    1.4617    1.1980    0.0424 C   0  0  0  0  0  0  0  0  0  0  0  0
    2.6005    1.6389   -0.6438 C   0  0  0  0  0  0  0  0  0  0  0  0
    3.8366    1.0100   -0.4491 C   0  0  0  0  0  0  0  0  0  0  0  0
    3.9687   -0.0741    0.4341 C   0  0  0  0  0  0  0  0  0  0  0  0
    5.2682   -0.7355    0.6371 C   0  0  0  0  0  0  0  0  0  0  0  0
    6.0167   -1.2102   -0.4560 C   0  0  0  0  0  0  0  0  0  0  0  0
    7.2498   -1.8391   -0.2642 C   0  0  0  0  0  0  0  0  0  0  0  0
    7.7447   -1.9974    1.0231 C   0  0  0  0  0  0  0  0  0  0  0  0
    8.9266   -2.5995    1.2074 F   0  0  0  0  0  0  0  0  0  0  0  0
    7.0304   -1.5396    2.1219 C   0  0  0  0  0  0  0  0  0  0  0  0
    5.7969   -0.9116    1.9293 C   0  0  0  0  0  0  0  0  0  0  0  0
    2.8217   -0.5073    1.1160 C   0  0  0  0  0  0  0  0  0  0  0  0
    1.5906    0.1218    0.9193 C   0  0  0  0  0  0  0  0  0  0  0  0
    0.5331   -0.3484    1.5993 F   0  0  0  0  0  0  0  0  0  0  0  0
   -6.2431   -1.4746    1.3102 H   0  0  0  0  0  0  0  0  0  0  0  0
   -6.6899    0.1019    1.9818 H   0  0  0  0  0  0  0  0  0  0  0  0
   -5.0441   -0.5176    2.1926 H   0  0  0  0  0  0  0  0  0  0  0  0
   -5.1610    1.2555    0.4563 H   0  0  0  0  0  0  0  0  0  0  0  0
   -6.3508    0.8444   -1.6962 H   0  0  0  0  0  0  0  0  0  0  0  0
   -7.0027   -0.6712   -1.0589 H   0  0  0  0  0  0  0  0  0  0  0  0
   -7.4728    0.8730   -0.3266 H   0  0  0  0  0  0  0  0  0  0  0  0
   -2.7436   -3.0505   -1.4952 H   0  0  0  0  0  0  0  0  0  0  0  0
   -1.4561   -0.6556   -1.9930 H   0  0  0  0  0  0  0  0  0  0  0  0
   -3.8339    2.0652   -1.2282 H   0  0  0  0  0  0  0  0  0  0  0  0
   -2.2448    1.7035   -1.8966 H   0  0  0  0  0  0  0  0  0  0  0  0
   -2.1543    3.1277    0.2129 H   0  0  0  0  0  0  0  0  0  0  0  0
   -2.8650    1.7915    1.1334 H   0  0  0  0  0  0  0  0  0  0  0  0
   -0.8648    0.6495    1.0871 H   0  0  0  0  0  0  0  0  0  0  0  0
    2.5345    2.4790   -1.3338 H   0  0  0  0  0  0  0  0  0  0  0  0
    4.7046    1.3859   -0.9896 H   0  0  0  0  0  0  0  0  0  0  0  0
    5.6361   -1.1032   -1.4702 H   0  0  0  0  0  0  0  0  0  0  0  0
    7.8226   -2.2069   -1.1095 H   0  0  0  0  0  0  0  0  0  0  0  0
    7.4366   -1.6706    3.1198 H   0  0  0  0  0  0  0  0  0  0  0  0
    5.2541   -0.5475    2.7996 H   0  0  0  0  0  0  0  0  0  0  0  0
    2.8681   -1.3507    1.8010 H   0  0  0  0  0  0  0  0  0  0  0  0
  1  2  1  0
  2  3  1  0
  2  4  1  0
  4  5  2  0
  5  6  1  0
  6  7  2  0
  7  8  1  0
  8  9  1  0
  9 10  1  0
 10 11  1  0
 11 12  1  0
 12 13  2  0
 12 14  1  0
 14 15  1  0
 15 16  2  0
 16 17  1  0
 17 18  1  0
 18 19  1  0
 19 20  2  0
 20 21  1  0
 21 22  1  0
 21 23  2  0
 23 24  1  0
 17 25  2  0
 25 26  1  0
 26 27  1  0
  8  4  1  0
 26 14  2  0
 24 18  2  0
  1 28  1  0
  1 29  1  0
  1 30  1  0
  2 31  1  0
  3 32  1  0
  3 33  1  0
  3 34  1  0
  6 35  1  0
  7 36  1  0
  9 37  1  0
  9 38  1  0
 10 39  1  0
 10 40  1  0
 11 41  1  0
 15 42  1  0
 16 43  1  0
 19 44  1  0
 20 45  1  0
 23 46  1  0
 24 47  1  0
 25 48  1  0
M  END
$$$$
OCNT-2318651
     RDKit          3D

 52 56  0  0  0  0  0  0  0  0999 V2000
   -3.7786   -2.9243    0.5187 C   0  0  0  0  0  0  0  0  0  0  0  0
   -2.7795   -1.9697   -0.1414 C   0  0  0  0  0  0  0  0  0  0  0  0
   -1.3512   -2.3682    0.3038 C   0  0  0  0  0  0  0  0  0  0  0  0
   -0.3309   -1.4075   -0.1127 N   0  0  0  0  0  0  0  0  0  0  0  0
    0.9759   -1.8581   -0.2695 C   0  0  0  0  0  0  0  0  0  0  0  0
    1.3243   -3.0117   -0.0322 O   0  0  0  0  0  0  0  0  0  0  0  0
    2.0052   -0.9041   -0.7400 C   0  0  0  0  0  0  0  0  0  0  0  0
    1.8445   -0.2213   -1.9474 C   0  0  0  0  0  0  0  0  0  0  0  0
    2.8309    0.6660   -2.3678 C   0  0  0  0  0  0  0  0  0  0  0  0
    3.9767    0.8577   -1.5885 C   0  0  0  0  0  0  0  0  0  0  0  0
    4.1703    0.1605   -0.3809 C   0  0  0  0  0  0  0  0  0  0  0  0
    5.3864    0.3623    0.4286 C   0  0  0  0  0  0  0  0  0  0  0  0
    6.1512   -0.7165    0.8978 C   0  0  0  0  0  0  0  0  0  0  0  0
    5.7948   -1.9763    0.6032 F   0  0  0  0  0  0  0  0  0  0  0  0
    7.3031   -0.5325    1.6666 C   0  0  0  0  0  0  0  0  0  0  0  0
    7.7255    0.7535    1.9903 C   0  0  0  0  0  0  0  0  0  0  0  0
    6.9900    1.8460    1.5405 C   0  0  0  0  0  0  0  0  0  0  0  0
    5.8405    1.6450    0.7724 C   0  0  0  0  0  0  0  0  0  0  0  0
    5.1608    2.7318    0.3730 F   0  0  0  0  0  0  0  0  0  0  0  0
    3.1653   -0.7334    0.0257 C   0  0  0  0  0  0  0  0  0  0  0  0
   -0.7127    0.0072   -0.0394 C   0  0  0  0  0  0  0  0  0  0  0  0
   -2.0088    0.2400    0.7572 C   0  0  0  0  0  0  0  0  0  0  0  0
   -3.1115   -0.5632    0.2055 N   0  0  0  0  0  0  0  0  0  0  0  0
   -4.2761    0.0369   -0.2837 C   0  0  0  0  0  0  0  0  0  0  0  0
   -4.9232   -0.5576   -1.2733 N   0  0  0  0  0  0  0  0  0  0  0  0
   -6.0784    0.0008   -1.7877 C   0  0  0  0  0  0  0  0  0  0  0  0
   -6.6240    1.1431   -1.3427 C   0  0  0  0  0  0  0  0  0  0  0  0
   -5.9853    1.7868   -0.3083 N   0  0  0  0  0  0  0  0  0  0  0  0
   -6.2448    2.9285    0.3876 C   0  0  0  0  0  0  0  0  0  0  0  0
   -5.3205    3.1055    1.3084 N   0  0  0  0  0  0  0  0  0  0  0  0
   -4.4318    2.0502    1.2213 N   0  0  0  0  0  0  0  0  0  0  0  0
   -4.8386    1.2798    0.2350 C   0  0  0  0  0  0  0  0  0  0  0  0
   -3.7776   -2.8035    1.6079 H   0  0  0  0  0  0  0  0  0  0  0  0
   -4.8017   -2.7503    0.1725 H   0  0  0  0  0  0  0  0  0  0  0  0
   -3.5286   -3.9661    0.2914 H   0  0  0  0  0  0  0  0  0  0  0  0
   -2.8263   -2.0816   -1.2323 H   0  0  0  0  0  0  0  0  0  0  0  0
   -1.2909   -2.4321    1.3982 H   0  0  0  0  0  0  0  0  0  0  0  0
   -1.1043   -3.3620   -0.0884 H   0  0  0  0  0  0  0  0  0  0  0  0
    0.9658   -0.3885   -2.5642 H   0  0  0  0  0  0  0  0  0  0  0  0
    2.7173    1.2049   -3.3052 H   0  0  0  0  0  0  0  0  0  0  0  0
    4.7344    1.5554   -1.9432 H   0  0  0  0  0  0  0  0  0  0  0  0
    7.8615   -1.4012    2.0037 H   0  0  0  0  0  0  0  0  0  0  0  0
    8.6207    0.9026    2.5886 H   0  0  0  0  0  0  0  0  0  0  0  0
    7.2985    2.8589    1.7826 H   0  0  0  0  0  0  0  0  0  0  0  0
    3.2747   -1.3037    0.9471 H   0  0  0  0  0  0  0  0  0  0  0  0
   -0.8550    0.3524   -1.0698 H   0  0  0  0  0  0  0  0  0  0  0  0
    0.1019    0.5858    0.4083 H   0  0  0  0  0  0  0  0  0  0  0  0
   -1.8642   -0.0337    1.8089 H   0  0  0  0  0  0  0  0  0  0  0  0
   -2.2140    1.3125    0.7249 H   0  0  0  0  0  0  0  0  0  0  0  0
   -6.5431   -0.5514   -2.6011 H   0  0  0  0  0  0  0  0  0  0  0  0
   -7.5291    1.5761   -1.7456 H   0  0  0  0  0  0  0  0  0  0  0  0
   -7.0898    3.5729    0.1958 H   0  0  0  0  0  0  0  0  0  0  0  0
  1  2  1  0
  2  3  1  0
  3  4  1  0
  4  5  1  0
  5  6  2  0
  5  7  1  0
  7  8  1  0
  8  9  2  0
  9 10  1  0
 10 11  2  0
 11 12  1  0
 12 13  2  0
 13 14  1  0
 13 15  1  0
 15 16  2  0
 16 17  1  0
 17 18  2  0
 18 19  1  0
 11 20  1  0
  4 21  1  0
 21 22  1  0
 22 23  1  0
 23 24  1  0
 24 25  2  0
 25 26  1  0
 26 27  2  0
 27 28  1  0
 28 29  1  0
 29 30  2  0
 30 31  1  0
 31 32  2  0
 23  2  1  0
 32 24  1  0
 20  7  2  0
 32 28  1  0
 18 12  1  0
  1 33  1  0
  1 34  1  0
  1 35  1  0
  2 36  1  0
  3 37  1  0
  3 38  1  0
  8 39  1  0
  9 40  1  0
 10 41  1  0
 15 42  1  0
 16 43  1  0
 17 44  1  0
 20 45  1  0
 21 46  1  0
 21 47  1  0
 22 48  1  0
 22 49  1  0
 26 50  1  0
 27 51  1  0
 29 52  1  0
M  END
$$$$
OCNT-2318658
     RDKit          3D

 38 41  0  0  0  0  0  0  0  0999 V2000
    7.1532   -2.0866    1.5395 Cl  0  0  0  0  0  0  0  0  0  0  0  0
    5.7631   -1.1081    1.2778 C   0  0  0  0  0  0  0  0  0  0  0  0
    5.1770   -1.0616    0.0141 C   0  0  0  0  0  0  0  0  0  0  0  0
    4.0459   -0.2677   -0.2058 C   0  0  0  0  0  0  0  0  0  0  0  0
    3.5009    0.4825    0.8466 C   0  0  0  0  0  0  0  0  0  0  0  0
    2.3540    1.2949    0.6486 N   0  0  0  0  0  0  0  0  0  0  0  0
    1.6243    1.4953   -0.4988 C   0  0  0  0  0  0  0  0  0  0  0  0
    0.6132    2.3581   -0.1341 C   0  0  0  0  0  0  0  0  0  0  0  0
   -0.5016    2.9231   -0.9402 C   0  0  0  0  0  0  0  0  0  0  0  0
   -1.0093    2.0165   -1.9283 O   0  0  0  0  0  0  0  0  0  0  0  0
   -1.9102    1.0646   -1.5307 C   0  0  0  0  0  0  0  0  0  0  0  0
   -2.4530    0.3096   -2.5883 C   0  0  0  0  0  0  0  0  0  0  0  0
   -3.3850   -0.7053   -2.3535 C   0  0  0  0  0  0  0  0  0  0  0  0
   -3.7509   -0.9582   -1.0459 C   0  0  0  0  0  0  0  0  0  0  0  0
   -4.7268   -1.9474   -0.5046 C   0  0  0  0  0  0  0  0  0  0  0  0
   -4.4940   -1.9705    0.9624 N   0  0  0  0  0  0  0  0  0  0  0  0
   -3.8126   -0.6909    1.2887 C   0  0  0  0  0  0  0  0  0  0  0  0
   -3.2157   -0.2197    0.0050 C   0  0  0  0  0  0  0  0  0  0  0  0
   -2.2985    0.7973   -0.2152 C   0  0  0  0  0  0  0  0  0  0  0  0
    0.7513    2.6692    1.1889 N   0  0  0  0  0  0  0  0  0  0  0  0
    1.8093    2.0220    1.6562 N   0  0  0  0  0  0  0  0  0  0  0  0
    4.0992    0.4281    2.1164 C   0  0  0  0  0  0  0  0  0  0  0  0
    5.2292   -0.3671    2.3290 C   0  0  0  0  0  0  0  0  0  0  0  0
    5.5955   -1.6418   -0.8048 H   0  0  0  0  0  0  0  0  0  0  0  0
    3.6185   -0.2603   -1.2043 H   0  0  0  0  0  0  0  0  0  0  0  0
    1.8503    1.0243   -1.4418 H   0  0  0  0  0  0  0  0  0  0  0  0
   -1.3101    3.3154   -0.3116 H   0  0  0  0  0  0  0  0  0  0  0  0
   -0.1100    3.7863   -1.4916 H   0  0  0  0  0  0  0  0  0  0  0  0
   -2.1462    0.5254   -3.6094 H   0  0  0  0  0  0  0  0  0  0  0  0
   -3.8051   -1.2724   -3.1775 H   0  0  0  0  0  0  0  0  0  0  0  0
   -5.7517   -1.6206   -0.7093 H   0  0  0  0  0  0  0  0  0  0  0  0
   -4.5706   -2.9446   -0.9274 H   0  0  0  0  0  0  0  0  0  0  0  0
   -3.8124   -2.7100    1.1342 H   0  0  0  0  0  0  0  0  0  0  0  0
   -3.0487   -0.8547    2.0552 H   0  0  0  0  0  0  0  0  0  0  0  0
   -4.5472    0.0341    1.6543 H   0  0  0  0  0  0  0  0  0  0  0  0
   -1.9096    1.3429    0.6365 H   0  0  0  0  0  0  0  0  0  0  0  0
    3.6999    0.9985    2.9540 H   0  0  0  0  0  0  0  0  0  0  0  0
    5.6845   -0.4020    3.3156 H   0  0  0  0  0  0  0  0  0  0  0  0
  1  2  1  0
  2  3  1  0
  3  4  2  0
  4  5  1  0
  5  6  1  0
  6  7  1  0
  7  8  2  0
  8  9  1  0
  9 10  1  0
 10 11  1  0
 11 12  1  0
 12 13  2  0
 13 14  1  0
 14 15  1  0
 15 16  1  0
 16 17  1  0
 17 18  1  0
 18 19  1  0
  8 20  1  0
 20 21  2  0
  5 22  2  0
 22 23  1  0
 23  2  2  0
 21  6  1  0
 19 11  2  0
 18 14  2  0
  3 24  1  0
  4 25  1  0
  7 26  1  0
  9 27  1  0
  9 28  1  0
 12 29  1  0
 13 30  1  0
 15 31  1  0
 15 32  1  0
 16 33  1  0
 17 34  1  0
 17 35  1  0
 19 36  1  0
 22 37  1  0
 23 38  1  0
M  END
$$$$
OCNT-2318671
     RDKit          3D

 43 46  0  0  0  0  0  0  0  0999 V2000
   -8.0040    0.0997   -1.5450 C   0  0  0  0  0  0  0  0  0  0  0  0
   -7.4636    0.5355   -0.3037 O   0  0  0  0  0  0  0  0  0  0  0  0
   -6.1043    0.4530   -0.1578 C   0  0  0  0  0  0  0  0  0  0  0  0
   -5.2106   -0.0418   -1.1042 C   0  0  0  0  0  0  0  0  0  0  0  0
   -3.8288   -0.0787   -0.8449 C   0  0  0  0  0  0  0  0  0  0  0  0
   -3.3257    0.3941    0.3839 C   0  0  0  0  0  0  0  0  0  0  0  0
   -4.2521    0.8702    1.3095 C   0  0  0  0  0  0  0  0  0  0  0  0
   -5.6315    0.9170    1.0736 C   0  0  0  0  0  0  0  0  0  0  0  0
   -3.5196    1.2372    2.4006 N   0  0  0  0  0  0  0  0  0  0  0  0
   -2.2027    1.0291    2.2754 N   0  0  0  0  0  0  0  0  0  0  0  0
   -2.0629    0.5373    1.0378 C   0  0  0  0  0  0  0  0  0  0  0  0
   -0.7694    0.2559    0.6622 N   0  0  0  0  0  0  0  0  0  0  0  0
   -0.3003   -0.1199   -0.5691 C   0  0  0  0  0  0  0  0  0  0  0  0
   -0.9366   -0.2145   -1.6099 O   0  0  0  0  0  0  0  0  0  0  0  0
    1.1659   -0.3904   -0.6183 C   0  0  0  0  0  0  0  0  0  0  0  0
    1.8490   -0.9641    0.4606 C   0  0  0  0  0  0  0  0  0  0  0  0
    3.2229   -1.2067    0.3693 C   0  0  0  0  0  0  0  0  0  0  0  0
    3.9314   -0.8851   -0.7993 C   0  0  0  0  0  0  0  0  0  0  0  0
    5.4145   -1.1476   -0.8985 C   0  0  0  0  0  0  0  0  0  0  0  0
    6.1748   -0.2987    0.0019 N   0  0  0  0  0  0  0  0  0  0  0  0
    6.8501   -0.7006    1.1216 C   0  0  0  0  0  0  0  0  0  0  0  0
    7.4424    0.4424    1.6062 C   0  0  0  0  0  0  0  0  0  0  0  0
    7.1521    1.5175    0.8069 N   0  0  0  0  0  0  0  0  0  0  0  0
    6.3894    1.0418   -0.1517 C   0  0  0  0  0  0  0  0  0  0  0  0
    3.2361   -0.3269   -1.8816 C   0  0  0  0  0  0  0  0  0  0  0  0
    1.8626   -0.0864   -1.7935 C   0  0  0  0  0  0  0  0  0  0  0  0
   -7.8139   -0.9667   -1.7053 H   0  0  0  0  0  0  0  0  0  0  0  0
   -7.6202    0.7005   -2.3761 H   0  0  0  0  0  0  0  0  0  0  0  0
   -9.0884    0.2415   -1.5052 H   0  0  0  0  0  0  0  0  0  0  0  0
   -5.5453   -0.4150   -2.0668 H   0  0  0  0  0  0  0  0  0  0  0  0
   -3.1697   -0.4811   -1.6066 H   0  0  0  0  0  0  0  0  0  0  0  0
   -6.3220    1.2986    1.8192 H   0  0  0  0  0  0  0  0  0  0  0  0
   -3.8651    1.6290    3.2691 H   0  0  0  0  0  0  0  0  0  0  0  0
   -0.1200    0.4728    1.4048 H   0  0  0  0  0  0  0  0  0  0  0  0
    1.3263   -1.2515    1.3694 H   0  0  0  0  0  0  0  0  0  0  0  0
    3.7374   -1.6516    1.2199 H   0  0  0  0  0  0  0  0  0  0  0  0
    5.7920   -0.9617   -1.9108 H   0  0  0  0  0  0  0  0  0  0  0  0
    5.6284   -2.1948   -0.6553 H   0  0  0  0  0  0  0  0  0  0  0  0
    6.8568   -1.7233    1.4707 H   0  0  0  0  0  0  0  0  0  0  0  0
    8.0654    0.5482    2.4850 H   0  0  0  0  0  0  0  0  0  0  0  0
    5.9708    1.6173   -0.9673 H   0  0  0  0  0  0  0  0  0  0  0  0
    3.7533   -0.0747   -2.8056 H   0  0  0  0  0  0  0  0  0  0  0  0
    1.3351    0.3433   -2.6437 H   0  0  0  0  0  0  0  0  0  0  0  0
  1  2  1  0
  2  3  1  0
  3  4  2  0
  4  5  1  0
  5  6  2  0
  6  7  1  0
  7  8  2  0
  7  9  1  0
  9 10  1  0
 10 11  2  0
 11 12  1  0
 12 13  1  0
 13 14  2  0
 13 15  1  0
 15 16  1  0
 16 17  2  0
 17 18  1  0
 18 19  1  0
 19 20  1  0
 20 21  1  0
 21 22  2  0
 22 23  1  0
 23 24  2  0
 18 25  2  0
 25 26  1  0
  8  3  1  0
 26 15  2  0
 11  6  1  0
 24 20  1  0
  1 27  1  0
  1 28  1  0
  1 29  1  0
  4 30  1  0
  5 31  1  0
  8 32  1  0
  9 33  1  0
 12 34  1  0
 16 35  1  0
 17 36  1  0
 19 37  1  0
 19 38  1  0
 21 39  1  0
 22 40  1  0
 24 41  1  0
 25 42  1  0
 26 43  1  0
M  END
$$$$
OCNT-2318673
     RDKit          3D

 49 52  0  0  0  0  0  0  0  0999 V2000
   -5.8833   -1.2840   -0.6205 C   0  0  0  0  0  0  0  0  0  0  0  0
   -4.8941   -0.2948   -0.3503 O   0  0  0  0  0  0  0  0  0  0  0  0
   -5.3052    0.8943    0.2014 C   0  0  0  0  0  0  0  0  0  0  0  0
   -6.6566    1.2086    0.4205 C   0  0  0  0  0  0  0  0  0  0  0  0
   -7.0288    2.4310    0.9853 C   0  0  0  0  0  0  0  0  0  0  0  0
   -6.0583    3.3581    1.3390 C   0  0  0  0  0  0  0  0  0  0  0  0
   -4.7127    3.0631    1.1248 C   0  0  0  0  0  0  0  0  0  0  0  0
   -4.3139    1.8372    0.5546 C   0  0  0  0  0  0  0  0  0  0  0  0
   -2.8270    1.6453    0.3749 C   0  0  0  0  0  0  0  0  0  0  0  0
   -2.0732    2.5285    0.7756 O   0  0  0  0  0  0  0  0  0  0  0  0
   -2.4240    0.4768   -0.2392 N   0  0  0  0  0  0  0  0  0  0  0  0
   -1.1149    0.0468   -0.5319 C   0  0  0  0  0  0  0  0  0  0  0  0
   -0.9817   -1.2000   -1.1604 C   0  0  0  0  0  0  0  0  0  0  0  0
    0.2798   -1.7051   -1.4849 C   0  0  0  0  0  0  0  0  0  0  0  0
    1.4172   -0.9696   -1.1653 C   0  0  0  0  0  0  0  0  0  0  0  0
    2.6625   -1.4313   -1.5152 O   0  0  0  0  0  0  0  0  0  0  0  0
    3.2438   -2.2580   -0.5633 C   0  0  0  0  0  0  0  0  0  0  0  0
    2.6529   -3.4594   -0.3645 N   0  0  0  0  0  0  0  0  0  0  0  0
    3.2462   -4.2498    0.5353 C   0  0  0  0  0  0  0  0  0  0  0  0
    4.3593   -3.9625    1.2228 N   0  0  0  0  0  0  0  0  0  0  0  0
    4.9138   -2.7586    0.9622 C   0  0  0  0  0  0  0  0  0  0  0  0
    4.4108   -1.8349    0.0615 C   0  0  0  0  0  0  0  0  0  0  0  0
    5.0667   -0.5437   -0.1733 C   0  0  0  0  0  0  0  0  0  0  0  0
    5.2951    0.3503    0.8873 C   0  0  0  0  0  0  0  0  0  0  0  0
    5.9191    1.5813    0.6693 C   0  0  0  0  0  0  0  0  0  0  0  0
    6.3271    1.9388   -0.6129 C   0  0  0  0  0  0  0  0  0  0  0  0
    6.1111    1.0676   -1.6770 C   0  0  0  0  0  0  0  0  0  0  0  0
    5.4869   -0.1633   -1.4585 C   0  0  0  0  0  0  0  0  0  0  0  0
    1.3006    0.2811   -0.5632 C   0  0  0  0  0  0  0  0  0  0  0  0
    0.0355    0.7837   -0.2407 C   0  0  0  0  0  0  0  0  0  0  0  0
   -5.3696   -2.1704   -1.0059 H   0  0  0  0  0  0  0  0  0  0  0  0
   -6.4106   -1.5770    0.2936 H   0  0  0  0  0  0  0  0  0  0  0  0
   -6.5797   -0.9420   -1.3933 H   0  0  0  0  0  0  0  0  0  0  0  0
   -7.4557    0.5217    0.1598 H   0  0  0  0  0  0  0  0  0  0  0  0
   -8.0801    2.6573    1.1481 H   0  0  0  0  0  0  0  0  0  0  0  0
   -6.3424    4.3107    1.7795 H   0  0  0  0  0  0  0  0  0  0  0  0
   -3.9658    3.8041    1.4073 H   0  0  0  0  0  0  0  0  0  0  0  0
   -3.1706   -0.1565   -0.5062 H   0  0  0  0  0  0  0  0  0  0  0  0
   -1.8577   -1.7940   -1.4064 H   0  0  0  0  0  0  0  0  0  0  0  0
    0.3752   -2.6705   -1.9738 H   0  0  0  0  0  0  0  0  0  0  0  0
    2.7861   -5.2134    0.7246 H   0  0  0  0  0  0  0  0  0  0  0  0
    5.8246   -2.5560    1.5212 H   0  0  0  0  0  0  0  0  0  0  0  0
    4.9732    0.1011    1.8972 H   0  0  0  0  0  0  0  0  0  0  0  0
    6.0821    2.2622    1.5009 H   0  0  0  0  0  0  0  0  0  0  0  0
    6.8106    2.8974   -0.7835 H   0  0  0  0  0  0  0  0  0  0  0  0
    6.4262    1.3450   -2.6797 H   0  0  0  0  0  0  0  0  0  0  0  0
    5.3313   -0.8277   -2.3070 H   0  0  0  0  0  0  0  0  0  0  0  0
    2.1855    0.8725   -0.3452 H   0  0  0  0  0  0  0  0  0  0  0  0
   -0.0171    1.7583    0.2335 H   0  0  0  0  0  0  0  0  0  0  0  0
  1  2  1  0
  2  3  1  0
  3  4  2  0
  4  5  1  0
  5  6  2  0
  6  7  1  0
  7  8  2  0
  8  9  1  0
  9 10  2  0
  9 11  1  0
 11 12  1  0
 12 13  1  0
 13 14  2  0
 14 15  1  0
 15 16  1  0
 16 17  1  0
 17 18  2  0
 18 19  1  0
 19 20  2  0
 20 21  1  0
 21 22  2  0
 22 23  1  0
 23 24  2  0
 24 25  1  0
 25 26  2  0
 26 27  1  0
 27 28  2  0
 15 29  2  0
 29 30  1  0
  8  3  1  0
 30 12  2  0
 22 17  1  0
 28 23  1  0
  1 31  1  0
  1 32  1  0
  1 33  1  0
  4 34  1  0
  5 35  1  0
  6 36  1  0
  7 37  1  0
 11 38  1  0
 13 39  1  0
 14 40  1  0
 19 41  1  0
 21 42  1  0
 24 43  1  0
 25 44  1  0
 26 45  1  0
 27 46  1  0
 28 47  1  0
 29 48  1  0
 30 49  1  0
M  END
$$$$
OCNT-2318675
     RDKit          3D

 52 57  0  0  0  0  0  0  0  0999 V2000
    5.0377   -1.2805   -0.7078 C   0  0  0  0  0  0  0  0  0  0  0  0
    4.9044   -0.3325    0.3686 N   0  0  0  0  0  0  0  0  0  0  0  0
    5.9505    0.1942    1.0957 C   0  0  0  0  0  0  0  0  0  0  0  0
    7.3409    0.0186    1.0579 C   0  0  0  0  0  0  0  0  0  0  0  0
    8.1040    0.7456    1.9800 C   0  0  0  0  0  0  0  0  0  0  0  0
    7.5035    1.6081    2.8973 C   0  0  0  0  0  0  0  0  0  0  0  0
    6.1140    1.7698    2.9195 C   0  0  0  0  0  0  0  0  0  0  0  0
    5.3342    1.0494    2.0028 C   0  0  0  0  0  0  0  0  0  0  0  0
    3.9768    1.0433    1.8369 N   0  0  0  0  0  0  0  0  0  0  0  0
    3.7283    0.2052    0.8486 C   0  0  0  0  0  0  0  0  0  0  0  0
    2.2634   -0.0706    0.3659 C   0  0  0  0  0  0  0  0  0  0  0  0
    1.8298   -0.9101   -0.6325 C   0  0  0  0  0  0  0  0  0  0  0  0
    0.4565   -0.7755   -0.6384 N   0  0  0  0  0  0  0  0  0  0  0  0
   -0.4982   -1.4253   -1.4646 C   0  0  0  0  0  0  0  0  0  0  0  0
   -0.0912   -2.3713   -2.4279 C   0  0  0  0  0  0  0  0  0  0  0  0
   -1.0293   -3.0192   -3.2558 C   0  0  0  0  0  0  0  0  0  0  0  0
   -2.3883   -2.7393   -3.1424 C   0  0  0  0  0  0  0  0  0  0  0  0
   -2.7681   -1.8121   -2.1908 C   0  0  0  0  0  0  0  0  0  0  0  0
   -1.8616   -1.1528   -1.3548 C   0  0  0  0  0  0  0  0  0  0  0  0
   -2.6159   -0.2043   -0.4723 C   0  0  0  0  0  0  0  0  0  0  0  0
   -4.0070   -0.4564   -0.8278 N   0  0  0  0  0  0  0  0  0  0  0  0
   -5.1015    0.4229   -0.4340 C   0  0  0  0  0  0  0  0  0  0  0  0
   -5.1506    0.6585    1.0726 C   0  0  0  0  0  0  0  0  0  0  0  0
   -6.3652    1.5091    1.4114 C   0  0  0  0  0  0  0  0  0  0  0  0
   -6.3589    2.8082    0.6398 C   0  0  0  0  0  0  0  0  0  0  0  0
   -6.8256    3.8464    1.0989 O   0  0  0  0  0  0  0  0  0  0  0  0
   -5.8317    2.7692   -0.6262 N   0  0  0  0  0  0  0  0  0  0  0  0
   -5.0315    1.7809   -1.1541 C   0  0  0  0  0  0  0  0  0  0  0  0
   -4.3339    2.0095   -2.1399 O   0  0  0  0  0  0  0  0  0  0  0  0
   -4.1223   -1.3393   -1.8861 C   0  0  0  0  0  0  0  0  0  0  0  0
   -5.1297   -1.6791   -2.4758 O   0  0  0  0  0  0  0  0  0  0  0  0
    0.0909    0.1099    0.3142 N   0  0  0  0  0  0  0  0  0  0  0  0
    1.1804    0.5405    0.9319 N   0  0  0  0  0  0  0  0  0  0  0  0
    4.5023   -2.1937   -0.4366 H   0  0  0  0  0  0  0  0  0  0  0  0
    4.6290   -0.8351   -1.6180 H   0  0  0  0  0  0  0  0  0  0  0  0
    6.0883   -1.5245   -0.8759 H   0  0  0  0  0  0  0  0  0  0  0  0
    7.8225   -0.6475    0.3509 H   0  0  0  0  0  0  0  0  0  0  0  0
    9.1868    0.6359    1.9809 H   0  0  0  0  0  0  0  0  0  0  0  0
    8.1178    2.1620    3.6032 H   0  0  0  0  0  0  0  0  0  0  0  0
    5.6372    2.4377    3.6284 H   0  0  0  0  0  0  0  0  0  0  0  0
    2.3447   -1.5633   -1.3131 H   0  0  0  0  0  0  0  0  0  0  0  0
    0.9530   -2.6361   -2.5699 H   0  0  0  0  0  0  0  0  0  0  0  0
   -0.6900   -3.7433   -3.9941 H   0  0  0  0  0  0  0  0  0  0  0  0
   -3.1265   -3.2223   -3.7746 H   0  0  0  0  0  0  0  0  0  0  0  0
   -2.3634    0.8350   -0.6994 H   0  0  0  0  0  0  0  0  0  0  0  0
   -2.4885   -0.4342    0.5888 H   0  0  0  0  0  0  0  0  0  0  0  0
   -6.0383   -0.0471   -0.7614 H   0  0  0  0  0  0  0  0  0  0  0  0
   -5.2033   -0.2963    1.6085 H   0  0  0  0  0  0  0  0  0  0  0  0
   -4.2412    1.1715    1.4117 H   0  0  0  0  0  0  0  0  0  0  0  0
   -7.2952    0.9781    1.1803 H   0  0  0  0  0  0  0  0  0  0  0  0
   -6.3602    1.7399    2.4822 H   0  0  0  0  0  0  0  0  0  0  0  0
   -5.7799    3.6623   -1.0977 H   0  0  0  0  0  0  0  0  0  0  0  0
  1  2  1  0
  2  3  1  0
  3  4  2  0
  4  5  1  0
  5  6  2  0
  6  7  1  0
  7  8  2  0
  8  9  1  0
  9 10  2  0
 10 11  1  0
 11 12  2  0
 12 13  1  0
 13 14  1  0
 14 15  2  0
 15 16  1  0
 16 17  2  0
 17 18  1  0
 18 19  2  0
 19 20  1  0
 20 21  1  0
 21 22  1  0
 22 23  1  0
 23 24  1  0
 24 25  1  0
 25 26  2  0
 25 27  1  0
 27 28  1  0
 28 29  2  0
 21 30  1  0
 30 31  2  0
 13 32  1  0
 32 33  2  0
 10  2  1  0
 33 11  1  0
  8  3  1  0
 19 14  1  0
 28 22  1  0
 30 18  1  0
  1 34  1  0
  1 35  1  0
  1 36  1  0
  4 37  1  0
  5 38  1  0
  6 39  1  0
  7 40  1  0
 12 41  1  0
 15 42  1  0
 16 43  1  0
 17 44  1  0
 20 45  1  0
 20 46  1  0
 22 47  1  0
 23 48  1  0
 23 49  1  0
 24 50  1  0
 24 51  1  0
 27 52  1  0
M  END
$$$$
OCNT-2318678
     RDKit          3D

 42 45  0  0  0  0  0  0  0  0999 V2000
   -3.6268    2.9009   -1.9303 C   0  0  0  0  0  0  0  0  0  0  0  0
   -3.1063    1.7356   -1.2591 N   0  0  0  0  0  0  0  0  0  0  0  0
   -1.9296    1.6370   -0.5800 C   0  0  0  0  0  0  0  0  0  0  0  0
   -1.8437    0.3344   -0.1211 C   0  0  0  0  0  0  0  0  0  0  0  0
   -0.7590   -0.2962    0.6806 C   0  0  0  0  0  0  0  0  0  0  0  0
    0.5321    0.0919    0.1140 N   0  0  0  0  0  0  0  0  0  0  0  0
    1.6473   -0.5279    0.8336 C   0  0  1  0  0  0  0  0  0  0  0  0
    2.9223   -0.3997    0.0353 C   0  0  0  0  0  0  0  0  0  0  0  0
    3.2893   -1.1144   -1.0973 C   0  0  0  0  0  0  0  0  0  0  0  0
    4.5162   -0.8261   -1.6991 C   0  0  0  0  0  0  0  0  0  0  0  0
    5.3539    0.1682   -1.1715 C   0  0  0  0  0  0  0  0  0  0  0  0
    4.9772    0.8861   -0.0348 C   0  0  0  0  0  0  0  0  0  0  0  0
    3.7632    0.5861    0.5623 C   0  0  0  0  0  0  0  0  0  0  0  0
    3.1459    1.2425    1.7595 C   0  0  0  0  0  0  0  0  0  0  0  0
    2.0393    0.2402    2.1374 C   0  0  2  0  0  0  0  0  0  0  0  0
    2.5335   -0.6660    3.1381 O   0  0  0  0  0  0  0  0  0  0  0  0
   -3.0533   -0.2500   -0.5712 C   0  0  0  0  0  0  0  0  0  0  0  0
   -3.4746   -1.7231   -0.3137 C   0  0  0  0  0  0  0  0  0  0  0  0
   -3.8016   -2.1615    1.0916 C   0  0  0  0  0  0  0  0  0  0  0  0
   -4.8989   -2.0239    0.0783 C   0  0  0  0  0  0  0  0  0  0  0  0
   -3.8144    0.5938   -1.2705 N   0  0  0  0  0  0  0  0  0  0  0  0
   -4.5870    3.1599   -1.4771 H   0  0  0  0  0  0  0  0  0  0  0  0
   -3.7530    2.6614   -2.9891 H   0  0  0  0  0  0  0  0  0  0  0  0
   -2.9249    3.7307   -1.8167 H   0  0  0  0  0  0  0  0  0  0  0  0
   -1.2492    2.4718   -0.4830 H   0  0  0  0  0  0  0  0  0  0  0  0
   -0.8622   -1.3871    0.6660 H   0  0  0  0  0  0  0  0  0  0  0  0
   -0.8502    0.0398    1.7194 H   0  0  0  0  0  0  0  0  0  0  0  0
    0.5562   -0.2095   -0.8598 H   0  0  0  0  0  0  0  0  0  0  0  0
    1.4660   -1.5909    1.0358 H   0  0  0  0  0  0  0  0  0  0  0  0
    2.6420   -1.8808   -1.5105 H   0  0  0  0  0  0  0  0  0  0  0  0
    4.8254   -1.3736   -2.5859 H   0  0  0  0  0  0  0  0  0  0  0  0
    6.3041    0.3828   -1.6542 H   0  0  0  0  0  0  0  0  0  0  0  0
    5.6232    1.6587    0.3696 H   0  0  0  0  0  0  0  0  0  0  0  0
    2.7188    2.2053    1.4604 H   0  0  0  0  0  0  0  0  0  0  0  0
    3.8747    1.3777    2.5640 H   0  0  0  0  0  0  0  0  0  0  0  0
    1.1929    0.7590    2.5998 H   0  0  0  0  0  0  0  0  0  0  0  0
    1.8160   -1.2866    3.3484 H   0  0  0  0  0  0  0  0  0  0  0  0
   -2.9895   -2.4400   -0.9672 H   0  0  0  0  0  0  0  0  0  0  0  0
   -3.5117   -3.1616    1.3906 H   0  0  0  0  0  0  0  0  0  0  0  0
   -3.7664   -1.4282    1.8891 H   0  0  0  0  0  0  0  0  0  0  0  0
   -5.5879   -1.1920    0.1771 H   0  0  0  0  0  0  0  0  0  0  0  0
   -5.3494   -2.9249   -0.3200 H   0  0  0  0  0  0  0  0  0  0  0  0
  1  2  1  0
  2  3  1  0
  3  4  2  0
  4  5  1  0
  5  6  1  0
  6  7  1  0
  7  8  1  0
  8  9  2  0
  9 10  1  0
 10 11  2  0
 11 12  1  0
 12 13  2  0
 13 14  1  0
 14 15  1  0
 15 16  1  0
  4 17  1  0
 17 18  1  0
 18 19  1  0
 19 20  1  0
 17 21  2  0
 21  2  1  0
 15  7  1  0
 20 18  1  0
 13  8  1  0
  1 22  1  0
  1 23  1  0
  1 24  1  0
  3 25  1  0
  5 26  1  0
  5 27  1  0
  6 28  1  0
  7 29  1  1
  9 30  1  0
 10 31  1  0
 11 32  1  0
 12 33  1  0
 14 34  1  0
 14 35  1  0
 15 36  1  1
 16 37  1  0
 18 38  1  0
 19 39  1  0
 19 40  1  0
 20 41  1  0
 20 42  1  0
M  END
$$$$
OCNT-2318684
     RDKit          3D

 47 50  0  0  0  0  0  0  0  0999 V2000
    7.6421   -1.8095    1.0307 C   0  0  0  0  0  0  0  0  0  0  0  0
    6.3005   -1.5296    1.1377 C   0  0  0  0  0  0  0  0  0  0  0  0
    5.9918   -0.6985    0.0799 N   0  0  0  0  0  0  0  0  0  0  0  0
    4.7224   -0.1323   -0.2375 C   0  0  0  0  0  0  0  0  0  0  0  0
    3.6025   -0.4026    0.5622 C   0  0  0  0  0  0  0  0  0  0  0  0
    2.3573    0.1538    0.2497 C   0  0  0  0  0  0  0  0  0  0  0  0
    2.2078    0.9961   -0.8581 C   0  0  0  0  0  0  0  0  0  0  0  0
    0.8554    1.5764   -1.2001 C   0  0  0  0  0  0  0  0  0  0  0  0
    0.1439    0.7005   -2.1283 N   0  0  0  0  0  0  0  0  0  0  0  0
   -1.2251    1.1695   -2.3728 C   0  0  0  0  0  0  0  0  0  0  0  0
   -2.1070    0.8675   -1.1991 C   0  0  0  0  0  0  0  0  0  0  0  0
   -3.1987    1.5728   -0.7333 C   0  0  0  0  0  0  0  0  0  0  0  0
   -3.6365    0.8730    0.3506 N   0  0  0  0  0  0  0  0  0  0  0  0
   -4.7582    1.1847    1.2065 C   0  0  0  0  0  0  0  0  0  0  0  0
   -5.8731    0.1321    1.2148 C   0  0  0  0  0  0  0  0  0  0  0  0
   -5.5144   -1.2773    0.7330 C   0  0  0  0  0  0  0  0  0  0  0  0
   -4.3573   -1.9805    1.4538 C   0  0  0  0  0  0  0  0  0  0  0  0
   -3.0504   -1.1982    1.6137 C   0  0  0  0  0  0  0  0  0  0  0  0
   -2.8192   -0.2176    0.5189 C   0  0  0  0  0  0  0  0  0  0  0  0
   -1.8830   -0.2448   -0.4044 N   0  0  0  0  0  0  0  0  0  0  0  0
    3.3218    1.2523   -1.6643 C   0  0  0  0  0  0  0  0  0  0  0  0
    4.5700    0.6988   -1.3569 C   0  0  0  0  0  0  0  0  0  0  0  0
    7.1799   -0.5322   -0.6027 C   0  0  0  0  0  0  0  0  0  0  0  0
    8.1820   -1.1846   -0.0539 N   0  0  0  0  0  0  0  0  0  0  0  0
    8.2438   -2.4306    1.6819 H   0  0  0  0  0  0  0  0  0  0  0  0
    5.5760   -1.8544    1.8673 H   0  0  0  0  0  0  0  0  0  0  0  0
    3.6532   -1.0469    1.4340 H   0  0  0  0  0  0  0  0  0  0  0  0
    1.4955   -0.0803    0.8729 H   0  0  0  0  0  0  0  0  0  0  0  0
    0.9964    2.5679   -1.6485 H   0  0  0  0  0  0  0  0  0  0  0  0
    0.2970    1.7326   -0.2687 H   0  0  0  0  0  0  0  0  0  0  0  0
    0.0452   -0.2143   -1.6762 H   0  0  0  0  0  0  0  0  0  0  0  0
   -1.6213    0.6342   -3.2431 H   0  0  0  0  0  0  0  0  0  0  0  0
   -1.2397    2.2376   -2.6182 H   0  0  0  0  0  0  0  0  0  0  0  0
   -3.6751    2.4790   -1.0801 H   0  0  0  0  0  0  0  0  0  0  0  0
   -5.1628    2.1580    0.9057 H   0  0  0  0  0  0  0  0  0  0  0  0
   -4.3546    1.3150    2.2180 H   0  0  0  0  0  0  0  0  0  0  0  0
   -6.6875    0.4971    0.5749 H   0  0  0  0  0  0  0  0  0  0  0  0
   -6.2967    0.0778    2.2254 H   0  0  0  0  0  0  0  0  0  0  0  0
   -6.4070   -1.9095    0.8258 H   0  0  0  0  0  0  0  0  0  0  0  0
   -5.2984   -1.2426   -0.3430 H   0  0  0  0  0  0  0  0  0  0  0  0
   -4.1415   -2.9035    0.8991 H   0  0  0  0  0  0  0  0  0  0  0  0
   -4.6914   -2.3047    2.4474 H   0  0  0  0  0  0  0  0  0  0  0  0
   -3.0570   -0.6689    2.5748 H   0  0  0  0  0  0  0  0  0  0  0  0
   -2.2109   -1.9016    1.6669 H   0  0  0  0  0  0  0  0  0  0  0  0
    3.2176    1.8796   -2.5475 H   0  0  0  0  0  0  0  0  0  0  0  0
    5.3927    0.9371   -2.0236 H   0  0  0  0  0  0  0  0  0  0  0  0
    7.2717    0.0715   -1.4938 H   0  0  0  0  0  0  0  0  0  0  0  0
  1  2  2  0
  2  3  1  0
  3  4  1  0
  4  5  1  0
  5  6  2  0
  6  7  1  0
  7  8  1  0
  8  9  1  0
  9 10  1  0
 10 11  1  0
 11 12  2  0
 12 13  1  0
 13 14  1  0
 14 15  1  0
 15 16  1  0
 16 17  1  0
 17 18  1  0
 18 19  1  0
 19 20  2  0
  7 21  2  0
 21 22  1  0
  3 23  1  0
 23 24  2  0
 24  1  1  0
 22  4  2  0
 20 11  1  0
 19 13  1  0
  1 25  1  0
  2 26  1  0
  5 27  1  0
  6 28  1  0
  8 29  1  0
  8 30  1  0
  9 31  1  0
 10 32  1  0
 10 33  1  0
 12 34  1  0
 14 35  1  0
 14 36  1  0
 15 37  1  0
 15 38  1  0
 16 39  1  0
 16 40  1  0
 17 41  1  0
 17 42  1  0
 18 43  1  0
 18 44  1  0
 21 45  1  0
 22 46  1  0
 23 47  1  0
M  END
$$$$
OCNT-2328318
     RDKit          3D

 31 33  0  0  0  0  0  0  0  0999 V2000
   -2.9098    1.9116    1.3461 C   0  0  0  0  0  0  0  0  0  0  0  0
   -3.1300    1.0774    0.2520 C   0  0  0  0  0  0  0  0  0  0  0  0
   -2.1312    0.1947   -0.1905 C   0  0  0  0  0  0  0  0  0  0  0  0
   -0.8792    0.1764    0.4575 C   0  0  0  0  0  0  0  0  0  0  0  0
   -0.6831    1.0119    1.5718 C   0  0  0  0  0  0  0  0  0  0  0  0
   -1.6879    1.8758    2.0084 C   0  0  0  0  0  0  0  0  0  0  0  0
    0.2146   -0.7924    0.0271 C   0  0  0  0  0  0  0  0  0  0  0  0
    1.6120   -0.1846    0.0623 C   0  0  0  0  0  0  0  0  0  0  0  0
    2.0135    0.7186   -0.7984 N   0  0  0  0  0  0  0  0  0  0  0  0
    3.4129    1.0228   -0.3897 C   0  0  0  0  0  0  0  0  0  0  0  0
    3.8258   -0.0809    0.5874 C   0  0  0  0  0  0  0  0  0  0  0  0
    2.5367   -0.5798    1.0030 N   0  0  0  0  0  0  0  0  0  0  0  0
   -0.0274   -1.4027   -1.3620 C   0  0  0  0  0  0  0  0  0  0  0  0
   -1.4706   -1.8649   -1.5029 C   0  0  0  0  0  0  0  0  0  0  0  0
   -2.4150   -0.6725   -1.3923 C   0  0  0  0  0  0  0  0  0  0  0  0
   -3.6908    2.5891    1.6797 H   0  0  0  0  0  0  0  0  0  0  0  0
   -4.0893    1.1170   -0.2592 H   0  0  0  0  0  0  0  0  0  0  0  0
    0.2634    1.0021    2.1083 H   0  0  0  0  0  0  0  0  0  0  0  0
   -1.5124    2.5228    2.8635 H   0  0  0  0  0  0  0  0  0  0  0  0
    0.1936   -1.6135    0.7579 H   0  0  0  0  0  0  0  0  0  0  0  0
    4.0721    1.0476   -1.2627 H   0  0  0  0  0  0  0  0  0  0  0  0
    3.4348    2.0065    0.0926 H   0  0  0  0  0  0  0  0  0  0  0  0
    4.4156    0.3007    1.4248 H   0  0  0  0  0  0  0  0  0  0  0  0
    4.3875   -0.8676    0.0731 H   0  0  0  0  0  0  0  0  0  0  0  0
    2.4832   -1.5307    1.3475 H   0  0  0  0  0  0  0  0  0  0  0  0
    0.6532   -2.2491   -1.5162 H   0  0  0  0  0  0  0  0  0  0  0  0
    0.1956   -0.6777   -2.1558 H   0  0  0  0  0  0  0  0  0  0  0  0
   -1.7009   -2.6027   -0.7240 H   0  0  0  0  0  0  0  0  0  0  0  0
   -1.6154   -2.3608   -2.4692 H   0  0  0  0  0  0  0  0  0  0  0  0
   -3.4453   -1.0454   -1.3487 H   0  0  0  0  0  0  0  0  0  0  0  0
   -2.3260   -0.0498   -2.2914 H   0  0  0  0  0  0  0  0  0  0  0  0
  1  2  1  0
  2  3  2  0
  3  4  1  0
  4  5  2  0
  5  6  1  0
  4  7  1  0
  7  8  1  0
  8  9  2  0
  9 10  1  0
 10 11  1  0
 11 12  1  0
  7 13  1  0
 13 14  1  0
 14 15  1  0
  6  1  2  0
 12  8  1  0
 15  3  1  0
  1 16  1  0
  2 17  1  0
  5 18  1  0
  6 19  1  0
  7 20  1  0
 10 21  1  0
 10 22  1  0
 11 23  1  0
 11 24  1  0
 12 25  1  0
 13 26  1  0
 13 27  1  0
 14 28  1  0
 14 29  1  0
 15 30  1  0
 15 31  1  0
M  END
$$$$
OCNT-2328323
     RDKit          3D

 37 37  0  0  0  0  0  0  0  0999 V2000
   -2.7221    2.5016   -0.6668 C   0  0  0  0  0  0  0  0  0  0  0  0
   -2.7538    0.9780   -0.8999 C   0  0  0  0  0  0  0  0  0  0  0  0
   -3.5133    0.3294    0.2670 C   0  0  0  0  0  0  0  0  0  0  0  0
   -3.4922    0.7070   -2.2234 C   0  0  0  0  0  0  0  0  0  0  0  0
   -1.3412    0.5544   -0.9806 N   0  0  0  0  0  0  0  0  0  0  0  0
   -1.0893   -0.8909   -1.0319 C   0  0  0  0  0  0  0  0  0  0  0  0
   -0.6767   -1.5075    0.3217 C   0  0  0  0  0  0  0  0  0  0  0  0
   -0.4303   -2.9108    0.1299 O   0  0  0  0  0  0  0  0  0  0  0  0
    0.5740   -0.8578    0.9317 C   0  0  0  0  0  0  0  0  0  0  0  0
    1.6709   -1.0247    0.0129 O   0  0  0  0  0  0  0  0  0  0  0  0
    2.8547   -0.6349    0.5842 C   0  0  0  0  0  0  0  0  0  0  0  0
    3.1241    0.7256    0.7538 C   0  0  0  0  0  0  0  0  0  0  0  0
    4.3450    1.1187    1.2988 C   0  0  0  0  0  0  0  0  0  0  0  0
    4.6804    2.7919    1.5216 Cl  0  0  0  0  0  0  0  0  0  0  0  0
    5.2995    0.1671    1.6626 C   0  0  0  0  0  0  0  0  0  0  0  0
    5.0367   -1.1926    1.4701 C   0  0  0  0  0  0  0  0  0  0  0  0
    3.8163   -1.5943    0.9235 C   0  0  0  0  0  0  0  0  0  0  0  0
    3.5226   -3.2795    0.6919 Cl  0  0  0  0  0  0  0  0  0  0  0  0
   -2.2044    2.7522    0.2673 H   0  0  0  0  0  0  0  0  0  0  0  0
   -2.2089    3.0239   -1.4834 H   0  0  0  0  0  0  0  0  0  0  0  0
   -3.7362    2.9128   -0.6022 H   0  0  0  0  0  0  0  0  0  0  0  0
   -2.9997    0.4992    1.2204 H   0  0  0  0  0  0  0  0  0  0  0  0
   -4.5205    0.7529    0.3607 H   0  0  0  0  0  0  0  0  0  0  0  0
   -3.6330   -0.7507    0.1289 H   0  0  0  0  0  0  0  0  0  0  0  0
   -4.5021    1.1330   -2.2010 H   0  0  0  0  0  0  0  0  0  0  0  0
   -3.5986   -0.3641   -2.4248 H   0  0  0  0  0  0  0  0  0  0  0  0
   -2.9667    1.1567   -3.0739 H   0  0  0  0  0  0  0  0  0  0  0  0
   -0.9297    0.9796   -1.8141 H   0  0  0  0  0  0  0  0  0  0  0  0
   -0.2745   -1.0648   -1.7477 H   0  0  0  0  0  0  0  0  0  0  0  0
   -1.9303   -1.4530   -1.4538 H   0  0  0  0  0  0  0  0  0  0  0  0
   -1.4990   -1.4315    1.0387 H   0  0  0  0  0  0  0  0  0  0  0  0
    0.4577   -2.9800   -0.2721 H   0  0  0  0  0  0  0  0  0  0  0  0
    0.8146   -1.3676    1.8743 H   0  0  0  0  0  0  0  0  0  0  0  0
    0.3962    0.2054    1.1313 H   0  0  0  0  0  0  0  0  0  0  0  0
    2.3909    1.4693    0.4530 H   0  0  0  0  0  0  0  0  0  0  0  0
    6.2517    0.4768    2.0866 H   0  0  0  0  0  0  0  0  0  0  0  0
    5.7870   -1.9308    1.7447 H   0  0  0  0  0  0  0  0  0  0  0  0
  1  2  1  0
  2  3  1  0
  2  4  1  0
  2  5  1  0
  5  6  1  0
  6  7  1  0
  7  8  1  0
  7  9  1  0
  9 10  1  0
 10 11  1  0
 11 12  1  0
 12 13  2  0
 13 14  1  0
 13 15  1  0
 15 16  2  0
 16 17  1  0
 17 18  1  0
 17 11  2  0
  1 19  1  0
  1 20  1  0
  1 21  1  0
  3 22  1  0
  3 23  1  0
  3 24  1  0
  4 25  1  0
  4 26  1  0
  4 27  1  0
  5 28  1  0
  6 29  1  0
  6 30  1  0
  7 31  1  0
  8 32  1  0
  9 33  1  0
  9 34  1  0
 12 35  1  0
 15 36  1  0
 16 37  1  0
M  END
$$$$
OCNT-2328329
     RDKit          3D

 40 41  0  0  0  0  0  0  0  0999 V2000
   -3.9993    2.2819    2.9298 C   0  0  0  0  0  0  0  0  0  0  0  0
   -2.7032    1.6976    2.9073 O   0  0  0  0  0  0  0  0  0  0  0  0
   -2.3833    0.9336    1.8190 C   0  0  0  0  0  0  0  0  0  0  0  0
   -1.1183    0.3481    1.8679 C   0  0  0  0  0  0  0  0  0  0  0  0
   -0.6458   -0.4536    0.8176 C   0  0  0  0  0  0  0  0  0  0  0  0
    0.6262   -1.0864    0.8869 N   0  0  0  0  0  0  0  0  0  0  0  0
    1.7704   -0.2638    1.2901 C   0  0  0  0  0  0  0  0  0  0  0  0
    2.3124   -0.8237    2.6069 C   0  0  0  0  0  0  0  0  0  0  0  0
    2.8718   -0.3074    0.2126 C   0  0  0  0  0  0  0  0  0  0  0  0
    2.4625    0.4140   -1.0791 C   0  0  0  0  0  0  0  0  0  0  0  0
    3.6145    0.5766   -2.0732 C   0  0  0  0  0  0  0  0  0  0  0  0
    4.1024   -0.7009   -2.5772 N   0  0  0  0  0  0  0  0  0  0  0  0
   -1.4686   -0.7114   -0.2955 C   0  0  0  0  0  0  0  0  0  0  0  0
   -1.0151   -1.4990   -1.2990 N   0  0  0  0  0  0  0  0  0  0  0  0
   -1.8202   -1.7162   -2.3603 C   0  0  0  0  0  0  0  0  0  0  0  0
   -3.0849   -1.1784   -2.4876 C   0  0  0  0  0  0  0  0  0  0  0  0
   -3.5530   -0.3667   -1.4621 C   0  0  0  0  0  0  0  0  0  0  0  0
   -2.7478   -0.1165   -0.3415 C   0  0  0  0  0  0  0  0  0  0  0  0
   -3.1944    0.7038    0.7111 C   0  0  0  0  0  0  0  0  0  0  0  0
   -4.7796    1.5138    2.9134 H   0  0  0  0  0  0  0  0  0  0  0  0
   -4.1254    2.9922    2.1060 H   0  0  0  0  0  0  0  0  0  0  0  0
   -4.0991    2.8380    3.8669 H   0  0  0  0  0  0  0  0  0  0  0  0
   -0.5040    0.5061    2.7497 H   0  0  0  0  0  0  0  0  0  0  0  0
    0.7613   -1.5653   -0.0124 H   0  0  0  0  0  0  0  0  0  0  0  0
    1.4913    0.7855    1.4485 H   0  0  0  0  0  0  0  0  0  0  0  0
    3.1676   -0.2367    2.9580 H   0  0  0  0  0  0  0  0  0  0  0  0
    2.6369   -1.8644    2.4937 H   0  0  0  0  0  0  0  0  0  0  0  0
    1.5460   -0.8015    3.3890 H   0  0  0  0  0  0  0  0  0  0  0  0
    3.7760    0.1715    0.6095 H   0  0  0  0  0  0  0  0  0  0  0  0
    3.1324   -1.3498   -0.0087 H   0  0  0  0  0  0  0  0  0  0  0  0
    1.6373   -0.1191   -1.5653 H   0  0  0  0  0  0  0  0  0  0  0  0
    2.0866    1.4138   -0.8286 H   0  0  0  0  0  0  0  0  0  0  0  0
    3.2669    1.1753   -2.9223 H   0  0  0  0  0  0  0  0  0  0  0  0
    4.4403    1.1248   -1.6062 H   0  0  0  0  0  0  0  0  0  0  0  0
    4.4969   -1.2507   -1.8161 H   0  0  0  0  0  0  0  0  0  0  0  0
    4.8645   -0.5370   -3.2335 H   0  0  0  0  0  0  0  0  0  0  0  0
   -1.4026   -2.3571   -3.1317 H   0  0  0  0  0  0  0  0  0  0  0  0
   -3.6907   -1.3853   -3.3622 H   0  0  0  0  0  0  0  0  0  0  0  0
   -4.5461    0.0682   -1.5412 H   0  0  0  0  0  0  0  0  0  0  0  0
   -4.1829    1.1458    0.6421 H   0  0  0  0  0  0  0  0  0  0  0  0
  1  2  1  0
  2  3  1  0
  3  4  2  0
  4  5  1  0
  5  6  1  0
  6  7  1  0
  7  8  1  0
  7  9  1  0
  9 10  1  0
 10 11  1  0
 11 12  1  0
  5 13  2  0
 13 14  1  0
 14 15  2  0
 15 16  1  0
 16 17  2  0
 17 18  1  0
 18 19  2  0
 19  3  1  0
 18 13  1  0
  1 20  1  0
  1 21  1  0
  1 22  1  0
  4 23  1  0
  6 24  1  0
  7 25  1  0
  8 26  1  0
  8 27  1  0
  8 28  1  0
  9 29  1  0
  9 30  1  0
 10 31  1  0
 10 32  1  0
 11 33  1  0
 11 34  1  0
 12 35  1  0
 12 36  1  0
 15 37  1  0
 16 38  1  0
 17 39  1  0
 19 40  1  0
M  END
$$$$
OCNT-2328331
     RDKit          3D

 23 24  0  0  0  0  0  0  0  0999 V2000
   -0.1358   -0.5571   -2.6655 Cl  0  0  0  0  0  0  0  0  0  0  0  0
   -1.3315   -0.3038   -1.4368 C   0  0  0  0  0  0  0  0  0  0  0  0
   -2.5739    0.1958   -1.8481 C   0  0  0  0  0  0  0  0  0  0  0  0
   -3.6087    0.3558   -0.9281 C   0  0  0  0  0  0  0  0  0  0  0  0
   -3.4070    0.0083    0.4052 C   0  0  0  0  0  0  0  0  0  0  0  0
   -2.1669   -0.4895    0.8171 C   0  0  0  0  0  0  0  0  0  0  0  0
   -1.9742   -0.9101    2.4864 Cl  0  0  0  0  0  0  0  0  0  0  0  0
   -1.1028   -0.6556   -0.0918 C   0  0  0  0  0  0  0  0  0  0  0  0
    0.1683   -1.0935    0.3717 N   0  0  0  0  0  0  0  0  0  0  0  0
    1.2325   -0.2407    0.3937 C   0  0  0  0  0  0  0  0  0  0  0  0
    1.3057    0.9907   -0.0212 N   0  0  0  0  0  0  0  0  0  0  0  0
    2.7033    1.3963    0.2803 C   0  0  0  0  0  0  0  0  0  0  0  0
    3.4540    0.1110    0.6323 C   0  0  0  0  0  0  0  0  0  0  0  0
    2.3608   -0.7928    0.9301 N   0  0  0  0  0  0  0  0  0  0  0  0
   -2.7386    0.4579   -2.8907 H   0  0  0  0  0  0  0  0  0  0  0  0
   -4.5701    0.7472   -1.2519 H   0  0  0  0  0  0  0  0  0  0  0  0
   -4.2156    0.1324    1.1214 H   0  0  0  0  0  0  0  0  0  0  0  0
    0.0823   -1.5772    1.2605 H   0  0  0  0  0  0  0  0  0  0  0  0
    2.6974    2.0943    1.1249 H   0  0  0  0  0  0  0  0  0  0  0  0
    3.1542    1.8970   -0.5820 H   0  0  0  0  0  0  0  0  0  0  0  0
    4.1271    0.2397    1.4840 H   0  0  0  0  0  0  0  0  0  0  0  0
    4.0237   -0.2556   -0.2284 H   0  0  0  0  0  0  0  0  0  0  0  0
    2.5159   -1.7506    0.6370 H   0  0  0  0  0  0  0  0  0  0  0  0
  1  2  1  0
  2  3  1  0
  3  4  2  0
  4  5  1  0
  5  6  2  0
  6  7  1  0
  6  8  1  0
  8  9  1  0
  9 10  1  0
 10 11  2  0
 11 12  1  0
 12 13  1  0
 13 14  1  0
  8  2  2  0
 14 10  1  0
  3 15  1  0
  4 16  1  0
  5 17  1  0
  9 18  1  0
 12 19  1  0
 12 20  1  0
 13 21  1  0
 13 22  1  0
 14 23  1  0
M  END
$$$$
OCNT-2328333
     RDKit          3D

 40 40  0  0  0  0  0  0  0  0999 V2000
    3.7467    3.2076    2.9274 C   0  0  0  0  0  0  0  0  0  0  0  0
    3.9742    2.1611    1.8770 C   0  0  0  0  0  0  0  0  0  0  0  0
    5.1582    1.4116    1.8644 C   0  0  0  0  0  0  0  0  0  0  0  0
    5.3597    0.4191    0.9002 C   0  0  0  0  0  0  0  0  0  0  0  0
    4.3723    0.1569   -0.0503 C   0  0  0  0  0  0  0  0  0  0  0  0
    4.6583   -1.0709   -1.2278 Cl  0  0  0  0  0  0  0  0  0  0  0  0
    3.1780    0.8798   -0.0229 C   0  0  0  0  0  0  0  0  0  0  0  0
    2.1918    0.6762   -0.9511 O   0  0  0  0  0  0  0  0  0  0  0  0
    1.2445   -0.3027   -0.4881 C   0  0  0  0  0  0  0  0  0  0  0  0
   -0.1715    0.2115   -0.7673 C   0  0  0  0  0  0  0  0  0  0  0  0
   -0.5103    1.2405    0.1791 O   0  0  0  0  0  0  0  0  0  0  0  0
   -1.2117   -0.9202   -0.6437 C   0  0  0  0  0  0  0  0  0  0  0  0
   -2.5604   -0.3473   -0.8045 N   0  0  0  0  0  0  0  0  0  0  0  0
   -3.6832   -1.2935   -0.6462 C   0  0  0  0  0  0  0  0  0  0  0  0
   -4.9688   -0.4637   -0.8296 C   0  0  0  0  0  0  0  0  0  0  0  0
   -3.7111   -1.9221    0.7563 C   0  0  0  0  0  0  0  0  0  0  0  0
   -3.6583   -2.3970   -1.7164 C   0  0  0  0  0  0  0  0  0  0  0  0
    2.9818    1.8838    0.9287 C   0  0  0  0  0  0  0  0  0  0  0  0
    4.6906    3.6827    3.2146 H   0  0  0  0  0  0  0  0  0  0  0  0
    3.0851    3.9976    2.5562 H   0  0  0  0  0  0  0  0  0  0  0  0
    3.2931    2.7545    3.8144 H   0  0  0  0  0  0  0  0  0  0  0  0
    5.9348    1.6008    2.6028 H   0  0  0  0  0  0  0  0  0  0  0  0
    6.2891   -0.1441    0.8967 H   0  0  0  0  0  0  0  0  0  0  0  0
    1.4312   -1.2221   -1.0543 H   0  0  0  0  0  0  0  0  0  0  0  0
    1.3596   -0.5213    0.5826 H   0  0  0  0  0  0  0  0  0  0  0  0
   -0.2176    0.6679   -1.7633 H   0  0  0  0  0  0  0  0  0  0  0  0
   -1.4901    1.2499    0.1895 H   0  0  0  0  0  0  0  0  0  0  0  0
   -1.0094   -1.6845   -1.4006 H   0  0  0  0  0  0  0  0  0  0  0  0
   -1.1158   -1.3682    0.3507 H   0  0  0  0  0  0  0  0  0  0  0  0
   -2.6236    0.0863   -1.7286 H   0  0  0  0  0  0  0  0  0  0  0  0
   -5.8623   -1.0895   -0.7203 H   0  0  0  0  0  0  0  0  0  0  0  0
   -5.0119   -0.0023   -1.8235 H   0  0  0  0  0  0  0  0  0  0  0  0
   -5.0363    0.3388   -0.0853 H   0  0  0  0  0  0  0  0  0  0  0  0
   -3.6702   -1.1544    1.5376 H   0  0  0  0  0  0  0  0  0  0  0  0
   -4.6323   -2.4968    0.9090 H   0  0  0  0  0  0  0  0  0  0  0  0
   -2.8753   -2.6116    0.9149 H   0  0  0  0  0  0  0  0  0  0  0  0
   -3.6031   -1.9730   -2.7257 H   0  0  0  0  0  0  0  0  0  0  0  0
   -2.8065   -3.0732   -1.5874 H   0  0  0  0  0  0  0  0  0  0  0  0
   -4.5661   -3.0098   -1.6672 H   0  0  0  0  0  0  0  0  0  0  0  0
    2.0470    2.4419    0.9244 H   0  0  0  0  0  0  0  0  0  0  0  0
  1  2  1  0
  2  3  1  0
  3  4  2  0
  4  5  1  0
  5  6  1  0
  5  7  2  0
  7  8  1  0
  8  9  1  0
  9 10  1  0
 10 11  1  0
 10 12  1  0
 12 13  1  0
 13 14  1  0
 14 15  1  0
 14 16  1  0
 14 17  1  0
  7 18  1  0
 18  2  2  0
  1 19  1  0
  1 20  1  0
  1 21  1  0
  3 22  1  0
  4 23  1  0
  9 24  1  0
  9 25  1  0
 10 26  1  0
 11 27  1  0
 12 28  1  0
 12 29  1  0
 13 30  1  0
 15 31  1  0
 15 32  1  0
 15 33  1  0
 16 34  1  0
 16 35  1  0
 16 36  1  0
 17 37  1  0
 17 38  1  0
 17 39  1  0
 18 40  1  0
M  END
$$$$
OCNT-2328337
     RDKit          3D

 54 54  0  0  0  0  0  0  0  0999 V2000
   -7.2403    0.2835    1.1159 C   0  0  0  0  0  0  0  0  0  0  0  0
   -6.1619    1.1755    0.8430 O   0  0  0  0  0  0  0  0  0  0  0  0
   -5.0020    0.4970    0.4799 C   0  0  0  0  0  0  0  0  0  0  0  0
   -3.9038    0.6065    1.2392 C   0  0  0  0  0  0  0  0  0  0  0  0
   -3.9593    1.3077    2.4404 O   0  0  0  0  0  0  0  0  0  0  0  0
   -3.1495    2.4809    2.4015 C   0  0  0  0  0  0  0  0  0  0  0  0
   -2.6452   -0.1025    0.8739 C   0  0  0  0  0  0  0  0  0  0  0  0
   -1.6556   -0.0536    1.5993 O   0  0  0  0  0  0  0  0  0  0  0  0
   -2.6098   -0.8740   -0.4048 C   0  0  0  0  0  0  0  0  0  0  0  0
   -1.2937   -1.5666   -0.6908 C   0  0  0  0  0  0  0  0  0  0  0  0
   -0.2992   -0.6276   -1.3813 C   0  0  0  0  0  0  0  0  0  0  0  0
    1.0171   -1.3118   -1.7637 C   0  0  0  0  0  0  0  0  0  0  0  0
    1.8272   -1.8915   -0.5995 C   0  0  0  0  0  0  0  0  0  0  0  0
    2.1875   -0.9038    0.5147 C   0  0  0  0  0  0  0  0  0  0  0  0
    2.9698    0.3381    0.0753 C   0  0  0  0  0  0  0  0  0  0  0  0
    4.3244    0.0068   -0.5587 C   0  0  0  0  0  0  0  0  0  0  0  0
    5.1559    1.2560   -0.8729 C   0  0  0  0  0  0  0  0  0  0  0  0
    6.2067    1.6031    0.1841 C   0  0  0  0  0  0  0  0  0  0  0  0
    5.6378    1.9699    1.5468 C   0  0  0  0  0  0  0  0  0  0  0  0
    6.6871    2.4175    2.3970 O   0  0  0  0  0  0  0  0  0  0  0  0
   -3.6986   -0.9397   -1.1934 C   0  0  0  0  0  0  0  0  0  0  0  0
   -3.7723   -1.6525   -2.5166 C   0  0  0  0  0  0  0  0  0  0  0  0
   -4.9686   -0.2594   -0.8034 C   0  0  0  0  0  0  0  0  0  0  0  0
   -5.9554   -0.3291   -1.5308 O   0  0  0  0  0  0  0  0  0  0  0  0
   -8.0039    0.8422    1.6655 H   0  0  0  0  0  0  0  0  0  0  0  0
   -6.9198   -0.5567    1.7422 H   0  0  0  0  0  0  0  0  0  0  0  0
   -7.6966   -0.0804    0.1915 H   0  0  0  0  0  0  0  0  0  0  0  0
   -3.3991    3.0878    3.2770 H   0  0  0  0  0  0  0  0  0  0  0  0
   -2.0857    2.2349    2.4584 H   0  0  0  0  0  0  0  0  0  0  0  0
   -3.3558    3.0776    1.5059 H   0  0  0  0  0  0  0  0  0  0  0  0
   -1.4484   -2.4597   -1.3065 H   0  0  0  0  0  0  0  0  0  0  0  0
   -0.8728   -1.9517    0.2454 H   0  0  0  0  0  0  0  0  0  0  0  0
   -0.7531   -0.2343   -2.3003 H   0  0  0  0  0  0  0  0  0  0  0  0
   -0.0961    0.2435   -0.7476 H   0  0  0  0  0  0  0  0  0  0  0  0
    1.6360   -0.5930   -2.3137 H   0  0  0  0  0  0  0  0  0  0  0  0
    0.8013   -2.1234   -2.4701 H   0  0  0  0  0  0  0  0  0  0  0  0
    2.7459   -2.3339   -1.0034 H   0  0  0  0  0  0  0  0  0  0  0  0
    1.2744   -2.7277   -0.1548 H   0  0  0  0  0  0  0  0  0  0  0  0
    2.7735   -1.4395    1.2723 H   0  0  0  0  0  0  0  0  0  0  0  0
    1.2716   -0.5778    1.0215 H   0  0  0  0  0  0  0  0  0  0  0  0
    2.3711    0.9306   -0.6259 H   0  0  0  0  0  0  0  0  0  0  0  0
    3.1143    0.9702    0.9574 H   0  0  0  0  0  0  0  0  0  0  0  0
    4.1430   -0.5184   -1.5041 H   0  0  0  0  0  0  0  0  0  0  0  0
    4.8905   -0.6815    0.0795 H   0  0  0  0  0  0  0  0  0  0  0  0
    5.6957    1.0732   -1.8112 H   0  0  0  0  0  0  0  0  0  0  0  0
    4.5066    2.1201   -1.0569 H   0  0  0  0  0  0  0  0  0  0  0  0
    6.8116    2.4419   -0.1838 H   0  0  0  0  0  0  0  0  0  0  0  0
    6.9105    0.7687    0.2975 H   0  0  0  0  0  0  0  0  0  0  0  0
    4.9071    2.7796    1.4612 H   0  0  0  0  0  0  0  0  0  0  0  0
    5.1576    1.1134    2.0284 H   0  0  0  0  0  0  0  0  0  0  0  0
    7.3202    1.6852    2.4899 H   0  0  0  0  0  0  0  0  0  0  0  0
   -4.4270   -2.5268   -2.4393 H   0  0  0  0  0  0  0  0  0  0  0  0
   -2.8001   -1.9926   -2.8808 H   0  0  0  0  0  0  0  0  0  0  0  0
   -4.1713   -0.9869   -3.2904 H   0  0  0  0  0  0  0  0  0  0  0  0
  1  2  1  0
  2  3  1  0
  3  4  2  0
  4  5  1  0
  5  6  1  0
  4  7  1  0
  7  8  2  0
  7  9  1  0
  9 10  1  0
 10 11  1  0
 11 12  1  0
 12 13  1  0
 13 14  1  0
 14 15  1  0
 15 16  1  0
 16 17  1  0
 17 18  1  0
 18 19  1  0
 19 20  1  0
  9 21  2  0
 21 22  1  0
 21 23  1  0
 23 24  2  0
 23  3  1  0
  1 25  1  0
  1 26  1  0
  1 27  1  0
  6 28  1  0
  6 29  1  0
  6 30  1  0
 10 31  1  0
 10 32  1  0
 11 33  1  0
 11 34  1  0
 12 35  1  0
 12 36  1  0
 13 37  1  0
 13 38  1  0
 14 39  1  0
 14 40  1  0
 15 41  1  0
 15 42  1  0
 16 43  1  0
 16 44  1  0
 17 45  1  0
 17 46  1  0
 18 47  1  0
 18 48  1  0
 19 49  1  0
 19 50  1  0
 20 51  1  0
 22 52  1  0
 22 53  1  0
 22 54  1  0
M  END
$$$$
OCNT-2328344
     RDKit          3D

 42 42  0  0  0  0  0  0  0  0999 V2000
    5.3158   -1.5992    0.1680 C   0  0  0  0  0  0  0  0  0  0  0  0
    3.9210   -1.2813    0.7006 C   0  0  0  0  0  0  0  0  0  0  0  0
    3.4086    0.0096    0.1941 N   0  0  0  0  0  0  0  0  0  0  0  0
    4.0472    1.1348    0.9061 C   0  0  0  0  0  0  0  0  0  0  0  0
    3.9221    2.4483    0.1389 C   0  0  0  0  0  0  0  0  0  0  0  0
    1.9348    0.0665    0.3547 C   0  0  0  0  0  0  0  0  0  0  0  0
    1.1776   -0.7721   -0.6949 C   0  0  0  0  0  0  0  0  0  0  0  0
   -0.2572   -0.5603   -0.6378 N   0  0  0  0  0  0  0  0  0  0  0  0
   -1.0441   -1.1112    0.3448 C   0  0  0  0  0  0  0  0  0  0  0  0
   -0.5877   -1.8590    1.2051 O   0  0  0  0  0  0  0  0  0  0  0  0
   -2.5074   -0.7770    0.3378 C   0  0  0  0  0  0  0  0  0  0  0  0
   -3.3056   -1.5069    1.2356 C   0  0  0  0  0  0  0  0  0  0  0  0
   -4.6795   -1.2855    1.3062 C   0  0  0  0  0  0  0  0  0  0  0  0
   -5.6085   -2.2073    2.4368 Cl  0  0  0  0  0  0  0  0  0  0  0  0
   -5.3021   -0.3602    0.4567 C   0  0  0  0  0  0  0  0  0  0  0  0
   -6.6645   -0.0333    0.5857 N   0  0  0  0  0  0  0  0  0  0  0  0
   -4.4966    0.4073   -0.3959 C   0  0  0  0  0  0  0  0  0  0  0  0
   -3.1075    0.2061   -0.4771 C   0  0  0  0  0  0  0  0  0  0  0  0
   -2.2928    0.9296   -1.3131 O   0  0  0  0  0  0  0  0  0  0  0  0
   -2.8640    2.0213   -2.0269 C   0  0  0  0  0  0  0  0  0  0  0  0
    5.3391   -1.5510   -0.9259 H   0  0  0  0  0  0  0  0  0  0  0  0
    6.0768   -0.9193    0.5601 H   0  0  0  0  0  0  0  0  0  0  0  0
    5.6028   -2.6143    0.4628 H   0  0  0  0  0  0  0  0  0  0  0  0
    3.2789   -2.1052    0.3712 H   0  0  0  0  0  0  0  0  0  0  0  0
    3.9194   -1.3053    1.7978 H   0  0  0  0  0  0  0  0  0  0  0  0
    3.6396    1.2467    1.9189 H   0  0  0  0  0  0  0  0  0  0  0  0
    5.1214    0.9565    1.0228 H   0  0  0  0  0  0  0  0  0  0  0  0
    4.3098    2.3456   -0.8801 H   0  0  0  0  0  0  0  0  0  0  0  0
    4.5056    3.2275    0.6408 H   0  0  0  0  0  0  0  0  0  0  0  0
    2.8890    2.8016    0.0808 H   0  0  0  0  0  0  0  0  0  0  0  0
    1.6432   -0.2304    1.3706 H   0  0  0  0  0  0  0  0  0  0  0  0
    1.5822    1.0974    0.2335 H   0  0  0  0  0  0  0  0  0  0  0  0
    1.3626   -1.8422   -0.5611 H   0  0  0  0  0  0  0  0  0  0  0  0
    1.4969   -0.4938   -1.7053 H   0  0  0  0  0  0  0  0  0  0  0  0
   -0.6757    0.1203   -1.2635 H   0  0  0  0  0  0  0  0  0  0  0  0
   -2.8506   -2.2519    1.8866 H   0  0  0  0  0  0  0  0  0  0  0  0
   -7.2033   -0.7708    1.0380 H   0  0  0  0  0  0  0  0  0  0  0  0
   -7.1040    0.3065   -0.2627 H   0  0  0  0  0  0  0  0  0  0  0  0
   -4.9866    1.1698   -0.9927 H   0  0  0  0  0  0  0  0  0  0  0  0
   -2.0587    2.5135   -2.5805 H   0  0  0  0  0  0  0  0  0  0  0  0
   -3.2967    2.7590   -1.3436 H   0  0  0  0  0  0  0  0  0  0  0  0
   -3.6013    1.6698   -2.7557 H   0  0  0  0  0  0  0  0  0  0  0  0
  1  2  1  0
  2  3  1  0
  3  4  1  0
  4  5  1  0
  3  6  1  0
  6  7  1  0
  7  8  1  0
  8  9  1  0
  9 10  2  0
  9 11  1  0
 11 12  1  0
 12 13  2  0
 13 14  1  0
 13 15  1  0
 15 16  1  0
 15 17  2  0
 17 18  1  0
 18 19  1  0
 19 20  1  0
 18 11  2  0
  1 21  1  0
  1 22  1  0
  1 23  1  0
  2 24  1  0
  2 25  1  0
  4 26  1  0
  4 27  1  0
  5 28  1  0
  5 29  1  0
  5 30  1  0
  6 31  1  0
  6 32  1  0
  7 33  1  0
  7 34  1  0
  8 35  1  0
 12 36  1  0
 16 37  1  0
 16 38  1  0
 17 39  1  0
 20 40  1  0
 20 41  1  0
 20 42  1  0
M  END
$$$$
OCNT-2328345
     RDKit          3D

 44 47  0  0  0  0  0  0  0  0999 V2000
    4.6473    0.0095    1.4733 C   0  0  0  0  0  0  0  0  0  0  0  0
    4.5999    0.5633    0.1258 N   0  0  0  0  0  0  0  0  0  0  0  0
    3.5531   -0.0425   -0.7000 C   0  0  0  0  0  0  0  0  0  0  0  0
    2.1343    0.3399   -0.2574 C   0  0  0  0  0  0  0  0  0  0  0  0
    1.0921   -0.1954   -1.2606 C   0  0  0  0  0  0  0  0  0  0  0  0
   -0.3930   -0.1817   -0.8113 C   0  0  0  0  0  0  0  0  0  0  0  0
   -1.2834   -0.7461   -1.9846 C   0  0  0  0  0  0  0  0  0  0  0  0
   -2.7934   -0.7729   -1.5839 C   0  0  0  0  0  0  0  0  0  0  0  0
   -2.9744   -0.2377   -0.1397 C   0  0  0  0  0  0  0  0  0  0  0  0
   -2.3814    1.1610   -0.1469 C   0  0  0  0  0  0  0  0  0  0  0  0
   -1.0162    1.2130   -0.5399 C   0  0  0  0  0  0  0  0  0  0  0  0
   -0.4212    2.4600   -0.7106 C   0  0  0  0  0  0  0  0  0  0  0  0
   -1.1460    3.6225   -0.4239 C   0  0  0  0  0  0  0  0  0  0  0  0
   -2.4735    3.5516    0.0088 C   0  0  0  0  0  0  0  0  0  0  0  0
   -3.1031    2.3169    0.1391 C   0  0  0  0  0  0  0  0  0  0  0  0
   -2.1058   -1.1241    0.7353 C   0  0  0  0  0  0  0  0  0  0  0  0
   -0.7326   -1.1327    0.3717 C   0  0  0  0  0  0  0  0  0  0  0  0
    0.1277   -2.0064    1.0342 C   0  0  0  0  0  0  0  0  0  0  0  0
   -0.3582   -2.8037    2.0762 C   0  0  0  0  0  0  0  0  0  0  0  0
   -1.7047   -2.7523    2.4494 C   0  0  0  0  0  0  0  0  0  0  0  0
   -2.5894   -1.9167    1.7726 C   0  0  0  0  0  0  0  0  0  0  0  0
    3.7540    0.2650    2.0501 H   0  0  0  0  0  0  0  0  0  0  0  0
    4.7704   -1.0782    1.4585 H   0  0  0  0  0  0  0  0  0  0  0  0
    5.5035    0.4346    2.0069 H   0  0  0  0  0  0  0  0  0  0  0  0
    5.5022    0.4013   -0.3220 H   0  0  0  0  0  0  0  0  0  0  0  0
    3.6688   -1.1330   -0.7223 H   0  0  0  0  0  0  0  0  0  0  0  0
    3.7027    0.3089   -1.7281 H   0  0  0  0  0  0  0  0  0  0  0  0
    2.0785    1.4286   -0.1841 H   0  0  0  0  0  0  0  0  0  0  0  0
    1.9410   -0.0399    0.7477 H   0  0  0  0  0  0  0  0  0  0  0  0
    1.3632   -1.2274   -1.5236 H   0  0  0  0  0  0  0  0  0  0  0  0
    1.1941    0.3814   -2.1902 H   0  0  0  0  0  0  0  0  0  0  0  0
   -0.9685   -1.7635   -2.2536 H   0  0  0  0  0  0  0  0  0  0  0  0
   -1.1651   -0.1330   -2.8882 H   0  0  0  0  0  0  0  0  0  0  0  0
   -3.3681   -0.1656   -2.2948 H   0  0  0  0  0  0  0  0  0  0  0  0
   -3.1719   -1.7999   -1.6646 H   0  0  0  0  0  0  0  0  0  0  0  0
   -4.0244   -0.2452    0.1691 H   0  0  0  0  0  0  0  0  0  0  0  0
    0.5909    2.5681   -1.0816 H   0  0  0  0  0  0  0  0  0  0  0  0
   -0.6721    4.5937   -0.5462 H   0  0  0  0  0  0  0  0  0  0  0  0
   -3.0202    4.4654    0.2262 H   0  0  0  0  0  0  0  0  0  0  0  0
   -4.1432    2.2640    0.4458 H   0  0  0  0  0  0  0  0  0  0  0  0
    1.1725   -2.0995    0.7596 H   0  0  0  0  0  0  0  0  0  0  0  0
    0.3182   -3.4754    2.5995 H   0  0  0  0  0  0  0  0  0  0  0  0
   -2.0645   -3.3788    3.2614 H   0  0  0  0  0  0  0  0  0  0  0  0
   -3.6399   -1.8970    2.0464 H   0  0  0  0  0  0  0  0  0  0  0  0
  1  2  1  0
  2  3  1  0
  3  4  1  0
  4  5  1  0
  5  6  1  0
  6  7  1  0
  7  8  1  0
  8  9  1  0
  9 10  1  0
 10 11  1  0
 11 12  2  0
 12 13  1  0
 13 14  2  0
 14 15  1  0
  9 16  1  0
 16 17  1  0
 17 18  2  0
 18 19  1  0
 19 20  2  0
 20 21  1  0
 11  6  1  0
 21 16  2  0
 17  6  1  0
 15 10  2  0
  1 22  1  0
  1 23  1  0
  1 24  1  0
  2 25  1  0
  3 26  1  0
  3 27  1  0
  4 28  1  0
  4 29  1  0
  5 30  1  0
  5 31  1  0
  7 32  1  0
  7 33  1  0
  8 34  1  0
  8 35  1  0
  9 36  1  0
 12 37  1  0
 13 38  1  0
 14 39  1  0
 15 40  1  0
 18 41  1  0
 19 42  1  0
 20 43  1  0
 21 44  1  0
M  END
$$$$
OCNT-2328368
     RDKit          3D

 43 44  0  0  0  0  0  0  0  0999 V2000
    0.2415    2.6187   -0.3293 C   0  0  0  0  0  0  0  0  0  0  0  0
    0.2067    1.0982   -0.5569 C   0  0  0  0  0  0  0  0  0  0  0  0
    1.5497    0.4410   -0.1455 C   0  0  0  0  0  0  0  0  0  0  0  0
    2.6067    0.9980   -0.9473 O   0  0  0  0  0  0  0  0  0  0  0  0
    3.7972    0.4017   -0.6343 C   0  0  0  0  0  0  0  0  0  0  0  0
    4.2394   -0.6781   -1.3948 C   0  0  0  0  0  0  0  0  0  0  0  0
    5.4676   -1.2694   -1.1000 C   0  0  0  0  0  0  0  0  0  0  0  0
    6.2512   -0.7682   -0.0587 C   0  0  0  0  0  0  0  0  0  0  0  0
    5.8109    0.3284    0.6851 C   0  0  0  0  0  0  0  0  0  0  0  0
    4.5826    0.9208    0.3927 C   0  0  0  0  0  0  0  0  0  0  0  0
   -0.9532    0.4062    0.0642 N   0  0  0  0  0  0  0  0  0  0  0  0
   -1.0871    0.6488    1.5174 C   0  0  0  0  0  0  0  0  0  0  0  0
   -1.4882   -0.5838    2.3431 C   0  0  0  0  0  0  0  0  0  0  0  0
   -0.2519   -1.8676    2.2658 Cl  0  0  0  0  0  0  0  0  0  0  0  0
   -2.1988    0.6993   -0.6750 C   0  0  0  0  0  0  0  0  0  0  0  0
   -3.3137   -0.2898   -0.4175 C   0  0  0  0  0  0  0  0  0  0  0  0
   -4.5439    0.1364    0.1038 C   0  0  0  0  0  0  0  0  0  0  0  0
   -5.5715   -0.7811    0.3305 C   0  0  0  0  0  0  0  0  0  0  0  0
   -5.3822   -2.1303    0.0355 C   0  0  0  0  0  0  0  0  0  0  0  0
   -4.1665   -2.5648   -0.4890 C   0  0  0  0  0  0  0  0  0  0  0  0
   -3.1388   -1.6497   -0.7182 C   0  0  0  0  0  0  0  0  0  0  0  0
    1.0481    3.0779   -0.9115 H   0  0  0  0  0  0  0  0  0  0  0  0
   -0.6905    3.0945   -0.6499 H   0  0  0  0  0  0  0  0  0  0  0  0
    0.4106    2.8737    0.7214 H   0  0  0  0  0  0  0  0  0  0  0  0
    0.1445    0.9529   -1.6447 H   0  0  0  0  0  0  0  0  0  0  0  0
    1.4902   -0.6411   -0.3220 H   0  0  0  0  0  0  0  0  0  0  0  0
    1.7611    0.6179    0.9157 H   0  0  0  0  0  0  0  0  0  0  0  0
    3.6308   -1.0575   -2.2099 H   0  0  0  0  0  0  0  0  0  0  0  0
    5.8151   -2.1179   -1.6830 H   0  0  0  0  0  0  0  0  0  0  0  0
    7.2084   -1.2298    0.1695 H   0  0  0  0  0  0  0  0  0  0  0  0
    6.4270    0.7228    1.4887 H   0  0  0  0  0  0  0  0  0  0  0  0
    4.2416    1.7810    0.9605 H   0  0  0  0  0  0  0  0  0  0  0  0
   -1.8026    1.4590    1.7085 H   0  0  0  0  0  0  0  0  0  0  0  0
   -0.1413    1.0036    1.9431 H   0  0  0  0  0  0  0  0  0  0  0  0
   -2.4416   -1.0142    2.0363 H   0  0  0  0  0  0  0  0  0  0  0  0
   -1.5818   -0.3006    3.3963 H   0  0  0  0  0  0  0  0  0  0  0  0
   -2.5430    1.7208   -0.4682 H   0  0  0  0  0  0  0  0  0  0  0  0
   -2.0148    0.6592   -1.7574 H   0  0  0  0  0  0  0  0  0  0  0  0
   -4.7104    1.1855    0.3366 H   0  0  0  0  0  0  0  0  0  0  0  0
   -6.5217   -0.4432    0.7357 H   0  0  0  0  0  0  0  0  0  0  0  0
   -6.1823   -2.8438    0.2131 H   0  0  0  0  0  0  0  0  0  0  0  0
   -4.0159   -3.6165   -0.7177 H   0  0  0  0  0  0  0  0  0  0  0  0
   -2.1889   -1.9989   -1.1191 H   0  0  0  0  0  0  0  0  0  0  0  0
  1  2  1  0
  2  3  1  0
  3  4  1  0
  4  5  1  0
  5  6  2  0
  6  7  1  0
  7  8  2  0
  8  9  1  0
  9 10  2  0
  2 11  1  0
 11 12  1  0
 12 13  1  0
 13 14  1  0
 11 15  1  0
 15 16  1  0
 16 17  2  0
 17 18  1  0
 18 19  2  0
 19 20  1  0
 20 21  2  0
 10  5  1  0
 21 16  1  0
  1 22  1  0
  1 23  1  0
  1 24  1  0
  2 25  1  0
  3 26  1  0
  3 27  1  0
  6 28  1  0
  7 29  1  0
  8 30  1  0
  9 31  1  0
 10 32  1  0
 12 33  1  0
 12 34  1  0
 13 35  1  0
 13 36  1  0
 15 37  1  0
 15 38  1  0
 17 39  1  0
 18 40  1  0
 19 41  1  0
 20 42  1  0
 21 43  1  0
M  END
$$$$
OCNT-2328369
     RDKit          3D

 74 77  0  0  0  0  0  0  0  0999 V2000
   -4.5141    1.1256   -3.1225 C   0  0  0  0  0  0  0  0  0  0  0  0
   -4.0029    0.6340   -1.7941 C   0  0  0  0  0  0  0  0  0  0  0  0
   -2.6037    0.5547   -1.6097 C   0  0  0  0  0  0  0  0  0  0  0  0
   -2.0357    0.0831   -0.4234 C   0  0  0  0  0  0  0  0  0  0  0  0
   -0.6557   -0.0218   -0.2059 N   0  0  0  0  0  0  0  0  0  0  0  0
    0.4725    0.3776   -0.9064 C   0  0  0  0  0  0  0  0  0  0  0  0
    0.3920    1.1697   -1.9827 N   0  0  0  0  0  0  0  0  0  0  0  0
    1.5520    1.5466   -2.5584 C   0  0  0  0  0  0  0  0  0  0  0  0
    2.7921    1.1528   -2.1167 C   0  0  0  0  0  0  0  0  0  0  0  0
    4.1989    1.7513   -2.9026 Cl  0  0  0  0  0  0  0  0  0  0  0  0
    2.7876    0.3092   -1.0169 C   0  0  0  0  0  0  0  0  0  0  0  0
    3.9537   -0.2013   -0.4163 N   0  0  0  0  0  0  0  0  0  0  0  0
    5.0285   -0.8811   -1.0387 C   0  0  0  0  0  0  0  0  0  0  0  0
    4.8149   -1.6362   -2.2052 C   0  0  0  0  0  0  0  0  0  0  0  0
    5.8354   -2.4022   -2.7710 C   0  0  0  0  0  0  0  0  0  0  0  0
    7.0828   -2.4567   -2.1604 C   0  0  0  0  0  0  0  0  0  0  0  0
    7.3155   -1.7390   -0.9875 C   0  0  0  0  0  0  0  0  0  0  0  0
    6.3001   -0.9457   -0.4327 C   0  0  0  0  0  0  0  0  0  0  0  0
    6.5835   -0.0229    1.0705 S   0  0  0  0  0  0  0  0  0  0  0  0
    6.1530    1.3441    0.8378 O   0  0  0  0  0  0  0  0  0  0  0  0
    5.9761   -0.8248    2.1199 O   0  0  0  0  0  0  0  0  0  0  0  0
    8.3481    0.0475    1.3879 C   0  0  0  0  0  0  0  0  0  0  0  0
    9.0865    0.8909    0.3504 C   0  0  0  0  0  0  0  0  0  0  0  0
    8.6022    0.6195    2.7848 C   0  0  0  0  0  0  0  0  0  0  0  0
    1.6396   -0.0614   -0.4061 N   0  0  0  0  0  0  0  0  0  0  0  0
   -2.9171   -0.2533    0.6162 C   0  0  0  0  0  0  0  0  0  0  0  0
   -2.4372   -0.7073    1.8249 O   0  0  0  0  0  0  0  0  0  0  0  0
   -2.0460    0.3814    2.6853 C   0  0  0  0  0  0  0  0  0  0  0  0
   -3.2169    0.7900    3.5776 C   0  0  0  0  0  0  0  0  0  0  0  0
   -0.8875   -0.1258    3.5400 C   0  0  0  0  0  0  0  0  0  0  0  0
   -4.3025   -0.2100    0.4481 C   0  0  0  0  0  0  0  0  0  0  0  0
   -4.8719    0.2514   -0.7496 C   0  0  0  0  0  0  0  0  0  0  0  0
   -6.3904    0.2859   -0.9018 C   0  0  0  0  0  0  0  0  0  0  0  0
   -6.9293   -1.1268   -1.1867 C   0  0  0  0  0  0  0  0  0  0  0  0
   -8.4455   -1.1702   -1.0234 C   0  0  0  0  0  0  0  0  0  0  0  0
   -8.9179   -0.7737    0.3039 N   0  0  0  0  0  0  0  0  0  0  0  0
   -7.9281   -0.0575    1.1062 C   0  0  0  0  0  0  0  0  0  0  0  0
   -7.1294    0.9499    0.2820 C   0  0  0  0  0  0  0  0  0  0  0  0
   -5.0531    2.0703   -2.9984 H   0  0  0  0  0  0  0  0  0  0  0  0
   -3.6970    1.3034   -3.8301 H   0  0  0  0  0  0  0  0  0  0  0  0
   -5.1756    0.3797   -3.5755 H   0  0  0  0  0  0  0  0  0  0  0  0
   -1.9576    0.8457   -2.4341 H   0  0  0  0  0  0  0  0  0  0  0  0
   -0.3984   -0.6054    0.5796 H   0  0  0  0  0  0  0  0  0  0  0  0
    1.4408    2.2078   -3.4137 H   0  0  0  0  0  0  0  0  0  0  0  0
    3.6324   -0.7408    0.3898 H   0  0  0  0  0  0  0  0  0  0  0  0
    3.8376   -1.6519   -2.6816 H   0  0  0  0  0  0  0  0  0  0  0  0
    5.6472   -2.9727   -3.6776 H   0  0  0  0  0  0  0  0  0  0  0  0
    7.8707   -3.0723   -2.5909 H   0  0  0  0  0  0  0  0  0  0  0  0
    8.2929   -1.8369   -0.5301 H   0  0  0  0  0  0  0  0  0  0  0  0
    8.7230   -0.9802    1.3841 H   0  0  0  0  0  0  0  0  0  0  0  0
    8.9177    0.5350   -0.6689 H   0  0  0  0  0  0  0  0  0  0  0  0
    8.7658    1.9381    0.3858 H   0  0  0  0  0  0  0  0  0  0  0  0
   10.1659    0.8671    0.5359 H   0  0  0  0  0  0  0  0  0  0  0  0
    9.6755    0.6592    2.9990 H   0  0  0  0  0  0  0  0  0  0  0  0
    8.1969    1.6321    2.8829 H   0  0  0  0  0  0  0  0  0  0  0  0
    8.1323   -0.0010    3.5545 H   0  0  0  0  0  0  0  0  0  0  0  0
   -1.7039    1.2544    2.1149 H   0  0  0  0  0  0  0  0  0  0  0  0
   -3.6562   -0.0786    4.0846 H   0  0  0  0  0  0  0  0  0  0  0  0
   -2.9051    1.5209    4.3301 H   0  0  0  0  0  0  0  0  0  0  0  0
   -4.0181    1.2429    2.9833 H   0  0  0  0  0  0  0  0  0  0  0  0
   -0.0544   -0.4548    2.9091 H   0  0  0  0  0  0  0  0  0  0  0  0
   -0.5228    0.6519    4.2197 H   0  0  0  0  0  0  0  0  0  0  0  0
   -1.1978   -0.9937    4.1359 H   0  0  0  0  0  0  0  0  0  0  0  0
   -4.9314   -0.5384    1.2700 H   0  0  0  0  0  0  0  0  0  0  0  0
   -6.6362    0.9116   -1.7685 H   0  0  0  0  0  0  0  0  0  0  0  0
   -6.4735   -1.8696   -0.5182 H   0  0  0  0  0  0  0  0  0  0  0  0
   -6.6574   -1.4290   -2.2053 H   0  0  0  0  0  0  0  0  0  0  0  0
   -8.9080   -0.5037   -1.7621 H   0  0  0  0  0  0  0  0  0  0  0  0
   -8.8107   -2.1797   -1.2489 H   0  0  0  0  0  0  0  0  0  0  0  0
   -9.2383   -1.5939    0.8203 H   0  0  0  0  0  0  0  0  0  0  0  0
   -8.4525    0.4668    1.9116 H   0  0  0  0  0  0  0  0  0  0  0  0
   -7.2546   -0.7759    1.5871 H   0  0  0  0  0  0  0  0  0  0  0  0
   -7.8321    1.6938   -0.1205 H   0  0  0  0  0  0  0  0  0  0  0  0
   -6.4469    1.5133    0.9294 H   0  0  0  0  0  0  0  0  0  0  0  0
  1  2  1  0
  2  3  1  0
  3  4  2  0
  4  5  1  0
  5  6  1  0
  6  7  2  0
  7  8  1  0
  8  9  2  0
  9 10  1  0
  9 11  1  0
 11 12  1  0
 12 13  1  0
 13 14  2  0
 14 15  1  0
 15 16  2  0
 16 17  1  0
 17 18  2  0
 18 19  1  0
 19 20  2  0
 19 21  2  0
 19 22  1  0
 22 23  1  0
 22 24  1  0
 11 25  2  0
  4 26  1  0
 26 27  1  0
 27 28  1  0
 28 29  1  0
 28 30  1  0
 26 31  2  0
 31 32  1  0
 32 33  1  0
 33 34  1  0
 34 35  1  0
 35 36  1  0
 36 37  1  0
 37 38  1  0
 32  2  2  0
 38 33  1  0
 25  6  1  0
 18 13  1  0
  1 39  1  0
  1 40  1  0
  1 41  1  0
  3 42  1  0
  5 43  1  0
  8 44  1  0
 12 45  1  0
 14 46  1  0
 15 47  1  0
 16 48  1  0
 17 49  1  0
 22 50  1  0
 23 51  1  0
 23 52  1  0
 23 53  1  0
 24 54  1  0
 24 55  1  0
 24 56  1  0
 28 57  1  0
 29 58  1  0
 29 59  1  0
 29 60  1  0
 30 61  1  0
 30 62  1  0
 30 63  1  0
 31 64  1  0
 33 65  1  0
 34 66  1  0
 34 67  1  0
 35 68  1  0
 35 69  1  0
 36 70  1  0
 37 71  1  0
 37 72  1  0
 38 73  1  0
 38 74  1  0
M  END
$$$$
