OCNT-2316431
     RDKit          3D

 43 45  0  0  0  0  0  0  0  0999 V2000
    5.3892   -1.6178    0.3593 C   0  0  0  0  0  0  0  0  0  0  0  0
    4.4937   -0.4996    0.7755 C   0  0  0  0  0  0  0  0  0  0  0  0
    3.3462   -0.5470    1.4797 C   0  0  0  0  0  0  0  0  0  0  0  0
    2.7487   -1.7876    2.0660 C   0  0  0  0  0  0  0  0  0  0  0  0
    2.7647    0.7076    1.6714 N   0  0  0  0  0  0  0  0  0  0  0  0
    1.5377    0.9668    2.4138 C   0  0  0  0  0  0  0  0  0  0  0  0
    0.2579    0.4193    1.7784 C   0  0  0  0  0  0  0  0  0  0  0  0
   -0.1757    1.1568    0.5201 C   0  0  0  0  0  0  0  0  0  0  0  0
    0.4761    2.1020    0.0859 O   0  0  0  0  0  0  0  0  0  0  0  0
   -1.3410    0.6765   -0.0633 N   0  0  0  0  0  0  0  0  0  0  0  0
   -2.1505   -0.4583    0.4219 C   0  0  0  0  0  0  0  0  0  0  0  0
   -3.3195   -0.6566   -0.5628 C   0  0  0  0  0  0  0  0  0  0  0  0
   -3.2526   -2.0107   -1.2637 C   0  0  0  0  0  0  0  0  0  0  0  0
   -3.3846   -3.0540   -0.3026 O   0  0  0  0  0  0  0  0  0  0  0  0
   -3.1307    0.4966   -1.5034 C   0  0  0  0  0  0  0  0  0  0  0  0
   -3.9465    0.8589   -2.5681 C   0  0  0  0  0  0  0  0  0  0  0  0
   -3.5863    1.9666   -3.3354 C   0  0  0  0  0  0  0  0  0  0  0  0
   -2.4274    2.6930   -3.0312 C   0  0  0  0  0  0  0  0  0  0  0  0
   -1.6166    2.3245   -1.9530 C   0  0  0  0  0  0  0  0  0  0  0  0
   -1.9802    1.2252   -1.1926 C   0  0  0  0  0  0  0  0  0  0  0  0
    3.5014    1.7831    1.1737 C   0  0  0  0  0  0  0  0  0  0  0  0
    3.2975    2.9781    1.3096 O   0  0  0  0  0  0  0  0  0  0  0  0
    4.9085    1.1356    0.3286 S   0  0  0  0  0  0  0  0  0  0  0  0
    6.3388   -1.5684    0.9012 H   0  0  0  0  0  0  0  0  0  0  0  0
    5.6021   -1.5643   -0.7136 H   0  0  0  0  0  0  0  0  0  0  0  0
    4.9482   -2.6011    0.5451 H   0  0  0  0  0  0  0  0  0  0  0  0
    3.4913   -2.5811    2.1893 H   0  0  0  0  0  0  0  0  0  0  0  0
    1.9549   -2.1748    1.4215 H   0  0  0  0  0  0  0  0  0  0  0  0
    2.3387   -1.6063    3.0638 H   0  0  0  0  0  0  0  0  0  0  0  0
    1.6641    0.5334    3.4130 H   0  0  0  0  0  0  0  0  0  0  0  0
    1.4271    2.0465    2.5691 H   0  0  0  0  0  0  0  0  0  0  0  0
   -0.5490    0.5239    2.5135 H   0  0  0  0  0  0  0  0  0  0  0  0
    0.3659   -0.6404    1.5418 H   0  0  0  0  0  0  0  0  0  0  0  0
   -1.5112   -1.3432    0.5115 H   0  0  0  0  0  0  0  0  0  0  0  0
   -2.5229   -0.2070    1.4224 H   0  0  0  0  0  0  0  0  0  0  0  0
   -4.2651   -0.5608   -0.0155 H   0  0  0  0  0  0  0  0  0  0  0  0
   -4.0653   -2.1128   -1.9909 H   0  0  0  0  0  0  0  0  0  0  0  0
   -2.3024   -2.1450   -1.7934 H   0  0  0  0  0  0  0  0  0  0  0  0
   -3.3863   -3.8938   -0.7958 H   0  0  0  0  0  0  0  0  0  0  0  0
   -4.8478    0.3013   -2.8034 H   0  0  0  0  0  0  0  0  0  0  0  0
   -4.2070    2.2715   -4.1744 H   0  0  0  0  0  0  0  0  0  0  0  0
   -2.1555    3.5559   -3.6346 H   0  0  0  0  0  0  0  0  0  0  0  0
   -0.7286    2.9074   -1.7332 H   0  0  0  0  0  0  0  0  0  0  0  0
  1  2  1  0
  2  3  2  0
  3  4  1  0
  3  5  1  0
  5  6  1  0
  6  7  1  0
  7  8  1  0
  8  9  2  0
  8 10  1  0
 10 11  1  0
 11 12  1  0
 12 13  1  0
 13 14  1  0
 12 15  1  0
 15 16  2  0
 16 17  1  0
 17 18  2  0
 18 19  1  0
 19 20  2  0
  5 21  1  0
 21 22  2  0
 21 23  1  0
 23  2  1  0
 20 10  1  0
 20 15  1  0
  1 24  1  0
  1 25  1  0
  1 26  1  0
  4 27  1  0
  4 28  1  0
  4 29  1  0
  6 30  1  0
  6 31  1  0
  7 32  1  0
  7 33  1  0
 11 34  1  0
 11 35  1  0
 12 36  1  0
 13 37  1  0
 13 38  1  0
 14 39  1  0
 16 40  1  0
 17 41  1  0
 18 42  1  0
 19 43  1  0
M  END
$$$$
OCNT-2316444
     RDKit          3D

 50 53  0  0  0  0  0  0  0  0999 V2000
   -0.8922    1.2566    1.3697 O   0  0  0  0  0  0  0  0  0  0  0  0
   -0.2230    1.1913    0.0933 S   0  0  0  0  0  0  0  0  0  0  0  0
    0.0370    2.3836   -0.6750 O   0  0  0  0  0  0  0  0  0  0  0  0
    1.2623    0.4204    0.3147 N   0  0  0  0  0  0  0  0  0  0  0  0
    2.1057    0.3261   -0.9071 C   0  0  0  0  0  0  0  0  0  0  0  0
    3.2281   -0.6845   -0.6695 C   0  0  0  0  0  0  0  0  0  0  0  0
    4.0056   -0.3788    0.5860 C   0  0  0  0  0  0  0  0  0  0  0  0
    5.2889   -0.9153    0.7633 C   0  0  0  0  0  0  0  0  0  0  0  0
    6.0104   -0.6480    1.9278 C   0  0  0  0  0  0  0  0  0  0  0  0
    5.4470    0.1337    2.9320 C   0  0  0  0  0  0  0  0  0  0  0  0
    4.1573    0.6498    2.7762 C   0  0  0  0  0  0  0  0  0  0  0  0
    3.4225    0.3920    1.6087 C   0  0  0  0  0  0  0  0  0  0  0  0
    2.0379    0.9896    1.4490 C   0  0  0  0  0  0  0  0  0  0  0  0
   -1.0161    0.0715   -0.8804 N   0  0  0  0  0  0  0  0  0  0  0  0
   -2.0354    0.6348   -1.8003 C   0  0  0  0  0  0  0  0  0  0  0  0
   -3.3600    1.0358   -1.1865 C   0  0  0  0  0  0  0  0  0  0  0  0
   -4.4693    0.1764   -1.2474 C   0  0  0  0  0  0  0  0  0  0  0  0
   -5.6896    0.5435   -0.6763 C   0  0  0  0  0  0  0  0  0  0  0  0
   -5.8227    1.7750   -0.0381 C   0  0  0  0  0  0  0  0  0  0  0  0
   -4.7304    2.6306    0.0190 C   0  0  0  0  0  0  0  0  0  0  0  0
   -4.8159    3.8451    0.6313 O   0  0  0  0  0  0  0  0  0  0  0  0
   -3.5102    2.2759   -0.5508 C   0  0  0  0  0  0  0  0  0  0  0  0
   -1.4114   -1.2052   -0.2433 C   0  0  0  0  0  0  0  0  0  0  0  0
   -0.3483   -2.2483   -0.4344 C   0  0  0  0  0  0  0  0  0  0  0  0
   -0.7206   -3.6495   -0.8518 C   0  0  0  0  0  0  0  0  0  0  0  0
    0.0126   -2.7548   -1.8118 C   0  0  0  0  0  0  0  0  0  0  0  0
    2.5287    1.3094   -1.1464 H   0  0  0  0  0  0  0  0  0  0  0  0
    1.5155   -0.0053   -1.7679 H   0  0  0  0  0  0  0  0  0  0  0  0
    3.8975   -0.6773   -1.5384 H   0  0  0  0  0  0  0  0  0  0  0  0
    2.8139   -1.6954   -0.5728 H   0  0  0  0  0  0  0  0  0  0  0  0
    5.7369   -1.5327   -0.0115 H   0  0  0  0  0  0  0  0  0  0  0  0
    7.0109   -1.0561    2.0557 H   0  0  0  0  0  0  0  0  0  0  0  0
    6.0095    0.3402    3.8383 H   0  0  0  0  0  0  0  0  0  0  0  0
    3.7324    1.2521    3.5720 H   0  0  0  0  0  0  0  0  0  0  0  0
    1.4828    0.8001    2.3737 H   0  0  0  0  0  0  0  0  0  0  0  0
    2.1474    2.0746    1.3190 H   0  0  0  0  0  0  0  0  0  0  0  0
   -1.6161    1.4872   -2.3491 H   0  0  0  0  0  0  0  0  0  0  0  0
   -2.2168   -0.1097   -2.5892 H   0  0  0  0  0  0  0  0  0  0  0  0
   -4.3892   -0.7894   -1.7439 H   0  0  0  0  0  0  0  0  0  0  0  0
   -6.5370   -0.1322   -0.7291 H   0  0  0  0  0  0  0  0  0  0  0  0
   -6.7747    2.0470    0.4066 H   0  0  0  0  0  0  0  0  0  0  0  0
   -5.7100    3.9523    0.9941 H   0  0  0  0  0  0  0  0  0  0  0  0
   -2.6781    2.9780   -0.4930 H   0  0  0  0  0  0  0  0  0  0  0  0
   -1.6214   -1.0789    0.8252 H   0  0  0  0  0  0  0  0  0  0  0  0
   -2.3407   -1.5758   -0.6811 H   0  0  0  0  0  0  0  0  0  0  0  0
    0.4444   -2.1495    0.2979 H   0  0  0  0  0  0  0  0  0  0  0  0
   -0.1680   -4.4708   -0.3998 H   0  0  0  0  0  0  0  0  0  0  0  0
   -1.7603   -3.8783   -1.0571 H   0  0  0  0  0  0  0  0  0  0  0  0
   -0.5335   -2.3672   -2.6653 H   0  0  0  0  0  0  0  0  0  0  0  0
    1.0559   -2.9698   -2.0135 H   0  0  0  0  0  0  0  0  0  0  0  0
  1  2  2  0
  2  3  2  0
  2  4  1  0
  4  5  1  0
  5  6  1  0
  6  7  1  0
  7  8  2  0
  8  9  1  0
  9 10  2  0
 10 11  1  0
 11 12  2  0
 12 13  1  0
  2 14  1  0
 14 15  1  0
 15 16  1  0
 16 17  2  0
 17 18  1  0
 18 19  2  0
 19 20  1  0
 20 21  1  0
 20 22  2  0
 14 23  1  0
 23 24  1  0
 24 25  1  0
 25 26  1  0
 13  4  1  0
 22 16  1  0
 26 24  1  0
 12  7  1  0
  5 27  1  0
  5 28  1  0
  6 29  1  0
  6 30  1  0
  8 31  1  0
  9 32  1  0
 10 33  1  0
 11 34  1  0
 13 35  1  0
 13 36  1  0
 15 37  1  0
 15 38  1  0
 17 39  1  0
 18 40  1  0
 19 41  1  0
 21 42  1  0
 22 43  1  0
 23 44  1  0
 23 45  1  0
 24 46  1  0
 25 47  1  0
 25 48  1  0
 26 49  1  0
 26 50  1  0
M  END
$$$$
OCNT-2316459
     RDKit          3D

 55 57  0  0  0  0  0  0  0  0999 V2000
    1.7148   -3.5438    0.4112 C   0  0  0  0  0  0  0  0  0  0  0  0
    2.0114   -2.3027    1.2437 C   0  0  0  0  0  0  0  0  0  0  0  0
    1.6103   -1.0008    0.5275 C   0  0  0  0  0  0  0  0  0  0  0  0
    2.0515    0.2484    1.3271 C   0  0  0  0  0  0  0  0  0  0  0  0
    3.5373    0.5049    1.2727 C   0  0  0  0  0  0  0  0  0  0  0  0
    4.3387    0.3221    2.4063 C   0  0  0  0  0  0  0  0  0  0  0  0
    5.7163    0.5517    2.3444 C   0  0  0  0  0  0  0  0  0  0  0  0
    6.3154    0.9611    1.1481 C   0  0  0  0  0  0  0  0  0  0  0  0
    7.7905    1.2286    1.0815 C   0  0  0  0  0  0  0  0  0  0  0  0
    5.5109    1.1664    0.0201 C   0  0  0  0  0  0  0  0  0  0  0  0
    4.1344    0.9372    0.0812 C   0  0  0  0  0  0  0  0  0  0  0  0
    0.1618   -0.9732    0.3018 N   0  0  0  0  0  0  0  0  0  0  0  0
   -0.3750   -0.1701   -0.6686 C   0  0  0  0  0  0  0  0  0  0  0  0
    0.2847    0.5163   -1.4366 O   0  0  0  0  0  0  0  0  0  0  0  0
   -1.7409   -0.2076   -0.6525 N   0  0  0  0  0  0  0  0  0  0  0  0
   -2.5301    0.4291   -1.7102 C   0  0  0  0  0  0  0  0  0  0  0  0
   -3.9483   -0.1347   -1.6776 C   0  0  0  0  0  0  0  0  0  0  0  0
   -4.5067   -0.7209   -2.8231 C   0  0  0  0  0  0  0  0  0  0  0  0
   -5.7956   -1.2571   -2.7899 C   0  0  0  0  0  0  0  0  0  0  0  0
   -6.5467   -1.2117   -1.6147 C   0  0  0  0  0  0  0  0  0  0  0  0
   -6.0190   -0.6258   -0.4579 C   0  0  0  0  0  0  0  0  0  0  0  0
   -6.8271   -0.5633    0.8147 C   0  0  0  0  0  0  0  0  0  0  0  0
   -7.5978    0.5533    0.9023 F   0  0  0  0  0  0  0  0  0  0  0  0
   -7.6778   -1.6184    0.9542 F   0  0  0  0  0  0  0  0  0  0  0  0
   -6.0470   -0.5746    1.9336 F   0  0  0  0  0  0  0  0  0  0  0  0
   -4.7256   -0.0787   -0.5041 C   0  0  0  0  0  0  0  0  0  0  0  0
   -2.4932    1.9304   -1.6090 C   0  0  0  0  0  0  0  0  0  0  0  0
   -3.4969    2.7893   -1.6041 N   0  0  0  0  0  0  0  0  0  0  0  0
   -2.9744    4.0647   -1.6179 N   0  0  0  0  0  0  0  0  0  0  0  0
   -1.6669    3.9588   -1.6069 C   0  0  0  0  0  0  0  0  0  0  0  0
   -1.3205    2.6472   -1.6102 N   0  0  0  0  0  0  0  0  0  0  0  0
    2.2254   -3.4953   -0.5567 H   0  0  0  0  0  0  0  0  0  0  0  0
    2.0655   -4.4401    0.9327 H   0  0  0  0  0  0  0  0  0  0  0  0
    0.6412   -3.6605    0.2286 H   0  0  0  0  0  0  0  0  0  0  0  0
    1.4873   -2.3849    2.2052 H   0  0  0  0  0  0  0  0  0  0  0  0
    3.0846   -2.2937    1.4611 H   0  0  0  0  0  0  0  0  0  0  0  0
    2.0863   -0.9840   -0.4613 H   0  0  0  0  0  0  0  0  0  0  0  0
    1.5502    1.1476    0.9442 H   0  0  0  0  0  0  0  0  0  0  0  0
    1.7205    0.1573    2.3682 H   0  0  0  0  0  0  0  0  0  0  0  0
    3.8991   -0.0018    3.3478 H   0  0  0  0  0  0  0  0  0  0  0  0
    6.3207    0.4035    3.2360 H   0  0  0  0  0  0  0  0  0  0  0  0
    7.9828    2.3017    1.1834 H   0  0  0  0  0  0  0  0  0  0  0  0
    8.2029    0.8791    0.1280 H   0  0  0  0  0  0  0  0  0  0  0  0
    8.3229    0.7005    1.8794 H   0  0  0  0  0  0  0  0  0  0  0  0
    5.9542    1.5034   -0.9162 H   0  0  0  0  0  0  0  0  0  0  0  0
    3.5290    1.1002   -0.8076 H   0  0  0  0  0  0  0  0  0  0  0  0
   -0.4271   -1.1240    1.1104 H   0  0  0  0  0  0  0  0  0  0  0  0
   -2.0938   -1.1094   -0.3720 H   0  0  0  0  0  0  0  0  0  0  0  0
   -2.0609    0.1501   -2.6636 H   0  0  0  0  0  0  0  0  0  0  0  0
   -3.9482   -0.7566   -3.7559 H   0  0  0  0  0  0  0  0  0  0  0  0
   -6.2185   -1.7084   -3.6869 H   0  0  0  0  0  0  0  0  0  0  0  0
   -7.5526   -1.6321   -1.6089 H   0  0  0  0  0  0  0  0  0  0  0  0
   -4.3186    0.4075    0.3831 H   0  0  0  0  0  0  0  0  0  0  0  0
   -0.9549    4.7683   -1.6170 H   0  0  0  0  0  0  0  0  0  0  0  0
   -0.3866    2.2455   -1.6165 H   0  0  0  0  0  0  0  0  0  0  0  0
  1  2  1  0
  2  3  1  0
  3  4  1  0
  4  5  1  0
  5  6  1  0
  6  7  2  0
  7  8  1  0
  8  9  1  0
  8 10  2  0
 10 11  1  0
  3 12  1  0
 12 13  1  0
 13 14  2  0
 13 15  1  0
 15 16  1  0
 16 17  1  0
 17 18  2  0
 18 19  1  0
 19 20  2  0
 20 21  1  0
 21 22  1  0
 22 23  1  0
 22 24  1  0
 22 25  1  0
 21 26  2  0
 16 27  1  0
 27 28  2  0
 28 29  1  0
 29 30  2  0
 30 31  1  0
 11  5  2  0
 26 17  1  0
 31 27  1  0
  1 32  1  0
  1 33  1  0
  1 34  1  0
  2 35  1  0
  2 36  1  0
  3 37  1  0
  4 38  1  0
  4 39  1  0
  6 40  1  0
  7 41  1  0
  9 42  1  0
  9 43  1  0
  9 44  1  0
 10 45  1  0
 11 46  1  0
 12 47  1  0
 15 48  1  0
 16 49  1  0
 18 50  1  0
 19 51  1  0
 20 52  1  0
 26 53  1  0
 30 54  1  0
 31 55  1  0
M  END
$$$$
OCNT-2316493
     RDKit          3D

 38 39  0  0  0  0  0  0  0  0999 V2000
    6.8232    1.8532   -0.6633 C   0  0  0  0  0  0  0  0  0  0  0  0
    5.5172    1.2822   -0.7357 O   0  0  0  0  0  0  0  0  0  0  0  0
    5.1141    0.6568    0.4082 C   0  0  0  0  0  0  0  0  0  0  0  0
    5.7960    0.5825    1.4246 O   0  0  0  0  0  0  0  0  0  0  0  0
    3.7800    0.0936    0.2728 C   0  0  0  0  0  0  0  0  0  0  0  0
    3.0859   -0.6103    1.2425 C   0  0  0  0  0  0  0  0  0  0  0  0
    1.7998   -1.0327    0.7997 C   0  0  0  0  0  0  0  0  0  0  0  0
    1.5388   -0.6318   -0.4952 C   0  0  0  0  0  0  0  0  0  0  0  0
    0.1374   -0.8663   -1.5592 S   0  0  0  0  0  0  0  0  0  0  0  0
   -0.2308    0.4409   -2.0516 O   0  0  0  0  0  0  0  0  0  0  0  0
    0.4976   -1.9567   -2.4358 O   0  0  0  0  0  0  0  0  0  0  0  0
   -1.1225   -1.4364   -0.5964 N   0  0  0  0  0  0  0  0  0  0  0  0
   -1.8566   -0.4648    0.2437 C   0  0  0  0  0  0  0  0  0  0  0  0
   -2.4883   -1.2275    1.4118 C   0  0  0  0  0  0  0  0  0  0  0  0
   -3.2244   -0.2787    2.3635 C   0  0  0  0  0  0  0  0  0  0  0  0
   -3.5740    1.0677    1.7265 C   0  0  0  0  0  0  0  0  0  0  0  0
   -4.0135    0.8794    0.3521 N   0  0  0  0  0  0  0  0  0  0  0  0
   -2.9446    0.3544   -0.5257 C   0  0  0  0  0  0  0  0  0  0  0  0
   -3.6521   -0.4259   -1.6374 C   0  0  0  0  0  0  0  0  0  0  0  0
    2.8543    0.2280   -1.1640 S   0  0  0  0  0  0  0  0  0  0  0  0
    6.8625    2.6238    0.1129 H   0  0  0  0  0  0  0  0  0  0  0  0
    7.5720    1.0767   -0.4786 H   0  0  0  0  0  0  0  0  0  0  0  0
    7.0419    2.3219   -1.6268 H   0  0  0  0  0  0  0  0  0  0  0  0
    3.4952   -0.8150    2.2264 H   0  0  0  0  0  0  0  0  0  0  0  0
    1.0984   -1.6055    1.3946 H   0  0  0  0  0  0  0  0  0  0  0  0
   -1.6977   -2.1070   -1.1076 H   0  0  0  0  0  0  0  0  0  0  0  0
   -1.1305    0.2363    0.6776 H   0  0  0  0  0  0  0  0  0  0  0  0
   -3.1952   -1.9751    1.0282 H   0  0  0  0  0  0  0  0  0  0  0  0
   -1.7284   -1.7909    1.9675 H   0  0  0  0  0  0  0  0  0  0  0  0
   -2.6057   -0.0961    3.2504 H   0  0  0  0  0  0  0  0  0  0  0  0
   -4.1360   -0.7750    2.7191 H   0  0  0  0  0  0  0  0  0  0  0  0
   -4.3748    1.5392    2.3068 H   0  0  0  0  0  0  0  0  0  0  0  0
   -2.7168    1.7511    1.7642 H   0  0  0  0  0  0  0  0  0  0  0  0
   -4.3653    1.7563   -0.0338 H   0  0  0  0  0  0  0  0  0  0  0  0
   -2.4460    1.2151   -0.9879 H   0  0  0  0  0  0  0  0  0  0  0  0
   -2.9527   -0.7183   -2.4269 H   0  0  0  0  0  0  0  0  0  0  0  0
   -4.4252    0.1866   -2.1166 H   0  0  0  0  0  0  0  0  0  0  0  0
   -4.1331   -1.3314   -1.2518 H   0  0  0  0  0  0  0  0  0  0  0  0
  1  2  1  0
  2  3  1  0
  3  4  2  0
  3  5  1  0
  5  6  2  0
  6  7  1  0
  7  8  2  0
  8  9  1  0
  9 10  2  0
  9 11  2  0
  9 12  1  0
 12 13  1  0
 13 14  1  0
 14 15  1  0
 15 16  1  0
 16 17  1  0
 17 18  1  0
 18 19  1  0
  8 20  1  0
 20  5  1  0
 18 13  1  0
  1 21  1  0
  1 22  1  0
  1 23  1  0
  6 24  1  0
  7 25  1  0
 12 26  1  0
 13 27  1  0
 14 28  1  0
 14 29  1  0
 15 30  1  0
 15 31  1  0
 16 32  1  0
 16 33  1  0
 17 34  1  0
 18 35  1  0
 19 36  1  0
 19 37  1  0
 19 38  1  0
M  END
$$$$
OCNT-2316497
     RDKit          3D

 39 41  0  0  0  0  0  0  0  0999 V2000
   -3.2964   -2.6258   -0.6193 C   0  0  0  0  0  0  0  0  0  0  0  0
   -2.5531   -1.6138    0.2629 C   0  0  0  0  0  0  0  0  0  0  0  0
   -1.1187   -1.9218    0.3959 N   0  0  0  0  0  0  0  0  0  0  0  0
   -0.3766   -1.9524   -0.8770 C   0  0  0  0  0  0  0  0  0  0  0  0
    1.1552   -1.9963   -0.6792 C   0  0  1  0  0  0  0  0  0  0  0  0
    1.7761   -2.2951   -1.9339 O   0  0  0  0  0  0  0  0  0  0  0  0
    1.7535   -0.7162   -0.2035 C   0  0  0  0  0  0  0  0  0  0  0  0
    1.3251    0.5957   -0.1427 C   0  0  0  0  0  0  0  0  0  0  0  0
    2.3932    1.3533    0.4030 C   0  0  0  0  0  0  0  0  0  0  0  0
    2.6059    2.7054    0.7240 C   0  0  0  0  0  0  0  0  0  0  0  0
    3.8441    3.0817    1.2646 C   0  0  0  0  0  0  0  0  0  0  0  0
    4.8521    2.1380    1.4819 C   0  0  0  0  0  0  0  0  0  0  0  0
    4.6597    0.7886    1.1669 C   0  0  0  0  0  0  0  0  0  0  0  0
    3.4200    0.4465    0.6324 C   0  0  0  0  0  0  0  0  0  0  0  0
    3.0388   -0.8058    0.2587 O   0  0  0  0  0  0  0  0  0  0  0  0
   -2.7850   -0.1505   -0.0617 C   0  0  0  0  0  0  0  0  0  0  0  0
   -2.4284    0.8338    0.8724 C   0  0  0  0  0  0  0  0  0  0  0  0
   -2.6346    2.1809    0.5899 C   0  0  0  0  0  0  0  0  0  0  0  0
   -3.1961    2.5124   -0.6293 C   0  0  0  0  0  0  0  0  0  0  0  0
   -3.5520    1.6037   -1.5605 N   0  0  0  0  0  0  0  0  0  0  0  0
   -3.3374    0.3006   -1.2570 C   0  0  0  0  0  0  0  0  0  0  0  0
   -2.9841   -2.5806   -1.6678 H   0  0  0  0  0  0  0  0  0  0  0  0
   -3.1262   -3.6483   -0.2635 H   0  0  0  0  0  0  0  0  0  0  0  0
   -4.3769   -2.4444   -0.5885 H   0  0  0  0  0  0  0  0  0  0  0  0
   -2.9787   -1.7507    1.2674 H   0  0  0  0  0  0  0  0  0  0  0  0
   -1.0151   -2.8270    0.8543 H   0  0  0  0  0  0  0  0  0  0  0  0
   -0.6305   -1.0943   -1.5110 H   0  0  0  0  0  0  0  0  0  0  0  0
   -0.6696   -2.8439   -1.4457 H   0  0  0  0  0  0  0  0  0  0  0  0
    1.4134   -2.8090    0.0102 H   0  0  0  0  0  0  0  0  0  0  0  0
    2.7317   -2.1614   -1.7943 H   0  0  0  0  0  0  0  0  0  0  0  0
    0.3578    0.9631   -0.4555 H   0  0  0  0  0  0  0  0  0  0  0  0
    1.8295    3.4455    0.5566 H   0  0  0  0  0  0  0  0  0  0  0  0
    4.0217    4.1250    1.5171 H   0  0  0  0  0  0  0  0  0  0  0  0
    5.8038    2.4570    1.9019 H   0  0  0  0  0  0  0  0  0  0  0  0
    5.4296    0.0444    1.3275 H   0  0  0  0  0  0  0  0  0  0  0  0
   -1.9769    0.5465    1.8198 H   0  0  0  0  0  0  0  0  0  0  0  0
   -2.3612    2.9496    1.3033 H   0  0  0  0  0  0  0  0  0  0  0  0
   -3.3789    3.5483   -0.8991 H   0  0  0  0  0  0  0  0  0  0  0  0
   -3.6349   -0.3825   -2.0468 H   0  0  0  0  0  0  0  0  0  0  0  0
  1  2  1  0
  2  3  1  0
  3  4  1  0
  4  5  1  0
  5  6  1  0
  5  7  1  0
  7  8  2  0
  8  9  1  0
  9 10  2  0
 10 11  1  0
 11 12  2  0
 12 13  1  0
 13 14  2  0
 14 15  1  0
  2 16  1  0
 16 17  1  0
 17 18  2  0
 18 19  1  0
 19 20  2  0
 20 21  1  0
 15  7  1  0
 21 16  2  0
 14  9  1  0
  1 22  1  0
  1 23  1  0
  1 24  1  0
  2 25  1  0
  3 26  1  0
  4 27  1  0
  4 28  1  0
  5 29  1  1
  6 30  1  0
  8 31  1  0
 10 32  1  0
 11 33  1  0
 12 34  1  0
 13 35  1  0
 17 36  1  0
 18 37  1  0
 19 38  1  0
 21 39  1  0
M  END
$$$$
OCNT-2316507
     RDKit          3D

 47 50  0  0  0  0  0  0  0  0999 V2000
    6.9419   -1.3567   -0.3770 C   0  0  0  0  0  0  0  0  0  0  0  0
    6.2901   -0.5427    0.7288 C   0  0  0  0  0  0  0  0  0  0  0  0
    4.9894    0.0167    0.2981 C   0  0  0  0  0  0  0  0  0  0  0  0
    3.6827   -0.3852    0.4203 C   0  0  0  0  0  0  0  0  0  0  0  0
    2.9320    0.6253   -0.2306 C   0  0  0  0  0  0  0  0  0  0  0  0
    1.5558    0.5987   -0.3257 N   0  0  0  0  0  0  0  0  0  0  0  0
    0.7897    1.5029   -1.0212 C   0  0  0  0  0  0  0  0  0  0  0  0
    1.2061    2.4324   -1.7053 O   0  0  0  0  0  0  0  0  0  0  0  0
   -0.5717    1.2715   -0.9025 N   0  0  0  0  0  0  0  0  0  0  0  0
   -1.5820    2.2926   -1.1901 C   0  0  0  0  0  0  0  0  0  0  0  0
   -2.5725    1.4388   -0.3619 C   0  0  0  0  0  0  0  0  0  0  0  0
   -3.4155    2.1869    0.6868 C   0  0  0  0  0  0  0  0  0  0  0  0
   -4.8613    1.9621    0.2549 C   0  0  0  0  0  0  0  0  0  0  0  0
   -4.8270    0.5828   -0.3804 C   0  0  0  0  0  0  0  0  0  0  0  0
   -3.5626    0.6402   -1.2286 C   0  0  0  0  0  0  0  0  0  0  0  0
   -1.3120    0.7360    0.2485 C   0  0  0  0  0  0  0  0  0  0  0  0
   -1.3246   -0.8377    0.4731 C   0  0  0  0  0  0  0  0  0  0  0  0
   -1.6422   -1.3843    1.7332 C   0  0  0  0  0  0  0  0  0  0  0  0
   -1.6432   -2.7624    1.9677 C   0  0  0  0  0  0  0  0  0  0  0  0
   -1.3251   -3.6427    0.9399 C   0  0  0  0  0  0  0  0  0  0  0  0
   -1.0101   -3.1445   -0.3189 C   0  0  0  0  0  0  0  0  0  0  0  0
   -1.0119   -1.7652   -0.5440 C   0  0  0  0  0  0  0  0  0  0  0  0
    3.7414    1.5767   -0.7039 N   0  0  0  0  0  0  0  0  0  0  0  0
    5.0266    1.1953   -0.3759 O   0  0  0  0  0  0  0  0  0  0  0  0
    7.9005   -1.7608   -0.0365 H   0  0  0  0  0  0  0  0  0  0  0  0
    6.3064   -2.1967   -0.6779 H   0  0  0  0  0  0  0  0  0  0  0  0
    7.1280   -0.7422   -1.2647 H   0  0  0  0  0  0  0  0  0  0  0  0
    6.1441   -1.1784    1.6097 H   0  0  0  0  0  0  0  0  0  0  0  0
    6.9619    0.2691    1.0307 H   0  0  0  0  0  0  0  0  0  0  0  0
    3.3233   -1.2794    0.9057 H   0  0  0  0  0  0  0  0  0  0  0  0
    1.0950   -0.2025    0.0703 H   0  0  0  0  0  0  0  0  0  0  0  0
   -1.3250    3.2704   -0.7687 H   0  0  0  0  0  0  0  0  0  0  0  0
   -1.7953    2.3947   -2.2575 H   0  0  0  0  0  0  0  0  0  0  0  0
   -3.1774    3.2532    0.7474 H   0  0  0  0  0  0  0  0  0  0  0  0
   -3.2674    1.7510    1.6821 H   0  0  0  0  0  0  0  0  0  0  0  0
   -5.1540    2.7131   -0.4887 H   0  0  0  0  0  0  0  0  0  0  0  0
   -5.5586    2.0222    1.0952 H   0  0  0  0  0  0  0  0  0  0  0  0
   -5.7183    0.3732   -0.9781 H   0  0  0  0  0  0  0  0  0  0  0  0
   -4.7357   -0.1900    0.3920 H   0  0  0  0  0  0  0  0  0  0  0  0
   -3.7851    1.1835   -2.1557 H   0  0  0  0  0  0  0  0  0  0  0  0
   -3.2140   -0.3549   -1.5101 H   0  0  0  0  0  0  0  0  0  0  0  0
   -0.9543    1.2417    1.1608 H   0  0  0  0  0  0  0  0  0  0  0  0
   -1.8977   -0.7157    2.5545 H   0  0  0  0  0  0  0  0  0  0  0  0
   -1.8968   -3.1456    2.9531 H   0  0  0  0  0  0  0  0  0  0  0  0
   -1.3299   -4.7149    1.1174 H   0  0  0  0  0  0  0  0  0  0  0  0
   -0.7700   -3.8266   -1.1309 H   0  0  0  0  0  0  0  0  0  0  0  0
   -0.7732   -1.4019   -1.5438 H   0  0  0  0  0  0  0  0  0  0  0  0
  1  2  1  0
  2  3  1  0
  3  4  2  0
  4  5  1  0
  5  6  1  0
  6  7  1  0
  7  8  2  0
  7  9  1  0
  9 10  1  0
 10 11  1  0
 11 12  1  0
 12 13  1  0
 13 14  1  0
 14 15  1  0
 11 16  1  0
 16 17  1  0
 17 18  2  0
 18 19  1  0
 19 20  2  0
 20 21  1  0
 21 22  2  0
  5 23  2  0
 23 24  1  0
 24  3  1  0
 16  9  1  0
 22 17  1  0
 15 11  1  0
  1 25  1  0
  1 26  1  0
  1 27  1  0
  2 28  1  0
  2 29  1  0
  4 30  1  0
  6 31  1  0
 10 32  1  0
 10 33  1  0
 12 34  1  0
 12 35  1  0
 13 36  1  0
 13 37  1  0
 14 38  1  0
 14 39  1  0
 15 40  1  0
 15 41  1  0
 16 42  1  0
 18 43  1  0
 19 44  1  0
 20 45  1  0
 21 46  1  0
 22 47  1  0
M  END
$$$$
OCNT-2316527
     RDKit          3D

 46 49  0  0  0  0  0  0  0  0999 V2000
    2.0658   -1.1767    0.9533 O   0  0  0  0  0  0  0  0  0  0  0  0
    1.6530   -0.1648    0.3848 C   0  0  0  0  0  0  0  0  0  0  0  0
    2.6040    0.8764   -0.2003 C   0  0  0  0  0  0  0  0  0  0  0  0
    4.0647    0.4768   -0.1703 C   0  0  0  0  0  0  0  0  0  0  0  0
    4.6383   -0.1768   -1.2659 C   0  0  0  0  0  0  0  0  0  0  0  0
    5.9853   -0.5579   -1.2512 C   0  0  0  0  0  0  0  0  0  0  0  0
    6.7790   -0.2909   -0.1188 C   0  0  0  0  0  0  0  0  0  0  0  0
    8.1206   -0.6093    0.0269 N   0  0  0  0  0  0  0  0  0  0  0  0
    8.5328   -0.2245    1.2125 C   0  0  0  0  0  0  0  0  0  0  0  0
    7.3748    0.5402    2.2142 S   0  0  0  0  0  0  0  0  0  0  0  0
    6.1921    0.3506    0.9741 C   0  0  0  0  0  0  0  0  0  0  0  0
    4.8414    0.7404    0.9714 C   0  0  0  0  0  0  0  0  0  0  0  0
    0.2804    0.0835    0.2331 N   0  0  0  0  0  0  0  0  0  0  0  0
   -0.6303   -0.8590    0.8800 C   0  0  0  0  0  0  0  0  0  0  0  0
   -2.0009   -0.9089    0.2128 C   0  0  0  0  0  0  0  0  0  0  0  0
   -2.6066    0.4936    0.0876 C   0  0  0  0  0  0  0  0  0  0  0  0
   -3.8959    0.4948   -0.6277 N   0  0  0  0  0  0  0  0  0  0  0  0
   -4.9472   -0.1438    0.1681 C   0  0  0  0  0  0  0  0  0  0  0  0
   -6.3220    0.2379   -0.4393 C   0  0  0  0  0  0  0  0  0  0  0  0
   -6.7159   -1.2446   -0.2679 C   0  0  0  0  0  0  0  0  0  0  0  0
   -5.2104   -1.5738   -0.3643 C   0  0  0  0  0  0  0  0  0  0  0  0
   -1.6246    1.3872   -0.6840 C   0  0  0  0  0  0  0  0  0  0  0  0
   -0.2568    1.4211   -0.0109 C   0  0  0  0  0  0  0  0  0  0  0  0
    2.3188    1.0707   -1.2413 H   0  0  0  0  0  0  0  0  0  0  0  0
    2.4858    1.8132    0.3575 H   0  0  0  0  0  0  0  0  0  0  0  0
    4.0406   -0.4055   -2.1462 H   0  0  0  0  0  0  0  0  0  0  0  0
    6.4257   -1.0653   -2.1036 H   0  0  0  0  0  0  0  0  0  0  0  0
    9.5509   -0.3786    1.5450 H   0  0  0  0  0  0  0  0  0  0  0  0
    4.4103    1.2248    1.8428 H   0  0  0  0  0  0  0  0  0  0  0  0
   -0.7267   -0.5506    1.9285 H   0  0  0  0  0  0  0  0  0  0  0  0
   -0.1982   -1.8659    0.8770 H   0  0  0  0  0  0  0  0  0  0  0  0
   -1.9021   -1.3629   -0.7821 H   0  0  0  0  0  0  0  0  0  0  0  0
   -2.6474   -1.5644    0.8057 H   0  0  0  0  0  0  0  0  0  0  0  0
   -2.7460    0.9262    1.0875 H   0  0  0  0  0  0  0  0  0  0  0  0
   -4.1279    1.4561   -0.8810 H   0  0  0  0  0  0  0  0  0  0  0  0
   -4.8988   -0.0334    1.2571 H   0  0  0  0  0  0  0  0  0  0  0  0
   -6.9145    0.9496    0.1423 H   0  0  0  0  0  0  0  0  0  0  0  0
   -6.3151    0.5597   -1.4884 H   0  0  0  0  0  0  0  0  0  0  0  0
   -7.3471   -1.6646   -1.0547 H   0  0  0  0  0  0  0  0  0  0  0  0
   -7.1576   -1.4750    0.7085 H   0  0  0  0  0  0  0  0  0  0  0  0
   -4.8769   -1.7725   -1.3906 H   0  0  0  0  0  0  0  0  0  0  0  0
   -4.8766   -2.3924    0.2791 H   0  0  0  0  0  0  0  0  0  0  0  0
   -2.0122    2.4109   -0.7567 H   0  0  0  0  0  0  0  0  0  0  0  0
   -1.5086    1.0141   -1.7107 H   0  0  0  0  0  0  0  0  0  0  0  0
    0.4224    2.0091   -0.6324 H   0  0  0  0  0  0  0  0  0  0  0  0
   -0.3205    1.9252    0.9612 H   0  0  0  0  0  0  0  0  0  0  0  0
  1  2  2  0
  2  3  1  0
  3  4  1  0
  4  5  2  0
  5  6  1  0
  6  7  2  0
  7  8  1  0
  8  9  2  0
  9 10  1  0
 10 11  1  0
 11 12  2  0
  2 13  1  0
 13 14  1  0
 14 15  1  0
 15 16  1  0
 16 17  1  0
 17 18  1  0
 18 19  1  0
 19 20  1  0
 20 21  1  0
 16 22  1  0
 22 23  1  0
 12  4  1  0
 23 13  1  0
 11  7  1  0
 21 18  1  0
  3 24  1  0
  3 25  1  0
  5 26  1  0
  6 27  1  0
  9 28  1  0
 12 29  1  0
 14 30  1  0
 14 31  1  0
 15 32  1  0
 15 33  1  0
 16 34  1  0
 17 35  1  0
 18 36  1  0
 19 37  1  0
 19 38  1  0
 20 39  1  0
 20 40  1  0
 21 41  1  0
 21 42  1  0
 22 43  1  0
 22 44  1  0
 23 45  1  0
 23 46  1  0
M  END
$$$$
OCNT-2316535
     RDKit          3D

 43 46  0  0  0  0  0  0  0  0999 V2000
    1.2562    0.9011    1.1585 O   0  0  0  0  0  0  0  0  0  0  0  0
    1.1460    0.2068    0.1558 C   0  0  0  0  0  0  0  0  0  0  0  0
   -0.0613   -0.2474   -0.3328 N   0  0  0  0  0  0  0  0  0  0  0  0
   -1.3363    0.2188    0.1980 C   0  0  0  0  0  0  0  0  0  0  0  0
   -1.6462    1.6531   -0.3444 C   0  0  0  0  0  0  0  0  0  0  0  0
   -3.0373    2.1115   -0.4251 N   0  0  0  0  0  0  0  0  0  0  0  0
   -3.7928    2.0433    0.8230 C   0  0  0  0  0  0  0  0  0  0  0  0
   -3.8626    0.6883    1.5491 C   0  0  0  0  0  0  0  0  0  0  0  0
   -3.7142   -0.5205    0.6501 C   0  0  0  0  0  0  0  0  0  0  0  0
   -4.7931   -1.4018    0.4843 C   0  0  0  0  0  0  0  0  0  0  0  0
   -4.6661   -2.5277   -0.3252 C   0  0  0  0  0  0  0  0  0  0  0  0
   -3.4612   -2.7850   -0.9710 C   0  0  0  0  0  0  0  0  0  0  0  0
   -2.3788   -1.9152   -0.8153 C   0  0  0  0  0  0  0  0  0  0  0  0
   -2.4846   -0.7673   -0.0123 C   0  0  0  0  0  0  0  0  0  0  0  0
    2.3293   -0.1957   -0.6724 C   0  0  0  0  0  0  0  0  0  0  0  0
    2.0395   -0.8259   -1.8446 N   0  0  0  0  0  0  0  0  0  0  0  0
    3.0981   -1.1560   -2.6079 C   0  0  0  0  0  0  0  0  0  0  0  0
    4.3902   -0.9186   -2.3291 N   0  0  0  0  0  0  0  0  0  0  0  0
    4.6022   -0.3063   -1.1584 C   0  0  0  0  0  0  0  0  0  0  0  0
    3.6121    0.0757   -0.2802 C   0  0  0  0  0  0  0  0  0  0  0  0
    4.1744    0.7635    0.9129 C   0  0  0  0  0  0  0  0  0  0  0  0
    5.6522    0.3459    0.8287 C   0  0  0  0  0  0  0  0  0  0  0  0
    5.9567    0.1062   -0.6554 C   0  0  0  0  0  0  0  0  0  0  0  0
   -0.0263   -0.6237   -1.2745 H   0  0  0  0  0  0  0  0  0  0  0  0
   -1.1876    0.2953    1.2830 H   0  0  0  0  0  0  0  0  0  0  0  0
   -1.2582    1.7142   -1.3702 H   0  0  0  0  0  0  0  0  0  0  0  0
   -1.0576    2.3805    0.2298 H   0  0  0  0  0  0  0  0  0  0  0  0
   -3.0595    3.0634   -0.7877 H   0  0  0  0  0  0  0  0  0  0  0  0
   -3.4293    2.8053    1.5235 H   0  0  0  0  0  0  0  0  0  0  0  0
   -4.8212    2.3349    0.5749 H   0  0  0  0  0  0  0  0  0  0  0  0
   -3.0880    0.6410    2.3248 H   0  0  0  0  0  0  0  0  0  0  0  0
   -4.8120    0.6356    2.0976 H   0  0  0  0  0  0  0  0  0  0  0  0
   -5.7397   -1.2148    0.9853 H   0  0  0  0  0  0  0  0  0  0  0  0
   -5.5061   -3.2054   -0.4497 H   0  0  0  0  0  0  0  0  0  0  0  0
   -3.3604   -3.6670   -1.5980 H   0  0  0  0  0  0  0  0  0  0  0  0
   -1.4560   -2.1627   -1.3302 H   0  0  0  0  0  0  0  0  0  0  0  0
    2.8875   -1.6603   -3.5456 H   0  0  0  0  0  0  0  0  0  0  0  0
    3.7324    0.4228    1.8530 H   0  0  0  0  0  0  0  0  0  0  0  0
    4.0660    1.8485    0.8150 H   0  0  0  0  0  0  0  0  0  0  0  0
    6.3218    1.0847    1.2800 H   0  0  0  0  0  0  0  0  0  0  0  0
    5.7912   -0.5946    1.3802 H   0  0  0  0  0  0  0  0  0  0  0  0
    6.7086   -0.6742   -0.7988 H   0  0  0  0  0  0  0  0  0  0  0  0
    6.2720    1.0297   -1.1513 H   0  0  0  0  0  0  0  0  0  0  0  0
  1  2  2  0
  2  3  1  0
  3  4  1  0
  4  5  1  0
  5  6  1  0
  6  7  1  0
  7  8  1  0
  8  9  1  0
  9 10  2  0
 10 11  1  0
 11 12  2  0
 12 13  1  0
 13 14  2  0
  2 15  1  0
 15 16  1  0
 16 17  2  0
 17 18  1  0
 18 19  2  0
 19 20  1  0
 20 21  1  0
 21 22  1  0
 22 23  1  0
 14  4  1  0
 20 15  2  0
 14  9  1  0
 23 19  1  0
  3 24  1  0
  4 25  1  0
  5 26  1  0
  5 27  1  0
  6 28  1  0
  7 29  1  0
  7 30  1  0
  8 31  1  0
  8 32  1  0
 10 33  1  0
 11 34  1  0
 12 35  1  0
 13 36  1  0
 17 37  1  0
 21 38  1  0
 21 39  1  0
 22 40  1  0
 22 41  1  0
 23 42  1  0
 23 43  1  0
M  END
$$$$
OCNT-2316543
     RDKit          3D

 42 45  0  0  0  0  0  0  0  0999 V2000
   -3.8318    1.8463    3.4616 F   0  0  0  0  0  0  0  0  0  0  0  0
   -3.1249    1.8595    2.3240 C   0  0  0  0  0  0  0  0  0  0  0  0
   -2.7051    3.0699    1.7972 C   0  0  0  0  0  0  0  0  0  0  0  0
   -1.9654    3.0590    0.6267 C   0  0  0  0  0  0  0  0  0  0  0  0
   -1.5389    4.2166    0.1053 F   0  0  0  0  0  0  0  0  0  0  0  0
   -1.6529    1.8631   -0.0202 C   0  0  0  0  0  0  0  0  0  0  0  0
   -2.0926    0.6276    0.4943 C   0  0  0  0  0  0  0  0  0  0  0  0
   -1.7210   -0.6840   -0.2054 C   0  0  0  0  0  0  0  0  0  0  0  0
   -0.3012   -1.0592    0.1422 C   0  0  0  0  0  0  0  0  0  0  0  0
    0.7937   -0.9853   -0.5845 N   0  0  0  0  0  0  0  0  0  0  0  0
    1.7556   -1.4207    0.2954 C   0  0  0  0  0  0  0  0  0  0  0  0
    3.1907   -1.5097   -0.0683 C   0  0  0  0  0  0  0  0  0  0  0  0
    3.7676   -0.1434    0.1784 C   0  0  0  0  0  0  0  0  0  0  0  0
    3.7979    0.8329   -0.8235 C   0  0  0  0  0  0  0  0  0  0  0  0
    4.3355    2.0871   -0.5505 C   0  0  0  0  0  0  0  0  0  0  0  0
    4.8284    2.3267    0.7210 C   0  0  0  0  0  0  0  0  0  0  0  0
    4.8156    1.4137    1.7150 N   0  0  0  0  0  0  0  0  0  0  0  0
    4.2806    0.2062    1.4254 C   0  0  0  0  0  0  0  0  0  0  0  0
    1.2908   -1.7942    1.4958 N   0  0  0  0  0  0  0  0  0  0  0  0
   -0.0764   -1.5358    1.4043 O   0  0  0  0  0  0  0  0  0  0  0  0
   -1.9045   -0.5903   -1.7427 C   0  0  0  0  0  0  0  0  0  0  0  0
   -2.0294   -2.0298   -2.2430 C   0  0  0  0  0  0  0  0  0  0  0  0
   -2.4768   -2.8567   -1.0434 C   0  0  0  0  0  0  0  0  0  0  0  0
   -2.6867   -1.8581    0.0921 C   0  0  0  0  0  0  0  0  0  0  0  0
   -2.8241    0.6500    1.6951 C   0  0  0  0  0  0  0  0  0  0  0  0
   -2.9415    4.0024    2.2946 H   0  0  0  0  0  0  0  0  0  0  0  0
   -1.0497    1.9172   -0.9235 H   0  0  0  0  0  0  0  0  0  0  0  0
    3.3073   -1.7950   -1.1199 H   0  0  0  0  0  0  0  0  0  0  0  0
    3.7128   -2.2660    0.5290 H   0  0  0  0  0  0  0  0  0  0  0  0
    3.3957    0.6242   -1.8121 H   0  0  0  0  0  0  0  0  0  0  0  0
    4.3660    2.8604   -1.3096 H   0  0  0  0  0  0  0  0  0  0  0  0
    5.2574    3.2896    0.9828 H   0  0  0  0  0  0  0  0  0  0  0  0
    4.2751   -0.4955    2.2563 H   0  0  0  0  0  0  0  0  0  0  0  0
   -1.0913   -0.0659   -2.2573 H   0  0  0  0  0  0  0  0  0  0  0  0
   -2.8340   -0.0563   -1.9844 H   0  0  0  0  0  0  0  0  0  0  0  0
   -1.0659   -2.3969   -2.6143 H   0  0  0  0  0  0  0  0  0  0  0  0
   -2.7440   -2.0965   -3.0699 H   0  0  0  0  0  0  0  0  0  0  0  0
   -1.6980   -3.5809   -0.7773 H   0  0  0  0  0  0  0  0  0  0  0  0
   -3.3902   -3.4219   -1.2538 H   0  0  0  0  0  0  0  0  0  0  0  0
   -2.5265   -2.3308    1.0674 H   0  0  0  0  0  0  0  0  0  0  0  0
   -3.7303   -1.5158    0.0638 H   0  0  0  0  0  0  0  0  0  0  0  0
   -3.1676   -0.2631    2.1738 H   0  0  0  0  0  0  0  0  0  0  0  0
  1  2  1  0
  2  3  1  0
  3  4  2  0
  4  5  1  0
  4  6  1  0
  6  7  2  0
  7  8  1  0
  8  9  1  0
  9 10  2  0
 10 11  1  0
 11 12  1  0
 12 13  1  0
 13 14  1  0
 14 15  2  0
 15 16  1  0
 16 17  2  0
 17 18  1  0
 11 19  2  0
 19 20  1  0
  8 21  1  0
 21 22  1  0
 22 23  1  0
 23 24  1  0
  7 25  1  0
 25  2  2  0
 24  8  1  0
 20  9  1  0
 18 13  2  0
  3 26  1  0
  6 27  1  0
 12 28  1  0
 12 29  1  0
 14 30  1  0
 15 31  1  0
 16 32  1  0
 18 33  1  0
 21 34  1  0
 21 35  1  0
 22 36  1  0
 22 37  1  0
 23 38  1  0
 23 39  1  0
 24 40  1  0
 24 41  1  0
 25 42  1  0
M  END
$$$$
OCNT-2316553
     RDKit          3D

 54 57  0  0  0  0  0  0  0  0999 V2000
    3.2646    4.1367    2.1212 C   0  0  0  0  0  0  0  0  0  0  0  0
    2.5955    3.1407    1.2221 C   0  0  0  0  0  0  0  0  0  0  0  0
    1.3556    3.4298    0.6479 C   0  0  0  0  0  0  0  0  0  0  0  0
    0.7173    2.4903   -0.1637 C   0  0  0  0  0  0  0  0  0  0  0  0
    1.3014    1.2375   -0.4245 C   0  0  0  0  0  0  0  0  0  0  0  0
    0.5362    0.2571   -1.2868 C   0  0  0  0  0  0  0  0  0  0  0  0
   -0.3814   -0.5313   -0.4710 N   0  0  0  0  0  0  0  0  0  0  0  0
   -1.1312   -1.4823   -1.2841 C   0  0  0  0  0  0  0  0  0  0  0  0
   -2.3032   -2.0204   -0.4742 C   0  0  0  0  0  0  0  0  0  0  0  0
   -3.6478   -1.3423   -0.7388 C   0  0  0  0  0  0  0  0  0  0  0  0
   -4.0942   -1.7253   -2.0425 O   0  0  0  0  0  0  0  0  0  0  0  0
   -3.6089    0.1683   -0.5872 C   0  0  0  0  0  0  0  0  0  0  0  0
   -3.3949    0.7418    0.6773 C   0  0  0  0  0  0  0  0  0  0  0  0
   -3.3555    2.1285    0.8399 C   0  0  0  0  0  0  0  0  0  0  0  0
   -3.5360    2.9654   -0.2583 C   0  0  0  0  0  0  0  0  0  0  0  0
   -3.7524    2.4162   -1.5192 C   0  0  0  0  0  0  0  0  0  0  0  0
   -3.7887    1.0294   -1.6819 C   0  0  0  0  0  0  0  0  0  0  0  0
   -2.3383   -3.5296   -0.2388 C   0  0  0  0  0  0  0  0  0  0  0  0
   -2.0475   -2.6182    0.9083 C   0  0  0  0  0  0  0  0  0  0  0  0
    2.5345    0.9310    0.1816 C   0  0  0  0  0  0  0  0  0  0  0  0
    3.1765   -0.3535    0.0084 C   0  0  0  0  0  0  0  0  0  0  0  0
    3.2040   -1.3417    0.9681 C   0  0  0  0  0  0  0  0  0  0  0  0
    3.9043   -2.3760    0.4195 N   0  0  0  0  0  0  0  0  0  0  0  0
    4.2102   -3.6418    1.0393 C   0  0  0  0  0  0  0  0  0  0  0  0
    4.3313   -2.1320   -0.8340 N   0  0  0  0  0  0  0  0  0  0  0  0
    3.8974   -0.8914   -1.0770 C   0  0  0  0  0  0  0  0  0  0  0  0
    3.1699    1.8834    0.9969 C   0  0  0  0  0  0  0  0  0  0  0  0
    2.8614    4.0550    3.1358 H   0  0  0  0  0  0  0  0  0  0  0  0
    4.3464    3.9702    2.1584 H   0  0  0  0  0  0  0  0  0  0  0  0
    3.1052    5.1569    1.7553 H   0  0  0  0  0  0  0  0  0  0  0  0
    0.8712    4.3855    0.8333 H   0  0  0  0  0  0  0  0  0  0  0  0
   -0.2585    2.7280   -0.5850 H   0  0  0  0  0  0  0  0  0  0  0  0
   -0.0234    0.8235   -2.0429 H   0  0  0  0  0  0  0  0  0  0  0  0
    1.2224   -0.3878   -1.8460 H   0  0  0  0  0  0  0  0  0  0  0  0
    0.1592   -1.0319    0.2302 H   0  0  0  0  0  0  0  0  0  0  0  0
   -0.4675   -2.2981   -1.5951 H   0  0  0  0  0  0  0  0  0  0  0  0
   -1.5019   -1.0155   -2.2044 H   0  0  0  0  0  0  0  0  0  0  0  0
   -4.4073   -1.7156   -0.0391 H   0  0  0  0  0  0  0  0  0  0  0  0
   -4.1870   -2.6907   -2.0238 H   0  0  0  0  0  0  0  0  0  0  0  0
   -3.2384    0.1063    1.5451 H   0  0  0  0  0  0  0  0  0  0  0  0
   -3.1757    2.5529    1.8235 H   0  0  0  0  0  0  0  0  0  0  0  0
   -3.5045    4.0433   -0.1318 H   0  0  0  0  0  0  0  0  0  0  0  0
   -3.8930    3.0640   -2.3796 H   0  0  0  0  0  0  0  0  0  0  0  0
   -3.9569    0.6200   -2.6754 H   0  0  0  0  0  0  0  0  0  0  0  0
   -1.5239   -4.1394   -0.6156 H   0  0  0  0  0  0  0  0  0  0  0  0
   -3.2930   -4.0439   -0.2364 H   0  0  0  0  0  0  0  0  0  0  0  0
   -2.8078   -2.4999    1.6722 H   0  0  0  0  0  0  0  0  0  0  0  0
   -1.0398   -2.6180    1.3069 H   0  0  0  0  0  0  0  0  0  0  0  0
    2.7953   -1.3896    1.9677 H   0  0  0  0  0  0  0  0  0  0  0  0
    5.2936   -3.7822    1.0230 H   0  0  0  0  0  0  0  0  0  0  0  0
    3.7108   -4.4319    0.4728 H   0  0  0  0  0  0  0  0  0  0  0  0
    3.8516   -3.6370    2.0715 H   0  0  0  0  0  0  0  0  0  0  0  0
    4.1190   -0.4324   -2.0318 H   0  0  0  0  0  0  0  0  0  0  0  0
    4.1235    1.6388    1.4624 H   0  0  0  0  0  0  0  0  0  0  0  0
  1  2  1  0
  2  3  1  0
  3  4  2  0
  4  5  1  0
  5  6  1  0
  6  7  1  0
  7  8  1  0
  8  9  1  0
  9 10  1  0
 10 11  1  0
 10 12  1  0
 12 13  2  0
 13 14  1  0
 14 15  2  0
 15 16  1  0
 16 17  2  0
  9 18  1  0
 18 19  1  0
  5 20  2  0
 20 21  1  0
 21 22  2  0
 22 23  1  0
 23 24  1  0
 23 25  1  0
 25 26  2  0
 20 27  1  0
 27  2  2  0
 19  9  1  0
 26 21  1  0
 17 12  1  0
  1 28  1  0
  1 29  1  0
  1 30  1  0
  3 31  1  0
  4 32  1  0
  6 33  1  0
  6 34  1  0
  7 35  1  0
  8 36  1  0
  8 37  1  0
 10 38  1  0
 11 39  1  0
 13 40  1  0
 14 41  1  0
 15 42  1  0
 16 43  1  0
 17 44  1  0
 18 45  1  0
 18 46  1  0
 19 47  1  0
 19 48  1  0
 22 49  1  0
 24 50  1  0
 24 51  1  0
 24 52  1  0
 26 53  1  0
 27 54  1  0
M  END
$$$$
OCNT-2316555
     RDKit          3D

 51 53  0  0  0  0  0  0  0  0999 V2000
   -0.0562    1.8574   -1.1796 C   0  0  0  0  0  0  0  0  0  0  0  0
   -0.7294    0.8920   -0.1891 C   0  0  0  0  0  0  0  0  0  0  0  0
   -0.1906   -0.5496   -0.3755 C   0  0  0  0  0  0  0  0  0  0  0  0
    1.1758   -0.7012    0.1051 N   0  0  0  0  0  0  0  0  0  0  0  0
    1.7264   -1.9570    0.1906 C   0  0  0  0  0  0  0  0  0  0  0  0
    1.0986   -2.9674   -0.1137 O   0  0  0  0  0  0  0  0  0  0  0  0
    3.0392   -1.9820    0.6364 N   0  0  0  0  0  0  0  0  0  0  0  0
    3.6978   -3.2788    0.6978 C   0  0  0  0  0  0  0  0  0  0  0  0
    3.6482   -0.9082    1.4226 C   0  0  0  0  0  0  0  0  0  0  0  0
    4.8829   -0.3247    0.7762 C   0  0  0  0  0  0  0  0  0  0  0  0
    5.9851    0.0331    1.5651 C   0  0  0  0  0  0  0  0  0  0  0  0
    7.0907    0.5989    0.9493 C   0  0  0  0  0  0  0  0  0  0  0  0
    7.1704    0.8403   -0.3770 N   0  0  0  0  0  0  0  0  0  0  0  0
    6.0984    0.4953   -1.1223 C   0  0  0  0  0  0  0  0  0  0  0  0
    4.9471   -0.0753   -0.6003 C   0  0  0  0  0  0  0  0  0  0  0  0
   -2.1958    1.0552   -0.2938 N   0  0  0  0  0  0  0  0  0  0  0  0
   -2.8096    0.3800   -1.4474 C   0  0  0  0  0  0  0  0  0  0  0  0
   -4.2597    0.8523   -1.6315 C   0  0  0  0  0  0  0  0  0  0  0  0
   -5.0521    0.7944   -0.3506 C   0  0  0  0  0  0  0  0  0  0  0  0
   -6.4523    0.8600   -0.3821 C   0  0  0  0  0  0  0  0  0  0  0  0
   -7.1843    0.8411    0.8042 C   0  0  0  0  0  0  0  0  0  0  0  0
   -6.5255    0.7623    2.0293 C   0  0  0  0  0  0  0  0  0  0  0  0
   -5.1322    0.7060    2.0701 C   0  0  0  0  0  0  0  0  0  0  0  0
   -4.3827    0.7355    0.8843 C   0  0  0  0  0  0  0  0  0  0  0  0
   -2.8730    0.6316    0.9486 C   0  0  0  0  0  0  0  0  0  0  0  0
    1.0255    1.9019   -1.0103 H   0  0  0  0  0  0  0  0  0  0  0  0
   -0.2164    1.5574   -2.2212 H   0  0  0  0  0  0  0  0  0  0  0  0
   -0.4422    2.8772   -1.0560 H   0  0  0  0  0  0  0  0  0  0  0  0
   -0.4241    1.2413    0.8075 H   0  0  0  0  0  0  0  0  0  0  0  0
   -0.2100   -0.8493   -1.4313 H   0  0  0  0  0  0  0  0  0  0  0  0
   -0.8050   -1.2675    0.1811 H   0  0  0  0  0  0  0  0  0  0  0  0
    1.8351   -0.0051   -0.2117 H   0  0  0  0  0  0  0  0  0  0  0  0
    3.3344   -3.9432   -0.0923 H   0  0  0  0  0  0  0  0  0  0  0  0
    4.7782   -3.1541    0.5821 H   0  0  0  0  0  0  0  0  0  0  0  0
    3.4833   -3.7338    1.6702 H   0  0  0  0  0  0  0  0  0  0  0  0
    3.8953   -1.3336    2.4049 H   0  0  0  0  0  0  0  0  0  0  0  0
    2.9408   -0.0935    1.6150 H   0  0  0  0  0  0  0  0  0  0  0  0
    5.9912   -0.1246    2.6408 H   0  0  0  0  0  0  0  0  0  0  0  0
    7.9687    0.8832    1.5259 H   0  0  0  0  0  0  0  0  0  0  0  0
    6.1898    0.6974   -2.1868 H   0  0  0  0  0  0  0  0  0  0  0  0
    4.1258   -0.3317   -1.2653 H   0  0  0  0  0  0  0  0  0  0  0  0
   -2.7887   -0.7112   -1.3213 H   0  0  0  0  0  0  0  0  0  0  0  0
   -2.2695    0.6072   -2.3729 H   0  0  0  0  0  0  0  0  0  0  0  0
   -4.7400    0.2294   -2.3964 H   0  0  0  0  0  0  0  0  0  0  0  0
   -4.2655    1.8902   -1.9906 H   0  0  0  0  0  0  0  0  0  0  0  0
   -6.9766    0.9282   -1.3324 H   0  0  0  0  0  0  0  0  0  0  0  0
   -8.2703    0.8899    0.7738 H   0  0  0  0  0  0  0  0  0  0  0  0
   -7.0966    0.7454    2.9527 H   0  0  0  0  0  0  0  0  0  0  0  0
   -4.6311    0.6418    3.0333 H   0  0  0  0  0  0  0  0  0  0  0  0
   -2.6241   -0.4076    1.2010 H   0  0  0  0  0  0  0  0  0  0  0  0
   -2.5251    1.2731    1.7687 H   0  0  0  0  0  0  0  0  0  0  0  0
  1  2  1  0
  2  3  1  0
  3  4  1  0
  4  5  1  0
  5  6  2  0
  5  7  1  0
  7  8  1  0
  7  9  1  0
  9 10  1  0
 10 11  2  0
 11 12  1  0
 12 13  2  0
 13 14  1  0
 14 15  2  0
  2 16  1  0
 16 17  1  0
 17 18  1  0
 18 19  1  0
 19 20  2  0
 20 21  1  0
 21 22  2  0
 22 23  1  0
 23 24  2  0
 24 25  1  0
 15 10  1  0
 25 16  1  0
 24 19  1  0
  1 26  1  0
  1 27  1  0
  1 28  1  0
  2 29  1  0
  3 30  1  0
  3 31  1  0
  4 32  1  0
  8 33  1  0
  8 34  1  0
  8 35  1  0
  9 36  1  0
  9 37  1  0
 11 38  1  0
 12 39  1  0
 14 40  1  0
 15 41  1  0
 17 42  1  0
 17 43  1  0
 18 44  1  0
 18 45  1  0
 20 46  1  0
 21 47  1  0
 22 48  1  0
 23 49  1  0
 25 50  1  0
 25 51  1  0
M  END
$$$$
OCNT-2316568
     RDKit          3D

 46 49  0  0  0  0  0  0  0  0999 V2000
   -6.1944    1.3300   -0.1724 C   0  0  0  0  0  0  0  0  0  0  0  0
   -5.3143    0.2304   -0.7745 C   0  0  0  0  0  0  0  0  0  0  0  0
   -5.4003   -1.0715    0.0443 C   0  0  0  0  0  0  0  0  0  0  0  0
   -4.1431   -1.3827    0.8593 C   0  0  0  0  0  0  0  0  0  0  0  0
   -3.5373   -0.1236    1.4681 C   0  0  0  0  0  0  0  0  0  0  0  0
   -3.1309    0.9064    0.3975 C   0  0  0  0  0  0  0  0  0  0  0  0
   -1.6557    0.8895    0.1721 C   0  0  0  0  0  0  0  0  0  0  0  0
   -0.8607   -0.1150   -0.1153 N   0  0  0  0  0  0  0  0  0  0  0  0
    0.3737    0.4942   -0.2032 C   0  0  0  0  0  0  0  0  0  0  0  0
    1.5904   -0.2519   -0.5093 C   0  0  0  0  0  0  0  0  0  0  0  0
    1.5331   -1.6341   -0.7331 C   0  0  0  0  0  0  0  0  0  0  0  0
    2.6919   -2.3567   -1.0224 C   0  0  0  0  0  0  0  0  0  0  0  0
    3.9232   -1.7061   -1.0941 C   0  0  0  0  0  0  0  0  0  0  0  0
    4.0092   -0.3237   -0.8802 C   0  0  0  0  0  0  0  0  0  0  0  0
    5.3395    0.3828   -0.9405 C   0  0  0  0  0  0  0  0  0  0  0  0
    6.0214    0.3430    0.3400 N   0  0  0  0  0  0  0  0  0  0  0  0
    5.8852    1.2400    1.3638 C   0  0  0  0  0  0  0  0  0  0  0  0
    6.7644    0.8097    2.3301 C   0  0  0  0  0  0  0  0  0  0  0  0
    7.4369   -0.3102    1.9131 N   0  0  0  0  0  0  0  0  0  0  0  0
    6.9691   -0.5677    0.7124 C   0  0  0  0  0  0  0  0  0  0  0  0
    2.8362    0.3924   -0.5840 C   0  0  0  0  0  0  0  0  0  0  0  0
    0.3398    1.8205    0.0133 N   0  0  0  0  0  0  0  0  0  0  0  0
   -1.0048    2.0832    0.2627 O   0  0  0  0  0  0  0  0  0  0  0  0
   -3.8635    0.6984   -0.9415 C   0  0  0  0  0  0  0  0  0  0  0  0
   -5.9071    1.5729    0.8549 H   0  0  0  0  0  0  0  0  0  0  0  0
   -7.2441    1.0169   -0.1597 H   0  0  0  0  0  0  0  0  0  0  0  0
   -6.1300    2.2469   -0.7678 H   0  0  0  0  0  0  0  0  0  0  0  0
   -5.7179    0.0245   -1.7749 H   0  0  0  0  0  0  0  0  0  0  0  0
   -5.5794   -1.9136   -0.6362 H   0  0  0  0  0  0  0  0  0  0  0  0
   -6.2688   -1.0423    0.7141 H   0  0  0  0  0  0  0  0  0  0  0  0
   -3.4004   -1.8735    0.2180 H   0  0  0  0  0  0  0  0  0  0  0  0
   -4.3918   -2.0996    1.6503 H   0  0  0  0  0  0  0  0  0  0  0  0
   -4.2843    0.3296    2.1327 H   0  0  0  0  0  0  0  0  0  0  0  0
   -2.6896   -0.3926    2.1105 H   0  0  0  0  0  0  0  0  0  0  0  0
   -3.3962    1.8989    0.7865 H   0  0  0  0  0  0  0  0  0  0  0  0
    0.5815   -2.1601   -0.6787 H   0  0  0  0  0  0  0  0  0  0  0  0
    2.6327   -3.4300   -1.1870 H   0  0  0  0  0  0  0  0  0  0  0  0
    4.8151   -2.2897   -1.3135 H   0  0  0  0  0  0  0  0  0  0  0  0
    5.9922   -0.0769   -1.6921 H   0  0  0  0  0  0  0  0  0  0  0  0
    5.2167    1.4349   -1.2240 H   0  0  0  0  0  0  0  0  0  0  0  0
    5.1981    2.0735    1.3280 H   0  0  0  0  0  0  0  0  0  0  0  0
    6.9513    1.2483    3.3017 H   0  0  0  0  0  0  0  0  0  0  0  0
    7.2802   -1.3892    0.0804 H   0  0  0  0  0  0  0  0  0  0  0  0
    2.8967    1.4655   -0.4049 H   0  0  0  0  0  0  0  0  0  0  0  0
   -3.8289    1.6274   -1.5257 H   0  0  0  0  0  0  0  0  0  0  0  0
   -3.3347   -0.0492   -1.5499 H   0  0  0  0  0  0  0  0  0  0  0  0
  1  2  1  0
  2  3  1  0
  3  4  1  0
  4  5  1  0
  5  6  1  0
  6  7  1  0
  7  8  2  0
  8  9  1  0
  9 10  1  0
 10 11  1  0
 11 12  2  0
 12 13  1  0
 13 14  2  0
 14 15  1  0
 15 16  1  0
 16 17  1  0
 17 18  2  0
 18 19  1  0
 19 20  2  0
 14 21  1  0
  9 22  2  0
 22 23  1  0
  6 24  1  0
 24  2  1  0
 23  7  1  0
 21 10  2  0
 20 16  1  0
  1 25  1  0
  1 26  1  0
  1 27  1  0
  2 28  1  0
  3 29  1  0
  3 30  1  0
  4 31  1  0
  4 32  1  0
  5 33  1  0
  5 34  1  0
  6 35  1  0
 11 36  1  0
 12 37  1  0
 13 38  1  0
 15 39  1  0
 15 40  1  0
 17 41  1  0
 18 42  1  0
 20 43  1  0
 21 44  1  0
 24 45  1  0
 24 46  1  0
M  END
$$$$
OCNT-2316569
     RDKit          3D

 54 57  0  0  0  0  0  0  0  0999 V2000
    7.5783    1.9050   -0.6695 C   0  0  0  0  0  0  0  0  0  0  0  0
    6.5388    0.8812   -0.9618 C   0  0  0  0  0  0  0  0  0  0  0  0
    6.2929    0.2064   -2.1404 C   0  0  0  0  0  0  0  0  0  0  0  0
    5.2141   -0.6752   -1.9131 C   0  0  0  0  0  0  0  0  0  0  0  0
    4.8326   -0.5533   -0.5901 C   0  0  0  0  0  0  0  0  0  0  0  0
    3.8102   -1.3083    0.0738 C   0  0  0  0  0  0  0  0  0  0  0  0
    2.6288   -1.4926   -0.4718 N   0  0  0  0  0  0  0  0  0  0  0  0
    1.8446   -2.3052    0.3424 C   0  0  0  0  0  0  0  0  0  0  0  0
    0.4839   -2.6865   -0.0432 C   0  0  0  0  0  0  0  0  0  0  0  0
    0.2898   -3.3997   -1.0244 O   0  0  0  0  0  0  0  0  0  0  0  0
   -0.5719   -2.2384    0.7720 N   0  0  0  0  0  0  0  0  0  0  0  0
   -0.4647   -1.0695    1.6401 C   0  0  0  0  0  0  0  0  0  0  0  0
   -0.9931    0.2100    0.9912 C   0  0  0  0  0  0  0  0  0  0  0  0
   -2.5250    0.2356    0.9109 C   0  0  0  0  0  0  0  0  0  0  0  0
   -3.1487   -0.4370   -0.2394 N   0  0  0  0  0  0  0  0  0  0  0  0
   -4.5924   -0.6520   -0.0373 C   0  0  0  0  0  0  0  0  0  0  0  0
   -5.3198    0.6461    0.0754 C   0  0  0  0  0  0  0  0  0  0  0  0
   -5.3760    1.6880   -0.8326 C   0  0  0  0  0  0  0  0  0  0  0  0
   -6.1637    2.6475   -0.2724 N   0  0  0  0  0  0  0  0  0  0  0  0
   -6.5211    3.9259   -0.8400 C   0  0  0  0  0  0  0  0  0  0  0  0
   -6.6455    2.3040    0.9372 N   0  0  0  0  0  0  0  0  0  0  0  0
   -6.1369    1.0863    1.1436 C   0  0  0  0  0  0  0  0  0  0  0  0
   -2.4865   -1.6655   -0.7140 C   0  0  0  0  0  0  0  0  0  0  0  0
   -1.9233   -2.6150    0.3591 C   0  0  0  0  0  0  0  0  0  0  0  0
    2.4732   -2.7376    1.4983 C   0  0  0  0  0  0  0  0  0  0  0  0
    4.0613   -2.1030    1.5763 S   0  0  0  0  0  0  0  0  0  0  0  0
    5.6045    0.4512   -0.0377 N   0  0  0  0  0  0  0  0  0  0  0  0
    5.4357    1.0199    1.2850 C   0  0  0  0  0  0  0  0  0  0  0  0
    8.3315    1.9322   -1.4627 H   0  0  0  0  0  0  0  0  0  0  0  0
    7.1303    2.8992   -0.5992 H   0  0  0  0  0  0  0  0  0  0  0  0
    8.0938    1.6824    0.2689 H   0  0  0  0  0  0  0  0  0  0  0  0
    6.8368    0.3341   -3.0664 H   0  0  0  0  0  0  0  0  0  0  0  0
    4.7695   -1.3567   -2.6272 H   0  0  0  0  0  0  0  0  0  0  0  0
   -1.0135   -1.2932    2.5637 H   0  0  0  0  0  0  0  0  0  0  0  0
    0.5715   -0.8965    1.9335 H   0  0  0  0  0  0  0  0  0  0  0  0
   -0.6826    1.0530    1.6227 H   0  0  0  0  0  0  0  0  0  0  0  0
   -0.5416    0.3787    0.0046 H   0  0  0  0  0  0  0  0  0  0  0  0
   -2.9282   -0.1611    1.8525 H   0  0  0  0  0  0  0  0  0  0  0  0
   -2.8139    1.2938    0.8735 H   0  0  0  0  0  0  0  0  0  0  0  0
   -5.0218   -1.1785   -0.9000 H   0  0  0  0  0  0  0  0  0  0  0  0
   -4.7763   -1.2795    0.8448 H   0  0  0  0  0  0  0  0  0  0  0  0
   -4.9106    1.8142   -1.8009 H   0  0  0  0  0  0  0  0  0  0  0  0
   -6.0533    4.0354   -1.8219 H   0  0  0  0  0  0  0  0  0  0  0  0
   -7.6076    3.9635   -0.9409 H   0  0  0  0  0  0  0  0  0  0  0  0
   -6.1717    4.7140   -0.1678 H   0  0  0  0  0  0  0  0  0  0  0  0
   -6.3736    0.5708    2.0672 H   0  0  0  0  0  0  0  0  0  0  0  0
   -3.1775   -2.2355   -1.3485 H   0  0  0  0  0  0  0  0  0  0  0  0
   -1.6812   -1.3604   -1.3936 H   0  0  0  0  0  0  0  0  0  0  0  0
   -1.8929   -3.6299   -0.0506 H   0  0  0  0  0  0  0  0  0  0  0  0
   -2.5660   -2.6622    1.2447 H   0  0  0  0  0  0  0  0  0  0  0  0
    2.0796   -3.3816    2.2708 H   0  0  0  0  0  0  0  0  0  0  0  0
    4.3832    0.9697    1.5775 H   0  0  0  0  0  0  0  0  0  0  0  0
    6.0617    0.4551    1.9816 H   0  0  0  0  0  0  0  0  0  0  0  0
    5.7343    2.0708    1.2712 H   0  0  0  0  0  0  0  0  0  0  0  0
  1  2  1  0
  2  3  2  0
  3  4  1  0
  4  5  2  0
  5  6  1  0
  6  7  2  0
  7  8  1  0
  8  9  1  0
  9 10  2  0
  9 11  1  0
 11 12  1  0
 12 13  1  0
 13 14  1  0
 14 15  1  0
 15 16  1  0
 16 17  1  0
 17 18  2  0
 18 19  1  0
 19 20  1  0
 19 21  1  0
 21 22  2  0
 15 23  1  0
 23 24  1  0
  8 25  2  0
 25 26  1  0
  5 27  1  0
 27 28  1  0
 27  2  1  0
 26  6  1  0
 24 11  1  0
 22 17  1  0
  1 29  1  0
  1 30  1  0
  1 31  1  0
  3 32  1  0
  4 33  1  0
 12 34  1  0
 12 35  1  0
 13 36  1  0
 13 37  1  0
 14 38  1  0
 14 39  1  0
 16 40  1  0
 16 41  1  0
 18 42  1  0
 20 43  1  0
 20 44  1  0
 20 45  1  0
 22 46  1  0
 23 47  1  0
 23 48  1  0
 24 49  1  0
 24 50  1  0
 25 51  1  0
 28 52  1  0
 28 53  1  0
 28 54  1  0
M  END
$$$$
OCNT-2316570
     RDKit          3D

 53 54  0  0  0  0  0  0  0  0999 V2000
    2.9811   -0.0054    3.0252 C   0  0  0  0  0  0  0  0  0  0  0  0
    3.1431   -0.8078    1.7303 C   0  0  0  0  0  0  0  0  0  0  0  0
    4.6425   -0.9530    1.4283 C   0  0  0  0  0  0  0  0  0  0  0  0
    2.5338   -2.2097    1.8407 C   0  0  0  0  0  0  0  0  0  0  0  0
    2.6118   -0.0842    0.5929 O   0  0  0  0  0  0  0  0  0  0  0  0
    1.2907    0.2268    0.5186 C   0  0  0  0  0  0  0  0  0  0  0  0
    0.4672   -0.0963    1.3597 O   0  0  0  0  0  0  0  0  0  0  0  0
    0.9881    0.9293   -0.6441 N   0  0  0  0  0  0  0  0  0  0  0  0
    1.8787    0.8820   -1.7947 C   0  0  0  0  0  0  0  0  0  0  0  0
    1.5131   -0.3132   -2.6751 C   0  0  0  0  0  0  0  0  0  0  0  0
    0.0128   -0.3615   -3.0174 C   0  0  0  0  0  0  0  0  0  0  0  0
   -0.9676   -0.0623   -1.8411 C   0  0  0  0  0  0  0  0  0  0  0  0
   -1.4127   -1.3059   -1.0792 C   0  0  0  0  0  0  0  0  0  0  0  0
   -0.5295   -2.3072   -0.6535 C   0  0  0  0  0  0  0  0  0  0  0  0
   -0.9865   -3.4346    0.0358 C   0  0  0  0  0  0  0  0  0  0  0  0
   -2.3401   -3.5874    0.3086 C   0  0  0  0  0  0  0  0  0  0  0  0
   -3.2395   -2.6145   -0.1139 C   0  0  0  0  0  0  0  0  0  0  0  0
   -2.7799   -1.4879   -0.8024 C   0  0  0  0  0  0  0  0  0  0  0  0
   -0.4220    1.1294   -1.0048 C   0  0  0  0  0  0  0  0  0  0  0  0
   -1.3153    1.7738    0.0926 C   0  0  0  0  0  0  0  0  0  0  0  0
   -0.8591    2.4092    1.0461 O   0  0  0  0  0  0  0  0  0  0  0  0
   -2.6759    1.7595   -0.1571 N   0  0  0  0  0  0  0  0  0  0  0  0
   -3.5621    2.5189    0.7034 C   0  0  0  0  0  0  0  0  0  0  0  0
   -3.5908    3.9592    0.1986 C   0  0  0  0  0  0  0  0  0  0  0  0
   -3.4336    4.9258    1.1509 N   0  0  0  0  0  0  0  0  0  0  0  0
   -3.7332    4.2528   -0.9869 O   0  0  0  0  0  0  0  0  0  0  0  0
    3.3137    1.0305    2.8842 H   0  0  0  0  0  0  0  0  0  0  0  0
    3.5598   -0.4488    3.8443 H   0  0  0  0  0  0  0  0  0  0  0  0
    1.9374    0.0418    3.3507 H   0  0  0  0  0  0  0  0  0  0  0  0
    5.1613   -1.5070    2.2166 H   0  0  0  0  0  0  0  0  0  0  0  0
    5.1177    0.0290    1.3257 H   0  0  0  0  0  0  0  0  0  0  0  0
    4.7992   -1.4762    0.4782 H   0  0  0  0  0  0  0  0  0  0  0  0
    1.4791   -2.1776    2.1307 H   0  0  0  0  0  0  0  0  0  0  0  0
    2.5797   -2.7320    0.8769 H   0  0  0  0  0  0  0  0  0  0  0  0
    3.0574   -2.8143    2.5901 H   0  0  0  0  0  0  0  0  0  0  0  0
    1.7635    1.8183   -2.3540 H   0  0  0  0  0  0  0  0  0  0  0  0
    2.9271    0.8219   -1.4926 H   0  0  0  0  0  0  0  0  0  0  0  0
    2.0957   -0.2719   -3.6020 H   0  0  0  0  0  0  0  0  0  0  0  0
    1.8106   -1.2388   -2.1738 H   0  0  0  0  0  0  0  0  0  0  0  0
   -0.1586    0.4079   -3.7831 H   0  0  0  0  0  0  0  0  0  0  0  0
   -0.2275   -1.3183   -3.4953 H   0  0  0  0  0  0  0  0  0  0  0  0
   -1.8769    0.2962   -2.3461 H   0  0  0  0  0  0  0  0  0  0  0  0
    0.5367   -2.2282   -0.8251 H   0  0  0  0  0  0  0  0  0  0  0  0
   -0.2766   -4.1872    0.3718 H   0  0  0  0  0  0  0  0  0  0  0  0
   -2.6905   -4.4580    0.8533 H   0  0  0  0  0  0  0  0  0  0  0  0
   -4.2986   -2.7261    0.0977 H   0  0  0  0  0  0  0  0  0  0  0  0
   -3.5143   -0.7511   -1.1198 H   0  0  0  0  0  0  0  0  0  0  0  0
   -0.3810    1.9692   -1.7209 H   0  0  0  0  0  0  0  0  0  0  0  0
   -2.9779    1.6719   -1.1179 H   0  0  0  0  0  0  0  0  0  0  0  0
   -4.5663    2.0951    0.6169 H   0  0  0  0  0  0  0  0  0  0  0  0
   -3.2335    2.4601    1.7468 H   0  0  0  0  0  0  0  0  0  0  0  0
   -2.8435    4.7020    1.9410 H   0  0  0  0  0  0  0  0  0  0  0  0
   -3.3089    5.8555    0.7700 H   0  0  0  0  0  0  0  0  0  0  0  0
  1  2  1  0
  2  3  1  0
  2  4  1  0
  2  5  1  0
  5  6  1  0
  6  7  2  0
  6  8  1  0
  8  9  1  0
  9 10  1  0
 10 11  1  0
 11 12  1  0
 12 13  1  0
 13 14  2  0
 14 15  1  0
 15 16  2  0
 16 17  1  0
 17 18  2  0
 12 19  1  0
 19 20  1  0
 20 21  2  0
 20 22  1  0
 22 23  1  0
 23 24  1  0
 24 25  1  0
 24 26  2  0
 19  8  1  0
 18 13  1  0
  1 27  1  0
  1 28  1  0
  1 29  1  0
  3 30  1  0
  3 31  1  0
  3 32  1  0
  4 33  1  0
  4 34  1  0
  4 35  1  0
  9 36  1  0
  9 37  1  0
 10 38  1  0
 10 39  1  0
 11 40  1  0
 11 41  1  0
 12 42  1  0
 14 43  1  0
 15 44  1  0
 16 45  1  0
 17 46  1  0
 18 47  1  0
 19 48  1  0
 22 49  1  0
 23 50  1  0
 23 51  1  0
 25 52  1  0
 25 53  1  0
M  END
$$$$
OCNT-2316573
     RDKit          3D

 45 47  0  0  0  0  0  0  0  0999 V2000
    1.9034    0.7744    2.4730 C   0  0  0  0  0  0  0  0  0  0  0  0
    2.7011    0.1316    1.3977 C   0  0  0  0  0  0  0  0  0  0  0  0
    2.3636   -0.8112    0.4491 C   0  0  0  0  0  0  0  0  0  0  0  0
    0.7890   -1.5514    0.2620 S   0  0  0  0  0  0  0  0  0  0  0  0
    0.1968   -0.6995   -1.2380 C   0  0  0  0  0  0  0  0  0  0  0  0
   -0.1105    0.7980   -1.0553 C   0  0  0  0  0  0  0  0  0  0  0  0
   -1.0615    1.1762   -0.0041 N   0  0  0  0  0  0  0  0  0  0  0  0
   -2.3957    0.5562   -0.0693 C   0  0  0  0  0  0  0  0  0  0  0  0
   -3.0684    0.8667    1.2826 C   0  0  0  0  0  0  0  0  0  0  0  0
   -4.2055   -0.0728    1.6838 C   0  0  0  0  0  0  0  0  0  0  0  0
   -5.0907   -0.5854    0.5611 C   0  0  0  0  0  0  0  0  0  0  0  0
   -5.4033    0.4405   -0.3713 O   0  0  0  0  0  0  0  0  0  0  0  0
   -4.5409    0.4419   -1.5016 C   0  0  0  0  0  0  0  0  0  0  0  0
   -3.2082    1.1346   -1.2425 C   0  0  0  0  0  0  0  0  0  0  0  0
    3.5149   -1.0897   -0.3422 C   0  0  0  0  0  0  0  0  0  0  0  0
    3.7995   -1.9525   -1.4225 C   0  0  0  0  0  0  0  0  0  0  0  0
    5.0826   -1.9612   -1.9814 C   0  0  0  0  0  0  0  0  0  0  0  0
    6.0798   -1.1288   -1.4797 C   0  0  0  0  0  0  0  0  0  0  0  0
    5.8278   -0.2687   -0.4070 C   0  0  0  0  0  0  0  0  0  0  0  0
    4.5390   -0.2732    0.1406 C   0  0  0  0  0  0  0  0  0  0  0  0
    4.0212    0.4510    1.1909 N   0  0  0  0  0  0  0  0  0  0  0  0
    1.2861    0.0373    2.9962 H   0  0  0  0  0  0  0  0  0  0  0  0
    1.2461    1.5411    2.0517 H   0  0  0  0  0  0  0  0  0  0  0  0
    2.5490    1.2529    3.2168 H   0  0  0  0  0  0  0  0  0  0  0  0
    0.9420   -0.8191   -2.0321 H   0  0  0  0  0  0  0  0  0  0  0  0
   -0.6995   -1.2255   -1.5828 H   0  0  0  0  0  0  0  0  0  0  0  0
    0.8290    1.3234   -0.8456 H   0  0  0  0  0  0  0  0  0  0  0  0
   -0.4483    1.2000   -2.0173 H   0  0  0  0  0  0  0  0  0  0  0  0
   -1.1498    2.1916    0.0280 H   0  0  0  0  0  0  0  0  0  0  0  0
   -2.2972   -0.5296   -0.1668 H   0  0  0  0  0  0  0  0  0  0  0  0
   -2.3280    0.8251    2.0941 H   0  0  0  0  0  0  0  0  0  0  0  0
   -3.4419    1.8999    1.2804 H   0  0  0  0  0  0  0  0  0  0  0  0
   -4.8299    0.4616    2.4114 H   0  0  0  0  0  0  0  0  0  0  0  0
   -3.7947   -0.9371    2.2202 H   0  0  0  0  0  0  0  0  0  0  0  0
   -6.0356   -0.9365    0.9909 H   0  0  0  0  0  0  0  0  0  0  0  0
   -4.6371   -1.4540    0.0685 H   0  0  0  0  0  0  0  0  0  0  0  0
   -4.3913   -0.5767   -1.8798 H   0  0  0  0  0  0  0  0  0  0  0  0
   -5.0631    0.9892   -2.2946 H   0  0  0  0  0  0  0  0  0  0  0  0
   -3.3972    2.2004   -1.0570 H   0  0  0  0  0  0  0  0  0  0  0  0
   -2.6340    1.0767   -2.1738 H   0  0  0  0  0  0  0  0  0  0  0  0
    3.0308   -2.6114   -1.8154 H   0  0  0  0  0  0  0  0  0  0  0  0
    5.3012   -2.6279   -2.8117 H   0  0  0  0  0  0  0  0  0  0  0  0
    7.0718   -1.1510   -1.9252 H   0  0  0  0  0  0  0  0  0  0  0  0
    6.6093    0.3737   -0.0148 H   0  0  0  0  0  0  0  0  0  0  0  0
    4.5484    1.1193    1.7352 H   0  0  0  0  0  0  0  0  0  0  0  0
  1  2  1  0
  2  3  2  0
  3  4  1  0
  4  5  1  0
  5  6  1  0
  6  7  1  0
  7  8  1  0
  8  9  1  0
  9 10  1  0
 10 11  1  0
 11 12  1  0
 12 13  1  0
 13 14  1  0
  3 15  1  0
 15 16  2  0
 16 17  1  0
 17 18  2  0
 18 19  1  0
 19 20  2  0
 20 21  1  0
 21  2  1  0
 14  8  1  0
 20 15  1  0
  1 22  1  0
  1 23  1  0
  1 24  1  0
  5 25  1  0
  5 26  1  0
  6 27  1  0
  6 28  1  0
  7 29  1  0
  8 30  1  0
  9 31  1  0
  9 32  1  0
 10 33  1  0
 10 34  1  0
 11 35  1  0
 11 36  1  0
 13 37  1  0
 13 38  1  0
 14 39  1  0
 14 40  1  0
 16 41  1  0
 17 42  1  0
 18 43  1  0
 19 44  1  0
 21 45  1  0
M  END
$$$$
OCNT-2316587
     RDKit          3D

 49 50  0  0  0  0  0  0  0  0999 V2000
   -2.4366    2.6282   -0.9202 C   0  0  0  0  0  0  0  0  0  0  0  0
   -2.6860    1.4724   -1.8761 C   0  0  0  0  0  0  0  0  0  0  0  0
   -1.8762    0.2141   -1.5475 C   0  0  0  0  0  0  0  0  0  0  0  0
   -2.1510   -0.4366   -0.1728 C   0  0  0  0  0  0  0  0  0  0  0  0
   -1.1398   -1.4807    0.0786 N   0  0  0  0  0  0  0  0  0  0  0  0
   -0.1195   -1.0987    1.0566 C   0  0  0  0  0  0  0  0  0  0  0  0
    0.9169   -0.1450    0.5429 C   0  0  0  0  0  0  0  0  0  0  0  0
    1.9683   -0.5193   -0.1990 C   0  0  0  0  0  0  0  0  0  0  0  0
    2.9244    0.3713   -0.6444 N   0  0  0  0  0  0  0  0  0  0  0  0
    4.0740   -0.1292   -1.4085 C   0  0  0  0  0  0  0  0  0  0  0  0
    5.1226   -0.8200   -0.5267 C   0  0  0  0  0  0  0  0  0  0  0  0
    5.7055    0.1186    0.3763 O   0  0  0  0  0  0  0  0  0  0  0  0
    6.6921   -0.4816    1.2032 C   0  0  0  0  0  0  0  0  0  0  0  0
    2.8576    1.7273   -0.3449 C   0  0  0  0  0  0  0  0  0  0  0  0
    3.6569    2.5749   -0.7346 O   0  0  0  0  0  0  0  0  0  0  0  0
    1.7910    2.1024    0.4291 N   0  0  0  0  0  0  0  0  0  0  0  0
    0.8275    1.2802    0.9371 C   0  0  0  0  0  0  0  0  0  0  0  0
   -0.0558    1.7035    1.6748 O   0  0  0  0  0  0  0  0  0  0  0  0
   -3.5260   -1.1237   -0.1583 C   0  0  0  0  0  0  0  0  0  0  0  0
   -4.7976   -0.2503    0.0592 C   0  0  0  0  0  0  0  0  0  0  0  0
   -5.3713   -1.4108    0.8940 C   0  0  0  0  0  0  0  0  0  0  0  0
   -3.9172   -1.8255    1.1796 C   0  0  0  0  0  0  0  0  0  0  0  0
   -2.7988    2.4061    0.0872 H   0  0  0  0  0  0  0  0  0  0  0  0
   -2.9620    3.5229   -1.2695 H   0  0  0  0  0  0  0  0  0  0  0  0
   -1.3699    2.8658   -0.8615 H   0  0  0  0  0  0  0  0  0  0  0  0
   -3.7550    1.2490   -1.9176 H   0  0  0  0  0  0  0  0  0  0  0  0
   -2.4076    1.7991   -2.8860 H   0  0  0  0  0  0  0  0  0  0  0  0
   -0.8158    0.4846   -1.6231 H   0  0  0  0  0  0  0  0  0  0  0  0
   -2.0583   -0.5211   -2.3430 H   0  0  0  0  0  0  0  0  0  0  0  0
   -2.1246    0.3168    0.6209 H   0  0  0  0  0  0  0  0  0  0  0  0
   -0.7182   -1.8047   -0.7883 H   0  0  0  0  0  0  0  0  0  0  0  0
   -0.5866   -0.7365    1.9804 H   0  0  0  0  0  0  0  0  0  0  0  0
    0.3896   -2.0233    1.3595 H   0  0  0  0  0  0  0  0  0  0  0  0
    2.1020   -1.5590   -0.4854 H   0  0  0  0  0  0  0  0  0  0  0  0
    3.7013   -0.8303   -2.1649 H   0  0  0  0  0  0  0  0  0  0  0  0
    4.5450    0.7048   -1.9407 H   0  0  0  0  0  0  0  0  0  0  0  0
    5.9087   -1.2354   -1.1676 H   0  0  0  0  0  0  0  0  0  0  0  0
    4.6668   -1.6378    0.0431 H   0  0  0  0  0  0  0  0  0  0  0  0
    7.5073   -0.8857    0.5954 H   0  0  0  0  0  0  0  0  0  0  0  0
    6.2490   -1.2739    1.8142 H   0  0  0  0  0  0  0  0  0  0  0  0
    7.0986    0.2857    1.8675 H   0  0  0  0  0  0  0  0  0  0  0  0
    1.7454    3.0769    0.6802 H   0  0  0  0  0  0  0  0  0  0  0  0
   -3.6447   -1.8066   -1.0142 H   0  0  0  0  0  0  0  0  0  0  0  0
   -4.6297    0.6637    0.6401 H   0  0  0  0  0  0  0  0  0  0  0  0
   -5.3710   -0.0045   -0.8380 H   0  0  0  0  0  0  0  0  0  0  0  0
   -5.9652   -1.1234    1.7649 H   0  0  0  0  0  0  0  0  0  0  0  0
   -5.9322   -2.1446    0.3038 H   0  0  0  0  0  0  0  0  0  0  0  0
   -3.7343   -2.9025    1.2228 H   0  0  0  0  0  0  0  0  0  0  0  0
   -3.4998   -1.3577    2.0794 H   0  0  0  0  0  0  0  0  0  0  0  0
  1  2  1  0
  2  3  1  0
  3  4  1  0
  4  5  1  0
  5  6  1  0
  6  7  1  0
  7  8  2  0
  8  9  1  0
  9 10  1  0
 10 11  1  0
 11 12  1  0
 12 13  1  0
  9 14  1  0
 14 15  2  0
 14 16  1  0
 16 17  1  0
 17 18  2  0
  4 19  1  0
 19 20  1  0
 20 21  1  0
 21 22  1  0
 17  7  1  0
 22 19  1  0
  1 23  1  0
  1 24  1  0
  1 25  1  0
  2 26  1  0
  2 27  1  0
  3 28  1  0
  3 29  1  0
  4 30  1  0
  5 31  1  0
  6 32  1  0
  6 33  1  0
  8 34  1  0
 10 35  1  0
 10 36  1  0
 11 37  1  0
 11 38  1  0
 13 39  1  0
 13 40  1  0
 13 41  1  0
 16 42  1  0
 19 43  1  0
 20 44  1  0
 20 45  1  0
 21 46  1  0
 21 47  1  0
 22 48  1  0
 22 49  1  0
M  END
$$$$
OCNT-2316594
     RDKit          3D

 39 41  0  0  0  0  0  0  0  0999 V2000
    6.1528    1.0315   -1.4714 C   0  0  0  0  0  0  0  0  0  0  0  0
    5.8721    0.7428   -0.0904 N   0  0  0  0  0  0  0  0  0  0  0  0
    6.8544    0.8354    0.8221 N   0  0  0  0  0  0  0  0  0  0  0  0
    6.3324    0.5266    2.0003 N   0  0  0  0  0  0  0  0  0  0  0  0
    5.0087    0.2374    1.8141 C   0  0  0  0  0  0  0  0  0  0  0  0
    4.6819    0.3639    0.4796 C   0  0  0  0  0  0  0  0  0  0  0  0
    3.5065    0.1800   -0.2267 N   0  0  0  0  0  0  0  0  0  0  0  0
    2.3040   -0.0875    0.3982 C   0  0  0  0  0  0  0  0  0  0  0  0
    2.1089   -0.1326    1.6051 O   0  0  0  0  0  0  0  0  0  0  0  0
    1.3066   -0.2935   -0.5383 N   0  0  0  0  0  0  0  0  0  0  0  0
   -0.0338   -0.6277   -0.0784 C   0  0  0  0  0  0  0  0  0  0  0  0
   -1.0524   -0.5566   -1.2157 C   0  0  0  0  0  0  0  0  0  0  0  0
   -2.4379   -0.9515   -0.7654 C   0  0  0  0  0  0  0  0  0  0  0  0
   -2.9095   -2.2504   -1.0147 C   0  0  0  0  0  0  0  0  0  0  0  0
   -4.1782   -2.6430   -0.5829 C   0  0  0  0  0  0  0  0  0  0  0  0
   -4.9948   -1.7416    0.0973 C   0  0  0  0  0  0  0  0  0  0  0  0
   -4.5437   -0.4473    0.3451 C   0  0  0  0  0  0  0  0  0  0  0  0
   -3.2612   -0.0566   -0.0642 C   0  0  0  0  0  0  0  0  0  0  0  0
   -2.7590    1.1975    0.1886 O   0  0  0  0  0  0  0  0  0  0  0  0
   -3.5069    1.8684    1.2080 C   0  0  0  0  0  0  0  0  0  0  0  0
   -4.9953    1.7494    0.9344 C   0  0  0  0  0  0  0  0  0  0  0  0
   -5.4132    0.3826    1.0071 O   0  0  0  0  0  0  0  0  0  0  0  0
    7.2116    1.2759   -1.5904 H   0  0  0  0  0  0  0  0  0  0  0  0
    5.9088    0.1483   -2.0669 H   0  0  0  0  0  0  0  0  0  0  0  0
    5.5396    1.8824   -1.7781 H   0  0  0  0  0  0  0  0  0  0  0  0
    4.3749   -0.0437    2.6432 H   0  0  0  0  0  0  0  0  0  0  0  0
    3.4730    0.3939   -1.2114 H   0  0  0  0  0  0  0  0  0  0  0  0
    1.6184   -0.7883   -1.3603 H   0  0  0  0  0  0  0  0  0  0  0  0
   -0.3030    0.0557    0.7355 H   0  0  0  0  0  0  0  0  0  0  0  0
    0.0075   -1.6385    0.3455 H   0  0  0  0  0  0  0  0  0  0  0  0
   -1.0752    0.4532   -1.6454 H   0  0  0  0  0  0  0  0  0  0  0  0
   -0.7332   -1.2091   -2.0392 H   0  0  0  0  0  0  0  0  0  0  0  0
   -2.2882   -2.9700   -1.5439 H   0  0  0  0  0  0  0  0  0  0  0  0
   -4.5316   -3.6523   -0.7785 H   0  0  0  0  0  0  0  0  0  0  0  0
   -5.9844   -2.0440    0.4283 H   0  0  0  0  0  0  0  0  0  0  0  0
   -3.2385    1.4382    2.1808 H   0  0  0  0  0  0  0  0  0  0  0  0
   -3.2035    2.9199    1.2041 H   0  0  0  0  0  0  0  0  0  0  0  0
   -5.5643    2.3105    1.6823 H   0  0  0  0  0  0  0  0  0  0  0  0
   -5.2544    2.1405   -0.0572 H   0  0  0  0  0  0  0  0  0  0  0  0
  1  2  1  0
  2  3  1  0
  3  4  2  0
  4  5  1  0
  5  6  2  0
  6  7  1  0
  7  8  1  0
  8  9  2  0
  8 10  1  0
 10 11  1  0
 11 12  1  0
 12 13  1  0
 13 14  2  0
 14 15  1  0
 15 16  2  0
 16 17  1  0
 17 18  2  0
 18 19  1  0
 19 20  1  0
 20 21  1  0
 21 22  1  0
  6  2  1  0
 18 13  1  0
 22 17  1  0
  1 23  1  0
  1 24  1  0
  1 25  1  0
  5 26  1  0
  7 27  1  0
 10 28  1  0
 11 29  1  0
 11 30  1  0
 12 31  1  0
 12 32  1  0
 14 33  1  0
 15 34  1  0
 16 35  1  0
 20 36  1  0
 20 37  1  0
 21 38  1  0
 21 39  1  0
M  END
$$$$
OCNT-2316612
     RDKit          3D

 43 45  0  0  0  0  0  0  0  0999 V2000
    5.3659   -0.5143    0.0943 C   0  0  0  0  0  0  0  0  0  0  0  0
    4.0306   -0.9972    0.0126 O   0  0  0  0  0  0  0  0  0  0  0  0
    3.2071   -0.5730    1.1012 C   0  0  0  0  0  0  0  0  0  0  0  0
    2.8140    0.9068    1.0150 C   0  0  0  0  0  0  0  0  0  0  0  0
    2.3954    1.4397   -0.3553 C   0  0  0  0  0  0  0  0  0  0  0  0
    1.6116    0.5003   -1.2670 C   0  0  0  0  0  0  0  0  0  0  0  0
    0.6262   -0.2862   -0.5027 N   0  0  0  0  0  0  0  0  0  0  0  0
   -0.6017   -0.4488   -1.2093 C   0  0  0  0  0  0  0  0  0  0  0  0
   -0.6405   -1.0089   -2.4890 C   0  0  0  0  0  0  0  0  0  0  0  0
   -1.8661   -1.1581   -3.1064 C   0  0  0  0  0  0  0  0  0  0  0  0
   -3.0400   -0.8003   -2.5478 N   0  0  0  0  0  0  0  0  0  0  0  0
   -3.0154   -0.2664   -1.3149 C   0  0  0  0  0  0  0  0  0  0  0  0
   -4.2181    0.0992   -0.7240 C   0  0  0  0  0  0  0  0  0  0  0  0
   -4.2876    0.6586    0.5578 C   0  0  0  0  0  0  0  0  0  0  0  0
   -5.5532    0.9503    0.9806 O   0  0  0  0  0  0  0  0  0  0  0  0
   -5.7086    1.4918    2.2809 C   0  0  0  0  0  0  0  0  0  0  0  0
   -5.0834    2.6834    2.3907 F   0  0  0  0  0  0  0  0  0  0  0  0
   -5.2368    0.6461    3.2224 F   0  0  0  0  0  0  0  0  0  0  0  0
   -7.0251    1.6868    2.5154 F   0  0  0  0  0  0  0  0  0  0  0  0
   -3.1107    0.8647    1.2674 C   0  0  0  0  0  0  0  0  0  0  0  0
   -1.8889    0.5050    0.6951 C   0  0  0  0  0  0  0  0  0  0  0  0
   -1.8206   -0.0651   -0.5945 C   0  0  0  0  0  0  0  0  0  0  0  0
    1.1425   -1.6040   -0.0732 C   0  0  0  0  0  0  0  0  0  0  0  0
    1.9799   -1.4866    1.1957 C   0  0  0  0  0  0  0  0  0  0  0  0
    5.8331   -0.8264    1.0342 H   0  0  0  0  0  0  0  0  0  0  0  0
    5.3949    0.5750    0.0007 H   0  0  0  0  0  0  0  0  0  0  0  0
    5.9347   -0.9451   -0.7347 H   0  0  0  0  0  0  0  0  0  0  0  0
    3.7632   -0.7183    2.0375 H   0  0  0  0  0  0  0  0  0  0  0  0
    2.0136    1.1085    1.7396 H   0  0  0  0  0  0  0  0  0  0  0  0
    3.6614    1.5177    1.3526 H   0  0  0  0  0  0  0  0  0  0  0  0
    3.2874    1.7743   -0.9005 H   0  0  0  0  0  0  0  0  0  0  0  0
    1.7989    2.3465   -0.1873 H   0  0  0  0  0  0  0  0  0  0  0  0
    2.2978   -0.1526   -1.8206 H   0  0  0  0  0  0  0  0  0  0  0  0
    1.1221    1.1299   -2.0232 H   0  0  0  0  0  0  0  0  0  0  0  0
    0.2622   -1.3301   -2.9944 H   0  0  0  0  0  0  0  0  0  0  0  0
   -1.9411   -1.5879   -4.1011 H   0  0  0  0  0  0  0  0  0  0  0  0
   -5.1362   -0.0620   -1.2862 H   0  0  0  0  0  0  0  0  0  0  0  0
   -3.0929    1.2992    2.2621 H   0  0  0  0  0  0  0  0  0  0  0  0
   -0.9723    0.6714    1.2582 H   0  0  0  0  0  0  0  0  0  0  0  0
    0.3102   -2.2826    0.1604 H   0  0  0  0  0  0  0  0  0  0  0  0
    1.7185   -2.0867   -0.8733 H   0  0  0  0  0  0  0  0  0  0  0  0
    2.3253   -2.4977    1.4478 H   0  0  0  0  0  0  0  0  0  0  0  0
    1.3427   -1.1568    2.0264 H   0  0  0  0  0  0  0  0  0  0  0  0
  1  2  1  0
  2  3  1  0
  3  4  1  0
  4  5  1  0
  5  6  1  0
  6  7  1  0
  7  8  1  0
  8  9  2  0
  9 10  1  0
 10 11  2  0
 11 12  1  0
 12 13  2  0
 13 14  1  0
 14 15  1  0
 15 16  1  0
 16 17  1  0
 16 18  1  0
 16 19  1  0
 14 20  2  0
 20 21  1  0
 21 22  2  0
  7 23  1  0
 23 24  1  0
 24  3  1  0
 22  8  1  0
 22 12  1  0
  1 25  1  0
  1 26  1  0
  1 27  1  0
  3 28  1  0
  4 29  1  0
  4 30  1  0
  5 31  1  0
  5 32  1  0
  6 33  1  0
  6 34  1  0
  9 35  1  0
 10 36  1  0
 13 37  1  0
 20 38  1  0
 21 39  1  0
 23 40  1  0
 23 41  1  0
 24 42  1  0
 24 43  1  0
M  END
$$$$
OCNT-2316617
     RDKit          3D

  0  0  0  0  0  0  0  0  0  0999 V3000
M  V30 BEGIN CTAB
M  V30 COUNTS 45 47 0 0 0
M  V30 BEGIN ATOM
M  V30 1 O 3.105595 -0.933991 -3.130249 0
M  V30 2 C 2.588015 -0.929307 -2.020029 0
M  V30 3 C 1.303447 -1.724395 -1.745139 0
M  V30 4 N 0.422962 -1.011744 -0.785436 0
M  V30 5 C -0.237712 0.154110 -1.411005 0
M  V30 6 C -1.421807 0.438687 -0.475604 0 CFG=2
M  V30 7 O -1.080776 1.480087 0.438348 0
M  V30 8 C -1.659222 -0.876456 0.286979 0 CFG=1
M  V30 9 C -3.106685 -1.380130 0.225549 0
M  V30 10 C -4.037655 -0.612444 1.131118 0
M  V30 11 C -4.105801 -0.919576 2.497395 0
M  V30 12 C -4.959077 -0.208417 3.342515 0
M  V30 13 C -5.749325 0.818680 2.831831 0
M  V30 14 C -5.686707 1.135095 1.476386 0
M  V30 15 C -4.835424 0.423362 0.629232 0
M  V30 16 C -0.705996 -1.864719 -0.387836 0
M  V30 17 N 3.031354 -0.264476 -0.890084 0
M  V30 18 C 4.200107 0.506230 -0.737242 0
M  V30 19 C 4.218576 1.406852 0.335388 0
M  V30 20 C 5.331204 2.217805 0.550711 0
M  V30 21 F 5.322971 3.083544 1.572247 0
M  V30 22 C 6.446443 2.145312 -0.273408 0
M  V30 23 C 6.451583 1.234049 -1.325711 0
M  V30 24 C 5.339936 0.417033 -1.549451 0
M  V30 25 F 5.449669 -0.501586 -2.516369 0
M  V30 26 H 0.792910 -1.920584 -2.695382 0
M  V30 27 H 1.619248 -2.684477 -1.319049 0
M  V30 28 H -0.617858 -0.099498 -2.409032 0
M  V30 29 H 0.442425 1.007674 -1.490584 0
M  V30 30 H -2.290699 0.771511 -1.051104 0
M  V30 31 H -0.322662 1.166995 0.961469 0
M  V30 32 H -1.357572 -0.760177 1.337573 0
M  V30 33 H -3.482154 -1.352286 -0.805540 0
M  V30 34 H -3.142745 -2.437456 0.520913 0
M  V30 35 H -3.493127 -1.715974 2.913299 0
M  V30 36 H -5.004990 -0.454307 4.399772 0
M  V30 37 H -6.411125 1.375090 3.489870 0
M  V30 38 H -6.298478 1.940279 1.078358 0
M  V30 39 H -4.797927 0.689533 -0.424006 0
M  V30 40 H -0.390681 -2.649108 0.308438 0
M  V30 41 H -1.178967 -2.340592 -1.257483 0
M  V30 42 H 2.316487 -0.201139 -0.169349 0
M  V30 43 H 3.370522 1.508815 1.005332 0
M  V30 44 H 7.302305 2.785637 -0.085380 0
M  V30 45 H 7.319414 1.136458 -1.970937 0
M  V30 END ATOM
M  V30 BEGIN BOND
M  V30 1 2 1 2
M  V30 2 1 2 3
M  V30 3 1 3 4
M  V30 4 1 4 5
M  V30 5 1 5 6
M  V30 6 1 6 7
M  V30 7 1 6 8
M  V30 8 1 8 9
M  V30 9 1 9 10
M  V30 10 2 10 11
M  V30 11 1 11 12
M  V30 12 2 12 13
M  V30 13 1 13 14
M  V30 14 2 14 15
M  V30 15 1 8 16
M  V30 16 1 2 17
M  V30 17 1 17 18
M  V30 18 1 18 19
M  V30 19 2 19 20
M  V30 20 1 20 21
M  V30 21 1 20 22
M  V30 22 2 22 23
M  V30 23 1 23 24
M  V30 24 1 24 25
M  V30 25 1 16 4
M  V30 26 2 24 18
M  V30 27 1 15 10
M  V30 28 1 3 26
M  V30 29 1 3 27
M  V30 30 1 5 28
M  V30 31 1 5 29
M  V30 32 1 6 30 CFG=3
M  V30 33 1 7 31
M  V30 34 1 8 32 CFG=1
M  V30 35 1 9 33
M  V30 36 1 9 34
M  V30 37 1 11 35
M  V30 38 1 12 36
M  V30 39 1 13 37
M  V30 40 1 14 38
M  V30 41 1 15 39
M  V30 42 1 16 40
M  V30 43 1 16 41
M  V30 44 1 17 42
M  V30 45 1 19 43
M  V30 46 1 22 44
M  V30 47 1 23 45
M  V30 END BOND
M  V30 BEGIN COLLECTION
M  V30 MDLV30/STERAC1 ATOMS=(2 6 8)
M  V30 END COLLECTION
M  V30 END CTAB
M  END
>  <_CXSMILES_Data>  (1119) 
|&1:5,7|

$$$$
OCNT-2316619
     RDKit          3D

 47 50  0  0  0  0  0  0  0  0999 V2000
    0.7115   -2.5347    0.9756 C   0  0  0  0  0  0  0  0  0  0  0  0
   -0.2037   -1.4656    0.3495 C   0  0  0  0  0  0  0  0  0  0  0  0
   -1.4666   -1.3358    1.2627 C   0  0  0  0  0  0  0  0  0  0  0  0
   -2.5885   -0.4333    0.7877 C   0  0  0  0  0  0  0  0  0  0  0  0
   -2.4996    0.9567    0.9309 C   0  0  0  0  0  0  0  0  0  0  0  0
   -3.5355    1.7867    0.4959 C   0  0  0  0  0  0  0  0  0  0  0  0
   -4.6892    1.2421   -0.0819 C   0  0  0  0  0  0  0  0  0  0  0  0
   -5.7874    2.1389   -0.5882 C   0  0  0  0  0  0  0  0  0  0  0  0
   -7.0185    1.5544   -0.5508 F   0  0  0  0  0  0  0  0  0  0  0  0
   -5.9078    3.2953    0.1237 F   0  0  0  0  0  0  0  0  0  0  0  0
   -4.7813   -0.1484   -0.2240 C   0  0  0  0  0  0  0  0  0  0  0  0
   -3.7441   -0.9771    0.2113 C   0  0  0  0  0  0  0  0  0  0  0  0
   -0.5740   -1.9228   -1.0847 C   0  0  0  0  0  0  0  0  0  0  0  0
   -0.3469   -0.7029   -1.9632 C   0  0  0  0  0  0  0  0  0  0  0  0
    0.7892    0.0123   -1.2611 C   0  0  0  0  0  0  0  0  0  0  0  0
    0.4335   -0.1533    0.1381 N   0  0  0  0  0  0  0  0  0  0  0  0
    1.3439    0.4158    1.1274 C   0  0  0  0  0  0  0  0  0  0  0  0
    2.7721   -0.0038    1.0573 C   0  0  0  0  0  0  0  0  0  0  0  0
    3.3478   -1.0117    1.6905 N   0  0  0  0  0  0  0  0  0  0  0  0
    4.6860   -1.0190    1.3699 N   0  0  0  0  0  0  0  0  0  0  0  0
    4.9078   -0.0018    0.5688 C   0  0  0  0  0  0  0  0  0  0  0  0
    6.0763    0.4800   -0.0581 C   0  0  0  0  0  0  0  0  0  0  0  0
    5.9991    1.5750   -0.8248 C   0  0  0  0  0  0  0  0  0  0  0  0
    4.6664    2.2139   -0.9616 C   0  0  0  0  0  0  0  0  0  0  0  0
    3.5619    1.8133   -0.4145 N   0  0  0  0  0  0  0  0  0  0  0  0
    3.7292    0.6851    0.3483 N   0  0  0  0  0  0  0  0  0  0  0  0
    0.2084   -3.5089    0.9990 H   0  0  0  0  0  0  0  0  0  0  0  0
    1.6329   -2.6659    0.3977 H   0  0  0  0  0  0  0  0  0  0  0  0
    0.9792   -2.2875    2.0081 H   0  0  0  0  0  0  0  0  0  0  0  0
   -1.8860   -2.3385    1.4281 H   0  0  0  0  0  0  0  0  0  0  0  0
   -1.1645   -0.9929    2.2624 H   0  0  0  0  0  0  0  0  0  0  0  0
   -1.6157    1.4037    1.3799 H   0  0  0  0  0  0  0  0  0  0  0  0
   -3.4385    2.8642    0.6163 H   0  0  0  0  0  0  0  0  0  0  0  0
   -5.5831    2.4112   -1.6284 H   0  0  0  0  0  0  0  0  0  0  0  0
   -5.6682   -0.5954   -0.6697 H   0  0  0  0  0  0  0  0  0  0  0  0
   -3.8457   -2.0541    0.0957 H   0  0  0  0  0  0  0  0  0  0  0  0
    0.0984   -2.7197   -1.4289 H   0  0  0  0  0  0  0  0  0  0  0  0
   -1.5943   -2.3035   -1.1837 H   0  0  0  0  0  0  0  0  0  0  0  0
   -1.2458   -0.0755   -1.9865 H   0  0  0  0  0  0  0  0  0  0  0  0
   -0.0959   -0.9763   -2.9923 H   0  0  0  0  0  0  0  0  0  0  0  0
    0.8378    1.0640   -1.5590 H   0  0  0  0  0  0  0  0  0  0  0  0
    1.7399   -0.4757   -1.5045 H   0  0  0  0  0  0  0  0  0  0  0  0
    0.9675    0.2065    2.1363 H   0  0  0  0  0  0  0  0  0  0  0  0
    1.2891    1.5089    1.0424 H   0  0  0  0  0  0  0  0  0  0  0  0
    7.0103   -0.0474    0.0977 H   0  0  0  0  0  0  0  0  0  0  0  0
    6.8466    2.0084   -1.3380 H   0  0  0  0  0  0  0  0  0  0  0  0
    4.6461    3.1151   -1.5976 H   0  0  0  0  0  0  0  0  0  0  0  0
  1  2  1  0
  2  3  1  0
  3  4  1  0
  4  5  1  0
  5  6  2  0
  6  7  1  0
  7  8  1  0
  8  9  1  0
  8 10  1  0
  7 11  2  0
 11 12  1  0
  2 13  1  0
 13 14  1  0
 14 15  1  0
 15 16  1  0
 16 17  1  0
 17 18  1  0
 18 19  2  0
 19 20  1  0
 20 21  2  0
 21 22  1  0
 22 23  2  0
 23 24  1  0
 24 25  2  0
 25 26  1  0
 16  2  1  0
 26 18  1  0
 12  4  2  0
 26 21  1  0
  1 27  1  0
  1 28  1  0
  1 29  1  0
  3 30  1  0
  3 31  1  0
  5 32  1  0
  6 33  1  0
  8 34  1  0
 11 35  1  0
 12 36  1  0
 13 37  1  0
 13 38  1  0
 14 39  1  0
 14 40  1  0
 15 41  1  0
 15 42  1  0
 17 43  1  0
 17 44  1  0
 22 45  1  0
 23 46  1  0
 24 47  1  0
M  END
$$$$
OCNT-2316630
     RDKit          3D

 40 42  0  0  0  0  0  0  0  0999 V2000
   -1.2584   -0.4417   -3.0504 O   0  0  0  0  0  0  0  0  0  0  0  0
   -0.7668   -0.5278   -1.6970 C   0  0  0  0  0  0  0  0  0  0  0  0
   -1.9553   -0.8940   -0.7769 C   0  0  0  0  0  0  0  0  0  0  0  0
   -3.0806    0.0435   -1.0116 N   0  0  0  0  0  0  0  0  0  0  0  0
   -2.8690    1.3191   -0.2856 C   0  0  0  0  0  0  0  0  0  0  0  0
   -4.0672    2.2686   -0.4509 C   0  0  0  0  0  0  0  0  0  0  0  0
   -5.2838    1.6561   -0.0022 O   0  0  0  0  0  0  0  0  0  0  0  0
   -5.5216    0.4416   -0.7221 C   0  0  0  0  0  0  0  0  0  0  0  0
   -4.3559   -0.5436   -0.5379 C   0  0  0  0  0  0  0  0  0  0  0  0
    0.3594   -1.5590   -1.6457 C   0  0  0  0  0  0  0  0  0  0  0  0
    1.2720   -1.3127   -0.5512 N   0  0  0  0  0  0  0  0  0  0  0  0
    2.5142   -0.7516   -0.6068 C   0  0  0  0  0  0  0  0  0  0  0  0
    2.9183   -0.7102    0.7095 C   0  0  0  0  0  0  0  0  0  0  0  0
    4.1670   -0.1959    1.2318 C   0  0  0  0  0  0  0  0  0  0  0  0
    4.3773   -0.1303    2.6103 C   0  0  0  0  0  0  0  0  0  0  0  0
    5.5113    0.3366    3.1965 N   0  0  0  0  0  0  0  0  0  0  0  0
    6.4885    0.7567    2.3627 C   0  0  0  0  0  0  0  0  0  0  0  0
    6.3745    0.7292    0.9851 C   0  0  0  0  0  0  0  0  0  0  0  0
    7.3778    1.1566    0.2097 F   0  0  0  0  0  0  0  0  0  0  0  0
    5.2054    0.2500    0.4083 C   0  0  0  0  0  0  0  0  0  0  0  0
    1.9244   -1.2398    1.4954 N   0  0  0  0  0  0  0  0  0  0  0  0
    0.9247   -1.6154    0.7093 N   0  0  0  0  0  0  0  0  0  0  0  0
   -2.1768   -0.1189   -2.9441 H   0  0  0  0  0  0  0  0  0  0  0  0
   -0.3773    0.4643   -1.4488 H   0  0  0  0  0  0  0  0  0  0  0  0
   -2.2868   -1.9044   -1.0619 H   0  0  0  0  0  0  0  0  0  0  0  0
   -1.6688   -0.9272    0.2825 H   0  0  0  0  0  0  0  0  0  0  0  0
   -1.9749    1.8286   -0.6538 H   0  0  0  0  0  0  0  0  0  0  0  0
   -2.7236    1.1182    0.7850 H   0  0  0  0  0  0  0  0  0  0  0  0
   -4.1832    2.5855   -1.4934 H   0  0  0  0  0  0  0  0  0  0  0  0
   -3.9094    3.1672    0.1502 H   0  0  0  0  0  0  0  0  0  0  0  0
   -6.4490    0.0009   -0.3388 H   0  0  0  0  0  0  0  0  0  0  0  0
   -5.6804    0.6784   -1.7823 H   0  0  0  0  0  0  0  0  0  0  0  0
   -4.5809   -1.4545   -1.1028 H   0  0  0  0  0  0  0  0  0  0  0  0
   -4.2727   -0.8129    0.5240 H   0  0  0  0  0  0  0  0  0  0  0  0
    0.9459   -1.5334   -2.5738 H   0  0  0  0  0  0  0  0  0  0  0  0
   -0.0229   -2.5832   -1.5441 H   0  0  0  0  0  0  0  0  0  0  0  0
    2.9672   -0.4405   -1.5362 H   0  0  0  0  0  0  0  0  0  0  0  0
    3.6148   -0.4602    3.3136 H   0  0  0  0  0  0  0  0  0  0  0  0
    7.3906    1.1249    2.8390 H   0  0  0  0  0  0  0  0  0  0  0  0
    5.1318    0.2312   -0.6727 H   0  0  0  0  0  0  0  0  0  0  0  0
  1  2  1  0
  2  3  1  0
  3  4  1  0
  4  5  1  0
  5  6  1  0
  6  7  1  0
  7  8  1  0
  8  9  1  0
  2 10  1  0
 10 11  1  0
 11 12  1  0
 12 13  2  0
 13 14  1  0
 14 15  2  0
 15 16  1  0
 16 17  2  0
 17 18  1  0
 18 19  1  0
 18 20  2  0
 13 21  1  0
 21 22  2  0
  9  4  1  0
 22 11  1  0
 20 14  1  0
  1 23  1  0
  2 24  1  0
  3 25  1  0
  3 26  1  0
  5 27  1  0
  5 28  1  0
  6 29  1  0
  6 30  1  0
  8 31  1  0
  8 32  1  0
  9 33  1  0
  9 34  1  0
 10 35  1  0
 10 36  1  0
 12 37  1  0
 15 38  1  0
 17 39  1  0
 20 40  1  0
M  END
$$$$
OCNT-2316644
     RDKit          3D

 54 55  0  0  0  0  0  0  0  0999 V2000
   -5.8595    0.8475   -0.6718 C   0  0  0  0  0  0  0  0  0  0  0  0
   -5.1921   -0.3593   -0.0021 C   0  0  0  0  0  0  0  0  0  0  0  0
   -6.0959   -0.8497    1.1399 C   0  0  0  0  0  0  0  0  0  0  0  0
   -4.9768   -1.5132   -0.9873 C   0  0  0  0  0  0  0  0  0  0  0  0
   -3.9532    0.0192    0.6493 O   0  0  0  0  0  0  0  0  0  0  0  0
   -2.9157    0.5038   -0.0710 C   0  0  0  0  0  0  0  0  0  0  0  0
   -2.8898    0.6642   -1.2804 O   0  0  0  0  0  0  0  0  0  0  0  0
   -1.8913    0.7864    0.7876 N   0  0  0  0  0  0  0  0  0  0  0  0
   -0.5594    1.3182    0.3778 C   0  0  0  0  0  0  0  0  0  0  0  0
    0.2447    0.1645   -0.2384 C   0  0  0  0  0  0  0  0  0  0  0  0
    1.5942    0.5891   -0.8307 C   0  0  0  0  0  0  0  0  0  0  0  0
    2.3777   -0.5385   -1.3376 N   0  0  0  0  0  0  0  0  0  0  0  0
    3.0688   -1.3067   -0.2924 C   0  0  0  0  0  0  0  0  0  0  0  0
    3.2537   -2.7650   -0.7373 C   0  0  0  0  0  0  0  0  0  0  0  0
    2.4550   -3.4457   -1.3586 O   0  0  0  0  0  0  0  0  0  0  0  0
    4.4707   -3.2074   -0.2639 N   0  0  0  0  0  0  0  0  0  0  0  0
    5.1573   -2.2028    0.4919 C   0  0  0  0  0  0  0  0  0  0  0  0
    4.5306   -0.8757    0.0280 C   0  0  0  0  0  0  0  0  0  0  0  0
    5.2907   -0.3493   -1.2070 C   0  0  0  0  0  0  0  0  0  0  0  0
    4.6013    0.1719    1.1453 C   0  0  0  0  0  0  0  0  0  0  0  0
   -0.6469    2.7109   -0.3355 C   0  0  0  0  0  0  0  0  0  0  0  0
   -0.5858    3.3691    1.0573 C   0  0  0  0  0  0  0  0  0  0  0  0
    0.1076    2.0900    1.5691 C   0  0  0  0  0  0  0  0  0  0  0  0
   -5.9109    1.6974    0.0194 H   0  0  0  0  0  0  0  0  0  0  0  0
   -6.8744    0.6065   -1.0051 H   0  0  0  0  0  0  0  0  0  0  0  0
   -5.3011    1.1891   -1.5505 H   0  0  0  0  0  0  0  0  0  0  0  0
   -6.2387   -0.0638    1.8900 H   0  0  0  0  0  0  0  0  0  0  0  0
   -5.6362   -1.6959    1.6631 H   0  0  0  0  0  0  0  0  0  0  0  0
   -7.0785   -1.1623    0.7743 H   0  0  0  0  0  0  0  0  0  0  0  0
   -4.3989   -1.2026   -1.8634 H   0  0  0  0  0  0  0  0  0  0  0  0
   -4.4171   -2.3283   -0.5150 H   0  0  0  0  0  0  0  0  0  0  0  0
   -5.9305   -1.9103   -1.3489 H   0  0  0  0  0  0  0  0  0  0  0  0
   -2.0978    0.5636    1.7520 H   0  0  0  0  0  0  0  0  0  0  0  0
   -0.3389   -0.3085   -1.0395 H   0  0  0  0  0  0  0  0  0  0  0  0
    0.3936   -0.6035    0.5308 H   0  0  0  0  0  0  0  0  0  0  0  0
    1.4082    1.2473   -1.6859 H   0  0  0  0  0  0  0  0  0  0  0  0
    2.1833    1.1770   -0.1249 H   0  0  0  0  0  0  0  0  0  0  0  0
    1.7534   -1.1797   -1.8409 H   0  0  0  0  0  0  0  0  0  0  0  0
    2.4744   -1.3664    0.6284 H   0  0  0  0  0  0  0  0  0  0  0  0
    4.7592   -4.1693   -0.3871 H   0  0  0  0  0  0  0  0  0  0  0  0
    6.2319   -2.2723    0.2979 H   0  0  0  0  0  0  0  0  0  0  0  0
    4.9724   -2.4025    1.5539 H   0  0  0  0  0  0  0  0  0  0  0  0
    6.3452   -0.1724   -0.9662 H   0  0  0  0  0  0  0  0  0  0  0  0
    5.2579   -1.0583   -2.0424 H   0  0  0  0  0  0  0  0  0  0  0  0
    4.8743    0.6024   -1.5571 H   0  0  0  0  0  0  0  0  0  0  0  0
    5.6353    0.3243    1.4695 H   0  0  0  0  0  0  0  0  0  0  0  0
    4.0209   -0.1396    2.0214 H   0  0  0  0  0  0  0  0  0  0  0  0
    4.2156    1.1416    0.8177 H   0  0  0  0  0  0  0  0  0  0  0  0
    0.2129    2.9721   -0.9601 H   0  0  0  0  0  0  0  0  0  0  0  0
   -1.5533    2.9265   -0.9070 H   0  0  0  0  0  0  0  0  0  0  0  0
    0.0033    4.2877    1.1225 H   0  0  0  0  0  0  0  0  0  0  0  0
   -1.5700    3.5479    1.5039 H   0  0  0  0  0  0  0  0  0  0  0  0
   -0.1813    1.7754    2.5771 H   0  0  0  0  0  0  0  0  0  0  0  0
    1.2001    2.1551    1.5401 H   0  0  0  0  0  0  0  0  0  0  0  0
  1  2  1  0
  2  3  1  0
  2  4  1  0
  2  5  1  0
  5  6  1  0
  6  7  2  0
  6  8  1  0
  8  9  1  0
  9 10  1  0
 10 11  1  0
 11 12  1  0
 12 13  1  0
 13 14  1  0
 14 15  2  0
 14 16  1  0
 16 17  1  0
 17 18  1  0
 18 19  1  0
 18 20  1  0
  9 21  1  0
 21 22  1  0
 22 23  1  0
 23  9  1  0
 18 13  1  0
  1 24  1  0
  1 25  1  0
  1 26  1  0
  3 27  1  0
  3 28  1  0
  3 29  1  0
  4 30  1  0
  4 31  1  0
  4 32  1  0
  8 33  1  0
 10 34  1  0
 10 35  1  0
 11 36  1  0
 11 37  1  0
 12 38  1  0
 13 39  1  0
 16 40  1  0
 17 41  1  0
 17 42  1  0
 19 43  1  0
 19 44  1  0
 19 45  1  0
 20 46  1  0
 20 47  1  0
 20 48  1  0
 21 49  1  0
 21 50  1  0
 22 51  1  0
 22 52  1  0
 23 53  1  0
 23 54  1  0
M  END
$$$$
OCNT-2316654
     RDKit          3D

 39 42  0  0  0  0  0  0  0  0999 V2000
    3.0076   -2.5253    1.8465 C   0  0  0  0  0  0  0  0  0  0  0  0
    3.1125   -1.3119    0.9925 C   0  0  0  0  0  0  0  0  0  0  0  0
    2.1424   -0.6332    0.2638 C   0  0  0  0  0  0  0  0  0  0  0  0
    0.7265   -1.0148    0.2155 C   0  0  0  0  0  0  0  0  0  0  0  0
    0.3828   -2.1905    0.2439 O   0  0  0  0  0  0  0  0  0  0  0  0
   -0.1234    0.0759    0.1987 N   0  0  0  0  0  0  0  0  0  0  0  0
   -1.5304    0.0817    0.1220 C   0  0  0  0  0  0  0  0  0  0  0  0
   -2.3029   -1.0698   -0.0555 C   0  0  0  0  0  0  0  0  0  0  0  0
   -3.7178   -1.0285   -0.1294 C   0  0  0  0  0  0  0  0  0  0  0  0
   -4.4931   -2.3012   -0.3473 C   0  0  0  0  0  0  0  0  0  0  0  0
   -5.7424   -2.2657    0.1967 F   0  0  0  0  0  0  0  0  0  0  0  0
   -4.6725   -2.5756   -1.6687 F   0  0  0  0  0  0  0  0  0  0  0  0
   -3.8932   -3.4004    0.1870 F   0  0  0  0  0  0  0  0  0  0  0  0
   -4.3346    0.2369   -0.0392 C   0  0  0  0  0  0  0  0  0  0  0  0
   -5.6606    0.7317   -0.0791 C   0  0  0  0  0  0  0  0  0  0  0  0
   -5.7214    2.0583    0.0547 N   0  0  0  0  0  0  0  0  0  0  0  0
   -4.4347    2.4199    0.1840 N   0  0  0  0  0  0  0  0  0  0  0  0
   -3.5519    1.3723    0.1316 C   0  0  0  0  0  0  0  0  0  0  0  0
   -2.1562    1.3331    0.2173 C   0  0  0  0  0  0  0  0  0  0  0  0
    2.8108    0.4503   -0.4079 C   0  0  0  0  0  0  0  0  0  0  0  0
    2.4124    1.4460   -1.3291 C   0  0  0  0  0  0  0  0  0  0  0  0
    3.3469    2.3808   -1.7906 C   0  0  0  0  0  0  0  0  0  0  0  0
    4.6688    2.3334   -1.3592 C   0  0  0  0  0  0  0  0  0  0  0  0
    5.0974    1.3468   -0.4683 C   0  0  0  0  0  0  0  0  0  0  0  0
    4.1502    0.4187   -0.0184 C   0  0  0  0  0  0  0  0  0  0  0  0
    4.3052   -0.6580    0.8209 N   0  0  0  0  0  0  0  0  0  0  0  0
    2.1778   -2.4274    2.5538 H   0  0  0  0  0  0  0  0  0  0  0  0
    2.8346   -3.4112    1.2275 H   0  0  0  0  0  0  0  0  0  0  0  0
    3.9223   -2.6895    2.4255 H   0  0  0  0  0  0  0  0  0  0  0  0
    0.3249    0.9739    0.3264 H   0  0  0  0  0  0  0  0  0  0  0  0
   -1.8287   -2.0456   -0.1475 H   0  0  0  0  0  0  0  0  0  0  0  0
   -6.5833    0.1769   -0.1989 H   0  0  0  0  0  0  0  0  0  0  0  0
   -4.2237    3.4042    0.3034 H   0  0  0  0  0  0  0  0  0  0  0  0
   -1.5863    2.2468    0.3519 H   0  0  0  0  0  0  0  0  0  0  0  0
    1.3941    1.4854   -1.7054 H   0  0  0  0  0  0  0  0  0  0  0  0
    3.0388    3.1437   -2.5017 H   0  0  0  0  0  0  0  0  0  0  0  0
    5.3830    3.0645   -1.7317 H   0  0  0  0  0  0  0  0  0  0  0  0
    6.1336    1.3006   -0.1485 H   0  0  0  0  0  0  0  0  0  0  0  0
    5.1844   -0.9331    1.2374 H   0  0  0  0  0  0  0  0  0  0  0  0
  1  2  1  0
  2  3  2  0
  3  4  1  0
  4  5  2  0
  4  6  1  0
  6  7  1  0
  7  8  2  0
  8  9  1  0
  9 10  1  0
 10 11  1  0
 10 12  1  0
 10 13  1  0
  9 14  2  0
 14 15  1  0
 15 16  2  0
 16 17  1  0
 17 18  1  0
 18 19  2  0
  3 20  1  0
 20 21  2  0
 21 22  1  0
 22 23  2  0
 23 24  1  0
 24 25  2  0
 25 26  1  0
 26  2  1  0
 19  7  1  0
 25 20  1  0
 18 14  1  0
  1 27  1  0
  1 28  1  0
  1 29  1  0
  6 30  1  0
  8 31  1  0
 15 32  1  0
 17 33  1  0
 19 34  1  0
 21 35  1  0
 22 36  1  0
 23 37  1  0
 24 38  1  0
 26 39  1  0
M  END
$$$$
OCNT-2316656
     RDKit          3D

 49 52  0  0  0  0  0  0  0  0999 V2000
    5.6588   -2.2895   -1.7041 C   0  0  0  0  0  0  0  0  0  0  0  0
    4.7780   -2.6149   -0.5084 C   0  0  0  0  0  0  0  0  0  0  0  0
    4.2694   -1.3920    0.1619 C   0  0  0  0  0  0  0  0  0  0  0  0
    4.8904   -0.8239    1.2047 N   0  0  0  0  0  0  0  0  0  0  0  0
    4.0902    0.2239    1.4491 N   0  0  0  0  0  0  0  0  0  0  0  0
    4.2954    1.0986    2.5819 C   0  0  0  0  0  0  0  0  0  0  0  0
    3.4121    2.3444    2.5059 C   0  0  0  0  0  0  0  0  0  0  0  0
    1.9903    1.9899    2.0545 C   0  0  0  0  0  0  0  0  0  0  0  0
    2.0028    1.3428    0.6558 C   0  0  0  0  0  0  0  0  0  0  0  0
    0.7260    0.7435    0.3136 N   0  0  0  0  0  0  0  0  0  0  0  0
   -0.3472    1.5360    0.0023 C   0  0  0  0  0  0  0  0  0  0  0  0
   -0.2893    2.7601    0.0807 O   0  0  0  0  0  0  0  0  0  0  0  0
   -1.4947    0.8484   -0.3628 N   0  0  0  0  0  0  0  0  0  0  0  0
   -1.6314   -0.6083   -0.3027 C   0  0  0  0  0  0  0  0  0  0  0  0
   -2.9713   -1.0999   -0.8353 C   0  0  0  0  0  0  0  0  0  0  0  0
   -4.1519   -0.4180   -0.1222 C   0  0  0  0  0  0  0  0  0  0  0  0
   -5.3978   -0.5423   -0.9640 C   0  0  0  0  0  0  0  0  0  0  0  0
   -5.5774    0.0748   -2.1145 N   0  0  0  0  0  0  0  0  0  0  0  0
   -6.8223   -0.2383   -2.6228 C   0  0  0  0  0  0  0  0  0  0  0  0
   -7.5797   -1.0953   -1.8552 C   0  0  0  0  0  0  0  0  0  0  0  0
   -6.7090   -1.5312   -0.4454 S   0  0  0  0  0  0  0  0  0  0  0  0
   -3.8681    1.0593    0.2110 C   0  0  0  0  0  0  0  0  0  0  0  0
   -2.7166    1.6129   -0.6199 C   0  0  0  0  0  0  0  0  0  0  0  0
    3.0350    0.2637    0.5860 C   0  0  0  0  0  0  0  0  0  0  0  0
    3.1189   -0.7582   -0.2433 N   0  0  0  0  0  0  0  0  0  0  0  0
    6.5368   -1.7082   -1.4008 H   0  0  0  0  0  0  0  0  0  0  0  0
    6.0082   -3.2104   -2.1814 H   0  0  0  0  0  0  0  0  0  0  0  0
    5.1112   -1.7047   -2.4515 H   0  0  0  0  0  0  0  0  0  0  0  0
    3.9290   -3.2246   -0.8384 H   0  0  0  0  0  0  0  0  0  0  0  0
    5.3446   -3.2238    0.2056 H   0  0  0  0  0  0  0  0  0  0  0  0
    4.0560    0.5128    3.4767 H   0  0  0  0  0  0  0  0  0  0  0  0
    5.3540    1.3757    2.6134 H   0  0  0  0  0  0  0  0  0  0  0  0
    3.8452    3.0587    1.7944 H   0  0  0  0  0  0  0  0  0  0  0  0
    3.3881    2.8396    3.4825 H   0  0  0  0  0  0  0  0  0  0  0  0
    1.5387    1.3068    2.7860 H   0  0  0  0  0  0  0  0  0  0  0  0
    1.3731    2.8950    2.0514 H   0  0  0  0  0  0  0  0  0  0  0  0
    2.2426    2.1016   -0.0999 H   0  0  0  0  0  0  0  0  0  0  0  0
    0.8224   -0.0795   -0.2644 H   0  0  0  0  0  0  0  0  0  0  0  0
   -0.8247   -1.0669   -0.8834 H   0  0  0  0  0  0  0  0  0  0  0  0
   -1.5032   -0.9100    0.7436 H   0  0  0  0  0  0  0  0  0  0  0  0
   -3.0095   -0.9067   -1.9161 H   0  0  0  0  0  0  0  0  0  0  0  0
   -3.0440   -2.1883   -0.7201 H   0  0  0  0  0  0  0  0  0  0  0  0
   -4.3148   -0.9352    0.8337 H   0  0  0  0  0  0  0  0  0  0  0  0
   -7.1315    0.1916   -3.5676 H   0  0  0  0  0  0  0  0  0  0  0  0
   -8.5735   -1.4735   -2.0476 H   0  0  0  0  0  0  0  0  0  0  0  0
   -4.7593    1.6854    0.0849 H   0  0  0  0  0  0  0  0  0  0  0  0
   -3.5906    1.1268    1.2712 H   0  0  0  0  0  0  0  0  0  0  0  0
   -2.5754    2.6731   -0.3871 H   0  0  0  0  0  0  0  0  0  0  0  0
   -2.9340    1.5443   -1.6920 H   0  0  0  0  0  0  0  0  0  0  0  0
  1  2  1  0
  2  3  1  0
  3  4  2  0
  4  5  1  0
  5  6  1  0
  6  7  1  0
  7  8  1  0
  8  9  1  0
  9 10  1  0
 10 11  1  0
 11 12  2  0
 11 13  1  0
 13 14  1  0
 14 15  1  0
 15 16  1  0
 16 17  1  0
 17 18  2  0
 18 19  1  0
 19 20  2  0
 20 21  1  0
 16 22  1  0
 22 23  1  0
  9 24  1  0
 24 25  2  0
 25  3  1  0
 24  5  1  0
 23 13  1  0
 21 17  1  0
  1 26  1  0
  1 27  1  0
  1 28  1  0
  2 29  1  0
  2 30  1  0
  6 31  1  0
  6 32  1  0
  7 33  1  0
  7 34  1  0
  8 35  1  0
  8 36  1  0
  9 37  1  0
 10 38  1  0
 14 39  1  0
 14 40  1  0
 15 41  1  0
 15 42  1  0
 16 43  1  0
 19 44  1  0
 20 45  1  0
 22 46  1  0
 22 47  1  0
 23 48  1  0
 23 49  1  0
M  END
$$$$
OCNT-2316657
     RDKit          3D

 46 49  0  0  0  0  0  0  0  0999 V2000
    6.6275    0.5838   -0.1389 C   0  0  0  0  0  0  0  0  0  0  0  0
    6.0739   -0.8149    0.1267 C   0  0  0  0  0  0  0  0  0  0  0  0
    6.2807   -1.7323   -1.0770 C   0  0  0  0  0  0  0  0  0  0  0  0
    4.6754   -0.7644    0.5193 N   0  0  0  0  0  0  0  0  0  0  0  0
    4.2692   -1.1851    1.7261 N   0  0  0  0  0  0  0  0  0  0  0  0
    2.9568   -0.9939    1.7224 N   0  0  0  0  0  0  0  0  0  0  0  0
    2.6404   -0.4629    0.5032 C   0  0  0  0  0  0  0  0  0  0  0  0
    1.3911   -0.1044    0.0885 N   0  0  0  0  0  0  0  0  0  0  0  0
    0.2424   -0.3233    0.7978 C   0  0  0  0  0  0  0  0  0  0  0  0
    0.1690   -0.9028    1.8760 O   0  0  0  0  0  0  0  0  0  0  0  0
   -0.8811    0.1730    0.1698 N   0  0  0  0  0  0  0  0  0  0  0  0
   -1.0204    1.3323   -0.7118 C   0  0  0  0  0  0  0  0  0  0  0  0
   -2.2943    1.6239    0.0341 C   0  0  0  0  0  0  0  0  0  0  0  0
   -2.3674    2.9225    0.8155 C   0  0  0  0  0  0  0  0  0  0  0  0
   -3.1909    3.4828   -0.3717 C   0  0  0  0  0  0  0  0  0  0  0  0
   -3.5189    2.0186   -0.7610 C   0  0  0  0  0  0  0  0  0  0  0  0
   -2.2169    0.3231    0.7926 C   0  0  0  0  0  0  0  0  0  0  0  0
   -3.2693   -0.8308    0.4894 C   0  0  0  0  0  0  0  0  0  0  0  0
   -4.3353   -1.0891    1.3762 C   0  0  0  0  0  0  0  0  0  0  0  0
   -5.2851   -2.0852    1.1305 C   0  0  0  0  0  0  0  0  0  0  0  0
   -5.1962   -2.8607   -0.0195 C   0  0  0  0  0  0  0  0  0  0  0  0
   -4.1586   -2.6403   -0.9179 C   0  0  0  0  0  0  0  0  0  0  0  0
   -3.2135   -1.6415   -0.6635 C   0  0  0  0  0  0  0  0  0  0  0  0
    3.7056   -0.2925   -0.2907 N   0  0  0  0  0  0  0  0  0  0  0  0
    7.7004    0.5414   -0.3542 H   0  0  0  0  0  0  0  0  0  0  0  0
    6.4831    1.2326    0.7321 H   0  0  0  0  0  0  0  0  0  0  0  0
    6.1307    1.0589   -0.9922 H   0  0  0  0  0  0  0  0  0  0  0  0
    6.6195   -1.2415    0.9781 H   0  0  0  0  0  0  0  0  0  0  0  0
    5.8887   -2.7353   -0.8751 H   0  0  0  0  0  0  0  0  0  0  0  0
    7.3457   -1.8273   -1.3133 H   0  0  0  0  0  0  0  0  0  0  0  0
    5.7702   -1.3501   -1.9680 H   0  0  0  0  0  0  0  0  0  0  0  0
    1.3424    0.2406   -0.8528 H   0  0  0  0  0  0  0  0  0  0  0  0
   -1.1263    1.0364   -1.7594 H   0  0  0  0  0  0  0  0  0  0  0  0
   -0.2216    2.0719   -0.6099 H   0  0  0  0  0  0  0  0  0  0  0  0
   -1.4252    3.4382    1.0190 H   0  0  0  0  0  0  0  0  0  0  0  0
   -2.9425    2.8578    1.7467 H   0  0  0  0  0  0  0  0  0  0  0  0
   -4.0477    4.1055   -0.1025 H   0  0  0  0  0  0  0  0  0  0  0  0
   -2.5846    4.0107   -1.1170 H   0  0  0  0  0  0  0  0  0  0  0  0
   -3.5062    1.8050   -1.8331 H   0  0  0  0  0  0  0  0  0  0  0  0
   -4.4717    1.6741   -0.3434 H   0  0  0  0  0  0  0  0  0  0  0  0
   -2.1132    0.4791    1.8768 H   0  0  0  0  0  0  0  0  0  0  0  0
   -4.4220   -0.4978    2.2865 H   0  0  0  0  0  0  0  0  0  0  0  0
   -6.0888   -2.2553    1.8420 H   0  0  0  0  0  0  0  0  0  0  0  0
   -5.9295   -3.6389   -0.2117 H   0  0  0  0  0  0  0  0  0  0  0  0
   -4.0775   -3.2472   -1.8156 H   0  0  0  0  0  0  0  0  0  0  0  0
   -2.4081   -1.4948   -1.3802 H   0  0  0  0  0  0  0  0  0  0  0  0
  1  2  1  0
  2  3  1  0
  2  4  1  0
  4  5  1  0
  5  6  2  0
  6  7  1  0
  7  8  1  0
  8  9  1  0
  9 10  2  0
  9 11  1  0
 11 12  1  0
 12 13  1  0
 13 14  1  0
 14 15  1  0
 15 16  1  0
 13 17  1  0
 17 18  1  0
 18 19  2  0
 19 20  1  0
 20 21  2  0
 21 22  1  0
 22 23  2  0
  7 24  2  0
 24  4  1  0
 17 11  1  0
 23 18  1  0
 16 13  1  0
  1 25  1  0
  1 26  1  0
  1 27  1  0
  2 28  1  0
  3 29  1  0
  3 30  1  0
  3 31  1  0
  8 32  1  0
 12 33  1  0
 12 34  1  0
 14 35  1  0
 14 36  1  0
 15 37  1  0
 15 38  1  0
 16 39  1  0
 16 40  1  0
 17 41  1  0
 19 42  1  0
 20 43  1  0
 21 44  1  0
 22 45  1  0
 23 46  1  0
M  END
$$$$
OCNT-2316664
     RDKit          3D

 45 48  0  0  0  0  0  0  0  0999 V2000
    5.2215    2.7288    0.8291 C   0  0  0  0  0  0  0  0  0  0  0  0
    4.7917    1.3318    1.1738 C   0  0  0  0  0  0  0  0  0  0  0  0
    5.5363    0.5515    2.0545 C   0  0  0  0  0  0  0  0  0  0  0  0
    5.1113   -0.7348    2.3568 C   0  0  0  0  0  0  0  0  0  0  0  0
    3.9344   -1.2423    1.7905 C   0  0  0  0  0  0  0  0  0  0  0  0
    3.1360   -0.4809    0.9144 C   0  0  0  0  0  0  0  0  0  0  0  0
    1.9185   -1.0351    0.3277 N   0  0  0  0  0  0  0  0  0  0  0  0
    1.6833   -2.4721    0.5465 C   0  0  0  0  0  0  0  0  0  0  0  0
    0.3703   -3.0308    0.0321 C   0  0  0  0  0  0  0  0  0  0  0  0
    0.0851   -2.4847   -1.3461 C   0  0  0  0  0  0  0  0  0  0  0  0
   -0.0017   -0.9650   -1.3075 C   0  0  0  0  0  0  0  0  0  0  0  0
   -1.3378   -0.4710   -0.9981 N   0  0  0  0  0  0  0  0  0  0  0  0
   -2.1113    0.3658   -1.7526 C   0  0  0  0  0  0  0  0  0  0  0  0
   -3.2792    0.4660   -1.0376 C   0  0  0  0  0  0  0  0  0  0  0  0
   -4.5141    1.3007   -1.4226 C   0  0  0  0  0  0  0  0  0  0  0  0
   -4.6836    2.0966   -2.5335 C   0  0  0  0  0  0  0  0  0  0  0  0
   -5.9277    2.6776   -2.5353 N   0  0  0  0  0  0  0  0  0  0  0  0
   -6.5069    2.2493   -1.4355 C   0  0  0  0  0  0  0  0  0  0  0  0
   -5.6883    1.4147   -0.7274 N   0  0  0  0  0  0  0  0  0  0  0  0
   -6.0197    0.7796    0.5229 C   0  0  0  0  0  0  0  0  0  0  0  0
   -3.1931   -0.3040    0.0879 N   0  0  0  0  0  0  0  0  0  0  0  0
   -1.9978   -0.8778    0.1037 N   0  0  0  0  0  0  0  0  0  0  0  0
    1.0324   -0.2547   -0.4362 C   0  0  0  0  0  0  0  0  0  0  0  0
    1.0452    0.9800   -0.4809 O   0  0  0  0  0  0  0  0  0  0  0  0
    3.6069    0.8095    0.6162 C   0  0  0  0  0  0  0  0  0  0  0  0
    5.2648    2.8555   -0.2578 H   0  0  0  0  0  0  0  0  0  0  0  0
    4.5158    3.4526    1.2489 H   0  0  0  0  0  0  0  0  0  0  0  0
    6.2161    2.9524    1.2284 H   0  0  0  0  0  0  0  0  0  0  0  0
    6.4477    0.9365    2.5047 H   0  0  0  0  0  0  0  0  0  0  0  0
    5.6926   -1.3507    3.0390 H   0  0  0  0  0  0  0  0  0  0  0  0
    3.6745   -2.2549    2.0794 H   0  0  0  0  0  0  0  0  0  0  0  0
    1.7036   -2.6747    1.6232 H   0  0  0  0  0  0  0  0  0  0  0  0
    2.5102   -3.0118    0.0678 H   0  0  0  0  0  0  0  0  0  0  0  0
   -0.4356   -2.7818    0.7292 H   0  0  0  0  0  0  0  0  0  0  0  0
    0.4231   -4.1252    0.0036 H   0  0  0  0  0  0  0  0  0  0  0  0
   -0.8351   -2.9254   -1.7471 H   0  0  0  0  0  0  0  0  0  0  0  0
    0.8984   -2.7838   -2.0200 H   0  0  0  0  0  0  0  0  0  0  0  0
    0.1984   -0.6222   -2.3330 H   0  0  0  0  0  0  0  0  0  0  0  0
   -1.7716    0.8049   -2.6778 H   0  0  0  0  0  0  0  0  0  0  0  0
   -3.9820    2.2847   -3.3350 H   0  0  0  0  0  0  0  0  0  0  0  0
   -7.5050    2.5118   -1.1092 H   0  0  0  0  0  0  0  0  0  0  0  0
   -5.9734   -0.3039    0.3873 H   0  0  0  0  0  0  0  0  0  0  0  0
   -5.3076    1.1104    1.2830 H   0  0  0  0  0  0  0  0  0  0  0  0
   -7.0313    1.0666    0.8216 H   0  0  0  0  0  0  0  0  0  0  0  0
    3.0848    1.4606   -0.0770 H   0  0  0  0  0  0  0  0  0  0  0  0
  1  2  1  0
  2  3  2  0
  3  4  1  0
  4  5  2  0
  5  6  1  0
  6  7  1  0
  7  8  1  0
  8  9  1  0
  9 10  1  0
 10 11  1  0
 11 12  1  0
 12 13  1  0
 13 14  2  0
 14 15  1  0
 15 16  2  0
 16 17  1  0
 17 18  2  0
 18 19  1  0
 19 20  1  0
 14 21  1  0
 21 22  2  0
 11 23  1  0
 23 24  2  0
  6 25  2  0
 25  2  1  0
 23  7  1  0
 22 12  1  0
 19 15  1  0
  1 26  1  0
  1 27  1  0
  1 28  1  0
  3 29  1  0
  4 30  1  0
  5 31  1  0
  8 32  1  0
  8 33  1  0
  9 34  1  0
  9 35  1  0
 10 36  1  0
 10 37  1  0
 11 38  1  0
 13 39  1  0
 16 40  1  0
 18 41  1  0
 20 42  1  0
 20 43  1  0
 20 44  1  0
 25 45  1  0
M  END
$$$$
OCNT-2316676
     RDKit          3D

 44 47  0  0  0  0  0  0  0  0999 V2000
   -5.9039   -2.3370   -0.0332 C   0  0  0  0  0  0  0  0  0  0  0  0
   -5.8737   -1.1492    0.9212 C   0  0  0  0  0  0  0  0  0  0  0  0
   -4.9472   -0.0033    0.4946 C   0  0  0  0  0  0  0  0  0  0  0  0
   -3.4584   -0.3666    0.5676 C   0  0  0  0  0  0  0  0  0  0  0  0
   -2.6128    0.5076   -0.3729 C   0  0  0  0  0  0  0  0  0  0  0  0
   -1.2235    0.6673    0.1338 C   0  0  0  0  0  0  0  0  0  0  0  0
   -0.0979    0.2186   -0.3700 N   0  0  0  0  0  0  0  0  0  0  0  0
    0.8405    0.6791    0.5306 C   0  0  0  0  0  0  0  0  0  0  0  0
    2.2667    0.4129    0.3726 C   0  0  0  0  0  0  0  0  0  0  0  0
    3.2023    0.8921    1.2978 C   0  0  0  0  0  0  0  0  0  0  0  0
    4.5705    0.6321    1.1388 C   0  0  0  0  0  0  0  0  0  0  0  0
    5.0307   -0.1159    0.0460 C   0  0  0  0  0  0  0  0  0  0  0  0
    6.4225   -0.3809   -0.1167 N   0  0  0  0  0  0  0  0  0  0  0  0
    7.4553    0.0215    0.7051 C   0  0  0  0  0  0  0  0  0  0  0  0
    8.6098   -0.4696    0.1431 C   0  0  0  0  0  0  0  0  0  0  0  0
    8.3351   -1.1628   -0.9981 N   0  0  0  0  0  0  0  0  0  0  0  0
    7.0281   -1.0953   -1.1303 C   0  0  0  0  0  0  0  0  0  0  0  0
    4.0973   -0.5976   -0.8825 C   0  0  0  0  0  0  0  0  0  0  0  0
    2.7307   -0.3338   -0.7173 C   0  0  0  0  0  0  0  0  0  0  0  0
    0.3147    1.3838    1.5470 N   0  0  0  0  0  0  0  0  0  0  0  0
   -1.0523    1.3768    1.2856 O   0  0  0  0  0  0  0  0  0  0  0  0
   -3.2867    1.8562   -0.6176 C   0  0  0  0  0  0  0  0  0  0  0  0
   -4.6869    1.6584   -1.1921 C   0  0  0  0  0  0  0  0  0  0  0  0
   -5.2723    0.4063   -0.8326 O   0  0  0  0  0  0  0  0  0  0  0  0
   -6.1994   -2.0324   -1.0418 H   0  0  0  0  0  0  0  0  0  0  0  0
   -4.9327   -2.8351   -0.0933 H   0  0  0  0  0  0  0  0  0  0  0  0
   -6.6317   -3.0763    0.3174 H   0  0  0  0  0  0  0  0  0  0  0  0
   -5.6010   -1.4926    1.9257 H   0  0  0  0  0  0  0  0  0  0  0  0
   -6.8968   -0.7571    0.9824 H   0  0  0  0  0  0  0  0  0  0  0  0
   -5.1441    0.8383    1.1732 H   0  0  0  0  0  0  0  0  0  0  0  0
   -3.1327   -0.2865    1.6128 H   0  0  0  0  0  0  0  0  0  0  0  0
   -3.2868   -1.4127    0.2891 H   0  0  0  0  0  0  0  0  0  0  0  0
   -2.5489   -0.0085   -1.3416 H   0  0  0  0  0  0  0  0  0  0  0  0
    2.8771    1.4763    2.1576 H   0  0  0  0  0  0  0  0  0  0  0  0
    5.2422    1.0327    1.8921 H   0  0  0  0  0  0  0  0  0  0  0  0
    7.3100    0.6065    1.5994 H   0  0  0  0  0  0  0  0  0  0  0  0
    9.6238   -0.3572    0.5051 H   0  0  0  0  0  0  0  0  0  0  0  0
    6.4827   -1.5495   -1.9446 H   0  0  0  0  0  0  0  0  0  0  0  0
    4.3856   -1.1829   -1.7506 H   0  0  0  0  0  0  0  0  0  0  0  0
    2.0272   -0.7204   -1.4539 H   0  0  0  0  0  0  0  0  0  0  0  0
   -2.6950    2.4944   -1.2851 H   0  0  0  0  0  0  0  0  0  0  0  0
   -3.3667    2.4073    0.3294 H   0  0  0  0  0  0  0  0  0  0  0  0
   -4.6495    1.6872   -2.2862 H   0  0  0  0  0  0  0  0  0  0  0  0
   -5.3518    2.4678   -0.8707 H   0  0  0  0  0  0  0  0  0  0  0  0
  1  2  1  0
  2  3  1  0
  3  4  1  0
  4  5  1  0
  5  6  1  0
  6  7  2  0
  7  8  1  0
  8  9  1  0
  9 10  1  0
 10 11  2  0
 11 12  1  0
 12 13  1  0
 13 14  1  0
 14 15  2  0
 15 16  1  0
 16 17  2  0
 12 18  2  0
 18 19  1  0
  8 20  2  0
 20 21  1  0
  5 22  1  0
 22 23  1  0
 23 24  1  0
 24  3  1  0
 21  6  1  0
 19  9  2  0
 17 13  1  0
  1 25  1  0
  1 26  1  0
  1 27  1  0
  2 28  1  0
  2 29  1  0
  3 30  1  0
  4 31  1  0
  4 32  1  0
  5 33  1  0
 10 34  1  0
 11 35  1  0
 14 36  1  0
 15 37  1  0
 17 38  1  0
 18 39  1  0
 19 40  1  0
 22 41  1  0
 22 42  1  0
 23 43  1  0
 23 44  1  0
M  END
$$$$
OCNT-2316682
     RDKit          3D

  0  0  0  0  0  0  0  0  0  0999 V3000
M  V30 BEGIN CTAB
M  V30 COUNTS 44 46 0 0 0
M  V30 BEGIN ATOM
M  V30 1 C 4.786723 -4.060880 -0.704952 0
M  V30 2 N 4.032533 -2.844138 -0.549717 0
M  V30 3 C 3.264733 -2.247537 -1.505600 0
M  V30 4 N 2.695325 -1.154508 -1.049606 0
M  V30 5 C 3.115052 -1.040536 0.264077 0
M  V30 6 C 2.636101 0.078672 1.121418 0
M  V30 7 N 1.195805 0.123779 1.036140 0
M  V30 8 C 0.462937 1.007723 1.786384 0
M  V30 9 O 0.967890 1.715848 2.652332 0
M  V30 10 C -1.018774 1.008838 1.460440 0 CFG=1
M  V30 11 C -1.808343 1.928277 2.387138 0
M  V30 12 N -3.004696 2.223557 1.590666 0
M  V30 13 C -3.791606 3.311765 2.155757 0
M  V30 14 C -2.485710 2.542891 0.253230 0
M  V30 15 C -1.307692 1.567868 0.050891 0 CFG=2
M  V30 16 C -1.587117 0.475448 -0.966266 0
M  V30 17 C -0.677918 0.243757 -2.008983 0
M  V30 18 C -0.908507 -0.766783 -2.943003 0
M  V30 19 C -2.050391 -1.558822 -2.848335 0
M  V30 20 C -2.960891 -1.342975 -1.817330 0
M  V30 21 C -2.730476 -0.334604 -0.880960 0
M  V30 22 C 3.955137 -2.087783 0.584963 0
M  V30 23 H 4.208188 -4.878155 -0.266735 0
M  V30 24 H 5.743223 -3.952124 -0.187126 0
M  V30 25 H 4.963718 -4.248856 -1.766476 0
M  V30 26 H 3.149775 -2.646861 -2.504661 0
M  V30 27 H 2.929052 -0.054822 2.167821 0
M  V30 28 H 3.035752 1.034086 0.765539 0
M  V30 29 H 0.782624 -0.332797 0.228430 0
M  V30 30 H -1.386633 -0.019771 1.577597 0
M  V30 31 H -2.063502 1.423247 3.324220 0
M  V30 32 H -1.252986 2.844525 2.627811 0
M  V30 33 H -4.664128 3.516455 1.527311 0
M  V30 34 H -3.216276 4.238584 2.256129 0
M  V30 35 H -4.169816 3.031598 3.145205 0
M  V30 36 H -3.264259 2.459073 -0.512967 0
M  V30 37 H -2.098758 3.570606 0.224637 0
M  V30 38 H -0.451942 2.159498 -0.302723 0
M  V30 39 H 0.228009 0.841059 -2.100501 0
M  V30 40 H -0.190392 -0.936959 -3.741149 0
M  V30 41 H -2.229224 -2.344530 -3.576428 0
M  V30 42 H -3.851247 -1.961125 -1.738155 0
M  V30 43 H -3.451695 -0.185673 -0.078853 0
M  V30 44 H 4.470399 -2.346918 1.499386 0
M  V30 END ATOM
M  V30 BEGIN BOND
M  V30 1 1 1 2
M  V30 2 1 2 3
M  V30 3 2 3 4
M  V30 4 1 4 5
M  V30 5 1 5 6
M  V30 6 1 6 7
M  V30 7 1 7 8
M  V30 8 2 8 9
M  V30 9 1 8 10
M  V30 10 1 10 11
M  V30 11 1 11 12
M  V30 12 1 12 13
M  V30 13 1 12 14
M  V30 14 1 14 15
M  V30 15 1 15 16
M  V30 16 2 16 17
M  V30 17 1 17 18
M  V30 18 2 18 19
M  V30 19 1 19 20
M  V30 20 2 20 21
M  V30 21 2 5 22
M  V30 22 1 22 2
M  V30 23 1 15 10
M  V30 24 1 21 16
M  V30 25 1 1 23
M  V30 26 1 1 24
M  V30 27 1 1 25
M  V30 28 1 3 26
M  V30 29 1 6 27
M  V30 30 1 6 28
M  V30 31 1 7 29
M  V30 32 1 10 30 CFG=3
M  V30 33 1 11 31
M  V30 34 1 11 32
M  V30 35 1 13 33
M  V30 36 1 13 34
M  V30 37 1 13 35
M  V30 38 1 14 36
M  V30 39 1 14 37
M  V30 40 1 15 38 CFG=3
M  V30 41 1 17 39
M  V30 42 1 18 40
M  V30 43 1 19 41
M  V30 44 1 20 42
M  V30 45 1 21 43
M  V30 46 1 22 44
M  V30 END BOND
M  V30 BEGIN COLLECTION
M  V30 MDLV30/STERAC1 ATOMS=(2 10 15)
M  V30 END COLLECTION
M  V30 END CTAB
M  END
>  <_CXSMILES_Data>  (1128) 
|&1:9,14|

$$$$
OCNT-2316696
     RDKit          3D

 48 51  0  0  0  0  0  0  0  0999 V2000
    4.0592    0.0334   -3.8155 C   0  0  0  0  0  0  0  0  0  0  0  0
    3.0969    0.3898   -2.8306 O   0  0  0  0  0  0  0  0  0  0  0  0
    3.3721    0.0290   -1.5405 C   0  0  0  0  0  0  0  0  0  0  0  0
    4.5203   -0.6151   -1.0969 C   0  0  0  0  0  0  0  0  0  0  0  0
    4.6709   -0.8944    0.2609 C   0  0  0  0  0  0  0  0  0  0  0  0
    3.6796   -0.5352    1.1817 C   0  0  0  0  0  0  0  0  0  0  0  0
    4.0003   -0.8128    2.4849 O   0  0  0  0  0  0  0  0  0  0  0  0
    3.7733    0.3025    3.3437 C   0  0  0  0  0  0  0  0  0  0  0  0
    2.4135    0.1802    4.0047 C   0  0  0  0  0  0  0  0  0  0  0  0
    1.3248   -0.3220    3.0591 C   0  0  0  0  0  0  0  0  0  0  0  0
    1.3079    0.3871    1.6900 C   0  0  0  0  0  0  0  0  0  0  0  0
    0.0049    0.0061    1.1106 N   0  0  0  0  0  0  0  0  0  0  0  0
   -0.8185    1.1559    0.7557 C   0  0  0  0  0  0  0  0  0  0  0  0
   -2.1030    0.7074    0.0988 C   0  0  0  0  0  0  0  0  0  0  0  0
   -2.3287    0.9373   -1.2640 C   0  0  0  0  0  0  0  0  0  0  0  0
   -3.5145    0.5107   -1.8683 C   0  0  0  0  0  0  0  0  0  0  0  0
   -4.4906   -0.1608   -1.1184 C   0  0  0  0  0  0  0  0  0  0  0  0
   -5.6834   -0.5910   -1.7544 N   0  0  0  0  0  0  0  0  0  0  0  0
   -6.7544   -1.2675   -1.2198 C   0  0  0  0  0  0  0  0  0  0  0  0
   -7.6709   -1.4836   -2.1364 N   0  0  0  0  0  0  0  0  0  0  0  0
   -7.1200   -0.9185   -3.2441 C   0  0  0  0  0  0  0  0  0  0  0  0
   -5.9210   -0.3628   -3.0721 N   0  0  0  0  0  0  0  0  0  0  0  0
   -4.2689   -0.3995    0.2436 C   0  0  0  0  0  0  0  0  0  0  0  0
   -3.0816    0.0331    0.8431 C   0  0  0  0  0  0  0  0  0  0  0  0
    2.4740    0.0474    0.7583 C   0  0  0  0  0  0  0  0  0  0  0  0
    2.3716    0.3581   -0.6170 C   0  0  0  0  0  0  0  0  0  0  0  0
    3.6867    0.3762   -4.7859 H   0  0  0  0  0  0  0  0  0  0  0  0
    4.1843   -1.0535   -3.8707 H   0  0  0  0  0  0  0  0  0  0  0  0
    5.0162    0.5330   -3.6317 H   0  0  0  0  0  0  0  0  0  0  0  0
    5.3205   -0.9003   -1.7702 H   0  0  0  0  0  0  0  0  0  0  0  0
    5.5793   -1.3777    0.6132 H   0  0  0  0  0  0  0  0  0  0  0  0
    3.8830    1.2608    2.8168 H   0  0  0  0  0  0  0  0  0  0  0  0
    4.5535    0.2910    4.1136 H   0  0  0  0  0  0  0  0  0  0  0  0
    2.4802   -0.5258    4.8416 H   0  0  0  0  0  0  0  0  0  0  0  0
    2.1323    1.1483    4.4354 H   0  0  0  0  0  0  0  0  0  0  0  0
    1.4301   -1.4077    2.9226 H   0  0  0  0  0  0  0  0  0  0  0  0
    0.3650   -0.1747    3.5746 H   0  0  0  0  0  0  0  0  0  0  0  0
    1.3509    1.4704    1.8696 H   0  0  0  0  0  0  0  0  0  0  0  0
    0.1358   -0.6024    0.3036 H   0  0  0  0  0  0  0  0  0  0  0  0
   -1.0738    1.7326    1.6536 H   0  0  0  0  0  0  0  0  0  0  0  0
   -0.2822    1.8367    0.0849 H   0  0  0  0  0  0  0  0  0  0  0  0
   -1.5825    1.4476   -1.8689 H   0  0  0  0  0  0  0  0  0  0  0  0
   -3.6590    0.7055   -2.9292 H   0  0  0  0  0  0  0  0  0  0  0  0
   -6.8172   -1.5718   -0.1870 H   0  0  0  0  0  0  0  0  0  0  0  0
   -7.6085   -0.9101   -4.2103 H   0  0  0  0  0  0  0  0  0  0  0  0
   -4.9861   -0.9209    0.8692 H   0  0  0  0  0  0  0  0  0  0  0  0
   -2.9092   -0.1686    1.8991 H   0  0  0  0  0  0  0  0  0  0  0  0
    1.4869    0.8599   -1.0010 H   0  0  0  0  0  0  0  0  0  0  0  0
  1  2  1  0
  2  3  1  0
  3  4  1  0
  4  5  2  0
  5  6  1  0
  6  7  1  0
  7  8  1  0
  8  9  1  0
  9 10  1  0
 10 11  1  0
 11 12  1  0
 12 13  1  0
 13 14  1  0
 14 15  1  0
 15 16  2  0
 16 17  1  0
 17 18  1  0
 18 19  1  0
 19 20  2  0
 20 21  1  0
 21 22  2  0
 17 23  2  0
 23 24  1  0
 11 25  1  0
 25 26  1  0
 26  3  2  0
 25  6  2  0
 24 14  2  0
 22 18  1  0
  1 27  1  0
  1 28  1  0
  1 29  1  0
  4 30  1  0
  5 31  1  0
  8 32  1  0
  8 33  1  0
  9 34  1  0
  9 35  1  0
 10 36  1  0
 10 37  1  0
 11 38  1  0
 12 39  1  0
 13 40  1  0
 13 41  1  0
 15 42  1  0
 16 43  1  0
 19 44  1  0
 21 45  1  0
 23 46  1  0
 24 47  1  0
 26 48  1  0
M  END
$$$$
OCNT-2316701
     RDKit          3D

 34 36  0  0  0  0  0  0  0  0999 V2000
    6.8894    0.1955   -0.2123 C   0  0  0  0  0  0  0  0  0  0  0  0
    5.8901   -0.4132   -1.0200 O   0  0  0  0  0  0  0  0  0  0  0  0
    4.5903   -0.2870   -0.6133 C   0  0  0  0  0  0  0  0  0  0  0  0
    4.1600    0.3832    0.5288 C   0  0  0  0  0  0  0  0  0  0  0  0
    2.7968    0.4307    0.8203 C   0  0  0  0  0  0  0  0  0  0  0  0
    2.3966    1.0784    1.9269 F   0  0  0  0  0  0  0  0  0  0  0  0
    1.8347   -0.1741   -0.0014 C   0  0  0  0  0  0  0  0  0  0  0  0
    0.4836   -0.0609    0.4022 N   0  0  0  0  0  0  0  0  0  0  0  0
   -0.6289   -0.5076   -0.2837 C   0  0  0  0  0  0  0  0  0  0  0  0
   -0.6404   -1.0221   -1.3950 O   0  0  0  0  0  0  0  0  0  0  0  0
   -1.9315   -0.2940    0.3925 C   0  0  0  0  0  0  0  0  0  0  0  0
   -2.0715   -0.3885    1.7757 C   0  0  0  0  0  0  0  0  0  0  0  0
   -3.2207   -0.2044    2.4713 N   0  0  0  0  0  0  0  0  0  0  0  0
   -4.2781    0.0618    1.6775 C   0  0  0  0  0  0  0  0  0  0  0  0
   -5.5422    0.2807    2.1349 O   0  0  0  0  0  0  0  0  0  0  0  0
   -6.3941    0.5190    1.0648 N   0  0  0  0  0  0  0  0  0  0  0  0
   -5.6297    0.4376   -0.0324 C   0  0  0  0  0  0  0  0  0  0  0  0
   -6.2228    0.6384   -1.3743 C   0  0  0  0  0  0  0  0  0  0  0  0
   -4.2803    0.1567    0.2930 C   0  0  0  0  0  0  0  0  0  0  0  0
   -3.0665   -0.0311   -0.3857 C   0  0  0  0  0  0  0  0  0  0  0  0
    2.2675   -0.8466   -1.1399 C   0  0  0  0  0  0  0  0  0  0  0  0
    3.6321   -0.8960   -1.4347 C   0  0  0  0  0  0  0  0  0  0  0  0
    4.0207   -1.5515   -2.5393 F   0  0  0  0  0  0  0  0  0  0  0  0
    6.9072   -0.2439    0.7905 H   0  0  0  0  0  0  0  0  0  0  0  0
    7.8604    0.0021   -0.6784 H   0  0  0  0  0  0  0  0  0  0  0  0
    6.7518    1.2808   -0.1659 H   0  0  0  0  0  0  0  0  0  0  0  0
    4.8428    0.8753    1.2108 H   0  0  0  0  0  0  0  0  0  0  0  0
    0.3514    0.4775    1.2532 H   0  0  0  0  0  0  0  0  0  0  0  0
   -1.2257   -0.6483    2.4092 H   0  0  0  0  0  0  0  0  0  0  0  0
   -5.7934    1.5254   -1.8510 H   0  0  0  0  0  0  0  0  0  0  0  0
   -6.0232   -0.2274   -2.0138 H   0  0  0  0  0  0  0  0  0  0  0  0
   -7.3079    0.7745   -1.3209 H   0  0  0  0  0  0  0  0  0  0  0  0
   -3.0057    0.0247   -1.4689 H   0  0  0  0  0  0  0  0  0  0  0  0
    1.5872   -1.3459   -1.8203 H   0  0  0  0  0  0  0  0  0  0  0  0
  1  2  1  0
  2  3  1  0
  3  4  1  0
  4  5  2  0
  5  6  1  0
  5  7  1  0
  7  8  1  0
  8  9  1  0
  9 10  2  0
  9 11  1  0
 11 12  2  0
 12 13  1  0
 13 14  2  0
 14 15  1  0
 15 16  1  0
 16 17  2  0
 17 18  1  0
 17 19  1  0
 19 20  2  0
  7 21  2  0
 21 22  1  0
 22 23  1  0
 22  3  2  0
 20 11  1  0
 19 14  1  0
  1 24  1  0
  1 25  1  0
  1 26  1  0
  4 27  1  0
  8 28  1  0
 12 29  1  0
 18 30  1  0
 18 31  1  0
 18 32  1  0
 20 33  1  0
 21 34  1  0
M  END
$$$$
OCNT-2316720
     RDKit          3D

 56 59  0  0  0  0  0  0  0  0999 V2000
   -0.4931   -0.8655    2.9822 O   0  0  0  0  0  0  0  0  0  0  0  0
   -0.2732   -0.3320    1.9024 C   0  0  0  0  0  0  0  0  0  0  0  0
   -1.1709    0.5207    1.2910 N   0  0  0  0  0  0  0  0  0  0  0  0
   -2.4946    0.6943    1.8665 C   0  0  0  0  0  0  0  0  0  0  0  0
   -3.4213    1.4572    0.9034 C   0  0  0  0  0  0  0  0  0  0  0  0
   -3.3742    0.9371   -0.4851 N   0  0  0  0  0  0  0  0  0  0  0  0
   -3.8763   -0.4442   -0.6230 C   0  0  0  0  0  0  0  0  0  0  0  0
   -5.3611   -0.6203   -0.2761 C   0  0  0  0  0  0  0  0  0  0  0  0
   -6.2255    0.4746   -0.8531 C   0  0  0  0  0  0  0  0  0  0  0  0
   -7.6191    0.3415   -0.8458 C   0  0  0  0  0  0  0  0  0  0  0  0
   -8.4288    1.3683   -1.3412 C   0  0  0  0  0  0  0  0  0  0  0  0
   -7.8534    2.5267   -1.8479 C   0  0  0  0  0  0  0  0  0  0  0  0
   -6.4672    2.6704   -1.8505 C   0  0  0  0  0  0  0  0  0  0  0  0
   -5.6402    1.6575   -1.3424 C   0  0  0  0  0  0  0  0  0  0  0  0
   -4.1351    1.8139   -1.4015 C   0  0  0  0  0  0  0  0  0  0  0  0
    0.8594   -0.4660    1.1318 N   0  0  0  0  0  0  0  0  0  0  0  0
    1.9055   -1.3928    1.3096 C   0  0  0  0  0  0  0  0  0  0  0  0
    1.8042   -2.5149    2.1419 C   0  0  0  0  0  0  0  0  0  0  0  0
    2.8527   -3.4362    2.2266 C   0  0  0  0  0  0  0  0  0  0  0  0
    4.0203   -3.2370    1.4918 C   0  0  0  0  0  0  0  0  0  0  0  0
    4.1386   -2.1068    0.6762 C   0  0  0  0  0  0  0  0  0  0  0  0
    5.3997   -1.9019   -0.0838 C   0  0  0  0  0  0  0  0  0  0  0  0
    5.9274   -2.8707   -0.6205 O   0  0  0  0  0  0  0  0  0  0  0  0
    5.8634   -0.6058   -0.0685 N   0  0  0  0  0  0  0  0  0  0  0  0
    7.0045   -0.0911   -0.6829 C   0  0  0  0  0  0  0  0  0  0  0  0
    7.8451   -0.8241   -1.5144 C   0  0  0  0  0  0  0  0  0  0  0  0
    8.9657   -0.1976   -2.0647 C   0  0  0  0  0  0  0  0  0  0  0  0
    9.2087    1.1380   -1.7707 C   0  0  0  0  0  0  0  0  0  0  0  0
   10.5753    1.9466   -2.4189 Cl  0  0  0  0  0  0  0  0  0  0  0  0
    8.3186    1.7957   -0.9383 C   0  0  0  0  0  0  0  0  0  0  0  0
    7.2227    1.2130   -0.3929 N   0  0  0  0  0  0  0  0  0  0  0  0
    3.0774   -1.1956    0.5694 C   0  0  0  0  0  0  0  0  0  0  0  0
   -1.1955    0.4456    0.2820 H   0  0  0  0  0  0  0  0  0  0  0  0
   -2.9106   -0.2926    2.1021 H   0  0  0  0  0  0  0  0  0  0  0  0
   -2.3848    1.2433    2.8052 H   0  0  0  0  0  0  0  0  0  0  0  0
   -3.0718    2.4978    0.8855 H   0  0  0  0  0  0  0  0  0  0  0  0
   -4.4364    1.4713    1.3139 H   0  0  0  0  0  0  0  0  0  0  0  0
   -3.7173   -0.7582   -1.6643 H   0  0  0  0  0  0  0  0  0  0  0  0
   -3.2744   -1.1425   -0.0276 H   0  0  0  0  0  0  0  0  0  0  0  0
   -5.6972   -1.5940   -0.6527 H   0  0  0  0  0  0  0  0  0  0  0  0
   -5.4892   -0.6214    0.8135 H   0  0  0  0  0  0  0  0  0  0  0  0
   -8.0848   -0.5663   -0.4523 H   0  0  0  0  0  0  0  0  0  0  0  0
   -9.5093    1.2575   -1.3339 H   0  0  0  0  0  0  0  0  0  0  0  0
   -8.4852    3.3221   -2.2404 H   0  0  0  0  0  0  0  0  0  0  0  0
   -6.0324    3.5856   -2.2505 H   0  0  0  0  0  0  0  0  0  0  0  0
   -3.8198    1.5930   -2.4300 H   0  0  0  0  0  0  0  0  0  0  0  0
   -3.8592    2.8612   -1.2213 H   0  0  0  0  0  0  0  0  0  0  0  0
    0.9987    0.2801    0.4663 H   0  0  0  0  0  0  0  0  0  0  0  0
    0.9041   -2.7126    2.7201 H   0  0  0  0  0  0  0  0  0  0  0  0
    2.7507   -4.3109    2.8617 H   0  0  0  0  0  0  0  0  0  0  0  0
    4.8323   -3.9579    1.5550 H   0  0  0  0  0  0  0  0  0  0  0  0
    5.4086    0.0823    0.5168 H   0  0  0  0  0  0  0  0  0  0  0  0
    7.6586   -1.8677   -1.7484 H   0  0  0  0  0  0  0  0  0  0  0  0
    9.6386   -0.7601   -2.7095 H   0  0  0  0  0  0  0  0  0  0  0  0
    8.4605    2.8406   -0.6728 H   0  0  0  0  0  0  0  0  0  0  0  0
    3.1606   -0.3489   -0.1038 H   0  0  0  0  0  0  0  0  0  0  0  0
  1  2  2  0
  2  3  1  0
  3  4  1  0
  4  5  1  0
  5  6  1  0
  6  7  1  0
  7  8  1  0
  8  9  1  0
  9 10  2  0
 10 11  1  0
 11 12  2  0
 12 13  1  0
 13 14  2  0
 14 15  1  0
  2 16  1  0
 16 17  1  0
 17 18  2  0
 18 19  1  0
 19 20  2  0
 20 21  1  0
 21 22  1  0
 22 23  2  0
 22 24  1  0
 24 25  1  0
 25 26  2  0
 26 27  1  0
 27 28  2  0
 28 29  1  0
 28 30  1  0
 30 31  2  0
 21 32  2  0
 15  6  1  0
 32 17  1  0
 14  9  1  0
 31 25  1  0
  3 33  1  0
  4 34  1  0
  4 35  1  0
  5 36  1  0
  5 37  1  0
  7 38  1  0
  7 39  1  0
  8 40  1  0
  8 41  1  0
 10 42  1  0
 11 43  1  0
 12 44  1  0
 13 45  1  0
 15 46  1  0
 15 47  1  0
 16 48  1  0
 18 49  1  0
 19 50  1  0
 20 51  1  0
 24 52  1  0
 26 53  1  0
 27 54  1  0
 30 55  1  0
 32 56  1  0
M  END
$$$$
OCNT-2316751
     RDKit          3D

 57 60  0  0  0  0  0  0  0  0999 V2000
   -2.8703    2.3091   -1.5173 C   0  0  0  0  0  0  0  0  0  0  0  0
   -3.4487    1.4647   -0.4708 N   0  0  0  0  0  0  0  0  0  0  0  0
   -4.2968    2.2729    0.4084 C   0  0  0  0  0  0  0  0  0  0  0  0
   -4.2249    0.3336   -1.0258 C   0  0  0  0  0  0  0  0  0  0  0  0
   -3.3947   -0.7320   -1.7723 C   0  0  0  0  0  0  0  0  0  0  0  0
   -2.4237   -1.3658   -0.9375 O   0  0  0  0  0  0  0  0  0  0  0  0
   -2.8324   -2.2932   -0.0130 C   0  0  0  0  0  0  0  0  0  0  0  0
   -3.9966   -3.0606   -0.1438 C   0  0  0  0  0  0  0  0  0  0  0  0
   -4.3326   -4.0147    0.8204 C   0  0  0  0  0  0  0  0  0  0  0  0
   -3.5050   -4.2195    1.9184 C   0  0  0  0  0  0  0  0  0  0  0  0
   -2.3377   -3.4703    2.0521 C   0  0  0  0  0  0  0  0  0  0  0  0
   -1.9810   -2.5011    1.0999 C   0  0  0  0  0  0  0  0  0  0  0  0
   -0.7810   -1.7930    1.3430 N   0  0  0  0  0  0  0  0  0  0  0  0
   -0.9653   -0.3257    1.4755 C   0  0  0  0  0  0  0  0  0  0  0  0
   -0.1590    0.4889    0.4488 C   0  0  0  0  0  0  0  0  0  0  0  0
    1.2592    0.1158    0.4211 N   0  0  0  0  0  0  0  0  0  0  0  0
    2.2046    1.0894    0.0886 C   0  0  0  0  0  0  0  0  0  0  0  0
    1.8425    2.2109   -0.2799 O   0  0  0  0  0  0  0  0  0  0  0  0
    3.6531    0.7834    0.1778 C   0  0  0  0  0  0  0  0  0  0  0  0
    4.1963   -0.2925    0.8084 N   0  0  0  0  0  0  0  0  0  0  0  0
    5.5375   -0.1529    0.6750 N   0  0  0  0  0  0  0  0  0  0  0  0
    5.8548    0.9594   -0.0093 C   0  0  0  0  0  0  0  0  0  0  0  0
    4.6919    1.5838   -0.3343 C   0  0  0  0  0  0  0  0  0  0  0  0
    4.9315    2.8324   -1.0765 C   0  0  0  0  0  0  0  0  0  0  0  0
    6.4843    3.0169   -0.8965 C   0  0  0  0  0  0  0  0  0  0  0  0
    7.0800    1.6336   -0.4496 C   0  0  0  0  0  0  0  0  0  0  0  0
    1.5478   -1.3118    0.6138 C   0  0  0  0  0  0  0  0  0  0  0  0
    0.3063   -2.2070    0.4326 C   0  0  0  0  0  0  0  0  0  0  0  0
   -2.1383    1.7579   -2.1148 H   0  0  0  0  0  0  0  0  0  0  0  0
   -3.6348    2.7152   -2.1891 H   0  0  0  0  0  0  0  0  0  0  0  0
   -2.3235    3.1492   -1.0735 H   0  0  0  0  0  0  0  0  0  0  0  0
   -5.1459    2.7129   -0.1270 H   0  0  0  0  0  0  0  0  0  0  0  0
   -3.7175    3.0834    0.8651 H   0  0  0  0  0  0  0  0  0  0  0  0
   -4.6851    1.6661    1.2343 H   0  0  0  0  0  0  0  0  0  0  0  0
   -4.7377   -0.1694   -0.1969 H   0  0  0  0  0  0  0  0  0  0  0  0
   -5.0039    0.7099   -1.7014 H   0  0  0  0  0  0  0  0  0  0  0  0
   -4.0459   -1.4623   -2.2633 H   0  0  0  0  0  0  0  0  0  0  0  0
   -2.8413   -0.2653   -2.5940 H   0  0  0  0  0  0  0  0  0  0  0  0
   -4.6588   -2.9578   -0.9947 H   0  0  0  0  0  0  0  0  0  0  0  0
   -5.2389   -4.6040    0.7077 H   0  0  0  0  0  0  0  0  0  0  0  0
   -3.7621   -4.9612    2.6692 H   0  0  0  0  0  0  0  0  0  0  0  0
   -1.6915   -3.6310    2.9120 H   0  0  0  0  0  0  0  0  0  0  0  0
   -2.0201   -0.0305    1.4513 H   0  0  0  0  0  0  0  0  0  0  0  0
   -0.6051   -0.0601    2.4777 H   0  0  0  0  0  0  0  0  0  0  0  0
   -0.5401    0.3315   -0.5652 H   0  0  0  0  0  0  0  0  0  0  0  0
   -0.2628    1.5561    0.6733 H   0  0  0  0  0  0  0  0  0  0  0  0
    6.1438   -0.8565    1.0845 H   0  0  0  0  0  0  0  0  0  0  0  0
    4.3862    3.6874   -0.6680 H   0  0  0  0  0  0  0  0  0  0  0  0
    4.6830    2.7111   -2.1357 H   0  0  0  0  0  0  0  0  0  0  0  0
    6.6637    3.7542   -0.1026 H   0  0  0  0  0  0  0  0  0  0  0  0
    6.9607    3.3950   -1.8068 H   0  0  0  0  0  0  0  0  0  0  0  0
    7.5332    1.1178   -1.3015 H   0  0  0  0  0  0  0  0  0  0  0  0
    7.8192    1.7587    0.3456 H   0  0  0  0  0  0  0  0  0  0  0  0
    1.9375   -1.4282    1.6315 H   0  0  0  0  0  0  0  0  0  0  0  0
    2.3098   -1.6304   -0.1037 H   0  0  0  0  0  0  0  0  0  0  0  0
    0.5855   -3.2463    0.6453 H   0  0  0  0  0  0  0  0  0  0  0  0
   -0.0093   -2.1582   -0.6170 H   0  0  0  0  0  0  0  0  0  0  0  0
  1  2  1  0
  2  3  1  0
  2  4  1  0
  4  5  1  0
  5  6  1  0
  6  7  1  0
  7  8  2  0
  8  9  1  0
  9 10  2  0
 10 11  1  0
 11 12  2  0
 12 13  1  0
 13 14  1  0
 14 15  1  0
 15 16  1  0
 16 17  1  0
 17 18  2  0
 17 19  1  0
 19 20  2  0
 20 21  1  0
 21 22  1  0
 22 23  2  0
 23 24  1  0
 24 25  1  0
 25 26  1  0
 16 27  1  0
 27 28  1  0
 12  7  1  0
 28 13  1  0
 23 19  1  0
 26 22  1  0
  1 29  1  0
  1 30  1  0
  1 31  1  0
  3 32  1  0
  3 33  1  0
  3 34  1  0
  4 35  1  0
  4 36  1  0
  5 37  1  0
  5 38  1  0
  8 39  1  0
  9 40  1  0
 10 41  1  0
 11 42  1  0
 14 43  1  0
 14 44  1  0
 15 45  1  0
 15 46  1  0
 21 47  1  0
 24 48  1  0
 24 49  1  0
 25 50  1  0
 25 51  1  0
 26 52  1  0
 26 53  1  0
 27 54  1  0
 27 55  1  0
 28 56  1  0
 28 57  1  0
M  END
$$$$
OCNT-2316755
     RDKit          3D

  0  0  0  0  0  0  0  0  0  0999 V3000
M  V30 BEGIN CTAB
M  V30 COUNTS 37 39 0 0 0
M  V30 BEGIN ATOM
M  V30 1 C 7.021135 -0.510885 1.117572 0
M  V30 2 C 5.658051 -0.312450 0.578700 0
M  V30 3 C 5.226099 0.571906 -0.388108 0
M  V30 4 N 3.879627 0.351186 -0.517429 0
M  V30 5 C 2.952141 0.968221 -1.345744 0
M  V30 6 C 1.665973 0.577689 -1.296178 0
M  V30 7 C 1.263225 -0.491199 -0.379136 0
M  V30 8 N -0.046623 -0.917131 -0.293432 0
M  V30 9 C -1.124620 -0.591518 -1.089709 0
M  V30 10 O -1.105003 0.086566 -2.107468 0
M  V30 11 N -2.283806 -1.159441 -0.596628 0
M  V30 12 C -3.551685 -0.924803 -1.250633 0
M  V30 13 C -4.148099 0.346682 -0.741024 0 CFG=1
M  V30 14 C -5.645376 0.534365 -0.674667 0
M  V30 15 C -4.848927 0.375959 0.601997 0 CFG=2
M  V30 16 C -4.632880 1.499279 1.550221 0
M  V30 17 F -4.518834 2.687321 0.917973 0
M  V30 18 F -3.502750 1.289426 2.262494 0
M  V30 19 F -5.663042 1.582785 2.420723 0
M  V30 20 C 2.188286 -1.066716 0.424847 0
M  V30 21 C 3.551110 -0.657559 0.375944 0
M  V30 22 N 4.607265 -1.069792 1.045379 0
M  V30 23 H 7.030914 -0.339134 2.198314 0
M  V30 24 H 7.735863 0.177379 0.655646 0
M  V30 25 H 7.359297 -1.534007 0.926755 0
M  V30 26 H 5.745550 1.314752 -0.975465 0
M  V30 27 H 3.306545 1.751244 -2.003355 0
M  V30 28 H 0.937462 1.065407 -1.932495 0
M  V30 29 H -0.226507 -1.668622 0.356526 0
M  V30 30 H -2.313346 -1.313763 0.399316 0
M  V30 31 H -4.190878 -1.785511 -1.027284 0
M  V30 32 H -3.412906 -0.872362 -2.335520 0
M  V30 33 H -3.561170 1.210868 -1.041056 0
M  V30 34 H -6.040407 1.515542 -0.919163 0
M  V30 35 H -6.288237 -0.284563 -0.977643 0
M  V30 36 H -4.964427 -0.552374 1.147267 0
M  V30 37 H 1.940979 -1.854745 1.125815 0
M  V30 END ATOM
M  V30 BEGIN BOND
M  V30 1 1 1 2
M  V30 2 2 2 3
M  V30 3 1 3 4
M  V30 4 1 4 5
M  V30 5 2 5 6
M  V30 6 1 6 7
M  V30 7 1 7 8
M  V30 8 1 8 9
M  V30 9 2 9 10
M  V30 10 1 9 11
M  V30 11 1 11 12
M  V30 12 1 12 13
M  V30 13 1 13 14
M  V30 14 1 14 15
M  V30 15 1 15 16
M  V30 16 1 16 17
M  V30 17 1 16 18
M  V30 18 1 16 19
M  V30 19 2 7 20
M  V30 20 1 20 21
M  V30 21 2 21 22
M  V30 22 1 22 2
M  V30 23 1 21 4
M  V30 24 1 15 13
M  V30 25 1 1 23
M  V30 26 1 1 24
M  V30 27 1 1 25
M  V30 28 1 3 26
M  V30 29 1 5 27
M  V30 30 1 6 28
M  V30 31 1 8 29
M  V30 32 1 11 30
M  V30 33 1 12 31
M  V30 34 1 12 32
M  V30 35 1 13 33 CFG=1
M  V30 36 1 14 34
M  V30 37 1 14 35
M  V30 38 1 15 36 CFG=1
M  V30 39 1 20 37
M  V30 END BOND
M  V30 BEGIN COLLECTION
M  V30 MDLV30/STERAC1 ATOMS=(2 13 15)
M  V30 END COLLECTION
M  V30 END CTAB
M  END
>  <_CXSMILES_Data>  (1133) 
|&1:12,14|

$$$$
OCNT-2316758
     RDKit          3D

 45 47  0  0  0  0  0  0  0  0999 V2000
    2.4678   -1.8934    1.6988 O   0  0  0  0  0  0  0  0  0  0  0  0
    2.2675   -1.0159    0.8628 C   0  0  0  0  0  0  0  0  0  0  0  0
    1.0317   -0.6970    0.3557 N   0  0  0  0  0  0  0  0  0  0  0  0
   -0.2032   -1.2467    0.8800 C   0  0  0  0  0  0  0  0  0  0  0  0
   -1.4514   -0.8149    0.0323 C   0  0  0  0  0  0  0  0  0  0  0  0
   -1.4463    0.6602   -0.2706 N   0  0  0  0  0  0  0  0  0  0  0  0
   -2.6370    1.1273   -1.0276 C   0  0  0  0  0  0  0  0  0  0  0  0
   -2.4845    2.5448   -1.5992 C   0  0  0  0  0  0  0  0  0  0  0  0
   -2.3279    3.7940   -0.2920 S   0  0  0  0  0  0  0  0  0  0  0  0
   -0.9875    2.9853    0.6255 C   0  0  0  0  0  0  0  0  0  0  0  0
   -1.2907    1.5113    0.9392 C   0  0  0  0  0  0  0  0  0  0  0  0
   -2.7348   -1.3224    0.7522 C   0  0  0  0  0  0  0  0  0  0  0  0
   -3.5202   -2.1048   -0.2910 C   0  0  0  0  0  0  0  0  0  0  0  0
   -2.4353   -2.7590   -1.1233 C   0  0  0  0  0  0  0  0  0  0  0  0
   -1.3929   -1.6593   -1.2881 C   0  0  0  0  0  0  0  0  0  0  0  0
    3.3996   -0.1940    0.3321 C   0  0  0  0  0  0  0  0  0  0  0  0
    3.0568    0.8021   -0.5379 N   0  0  0  0  0  0  0  0  0  0  0  0
    4.0753    1.5487   -1.0176 C   0  0  0  0  0  0  0  0  0  0  0  0
    5.4061    1.3565   -0.6730 C   0  0  0  0  0  0  0  0  0  0  0  0
    5.7246    0.3362    0.2208 C   0  0  0  0  0  0  0  0  0  0  0  0
    4.7085   -0.4562    0.7377 C   0  0  0  0  0  0  0  0  0  0  0  0
    5.0654   -1.4423    1.6145 O   0  0  0  0  0  0  0  0  0  0  0  0
    0.9755    0.1228   -0.2479 H   0  0  0  0  0  0  0  0  0  0  0  0
   -0.2944   -0.9233    1.9237 H   0  0  0  0  0  0  0  0  0  0  0  0
   -0.1014   -2.3392    0.9073 H   0  0  0  0  0  0  0  0  0  0  0  0
   -2.8301    0.4855   -1.8907 H   0  0  0  0  0  0  0  0  0  0  0  0
   -3.5419    1.0804   -0.4079 H   0  0  0  0  0  0  0  0  0  0  0  0
   -3.3643    2.7945   -2.2011 H   0  0  0  0  0  0  0  0  0  0  0  0
   -1.6106    2.6044   -2.2572 H   0  0  0  0  0  0  0  0  0  0  0  0
   -0.0614    3.0702    0.0461 H   0  0  0  0  0  0  0  0  0  0  0  0
   -0.8377    3.5352    1.5604 H   0  0  0  0  0  0  0  0  0  0  0  0
   -2.1755    1.4400    1.5846 H   0  0  0  0  0  0  0  0  0  0  0  0
   -0.4436    1.1767    1.5436 H   0  0  0  0  0  0  0  0  0  0  0  0
   -2.4740   -1.9939    1.5806 H   0  0  0  0  0  0  0  0  0  0  0  0
   -3.3442   -0.5273    1.1917 H   0  0  0  0  0  0  0  0  0  0  0  0
   -4.1909   -2.8390    0.1647 H   0  0  0  0  0  0  0  0  0  0  0  0
   -4.1242   -1.4304   -0.9078 H   0  0  0  0  0  0  0  0  0  0  0  0
   -2.8100   -3.1206   -2.0852 H   0  0  0  0  0  0  0  0  0  0  0  0
   -2.0033   -3.6102   -0.5840 H   0  0  0  0  0  0  0  0  0  0  0  0
   -1.6270   -1.0762   -2.1829 H   0  0  0  0  0  0  0  0  0  0  0  0
   -0.4041   -2.0906   -1.4822 H   0  0  0  0  0  0  0  0  0  0  0  0
    3.7885    2.3349   -1.7115 H   0  0  0  0  0  0  0  0  0  0  0  0
    6.1820    1.9892   -1.0914 H   0  0  0  0  0  0  0  0  0  0  0  0
    6.7559    0.1600    0.5129 H   0  0  0  0  0  0  0  0  0  0  0  0
    4.2449   -1.9036    1.9051 H   0  0  0  0  0  0  0  0  0  0  0  0
  1  2  2  0
  2  3  1  0
  3  4  1  0
  4  5  1  0
  5  6  1  0
  6  7  1  0
  7  8  1  0
  8  9  1  0
  9 10  1  0
 10 11  1  0
  5 12  1  0
 12 13  1  0
 13 14  1  0
 14 15  1  0
  2 16  1  0
 16 17  1  0
 17 18  2  0
 18 19  1  0
 19 20  2  0
 20 21  1  0
 21 22  1  0
 15  5  1  0
 21 16  2  0
 11  6  1  0
  3 23  1  0
  4 24  1  0
  4 25  1  0
  7 26  1  0
  7 27  1  0
  8 28  1  0
  8 29  1  0
 10 30  1  0
 10 31  1  0
 11 32  1  0
 11 33  1  0
 12 34  1  0
 12 35  1  0
 13 36  1  0
 13 37  1  0
 14 38  1  0
 14 39  1  0
 15 40  1  0
 15 41  1  0
 18 42  1  0
 19 43  1  0
 20 44  1  0
 22 45  1  0
M  END
$$$$
OCNT-2316768
     RDKit          3D

 38 39  0  0  0  0  0  0  0  0999 V2000
   -2.1152    2.7982    0.1445 O   0  0  0  0  0  0  0  0  0  0  0  0
   -1.4583    1.8317    0.9718 C   0  0  0  0  0  0  0  0  0  0  0  0
   -1.4686    0.4311    0.3082 C   0  0  1  0  0  0  0  0  0  0  0  0
   -0.5981   -0.5673    0.9683 N   0  0  0  0  0  0  0  0  0  0  0  0
    0.8430   -0.2628    0.9584 C   0  0  0  0  0  0  0  0  0  0  0  0
    1.5213   -0.1465   -0.4321 C   0  0  1  0  0  0  0  0  0  0  0  0
    1.2194    1.1161   -1.0266 O   0  0  0  0  0  0  0  0  0  0  0  0
    3.0290   -0.2824   -0.3373 C   0  0  0  0  0  0  0  0  0  0  0  0
    3.6680   -1.4345   -0.8153 C   0  0  0  0  0  0  0  0  0  0  0  0
    5.0563   -1.5664   -0.7205 C   0  0  0  0  0  0  0  0  0  0  0  0
    5.8251   -0.5504   -0.1458 C   0  0  0  0  0  0  0  0  0  0  0  0
    7.5346   -0.7842   -0.0638 Cl  0  0  0  0  0  0  0  0  0  0  0  0
    5.2003    0.6032    0.3366 C   0  0  0  0  0  0  0  0  0  0  0  0
    6.0810    1.9017    1.0595 Cl  0  0  0  0  0  0  0  0  0  0  0  0
    3.8101    0.7332    0.2409 C   0  0  0  0  0  0  0  0  0  0  0  0
   -2.9034   -0.1087    0.2755 C   0  0  0  0  0  0  0  0  0  0  0  0
   -3.6592   -0.0210   -0.9044 C   0  0  0  0  0  0  0  0  0  0  0  0
   -4.9695   -0.5017   -0.9495 C   0  0  0  0  0  0  0  0  0  0  0  0
   -5.5437   -1.0725    0.1844 C   0  0  0  0  0  0  0  0  0  0  0  0
   -4.8111   -1.1588    1.3662 C   0  0  0  0  0  0  0  0  0  0  0  0
   -3.5015   -0.6773    1.4134 C   0  0  0  0  0  0  0  0  0  0  0  0
   -2.1402    3.6262    0.6526 H   0  0  0  0  0  0  0  0  0  0  0  0
   -0.4371    2.1957    1.1125 H   0  0  0  0  0  0  0  0  0  0  0  0
   -1.9549    1.8174    1.9485 H   0  0  0  0  0  0  0  0  0  0  0  0
   -1.1572    0.5328   -0.7378 H   0  0  0  0  0  0  0  0  0  0  0  0
   -0.7532   -1.4569    0.4930 H   0  0  0  0  0  0  0  0  0  0  0  0
    1.0303    0.6396    1.5511 H   0  0  0  0  0  0  0  0  0  0  0  0
    1.3204   -1.0826    1.5105 H   0  0  0  0  0  0  0  0  0  0  0  0
    1.1248   -0.9210   -1.0998 H   0  0  0  0  0  0  0  0  0  0  0  0
    1.7959    1.2173   -1.8035 H   0  0  0  0  0  0  0  0  0  0  0  0
    3.0920   -2.2423   -1.2643 H   0  0  0  0  0  0  0  0  0  0  0  0
    5.5343   -2.4684   -1.0970 H   0  0  0  0  0  0  0  0  0  0  0  0
    3.3274    1.6351    0.6162 H   0  0  0  0  0  0  0  0  0  0  0  0
   -3.2327    0.4394   -1.7932 H   0  0  0  0  0  0  0  0  0  0  0  0
   -5.5437   -0.4226   -1.8687 H   0  0  0  0  0  0  0  0  0  0  0  0
   -6.5643   -1.4436    0.1488 H   0  0  0  0  0  0  0  0  0  0  0  0
   -5.2589   -1.5981    2.2534 H   0  0  0  0  0  0  0  0  0  0  0  0
   -2.9423   -0.7486    2.3442 H   0  0  0  0  0  0  0  0  0  0  0  0
  1  2  1  0
  2  3  1  0
  3  4  1  0
  4  5  1  0
  5  6  1  0
  6  7  1  0
  6  8  1  0
  8  9  1  0
  9 10  2  0
 10 11  1  0
 11 12  1  0
 11 13  2  0
 13 14  1  0
 13 15  1  0
  3 16  1  0
 16 17  2  0
 17 18  1  0
 18 19  2  0
 19 20  1  0
 20 21  2  0
 15  8  2  0
 21 16  1  0
  1 22  1  0
  2 23  1  0
  2 24  1  0
  3 25  1  6
  4 26  1  0
  5 27  1  0
  5 28  1  0
  6 29  1  6
  7 30  1  0
  9 31  1  0
 10 32  1  0
 15 33  1  0
 17 34  1  0
 18 35  1  0
 19 36  1  0
 20 37  1  0
 21 38  1  0
M  END
$$$$
OCNT-2316781
     RDKit          3D

 45 48  0  0  0  0  0  0  0  0999 V2000
    0.3866   -2.0416    1.9382 O   0  0  0  0  0  0  0  0  0  0  0  0
    0.4962   -1.4931    0.8494 C   0  0  0  0  0  0  0  0  0  0  0  0
   -0.4517   -0.6978    0.2325 N   0  0  0  0  0  0  0  0  0  0  0  0
   -1.6948   -0.3019    0.7730 C   0  0  0  0  0  0  0  0  0  0  0  0
   -2.1333   -0.5800    2.0654 C   0  0  0  0  0  0  0  0  0  0  0  0
   -3.3287   -0.1768    2.5709 N   0  0  0  0  0  0  0  0  0  0  0  0
   -4.1342    0.5296    1.7513 C   0  0  0  0  0  0  0  0  0  0  0  0
   -5.4526    1.0212    2.2861 C   0  0  0  0  0  0  0  0  0  0  0  0
   -6.5644    0.8048    1.2597 C   0  0  0  0  0  0  0  0  0  0  0  0
   -6.1943    1.2038   -0.1785 C   0  0  0  0  0  0  0  0  0  0  0  0
   -4.7509    1.6801   -0.3685 C   0  0  0  0  0  0  0  0  0  0  0  0
   -3.7916    0.8555    0.4393 C   0  0  0  0  0  0  0  0  0  0  0  0
   -2.5502    0.4403   -0.0460 C   0  0  0  0  0  0  0  0  0  0  0  0
    1.7415   -1.7157    0.0614 C   0  0  0  0  0  0  0  0  0  0  0  0
    2.3674   -2.9637    0.1476 C   0  0  0  0  0  0  0  0  0  0  0  0
    3.5359   -3.2105   -0.5711 C   0  0  0  0  0  0  0  0  0  0  0  0
    4.0891   -2.2096   -1.3711 C   0  0  0  0  0  0  0  0  0  0  0  0
    3.4848   -0.9455   -1.4574 C   0  0  0  0  0  0  0  0  0  0  0  0
    4.1090    0.1413   -2.2974 C   0  0  0  0  0  0  0  0  0  0  0  0
    5.2136    0.7838   -1.6098 N   0  0  0  0  0  0  0  0  0  0  0  0
    6.5451    0.5398   -1.8057 C   0  0  0  0  0  0  0  0  0  0  0  0
    7.1924    1.4286   -0.9789 C   0  0  0  0  0  0  0  0  0  0  0  0
    6.2911    2.2091   -0.3023 N   0  0  0  0  0  0  0  0  0  0  0  0
    5.1086    1.7971   -0.6994 C   0  0  0  0  0  0  0  0  0  0  0  0
    2.3082   -0.7034   -0.7280 C   0  0  0  0  0  0  0  0  0  0  0  0
   -0.2820   -0.4285   -0.7268 H   0  0  0  0  0  0  0  0  0  0  0  0
   -1.5350   -1.1416    2.7750 H   0  0  0  0  0  0  0  0  0  0  0  0
   -5.3583    2.0883    2.5208 H   0  0  0  0  0  0  0  0  0  0  0  0
   -5.7040    0.5032    3.2184 H   0  0  0  0  0  0  0  0  0  0  0  0
   -6.8378   -0.2593    1.2570 H   0  0  0  0  0  0  0  0  0  0  0  0
   -7.4656    1.3436    1.5756 H   0  0  0  0  0  0  0  0  0  0  0  0
   -6.3661    0.3325   -0.8255 H   0  0  0  0  0  0  0  0  0  0  0  0
   -6.8812    1.9797   -0.5384 H   0  0  0  0  0  0  0  0  0  0  0  0
   -4.4977    1.6422   -1.4343 H   0  0  0  0  0  0  0  0  0  0  0  0
   -4.6589    2.7270   -0.0533 H   0  0  0  0  0  0  0  0  0  0  0  0
   -2.2630    0.6972   -1.0614 H   0  0  0  0  0  0  0  0  0  0  0  0
    1.9465   -3.7445    0.7789 H   0  0  0  0  0  0  0  0  0  0  0  0
    4.0212   -4.1812   -0.4985 H   0  0  0  0  0  0  0  0  0  0  0  0
    5.0094   -2.4201   -1.9138 H   0  0  0  0  0  0  0  0  0  0  0  0
    4.4829   -0.2698   -3.2425 H   0  0  0  0  0  0  0  0  0  0  0  0
    3.3777    0.9177   -2.5523 H   0  0  0  0  0  0  0  0  0  0  0  0
    6.9126   -0.2152   -2.4864 H   0  0  0  0  0  0  0  0  0  0  0  0
    8.2583    1.5516   -0.8380 H   0  0  0  0  0  0  0  0  0  0  0  0
    4.1605    2.1958   -0.3627 H   0  0  0  0  0  0  0  0  0  0  0  0
    1.8575    0.2860   -0.7502 H   0  0  0  0  0  0  0  0  0  0  0  0
  1  2  2  0
  2  3  1  0
  3  4  1  0
  4  5  1  0
  5  6  2  0
  6  7  1  0
  7  8  1  0
  8  9  1  0
  9 10  1  0
 10 11  1  0
 11 12  1  0
 12 13  1  0
  2 14  1  0
 14 15  1  0
 15 16  2  0
 16 17  1  0
 17 18  2  0
 18 19  1  0
 19 20  1  0
 20 21  1  0
 21 22  2  0
 22 23  1  0
 23 24  2  0
 18 25  1  0
 13  4  2  0
 25 14  2  0
 12  7  2  0
 24 20  1  0
  3 26  1  0
  5 27  1  0
  8 28  1  0
  8 29  1  0
  9 30  1  0
  9 31  1  0
 10 32  1  0
 10 33  1  0
 11 34  1  0
 11 35  1  0
 13 36  1  0
 15 37  1  0
 16 38  1  0
 17 39  1  0
 19 40  1  0
 19 41  1  0
 21 42  1  0
 22 43  1  0
 24 44  1  0
 25 45  1  0
M  END
$$$$
OCNT-2316796
     RDKit          3D

 38 40  0  0  0  0  0  0  0  0999 V2000
    4.0807    1.5352   -0.2988 C   0  0  0  0  0  0  0  0  0  0  0  0
    4.0606    0.0454   -0.0656 C   0  0  0  0  0  0  0  0  0  0  0  0
    5.2617   -0.6958   -0.1111 C   0  0  0  0  0  0  0  0  0  0  0  0
    6.9487    0.1201   -0.4520 Br  0  0  0  0  0  0  0  0  0  0  0  0
    5.2700   -2.0773    0.1055 C   0  0  0  0  0  0  0  0  0  0  0  0
    4.0843   -2.7463    0.3822 C   0  0  0  0  0  0  0  0  0  0  0  0
    2.8918   -2.0330    0.4549 C   0  0  0  0  0  0  0  0  0  0  0  0
    2.8617   -0.6400    0.2485 C   0  0  0  0  0  0  0  0  0  0  0  0
    1.5152    0.0458    0.3560 C   0  0  0  0  0  0  0  0  0  0  0  0
    0.8048    0.1239   -0.9977 C   0  0  0  0  0  0  0  0  0  0  0  0
   -0.4661    0.8077   -0.9065 N   0  0  0  0  0  0  0  0  0  0  0  0
   -1.6051    0.2032   -0.4221 C   0  0  0  0  0  0  0  0  0  0  0  0
   -1.6490   -0.9688   -0.0634 O   0  0  0  0  0  0  0  0  0  0  0  0
   -2.7433    1.1126   -0.3788 C   0  0  0  0  0  0  0  0  0  0  0  0
   -4.0267    0.8436    0.0549 C   0  0  0  0  0  0  0  0  0  0  0  0
   -4.5740   -0.4956    0.6078 C   0  0  0  0  0  0  0  0  0  0  0  0
   -4.4412   -0.7734    2.0822 C   0  0  0  0  0  0  0  0  0  0  0  0
   -5.7915   -0.4851    1.4942 C   0  0  0  0  0  0  0  0  0  0  0  0
   -4.7655    1.9858   -0.0870 O   0  0  0  0  0  0  0  0  0  0  0  0
   -3.8871    2.8897   -0.5940 C   0  0  0  0  0  0  0  0  0  0  0  0
   -2.6680    2.4414   -0.7905 N   0  0  0  0  0  0  0  0  0  0  0  0
    4.6778    1.7849   -1.1818 H   0  0  0  0  0  0  0  0  0  0  0  0
    4.4916    2.0458    0.5778 H   0  0  0  0  0  0  0  0  0  0  0  0
    3.0897    1.9493   -0.4973 H   0  0  0  0  0  0  0  0  0  0  0  0
    6.1991   -2.6400    0.0631 H   0  0  0  0  0  0  0  0  0  0  0  0
    4.0883   -3.8202    0.5489 H   0  0  0  0  0  0  0  0  0  0  0  0
    1.9719   -2.5721    0.6805 H   0  0  0  0  0  0  0  0  0  0  0  0
    0.8882   -0.4999    1.0740 H   0  0  0  0  0  0  0  0  0  0  0  0
    1.6252    1.0422    0.7999 H   0  0  0  0  0  0  0  0  0  0  0  0
    0.6292   -0.8829   -1.3951 H   0  0  0  0  0  0  0  0  0  0  0  0
    1.4092    0.6686   -1.7306 H   0  0  0  0  0  0  0  0  0  0  0  0
   -0.5408    1.7951   -1.1352 H   0  0  0  0  0  0  0  0  0  0  0  0
   -4.4636   -1.3397   -0.0663 H   0  0  0  0  0  0  0  0  0  0  0  0
   -3.9909   -0.0183    2.7161 H   0  0  0  0  0  0  0  0  0  0  0  0
   -4.2167   -1.7912    2.3802 H   0  0  0  0  0  0  0  0  0  0  0  0
   -6.4912   -1.3073    1.3993 H   0  0  0  0  0  0  0  0  0  0  0  0
   -6.2559    0.4653    1.7311 H   0  0  0  0  0  0  0  0  0  0  0  0
   -4.2729    3.8814   -0.7846 H   0  0  0  0  0  0  0  0  0  0  0  0
  1  2  1  0
  2  3  2  0
  3  4  1  0
  3  5  1  0
  5  6  2  0
  6  7  1  0
  7  8  2  0
  8  9  1  0
  9 10  1  0
 10 11  1  0
 11 12  1  0
 12 13  2  0
 12 14  1  0
 14 15  2  0
 15 16  1  0
 16 17  1  0
 17 18  1  0
 15 19  1  0
 19 20  1  0
 20 21  2  0
  8  2  1  0
 21 14  1  0
 18 16  1  0
  1 22  1  0
  1 23  1  0
  1 24  1  0
  5 25  1  0
  6 26  1  0
  7 27  1  0
  9 28  1  0
  9 29  1  0
 10 30  1  0
 10 31  1  0
 11 32  1  0
 16 33  1  0
 17 34  1  0
 17 35  1  0
 18 36  1  0
 18 37  1  0
 20 38  1  0
M  END
$$$$
OCNT-2316818
     RDKit          3D

 37 39  0  0  0  0  0  0  0  0999 V2000
   -3.3267   -2.0252    1.4467 C   0  0  0  0  0  0  0  0  0  0  0  0
   -2.4847   -0.8198    1.0226 C   0  0  1  0  0  0  0  0  0  0  0  0
   -1.1823   -1.2723    0.5517 N   0  0  0  0  0  0  0  0  0  0  0  0
   -0.0457   -0.5284    0.8096 C   0  0  0  0  0  0  0  0  0  0  0  0
   -0.0527    0.4724    1.5129 O   0  0  0  0  0  0  0  0  0  0  0  0
    1.0495   -1.0957    0.1931 N   0  0  0  0  0  0  0  0  0  0  0  0
    2.3674   -0.5952    0.1473 C   0  0  0  0  0  0  0  0  0  0  0  0
    3.3455   -1.4303   -0.4131 C   0  0  0  0  0  0  0  0  0  0  0  0
    4.6863   -1.0354   -0.5198 C   0  0  0  0  0  0  0  0  0  0  0  0
    5.0079    0.2365   -0.0444 C   0  0  0  0  0  0  0  0  0  0  0  0
    6.1933    0.9223    0.0044 N   0  0  0  0  0  0  0  0  0  0  0  0
    6.0967    2.1513    0.5420 N   0  0  0  0  0  0  0  0  0  0  0  0
    4.8006    2.2516    0.8509 C   0  0  0  0  0  0  0  0  0  0  0  0
    4.0668    1.0933    0.5114 C   0  0  0  0  0  0  0  0  0  0  0  0
    2.7248    0.6784    0.6091 C   0  0  0  0  0  0  0  0  0  0  0  0
   -3.1432    0.0441   -0.0424 C   0  0  0  0  0  0  0  0  0  0  0  0
   -2.9687    1.4386    0.0037 C   0  0  0  0  0  0  0  0  0  0  0  0
   -3.5321    2.2682   -0.9684 C   0  0  0  0  0  0  0  0  0  0  0  0
   -4.2731    1.7158   -2.0105 C   0  0  0  0  0  0  0  0  0  0  0  0
   -4.4403    0.3355   -2.0776 C   0  0  0  0  0  0  0  0  0  0  0  0
   -5.3416   -0.3529   -3.3728 Cl  0  0  0  0  0  0  0  0  0  0  0  0
   -3.8786   -0.4989   -1.1084 C   0  0  0  0  0  0  0  0  0  0  0  0
   -3.4275   -2.7639    0.6441 H   0  0  0  0  0  0  0  0  0  0  0  0
   -4.3305   -1.7171    1.7582 H   0  0  0  0  0  0  0  0  0  0  0  0
   -2.8533   -2.5394    2.2911 H   0  0  0  0  0  0  0  0  0  0  0  0
   -2.3443   -0.2094    1.9241 H   0  0  0  0  0  0  0  0  0  0  0  0
   -1.1885   -1.7312   -0.3459 H   0  0  0  0  0  0  0  0  0  0  0  0
    0.9121   -2.0353   -0.1458 H   0  0  0  0  0  0  0  0  0  0  0  0
    3.0774   -2.4190   -0.7796 H   0  0  0  0  0  0  0  0  0  0  0  0
    5.4328   -1.6928   -0.9528 H   0  0  0  0  0  0  0  0  0  0  0  0
    7.1028    0.6086   -0.3134 H   0  0  0  0  0  0  0  0  0  0  0  0
    4.4383    3.1620    1.3107 H   0  0  0  0  0  0  0  0  0  0  0  0
    1.9998    1.3611    1.0367 H   0  0  0  0  0  0  0  0  0  0  0  0
   -2.3758    1.8875    0.8014 H   0  0  0  0  0  0  0  0  0  0  0  0
   -3.3850    3.3441   -0.9133 H   0  0  0  0  0  0  0  0  0  0  0  0
   -4.7085    2.3633   -2.7664 H   0  0  0  0  0  0  0  0  0  0  0  0
   -4.0188   -1.5724   -1.1969 H   0  0  0  0  0  0  0  0  0  0  0  0
  1  2  1  0
  2  3  1  0
  3  4  1  0
  4  5  2  0
  4  6  1  0
  6  7  1  0
  7  8  2  0
  8  9  1  0
  9 10  2  0
 10 11  1  0
 11 12  1  0
 12 13  2  0
 13 14  1  0
 14 15  2  0
  2 16  1  0
 16 17  2  0
 17 18  1  0
 18 19  2  0
 19 20  1  0
 20 21  1  0
 20 22  2  0
 15  7  1  0
 22 16  1  0
 14 10  1  0
  1 23  1  0
  1 24  1  0
  1 25  1  0
  2 26  1  1
  3 27  1  0
  6 28  1  0
  8 29  1  0
  9 30  1  0
 11 31  1  0
 13 32  1  0
 15 33  1  0
 17 34  1  0
 18 35  1  0
 19 36  1  0
 22 37  1  0
M  END
$$$$
OCNT-2316819
     RDKit          3D

 46 49  0  0  0  0  0  0  0  0999 V2000
   -1.8624   -3.2832   -1.8545 C   0  0  0  0  0  0  0  0  0  0  0  0
   -1.9783   -2.1561   -0.8952 C   0  0  0  0  0  0  0  0  0  0  0  0
   -3.1637   -1.5911   -0.6730 N   0  0  0  0  0  0  0  0  0  0  0  0
   -2.9234   -0.5490    0.1675 N   0  0  0  0  0  0  0  0  0  0  0  0
   -3.9933    0.3598    0.4488 C   0  0  0  0  0  0  0  0  0  0  0  0
   -3.7841    1.6257    1.0079 C   0  0  0  0  0  0  0  0  0  0  0  0
   -4.8663    2.4779    1.2585 C   0  0  0  0  0  0  0  0  0  0  0  0
   -6.1638    2.0812    0.9445 C   0  0  0  0  0  0  0  0  0  0  0  0
   -6.3842    0.8348    0.3673 C   0  0  0  0  0  0  0  0  0  0  0  0
   -5.3068   -0.0181    0.1144 C   0  0  0  0  0  0  0  0  0  0  0  0
   -1.6035   -0.5761    0.6169 C   0  0  0  0  0  0  0  0  0  0  0  0
   -1.0496    0.2677    1.7093 C   0  0  0  0  0  0  0  0  0  0  0  0
   -0.9548   -1.5628   -0.1192 C   0  0  0  0  0  0  0  0  0  0  0  0
    0.4821   -1.9655   -0.0741 C   0  0  0  0  0  0  0  0  0  0  0  0
    1.1395   -1.6775   -1.3511 N   0  0  0  0  0  0  0  0  0  0  0  0
    1.3230   -0.2441   -1.6093 C   0  0  0  0  0  0  0  0  0  0  0  0
    2.3512    0.3741   -0.7364 C   0  0  0  0  0  0  0  0  0  0  0  0
    3.7256    0.3540   -0.7109 C   0  0  0  0  0  0  0  0  0  0  0  0
    4.0559    1.1567    0.3972 C   0  0  0  0  0  0  0  0  0  0  0  0
    5.4896    1.4832    0.9012 C   0  0  0  0  0  0  0  0  0  0  0  0
    6.5807    0.4474    0.8201 C   0  0  0  0  0  0  0  0  0  0  0  0
    6.6230    1.6522   -0.0770 C   0  0  0  0  0  0  0  0  0  0  0  0
    2.9706    1.6366    1.0096 N   0  0  0  0  0  0  0  0  0  0  0  0
    1.8954    1.1474    0.2870 O   0  0  0  0  0  0  0  0  0  0  0  0
   -2.8465   -3.6679   -2.1424 H   0  0  0  0  0  0  0  0  0  0  0  0
   -1.2975   -4.1105   -1.4136 H   0  0  0  0  0  0  0  0  0  0  0  0
   -1.3476   -2.9566   -2.7635 H   0  0  0  0  0  0  0  0  0  0  0  0
   -2.7959    2.0110    1.2232 H   0  0  0  0  0  0  0  0  0  0  0  0
   -4.6914    3.4610    1.6892 H   0  0  0  0  0  0  0  0  0  0  0  0
   -7.0003    2.7473    1.1386 H   0  0  0  0  0  0  0  0  0  0  0  0
   -7.3928    0.5221    0.1099 H   0  0  0  0  0  0  0  0  0  0  0  0
   -5.5094   -0.9882   -0.3373 H   0  0  0  0  0  0  0  0  0  0  0  0
   -0.1714   -0.2024    2.1631 H   0  0  0  0  0  0  0  0  0  0  0  0
   -1.7715    0.4034    2.5201 H   0  0  0  0  0  0  0  0  0  0  0  0
   -0.7353    1.2424    1.3256 H   0  0  0  0  0  0  0  0  0  0  0  0
    0.5288   -3.0481    0.0969 H   0  0  0  0  0  0  0  0  0  0  0  0
    1.0168   -1.5093    0.7644 H   0  0  0  0  0  0  0  0  0  0  0  0
    2.0523   -2.1273   -1.3525 H   0  0  0  0  0  0  0  0  0  0  0  0
    1.6533   -0.1395   -2.6499 H   0  0  0  0  0  0  0  0  0  0  0  0
    0.3760    0.3037   -1.5499 H   0  0  0  0  0  0  0  0  0  0  0  0
    4.3834   -0.1635   -1.3914 H   0  0  0  0  0  0  0  0  0  0  0  0
    5.5018    2.1326    1.7726 H   0  0  0  0  0  0  0  0  0  0  0  0
    6.3638   -0.5157    0.3741 H   0  0  0  0  0  0  0  0  0  0  0  0
    7.2883    0.3993    1.6406 H   0  0  0  0  0  0  0  0  0  0  0  0
    6.4344    1.5111   -1.1344 H   0  0  0  0  0  0  0  0  0  0  0  0
    7.3587    2.4199    0.1362 H   0  0  0  0  0  0  0  0  0  0  0  0
  1  2  1  0
  2  3  2  0
  3  4  1  0
  4  5  1  0
  5  6  2  0
  6  7  1  0
  7  8  2  0
  8  9  1  0
  9 10  2  0
  4 11  1  0
 11 12  1  0
 11 13  2  0
 13 14  1  0
 14 15  1  0
 15 16  1  0
 16 17  1  0
 17 18  2  0
 18 19  1  0
 19 20  1  0
 20 21  1  0
 21 22  1  0
 19 23  2  0
 23 24  1  0
 13  2  1  0
 24 17  1  0
 10  5  1  0
 22 20  1  0
  1 25  1  0
  1 26  1  0
  1 27  1  0
  6 28  1  0
  7 29  1  0
  8 30  1  0
  9 31  1  0
 10 32  1  0
 12 33  1  0
 12 34  1  0
 12 35  1  0
 14 36  1  0
 14 37  1  0
 15 38  1  0
 16 39  1  0
 16 40  1  0
 18 41  1  0
 20 42  1  0
 21 43  1  0
 21 44  1  0
 22 45  1  0
 22 46  1  0
M  END
$$$$
OCNT-2316822
     RDKit          3D

 41 44  0  0  0  0  0  0  0  0999 V2000
    5.6380   -0.4288    1.3332 C   0  0  0  0  0  0  0  0  0  0  0  0
    4.4251   -0.3774    0.5618 N   0  0  0  0  0  0  0  0  0  0  0  0
    4.3251   -0.4060   -0.8018 C   0  0  0  0  0  0  0  0  0  0  0  0
    3.0721   -0.3429   -1.2029 N   0  0  0  0  0  0  0  0  0  0  0  0
    2.3327   -0.2734   -0.0363 C   0  0  0  0  0  0  0  0  0  0  0  0
    0.9452   -0.1814    0.1968 C   0  0  0  0  0  0  0  0  0  0  0  0
    0.0400   -0.1851   -0.8642 N   0  0  0  0  0  0  0  0  0  0  0  0
   -1.1380    0.6928   -0.8143 C   0  0  0  0  0  0  0  0  0  0  0  0
   -2.2545    0.1846    0.1331 C   0  0  0  0  0  0  0  0  0  0  0  0
   -2.9084   -1.1011   -0.3295 C   0  0  0  0  0  0  0  0  0  0  0  0
   -2.3443   -2.3406   -0.0009 C   0  0  0  0  0  0  0  0  0  0  0  0
   -2.9388   -3.5263   -0.4340 C   0  0  0  0  0  0  0  0  0  0  0  0
   -4.1019   -3.4845   -1.2003 C   0  0  0  0  0  0  0  0  0  0  0  0
   -4.6699   -2.2568   -1.5363 C   0  0  0  0  0  0  0  0  0  0  0  0
   -4.0758   -1.0694   -1.1050 C   0  0  0  0  0  0  0  0  0  0  0  0
   -0.8236    2.1653   -0.5893 C   0  0  0  0  0  0  0  0  0  0  0  0
   -0.6843    2.8605    0.5989 C   0  0  0  0  0  0  0  0  0  0  0  0
   -0.3781    4.2367    0.3975 C   0  0  0  0  0  0  0  0  0  0  0  0
   -0.2873    4.5529   -0.9384 C   0  0  0  0  0  0  0  0  0  0  0  0
   -0.5662    3.1970   -1.9399 S   0  0  0  0  0  0  0  0  0  0  0  0
    0.5315   -0.1266    1.4900 N   0  0  0  0  0  0  0  0  0  0  0  0
    1.4571   -0.1589    2.4744 C   0  0  0  0  0  0  0  0  0  0  0  0
    2.7976   -0.2365    2.3640 N   0  0  0  0  0  0  0  0  0  0  0  0
    3.1612   -0.2910    1.0732 C   0  0  0  0  0  0  0  0  0  0  0  0
    6.4972   -0.4963    0.6610 H   0  0  0  0  0  0  0  0  0  0  0  0
    5.7086    0.4825    1.9325 H   0  0  0  0  0  0  0  0  0  0  0  0
    5.6036   -1.3104    1.9783 H   0  0  0  0  0  0  0  0  0  0  0  0
    5.1881   -0.4726   -1.4524 H   0  0  0  0  0  0  0  0  0  0  0  0
    0.5651   -0.0690   -1.7307 H   0  0  0  0  0  0  0  0  0  0  0  0
   -1.5719    0.6279   -1.8237 H   0  0  0  0  0  0  0  0  0  0  0  0
   -3.0410    0.9490    0.2092 H   0  0  0  0  0  0  0  0  0  0  0  0
   -1.9010    0.0512    1.1611 H   0  0  0  0  0  0  0  0  0  0  0  0
   -1.4296   -2.3835    0.5876 H   0  0  0  0  0  0  0  0  0  0  0  0
   -2.4895   -4.4814   -0.1762 H   0  0  0  0  0  0  0  0  0  0  0  0
   -4.5631   -4.4083   -1.5382 H   0  0  0  0  0  0  0  0  0  0  0  0
   -5.5754   -2.2239   -2.1360 H   0  0  0  0  0  0  0  0  0  0  0  0
   -4.5309   -0.1202   -1.3776 H   0  0  0  0  0  0  0  0  0  0  0  0
   -0.7900    2.3969    1.5728 H   0  0  0  0  0  0  0  0  0  0  0  0
   -0.2269    4.9560    1.1928 H   0  0  0  0  0  0  0  0  0  0  0  0
   -0.0651    5.5156   -1.3776 H   0  0  0  0  0  0  0  0  0  0  0  0
    1.0668   -0.1165    3.4873 H   0  0  0  0  0  0  0  0  0  0  0  0
  1  2  1  0
  2  3  1  0
  3  4  2  0
  4  5  1  0
  5  6  2  0
  6  7  1  0
  7  8  1  0
  8  9  1  0
  9 10  1  0
 10 11  2  0
 11 12  1  0
 12 13  2  0
 13 14  1  0
 14 15  2  0
  8 16  1  0
 16 17  2  0
 17 18  1  0
 18 19  2  0
 19 20  1  0
  6 21  1  0
 21 22  2  0
 22 23  1  0
 23 24  2  0
 24  2  1  0
 24  5  1  0
 15 10  1  0
 20 16  1  0
  1 25  1  0
  1 26  1  0
  1 27  1  0
  3 28  1  0
  7 29  1  0
  8 30  1  0
  9 31  1  0
  9 32  1  0
 11 33  1  0
 12 34  1  0
 13 35  1  0
 14 36  1  0
 15 37  1  0
 17 38  1  0
 18 39  1  0
 19 40  1  0
 22 41  1  0
M  END
$$$$
OCNT-2316823
     RDKit          3D

 38 41  0  0  0  0  0  0  0  0999 V2000
    6.9883   -0.6265   -0.7273 N   0  0  0  0  0  0  0  0  0  0  0  0
    5.6196   -1.5977   -0.5755 S   0  0  0  0  0  0  0  0  0  0  0  0
    5.1171   -1.8656   -1.9014 O   0  0  0  0  0  0  0  0  0  0  0  0
    5.9905   -2.6488    0.3441 O   0  0  0  0  0  0  0  0  0  0  0  0
    4.4988   -0.4963    0.2463 C   0  0  0  0  0  0  0  0  0  0  0  0
    4.4316   -0.4925    1.6415 C   0  0  0  0  0  0  0  0  0  0  0  0
    3.5445    0.3716    2.2803 C   0  0  0  0  0  0  0  0  0  0  0  0
    2.7280    1.2196    1.5281 C   0  0  0  0  0  0  0  0  0  0  0  0
    2.7823    1.2143    0.1235 C   0  0  0  0  0  0  0  0  0  0  0  0
    1.8765    2.1170   -0.6825 C   0  0  0  0  0  0  0  0  0  0  0  0
    0.5950    1.3847   -0.8353 C   0  0  0  0  0  0  0  0  0  0  0  0
    0.3043    0.6521   -1.9187 N   0  0  0  0  0  0  0  0  0  0  0  0
   -0.9686    0.1582   -1.6350 O   0  0  0  0  0  0  0  0  0  0  0  0
   -1.3324    0.6600   -0.4103 C   0  0  0  0  0  0  0  0  0  0  0  0
   -2.7038    0.3287    0.2671 C   0  0  0  0  0  0  0  0  0  0  0  0
   -3.0694    0.8164    1.4597 N   0  0  0  0  0  0  0  0  0  0  0  0
   -4.3281    0.2903    1.7046 O   0  0  0  0  0  0  0  0  0  0  0  0
   -4.7009   -0.4952    0.6598 C   0  0  0  0  0  0  0  0  0  0  0  0
   -6.0416   -1.2631    0.5701 C   0  0  0  0  0  0  0  0  0  0  0  0
   -7.0467   -0.8655   -0.4789 C   0  0  0  0  0  0  0  0  0  0  0  0
   -7.3110   -0.5557    0.9658 C   0  0  0  0  0  0  0  0  0  0  0  0
   -3.7016   -0.5078   -0.2800 C   0  0  0  0  0  0  0  0  0  0  0  0
   -0.4022    1.4380    0.1066 N   0  0  0  0  0  0  0  0  0  0  0  0
    3.6756    0.3406   -0.5157 C   0  0  0  0  0  0  0  0  0  0  0  0
    7.7453   -1.0412   -0.1811 H   0  0  0  0  0  0  0  0  0  0  0  0
    6.8207    0.3444   -0.4679 H   0  0  0  0  0  0  0  0  0  0  0  0
    5.0534   -1.1604    2.2341 H   0  0  0  0  0  0  0  0  0  0  0  0
    3.4759    0.3783    3.3663 H   0  0  0  0  0  0  0  0  0  0  0  0
    2.0270    1.8747    2.0454 H   0  0  0  0  0  0  0  0  0  0  0  0
    1.7228    3.0688   -0.1615 H   0  0  0  0  0  0  0  0  0  0  0  0
    2.3253    2.3512   -1.6548 H   0  0  0  0  0  0  0  0  0  0  0  0
   -5.9702   -2.3171    0.8202 H   0  0  0  0  0  0  0  0  0  0  0  0
   -6.8197   -0.0347   -1.1376 H   0  0  0  0  0  0  0  0  0  0  0  0
   -7.6305   -1.6517   -0.9436 H   0  0  0  0  0  0  0  0  0  0  0  0
   -7.2523    0.4797    1.2840 H   0  0  0  0  0  0  0  0  0  0  0  0
   -8.0707   -1.1319    1.4813 H   0  0  0  0  0  0  0  0  0  0  0  0
   -3.6924   -1.0401   -1.2192 H   0  0  0  0  0  0  0  0  0  0  0  0
    3.7201    0.3034   -1.6041 H   0  0  0  0  0  0  0  0  0  0  0  0
  1  2  1  0
  2  3  2  0
  2  4  2  0
  2  5  1  0
  5  6  2  0
  6  7  1  0
  7  8  2  0
  8  9  1  0
  9 10  1  0
 10 11  1  0
 11 12  2  0
 12 13  1  0
 13 14  1  0
 14 15  1  0
 15 16  2  0
 16 17  1  0
 17 18  1  0
 18 19  1  0
 19 20  1  0
 20 21  1  0
 18 22  2  0
 14 23  2  0
  9 24  2  0
 24  5  1  0
 23 11  1  0
 22 15  1  0
 21 19  1  0
  1 25  1  0
  1 26  1  0
  6 27  1  0
  7 28  1  0
  8 29  1  0
 10 30  1  0
 10 31  1  0
 19 32  1  0
 20 33  1  0
 20 34  1  0
 21 35  1  0
 21 36  1  0
 22 37  1  0
 24 38  1  0
M  END
$$$$
OCNT-2316834
     RDKit          3D

 39 40  0  0  0  0  0  0  0  0999 V2000
    5.5901   -1.2207   -0.3240 C   0  0  0  0  0  0  0  0  0  0  0  0
    4.1641   -0.8201   -0.2530 C   0  0  0  0  0  0  0  0  0  0  0  0
    3.3057   -0.9553    0.8231 C   0  0  0  0  0  0  0  0  0  0  0  0
    3.4630   -1.5047    2.1863 C   0  0  0  0  0  0  0  0  0  0  0  0
    2.0693   -0.4775    0.5114 O   0  0  0  0  0  0  0  0  0  0  0  0
    2.1216   -0.0187   -0.7784 C   0  0  0  0  0  0  0  0  0  0  0  0
    0.9347    0.5523   -1.3764 C   0  0  0  0  0  0  0  0  0  0  0  0
    0.8884    0.9953   -2.5214 O   0  0  0  0  0  0  0  0  0  0  0  0
   -0.1597    0.5704   -0.5428 N   0  0  0  0  0  0  0  0  0  0  0  0
   -1.5022    0.9329   -0.9802 C   0  0  0  0  0  0  0  0  0  0  0  0
   -1.6083    2.4161   -1.4325 C   0  0  0  0  0  0  0  0  0  0  0  0
   -1.2073    2.6000   -2.7906 O   0  0  0  0  0  0  0  0  0  0  0  0
   -2.4758    0.5978    0.1488 C   0  0  0  0  0  0  0  0  0  0  0  0
   -2.5556    1.4500    1.2700 C   0  0  0  0  0  0  0  0  0  0  0  0
   -3.4141    1.1692    2.3326 C   0  0  0  0  0  0  0  0  0  0  0  0
   -4.2024    0.0262    2.3046 C   0  0  0  0  0  0  0  0  0  0  0  0
   -4.1261   -0.8425    1.2174 C   0  0  0  0  0  0  0  0  0  0  0  0
   -3.2631   -0.5808    0.1343 C   0  0  0  0  0  0  0  0  0  0  0  0
   -3.2063   -1.5747   -1.0082 C   0  0  0  0  0  0  0  0  0  0  0  0
   -1.9467   -2.0415   -1.2312 F   0  0  0  0  0  0  0  0  0  0  0  0
   -3.9766   -2.6818   -0.8080 F   0  0  0  0  0  0  0  0  0  0  0  0
   -3.6300   -1.0400   -2.1854 F   0  0  0  0  0  0  0  0  0  0  0  0
    3.3925   -0.2110   -1.2814 C   0  0  0  0  0  0  0  0  0  0  0  0
    5.7243   -2.2430    0.0450 H   0  0  0  0  0  0  0  0  0  0  0  0
    6.2045   -0.5493    0.2846 H   0  0  0  0  0  0  0  0  0  0  0  0
    5.9605   -1.1831   -1.3536 H   0  0  0  0  0  0  0  0  0  0  0  0
    3.1431   -2.5509    2.2119 H   0  0  0  0  0  0  0  0  0  0  0  0
    4.5067   -1.4559    2.5115 H   0  0  0  0  0  0  0  0  0  0  0  0
    2.8600   -0.9418    2.9056 H   0  0  0  0  0  0  0  0  0  0  0  0
   -0.0417    0.0954    0.3465 H   0  0  0  0  0  0  0  0  0  0  0  0
   -1.7096    0.3207   -1.8634 H   0  0  0  0  0  0  0  0  0  0  0  0
   -2.6454    2.7634   -1.3760 H   0  0  0  0  0  0  0  0  0  0  0  0
   -0.9953    3.0738   -0.8065 H   0  0  0  0  0  0  0  0  0  0  0  0
   -0.3523    2.1296   -2.9082 H   0  0  0  0  0  0  0  0  0  0  0  0
   -1.9406    2.3465    1.3293 H   0  0  0  0  0  0  0  0  0  0  0  0
   -3.4644    1.8436    3.1845 H   0  0  0  0  0  0  0  0  0  0  0  0
   -4.8736   -0.1935    3.1317 H   0  0  0  0  0  0  0  0  0  0  0  0
   -4.7469   -1.7385    1.2204 H   0  0  0  0  0  0  0  0  0  0  0  0
    3.7155    0.0586   -2.2784 H   0  0  0  0  0  0  0  0  0  0  0  0
  1  2  1  0
  2  3  2  0
  3  4  1  0
  3  5  1  0
  5  6  1  0
  6  7  1  0
  7  8  2  0
  7  9  1  0
  9 10  1  0
 10 11  1  0
 11 12  1  0
 10 13  1  0
 13 14  2  0
 14 15  1  0
 15 16  2  0
 16 17  1  0
 17 18  2  0
 18 19  1  0
 19 20  1  0
 19 21  1  0
 19 22  1  0
  6 23  2  0
 23  2  1  0
 18 13  1  0
  1 24  1  0
  1 25  1  0
  1 26  1  0
  4 27  1  0
  4 28  1  0
  4 29  1  0
  9 30  1  0
 10 31  1  0
 11 32  1  0
 11 33  1  0
 12 34  1  0
 14 35  1  0
 15 36  1  0
 16 37  1  0
 17 38  1  0
 23 39  1  0
M  END
$$$$
OCNT-2316839
     RDKit          3D

 47 48  0  0  0  0  0  0  0  0999 V2000
   -2.8074    1.4581    2.4997 C   0  0  0  0  0  0  0  0  0  0  0  0
   -2.1970   -0.2291    2.7542 S   0  0  0  0  0  0  0  0  0  0  0  0
   -3.1105   -1.1569    1.4195 C   0  0  0  0  0  0  0  0  0  0  0  0
   -4.5969   -1.3222    1.7917 C   0  0  0  0  0  0  0  0  0  0  0  0
   -5.3546   -0.1492    1.5206 O   0  0  0  0  0  0  0  0  0  0  0  0
   -2.8749   -0.5815   -0.0138 C   0  0  0  0  0  0  0  0  0  0  0  0
   -3.4680   -1.5164   -1.0765 C   0  0  0  0  0  0  0  0  0  0  0  0
   -1.4242   -0.4148   -0.2696 N   0  0  0  0  0  0  0  0  0  0  0  0
   -1.1451    0.5178   -1.3735 C   0  0  0  0  0  0  0  0  0  0  0  0
    0.3609    0.8451   -1.4642 C   0  0  0  0  0  0  0  0  0  0  0  0
    0.7384    1.5424   -0.2669 O   0  0  0  0  0  0  0  0  0  0  0  0
    1.2045   -0.4338   -1.6340 C   0  0  0  0  0  0  0  0  0  0  0  0
    2.5210   -0.1565   -2.2026 N   0  0  0  0  0  0  0  0  0  0  0  0
    2.6879    0.0274   -3.5358 C   0  0  0  0  0  0  0  0  0  0  0  0
    1.8320   -0.0745   -4.4015 O   0  0  0  0  0  0  0  0  0  0  0  0
    3.9837    0.4092   -3.7761 O   0  0  0  0  0  0  0  0  0  0  0  0
    4.5996    0.5380   -2.5006 N   0  0  0  0  0  0  0  0  0  0  0  0
    3.6955    0.1886   -1.6441 C   0  0  0  0  0  0  0  0  0  0  0  0
    3.9417    0.2190   -0.1949 C   0  0  0  0  0  0  0  0  0  0  0  0
    4.5998    1.3390    0.3323 C   0  0  0  0  0  0  0  0  0  0  0  0
    4.8690    1.4143    1.6980 C   0  0  0  0  0  0  0  0  0  0  0  0
    4.4873    0.3690    2.5383 C   0  0  0  0  0  0  0  0  0  0  0  0
    3.8532   -0.7589    2.0123 C   0  0  0  0  0  0  0  0  0  0  0  0
    3.5896   -0.8423    0.6434 C   0  0  0  0  0  0  0  0  0  0  0  0
   -2.5345    1.8324    1.5083 H   0  0  0  0  0  0  0  0  0  0  0  0
   -3.8875    1.5212    2.6458 H   0  0  0  0  0  0  0  0  0  0  0  0
   -2.3328    2.1072    3.2436 H   0  0  0  0  0  0  0  0  0  0  0  0
   -2.6630   -2.1588    1.4591 H   0  0  0  0  0  0  0  0  0  0  0  0
   -5.0384   -2.1363    1.2102 H   0  0  0  0  0  0  0  0  0  0  0  0
   -4.7162   -1.5832    2.8487 H   0  0  0  0  0  0  0  0  0  0  0  0
   -6.2593   -0.3155    1.8348 H   0  0  0  0  0  0  0  0  0  0  0  0
   -3.3768    0.3909   -0.0895 H   0  0  0  0  0  0  0  0  0  0  0  0
   -3.3245   -1.1250   -2.0897 H   0  0  0  0  0  0  0  0  0  0  0  0
   -3.0130   -2.5134   -1.0264 H   0  0  0  0  0  0  0  0  0  0  0  0
   -4.5513   -1.6362   -0.9404 H   0  0  0  0  0  0  0  0  0  0  0  0
   -1.0040   -0.0142    0.5810 H   0  0  0  0  0  0  0  0  0  0  0  0
   -1.6907    1.4546   -1.2078 H   0  0  0  0  0  0  0  0  0  0  0  0
   -1.4732    0.0870   -2.3245 H   0  0  0  0  0  0  0  0  0  0  0  0
    0.5131    1.5334   -2.3025 H   0  0  0  0  0  0  0  0  0  0  0  0
    1.6601    1.8377   -0.3663 H   0  0  0  0  0  0  0  0  0  0  0  0
    1.3238   -0.9338   -0.6741 H   0  0  0  0  0  0  0  0  0  0  0  0
    0.7004   -1.1238   -2.3216 H   0  0  0  0  0  0  0  0  0  0  0  0
    4.9114    2.1556   -0.3174 H   0  0  0  0  0  0  0  0  0  0  0  0
    5.3751    2.2838    2.1086 H   0  0  0  0  0  0  0  0  0  0  0  0
    4.6941    0.4267    3.6081 H   0  0  0  0  0  0  0  0  0  0  0  0
    3.5665   -1.5762    2.6694 H   0  0  0  0  0  0  0  0  0  0  0  0
    3.1354   -1.7460    0.2486 H   0  0  0  0  0  0  0  0  0  0  0  0
  1  2  1  0
  2  3  1  0
  3  4  1  0
  4  5  1  0
  3  6  1  0
  6  7  1  0
  6  8  1  0
  8  9  1  0
  9 10  1  0
 10 11  1  0
 10 12  1  0
 12 13  1  0
 13 14  1  0
 14 15  2  0
 14 16  1  0
 16 17  1  0
 17 18  2  0
 18 19  1  0
 19 20  2  0
 20 21  1  0
 21 22  2  0
 22 23  1  0
 23 24  2  0
 18 13  1  0
 24 19  1  0
  1 25  1  0
  1 26  1  0
  1 27  1  0
  3 28  1  0
  4 29  1  0
  4 30  1  0
  5 31  1  0
  6 32  1  0
  7 33  1  0
  7 34  1  0
  7 35  1  0
  8 36  1  0
  9 37  1  0
  9 38  1  0
 10 39  1  0
 11 40  1  0
 12 41  1  0
 12 42  1  0
 20 43  1  0
 21 44  1  0
 22 45  1  0
 23 46  1  0
 24 47  1  0
M  END
$$$$
OCNT-2316841
     RDKit          3D

  0  0  0  0  0  0  0  0  0  0999 V3000
M  V30 BEGIN CTAB
M  V30 COUNTS 50 52 0 0 0
M  V30 BEGIN ATOM
M  V30 1 C 7.715389 2.090842 -0.053132 0
M  V30 2 C 6.652855 1.156561 0.387146 0
M  V30 3 N 6.884169 -0.160059 0.417998 0
M  V30 4 N 5.730605 -0.690607 0.865477 0
M  V30 5 C 5.625023 -2.123168 1.021136 0
M  V30 6 C 4.760811 0.247424 1.112029 0
M  V30 7 C 3.405434 -0.084621 1.607200 0
M  V30 8 N 2.613037 -0.489997 0.474086 0
M  V30 9 C 1.371203 -1.028691 0.691433 0
M  V30 10 O 0.922777 -1.293999 1.797235 0
M  V30 11 N 0.709225 -1.230176 -0.490542 0
M  V30 12 C -0.593565 -1.854536 -0.517138 0
M  V30 13 C -1.652870 -0.815869 -0.329717 0 CFG=1
M  V30 14 C -2.048974 0.095320 -1.469479 0
M  V30 15 C -3.003798 -0.974732 -0.997041 0 CFG=2
M  V30 16 C -4.311380 -0.653323 -0.304054 0
M  V30 17 C -4.204104 0.333732 0.873373 0
M  V30 18 C -5.558998 0.943151 1.213999 0
M  V30 19 C -6.119361 1.759586 0.048848 0
M  V30 20 C -5.637275 1.276821 -1.319733 0
M  V30 21 C -5.380590 -0.225993 -1.334515 0
M  V30 22 C 5.340918 1.462486 0.809665 0
M  V30 23 H 7.360957 3.126419 -0.038454 0
M  V30 24 H 8.585808 2.021361 0.607158 0
M  V30 25 H 8.034384 1.856941 -1.073895 0
M  V30 26 H 4.818483 -2.484053 0.378661 0
M  V30 27 H 6.567789 -2.592951 0.728200 0
M  V30 28 H 5.414624 -2.342096 2.070700 0
M  V30 29 H 2.926713 0.789315 2.063251 0
M  V30 30 H 3.423353 -0.883697 2.355912 0
M  V30 31 H 2.660913 0.116224 -0.331540 0
M  V30 32 H 1.297170 -1.363383 -1.298647 0
M  V30 33 H -0.692356 -2.356996 -1.485468 0
M  V30 34 H -0.660847 -2.613601 0.269420 0
M  V30 35 H -1.603267 -0.385057 0.663876 0
M  V30 36 H -1.572410 -0.044227 -2.433656 0
M  V30 37 H -2.250753 1.133921 -1.237163 0
M  V30 38 H -3.130491 -1.832020 -1.654961 0
M  V30 39 H -4.655026 -1.609527 0.115927 0
M  V30 40 H -3.803945 -0.188451 1.750896 0
M  V30 41 H -3.505641 1.149188 0.654874 0
M  V30 42 H -6.262079 0.140059 1.468748 0
M  V30 43 H -5.477712 1.578968 2.102882 0
M  V30 44 H -7.214833 1.726100 0.090935 0
M  V30 45 H -5.842008 2.814194 0.166394 0
M  V30 46 H -4.714432 1.805056 -1.588801 0
M  V30 47 H -6.378719 1.541355 -2.082345 0
M  V30 48 H -5.105133 -0.543469 -2.347191 0
M  V30 49 H -6.323001 -0.738101 -1.098651 0
M  V30 50 H 4.881926 2.438375 0.886619 0
M  V30 END ATOM
M  V30 BEGIN BOND
M  V30 1 1 1 2
M  V30 2 2 2 3
M  V30 3 1 3 4
M  V30 4 1 4 5
M  V30 5 1 4 6
M  V30 6 1 6 7
M  V30 7 1 7 8
M  V30 8 1 8 9
M  V30 9 2 9 10
M  V30 10 1 9 11
M  V30 11 1 11 12
M  V30 12 1 12 13
M  V30 13 1 13 14
M  V30 14 1 14 15
M  V30 15 1 15 16
M  V30 16 1 16 17
M  V30 17 1 17 18
M  V30 18 1 18 19
M  V30 19 1 19 20
M  V30 20 1 20 21
M  V30 21 2 6 22
M  V30 22 1 22 2
M  V30 23 1 15 13
M  V30 24 1 21 16
M  V30 25 1 1 23
M  V30 26 1 1 24
M  V30 27 1 1 25
M  V30 28 1 5 26
M  V30 29 1 5 27
M  V30 30 1 5 28
M  V30 31 1 7 29
M  V30 32 1 7 30
M  V30 33 1 8 31
M  V30 34 1 11 32
M  V30 35 1 12 33
M  V30 36 1 12 34
M  V30 37 1 13 35 CFG=1
M  V30 38 1 14 36
M  V30 39 1 14 37
M  V30 40 1 15 38 CFG=3
M  V30 41 1 16 39
M  V30 42 1 17 40
M  V30 43 1 17 41
M  V30 44 1 18 42
M  V30 45 1 18 43
M  V30 46 1 19 44
M  V30 47 1 19 45
M  V30 48 1 20 46
M  V30 49 1 20 47
M  V30 50 1 21 48
M  V30 51 1 21 49
M  V30 52 1 22 50
M  V30 END BOND
M  V30 BEGIN COLLECTION
M  V30 MDLV30/STERAC1 ATOMS=(2 13 15)
M  V30 END COLLECTION
M  V30 END CTAB
M  END
>  <_CXSMILES_Data>  (1144) 
|&1:12,14|

$$$$
OCNT-2316845
     RDKit          3D

 46 49  0  0  0  0  0  0  0  0999 V2000
    5.4357    2.8878   -0.1964 C   0  0  0  0  0  0  0  0  0  0  0  0
    5.6046    1.5719   -0.9343 C   0  0  0  0  0  0  0  0  0  0  0  0
    4.3921    0.7885   -0.9373 N   0  0  0  0  0  0  0  0  0  0  0  0
    3.4678    0.9569   -1.9037 N   0  0  0  0  0  0  0  0  0  0  0  0
    2.4745    0.1118   -1.6488 N   0  0  0  0  0  0  0  0  0  0  0  0
    2.7840   -0.5988   -0.5102 C   0  0  0  0  0  0  0  0  0  0  0  0
    2.1194   -1.6047    0.2298 C   0  0  0  0  0  0  0  0  0  0  0  0
    0.8937   -2.1933   -0.0778 N   0  0  0  0  0  0  0  0  0  0  0  0
    0.1382   -1.7992   -1.2692 C   0  0  0  0  0  0  0  0  0  0  0  0
   -0.9575   -0.7543   -0.9455 C   0  0  0  0  0  0  0  0  0  0  0  0
   -1.7048   -0.9883    0.3159 N   0  0  0  0  0  0  0  0  0  0  0  0
   -3.1489   -0.7180    0.1877 C   0  0  0  0  0  0  0  0  0  0  0  0
   -3.4927    0.7710   -0.0856 C   0  0  0  0  0  0  0  0  0  0  0  0
   -3.2769    1.0928   -1.4593 O   0  0  0  0  0  0  0  0  0  0  0  0
   -4.9413    1.0520    0.2099 C   0  0  0  0  0  0  0  0  0  0  0  0
   -5.3996    2.4593    0.5043 C   0  0  0  0  0  0  0  0  0  0  0  0
   -5.3855    1.4299    1.6004 C   0  0  0  0  0  0  0  0  0  0  0  0
   -1.4370   -2.3365    0.8486 C   0  0  0  0  0  0  0  0  0  0  0  0
    0.0775   -2.5541    1.0983 C   0  0  0  0  0  0  0  0  0  0  0  0
    2.7752   -2.0542    1.3495 N   0  0  0  0  0  0  0  0  0  0  0  0
    3.9766   -1.5417    1.6856 C   0  0  0  0  0  0  0  0  0  0  0  0
    4.6774   -0.5895    1.0492 N   0  0  0  0  0  0  0  0  0  0  0  0
    4.0143   -0.1677   -0.0400 C   0  0  0  0  0  0  0  0  0  0  0  0
    6.3706    3.4563   -0.2140 H   0  0  0  0  0  0  0  0  0  0  0  0
    4.6538    3.5011   -0.6566 H   0  0  0  0  0  0  0  0  0  0  0  0
    5.1565    2.7208    0.8493 H   0  0  0  0  0  0  0  0  0  0  0  0
    5.8907    1.7488   -1.9771 H   0  0  0  0  0  0  0  0  0  0  0  0
    6.3953    0.9715   -0.4718 H   0  0  0  0  0  0  0  0  0  0  0  0
    0.7672   -1.4685   -2.0997 H   0  0  0  0  0  0  0  0  0  0  0  0
   -0.3552   -2.7035   -1.6518 H   0  0  0  0  0  0  0  0  0  0  0  0
   -0.4966    0.2376   -0.8751 H   0  0  0  0  0  0  0  0  0  0  0  0
   -1.6288   -0.7413   -1.8122 H   0  0  0  0  0  0  0  0  0  0  0  0
   -3.6285   -0.9971    1.1349 H   0  0  0  0  0  0  0  0  0  0  0  0
   -3.5844   -1.3545   -0.5939 H   0  0  0  0  0  0  0  0  0  0  0  0
   -2.8440    1.4155    0.5208 H   0  0  0  0  0  0  0  0  0  0  0  0
   -3.4405    2.0472   -1.5443 H   0  0  0  0  0  0  0  0  0  0  0  0
   -5.6035    0.4269   -0.3803 H   0  0  0  0  0  0  0  0  0  0  0  0
   -6.3617    2.7704    0.1124 H   0  0  0  0  0  0  0  0  0  0  0  0
   -4.6628    3.2532    0.5502 H   0  0  0  0  0  0  0  0  0  0  0  0
   -6.3380    1.0470    1.9498 H   0  0  0  0  0  0  0  0  0  0  0  0
   -4.6366    1.5278    2.3786 H   0  0  0  0  0  0  0  0  0  0  0  0
   -1.9562   -2.4728    1.8051 H   0  0  0  0  0  0  0  0  0  0  0  0
   -1.8199   -3.1048    0.1641 H   0  0  0  0  0  0  0  0  0  0  0  0
    0.2574   -3.6047    1.3541 H   0  0  0  0  0  0  0  0  0  0  0  0
    0.3479   -1.9462    1.9728 H   0  0  0  0  0  0  0  0  0  0  0  0
    4.4305   -1.9522    2.5828 H   0  0  0  0  0  0  0  0  0  0  0  0
  1  2  1  0
  2  3  1  0
  3  4  1  0
  4  5  2  0
  5  6  1  0
  6  7  2  0
  7  8  1  0
  8  9  1  0
  9 10  1  0
 10 11  1  0
 11 12  1  0
 12 13  1  0
 13 14  1  0
 13 15  1  0
 15 16  1  0
 16 17  1  0
 11 18  1  0
 18 19  1  0
  7 20  1  0
 20 21  2  0
 21 22  1  0
 22 23  2  0
 23  3  1  0
 23  6  1  0
 19  8  1  0
 17 15  1  0
  1 24  1  0
  1 25  1  0
  1 26  1  0
  2 27  1  0
  2 28  1  0
  9 29  1  0
  9 30  1  0
 10 31  1  0
 10 32  1  0
 12 33  1  0
 12 34  1  0
 13 35  1  0
 14 36  1  0
 15 37  1  0
 16 38  1  0
 16 39  1  0
 17 40  1  0
 17 41  1  0
 18 42  1  0
 18 43  1  0
 19 44  1  0
 19 45  1  0
 21 46  1  0
M  END
$$$$
OCNT-2316852
     RDKit          3D

 40 42  0  0  0  0  0  0  0  0999 V2000
   -0.9504   -2.5855   -1.2503 C   0  0  0  0  0  0  0  0  0  0  0  0
   -1.4333   -1.2446   -0.8068 C   0  0  0  0  0  0  0  0  0  0  0  0
   -1.2030    0.0130   -1.3541 C   0  0  0  0  0  0  0  0  0  0  0  0
   -0.2378    0.3897   -2.7477 S   0  0  0  0  0  0  0  0  0  0  0  0
   -0.0574   -0.8522   -3.4630 O   0  0  0  0  0  0  0  0  0  0  0  0
   -0.8681    1.5419   -3.3521 O   0  0  0  0  0  0  0  0  0  0  0  0
    1.2663    0.9075   -2.1813 N   0  0  0  0  0  0  0  0  0  0  0  0
    2.1045    0.1474   -1.2179 C   0  0  0  0  0  0  0  0  0  0  0  0
    1.8575    0.4080    0.2864 C   0  0  0  0  0  0  0  0  0  0  0  0
    3.3884    0.3173    0.5040 C   0  0  0  0  0  0  0  0  0  0  0  0
    3.9535   -1.0510    0.9730 C   0  0  0  0  0  0  0  0  0  0  0  0
    3.6270   -2.1712    0.6021 O   0  0  0  0  0  0  0  0  0  0  0  0
    4.9202   -0.9362    1.9135 O   0  0  0  0  0  0  0  0  0  0  0  0
    3.5430    0.6671   -0.9968 C   0  0  0  0  0  0  0  0  0  0  0  0
   -1.8200    0.9866   -0.5116 C   0  0  0  0  0  0  0  0  0  0  0  0
   -1.8980    2.3984   -0.5120 C   0  0  0  0  0  0  0  0  0  0  0  0
   -2.5847    3.0642    0.5078 C   0  0  0  0  0  0  0  0  0  0  0  0
   -3.1940    2.3475    1.5289 C   0  0  0  0  0  0  0  0  0  0  0  0
   -3.1397    0.9520    1.5542 C   0  0  0  0  0  0  0  0  0  0  0  0
   -2.4509    0.2877    0.5233 C   0  0  0  0  0  0  0  0  0  0  0  0
   -2.2511   -1.0602    0.2895 N   0  0  0  0  0  0  0  0  0  0  0  0
   -2.8114   -2.1273    1.0953 C   0  0  0  0  0  0  0  0  0  0  0  0
   -1.5206   -2.9236   -2.1211 H   0  0  0  0  0  0  0  0  0  0  0  0
   -1.0429   -3.3433   -0.4672 H   0  0  0  0  0  0  0  0  0  0  0  0
    0.1101   -2.5469   -1.5168 H   0  0  0  0  0  0  0  0  0  0  0  0
    1.2595    1.9217   -2.0758 H   0  0  0  0  0  0  0  0  0  0  0  0
    2.0972   -0.9224   -1.4655 H   0  0  0  0  0  0  0  0  0  0  0  0
    1.4424    1.3970    0.5151 H   0  0  0  0  0  0  0  0  0  0  0  0
    1.2580   -0.3486    0.8005 H   0  0  0  0  0  0  0  0  0  0  0  0
    3.7545    1.1263    1.1512 H   0  0  0  0  0  0  0  0  0  0  0  0
    5.1746   -1.8639    2.1044 H   0  0  0  0  0  0  0  0  0  0  0  0
    3.6739    1.7399   -1.1833 H   0  0  0  0  0  0  0  0  0  0  0  0
    4.3226    0.1223   -1.5373 H   0  0  0  0  0  0  0  0  0  0  0  0
   -1.4391    2.9813   -1.3066 H   0  0  0  0  0  0  0  0  0  0  0  0
   -2.6452    4.1496    0.4954 H   0  0  0  0  0  0  0  0  0  0  0  0
   -3.7265    2.8774    2.3154 H   0  0  0  0  0  0  0  0  0  0  0  0
   -3.6247    0.4082    2.3585 H   0  0  0  0  0  0  0  0  0  0  0  0
   -3.1571   -2.9266    0.4346 H   0  0  0  0  0  0  0  0  0  0  0  0
   -2.0312   -2.4886    1.7696 H   0  0  0  0  0  0  0  0  0  0  0  0
   -3.6662   -1.7601    1.6663 H   0  0  0  0  0  0  0  0  0  0  0  0
  1  2  1  0
  2  3  2  0
  3  4  1  0
  4  5  2  0
  4  6  2  0
  4  7  1  0
  7  8  1  0
  8  9  1  0
  9 10  1  0
 10 11  1  0
 11 12  2  0
 11 13  1  0
 10 14  1  0
  3 15  1  0
 15 16  2  0
 16 17  1  0
 17 18  2  0
 18 19  1  0
 19 20  2  0
 20 21  1  0
 21 22  1  0
 21  2  1  0
 14  8  1  0
 20 15  1  0
  1 23  1  0
  1 24  1  0
  1 25  1  0
  7 26  1  0
  8 27  1  0
  9 28  1  0
  9 29  1  0
 10 30  1  0
 13 31  1  0
 14 32  1  0
 14 33  1  0
 16 34  1  0
 17 35  1  0
 18 36  1  0
 19 37  1  0
 22 38  1  0
 22 39  1  0
 22 40  1  0
M  END
$$$$
OCNT-2316861
     RDKit          3D

 51 54  0  0  0  0  0  0  0  0999 V2000
   -1.6620    2.4933   -0.3840 C   0  0  0  0  0  0  0  0  0  0  0  0
   -2.8626    1.6910   -0.6009 N   0  0  0  0  0  0  0  0  0  0  0  0
   -3.4739    1.8640   -1.9254 C   0  0  0  0  0  0  0  0  0  0  0  0
   -2.7938    0.3190   -0.2393 C   0  0  0  0  0  0  0  0  0  0  0  0
   -1.7669   -0.5661   -0.6078 C   0  0  0  0  0  0  0  0  0  0  0  0
   -0.6033   -0.2176   -1.4379 C   0  0  0  0  0  0  0  0  0  0  0  0
   -0.7904    0.0039   -2.6315 O   0  0  0  0  0  0  0  0  0  0  0  0
    0.6649   -0.2178   -0.8413 N   0  0  0  0  0  0  0  0  0  0  0  0
    0.8763   -0.0923    0.6014 C   0  0  0  0  0  0  0  0  0  0  0  0
    2.1634   -0.7755    1.0507 C   0  0  0  0  0  0  0  0  0  0  0  0
    3.3782   -0.2552    0.2539 C   0  0  0  0  0  0  0  0  0  0  0  0
    4.6042   -0.9723    0.6704 N   0  0  0  0  0  0  0  0  0  0  0  0
    5.0591   -0.5702    2.0274 C   0  0  0  0  0  0  0  0  0  0  0  0
    6.0231    0.4406    1.4001 C   0  0  0  0  0  0  0  0  0  0  0  0
    5.8356   -0.3584    0.1074 C   0  0  0  0  0  0  0  0  0  0  0  0
    3.0912   -0.5101   -1.2401 C   0  0  0  0  0  0  0  0  0  0  0  0
    1.7956    0.1643   -1.6795 C   0  0  0  0  0  0  0  0  0  0  0  0
   -1.8593   -1.9003   -0.2360 C   0  0  0  0  0  0  0  0  0  0  0  0
   -2.8607   -2.4170    0.5073 N   0  0  0  0  0  0  0  0  0  0  0  0
   -3.8426   -1.5878    0.8871 C   0  0  0  0  0  0  0  0  0  0  0  0
   -4.8772   -2.1130    1.6502 C   0  0  0  0  0  0  0  0  0  0  0  0
   -5.9416   -1.3267    2.0948 C   0  0  0  0  0  0  0  0  0  0  0  0
   -5.9778    0.0213    1.7734 C   0  0  0  0  0  0  0  0  0  0  0  0
   -4.9502    0.5709    1.0079 C   0  0  0  0  0  0  0  0  0  0  0  0
   -3.8663   -0.2140    0.5445 C   0  0  0  0  0  0  0  0  0  0  0  0
   -0.9193    2.3653   -1.1766 H   0  0  0  0  0  0  0  0  0  0  0  0
   -1.2053    2.2689    0.5858 H   0  0  0  0  0  0  0  0  0  0  0  0
   -1.9374    3.5538   -0.3672 H   0  0  0  0  0  0  0  0  0  0  0  0
   -2.8159    1.5242   -2.7306 H   0  0  0  0  0  0  0  0  0  0  0  0
   -4.4273    1.3285   -2.0008 H   0  0  0  0  0  0  0  0  0  0  0  0
   -3.6891    2.9251   -2.0938 H   0  0  0  0  0  0  0  0  0  0  0  0
    0.0356   -0.5010    1.1662 H   0  0  0  0  0  0  0  0  0  0  0  0
    0.9195    0.9799    0.8281 H   0  0  0  0  0  0  0  0  0  0  0  0
    2.0630   -1.8604    0.9114 H   0  0  0  0  0  0  0  0  0  0  0  0
    2.2857   -0.6027    2.1249 H   0  0  0  0  0  0  0  0  0  0  0  0
    3.4742    0.8272    0.4177 H   0  0  0  0  0  0  0  0  0  0  0  0
    5.5660   -1.3846    2.5597 H   0  0  0  0  0  0  0  0  0  0  0  0
    4.3218   -0.1342    2.7072 H   0  0  0  0  0  0  0  0  0  0  0  0
    5.6341    1.4639    1.3556 H   0  0  0  0  0  0  0  0  0  0  0  0
    7.0354    0.4588    1.8114 H   0  0  0  0  0  0  0  0  0  0  0  0
    5.7386    0.2522   -0.7946 H   0  0  0  0  0  0  0  0  0  0  0  0
    6.6294   -1.0946   -0.0698 H   0  0  0  0  0  0  0  0  0  0  0  0
    3.0139   -1.5904   -1.4238 H   0  0  0  0  0  0  0  0  0  0  0  0
    3.9027   -0.1379   -1.8739 H   0  0  0  0  0  0  0  0  0  0  0  0
    1.5962   -0.0904   -2.7262 H   0  0  0  0  0  0  0  0  0  0  0  0
    1.8912    1.2556   -1.6232 H   0  0  0  0  0  0  0  0  0  0  0  0
   -1.1005   -2.6193   -0.5361 H   0  0  0  0  0  0  0  0  0  0  0  0
   -4.8541   -3.1700    1.9067 H   0  0  0  0  0  0  0  0  0  0  0  0
   -6.7345   -1.7716    2.6897 H   0  0  0  0  0  0  0  0  0  0  0  0
   -6.7980    0.6470    2.1146 H   0  0  0  0  0  0  0  0  0  0  0  0
   -4.9891    1.6324    0.7697 H   0  0  0  0  0  0  0  0  0  0  0  0
  1  2  1  0
  2  3  1  0
  2  4  1  0
  4  5  2  0
  5  6  1  0
  6  7  2  0
  6  8  1  0
  8  9  1  0
  9 10  1  0
 10 11  1  0
 11 12  1  0
 12 13  1  0
 13 14  1  0
 14 15  1  0
 11 16  1  0
 16 17  1  0
  5 18  1  0
 18 19  2  0
 19 20  1  0
 20 21  2  0
 21 22  1  0
 22 23  2  0
 23 24  1  0
 24 25  2  0
 25  4  1  0
 17  8  1  0
 25 20  1  0
 15 12  1  0
  1 26  1  0
  1 27  1  0
  1 28  1  0
  3 29  1  0
  3 30  1  0
  3 31  1  0
  9 32  1  0
  9 33  1  0
 10 34  1  0
 10 35  1  0
 11 36  1  0
 13 37  1  0
 13 38  1  0
 14 39  1  0
 14 40  1  0
 15 41  1  0
 15 42  1  0
 16 43  1  0
 16 44  1  0
 17 45  1  0
 17 46  1  0
 18 47  1  0
 21 48  1  0
 22 49  1  0
 23 50  1  0
 24 51  1  0
M  END
$$$$
OCNT-2316870
     RDKit          3D

  0  0  0  0  0  0  0  0  0  0999 V3000
M  V30 BEGIN CTAB
M  V30 COUNTS 36 38 0 0 0
M  V30 BEGIN ATOM
M  V30 1 C 3.944401 -0.116177 -2.002057 0
M  V30 2 C 4.209962 -0.085006 -0.518247 0
M  V30 3 C 5.515232 -0.142628 0.005530 0
M  V30 4 Br 7.080360 -0.261369 -1.061236 0
M  V30 5 C 5.693343 -0.110382 1.383972 0
M  V30 6 N 4.684796 -0.024855 2.273443 0
M  V30 7 C 3.432121 0.034652 1.761187 0
M  V30 8 C 3.130869 0.011547 0.395913 0
M  V30 9 N 1.804280 0.079223 -0.098591 0
M  V30 10 C 0.644347 0.182250 0.635729 0
M  V30 11 O 0.527875 0.262289 1.847874 0
M  V30 12 C -0.577555 0.231037 -0.210257 0 CFG=1
M  V30 13 C -0.886446 -0.830296 -1.233576 0
M  V30 14 C -1.680070 -0.785754 0.048604 0 CFG=2
M  V30 15 C -3.114995 -0.317140 0.063530 0
M  V30 16 C -4.068184 -0.821650 -0.837690 0
M  V30 17 C -5.396842 -0.387755 -0.811127 0
M  V30 18 C -5.800503 0.556785 0.127920 0
M  V30 19 C -4.876202 1.053891 1.035479 0
M  V30 20 O -5.309569 1.969404 1.948592 0
M  V30 21 C -3.550365 0.625537 1.011824 0
M  V30 22 H 4.840558 -0.230674 -2.613800 0
M  V30 23 H 3.463773 0.817105 -2.314779 0
M  V30 24 H 3.292724 -0.961628 -2.248579 0
M  V30 25 H 6.683474 -0.153349 1.830422 0
M  V30 26 H 2.667017 0.103173 2.527496 0
M  V30 27 H 1.681420 0.058482 -1.101106 0
M  V30 28 H -0.893171 1.244468 -0.440939 0
M  V30 29 H -1.362125 -0.513304 -2.155125 0
M  V30 30 H -0.204092 -1.664014 -1.357578 0
M  V30 31 H -1.453226 -1.568732 0.772014 0
M  V30 32 H -3.773184 -1.568025 -1.572202 0
M  V30 33 H -6.115741 -0.790306 -1.519614 0
M  V30 34 H -6.831085 0.898029 0.157543 0
M  V30 35 H -4.569590 2.191345 2.537925 0
M  V30 36 H -2.833608 1.013828 1.731506 0
M  V30 END ATOM
M  V30 BEGIN BOND
M  V30 1 1 1 2
M  V30 2 2 2 3
M  V30 3 1 3 4
M  V30 4 1 3 5
M  V30 5 2 5 6
M  V30 6 1 6 7
M  V30 7 2 7 8
M  V30 8 1 8 9
M  V30 9 1 9 10
M  V30 10 2 10 11
M  V30 11 1 10 12
M  V30 12 1 12 13
M  V30 13 1 13 14
M  V30 14 1 14 15
M  V30 15 2 15 16
M  V30 16 1 16 17
M  V30 17 2 17 18
M  V30 18 1 18 19
M  V30 19 1 19 20
M  V30 20 2 19 21
M  V30 21 1 8 2
M  V30 22 1 14 12
M  V30 23 1 21 15
M  V30 24 1 1 22
M  V30 25 1 1 23
M  V30 26 1 1 24
M  V30 27 1 5 25
M  V30 28 1 7 26
M  V30 29 1 9 27
M  V30 30 1 12 28 CFG=3
M  V30 31 1 13 29
M  V30 32 1 13 30
M  V30 33 1 14 31 CFG=1
M  V30 34 1 16 32
M  V30 35 1 17 33
M  V30 36 1 18 34
M  V30 37 1 20 35
M  V30 38 1 21 36
M  V30 END BOND
M  V30 BEGIN COLLECTION
M  V30 MDLV30/STERAC1 ATOMS=(2 12 14)
M  V30 END COLLECTION
M  V30 END CTAB
M  END
>  <_CXSMILES_Data>  (1148) 
|&1:11,13|

$$$$
OCNT-2316874
     RDKit          3D

 43 45  0  0  0  0  0  0  0  0999 V2000
    0.6177   -1.6501   -0.7175 C   0  0  0  0  0  0  0  0  0  0  0  0
    0.6924   -0.4505    0.2490 C   0  0  0  0  0  0  0  0  0  0  0  0
    1.1245   -0.9868    1.6340 C   0  0  0  0  0  0  0  0  0  0  0  0
   -0.6827    0.0733    0.4844 N   0  0  0  0  0  0  0  0  0  0  0  0
   -1.3606    0.6552   -0.6714 C   0  0  0  0  0  0  0  0  0  0  0  0
   -2.7981    0.9651   -0.3229 C   0  0  0  0  0  0  0  0  0  0  0  0
   -3.1568    2.2424    0.1450 C   0  0  0  0  0  0  0  0  0  0  0  0
   -4.4808    2.5161    0.4679 C   0  0  0  0  0  0  0  0  0  0  0  0
   -5.5096    1.6458    0.3821 N   0  0  0  0  0  0  0  0  0  0  0  0
   -5.1256    0.4329   -0.0549 C   0  0  0  0  0  0  0  0  0  0  0  0
   -3.8455    0.0217   -0.4123 C   0  0  0  0  0  0  0  0  0  0  0  0
   -3.9537   -1.3465   -0.7952 C   0  0  0  0  0  0  0  0  0  0  0  0
   -5.2757   -1.7187   -0.6693 C   0  0  0  0  0  0  0  0  0  0  0  0
   -5.9736   -0.6277   -0.2195 N   0  0  0  0  0  0  0  0  0  0  0  0
    1.7054    0.6595   -0.2466 C   0  0  0  0  0  0  0  0  0  0  0  0
    1.4069    1.0779   -1.5865 O   0  0  0  0  0  0  0  0  0  0  0  0
    3.1833    0.3023   -0.1803 C   0  0  0  0  0  0  0  0  0  0  0  0
    3.9737    0.7747    0.8806 C   0  0  0  0  0  0  0  0  0  0  0  0
    5.3319    0.4555    0.9561 C   0  0  0  0  0  0  0  0  0  0  0  0
    5.9120   -0.3369   -0.0311 C   0  0  0  0  0  0  0  0  0  0  0  0
    7.7492   -0.7689    0.0710 Br  0  0  0  0  0  0  0  0  0  0  0  0
    5.1477   -0.8118   -1.0935 C   0  0  0  0  0  0  0  0  0  0  0  0
    3.7900   -0.4920   -1.1674 C   0  0  0  0  0  0  0  0  0  0  0  0
    1.5497   -2.2251   -0.7134 H   0  0  0  0  0  0  0  0  0  0  0  0
   -0.1785   -2.3454   -0.4242 H   0  0  0  0  0  0  0  0  0  0  0  0
    0.4254   -1.3435   -1.7505 H   0  0  0  0  0  0  0  0  0  0  0  0
    0.3908   -1.6985    2.0333 H   0  0  0  0  0  0  0  0  0  0  0  0
    2.0802   -1.5200    1.5838 H   0  0  0  0  0  0  0  0  0  0  0  0
    1.2291   -0.1749    2.3634 H   0  0  0  0  0  0  0  0  0  0  0  0
   -0.6714    0.7642    1.2321 H   0  0  0  0  0  0  0  0  0  0  0  0
   -0.8781    1.5850   -0.9892 H   0  0  0  0  0  0  0  0  0  0  0  0
   -1.3609   -0.0241   -1.5297 H   0  0  0  0  0  0  0  0  0  0  0  0
   -2.4090    3.0217    0.2530 H   0  0  0  0  0  0  0  0  0  0  0  0
   -4.7590    3.5050    0.8249 H   0  0  0  0  0  0  0  0  0  0  0  0
   -3.1451   -1.9878   -1.1213 H   0  0  0  0  0  0  0  0  0  0  0  0
   -5.7754   -2.6598   -0.8546 H   0  0  0  0  0  0  0  0  0  0  0  0
   -6.9624   -0.5841   -0.0239 H   0  0  0  0  0  0  0  0  0  0  0  0
    1.5530    1.5526    0.3744 H   0  0  0  0  0  0  0  0  0  0  0  0
    2.1766    1.5784   -1.9086 H   0  0  0  0  0  0  0  0  0  0  0  0
    3.5365    1.3931    1.6625 H   0  0  0  0  0  0  0  0  0  0  0  0
    5.9254    0.8280    1.7871 H   0  0  0  0  0  0  0  0  0  0  0  0
    5.5957   -1.4300   -1.8672 H   0  0  0  0  0  0  0  0  0  0  0  0
    3.2052   -0.8675   -2.0059 H   0  0  0  0  0  0  0  0  0  0  0  0
  1  2  1  0
  2  3  1  0
  2  4  1  0
  4  5  1  0
  5  6  1  0
  6  7  2  0
  7  8  1  0
  8  9  2  0
  9 10  1  0
 10 11  2  0
 11 12  1  0
 12 13  2  0
 13 14  1  0
  2 15  1  0
 15 16  1  0
 15 17  1  0
 17 18  1  0
 18 19  2  0
 19 20  1  0
 20 21  1  0
 20 22  2  0
 22 23  1  0
 11  6  1  0
 23 17  2  0
 14 10  1  0
  1 24  1  0
  1 25  1  0
  1 26  1  0
  3 27  1  0
  3 28  1  0
  3 29  1  0
  4 30  1  0
  5 31  1  0
  5 32  1  0
  7 33  1  0
  8 34  1  0
 12 35  1  0
 13 36  1  0
 14 37  1  0
 15 38  1  0
 16 39  1  0
 18 40  1  0
 19 41  1  0
 22 42  1  0
 23 43  1  0
M  END
$$$$
OCNT-2316883
     RDKit          3D

 44 46  0  0  0  0  0  0  0  0999 V2000
    5.6688   -0.6539   -2.1629 C   0  0  0  0  0  0  0  0  0  0  0  0
    5.3220   -0.1791   -0.7819 C   0  0  0  0  0  0  0  0  0  0  0  0
    6.2691   -0.2455    0.2445 C   0  0  0  0  0  0  0  0  0  0  0  0
    5.9623    0.1592    1.5480 C   0  0  0  0  0  0  0  0  0  0  0  0
    4.6666    0.6247    1.7955 C   0  0  0  0  0  0  0  0  0  0  0  0
    4.0956    1.0758    2.9619 N   0  0  0  0  0  0  0  0  0  0  0  0
    2.7911    1.4286    2.7453 C   0  0  0  0  0  0  0  0  0  0  0  0
    2.4958    1.2045    1.4146 C   0  0  0  0  0  0  0  0  0  0  0  0
    1.1813    1.4474    0.7466 C   0  0  0  0  0  0  0  0  0  0  0  0
    0.3192    0.1879    0.6759 C   0  0  0  0  0  0  0  0  0  0  0  0
   -0.9389    0.4366   -0.0115 N   0  0  0  0  0  0  0  0  0  0  0  0
   -1.9433   -0.4963    0.0686 C   0  0  0  0  0  0  0  0  0  0  0  0
   -1.9048   -1.5095    0.7496 O   0  0  0  0  0  0  0  0  0  0  0  0
   -3.0081   -0.1309   -0.7201 N   0  0  0  0  0  0  0  0  0  0  0  0
   -4.2186   -0.9344   -0.7261 C   0  0  0  0  0  0  0  0  0  0  0  0
   -5.1503   -0.5555   -1.8907 C   0  0  0  0  0  0  0  0  0  0  0  0
   -6.4638   -0.1276   -1.2452 C   0  0  0  0  0  0  0  0  0  0  0  0
   -6.4621   -0.8816    0.0650 C   0  0  0  0  0  0  0  0  0  0  0  0
   -6.7828   -2.1781   -0.1449 F   0  0  0  0  0  0  0  0  0  0  0  0
   -7.3478   -0.3723    0.9388 F   0  0  0  0  0  0  0  0  0  0  0  0
   -5.0402   -0.7610    0.5553 C   0  0  0  0  0  0  0  0  0  0  0  0
    3.6880    0.6950    0.8051 C   0  0  0  0  0  0  0  0  0  0  0  0
    4.0235    0.2794   -0.5013 C   0  0  0  0  0  0  0  0  0  0  0  0
    5.0967   -0.1064   -2.9193 H   0  0  0  0  0  0  0  0  0  0  0  0
    6.7300   -0.4897   -2.3777 H   0  0  0  0  0  0  0  0  0  0  0  0
    5.4494   -1.7218   -2.2571 H   0  0  0  0  0  0  0  0  0  0  0  0
    7.2701   -0.6189    0.0362 H   0  0  0  0  0  0  0  0  0  0  0  0
    6.7071    0.1060    2.3352 H   0  0  0  0  0  0  0  0  0  0  0  0
    4.5754    1.1321    3.8494 H   0  0  0  0  0  0  0  0  0  0  0  0
    2.1819    1.8053    3.5565 H   0  0  0  0  0  0  0  0  0  0  0  0
    0.6352    2.2344    1.2828 H   0  0  0  0  0  0  0  0  0  0  0  0
    1.3520    1.8380   -0.2648 H   0  0  0  0  0  0  0  0  0  0  0  0
    0.8353   -0.6136    0.1338 H   0  0  0  0  0  0  0  0  0  0  0  0
    0.1028   -0.1875    1.6836 H   0  0  0  0  0  0  0  0  0  0  0  0
   -0.8642    0.8506   -0.9295 H   0  0  0  0  0  0  0  0  0  0  0  0
   -3.1097    0.8694   -0.8210 H   0  0  0  0  0  0  0  0  0  0  0  0
   -3.9212   -1.9857   -0.8326 H   0  0  0  0  0  0  0  0  0  0  0  0
   -5.3206   -1.4382   -2.5193 H   0  0  0  0  0  0  0  0  0  0  0  0
   -4.7485    0.2323   -2.5365 H   0  0  0  0  0  0  0  0  0  0  0  0
   -6.4749    0.9538   -1.0679 H   0  0  0  0  0  0  0  0  0  0  0  0
   -7.3237   -0.3815   -1.8717 H   0  0  0  0  0  0  0  0  0  0  0  0
   -4.8752    0.2199    1.0170 H   0  0  0  0  0  0  0  0  0  0  0  0
   -4.7952   -1.5274    1.2972 H   0  0  0  0  0  0  0  0  0  0  0  0
    3.2751    0.3153   -1.2875 H   0  0  0  0  0  0  0  0  0  0  0  0
  1  2  1  0
  2  3  2  0
  3  4  1  0
  4  5  2  0
  5  6  1  0
  6  7  1  0
  7  8  2  0
  8  9  1  0
  9 10  1  0
 10 11  1  0
 11 12  1  0
 12 13  2  0
 12 14  1  0
 14 15  1  0
 15 16  1  0
 16 17  1  0
 17 18  1  0
 18 19  1  0
 18 20  1  0
 18 21  1  0
  8 22  1  0
 22 23  2  0
 23  2  1  0
 22  5  1  0
 21 15  1  0
  1 24  1  0
  1 25  1  0
  1 26  1  0
  3 27  1  0
  4 28  1  0
  6 29  1  0
  7 30  1  0
  9 31  1  0
  9 32  1  0
 10 33  1  0
 10 34  1  0
 11 35  1  0
 14 36  1  0
 15 37  1  0
 16 38  1  0
 16 39  1  0
 17 40  1  0
 17 41  1  0
 21 42  1  0
 21 43  1  0
 23 44  1  0
M  END
$$$$
OCNT-2316908
     RDKit          3D

 39 41  0  0  0  0  0  0  0  0999 V2000
   -5.9374    0.0935   -0.2633 C   0  0  0  0  0  0  0  0  0  0  0  0
   -4.4357    0.0586   -0.1684 C   0  0  0  0  0  0  0  0  0  0  0  0
   -3.8355   -0.3997    1.0150 C   0  0  0  0  0  0  0  0  0  0  0  0
   -2.4514   -0.4318    1.1022 C   0  0  0  0  0  0  0  0  0  0  0  0
   -1.6489   -0.0194    0.0418 C   0  0  0  0  0  0  0  0  0  0  0  0
   -2.2196    0.4361   -1.1344 C   0  0  0  0  0  0  0  0  0  0  0  0
   -3.6223    0.4794   -1.2507 C   0  0  0  0  0  0  0  0  0  0  0  0
   -4.2302    0.9770   -2.5352 C   0  0  0  0  0  0  0  0  0  0  0  0
   -0.2880   -0.1494    0.3816 N   0  0  0  0  0  0  0  0  0  0  0  0
    0.7898    0.1699   -0.4380 C   0  0  0  0  0  0  0  0  0  0  0  0
    0.6842    0.6132   -1.5817 O   0  0  0  0  0  0  0  0  0  0  0  0
    2.1710   -0.0729    0.1931 C   0  0  0  0  0  0  0  0  0  0  0  0
    3.2226    0.2752   -0.7002 O   0  0  0  0  0  0  0  0  0  0  0  0
    4.4988    0.1033   -0.2518 C   0  0  0  0  0  0  0  0  0  0  0  0
    5.5022    0.4541   -1.1518 C   0  0  0  0  0  0  0  0  0  0  0  0
    6.8404    0.3165   -0.7915 C   0  0  0  0  0  0  0  0  0  0  0  0
    7.1315   -0.1728    0.4705 C   0  0  0  0  0  0  0  0  0  0  0  0
    6.1901   -0.5243    1.3726 N   0  0  0  0  0  0  0  0  0  0  0  0
    4.8974   -0.3777    0.9893 C   0  0  0  0  0  0  0  0  0  0  0  0
   -0.2045   -0.6811    1.7534 C   0  0  0  0  0  0  0  0  0  0  0  0
   -1.6346   -0.8829    2.2675 C   0  0  0  0  0  0  0  0  0  0  0  0
   -6.2819   -0.5502   -1.0787 H   0  0  0  0  0  0  0  0  0  0  0  0
   -6.4067   -0.2642    0.6594 H   0  0  0  0  0  0  0  0  0  0  0  0
   -6.2840    1.1177   -0.4331 H   0  0  0  0  0  0  0  0  0  0  0  0
   -4.4416   -0.7265    1.8553 H   0  0  0  0  0  0  0  0  0  0  0  0
   -1.6011    0.7594   -1.9657 H   0  0  0  0  0  0  0  0  0  0  0  0
   -3.4614    1.2592   -3.2624 H   0  0  0  0  0  0  0  0  0  0  0  0
   -4.8443    0.1950   -2.9927 H   0  0  0  0  0  0  0  0  0  0  0  0
   -4.8452    1.8625   -2.3463 H   0  0  0  0  0  0  0  0  0  0  0  0
    2.2390    0.5479    1.0937 H   0  0  0  0  0  0  0  0  0  0  0  0
    2.2415   -1.1385    0.4395 H   0  0  0  0  0  0  0  0  0  0  0  0
    5.2388    0.8353   -2.1352 H   0  0  0  0  0  0  0  0  0  0  0  0
    7.6336    0.5848   -1.4799 H   0  0  0  0  0  0  0  0  0  0  0  0
    8.1593   -0.2985    0.7989 H   0  0  0  0  0  0  0  0  0  0  0  0
    4.1883   -0.6752    1.7531 H   0  0  0  0  0  0  0  0  0  0  0  0
    0.3467    0.0284    2.3804 H   0  0  0  0  0  0  0  0  0  0  0  0
    0.3496   -1.6262    1.7390 H   0  0  0  0  0  0  0  0  0  0  0  0
   -1.8241   -1.9346    2.5036 H   0  0  0  0  0  0  0  0  0  0  0  0
   -1.8267   -0.2667    3.1513 H   0  0  0  0  0  0  0  0  0  0  0  0
  1  2  1  0
  2  3  1  0
  3  4  2  0
  4  5  1  0
  5  6  2  0
  6  7  1  0
  7  8  1  0
  5  9  1  0
  9 10  1  0
 10 11  2  0
 10 12  1  0
 12 13  1  0
 13 14  1  0
 14 15  1  0
 15 16  2  0
 16 17  1  0
 17 18  2  0
 18 19  1  0
  9 20  1  0
 20 21  1  0
  7  2  2  0
 19 14  2  0
 21  4  1  0
  1 22  1  0
  1 23  1  0
  1 24  1  0
  3 25  1  0
  6 26  1  0
  8 27  1  0
  8 28  1  0
  8 29  1  0
 12 30  1  0
 12 31  1  0
 15 32  1  0
 16 33  1  0
 17 34  1  0
 19 35  1  0
 20 36  1  0
 20 37  1  0
 21 38  1  0
 21 39  1  0
M  END
$$$$
OCNT-2316911
     RDKit          3D

 42 44  0  0  0  0  0  0  0  0999 V2000
   -0.1696    1.8275    1.0973 C   0  0  0  0  0  0  0  0  0  0  0  0
   -0.9531    1.2318   -0.0155 C   0  0  0  0  0  0  0  0  0  0  0  0
   -0.7803    0.0292   -0.6805 C   0  0  0  0  0  0  0  0  0  0  0  0
    0.2243   -0.8821   -0.3995 N   0  0  0  0  0  0  0  0  0  0  0  0
    0.3700   -2.0941   -1.0476 C   0  0  0  0  0  0  0  0  0  0  0  0
   -0.3784   -2.5484   -1.9055 O   0  0  0  0  0  0  0  0  0  0  0  0
    1.5348   -2.9117   -0.6283 C   0  0  0  0  0  0  0  0  0  0  0  0
    2.7233   -2.3687   -0.1353 C   0  0  0  0  0  0  0  0  0  0  0  0
    3.7639   -3.2247    0.2271 C   0  0  0  0  0  0  0  0  0  0  0  0
    3.5838   -4.5929    0.0827 C   0  0  0  0  0  0  0  0  0  0  0  0
    4.6481   -5.3893    0.4258 O   0  0  0  0  0  0  0  0  0  0  0  0
    4.2976   -6.7584    0.4783 C   0  0  0  0  0  0  0  0  0  0  0  0
    3.6085   -6.9877    1.6254 F   0  0  0  0  0  0  0  0  0  0  0  0
    5.4633   -7.4519    0.5986 F   0  0  0  0  0  0  0  0  0  0  0  0
    2.4611   -5.1461   -0.4170 N   0  0  0  0  0  0  0  0  0  0  0  0
    1.4616   -4.2938   -0.7636 C   0  0  0  0  0  0  0  0  0  0  0  0
   -1.8087   -0.0081   -1.6405 C   0  0  0  0  0  0  0  0  0  0  0  0
   -2.5844    1.0745   -1.5929 N   0  0  0  0  0  0  0  0  0  0  0  0
   -2.0668    1.8132   -0.5893 N   0  0  0  0  0  0  0  0  0  0  0  0
   -2.7289    3.0717   -0.2933 C   0  0  0  0  0  0  0  0  0  0  0  0
   -1.9431    4.3109   -0.7377 C   0  0  0  0  0  0  0  0  0  0  0  0
   -2.4108    5.4005    0.2149 C   0  0  0  0  0  0  0  0  0  0  0  0
   -2.5469    4.6741    1.5435 C   0  0  0  0  0  0  0  0  0  0  0  0
   -3.1157    3.3052    1.1778 C   0  0  0  0  0  0  0  0  0  0  0  0
   -0.1509    2.9170    1.0610 H   0  0  0  0  0  0  0  0  0  0  0  0
    0.8735    1.4971    1.0606 H   0  0  0  0  0  0  0  0  0  0  0  0
   -0.5837    1.5173    2.0614 H   0  0  0  0  0  0  0  0  0  0  0  0
    0.8335   -0.6470    0.3695 H   0  0  0  0  0  0  0  0  0  0  0  0
    2.8727   -1.2968   -0.0541 H   0  0  0  0  0  0  0  0  0  0  0  0
    4.7012   -2.8332    0.6101 H   0  0  0  0  0  0  0  0  0  0  0  0
    3.7624   -7.1455   -0.3959 H   0  0  0  0  0  0  0  0  0  0  0  0
    0.5701   -4.7736   -1.1633 H   0  0  0  0  0  0  0  0  0  0  0  0
   -2.0286   -0.7734   -2.3737 H   0  0  0  0  0  0  0  0  0  0  0  0
   -3.6704    3.0575   -0.8624 H   0  0  0  0  0  0  0  0  0  0  0  0
   -0.8610    4.1690   -0.6470 H   0  0  0  0  0  0  0  0  0  0  0  0
   -2.1472    4.5690   -1.7820 H   0  0  0  0  0  0  0  0  0  0  0  0
   -3.3843    5.7915   -0.1046 H   0  0  0  0  0  0  0  0  0  0  0  0
   -1.7067    6.2360    0.2680 H   0  0  0  0  0  0  0  0  0  0  0  0
   -3.1896    5.2130    2.2461 H   0  0  0  0  0  0  0  0  0  0  0  0
   -1.5627    4.5594    2.0120 H   0  0  0  0  0  0  0  0  0  0  0  0
   -2.7720    2.5283    1.8666 H   0  0  0  0  0  0  0  0  0  0  0  0
   -4.2100    3.3339    1.2609 H   0  0  0  0  0  0  0  0  0  0  0  0
  1  2  1  0
  2  3  2  0
  3  4  1  0
  4  5  1  0
  5  6  2  0
  5  7  1  0
  7  8  2  0
  8  9  1  0
  9 10  2  0
 10 11  1  0
 11 12  1  0
 12 13  1  0
 12 14  1  0
 10 15  1  0
 15 16  2  0
  3 17  1  0
 17 18  2  0
 18 19  1  0
 19 20  1  0
 20 21  1  0
 21 22  1  0
 22 23  1  0
 23 24  1  0
 19  2  1  0
 24 20  1  0
 16  7  1  0
  1 25  1  0
  1 26  1  0
  1 27  1  0
  4 28  1  0
  8 29  1  0
  9 30  1  0
 12 31  1  0
 16 32  1  0
 17 33  1  0
 20 34  1  0
 21 35  1  0
 21 36  1  0
 22 37  1  0
 22 38  1  0
 23 39  1  0
 23 40  1  0
 24 41  1  0
 24 42  1  0
M  END
$$$$
OCNT-2316921
     RDKit          3D

 58 60  0  0  0  0  0  0  0  0999 V2000
    4.9530    0.7384    2.3395 C   0  0  0  0  0  0  0  0  0  0  0  0
    4.8438    1.3598    1.0629 O   0  0  0  0  0  0  0  0  0  0  0  0
    4.3086    0.6041    0.0480 C   0  0  0  0  0  0  0  0  0  0  0  0
    3.7121   -0.6506    0.2168 C   0  0  0  0  0  0  0  0  0  0  0  0
    3.1961   -1.3634   -0.8811 C   0  0  0  0  0  0  0  0  0  0  0  0
    2.5311   -2.7003   -0.6642 C   0  0  0  0  0  0  0  0  0  0  0  0
    1.1960   -2.5535    0.0459 C   0  0  0  0  0  0  0  0  0  0  0  0
    1.0520   -2.8210    1.2343 O   0  0  0  0  0  0  0  0  0  0  0  0
    0.1875   -2.0590   -0.7584 N   0  0  0  0  0  0  0  0  0  0  0  0
   -1.1466   -1.7675   -0.2585 C   0  0  0  0  0  0  0  0  0  0  0  0
   -1.5274   -0.2441   -0.2524 C   0  0  0  0  0  0  0  0  0  0  0  0
   -2.9594   -0.0609    0.1567 N   0  0  0  0  0  0  0  0  0  0  0  0
   -3.9576   -0.8463   -0.5791 C   0  0  0  0  0  0  0  0  0  0  0  0
   -5.3549   -0.2291   -0.4216 C   0  0  0  0  0  0  0  0  0  0  0  0
   -5.6526    0.2263    1.0046 C   0  0  0  0  0  0  0  0  0  0  0  0
   -4.6718   -0.4011    1.9945 C   0  0  0  0  0  0  0  0  0  0  0  0
   -3.2166   -0.0769    1.6092 C   0  0  0  0  0  0  0  0  0  0  0  0
   -0.5149    0.5480    0.6447 C   0  0  0  0  0  0  0  0  0  0  0  0
   -0.2159    1.9686    0.1559 C   0  0  0  0  0  0  0  0  0  0  0  0
   -1.3254    2.5463   -0.5120 O   0  0  0  0  0  0  0  0  0  0  0  0
   -1.6887    1.8494   -1.7026 C   0  0  0  0  0  0  0  0  0  0  0  0
   -1.3544    0.3545   -1.6742 C   0  0  0  0  0  0  0  0  0  0  0  0
    3.2759   -0.7990   -2.1556 C   0  0  0  0  0  0  0  0  0  0  0  0
    3.8596    0.4561   -2.3340 C   0  0  0  0  0  0  0  0  0  0  0  0
    4.3768    1.1662   -1.2396 C   0  0  0  0  0  0  0  0  0  0  0  0
    5.0047    2.5179   -1.4550 C   0  0  0  0  0  0  0  0  0  0  0  0
    3.9625    0.5870    2.7821 H   0  0  0  0  0  0  0  0  0  0  0  0
    5.5078   -0.2028    2.2765 H   0  0  0  0  0  0  0  0  0  0  0  0
    5.5150    1.4122    2.9960 H   0  0  0  0  0  0  0  0  0  0  0  0
    3.6269   -1.1018    1.2024 H   0  0  0  0  0  0  0  0  0  0  0  0
    2.3779   -3.2233   -1.6106 H   0  0  0  0  0  0  0  0  0  0  0  0
    3.1830   -3.3402   -0.0639 H   0  0  0  0  0  0  0  0  0  0  0  0
    0.3839   -1.8854   -1.7370 H   0  0  0  0  0  0  0  0  0  0  0  0
   -1.2547   -2.1817    0.7484 H   0  0  0  0  0  0  0  0  0  0  0  0
   -1.8145   -2.3299   -0.9184 H   0  0  0  0  0  0  0  0  0  0  0  0
   -3.7502   -0.8906   -1.6515 H   0  0  0  0  0  0  0  0  0  0  0  0
   -3.9710   -1.8862   -0.2222 H   0  0  0  0  0  0  0  0  0  0  0  0
   -6.1002   -0.9710   -0.7294 H   0  0  0  0  0  0  0  0  0  0  0  0
   -5.4667    0.6256   -1.1008 H   0  0  0  0  0  0  0  0  0  0  0  0
   -5.5762    1.3221    1.0570 H   0  0  0  0  0  0  0  0  0  0  0  0
   -6.6840   -0.0353    1.2725 H   0  0  0  0  0  0  0  0  0  0  0  0
   -4.8724   -0.0371    3.0118 H   0  0  0  0  0  0  0  0  0  0  0  0
   -4.8215   -1.4951    2.0133 H   0  0  0  0  0  0  0  0  0  0  0  0
   -2.9825    0.9217    2.0042 H   0  0  0  0  0  0  0  0  0  0  0  0
   -2.5751   -0.8030    2.1277 H   0  0  0  0  0  0  0  0  0  0  0  0
   -0.8445    0.5965    1.6864 H   0  0  0  0  0  0  0  0  0  0  0  0
    0.4480    0.0312    0.7117 H   0  0  0  0  0  0  0  0  0  0  0  0
    0.0405    2.6065    1.0091 H   0  0  0  0  0  0  0  0  0  0  0  0
    0.6521    1.9767   -0.5179 H   0  0  0  0  0  0  0  0  0  0  0  0
   -1.1916    2.3311   -2.5528 H   0  0  0  0  0  0  0  0  0  0  0  0
   -2.7656    1.9947   -1.8418 H   0  0  0  0  0  0  0  0  0  0  0  0
   -1.9333   -0.1732   -2.4376 H   0  0  0  0  0  0  0  0  0  0  0  0
   -0.3066    0.2421   -1.9852 H   0  0  0  0  0  0  0  0  0  0  0  0
    2.8893   -1.3300   -3.0257 H   0  0  0  0  0  0  0  0  0  0  0  0
    3.9168    0.8769   -3.3390 H   0  0  0  0  0  0  0  0  0  0  0  0
    6.0551    2.5041   -1.1403 H   0  0  0  0  0  0  0  0  0  0  0  0
    4.4633    3.2829   -0.8883 H   0  0  0  0  0  0  0  0  0  0  0  0
    4.9776    2.8123   -2.5089 H   0  0  0  0  0  0  0  0  0  0  0  0
  1  2  1  0
  2  3  1  0
  3  4  1  0
  4  5  2  0
  5  6  1  0
  6  7  1  0
  7  8  2  0
  7  9  1  0
  9 10  1  0
 10 11  1  0
 11 12  1  0
 12 13  1  0
 13 14  1  0
 14 15  1  0
 15 16  1  0
 16 17  1  0
 11 18  1  0
 18 19  1  0
 19 20  1  0
 20 21  1  0
 21 22  1  0
  5 23  1  0
 23 24  2  0
 24 25  1  0
 25 26  1  0
 25  3  2  0
 22 11  1  0
 17 12  1  0
  1 27  1  0
  1 28  1  0
  1 29  1  0
  4 30  1  0
  6 31  1  0
  6 32  1  0
  9 33  1  0
 10 34  1  0
 10 35  1  0
 13 36  1  0
 13 37  1  0
 14 38  1  0
 14 39  1  0
 15 40  1  0
 15 41  1  0
 16 42  1  0
 16 43  1  0
 17 44  1  0
 17 45  1  0
 18 46  1  0
 18 47  1  0
 19 48  1  0
 19 49  1  0
 21 50  1  0
 21 51  1  0
 22 52  1  0
 22 53  1  0
 23 54  1  0
 24 55  1  0
 26 56  1  0
 26 57  1  0
 26 58  1  0
M  END
$$$$
OCNT-2316942
     RDKit          3D

 40 44  0  0  0  0  0  0  0  0999 V2000
    5.8919   -0.4730    2.5937 C   0  0  0  0  0  0  0  0  0  0  0  0
    5.4041   -0.8235    1.2210 C   0  0  0  0  0  0  0  0  0  0  0  0
    6.2626   -1.4006    0.2860 C   0  0  0  0  0  0  0  0  0  0  0  0
    5.7745   -1.6767   -0.9806 C   0  0  0  0  0  0  0  0  0  0  0  0
    4.5113   -1.4121   -1.3745 N   0  0  0  0  0  0  0  0  0  0  0  0
    3.6810   -0.8349   -0.4668 C   0  0  0  0  0  0  0  0  0  0  0  0
    2.3089   -0.5384   -0.8936 C   0  0  0  0  0  0  0  0  0  0  0  0
    1.8543   -0.6993   -2.1489 N   0  0  0  0  0  0  0  0  0  0  0  0
    0.5270   -0.2874   -2.0833 O   0  0  0  0  0  0  0  0  0  0  0  0
    0.2926    0.0717   -0.7896 C   0  0  0  0  0  0  0  0  0  0  0  0
   -1.0857    0.5150   -0.4407 C   0  0  0  0  0  0  0  0  0  0  0  0
   -2.0929   -0.6627   -0.5291 C   0  0  0  0  0  0  0  0  0  0  0  0
   -3.5022   -0.2494   -0.6635 N   0  0  0  0  0  0  0  0  0  0  0  0
   -4.4420   -0.8961    0.2536 C   0  0  0  0  0  0  0  0  0  0  0  0
   -5.0535    0.3312    0.9142 C   0  0  0  0  0  0  0  0  0  0  0  0
   -3.8025    1.1698    1.2885 C   0  0  0  0  0  0  0  0  0  0  0  0
   -3.6515    1.1795   -0.2852 C   0  0  0  0  0  0  0  0  0  0  0  0
   -2.7477    2.1412   -1.0210 C   0  0  0  0  0  0  0  0  0  0  0  0
   -1.4479    1.5924   -1.3163 O   0  0  0  0  0  0  0  0  0  0  0  0
   -5.2150    1.3540   -0.2526 C   0  0  0  0  0  0  0  0  0  0  0  0
    1.3459   -0.0671   -0.0138 N   0  0  0  0  0  0  0  0  0  0  0  0
    4.0945   -0.5269    0.8299 C   0  0  0  0  0  0  0  0  0  0  0  0
    6.6394   -1.1958    2.9368 H   0  0  0  0  0  0  0  0  0  0  0  0
    6.3395    0.5256    2.5887 H   0  0  0  0  0  0  0  0  0  0  0  0
    5.0701   -0.4879    3.3175 H   0  0  0  0  0  0  0  0  0  0  0  0
    7.2930   -1.6344    0.5326 H   0  0  0  0  0  0  0  0  0  0  0  0
    6.4078   -2.1311   -1.7376 H   0  0  0  0  0  0  0  0  0  0  0  0
   -1.0592    0.9115    0.5820 H   0  0  0  0  0  0  0  0  0  0  0  0
   -1.9276   -1.3237    0.3317 H   0  0  0  0  0  0  0  0  0  0  0  0
   -1.8755   -1.2697   -1.4172 H   0  0  0  0  0  0  0  0  0  0  0  0
   -3.9761   -1.5536    0.9954 H   0  0  0  0  0  0  0  0  0  0  0  0
   -5.1919   -1.4684   -0.3015 H   0  0  0  0  0  0  0  0  0  0  0  0
   -5.8536    0.2224    1.6436 H   0  0  0  0  0  0  0  0  0  0  0  0
   -3.9998    2.1437    1.7530 H   0  0  0  0  0  0  0  0  0  0  0  0
   -3.0332    0.6616    1.8778 H   0  0  0  0  0  0  0  0  0  0  0  0
   -2.6046    3.0634   -0.4483 H   0  0  0  0  0  0  0  0  0  0  0  0
   -3.1869    2.4239   -1.9833 H   0  0  0  0  0  0  0  0  0  0  0  0
   -5.5812    2.3484    0.0298 H   0  0  0  0  0  0  0  0  0  0  0  0
   -5.7726    1.0162   -1.1327 H   0  0  0  0  0  0  0  0  0  0  0  0
    3.4048   -0.0588    1.5267 H   0  0  0  0  0  0  0  0  0  0  0  0
  1  2  1  0
  2  3  2  0
  3  4  1  0
  4  5  2  0
  5  6  1  0
  6  7  1  0
  7  8  2  0
  8  9  1  0
  9 10  1  0
 10 11  1  0
 11 12  1  0
 12 13  1  0
 13 14  1  0
 14 15  1  0
 15 16  1  0
 16 17  1  0
 17 18  1  0
 18 19  1  0
 17 20  1  0
 10 21  2  0
  6 22  2  0
 22  2  1  0
 21  7  1  0
 19 11  1  0
 17 13  1  0
 20 15  1  0
  1 23  1  0
  1 24  1  0
  1 25  1  0
  3 26  1  0
  4 27  1  0
 11 28  1  0
 12 29  1  0
 12 30  1  0
 14 31  1  0
 14 32  1  0
 15 33  1  0
 16 34  1  0
 16 35  1  0
 18 36  1  0
 18 37  1  0
 20 38  1  0
 20 39  1  0
 22 40  1  0
M  END
$$$$
OCNT-2316951
     RDKit          3D

 52 55  0  0  0  0  0  0  0  0999 V2000
    9.0677   -0.3613    0.2950 C   0  0  0  0  0  0  0  0  0  0  0  0
    7.7911   -0.1851   -0.4318 C   0  0  0  0  0  0  0  0  0  0  0  0
    7.5628   -0.8520   -1.5692 N   0  0  0  0  0  0  0  0  0  0  0  0
    6.3008   -0.4656   -1.9846 O   0  0  0  0  0  0  0  0  0  0  0  0
    5.7874    0.4359   -1.1026 C   0  0  0  0  0  0  0  0  0  0  0  0
    4.4396    0.9792   -1.4186 C   0  0  0  0  0  0  0  0  0  0  0  0
    3.3568    0.1535   -0.8708 N   0  0  0  0  0  0  0  0  0  0  0  0
    2.0732    0.4323   -1.5253 C   0  0  0  0  0  0  0  0  0  0  0  0
    0.9442   -0.4424   -0.9490 C   0  0  0  0  0  0  0  0  0  0  0  0
    0.8186   -0.3398    0.5067 N   0  0  0  0  0  0  0  0  0  0  0  0
   -0.2448   -0.8115    1.2486 C   0  0  0  0  0  0  0  0  0  0  0  0
   -0.3945   -0.5426    2.4377 O   0  0  0  0  0  0  0  0  0  0  0  0
   -1.1266   -1.6048    0.5702 N   0  0  0  0  0  0  0  0  0  0  0  0
   -2.3158   -2.1405    1.1881 C   0  0  0  0  0  0  0  0  0  0  0  0
   -3.5347   -1.3749    0.7438 C   0  0  0  0  0  0  0  0  0  0  0  0
   -3.8336   -0.1306    1.3103 C   0  0  0  0  0  0  0  0  0  0  0  0
   -4.9524    0.6003    0.8914 C   0  0  0  0  0  0  0  0  0  0  0  0
   -5.7981    0.1022   -0.1126 C   0  0  0  0  0  0  0  0  0  0  0  0
   -6.9347    0.8537   -0.5327 N   0  0  0  0  0  0  0  0  0  0  0  0
   -7.3347    2.0890   -0.0579 C   0  0  0  0  0  0  0  0  0  0  0  0
   -8.4737    2.4236   -0.7496 C   0  0  0  0  0  0  0  0  0  0  0  0
   -8.8006    1.4461   -1.6387 N   0  0  0  0  0  0  0  0  0  0  0  0
   -7.8740    0.5237   -1.4884 C   0  0  0  0  0  0  0  0  0  0  0  0
   -5.4861   -1.1392   -0.6791 C   0  0  0  0  0  0  0  0  0  0  0  0
   -6.2302   -1.6875   -1.6480 F   0  0  0  0  0  0  0  0  0  0  0  0
   -4.3704   -1.8685   -0.2612 C   0  0  0  0  0  0  0  0  0  0  0  0
    1.8457    0.4509    1.1788 C   0  0  0  0  0  0  0  0  0  0  0  0
    3.2589    0.2129    0.6031 C   0  0  0  0  0  0  0  0  0  0  0  0
    6.7013    0.6499   -0.0987 C   0  0  0  0  0  0  0  0  0  0  0  0
    8.9439   -0.1403    1.3602 H   0  0  0  0  0  0  0  0  0  0  0  0
    9.8288    0.3142   -0.1078 H   0  0  0  0  0  0  0  0  0  0  0  0
    9.4361   -1.3888    0.2065 H   0  0  0  0  0  0  0  0  0  0  0  0
    4.3560    2.0155   -1.0667 H   0  0  0  0  0  0  0  0  0  0  0  0
    4.3551    1.0205   -2.5128 H   0  0  0  0  0  0  0  0  0  0  0  0
    1.8097    1.4925   -1.4136 H   0  0  0  0  0  0  0  0  0  0  0  0
    2.1482    0.2264   -2.6001 H   0  0  0  0  0  0  0  0  0  0  0  0
   -0.0094   -0.1527   -1.4049 H   0  0  0  0  0  0  0  0  0  0  0  0
    1.1260   -1.4972   -1.1879 H   0  0  0  0  0  0  0  0  0  0  0  0
   -0.9523   -1.8398   -0.3910 H   0  0  0  0  0  0  0  0  0  0  0  0
   -2.3923   -3.1914    0.8883 H   0  0  0  0  0  0  0  0  0  0  0  0
   -2.2387   -2.1233    2.2810 H   0  0  0  0  0  0  0  0  0  0  0  0
   -3.1855    0.2806    2.0854 H   0  0  0  0  0  0  0  0  0  0  0  0
   -5.1234    1.5563    1.3767 H   0  0  0  0  0  0  0  0  0  0  0  0
   -6.8066    2.6311    0.7100 H   0  0  0  0  0  0  0  0  0  0  0  0
   -9.0721    3.3203   -0.6499 H   0  0  0  0  0  0  0  0  0  0  0  0
   -7.8545   -0.3956   -2.0547 H   0  0  0  0  0  0  0  0  0  0  0  0
   -4.1688   -2.8260   -0.7344 H   0  0  0  0  0  0  0  0  0  0  0  0
    1.8540    0.2434    2.2544 H   0  0  0  0  0  0  0  0  0  0  0  0
    1.5657    1.5046    1.0549 H   0  0  0  0  0  0  0  0  0  0  0  0
    3.6238   -0.7503    0.9810 H   0  0  0  0  0  0  0  0  0  0  0  0
    3.9151    0.9827    1.0276 H   0  0  0  0  0  0  0  0  0  0  0  0
    6.5985    1.3105    0.7482 H   0  0  0  0  0  0  0  0  0  0  0  0
  1  2  1  0
  2  3  2  0
  3  4  1  0
  4  5  1  0
  5  6  1  0
  6  7  1  0
  7  8  1  0
  8  9  1  0
  9 10  1  0
 10 11  1  0
 11 12  2  0
 11 13  1  0
 13 14  1  0
 14 15  1  0
 15 16  1  0
 16 17  2  0
 17 18  1  0
 18 19  1  0
 19 20  1  0
 20 21  2  0
 21 22  1  0
 22 23  2  0
 18 24  2  0
 24 25  1  0
 24 26  1  0
 10 27  1  0
 27 28  1  0
  5 29  2  0
 29  2  1  0
 28  7  1  0
 26 15  2  0
 23 19  1  0
  1 30  1  0
  1 31  1  0
  1 32  1  0
  6 33  1  0
  6 34  1  0
  8 35  1  0
  8 36  1  0
  9 37  1  0
  9 38  1  0
 13 39  1  0
 14 40  1  0
 14 41  1  0
 16 42  1  0
 17 43  1  0
 20 44  1  0
 21 45  1  0
 23 46  1  0
 26 47  1  0
 27 48  1  0
 27 49  1  0
 28 50  1  0
 28 51  1  0
 29 52  1  0
M  END
$$$$
OCNT-2316959
     RDKit          3D

 46 48  0  0  0  0  0  0  0  0999 V2000
   -3.1329    2.1662    1.4366 C   0  0  0  0  0  0  0  0  0  0  0  0
   -2.2108    1.0969    0.8481 C   0  0  0  0  0  0  0  0  0  0  0  0
   -1.4805    1.6210   -0.4053 C   0  0  0  0  0  0  0  0  0  0  0  0
   -0.7375    0.5293   -1.1850 C   0  0  0  0  0  0  0  0  0  0  0  0
   -0.6833   -0.7113   -0.4183 N   0  0  0  0  0  0  0  0  0  0  0  0
    0.4059   -1.1107    0.3552 C   0  0  0  0  0  0  0  0  0  0  0  0
    0.2912   -1.9750    1.2277 O   0  0  0  0  0  0  0  0  0  0  0  0
    1.7577   -0.4071    0.1102 C   0  0  1  0  0  0  0  0  0  0  0  0
    1.6827    0.9241    0.6358 O   0  0  0  0  0  0  0  0  0  0  0  0
    2.9104   -1.1807    0.7735 C   0  0  0  0  0  0  0  0  0  0  0  0
    4.2614   -0.8118    0.1995 C   0  0  0  0  0  0  0  0  0  0  0  0
    4.8801    0.3978    0.5429 C   0  0  0  0  0  0  0  0  0  0  0  0
    6.1216    0.7371    0.0027 C   0  0  0  0  0  0  0  0  0  0  0  0
    6.7567   -0.1279   -0.8859 C   0  0  0  0  0  0  0  0  0  0  0  0
    6.1504   -1.3324   -1.2363 C   0  0  0  0  0  0  0  0  0  0  0  0
    4.9083   -1.6732   -0.6979 C   0  0  0  0  0  0  0  0  0  0  0  0
   -1.9990   -1.2814   -0.1295 C   0  0  0  0  0  0  0  0  0  0  0  0
   -2.9008   -0.2819    0.6348 C   0  0  0  0  0  0  0  0  0  0  0  0
   -4.2305   -0.2044    0.0397 N   0  0  0  0  0  0  0  0  0  0  0  0
   -5.4019   -0.5424    0.6643 C   0  0  0  0  0  0  0  0  0  0  0  0
   -6.3847   -0.3182   -0.2705 C   0  0  0  0  0  0  0  0  0  0  0  0
   -5.8432    0.1398   -1.4418 N   0  0  0  0  0  0  0  0  0  0  0  0
   -4.5487    0.1974   -1.2270 C   0  0  0  0  0  0  0  0  0  0  0  0
   -2.5584    3.0585    1.7082 H   0  0  0  0  0  0  0  0  0  0  0  0
   -3.9052    2.4762    0.7257 H   0  0  0  0  0  0  0  0  0  0  0  0
   -3.6256    1.7992    2.3430 H   0  0  0  0  0  0  0  0  0  0  0  0
   -1.4302    0.9268    1.6054 H   0  0  0  0  0  0  0  0  0  0  0  0
   -0.7602    2.3882   -0.0926 H   0  0  0  0  0  0  0  0  0  0  0  0
   -2.1763    2.1321   -1.0813 H   0  0  0  0  0  0  0  0  0  0  0  0
    0.2511    0.8820   -1.4840 H   0  0  0  0  0  0  0  0  0  0  0  0
   -1.2758    0.3084   -2.1147 H   0  0  0  0  0  0  0  0  0  0  0  0
    1.9296   -0.3509   -0.9704 H   0  0  0  0  0  0  0  0  0  0  0  0
    1.5849    0.8391    1.6013 H   0  0  0  0  0  0  0  0  0  0  0  0
    2.7651   -2.2616    0.6500 H   0  0  0  0  0  0  0  0  0  0  0  0
    2.9313   -0.9950    1.8553 H   0  0  0  0  0  0  0  0  0  0  0  0
    4.3960    1.0881    1.2299 H   0  0  0  0  0  0  0  0  0  0  0  0
    6.5920    1.6784    0.2746 H   0  0  0  0  0  0  0  0  0  0  0  0
    7.7234    0.1371   -1.3056 H   0  0  0  0  0  0  0  0  0  0  0  0
    6.6454   -2.0077   -1.9292 H   0  0  0  0  0  0  0  0  0  0  0  0
    4.4517   -2.6183   -0.9832 H   0  0  0  0  0  0  0  0  0  0  0  0
   -2.4316   -1.5777   -1.0927 H   0  0  0  0  0  0  0  0  0  0  0  0
   -1.9041   -2.2061    0.4509 H   0  0  0  0  0  0  0  0  0  0  0  0
   -3.0647   -0.7033    1.6374 H   0  0  0  0  0  0  0  0  0  0  0  0
   -5.4441   -0.8985    1.6842 H   0  0  0  0  0  0  0  0  0  0  0  0
   -7.4519   -0.4633   -0.1623 H   0  0  0  0  0  0  0  0  0  0  0  0
   -3.8153    0.5172   -1.9544 H   0  0  0  0  0  0  0  0  0  0  0  0
  1  2  1  0
  2  3  1  0
  3  4  1  0
  4  5  1  0
  5  6  1  0
  6  7  2  0
  6  8  1  0
  8  9  1  0
  8 10  1  0
 10 11  1  0
 11 12  2  0
 12 13  1  0
 13 14  2  0
 14 15  1  0
 15 16  2  0
  5 17  1  0
 17 18  1  0
 18 19  1  0
 19 20  1  0
 20 21  2  0
 21 22  1  0
 22 23  2  0
 18  2  1  0
 23 19  1  0
 16 11  1  0
  1 24  1  0
  1 25  1  0
  1 26  1  0
  2 27  1  0
  3 28  1  0
  3 29  1  0
  4 30  1  0
  4 31  1  0
  8 32  1  6
  9 33  1  0
 10 34  1  0
 10 35  1  0
 12 36  1  0
 13 37  1  0
 14 38  1  0
 15 39  1  0
 16 40  1  0
 17 41  1  0
 17 42  1  0
 18 43  1  0
 20 44  1  0
 21 45  1  0
 23 46  1  0
M  END
$$$$
OCNT-2316968
     RDKit          3D

 46 49  0  0  0  0  0  0  0  0999 V2000
   -4.4071    3.4131    0.9328 C   0  0  0  0  0  0  0  0  0  0  0  0
   -3.6096    2.2772    0.6258 O   0  0  0  0  0  0  0  0  0  0  0  0
   -4.2664    1.1374    0.2285 C   0  0  0  0  0  0  0  0  0  0  0  0
   -5.6433    0.9446    0.3444 C   0  0  0  0  0  0  0  0  0  0  0  0
   -6.3060   -0.1538   -0.0834 N   0  0  0  0  0  0  0  0  0  0  0  0
   -5.5566   -1.1051   -0.6663 C   0  0  0  0  0  0  0  0  0  0  0  0
   -4.1803   -1.0188   -0.8240 C   0  0  0  0  0  0  0  0  0  0  0  0
   -3.4887    0.1071   -0.3556 C   0  0  0  0  0  0  0  0  0  0  0  0
   -2.0985    0.2241   -0.4868 N   0  0  0  0  0  0  0  0  0  0  0  0
   -1.3296    0.4325    0.7655 C   0  0  0  0  0  0  0  0  0  0  0  0
   -0.7099   -0.8940    1.2633 C   0  0  0  0  0  0  0  0  0  0  0  0
    0.0679   -1.5376    0.1944 N   0  0  0  0  0  0  0  0  0  0  0  0
    1.4447   -1.3680    0.0294 C   0  0  0  0  0  0  0  0  0  0  0  0
    1.9717   -1.5013   -1.0761 O   0  0  0  0  0  0  0  0  0  0  0  0
    2.2385   -0.9952    1.2742 C   0  0  0  0  0  0  0  0  0  0  0  0
    3.7165   -1.1856    1.1151 C   0  0  0  0  0  0  0  0  0  0  0  0
    4.2924   -2.1756    1.8014 N   0  0  0  0  0  0  0  0  0  0  0  0
    5.9139   -2.1751    1.4912 S   0  0  0  0  0  0  0  0  0  0  0  0
    5.9164   -0.8066    0.4546 C   0  0  0  0  0  0  0  0  0  0  0  0
    6.9949   -0.1852   -0.1977 C   0  0  0  0  0  0  0  0  0  0  0  0
    6.7330    0.9293   -0.9977 C   0  0  0  0  0  0  0  0  0  0  0  0
    5.4366    1.4072   -1.1450 C   0  0  0  0  0  0  0  0  0  0  0  0
    4.3701    0.7804   -0.4907 C   0  0  0  0  0  0  0  0  0  0  0  0
    4.6023   -0.3501    0.3304 C   0  0  0  0  0  0  0  0  0  0  0  0
   -0.7374   -1.8103   -1.0013 C   0  0  0  0  0  0  0  0  0  0  0  0
   -1.3595   -0.5078   -1.5428 C   0  0  0  0  0  0  0  0  0  0  0  0
   -4.9760    3.2531    1.8542 H   0  0  0  0  0  0  0  0  0  0  0  0
   -5.0674    3.6756    0.0994 H   0  0  0  0  0  0  0  0  0  0  0  0
   -3.7330    4.2583    1.1019 H   0  0  0  0  0  0  0  0  0  0  0  0
   -6.2942    1.6843    0.7971 H   0  0  0  0  0  0  0  0  0  0  0  0
   -6.1030   -1.9768   -1.0156 H   0  0  0  0  0  0  0  0  0  0  0  0
   -3.6721   -1.8493   -1.2965 H   0  0  0  0  0  0  0  0  0  0  0  0
   -1.9268    0.8566    1.5787 H   0  0  0  0  0  0  0  0  0  0  0  0
   -0.5263    1.1481    0.5508 H   0  0  0  0  0  0  0  0  0  0  0  0
   -1.5023   -1.5939    1.5544 H   0  0  0  0  0  0  0  0  0  0  0  0
   -0.0990   -0.7019    2.1474 H   0  0  0  0  0  0  0  0  0  0  0  0
    2.0352    0.0557    1.5108 H   0  0  0  0  0  0  0  0  0  0  0  0
    1.8868   -1.6092    2.1122 H   0  0  0  0  0  0  0  0  0  0  0  0
    8.0068   -0.5624   -0.0858 H   0  0  0  0  0  0  0  0  0  0  0  0
    7.5526    1.4231   -1.5151 H   0  0  0  0  0  0  0  0  0  0  0  0
    5.2454    2.2696   -1.7795 H   0  0  0  0  0  0  0  0  0  0  0  0
    3.3605    1.1575   -0.6321 H   0  0  0  0  0  0  0  0  0  0  0  0
   -1.5168   -2.5215   -0.7067 H   0  0  0  0  0  0  0  0  0  0  0  0
   -0.1362   -2.2914   -1.7795 H   0  0  0  0  0  0  0  0  0  0  0  0
   -0.5530    0.1496   -1.8922 H   0  0  0  0  0  0  0  0  0  0  0  0
   -1.9875   -0.7079   -2.4183 H   0  0  0  0  0  0  0  0  0  0  0  0
  1  2  1  0
  2  3  1  0
  3  4  2  0
  4  5  1  0
  5  6  2  0
  6  7  1  0
  7  8  2  0
  8  9  1  0
  9 10  1  0
 10 11  1  0
 11 12  1  0
 12 13  1  0
 13 14  2  0
 13 15  1  0
 15 16  1  0
 16 17  2  0
 17 18  1  0
 18 19  1  0
 19 20  2  0
 20 21  1  0
 21 22  2  0
 22 23  1  0
 23 24  2  0
 12 25  1  0
 25 26  1  0
  8  3  1  0
 26  9  1  0
 24 16  1  0
 24 19  1  0
  1 27  1  0
  1 28  1  0
  1 29  1  0
  4 30  1  0
  6 31  1  0
  7 32  1  0
 10 33  1  0
 10 34  1  0
 11 35  1  0
 11 36  1  0
 15 37  1  0
 15 38  1  0
 20 39  1  0
 21 40  1  0
 22 41  1  0
 23 42  1  0
 25 43  1  0
 25 44  1  0
 26 45  1  0
 26 46  1  0
M  END
$$$$
OCNT-2316971
     RDKit          3D

  0  0  0  0  0  0  0  0  0  0999 V3000
M  V30 BEGIN CTAB
M  V30 COUNTS 40 43 0 0 0
M  V30 BEGIN ATOM
M  V30 1 C 8.386279 0.998350 -1.249043 0
M  V30 2 C 7.265980 0.624177 -1.032488 0
M  V30 3 C 5.933535 0.178908 -0.774741 0
M  V30 4 C 5.062451 0.937509 0.000715 0
M  V30 5 C 3.766561 0.471777 0.234781 0
M  V30 6 C 3.377605 -0.747333 -0.318774 0
M  V30 7 C 2.040073 -1.308597 -0.131509 0
M  V30 8 N 1.668915 -2.574078 -0.215467 0
M  V30 9 N 0.318113 -2.660225 0.032090 0
M  V30 10 C -0.131345 -1.445008 0.247218 0
M  V30 11 C -1.547111 -1.053395 0.549279 0 CFG=1
M  V30 12 C -1.741027 -0.776610 2.027875 0
M  V30 13 C -1.375784 0.687714 2.165400 0
M  V30 14 O -1.443147 1.283510 0.857845 0
M  V30 15 C -1.924553 0.291370 -0.082650 0 CFG=2
M  V30 16 C -3.411108 0.456091 -0.361968 0
M  V30 17 C -4.050852 -0.426864 -1.249435 0
M  V30 18 C -5.411291 -0.295398 -1.535803 0
M  V30 19 C -6.151567 0.727317 -0.949432 0
M  V30 20 C -5.530542 1.622838 -0.082832 0
M  V30 21 C -4.169709 1.491990 0.204476 0
M  V30 22 N 0.920275 -0.569008 0.155890 0
M  V30 23 N 4.214258 -1.495959 -1.075829 0
M  V30 24 C 5.466039 -1.022322 -1.284961 0
M  V30 25 H 9.380979 1.328014 -1.441864 0
M  V30 26 H 5.385080 1.883270 0.428689 0
M  V30 27 H 3.097998 1.057183 0.855415 0
M  V30 28 H -2.190610 -1.877255 0.220964 0
M  V30 29 H -1.155602 -1.415817 2.696528 0
M  V30 30 H -2.797327 -0.908733 2.293454 0
M  V30 31 H -2.052746 1.218949 2.841286 0
M  V30 32 H -0.354261 0.814623 2.537807 0
M  V30 33 H -1.403563 0.471735 -1.031362 0
M  V30 34 H -3.492319 -1.226992 -1.732629 0
M  V30 35 H -5.891509 -0.989600 -2.220935 0
M  V30 36 H -7.209830 0.831373 -1.173788 0
M  V30 37 H -6.104009 2.429243 0.367128 0
M  V30 38 H -3.708256 2.215256 0.873276 0
M  V30 39 H 0.866643 0.434877 0.250736 0
M  V30 40 H 6.097280 -1.662879 -1.895339 0
M  V30 END ATOM
M  V30 BEGIN BOND
M  V30 1 3 1 2
M  V30 2 1 2 3
M  V30 3 2 3 4
M  V30 4 1 4 5
M  V30 5 2 5 6
M  V30 6 1 6 7
M  V30 7 2 7 8
M  V30 8 1 8 9
M  V30 9 2 9 10
M  V30 10 1 10 11
M  V30 11 1 11 12
M  V30 12 1 12 13
M  V30 13 1 13 14
M  V30 14 1 14 15
M  V30 15 1 15 16
M  V30 16 2 16 17
M  V30 17 1 17 18
M  V30 18 2 18 19
M  V30 19 1 19 20
M  V30 20 2 20 21
M  V30 21 1 10 22
M  V30 22 1 6 23
M  V30 23 2 23 24
M  V30 24 1 24 3
M  V30 25 1 22 7
M  V30 26 1 15 11
M  V30 27 1 21 16
M  V30 28 1 1 25
M  V30 29 1 4 26
M  V30 30 1 5 27
M  V30 31 1 11 28 CFG=3
M  V30 32 1 12 29
M  V30 33 1 12 30
M  V30 34 1 13 31
M  V30 35 1 13 32
M  V30 36 1 15 33 CFG=3
M  V30 37 1 17 34
M  V30 38 1 18 35
M  V30 39 1 19 36
M  V30 40 1 20 37
M  V30 41 1 21 38
M  V30 42 1 22 39
M  V30 43 1 24 40
M  V30 END BOND
M  V30 BEGIN COLLECTION
M  V30 MDLV30/STERAC1 ATOMS=(2 11 15)
M  V30 END COLLECTION
M  V30 END CTAB
M  END
>  <_CXSMILES_Data>  (1158) 
|&1:10,14|

$$$$
OCNT-2316975
     RDKit          3D

 41 42  0  0  0  0  0  0  0  0999 V2000
    4.7648    0.8549   -2.0711 C   0  0  0  0  0  0  0  0  0  0  0  0
    3.3312    0.4017   -2.3003 C   0  0  0  0  0  0  0  0  0  0  0  0
    2.4544    0.6916   -1.1086 C   0  0  0  0  0  0  0  0  0  0  0  0
    1.7751    1.9147   -1.0061 C   0  0  0  0  0  0  0  0  0  0  0  0
    0.9836    2.2000    0.1091 C   0  0  0  0  0  0  0  0  0  0  0  0
    0.8612    1.2666    1.1365 C   0  0  0  0  0  0  0  0  0  0  0  0
    1.5315    0.0452    1.0368 C   0  0  0  0  0  0  0  0  0  0  0  0
    1.3871   -1.1508    2.3399 S   0  0  0  0  0  0  0  0  0  0  0  0
    0.7699   -0.5288    3.4897 O   0  0  0  0  0  0  0  0  0  0  0  0
    2.6462   -1.8556    2.4396 O   0  0  0  0  0  0  0  0  0  0  0  0
    0.2941   -2.2356    1.6864 N   0  0  0  0  0  0  0  0  0  0  0  0
   -1.1204   -1.8869    1.5985 C   0  0  0  0  0  0  0  0  0  0  0  0
   -1.6433   -2.3206    0.2298 C   0  0  0  0  0  0  0  0  0  0  0  0
   -3.0749   -1.8445   -0.0367 C   0  0  0  0  0  0  0  0  0  0  0  0
   -3.2031   -0.3499   -0.1647 C   0  0  0  0  0  0  0  0  0  0  0  0
   -2.5377    0.3609   -1.1679 C   0  0  0  0  0  0  0  0  0  0  0  0
   -2.6746    1.7437   -1.2440 C   0  0  0  0  0  0  0  0  0  0  0  0
   -3.4810    2.3749   -0.3131 C   0  0  0  0  0  0  0  0  0  0  0  0
   -4.1457    1.7252    0.6651 N   0  0  0  0  0  0  0  0  0  0  0  0
   -3.9956    0.3826    0.7148 C   0  0  0  0  0  0  0  0  0  0  0  0
    2.3348   -0.2429   -0.0716 C   0  0  0  0  0  0  0  0  0  0  0  0
    5.3767    0.6337   -2.9513 H   0  0  0  0  0  0  0  0  0  0  0  0
    4.8157    1.9330   -1.8845 H   0  0  0  0  0  0  0  0  0  0  0  0
    5.2103    0.3437   -1.2110 H   0  0  0  0  0  0  0  0  0  0  0  0
    2.9227    0.8989   -3.1885 H   0  0  0  0  0  0  0  0  0  0  0  0
    3.3120   -0.6730   -2.5190 H   0  0  0  0  0  0  0  0  0  0  0  0
    1.8675    2.6593   -1.7944 H   0  0  0  0  0  0  0  0  0  0  0  0
    0.4660    3.1536    0.1798 H   0  0  0  0  0  0  0  0  0  0  0  0
    0.2446    1.4967    2.0028 H   0  0  0  0  0  0  0  0  0  0  0  0
    0.5927   -3.2084    1.6928 H   0  0  0  0  0  0  0  0  0  0  0  0
   -1.2633   -0.8120    1.7380 H   0  0  0  0  0  0  0  0  0  0  0  0
   -1.6661   -2.4029    2.3954 H   0  0  0  0  0  0  0  0  0  0  0  0
   -0.9696   -1.9614   -0.5583 H   0  0  0  0  0  0  0  0  0  0  0  0
   -1.6200   -3.4165    0.1721 H   0  0  0  0  0  0  0  0  0  0  0  0
   -3.4368   -2.2964   -0.9690 H   0  0  0  0  0  0  0  0  0  0  0  0
   -3.7346   -2.2167    0.7572 H   0  0  0  0  0  0  0  0  0  0  0  0
   -1.9098   -0.1524   -1.8918 H   0  0  0  0  0  0  0  0  0  0  0  0
   -2.1636    2.3139   -2.0113 H   0  0  0  0  0  0  0  0  0  0  0  0
   -3.6202    3.4518   -0.3308 H   0  0  0  0  0  0  0  0  0  0  0  0
   -4.5486   -0.1003    1.5164 H   0  0  0  0  0  0  0  0  0  0  0  0
    2.8667   -1.1909   -0.1248 H   0  0  0  0  0  0  0  0  0  0  0  0
  1  2  1  0
  2  3  1  0
  3  4  1  0
  4  5  2  0
  5  6  1  0
  6  7  2  0
  7  8  1  0
  8  9  2  0
  8 10  2  0
  8 11  1  0
 11 12  1  0
 12 13  1  0
 13 14  1  0
 14 15  1  0
 15 16  1  0
 16 17  2  0
 17 18  1  0
 18 19  2  0
 19 20  1  0
  7 21  1  0
 21  3  2  0
 20 15  2  0
  1 22  1  0
  1 23  1  0
  1 24  1  0
  2 25  1  0
  2 26  1  0
  4 27  1  0
  5 28  1  0
  6 29  1  0
 11 30  1  0
 12 31  1  0
 12 32  1  0
 13 33  1  0
 13 34  1  0
 14 35  1  0
 14 36  1  0
 16 37  1  0
 17 38  1  0
 18 39  1  0
 20 40  1  0
 21 41  1  0
M  END
$$$$
OCNT-2316976
     RDKit          3D

 36 39  0  0  0  0  0  0  0  0999 V2000
   -0.2169    1.5698    1.0574 O   0  0  0  0  0  0  0  0  0  0  0  0
   -0.9793    0.7124    0.6228 C   0  0  0  0  0  0  0  0  0  0  0  0
   -0.6175   -0.3864   -0.1336 N   0  0  0  0  0  0  0  0  0  0  0  0
    0.6740   -0.7659   -0.5555 C   0  0  0  0  0  0  0  0  0  0  0  0
    0.7693   -1.9147   -1.3490 C   0  0  0  0  0  0  0  0  0  0  0  0
    2.0085   -2.3590   -1.8096 C   0  0  0  0  0  0  0  0  0  0  0  0
    3.1676   -1.6572   -1.4795 C   0  0  0  0  0  0  0  0  0  0  0  0
    3.0996   -0.5052   -0.6855 C   0  0  0  0  0  0  0  0  0  0  0  0
    4.3169    0.2164   -0.3440 C   0  0  0  0  0  0  0  0  0  0  0  0
    4.3858    1.5495    0.0041 C   0  0  0  0  0  0  0  0  0  0  0  0
    5.7022    1.8238    0.2355 N   0  0  0  0  0  0  0  0  0  0  0  0
    6.5092    0.7663    0.0549 N   0  0  0  0  0  0  0  0  0  0  0  0
    5.6663   -0.2098   -0.2942 C   0  0  0  0  0  0  0  0  0  0  0  0
    1.8426   -0.0721   -0.2269 C   0  0  0  0  0  0  0  0  0  0  0  0
   -2.4388    0.8511    0.9222 C   0  0  0  0  0  0  0  0  0  0  0  0
   -2.8672    1.9447    1.6985 C   0  0  0  0  0  0  0  0  0  0  0  0
   -4.2259    2.1277    2.0129 C   0  0  0  0  0  0  0  0  0  0  0  0
   -5.1819    1.2212    1.5572 C   0  0  0  0  0  0  0  0  0  0  0  0
   -4.7455    0.1557    0.7980 C   0  0  0  0  0  0  0  0  0  0  0  0
   -3.4153   -0.0319    0.4847 C   0  0  0  0  0  0  0  0  0  0  0  0
   -3.2351   -1.1530   -0.2750 O   0  0  0  0  0  0  0  0  0  0  0  0
   -4.5900   -1.6378   -0.3963 C   0  0  0  0  0  0  0  0  0  0  0  0
   -5.5513   -0.8110    0.2811 O   0  0  0  0  0  0  0  0  0  0  0  0
   -1.3742   -0.9933   -0.4324 H   0  0  0  0  0  0  0  0  0  0  0  0
   -0.1196   -2.4777   -1.6214 H   0  0  0  0  0  0  0  0  0  0  0  0
    2.0717   -3.2501   -2.4288 H   0  0  0  0  0  0  0  0  0  0  0  0
    4.1200   -2.0171   -1.8608 H   0  0  0  0  0  0  0  0  0  0  0  0
    3.6338    2.3196    0.1037 H   0  0  0  0  0  0  0  0  0  0  0  0
    6.1185    2.7059    0.5143 H   0  0  0  0  0  0  0  0  0  0  0  0
    6.0700   -1.1937   -0.4939 H   0  0  0  0  0  0  0  0  0  0  0  0
    1.7927    0.8083    0.4041 H   0  0  0  0  0  0  0  0  0  0  0  0
   -2.1402    2.6678    2.0675 H   0  0  0  0  0  0  0  0  0  0  0  0
   -4.5288    2.9818    2.6148 H   0  0  0  0  0  0  0  0  0  0  0  0
   -6.2335    1.3479    1.7907 H   0  0  0  0  0  0  0  0  0  0  0  0
   -4.8505   -1.6836   -1.4599 H   0  0  0  0  0  0  0  0  0  0  0  0
   -4.6375   -2.6499    0.0215 H   0  0  0  0  0  0  0  0  0  0  0  0
  1  2  2  0
  2  3  1  0
  3  4  1  0
  4  5  2  0
  5  6  1  0
  6  7  2  0
  7  8  1  0
  8  9  1  0
  9 10  2  0
 10 11  1  0
 11 12  1  0
 12 13  2  0
  8 14  2  0
  2 15  1  0
 15 16  2  0
 16 17  1  0
 17 18  2  0
 18 19  1  0
 19 20  2  0
 20 21  1  0
 21 22  1  0
 22 23  1  0
 14  4  1  0
 20 15  1  0
 13  9  1  0
 23 19  1  0
  3 24  1  0
  5 25  1  0
  6 26  1  0
  7 27  1  0
 10 28  1  0
 11 29  1  0
 13 30  1  0
 14 31  1  0
 16 32  1  0
 17 33  1  0
 18 34  1  0
 22 35  1  0
 22 36  1  0
M  END
$$$$
OCNT-2316987
     RDKit          3D

 47 50  0  0  0  0  0  0  0  0999 V2000
   -3.5076   -1.7420   -1.1780 C   0  0  0  0  0  0  0  0  0  0  0  0
   -3.7333   -0.7859   -0.0035 C   0  0  0  0  0  0  0  0  0  0  0  0
   -4.5666    0.4369   -0.3707 C   0  0  0  0  0  0  0  0  0  0  0  0
   -4.7433    0.9737   -1.6357 C   0  0  0  0  0  0  0  0  0  0  0  0
   -5.7571    2.3513   -1.6499 S   0  0  0  0  0  0  0  0  0  0  0  0
   -5.9823    2.2691    0.0394 C   0  0  0  0  0  0  0  0  0  0  0  0
   -5.3000    1.2121    0.5976 C   0  0  0  0  0  0  0  0  0  0  0  0
   -2.5356   -0.3059    0.6984 N   0  0  0  0  0  0  0  0  0  0  0  0
   -2.0145   -1.2095    1.7409 C   0  0  0  0  0  0  0  0  0  0  0  0
   -0.9301   -2.1950    1.2660 C   0  0  0  0  0  0  0  0  0  0  0  0
    0.1440   -1.4990    0.5595 N   0  0  0  0  0  0  0  0  0  0  0  0
    1.2202   -1.0593    1.3317 C   0  0  0  0  0  0  0  0  0  0  0  0
    1.2559   -1.1547    2.5569 O   0  0  0  0  0  0  0  0  0  0  0  0
    2.4040   -0.5185    0.5809 C   0  0  0  0  0  0  0  0  0  0  0  0
    3.1238    0.4728    1.1260 C   0  0  0  0  0  0  0  0  0  0  0  0
    4.2883    0.9915    0.4044 C   0  0  0  0  0  0  0  0  0  0  0  0
    5.0569    2.0343    0.9307 C   0  0  0  0  0  0  0  0  0  0  0  0
    6.1635    2.5153    0.2243 C   0  0  0  0  0  0  0  0  0  0  0  0
    6.5098    1.9595   -1.0088 C   0  0  0  0  0  0  0  0  0  0  0  0
    5.7512    0.9182   -1.5428 C   0  0  0  0  0  0  0  0  0  0  0  0
    4.6445    0.4380   -0.8359 C   0  0  0  0  0  0  0  0  0  0  0  0
    3.8266   -0.6730   -1.3882 C   0  0  0  0  0  0  0  0  0  0  0  0
    4.0868   -1.2000   -2.4633 O   0  0  0  0  0  0  0  0  0  0  0  0
    2.7547   -1.0749   -0.6270 N   0  0  0  0  0  0  0  0  0  0  0  0
   -0.3526   -0.7060   -0.5730 C   0  0  0  0  0  0  0  0  0  0  0  0
   -1.4610    0.2760   -0.1230 C   0  0  0  0  0  0  0  0  0  0  0  0
   -2.9908   -2.6512   -0.8612 H   0  0  0  0  0  0  0  0  0  0  0  0
   -4.4681   -2.0539   -1.6055 H   0  0  0  0  0  0  0  0  0  0  0  0
   -2.9323   -1.2837   -1.9885 H   0  0  0  0  0  0  0  0  0  0  0  0
   -4.3580   -1.3353    0.7161 H   0  0  0  0  0  0  0  0  0  0  0  0
   -4.3242    0.6277   -2.5700 H   0  0  0  0  0  0  0  0  0  0  0  0
   -6.5991    2.9994    0.5446 H   0  0  0  0  0  0  0  0  0  0  0  0
   -5.3088    0.9981    1.6600 H   0  0  0  0  0  0  0  0  0  0  0  0
   -1.5790   -0.5737    2.5230 H   0  0  0  0  0  0  0  0  0  0  0  0
   -2.8248   -1.7597    2.2336 H   0  0  0  0  0  0  0  0  0  0  0  0
   -1.3495   -2.9368    0.5796 H   0  0  0  0  0  0  0  0  0  0  0  0
   -0.5256   -2.7462    2.1224 H   0  0  0  0  0  0  0  0  0  0  0  0
    2.8677    0.8987    2.0911 H   0  0  0  0  0  0  0  0  0  0  0  0
    4.8062    2.4804    1.8905 H   0  0  0  0  0  0  0  0  0  0  0  0
    6.7590    3.3261    0.6383 H   0  0  0  0  0  0  0  0  0  0  0  0
    7.3725    2.3368   -1.5529 H   0  0  0  0  0  0  0  0  0  0  0  0
    6.0214    0.4827   -2.5021 H   0  0  0  0  0  0  0  0  0  0  0  0
    2.2130   -1.8548   -0.9808 H   0  0  0  0  0  0  0  0  0  0  0  0
    0.4442   -0.1250   -1.0423 H   0  0  0  0  0  0  0  0  0  0  0  0
   -0.7290   -1.4110   -1.3203 H   0  0  0  0  0  0  0  0  0  0  0  0
   -1.8569    0.8039   -0.9975 H   0  0  0  0  0  0  0  0  0  0  0  0
   -0.9841    1.0524    0.4904 H   0  0  0  0  0  0  0  0  0  0  0  0
  1  2  1  0
  2  3  1  0
  3  4  2  0
  4  5  1  0
  5  6  1  0
  6  7  2  0
  2  8  1  0
  8  9  1  0
  9 10  1  0
 10 11  1  0
 11 12  1  0
 12 13  2  0
 12 14  1  0
 14 15  2  0
 15 16  1  0
 16 17  2  0
 17 18  1  0
 18 19  2  0
 19 20  1  0
 20 21  2  0
 21 22  1  0
 22 23  2  0
 22 24  1  0
 11 25  1  0
 25 26  1  0
  7  3  1  0
 26  8  1  0
 24 14  1  0
 21 16  1  0
  1 27  1  0
  1 28  1  0
  1 29  1  0
  2 30  1  0
  4 31  1  0
  6 32  1  0
  7 33  1  0
  9 34  1  0
  9 35  1  0
 10 36  1  0
 10 37  1  0
 15 38  1  0
 17 39  1  0
 18 40  1  0
 19 41  1  0
 20 42  1  0
 24 43  1  0
 25 44  1  0
 25 45  1  0
 26 46  1  0
 26 47  1  0
M  END
$$$$
OCNT-2317028
     RDKit          3D

 43 45  0  0  0  0  0  0  0  0999 V2000
   -6.3526   -0.4742   -1.0107 C   0  0  0  0  0  0  0  0  0  0  0  0
   -6.0569    0.8118   -0.2728 C   0  0  0  0  0  0  0  0  0  0  0  0
   -4.7666    0.6947    0.9620 S   0  0  0  0  0  0  0  0  0  0  0  0
   -4.9855   -0.4690    1.7924 O   0  0  0  0  0  0  0  0  0  0  0  0
   -4.6411    2.0125    1.5512 O   0  0  0  0  0  0  0  0  0  0  0  0
   -3.3675    0.4223    0.0342 N   0  0  0  0  0  0  0  0  0  0  0  0
   -3.0994   -0.9943   -0.3831 C   0  0  0  0  0  0  0  0  0  0  0  0
   -1.8371   -1.5676    0.2691 C   0  0  0  0  0  0  0  0  0  0  0  0
   -0.6491   -0.7660   -0.0331 N   0  0  0  0  0  0  0  0  0  0  0  0
    0.5970   -1.3684    0.1259 C   0  0  0  0  0  0  0  0  0  0  0  0
    0.7057   -2.4953    0.6061 O   0  0  0  0  0  0  0  0  0  0  0  0
    1.7831   -0.6422   -0.2981 C   0  0  0  0  0  0  0  0  0  0  0  0
    3.0405   -0.7743    0.2621 C   0  0  0  0  0  0  0  0  0  0  0  0
    3.8997    0.0466   -0.4312 N   0  0  0  0  0  0  0  0  0  0  0  0
    5.2875    0.2530   -0.2088 C   0  0  0  0  0  0  0  0  0  0  0  0
    5.9907    1.1408   -1.0293 C   0  0  0  0  0  0  0  0  0  0  0  0
    7.3414    1.3246   -0.7901 C   0  0  0  0  0  0  0  0  0  0  0  0
    8.0214    0.6954    0.1913 N   0  0  0  0  0  0  0  0  0  0  0  0
    7.3210   -0.1573    0.9681 C   0  0  0  0  0  0  0  0  0  0  0  0
    5.9672   -0.4127    0.8136 C   0  0  0  0  0  0  0  0  0  0  0  0
    3.2497    0.6983   -1.4306 N   0  0  0  0  0  0  0  0  0  0  0  0
    1.9951    0.2527   -1.3626 C   0  0  0  0  0  0  0  0  0  0  0  0
   -0.8735    0.6796   -0.1624 C   0  0  0  0  0  0  0  0  0  0  0  0
   -2.1551    1.1415    0.5465 C   0  0  0  0  0  0  0  0  0  0  0  0
   -5.5283   -0.7536   -1.6716 H   0  0  0  0  0  0  0  0  0  0  0  0
   -7.2426   -0.3511   -1.6362 H   0  0  0  0  0  0  0  0  0  0  0  0
   -6.5363   -1.3023   -0.3197 H   0  0  0  0  0  0  0  0  0  0  0  0
   -6.9531    1.1372    0.2671 H   0  0  0  0  0  0  0  0  0  0  0  0
   -5.7778    1.6113   -0.9661 H   0  0  0  0  0  0  0  0  0  0  0  0
   -3.9440   -1.6505   -0.1566 H   0  0  0  0  0  0  0  0  0  0  0  0
   -2.9851   -0.9907   -1.4741 H   0  0  0  0  0  0  0  0  0  0  0  0
   -1.6774   -2.5961   -0.0738 H   0  0  0  0  0  0  0  0  0  0  0  0
   -1.9461   -1.5947    1.3603 H   0  0  0  0  0  0  0  0  0  0  0  0
    3.3653   -1.3901    1.0874 H   0  0  0  0  0  0  0  0  0  0  0  0
    5.5110    1.6823   -1.8387 H   0  0  0  0  0  0  0  0  0  0  0  0
    7.9299    2.0036   -1.4007 H   0  0  0  0  0  0  0  0  0  0  0  0
    7.8973   -0.6489    1.7473 H   0  0  0  0  0  0  0  0  0  0  0  0
    5.4919   -1.1153    1.4865 H   0  0  0  0  0  0  0  0  0  0  0  0
    1.2882    0.6001   -2.1046 H   0  0  0  0  0  0  0  0  0  0  0  0
   -0.9503    0.8938   -1.2344 H   0  0  0  0  0  0  0  0  0  0  0  0
   -0.0219    1.2316    0.2460 H   0  0  0  0  0  0  0  0  0  0  0  0
   -2.2825    2.2158    0.3751 H   0  0  0  0  0  0  0  0  0  0  0  0
   -2.0538    0.9650    1.6245 H   0  0  0  0  0  0  0  0  0  0  0  0
  1  2  1  0
  2  3  1  0
  3  4  2  0
  3  5  2  0
  3  6  1  0
  6  7  1  0
  7  8  1  0
  8  9  1  0
  9 10  1  0
 10 11  2  0
 10 12  1  0
 12 13  2  0
 13 14  1  0
 14 15  1  0
 15 16  2  0
 16 17  1  0
 17 18  2  0
 18 19  1  0
 19 20  2  0
 14 21  1  0
 21 22  2  0
  9 23  1  0
 23 24  1  0
 24  6  1  0
 22 12  1  0
 20 15  1  0
  1 25  1  0
  1 26  1  0
  1 27  1  0
  2 28  1  0
  2 29  1  0
  7 30  1  0
  7 31  1  0
  8 32  1  0
  8 33  1  0
 13 34  1  0
 16 35  1  0
 17 36  1  0
 19 37  1  0
 20 38  1  0
 22 39  1  0
 23 40  1  0
 23 41  1  0
 24 42  1  0
 24 43  1  0
M  END
$$$$
OCNT-2317040
     RDKit          3D

 40 42  0  0  0  0  0  0  0  0999 V2000
   -0.2727   -1.5454   -1.7574 O   0  0  0  0  0  0  0  0  0  0  0  0
    0.3936   -1.3829   -0.7411 C   0  0  0  0  0  0  0  0  0  0  0  0
    1.6009   -2.2596   -0.4618 C   0  0  0  0  0  0  0  0  0  0  0  0
    2.8821   -1.4762   -0.5595 C   0  0  0  0  0  0  0  0  0  0  0  0
    3.7480   -1.6491   -1.6320 C   0  0  0  0  0  0  0  0  0  0  0  0
    4.9120   -0.8901   -1.6810 C   0  0  0  0  0  0  0  0  0  0  0  0
    5.1788    0.0248   -0.6672 C   0  0  0  0  0  0  0  0  0  0  0  0
    4.2642    0.1674    0.3759 C   0  0  0  0  0  0  0  0  0  0  0  0
    4.5580    1.1631    1.4915 C   0  0  0  0  0  0  0  0  0  0  0  0
    5.3392    0.6339    2.4755 F   0  0  0  0  0  0  0  0  0  0  0  0
    5.2193    2.2743    1.0533 F   0  0  0  0  0  0  0  0  0  0  0  0
    3.4331    1.6256    2.1102 F   0  0  0  0  0  0  0  0  0  0  0  0
    3.1216   -0.5825    0.4375 N   0  0  0  0  0  0  0  0  0  0  0  0
    0.1977   -0.4275    0.2416 N   0  0  0  0  0  0  0  0  0  0  0  0
   -0.8286    0.5419    0.3310 C   0  0  0  0  0  0  0  0  0  0  0  0
   -0.4623    1.7622    0.9147 C   0  0  0  0  0  0  0  0  0  0  0  0
   -1.2793    2.8223    1.0969 N   0  0  0  0  0  0  0  0  0  0  0  0
   -2.5500    2.6593    0.6898 C   0  0  0  0  0  0  0  0  0  0  0  0
   -3.0505    1.4855    0.1267 C   0  0  0  0  0  0  0  0  0  0  0  0
   -2.1772    0.3832   -0.0402 C   0  0  0  0  0  0  0  0  0  0  0  0
   -2.7414   -0.9132   -0.5751 C   0  0  0  0  0  0  0  0  0  0  0  0
   -4.2551   -1.0454   -0.4049 C   0  0  0  0  0  0  0  0  0  0  0  0
   -4.9409    0.1866   -0.9731 C   0  0  0  0  0  0  0  0  0  0  0  0
   -4.5240    1.4251   -0.1894 C   0  0  0  0  0  0  0  0  0  0  0  0
    1.5976   -3.1020   -1.1631 H   0  0  0  0  0  0  0  0  0  0  0  0
    1.5056   -2.6877    0.5433 H   0  0  0  0  0  0  0  0  0  0  0  0
    3.5260   -2.3588   -2.4238 H   0  0  0  0  0  0  0  0  0  0  0  0
    5.6069   -1.0089   -2.5089 H   0  0  0  0  0  0  0  0  0  0  0  0
    6.0862    0.6228   -0.6979 H   0  0  0  0  0  0  0  0  0  0  0  0
    1.0550   -0.2048    0.7498 H   0  0  0  0  0  0  0  0  0  0  0  0
    0.5568    1.9379    1.2524 H   0  0  0  0  0  0  0  0  0  0  0  0
   -3.1913    3.5226    0.8506 H   0  0  0  0  0  0  0  0  0  0  0  0
   -2.5254   -0.9657   -1.6473 H   0  0  0  0  0  0  0  0  0  0  0  0
   -2.2763   -1.7671   -0.0710 H   0  0  0  0  0  0  0  0  0  0  0  0
   -4.6058   -1.9441   -0.9247 H   0  0  0  0  0  0  0  0  0  0  0  0
   -4.5104   -1.1627    0.6558 H   0  0  0  0  0  0  0  0  0  0  0  0
   -6.0298    0.0717   -0.9332 H   0  0  0  0  0  0  0  0  0  0  0  0
   -4.6701    0.3050   -2.0300 H   0  0  0  0  0  0  0  0  0  0  0  0
   -5.0717    1.4411    0.7618 H   0  0  0  0  0  0  0  0  0  0  0  0
   -4.8198    2.3175   -0.7540 H   0  0  0  0  0  0  0  0  0  0  0  0
  1  2  2  0
  2  3  1  0
  3  4  1  0
  4  5  2  0
  5  6  1  0
  6  7  2  0
  7  8  1  0
  8  9  1  0
  9 10  1  0
  9 11  1  0
  9 12  1  0
  8 13  2  0
  2 14  1  0
 14 15  1  0
 15 16  1  0
 16 17  2  0
 17 18  1  0
 18 19  2  0
 19 20  1  0
 20 21  1  0
 21 22  1  0
 22 23  1  0
 23 24  1  0
 13  4  1  0
 20 15  2  0
 24 19  1  0
  3 25  1  0
  3 26  1  0
  5 27  1  0
  6 28  1  0
  7 29  1  0
 14 30  1  0
 16 31  1  0
 18 32  1  0
 21 33  1  0
 21 34  1  0
 22 35  1  0
 22 36  1  0
 23 37  1  0
 23 38  1  0
 24 39  1  0
 24 40  1  0
M  END
$$$$
OCNT-2317064
     RDKit          3D

 49 52  0  0  0  0  0  0  0  0999 V2000
   -4.0426    2.5989    2.4943 C   0  0  0  0  0  0  0  0  0  0  0  0
   -4.6750    1.3246    2.4328 O   0  0  0  0  0  0  0  0  0  0  0  0
   -4.1603    0.5088    1.4421 C   0  0  0  0  0  0  0  0  0  0  0  0
   -4.7527   -0.7142    1.3027 C   0  0  0  0  0  0  0  0  0  0  0  0
   -4.2177   -1.4908    0.3150 C   0  0  0  0  0  0  0  0  0  0  0  0
   -4.7909   -2.7370    0.1415 O   0  0  0  0  0  0  0  0  0  0  0  0
   -4.1905   -3.4865   -0.9106 C   0  0  0  0  0  0  0  0  0  0  0  0
   -3.1945   -1.1097   -0.4672 N   0  0  0  0  0  0  0  0  0  0  0  0
   -2.6673    0.1049   -0.2583 C   0  0  0  0  0  0  0  0  0  0  0  0
   -1.6223    0.5431   -1.0708 N   0  0  0  0  0  0  0  0  0  0  0  0
   -0.9208   -0.4821   -1.8341 C   0  0  0  0  0  0  0  0  0  0  0  0
   -0.2001    0.1611   -3.0222 C   0  0  0  0  0  0  0  0  0  0  0  0
    0.3090    1.5814   -2.7564 C   0  0  0  0  0  0  0  0  0  0  0  0
    0.4889    1.8994   -1.2691 C   0  0  0  0  0  0  0  0  0  0  0  0
    1.6847    1.1980   -0.6777 C   0  0  0  0  0  0  0  0  0  0  0  0
    2.2757    0.1063   -1.1210 N   0  0  0  0  0  0  0  0  0  0  0  0
    3.3149   -0.1373   -0.2582 C   0  0  0  0  0  0  0  0  0  0  0  0
    3.3677    0.8294    0.7365 C   0  0  0  0  0  0  0  0  0  0  0  0
    4.3219    0.8299    1.7544 C   0  0  0  0  0  0  0  0  0  0  0  0
    5.2592   -0.2118    1.7376 C   0  0  0  0  0  0  0  0  0  0  0  0
    5.2484   -1.1995    0.7411 C   0  0  0  0  0  0  0  0  0  0  0  0
    6.2502   -2.3169    0.7657 C   0  0  0  0  0  0  0  0  0  0  0  0
    4.2617   -1.1720   -0.2610 C   0  0  0  0  0  0  0  0  0  0  0  0
    2.3265    1.6712    0.4443 N   0  0  0  0  0  0  0  0  0  0  0  0
   -0.8047    1.6073   -0.4774 C   0  0  0  0  0  0  0  0  0  0  0  0
   -3.1326    0.9367    0.6888 N   0  0  0  0  0  0  0  0  0  0  0  0
   -4.1741    3.1539    1.5590 H   0  0  0  0  0  0  0  0  0  0  0  0
   -4.5250    3.1723    3.2916 H   0  0  0  0  0  0  0  0  0  0  0  0
   -2.9814    2.5029    2.7493 H   0  0  0  0  0  0  0  0  0  0  0  0
   -5.5749   -1.0396    1.9204 H   0  0  0  0  0  0  0  0  0  0  0  0
   -4.3086   -2.9819   -1.8756 H   0  0  0  0  0  0  0  0  0  0  0  0
   -3.1352   -3.6924   -0.6990 H   0  0  0  0  0  0  0  0  0  0  0  0
   -4.7101   -4.4475   -0.9725 H   0  0  0  0  0  0  0  0  0  0  0  0
   -1.5972   -1.2411   -2.2460 H   0  0  0  0  0  0  0  0  0  0  0  0
   -0.2094   -1.0105   -1.1876 H   0  0  0  0  0  0  0  0  0  0  0  0
   -0.8772    0.1962   -3.8851 H   0  0  0  0  0  0  0  0  0  0  0  0
    0.6312   -0.4873   -3.3239 H   0  0  0  0  0  0  0  0  0  0  0  0
    1.2385    1.7500   -3.3142 H   0  0  0  0  0  0  0  0  0  0  0  0
   -0.4236    2.2883   -3.1691 H   0  0  0  0  0  0  0  0  0  0  0  0
    0.6955    2.9759   -1.1829 H   0  0  0  0  0  0  0  0  0  0  0  0
    4.3431    1.5922    2.5252 H   0  0  0  0  0  0  0  0  0  0  0  0
    6.0134   -0.2450    2.5224 H   0  0  0  0  0  0  0  0  0  0  0  0
    7.1430   -2.0348    1.3339 H   0  0  0  0  0  0  0  0  0  0  0  0
    5.8079   -3.2061    1.2262 H   0  0  0  0  0  0  0  0  0  0  0  0
    6.5764   -2.5650   -0.2501 H   0  0  0  0  0  0  0  0  0  0  0  0
    4.2192   -1.9296   -1.0358 H   0  0  0  0  0  0  0  0  0  0  0  0
    2.0743    2.4968    0.9672 H   0  0  0  0  0  0  0  0  0  0  0  0
   -0.5597    1.3800    0.5694 H   0  0  0  0  0  0  0  0  0  0  0  0
   -1.4030    2.5289   -0.4773 H   0  0  0  0  0  0  0  0  0  0  0  0
  1  2  1  0
  2  3  1  0
  3  4  2  0
  4  5  1  0
  5  6  1  0
  6  7  1  0
  5  8  2  0
  8  9  1  0
  9 10  1  0
 10 11  1  0
 11 12  1  0
 12 13  1  0
 13 14  1  0
 14 15  1  0
 15 16  2  0
 16 17  1  0
 17 18  1  0
 18 19  2  0
 19 20  1  0
 20 21  2  0
 21 22  1  0
 21 23  1  0
 18 24  1  0
 14 25  1  0
  9 26  2  0
 26  3  1  0
 25 10  1  0
 24 15  1  0
 23 17  2  0
  1 27  1  0
  1 28  1  0
  1 29  1  0
  4 30  1  0
  7 31  1  0
  7 32  1  0
  7 33  1  0
 11 34  1  0
 11 35  1  0
 12 36  1  0
 12 37  1  0
 13 38  1  0
 13 39  1  0
 14 40  1  0
 19 41  1  0
 20 42  1  0
 22 43  1  0
 22 44  1  0
 22 45  1  0
 23 46  1  0
 24 47  1  0
 25 48  1  0
 25 49  1  0
M  END
$$$$
OCNT-2317084
     RDKit          3D

 45 47  0  0  0  0  0  0  0  0999 V2000
    2.3187    0.0398    2.1937 C   0  0  0  0  0  0  0  0  0  0  0  0
    3.2382    0.3094    0.9842 C   0  0  0  0  0  0  0  0  0  0  0  0
    3.1009    1.7897    0.5865 C   0  0  0  0  0  0  0  0  0  0  0  0
    4.6862    0.0257    1.4224 C   0  0  0  0  0  0  0  0  0  0  0  0
    2.8233   -0.5864   -0.1803 C   0  0  0  0  0  0  0  0  0  0  0  0
    1.7173   -1.3054   -0.1993 N   0  0  0  0  0  0  0  0  0  0  0  0
    1.6115   -2.0230   -1.3824 C   0  0  0  0  0  0  0  0  0  0  0  0
    0.4158   -2.8988   -1.5689 C   0  0  0  0  0  0  0  0  0  0  0  0
   -0.8142   -2.0777   -1.9066 C   0  0  0  0  0  0  0  0  0  0  0  0
   -1.4775   -2.2617   -2.9242 O   0  0  0  0  0  0  0  0  0  0  0  0
   -1.1508   -1.1381   -0.9565 N   0  0  0  0  0  0  0  0  0  0  0  0
   -2.1877   -0.1658   -1.2179 C   0  0  0  0  0  0  0  0  0  0  0  0
   -2.2196    0.9002   -0.1642 C   0  0  0  0  0  0  0  0  0  0  0  0
   -1.2413    1.8456    0.1060 C   0  0  0  0  0  0  0  0  0  0  0  0
   -1.4593    2.7561    1.1397 C   0  0  0  0  0  0  0  0  0  0  0  0
   -2.6459    2.7164    1.8849 C   0  0  0  0  0  0  0  0  0  0  0  0
   -3.6281    1.7655    1.6018 C   0  0  0  0  0  0  0  0  0  0  0  0
   -3.4021    0.8640    0.5735 C   0  0  0  0  0  0  0  0  0  0  0  0
   -4.2976   -0.2521    0.1338 C   0  0  0  0  0  0  0  0  0  0  0  0
   -3.6245   -0.7677   -1.1540 C   0  0  0  0  0  0  0  0  0  0  0  0
   -4.3929   -0.3614   -2.2962 O   0  0  0  0  0  0  0  0  0  0  0  0
    2.6449   -1.8173   -2.2722 C   0  0  0  0  0  0  0  0  0  0  0  0
    3.7722   -0.7101   -1.6165 S   0  0  0  0  0  0  0  0  0  0  0  0
    1.2687    0.2518    1.9568 H   0  0  0  0  0  0  0  0  0  0  0  0
    2.3824   -1.0083    2.5066 H   0  0  0  0  0  0  0  0  0  0  0  0
    2.5931    0.6614    3.0527 H   0  0  0  0  0  0  0  0  0  0  0  0
    2.0736    2.0251    0.2894 H   0  0  0  0  0  0  0  0  0  0  0  0
    3.3695    2.4512    1.4187 H   0  0  0  0  0  0  0  0  0  0  0  0
    3.7542    2.0452   -0.2566 H   0  0  0  0  0  0  0  0  0  0  0  0
    4.9499    0.6057    2.3141 H   0  0  0  0  0  0  0  0  0  0  0  0
    4.8316   -1.0341    1.6585 H   0  0  0  0  0  0  0  0  0  0  0  0
    5.4080    0.2880    0.6408 H   0  0  0  0  0  0  0  0  0  0  0  0
    0.5856   -3.6294   -2.3676 H   0  0  0  0  0  0  0  0  0  0  0  0
    0.2140   -3.4590   -0.6478 H   0  0  0  0  0  0  0  0  0  0  0  0
   -0.4370   -0.9113   -0.2643 H   0  0  0  0  0  0  0  0  0  0  0  0
   -2.0008    0.2879   -2.1997 H   0  0  0  0  0  0  0  0  0  0  0  0
   -0.3207    1.8771   -0.4681 H   0  0  0  0  0  0  0  0  0  0  0  0
   -0.7047    3.5049    1.3609 H   0  0  0  0  0  0  0  0  0  0  0  0
   -2.8042    3.4355    2.6838 H   0  0  0  0  0  0  0  0  0  0  0  0
   -4.5529    1.7361    2.1719 H   0  0  0  0  0  0  0  0  0  0  0  0
   -4.3041   -1.0324    0.9030 H   0  0  0  0  0  0  0  0  0  0  0  0
   -5.3142    0.1044   -0.0500 H   0  0  0  0  0  0  0  0  0  0  0  0
   -3.6272   -1.8631   -1.1636 H   0  0  0  0  0  0  0  0  0  0  0  0
   -3.9371   -0.7380   -3.0728 H   0  0  0  0  0  0  0  0  0  0  0  0
    2.7847   -2.2460   -3.2539 H   0  0  0  0  0  0  0  0  0  0  0  0
  1  2  1  0
  2  3  1  0
  2  4  1  0
  2  5  1  0
  5  6  2  0
  6  7  1  0
  7  8  1  0
  8  9  1  0
  9 10  2  0
  9 11  1  0
 11 12  1  0
 12 13  1  0
 13 14  2  0
 14 15  1  0
 15 16  2  0
 16 17  1  0
 17 18  2  0
 18 19  1  0
 19 20  1  0
 20 21  1  0
  7 22  2  0
 22 23  1  0
 23  5  1  0
 20 12  1  0
 18 13  1  0
  1 24  1  0
  1 25  1  0
  1 26  1  0
  3 27  1  0
  3 28  1  0
  3 29  1  0
  4 30  1  0
  4 31  1  0
  4 32  1  0
  8 33  1  0
  8 34  1  0
 11 35  1  0
 12 36  1  0
 14 37  1  0
 15 38  1  0
 16 39  1  0
 17 40  1  0
 19 41  1  0
 19 42  1  0
 20 43  1  0
 21 44  1  0
 22 45  1  0
M  END
$$$$
OCNT-2317090
     RDKit          3D

 43 47  0  0  0  0  0  0  0  0999 V2000
    6.2107    1.1126    0.2610 C   0  0  0  0  0  0  0  0  0  0  0  0
    5.7408    1.7538   -0.8839 C   0  0  0  0  0  0  0  0  0  0  0  0
    4.4200    1.5679   -1.2921 C   0  0  0  0  0  0  0  0  0  0  0  0
    3.5712    0.7354   -0.5609 C   0  0  0  0  0  0  0  0  0  0  0  0
    2.2907    0.6269   -1.0240 O   0  0  0  0  0  0  0  0  0  0  0  0
    1.4357   -0.4023   -0.4665 C   0  0  0  0  0  0  0  0  0  0  0  0
    1.9153   -0.9718    0.8592 C   0  0  0  0  0  0  0  0  0  0  0  0
    3.1317   -0.7421    1.3614 C   0  0  0  0  0  0  0  0  0  0  0  0
    4.0346    0.0955    0.5904 C   0  0  0  0  0  0  0  0  0  0  0  0
    5.3592    0.2873    0.9991 C   0  0  0  0  0  0  0  0  0  0  0  0
    1.3360   -1.5148   -1.5338 C   0  0  0  0  0  0  0  0  0  0  0  0
    0.1886   -2.4901   -1.2733 C   0  0  0  0  0  0  0  0  0  0  0  0
   -1.1393   -1.7512   -1.1058 C   0  0  0  0  0  0  0  0  0  0  0  0
   -1.0171   -0.7570   -0.0250 N   0  0  0  0  0  0  0  0  0  0  0  0
   -2.2538   -0.1565    0.2978 C   0  0  0  0  0  0  0  0  0  0  0  0
   -2.3663    0.5713    1.4778 C   0  0  0  0  0  0  0  0  0  0  0  0
   -3.5856    1.1525    1.8098 C   0  0  0  0  0  0  0  0  0  0  0  0
   -4.6764    1.0007    0.9777 C   0  0  0  0  0  0  0  0  0  0  0  0
   -5.8571    1.5715    1.3091 N   0  0  0  0  0  0  0  0  0  0  0  0
   -6.8683    1.3690    0.4427 C   0  0  0  0  0  0  0  0  0  0  0  0
   -6.7012    0.6266   -0.7061 C   0  0  0  0  0  0  0  0  0  0  0  0
   -5.5207    0.0575   -1.0363 N   0  0  0  0  0  0  0  0  0  0  0  0
   -4.4914    0.2358   -0.1991 C   0  0  0  0  0  0  0  0  0  0  0  0
   -3.3171   -0.3216   -0.5138 N   0  0  0  0  0  0  0  0  0  0  0  0
    0.0371    0.2556   -0.2844 C   0  0  0  0  0  0  0  0  0  0  0  0
    7.2392    1.2575    0.5818 H   0  0  0  0  0  0  0  0  0  0  0  0
    6.4005    2.3996   -1.4574 H   0  0  0  0  0  0  0  0  0  0  0  0
    4.0508    2.0703   -2.1819 H   0  0  0  0  0  0  0  0  0  0  0  0
    1.2243   -1.6052    1.4104 H   0  0  0  0  0  0  0  0  0  0  0  0
    3.4554   -1.1664    2.3044 H   0  0  0  0  0  0  0  0  0  0  0  0
    5.7382   -0.2013    1.8932 H   0  0  0  0  0  0  0  0  0  0  0  0
    2.2830   -2.0659   -1.6017 H   0  0  0  0  0  0  0  0  0  0  0  0
    1.1963   -1.0564   -2.5227 H   0  0  0  0  0  0  0  0  0  0  0  0
    0.1119   -3.1962   -2.1079 H   0  0  0  0  0  0  0  0  0  0  0  0
    0.3990   -3.0835   -0.3756 H   0  0  0  0  0  0  0  0  0  0  0  0
   -1.9104   -2.4934   -0.8625 H   0  0  0  0  0  0  0  0  0  0  0  0
   -1.4116   -1.2697   -2.0547 H   0  0  0  0  0  0  0  0  0  0  0  0
   -1.5208    0.6699    2.1507 H   0  0  0  0  0  0  0  0  0  0  0  0
   -3.6863    1.7214    2.7291 H   0  0  0  0  0  0  0  0  0  0  0  0
   -7.8193    1.8214    0.6985 H   0  0  0  0  0  0  0  0  0  0  0  0
   -7.5159    0.4642   -1.4026 H   0  0  0  0  0  0  0  0  0  0  0  0
   -0.2176    0.8330   -1.1855 H   0  0  0  0  0  0  0  0  0  0  0  0
    0.1062    0.9883    0.5308 H   0  0  0  0  0  0  0  0  0  0  0  0
  1  2  2  0
  2  3  1  0
  3  4  2  0
  4  5  1  0
  5  6  1  0
  6  7  1  0
  7  8  2  0
  8  9  1  0
  9 10  2  0
  6 11  1  0
 11 12  1  0
 12 13  1  0
 13 14  1  0
 14 15  1  0
 15 16  2  0
 16 17  1  0
 17 18  2  0
 18 19  1  0
 19 20  2  0
 20 21  1  0
 21 22  2  0
 22 23  1  0
 23 24  2  0
 14 25  1  0
 10  1  1  0
 24 15  1  0
  9  4  1  0
 23 18  1  0
 25  6  1  0
  1 26  1  0
  2 27  1  0
  3 28  1  0
  7 29  1  0
  8 30  1  0
 10 31  1  0
 11 32  1  0
 11 33  1  0
 12 34  1  0
 12 35  1  0
 13 36  1  0
 13 37  1  0
 16 38  1  0
 17 39  1  0
 20 40  1  0
 21 41  1  0
 25 42  1  0
 25 43  1  0
M  END
$$$$
OCNT-2317099
     RDKit          3D

 56 58  0  0  0  0  0  0  0  0999 V2000
    7.1098   -0.2983   -2.4232 C   0  0  0  0  0  0  0  0  0  0  0  0
    6.8738    0.9348   -1.7552 O   0  0  0  0  0  0  0  0  0  0  0  0
    6.0571    0.8996   -0.6580 C   0  0  0  0  0  0  0  0  0  0  0  0
    5.9126    2.1240   -0.0011 C   0  0  0  0  0  0  0  0  0  0  0  0
    5.1046    2.2339    1.1304 C   0  0  0  0  0  0  0  0  0  0  0  0
    4.4334    1.1135    1.6147 C   0  0  0  0  0  0  0  0  0  0  0  0
    4.5714   -0.1257    0.9739 C   0  0  0  0  0  0  0  0  0  0  0  0
    3.8145   -1.3228    1.4862 C   0  0  0  0  0  0  0  0  0  0  0  0
    2.4612   -1.3035    0.9860 N   0  0  0  0  0  0  0  0  0  0  0  0
    1.3775   -1.5646    1.8005 C   0  0  0  0  0  0  0  0  0  0  0  0
    1.4863   -1.8969    2.9795 O   0  0  0  0  0  0  0  0  0  0  0  0
    0.0208   -1.4048    1.1017 C   0  0  0  0  0  0  0  0  0  0  0  0
   -0.5462   -0.0785    1.3495 N   0  0  0  0  0  0  0  0  0  0  0  0
    0.1643    1.0301    0.7234 C   0  0  0  0  0  0  0  0  0  0  0  0
   -0.7583    2.1924    1.0231 C   0  0  0  0  0  0  0  0  0  0  0  0
   -2.1545    1.6022    0.8886 C   0  0  0  0  0  0  0  0  0  0  0  0
   -1.9768    0.0791    1.0078 C   0  0  0  0  0  0  0  0  0  0  0  0
   -2.4758   -0.6669   -0.2683 C   0  0  0  0  0  0  0  0  0  0  0  0
   -3.8751   -0.3924   -0.6624 N   0  0  0  0  0  0  0  0  0  0  0  0
   -4.1482   -0.9888   -1.9805 C   0  0  0  0  0  0  0  0  0  0  0  0
   -5.5619   -0.6585   -2.4596 C   0  0  0  0  0  0  0  0  0  0  0  0
   -6.6043   -1.1244   -1.4511 C   0  0  0  0  0  0  0  0  0  0  0  0
   -6.2777   -0.5753   -0.0681 C   0  0  0  0  0  0  0  0  0  0  0  0
   -4.8354   -0.8868    0.3385 C   0  0  0  0  0  0  0  0  0  0  0  0
    5.3819   -0.2220   -0.1709 C   0  0  0  0  0  0  0  0  0  0  0  0
    7.5803   -1.0270   -1.7550 H   0  0  0  0  0  0  0  0  0  0  0  0
    6.1849   -0.6950   -2.8542 H   0  0  0  0  0  0  0  0  0  0  0  0
    7.8042   -0.1050   -3.2463 H   0  0  0  0  0  0  0  0  0  0  0  0
    6.4377    3.0006   -0.3746 H   0  0  0  0  0  0  0  0  0  0  0  0
    5.0000    3.1923    1.6329 H   0  0  0  0  0  0  0  0  0  0  0  0
    3.7986    1.2066    2.4948 H   0  0  0  0  0  0  0  0  0  0  0  0
    4.2784   -2.2515    1.1363 H   0  0  0  0  0  0  0  0  0  0  0  0
    3.8354   -1.3439    2.5815 H   0  0  0  0  0  0  0  0  0  0  0  0
    2.3054   -0.9661    0.0469 H   0  0  0  0  0  0  0  0  0  0  0  0
   -0.6290   -2.1812    1.5229 H   0  0  0  0  0  0  0  0  0  0  0  0
    0.1285   -1.6148    0.0313 H   0  0  0  0  0  0  0  0  0  0  0  0
    1.1533    1.2023    1.1575 H   0  0  0  0  0  0  0  0  0  0  0  0
    0.2716    0.8878   -0.3589 H   0  0  0  0  0  0  0  0  0  0  0  0
   -0.6000    3.0361    0.3455 H   0  0  0  0  0  0  0  0  0  0  0  0
   -0.6035    2.5502    2.0488 H   0  0  0  0  0  0  0  0  0  0  0  0
   -2.5858    1.8988   -0.0720 H   0  0  0  0  0  0  0  0  0  0  0  0
   -2.8067    1.9892    1.6803 H   0  0  0  0  0  0  0  0  0  0  0  0
   -2.5489   -0.2852    1.8691 H   0  0  0  0  0  0  0  0  0  0  0  0
   -1.8200   -0.3713   -1.0986 H   0  0  0  0  0  0  0  0  0  0  0  0
   -2.3452   -1.7490   -0.1338 H   0  0  0  0  0  0  0  0  0  0  0  0
   -3.4414   -0.5969   -2.7209 H   0  0  0  0  0  0  0  0  0  0  0  0
   -4.0165   -2.0771   -1.9464 H   0  0  0  0  0  0  0  0  0  0  0  0
   -5.6556    0.4245   -2.6111 H   0  0  0  0  0  0  0  0  0  0  0  0
   -5.7464   -1.1326   -3.4300 H   0  0  0  0  0  0  0  0  0  0  0  0
   -7.6023   -0.7961   -1.7608 H   0  0  0  0  0  0  0  0  0  0  0  0
   -6.6197   -2.2214   -1.4237 H   0  0  0  0  0  0  0  0  0  0  0  0
   -6.9702   -0.9940    0.6703 H   0  0  0  0  0  0  0  0  0  0  0  0
   -6.4288    0.5117   -0.0657 H   0  0  0  0  0  0  0  0  0  0  0  0
   -4.7196   -1.9687    0.4867 H   0  0  0  0  0  0  0  0  0  0  0  0
   -4.6633   -0.4035    1.3058 H   0  0  0  0  0  0  0  0  0  0  0  0
    5.4696   -1.1850   -0.6639 H   0  0  0  0  0  0  0  0  0  0  0  0
  1  2  1  0
  2  3  1  0
  3  4  1  0
  4  5  2  0
  5  6  1  0
  6  7  2  0
  7  8  1  0
  8  9  1  0
  9 10  1  0
 10 11  2  0
 10 12  1  0
 12 13  1  0
 13 14  1  0
 14 15  1  0
 15 16  1  0
 16 17  1  0
 17 18  1  0
 18 19  1  0
 19 20  1  0
 20 21  1  0
 21 22  1  0
 22 23  1  0
 23 24  1  0
  7 25  1  0
 25  3  2  0
 17 13  1  0
 24 19  1  0
  1 26  1  0
  1 27  1  0
  1 28  1  0
  4 29  1  0
  5 30  1  0
  6 31  1  0
  8 32  1  0
  8 33  1  0
  9 34  1  0
 12 35  1  0
 12 36  1  0
 14 37  1  0
 14 38  1  0
 15 39  1  0
 15 40  1  0
 16 41  1  0
 16 42  1  0
 17 43  1  0
 18 44  1  0
 18 45  1  0
 20 46  1  0
 20 47  1  0
 21 48  1  0
 21 49  1  0
 22 50  1  0
 22 51  1  0
 23 52  1  0
 23 53  1  0
 24 54  1  0
 24 55  1  0
 25 56  1  0
M  END
$$$$
OCNT-2317105
     RDKit          3D

 41 43  0  0  0  0  0  0  0  0999 V2000
    2.9498   -0.3181   -2.2388 C   0  0  0  0  0  0  0  0  0  0  0  0
    2.9265    0.2328   -0.8153 C   0  0  0  0  0  0  0  0  0  0  0  0
    1.4866    0.5039   -0.3884 C   0  0  0  0  0  0  0  0  0  0  0  0
    0.9252    1.5710   -0.6469 O   0  0  0  0  0  0  0  0  0  0  0  0
    0.7983   -0.5236    0.2351 N   0  0  0  0  0  0  0  0  0  0  0  0
    1.3517   -1.7848    0.7104 C   0  0  0  0  0  0  0  0  0  0  0  0
    0.1545   -2.5582    1.2375 C   0  0  0  0  0  0  0  0  0  0  0  0
   -0.7655   -1.4522    1.7378 C   0  0  0  0  0  0  0  0  0  0  0  0
   -0.5862   -0.3378    0.6965 C   0  0  0  0  0  0  0  0  0  0  0  0
   -1.5823   -0.4335   -0.4786 C   0  0  0  0  0  0  0  0  0  0  0  0
   -2.9974   -0.0741   -0.0933 C   0  0  0  0  0  0  0  0  0  0  0  0
   -3.3378    1.2587    0.1772 C   0  0  0  0  0  0  0  0  0  0  0  0
   -4.6422    1.5965    0.5399 C   0  0  0  0  0  0  0  0  0  0  0  0
   -5.6188    0.6071    0.6334 C   0  0  0  0  0  0  0  0  0  0  0  0
   -5.2925   -0.7204    0.3619 C   0  0  0  0  0  0  0  0  0  0  0  0
   -3.9884   -1.0605   -0.0015 C   0  0  0  0  0  0  0  0  0  0  0  0
    3.7701    1.4126   -0.6795 N   0  0  0  0  0  0  0  0  0  0  0  0
    3.6237    2.6474   -1.2354 C   0  0  0  0  0  0  0  0  0  0  0  0
    4.6627    3.3932   -0.9359 N   0  0  0  0  0  0  0  0  0  0  0  0
    5.4337    2.5576   -0.1829 C   0  0  0  0  0  0  0  0  0  0  0  0
    4.9406    1.3289   -0.0076 N   0  0  0  0  0  0  0  0  0  0  0  0
    2.5228    0.3966   -2.9517 H   0  0  0  0  0  0  0  0  0  0  0  0
    3.9746   -0.5364   -2.5585 H   0  0  0  0  0  0  0  0  0  0  0  0
    2.3654   -1.2411   -2.3135 H   0  0  0  0  0  0  0  0  0  0  0  0
    3.3690   -0.5125   -0.1459 H   0  0  0  0  0  0  0  0  0  0  0  0
    2.0635   -1.5610    1.5126 H   0  0  0  0  0  0  0  0  0  0  0  0
    1.8694   -2.3130   -0.0946 H   0  0  0  0  0  0  0  0  0  0  0  0
   -0.3297   -3.1102    0.4235 H   0  0  0  0  0  0  0  0  0  0  0  0
    0.4277   -3.2723    2.0191 H   0  0  0  0  0  0  0  0  0  0  0  0
   -1.7969   -1.7885    1.8675 H   0  0  0  0  0  0  0  0  0  0  0  0
   -0.4057   -1.1009    2.7134 H   0  0  0  0  0  0  0  0  0  0  0  0
   -0.6672    0.6438    1.1792 H   0  0  0  0  0  0  0  0  0  0  0  0
   -1.2773    0.2381   -1.2916 H   0  0  0  0  0  0  0  0  0  0  0  0
   -1.5556   -1.4388   -0.9186 H   0  0  0  0  0  0  0  0  0  0  0  0
   -2.5867    2.0434    0.1013 H   0  0  0  0  0  0  0  0  0  0  0  0
   -4.8961    2.6331    0.7463 H   0  0  0  0  0  0  0  0  0  0  0  0
   -6.6348    0.8714    0.9144 H   0  0  0  0  0  0  0  0  0  0  0  0
   -6.0555   -1.4912    0.4312 H   0  0  0  0  0  0  0  0  0  0  0  0
   -3.7526   -2.1011   -0.2116 H   0  0  0  0  0  0  0  0  0  0  0  0
    2.7697    2.9431   -1.8302 H   0  0  0  0  0  0  0  0  0  0  0  0
    6.3837    2.8512    0.2449 H   0  0  0  0  0  0  0  0  0  0  0  0
  1  2  1  0
  2  3  1  0
  3  4  2  0
  3  5  1  0
  5  6  1  0
  6  7  1  0
  7  8  1  0
  8  9  1  0
  9 10  1  0
 10 11  1  0
 11 12  2  0
 12 13  1  0
 13 14  2  0
 14 15  1  0
 15 16  2  0
  2 17  1  0
 17 18  1  0
 18 19  2  0
 19 20  1  0
 20 21  2  0
  9  5  1  0
 16 11  1  0
 21 17  1  0
  1 22  1  0
  1 23  1  0
  1 24  1  0
  2 25  1  0
  6 26  1  0
  6 27  1  0
  7 28  1  0
  7 29  1  0
  8 30  1  0
  8 31  1  0
  9 32  1  0
 10 33  1  0
 10 34  1  0
 12 35  1  0
 13 36  1  0
 14 37  1  0
 15 38  1  0
 16 39  1  0
 18 40  1  0
 20 41  1  0
M  END
$$$$
OCNT-2317109
     RDKit          3D

 43 45  0  0  0  0  0  0  0  0999 V2000
    6.5658   -1.1179   -0.0611 C   0  0  0  0  0  0  0  0  0  0  0  0
    5.2519   -1.8207   -0.4052 C   0  0  0  0  0  0  0  0  0  0  0  0
    5.0379   -3.0430    0.4888 C   0  0  0  0  0  0  0  0  0  0  0  0
    4.0836   -0.8602   -0.2943 C   0  0  0  0  0  0  0  0  0  0  0  0
    3.3245   -0.5411   -1.4195 C   0  0  0  0  0  0  0  0  0  0  0  0
    2.2548    0.3470   -1.2914 C   0  0  0  0  0  0  0  0  0  0  0  0
    1.9641    0.8928   -0.0410 C   0  0  0  0  0  0  0  0  0  0  0  0
    0.8537    1.8438    0.2014 C   0  0  0  0  0  0  0  0  0  0  0  0
    0.8900    2.5923    1.1714 O   0  0  0  0  0  0  0  0  0  0  0  0
   -0.2005    1.8060   -0.6881 N   0  0  0  0  0  0  0  0  0  0  0  0
   -1.3840    2.6115   -0.4819 C   0  0  0  0  0  0  0  0  0  0  0  0
   -2.4573    1.8199    0.2183 C   0  0  0  0  0  0  0  0  0  0  0  0
   -2.4232    1.6634    1.6057 C   0  0  0  0  0  0  0  0  0  0  0  0
   -3.4096    0.9084    2.2121 C   0  0  0  0  0  0  0  0  0  0  0  0
   -4.4113    0.3058    1.5374 N   0  0  0  0  0  0  0  0  0  0  0  0
   -4.4416    0.4541    0.1876 C   0  0  0  0  0  0  0  0  0  0  0  0
   -5.5014   -0.1913   -0.5100 N   0  0  0  0  0  0  0  0  0  0  0  0
   -6.4941   -0.9570    0.0657 C   0  0  0  0  0  0  0  0  0  0  0  0
   -7.2923   -1.3843   -0.9668 C   0  0  0  0  0  0  0  0  0  0  0  0
   -6.8307   -0.9097   -2.1634 N   0  0  0  0  0  0  0  0  0  0  0  0
   -5.7648   -0.1997   -1.8609 C   0  0  0  0  0  0  0  0  0  0  0  0
   -3.4847    1.1968   -0.5038 C   0  0  0  0  0  0  0  0  0  0  0  0
    2.7807    0.5377    1.0231 C   0  0  0  0  0  0  0  0  0  0  0  0
    3.8216   -0.3273    0.9240 N   0  0  0  0  0  0  0  0  0  0  0  0
    6.5787   -0.7655    0.9765 H   0  0  0  0  0  0  0  0  0  0  0  0
    7.4141   -1.7978   -0.1944 H   0  0  0  0  0  0  0  0  0  0  0  0
    6.7265   -0.2492   -0.7093 H   0  0  0  0  0  0  0  0  0  0  0  0
    5.3258   -2.1766   -1.4409 H   0  0  0  0  0  0  0  0  0  0  0  0
    4.9926   -2.7687    1.5488 H   0  0  0  0  0  0  0  0  0  0  0  0
    5.8554   -3.7611    0.3635 H   0  0  0  0  0  0  0  0  0  0  0  0
    4.1013   -3.5528    0.2369 H   0  0  0  0  0  0  0  0  0  0  0  0
    3.5623   -0.9680   -2.3892 H   0  0  0  0  0  0  0  0  0  0  0  0
    1.6872    0.6163   -2.1758 H   0  0  0  0  0  0  0  0  0  0  0  0
   -0.2819    1.0245   -1.3222 H   0  0  0  0  0  0  0  0  0  0  0  0
   -1.1444    3.5159    0.0889 H   0  0  0  0  0  0  0  0  0  0  0  0
   -1.7310    2.9354   -1.4694 H   0  0  0  0  0  0  0  0  0  0  0  0
   -1.6374    2.1174    2.2039 H   0  0  0  0  0  0  0  0  0  0  0  0
   -3.4190    0.7619    3.2887 H   0  0  0  0  0  0  0  0  0  0  0  0
   -6.5368   -1.1226    1.1333 H   0  0  0  0  0  0  0  0  0  0  0  0
   -8.1747   -2.0087   -0.9089 H   0  0  0  0  0  0  0  0  0  0  0  0
   -5.1609    0.3210   -2.5895 H   0  0  0  0  0  0  0  0  0  0  0  0
   -3.5102    1.3086   -1.5813 H   0  0  0  0  0  0  0  0  0  0  0  0
    2.6192    0.9421    2.0196 H   0  0  0  0  0  0  0  0  0  0  0  0
  1  2  1  0
  2  3  1  0
  2  4  1  0
  4  5  2  0
  5  6  1  0
  6  7  2  0
  7  8  1  0
  8  9  2  0
  8 10  1  0
 10 11  1  0
 11 12  1  0
 12 13  2  0
 13 14  1  0
 14 15  2  0
 15 16  1  0
 16 17  1  0
 17 18  1  0
 18 19  2  0
 19 20  1  0
 20 21  2  0
 16 22  2  0
  7 23  1  0
 23 24  2  0
 24  4  1  0
 22 12  1  0
 21 17  1  0
  1 25  1  0
  1 26  1  0
  1 27  1  0
  2 28  1  0
  3 29  1  0
  3 30  1  0
  3 31  1  0
  5 32  1  0
  6 33  1  0
 10 34  1  0
 11 35  1  0
 11 36  1  0
 13 37  1  0
 14 38  1  0
 18 39  1  0
 19 40  1  0
 21 41  1  0
 22 42  1  0
 23 43  1  0
M  END
$$$$
OCNT-2317112
     RDKit          3D

 42 43  0  0  0  0  0  0  0  0999 V2000
    4.7554   -0.0444   -2.8473 C   0  0  0  0  0  0  0  0  0  0  0  0
    3.6478    0.2226   -1.9959 O   0  0  0  0  0  0  0  0  0  0  0  0
    3.4254   -0.6574   -0.9734 C   0  0  0  0  0  0  0  0  0  0  0  0
    4.1043   -1.8513   -0.7595 C   0  0  0  0  0  0  0  0  0  0  0  0
    3.7665   -2.6601    0.3290 C   0  0  0  0  0  0  0  0  0  0  0  0
    2.7483   -2.2818    1.2118 C   0  0  0  0  0  0  0  0  0  0  0  0
    2.3660   -3.4786    2.6379 Br  0  0  0  0  0  0  0  0  0  0  0  0
    2.0528   -1.0793    1.0168 C   0  0  0  0  0  0  0  0  0  0  0  0
    0.9478   -0.5810    1.9210 C   0  0  0  0  0  0  0  0  0  0  0  0
   -0.3646   -0.6108    1.2674 N   0  0  0  0  0  0  0  0  0  0  0  0
   -1.0047   -1.9175    1.1617 C   0  0  0  0  0  0  0  0  0  0  0  0
   -0.9616    0.6070    0.9411 C   0  0  0  0  0  0  0  0  0  0  0  0
   -0.3655    1.6749    1.1065 O   0  0  0  0  0  0  0  0  0  0  0  0
   -2.3649    0.5717    0.2868 C   0  0  2  0  0  0  0  0  0  0  0  0
   -2.2031    0.3218   -1.2232 C   0  0  0  0  0  0  0  0  0  0  0  0
   -3.1361    1.3292   -1.8873 C   0  0  0  0  0  0  0  0  0  0  0  0
   -3.1339    2.5004   -0.9235 C   0  0  0  0  0  0  0  0  0  0  0  0
   -3.0556    1.8626    0.3709 N   0  0  0  0  0  0  0  0  0  0  0  0
   -3.5312    2.4734    1.4926 C   0  0  0  0  0  0  0  0  0  0  0  0
   -3.4473    1.7563    2.6400 N   0  0  0  0  0  0  0  0  0  0  0  0
   -4.0212    3.5962    1.5172 O   0  0  0  0  0  0  0  0  0  0  0  0
    2.4083   -0.2836   -0.0897 C   0  0  0  0  0  0  0  0  0  0  0  0
    4.5793   -0.9446   -3.4448 H   0  0  0  0  0  0  0  0  0  0  0  0
    5.6882   -0.1220   -2.2792 H   0  0  0  0  0  0  0  0  0  0  0  0
    4.8573    0.7991   -3.5366 H   0  0  0  0  0  0  0  0  0  0  0  0
    4.8970   -2.1859   -1.4199 H   0  0  0  0  0  0  0  0  0  0  0  0
    4.3095   -3.5896    0.4816 H   0  0  0  0  0  0  0  0  0  0  0  0
    0.8655   -1.1498    2.8514 H   0  0  0  0  0  0  0  0  0  0  0  0
    1.2082    0.4351    2.2384 H   0  0  0  0  0  0  0  0  0  0  0  0
   -0.2919   -2.6507    0.7755 H   0  0  0  0  0  0  0  0  0  0  0  0
   -1.3362   -2.2207    2.1631 H   0  0  0  0  0  0  0  0  0  0  0  0
   -1.8623   -1.9111    0.4932 H   0  0  0  0  0  0  0  0  0  0  0  0
   -3.0076   -0.1713    0.7662 H   0  0  0  0  0  0  0  0  0  0  0  0
   -2.4584   -0.7068   -1.4991 H   0  0  0  0  0  0  0  0  0  0  0  0
   -1.1719    0.5010   -1.5532 H   0  0  0  0  0  0  0  0  0  0  0  0
   -2.8124    1.6090   -2.8930 H   0  0  0  0  0  0  0  0  0  0  0  0
   -4.1440    0.9036   -1.9570 H   0  0  0  0  0  0  0  0  0  0  0  0
   -4.0232    3.1305   -1.0157 H   0  0  0  0  0  0  0  0  0  0  0  0
   -2.2395    3.1203   -1.0512 H   0  0  0  0  0  0  0  0  0  0  0  0
   -3.8766    2.2428    3.4161 H   0  0  0  0  0  0  0  0  0  0  0  0
   -3.6980    0.7835    2.5871 H   0  0  0  0  0  0  0  0  0  0  0  0
    1.8840    0.6571   -0.2655 H   0  0  0  0  0  0  0  0  0  0  0  0
  1  2  1  0
  2  3  1  0
  3  4  1  0
  4  5  2  0
  5  6  1  0
  6  7  1  0
  6  8  2  0
  8  9  1  0
  9 10  1  0
 10 11  1  0
 10 12  1  0
 12 13  2  0
 12 14  1  0
 14 15  1  0
 15 16  1  0
 16 17  1  0
 17 18  1  0
 18 19  1  0
 19 20  1  0
 19 21  2  0
  8 22  1  0
 22  3  2  0
 18 14  1  0
  1 23  1  0
  1 24  1  0
  1 25  1  0
  4 26  1  0
  5 27  1  0
  9 28  1  0
  9 29  1  0
 11 30  1  0
 11 31  1  0
 11 32  1  0
 14 33  1  1
 15 34  1  0
 15 35  1  0
 16 36  1  0
 16 37  1  0
 17 38  1  0
 17 39  1  0
 20 40  1  0
 20 41  1  0
 22 42  1  0
M  END
$$$$
OCNT-2317130
     RDKit          3D

 46 49  0  0  0  0  0  0  0  0999 V2000
    2.2497    2.0944    1.6310 C   0  0  0  0  0  0  0  0  0  0  0  0
    3.2891    1.5100    0.6732 C   0  0  1  0  0  0  0  0  0  0  0  0
    2.9706    0.0595    0.2674 C   0  0  0  0  0  0  0  0  0  0  0  0
    2.4069   -0.0684   -1.1562 C   0  0  1  0  0  0  0  0  0  0  0  0
    1.6915   -1.4034   -1.3449 C   0  0  0  0  0  0  0  0  0  0  0  0
    2.2227   -2.2797   -2.0238 O   0  0  0  0  0  0  0  0  0  0  0  0
    0.4869   -1.5200   -0.6820 N   0  0  0  0  0  0  0  0  0  0  0  0
   -0.3179   -2.6793   -0.5245 C   0  0  0  0  0  0  0  0  0  0  0  0
    0.1765   -3.9544   -0.8511 C   0  0  0  0  0  0  0  0  0  0  0  0
   -0.5930   -5.0990   -0.6489 C   0  0  0  0  0  0  0  0  0  0  0  0
   -1.8590   -4.9766   -0.1099 C   0  0  0  0  0  0  0  0  0  0  0  0
   -2.5978   -6.0734    0.1003 F   0  0  0  0  0  0  0  0  0  0  0  0
   -2.3789   -3.7303    0.2201 C   0  0  0  0  0  0  0  0  0  0  0  0
   -1.6320   -2.5516    0.0122 C   0  0  0  0  0  0  0  0  0  0  0  0
   -2.2151   -1.2168    0.3259 C   0  0  0  0  0  0  0  0  0  0  0  0
   -1.5158   -0.0949    0.3800 N   0  0  0  0  0  0  0  0  0  0  0  0
   -2.3443    0.9875    0.6483 C   0  0  0  0  0  0  0  0  0  0  0  0
   -1.9431    2.3340    0.7647 C   0  0  0  0  0  0  0  0  0  0  0  0
   -2.8912    3.3249    1.0415 C   0  0  0  0  0  0  0  0  0  0  0  0
   -4.2325    2.9921    1.1990 C   0  0  0  0  0  0  0  0  0  0  0  0
   -4.6576    1.6660    1.0828 C   0  0  0  0  0  0  0  0  0  0  0  0
   -3.6947    0.6805    0.8056 C   0  0  0  0  0  0  0  0  0  0  0  0
   -3.9081   -1.0077    0.5987 S   0  0  0  0  0  0  0  0  0  0  0  0
    1.5603    1.1464   -1.5218 C   0  0  0  0  0  0  0  0  0  0  0  0
    2.3787    2.4351   -1.4172 C   0  0  0  0  0  0  0  0  0  0  0  0
    3.5088    2.3781   -0.4868 N   0  0  0  0  0  0  0  0  0  0  0  0
    2.2157    1.5116    2.5578 H   0  0  0  0  0  0  0  0  0  0  0  0
    2.5030    3.1249    1.9007 H   0  0  0  0  0  0  0  0  0  0  0  0
    1.2451    2.0934    1.2054 H   0  0  0  0  0  0  0  0  0  0  0  0
    4.2315    1.4902    1.2364 H   0  0  0  0  0  0  0  0  0  0  0  0
    3.8938   -0.5330    0.3116 H   0  0  0  0  0  0  0  0  0  0  0  0
    2.2963   -0.3960    1.0027 H   0  0  0  0  0  0  0  0  0  0  0  0
    3.2575   -0.0885   -1.8540 H   0  0  0  0  0  0  0  0  0  0  0  0
    0.0762   -0.6701   -0.2951 H   0  0  0  0  0  0  0  0  0  0  0  0
    1.1764   -4.0943   -1.2504 H   0  0  0  0  0  0  0  0  0  0  0  0
   -0.2012   -6.0799   -0.8993 H   0  0  0  0  0  0  0  0  0  0  0  0
   -3.3779   -3.7162    0.6444 H   0  0  0  0  0  0  0  0  0  0  0  0
   -0.8998    2.6016    0.6367 H   0  0  0  0  0  0  0  0  0  0  0  0
   -2.5744    4.3615    1.1319 H   0  0  0  0  0  0  0  0  0  0  0  0
   -4.9608    3.7719    1.4130 H   0  0  0  0  0  0  0  0  0  0  0  0
   -5.7060    1.4069    1.2019 H   0  0  0  0  0  0  0  0  0  0  0  0
    1.1550    1.0429   -2.5361 H   0  0  0  0  0  0  0  0  0  0  0  0
    0.6944    1.2254   -0.8573 H   0  0  0  0  0  0  0  0  0  0  0  0
    2.7703    2.6959   -2.4083 H   0  0  0  0  0  0  0  0  0  0  0  0
    1.7158    3.2611   -1.1337 H   0  0  0  0  0  0  0  0  0  0  0  0
    4.3288    2.0379   -0.9917 H   0  0  0  0  0  0  0  0  0  0  0  0
  1  2  1  0
  2  3  1  0
  3  4  1  0
  4  5  1  0
  5  6  2  0
  5  7  1  0
  7  8  1  0
  8  9  1  0
  9 10  2  0
 10 11  1  0
 11 12  1  0
 11 13  2  0
 13 14  1  0
 14 15  1  0
 15 16  2  0
 16 17  1  0
 17 18  2  0
 18 19  1  0
 19 20  2  0
 20 21  1  0
 21 22  2  0
 22 23  1  0
  4 24  1  0
 24 25  1  0
 25 26  1  0
 26  2  1  0
 14  8  2  0
 23 15  1  0
 22 17  1  0
  1 27  1  0
  1 28  1  0
  1 29  1  0
  2 30  1  1
  3 31  1  0
  3 32  1  0
  4 33  1  6
  7 34  1  0
  9 35  1  0
 10 36  1  0
 13 37  1  0
 18 38  1  0
 19 39  1  0
 20 40  1  0
 21 41  1  0
 24 42  1  0
 24 43  1  0
 25 44  1  0
 25 45  1  0
 26 46  1  0
M  END
$$$$
OCNT-2317145
     RDKit          3D

 55 59  0  0  0  0  0  0  0  0999 V2000
   -3.8092    2.2893    0.4723 C   0  0  0  0  0  0  0  0  0  0  0  0
   -3.2131    1.4931   -0.6895 C   0  0  0  0  0  0  0  0  0  0  0  0
   -1.8655    1.0542   -0.3125 N   0  0  0  0  0  0  0  0  0  0  0  0
   -0.9611    0.6584   -1.2672 C   0  0  0  0  0  0  0  0  0  0  0  0
   -1.2033    0.7442   -2.4690 O   0  0  0  0  0  0  0  0  0  0  0  0
    0.2166    0.1329   -0.7623 N   0  0  0  0  0  0  0  0  0  0  0  0
    1.1696   -0.4640   -1.6928 C   0  0  0  0  0  0  0  0  0  0  0  0
    2.4203    0.4010   -1.8226 C   0  0  0  0  0  0  0  0  0  0  0  0
    3.0525    0.6828   -0.4453 C   0  0  0  0  0  0  0  0  0  0  0  0
    4.1773    1.6838   -0.6181 C   0  0  0  0  0  0  0  0  0  0  0  0
    5.4564    1.4173   -0.3381 C   0  0  0  0  0  0  0  0  0  0  0  0
    5.7807    0.0954    0.1706 C   0  0  0  0  0  0  0  0  0  0  0  0
    7.1030   -0.2560    0.4669 C   0  0  0  0  0  0  0  0  0  0  0  0
    7.3989   -1.5229    0.9758 C   0  0  0  0  0  0  0  0  0  0  0  0
    6.3773   -2.4448    1.1843 C   0  0  0  0  0  0  0  0  0  0  0  0
    5.0599   -2.0998    0.8821 C   0  0  0  0  0  0  0  0  0  0  0  0
    4.7624   -0.8337    0.3759 C   0  0  0  0  0  0  0  0  0  0  0  0
    3.4449   -0.5899    0.1174 O   0  0  0  0  0  0  0  0  0  0  0  0
    1.9892    1.2714    0.5032 C   0  0  0  0  0  0  0  0  0  0  0  0
    0.7507    0.3774    0.5783 C   0  0  0  0  0  0  0  0  0  0  0  0
   -4.0847    0.3102   -1.1914 C   0  0  0  0  0  0  0  0  0  0  0  0
   -5.5013    0.7353   -1.6112 C   0  0  0  0  0  0  0  0  0  0  0  0
   -6.4151    0.4881   -0.5141 O   0  0  0  0  0  0  0  0  0  0  0  0
   -5.7914   -0.5046    0.1976 C   0  0  0  0  0  0  0  0  0  0  0  0
   -6.4007   -1.2599    1.1749 C   0  0  0  0  0  0  0  0  0  0  0  0
   -5.6421   -2.2518    1.7999 C   0  0  0  0  0  0  0  0  0  0  0  0
   -4.2999   -2.4567    1.4424 C   0  0  0  0  0  0  0  0  0  0  0  0
   -3.6976   -1.6676    0.4601 C   0  0  0  0  0  0  0  0  0  0  0  0
   -4.4601   -0.6847   -0.1476 C   0  0  0  0  0  0  0  0  0  0  0  0
   -3.8782    1.6870    1.3851 H   0  0  0  0  0  0  0  0  0  0  0  0
   -3.1721    3.1497    0.7084 H   0  0  0  0  0  0  0  0  0  0  0  0
   -4.8037    2.6734    0.2318 H   0  0  0  0  0  0  0  0  0  0  0  0
   -3.0933    2.1870   -1.5319 H   0  0  0  0  0  0  0  0  0  0  0  0
   -1.8218    0.5155    0.5391 H   0  0  0  0  0  0  0  0  0  0  0  0
    0.7201   -0.6060   -2.6812 H   0  0  0  0  0  0  0  0  0  0  0  0
    1.4222   -1.4619   -1.3143 H   0  0  0  0  0  0  0  0  0  0  0  0
    3.1363   -0.1195   -2.4701 H   0  0  0  0  0  0  0  0  0  0  0  0
    2.1526    1.3435   -2.3188 H   0  0  0  0  0  0  0  0  0  0  0  0
    3.9170    2.6652   -1.0074 H   0  0  0  0  0  0  0  0  0  0  0  0
    6.2419    2.1496   -0.4825 H   0  0  0  0  0  0  0  0  0  0  0  0
    7.9119    0.4503    0.3068 H   0  0  0  0  0  0  0  0  0  0  0  0
    8.4276   -1.7879    1.2079 H   0  0  0  0  0  0  0  0  0  0  0  0
    6.6040   -3.4293    1.5803 H   0  0  0  0  0  0  0  0  0  0  0  0
    4.2614   -2.8166    1.0408 H   0  0  0  0  0  0  0  0  0  0  0  0
    1.6874    2.2704    0.1604 H   0  0  0  0  0  0  0  0  0  0  0  0
    2.4015    1.3813    1.5146 H   0  0  0  0  0  0  0  0  0  0  0  0
    0.9918   -0.5955    1.0213 H   0  0  0  0  0  0  0  0  0  0  0  0
    0.0178    0.8602    1.2287 H   0  0  0  0  0  0  0  0  0  0  0  0
   -3.5980   -0.1868   -2.0387 H   0  0  0  0  0  0  0  0  0  0  0  0
   -5.8496    0.1353   -2.4635 H   0  0  0  0  0  0  0  0  0  0  0  0
   -5.5628    1.7879   -1.9075 H   0  0  0  0  0  0  0  0  0  0  0  0
   -7.4400   -1.0974    1.4346 H   0  0  0  0  0  0  0  0  0  0  0  0
   -6.0968   -2.8793    2.5612 H   0  0  0  0  0  0  0  0  0  0  0  0
   -3.7281   -3.2410    1.9312 H   0  0  0  0  0  0  0  0  0  0  0  0
   -2.6636   -1.8334    0.1763 H   0  0  0  0  0  0  0  0  0  0  0  0
  1  2  1  0
  2  3  1  0
  3  4  1  0
  4  5  2  0
  4  6  1  0
  6  7  1  0
  7  8  1  0
  8  9  1  0
  9 10  1  0
 10 11  2  0
 11 12  1  0
 12 13  2  0
 13 14  1  0
 14 15  2  0
 15 16  1  0
 16 17  2  0
 17 18  1  0
  9 19  1  0
 19 20  1  0
  2 21  1  0
 21 22  1  0
 22 23  1  0
 23 24  1  0
 24 25  2  0
 25 26  1  0
 26 27  2  0
 27 28  1  0
 28 29  2  0
 20  6  1  0
 29 21  1  0
 18  9  1  0
 29 24  1  0
 17 12  1  0
  1 30  1  0
  1 31  1  0
  1 32  1  0
  2 33  1  0
  3 34  1  0
  7 35  1  0
  7 36  1  0
  8 37  1  0
  8 38  1  0
 10 39  1  0
 11 40  1  0
 13 41  1  0
 14 42  1  0
 15 43  1  0
 16 44  1  0
 19 45  1  0
 19 46  1  0
 20 47  1  0
 20 48  1  0
 21 49  1  0
 22 50  1  0
 22 51  1  0
 25 52  1  0
 26 53  1  0
 27 54  1  0
 28 55  1  0
M  END
$$$$
OCNT-2317158
     RDKit          3D

 47 49  0  0  0  0  0  0  0  0999 V2000
    3.8656   -1.3724   -1.2156 C   0  0  0  0  0  0  0  0  0  0  0  0
    3.5177   -0.4879   -0.1045 N   0  0  0  0  0  0  0  0  0  0  0  0
    4.2728    0.7029   -0.0533 C   0  0  0  0  0  0  0  0  0  0  0  0
    5.6607    0.6724   -0.1845 C   0  0  0  0  0  0  0  0  0  0  0  0
    6.4033    1.8503   -0.1237 C   0  0  0  0  0  0  0  0  0  0  0  0
    5.7307    3.0343    0.0739 C   0  0  0  0  0  0  0  0  0  0  0  0
    4.3979    3.0737    0.2124 N   0  0  0  0  0  0  0  0  0  0  0  0
    3.6778    1.8991    0.1561 N   0  0  0  0  0  0  0  0  0  0  0  0
    2.0867   -0.3356    0.2630 C   0  0  0  0  0  0  0  0  0  0  0  0
    1.2101    0.1614   -0.8994 C   0  0  0  0  0  0  0  0  0  0  0  0
   -0.2107   -0.4136   -0.8551 C   0  0  0  0  0  0  0  0  0  0  0  0
   -0.6851   -0.4854    0.5269 N   0  0  0  0  0  0  0  0  0  0  0  0
   -2.1273   -0.7564    0.6406 C   0  0  0  0  0  0  0  0  0  0  0  0
   -2.9781    0.4714    0.2869 C   0  0  0  0  0  0  0  0  0  0  0  0
   -4.4697    0.1833    0.4824 C   0  0  0  0  0  0  0  0  0  0  0  0
   -4.7409   -0.1330    1.8680 O   0  0  0  0  0  0  0  0  0  0  0  0
   -5.4086    1.2698   -0.1224 C   0  0  0  0  0  0  0  0  0  0  0  0
   -6.3231    0.1294   -0.6053 C   0  0  0  0  0  0  0  0  0  0  0  0
   -5.0997   -0.8030   -0.5444 C   0  0  0  0  0  0  0  0  0  0  0  0
    0.0886   -1.4637    1.3125 C   0  0  0  0  0  0  0  0  0  0  0  0
    1.5355   -1.6447    0.8386 C   0  0  0  0  0  0  0  0  0  0  0  0
    3.9255   -0.8250   -2.1638 H   0  0  0  0  0  0  0  0  0  0  0  0
    4.8231   -1.8719   -1.0339 H   0  0  0  0  0  0  0  0  0  0  0  0
    3.1293   -2.1700   -1.3495 H   0  0  0  0  0  0  0  0  0  0  0  0
    6.1856   -0.2680   -0.3065 H   0  0  0  0  0  0  0  0  0  0  0  0
    7.4824    1.8337   -0.2194 H   0  0  0  0  0  0  0  0  0  0  0  0
    6.2406    3.9878    0.1335 H   0  0  0  0  0  0  0  0  0  0  0  0
    2.0071    0.3886    1.0875 H   0  0  0  0  0  0  0  0  0  0  0  0
    1.6453   -0.0751   -1.8765 H   0  0  0  0  0  0  0  0  0  0  0  0
    1.1578    1.2570   -0.8528 H   0  0  0  0  0  0  0  0  0  0  0  0
   -0.2355   -1.4053   -1.3258 H   0  0  0  0  0  0  0  0  0  0  0  0
   -0.8422    0.2362   -1.4696 H   0  0  0  0  0  0  0  0  0  0  0  0
   -2.3559   -1.0303    1.6788 H   0  0  0  0  0  0  0  0  0  0  0  0
   -2.4099   -1.6183    0.0230 H   0  0  0  0  0  0  0  0  0  0  0  0
   -2.7988    0.7744   -0.7505 H   0  0  0  0  0  0  0  0  0  0  0  0
   -2.6832    1.3194    0.9181 H   0  0  0  0  0  0  0  0  0  0  0  0
   -4.5164    0.6752    2.3621 H   0  0  0  0  0  0  0  0  0  0  0  0
   -5.8680    1.9568    0.5941 H   0  0  0  0  0  0  0  0  0  0  0  0
   -4.9677    1.8562   -0.9370 H   0  0  0  0  0  0  0  0  0  0  0  0
   -7.1120   -0.1336    0.1087 H   0  0  0  0  0  0  0  0  0  0  0  0
   -6.7689    0.2642   -1.5939 H   0  0  0  0  0  0  0  0  0  0  0  0
   -4.5574   -0.8818   -1.4939 H   0  0  0  0  0  0  0  0  0  0  0  0
   -5.3060   -1.8108   -0.1730 H   0  0  0  0  0  0  0  0  0  0  0  0
   -0.3889   -2.4525    1.2990 H   0  0  0  0  0  0  0  0  0  0  0  0
    0.0940   -1.1278    2.3566 H   0  0  0  0  0  0  0  0  0  0  0  0
    1.5590   -2.4400    0.0843 H   0  0  0  0  0  0  0  0  0  0  0  0
    2.1570   -1.9912    1.6732 H   0  0  0  0  0  0  0  0  0  0  0  0
  1  2  1  0
  2  3  1  0
  3  4  2  0
  4  5  1  0
  5  6  2  0
  6  7  1  0
  7  8  2  0
  2  9  1  0
  9 10  1  0
 10 11  1  0
 11 12  1  0
 12 13  1  0
 13 14  1  0
 14 15  1  0
 15 16  1  0
 15 17  1  0
 17 18  1  0
 18 19  1  0
 12 20  1  0
 20 21  1  0
  8  3  1  0
 21  9  1  0
 19 15  1  0
  1 22  1  0
  1 23  1  0
  1 24  1  0
  4 25  1  0
  5 26  1  0
  6 27  1  0
  9 28  1  0
 10 29  1  0
 10 30  1  0
 11 31  1  0
 11 32  1  0
 13 33  1  0
 13 34  1  0
 14 35  1  0
 14 36  1  0
 16 37  1  0
 17 38  1  0
 17 39  1  0
 18 40  1  0
 18 41  1  0
 19 42  1  0
 19 43  1  0
 20 44  1  0
 20 45  1  0
 21 46  1  0
 21 47  1  0
M  END
$$$$
OCNT-2317163
     RDKit          3D

 48 50  0  0  0  0  0  0  0  0999 V2000
    6.7591    1.2678   -0.2985 C   0  0  0  0  0  0  0  0  0  0  0  0
    6.0140    0.3684   -1.6333 S   0  0  0  0  0  0  0  0  0  0  0  0
    5.9782    1.2405   -2.7917 O   0  0  0  0  0  0  0  0  0  0  0  0
    6.6293   -0.9417   -1.7030 O   0  0  0  0  0  0  0  0  0  0  0  0
    4.3384    0.1321   -1.0882 C   0  0  0  0  0  0  0  0  0  0  0  0
    3.3169    0.9156   -1.6177 C   0  0  0  0  0  0  0  0  0  0  0  0
    1.9946    0.7042   -1.2068 C   0  0  0  0  0  0  0  0  0  0  0  0
    1.6538   -0.3021   -0.2887 C   0  0  0  0  0  0  0  0  0  0  0  0
    0.3428   -0.4961    0.1621 N   0  0  0  0  0  0  0  0  0  0  0  0
   -0.8155    0.1219   -0.4955 C   0  0  0  0  0  0  0  0  0  0  0  0
   -1.1010    1.5137    0.0617 C   0  0  0  0  0  0  0  0  0  0  0  0
   -2.5649    1.7444   -0.3033 C   0  0  0  0  0  0  0  0  0  0  0  0
   -3.1639    0.4166   -0.2339 N   0  0  0  0  0  0  0  0  0  0  0  0
   -4.5143    0.1667   -0.2782 C   0  0  0  0  0  0  0  0  0  0  0  0
   -5.0360   -1.1247   -0.0987 C   0  0  0  0  0  0  0  0  0  0  0  0
   -6.4117   -1.3857   -0.1422 C   0  0  0  0  0  0  0  0  0  0  0  0
   -7.3103   -0.3511   -0.3677 C   0  0  0  0  0  0  0  0  0  0  0  0
   -6.8294    0.9393   -0.5474 C   0  0  0  0  0  0  0  0  0  0  0  0
   -5.4515    1.1885   -0.5014 C   0  0  0  0  0  0  0  0  0  0  0  0
   -2.1347   -0.6211   -0.1670 C   0  0  0  0  0  0  0  0  0  0  0  0
    2.7227   -1.0467    0.2596 C   0  0  0  0  0  0  0  0  0  0  0  0
    2.4070   -2.2872    1.5033 S   0  0  0  0  0  0  0  0  0  0  0  0
    2.0824   -1.3388    2.9678 C   0  0  0  0  0  0  0  0  0  0  0  0
    3.6403   -3.0197    1.7227 O   0  0  0  0  0  0  0  0  0  0  0  0
    1.1898   -2.9826    1.1205 O   0  0  0  0  0  0  0  0  0  0  0  0
    4.0520   -0.8596   -0.1535 C   0  0  0  0  0  0  0  0  0  0  0  0
    6.7177    0.6630    0.6092 H   0  0  0  0  0  0  0  0  0  0  0  0
    6.2248    2.2101   -0.1624 H   0  0  0  0  0  0  0  0  0  0  0  0
    7.7998    1.4664   -0.5637 H   0  0  0  0  0  0  0  0  0  0  0  0
    3.5281    1.6856   -2.3579 H   0  0  0  0  0  0  0  0  0  0  0  0
    1.2347    1.3413   -1.6503 H   0  0  0  0  0  0  0  0  0  0  0  0
    0.1771   -1.4989    0.3392 H   0  0  0  0  0  0  0  0  0  0  0  0
   -0.7015    0.1449   -1.5871 H   0  0  0  0  0  0  0  0  0  0  0  0
   -0.9800    1.5263    1.1529 H   0  0  0  0  0  0  0  0  0  0  0  0
   -0.4527    2.2917   -0.3507 H   0  0  0  0  0  0  0  0  0  0  0  0
   -2.6477    2.1427   -1.3211 H   0  0  0  0  0  0  0  0  0  0  0  0
   -3.0208    2.4496    0.3999 H   0  0  0  0  0  0  0  0  0  0  0  0
   -4.3751   -1.9656    0.0911 H   0  0  0  0  0  0  0  0  0  0  0  0
   -6.7735   -2.3999    0.0035 H   0  0  0  0  0  0  0  0  0  0  0  0
   -8.3776   -0.5491   -0.4022 H   0  0  0  0  0  0  0  0  0  0  0  0
   -7.5208    1.7584   -0.7253 H   0  0  0  0  0  0  0  0  0  0  0  0
   -5.1248    2.2129   -0.6544 H   0  0  0  0  0  0  0  0  0  0  0  0
   -2.2970   -1.4208   -0.8986 H   0  0  0  0  0  0  0  0  0  0  0  0
   -2.1078   -1.0589    0.8383 H   0  0  0  0  0  0  0  0  0  0  0  0
    1.9137   -2.0375    3.7902 H   0  0  0  0  0  0  0  0  0  0  0  0
    2.9515   -0.7151    3.1859 H   0  0  0  0  0  0  0  0  0  0  0  0
    1.1926   -0.7256    2.8201 H   0  0  0  0  0  0  0  0  0  0  0  0
    4.8513   -1.4839    0.2432 H   0  0  0  0  0  0  0  0  0  0  0  0
  1  2  1  0
  2  3  2  0
  2  4  2  0
  2  5  1  0
  5  6  1  0
  6  7  2  0
  7  8  1  0
  8  9  1  0
  9 10  1  0
 10 11  1  0
 11 12  1  0
 12 13  1  0
 13 14  1  0
 14 15  2  0
 15 16  1  0
 16 17  2  0
 17 18  1  0
 18 19  2  0
 13 20  1  0
  8 21  2  0
 21 22  1  0
 22 23  1  0
 22 24  2  0
 22 25  2  0
 21 26  1  0
 26  5  2  0
 20 10  1  0
 19 14  1  0
  1 27  1  0
  1 28  1  0
  1 29  1  0
  6 30  1  0
  7 31  1  0
  9 32  1  0
 10 33  1  0
 11 34  1  0
 11 35  1  0
 12 36  1  0
 12 37  1  0
 15 38  1  0
 16 39  1  0
 17 40  1  0
 18 41  1  0
 19 42  1  0
 20 43  1  0
 20 44  1  0
 23 45  1  0
 23 46  1  0
 23 47  1  0
 26 48  1  0
M  END
$$$$
OCNT-2317169
     RDKit          3D

 54 57  0  0  0  0  0  0  0  0999 V2000
   -0.4533   -3.0174    0.5551 O   0  0  0  0  0  0  0  0  0  0  0  0
   -0.6746   -1.9215    1.0642 C   0  0  0  0  0  0  0  0  0  0  0  0
    0.1384   -0.8368    0.8493 N   0  0  0  0  0  0  0  0  0  0  0  0
    1.2706   -0.9305   -0.0626 C   0  0  0  0  0  0  0  0  0  0  0  0
    0.8199   -0.8958   -1.5261 C   0  0  0  0  0  0  0  0  0  0  0  0
    2.0310   -0.8829   -2.4446 C   0  0  0  0  0  0  0  0  0  0  0  0
    2.8856    0.2178   -2.1355 O   0  0  0  0  0  0  0  0  0  0  0  0
    3.4085    0.1473   -0.8036 C   0  0  0  0  0  0  0  0  0  0  0  0
    4.3777    1.2821   -0.5744 C   0  0  0  0  0  0  0  0  0  0  0  0
    5.4239    1.1565    0.3472 C   0  0  0  0  0  0  0  0  0  0  0  0
    6.2882    2.2252    0.5671 C   0  0  0  0  0  0  0  0  0  0  0  0
    6.0751    3.3975   -0.1391 C   0  0  0  0  0  0  0  0  0  0  0  0
    5.0756    3.5640   -1.0296 N   0  0  0  0  0  0  0  0  0  0  0  0
    4.2548    2.5049   -1.2287 C   0  0  0  0  0  0  0  0  0  0  0  0
    2.2629    0.1995    0.2104 C   0  0  0  0  0  0  0  0  0  0  0  0
   -1.7711   -1.6714    1.8763 N   0  0  0  0  0  0  0  0  0  0  0  0
   -2.8606   -2.6396    1.8468 C   0  0  0  0  0  0  0  0  0  0  0  0
   -3.6575   -2.6068    0.5349 C   0  0  0  0  0  0  0  0  0  0  0  0
   -4.5031   -1.3479    0.3195 C   0  0  0  0  0  0  0  0  0  0  0  0
   -3.7269   -0.1071   -0.0751 C   0  0  0  0  0  0  0  0  0  0  0  0
   -3.6139    0.2049   -1.4411 C   0  0  0  0  0  0  0  0  0  0  0  0
   -2.9268    1.3426   -1.8651 C   0  0  0  0  0  0  0  0  0  0  0  0
   -2.3359    2.1863   -0.9316 C   0  0  0  0  0  0  0  0  0  0  0  0
   -2.4240    1.8880    0.4261 C   0  0  0  0  0  0  0  0  0  0  0  0
   -3.1125    0.7440    0.8691 C   0  0  0  0  0  0  0  0  0  0  0  0
   -3.1047    0.4196    2.3443 C   0  0  0  0  0  0  0  0  0  0  0  0
   -1.9340   -0.4902    2.7349 C   0  0  0  0  0  0  0  0  0  0  0  0
   -0.3885    0.0224    0.7788 H   0  0  0  0  0  0  0  0  0  0  0  0
    1.7708   -1.8894    0.1283 H   0  0  0  0  0  0  0  0  0  0  0  0
    0.1774   -1.7508   -1.7638 H   0  0  0  0  0  0  0  0  0  0  0  0
    0.2257    0.0111   -1.6985 H   0  0  0  0  0  0  0  0  0  0  0  0
    2.5980   -1.8187   -2.3745 H   0  0  0  0  0  0  0  0  0  0  0  0
    1.7075   -0.7706   -3.4843 H   0  0  0  0  0  0  0  0  0  0  0  0
    3.9596   -0.7986   -0.7107 H   0  0  0  0  0  0  0  0  0  0  0  0
    5.5699    0.2295    0.8957 H   0  0  0  0  0  0  0  0  0  0  0  0
    7.1071    2.1474    1.2728 H   0  0  0  0  0  0  0  0  0  0  0  0
    6.7223    4.2590   -0.0043 H   0  0  0  0  0  0  0  0  0  0  0  0
    3.4647    2.6765   -1.9562 H   0  0  0  0  0  0  0  0  0  0  0  0
    2.6441    0.1276    1.2369 H   0  0  0  0  0  0  0  0  0  0  0  0
    1.7391    1.1631    0.1366 H   0  0  0  0  0  0  0  0  0  0  0  0
   -3.5205   -2.4800    2.7070 H   0  0  0  0  0  0  0  0  0  0  0  0
   -2.4254   -3.6397    1.9653 H   0  0  0  0  0  0  0  0  0  0  0  0
   -4.3424   -3.4639    0.5534 H   0  0  0  0  0  0  0  0  0  0  0  0
   -2.9934   -2.7604   -0.3237 H   0  0  0  0  0  0  0  0  0  0  0  0
   -5.1311   -1.1473    1.1937 H   0  0  0  0  0  0  0  0  0  0  0  0
   -5.2236   -1.5643   -0.4811 H   0  0  0  0  0  0  0  0  0  0  0  0
   -4.0688   -0.4411   -2.1898 H   0  0  0  0  0  0  0  0  0  0  0  0
   -2.8595    1.5711   -2.9267 H   0  0  0  0  0  0  0  0  0  0  0  0
   -1.8044    3.0752   -1.2624 H   0  0  0  0  0  0  0  0  0  0  0  0
   -1.9467    2.5546    1.1418 H   0  0  0  0  0  0  0  0  0  0  0  0
   -4.0561   -0.0328    2.6420 H   0  0  0  0  0  0  0  0  0  0  0  0
   -3.0474    1.3472    2.9289 H   0  0  0  0  0  0  0  0  0  0  0  0
   -1.0082    0.0934    2.7616 H   0  0  0  0  0  0  0  0  0  0  0  0
   -2.0838   -0.8532    3.7593 H   0  0  0  0  0  0  0  0  0  0  0  0
  1  2  2  0
  2  3  1  0
  3  4  1  0
  4  5  1  0
  5  6  1  0
  6  7  1  0
  7  8  1  0
  8  9  1  0
  9 10  1  0
 10 11  2  0
 11 12  1  0
 12 13  2  0
 13 14  1  0
  8 15  1  0
  2 16  1  0
 16 17  1  0
 17 18  1  0
 18 19  1  0
 19 20  1  0
 20 21  2  0
 21 22  1  0
 22 23  2  0
 23 24  1  0
 24 25  2  0
 25 26  1  0
 26 27  1  0
 15  4  1  0
 27 16  1  0
 14  9  2  0
 25 20  1  0
  3 28  1  0
  4 29  1  0
  5 30  1  0
  5 31  1  0
  6 32  1  0
  6 33  1  0
  8 34  1  0
 10 35  1  0
 11 36  1  0
 12 37  1  0
 14 38  1  0
 15 39  1  0
 15 40  1  0
 17 41  1  0
 17 42  1  0
 18 43  1  0
 18 44  1  0
 19 45  1  0
 19 46  1  0
 21 47  1  0
 22 48  1  0
 23 49  1  0
 24 50  1  0
 26 51  1  0
 26 52  1  0
 27 53  1  0
 27 54  1  0
M  END
$$$$
OCNT-2317170
     RDKit          3D

 50 53  0  0  0  0  0  0  0  0999 V2000
   -5.6948   -2.0661    1.1338 C   0  0  0  0  0  0  0  0  0  0  0  0
   -4.9706   -0.8778    0.7396 N   0  0  0  0  0  0  0  0  0  0  0  0
   -3.6648   -0.8615    0.3239 C   0  0  0  0  0  0  0  0  0  0  0  0
   -3.3064    0.4483    0.0380 C   0  0  0  0  0  0  0  0  0  0  0  0
   -2.0026    0.9276   -0.4281 C   0  0  0  0  0  0  0  0  0  0  0  0
   -1.7064    2.1179   -0.4592 O   0  0  0  0  0  0  0  0  0  0  0  0
   -1.1338   -0.0618   -0.8476 N   0  0  0  0  0  0  0  0  0  0  0  0
    0.1271    0.2620   -1.4836 C   0  0  0  0  0  0  0  0  0  0  0  0
    1.1913   -0.8105   -1.2117 C   0  0  0  0  0  0  0  0  0  0  0  0
    1.6158   -0.8350    0.2677 C   0  0  0  0  0  0  0  0  0  0  0  0
    2.8659    0.0047    0.5265 C   0  0  0  0  0  0  0  0  0  0  0  0
    3.9881   -0.4981   -0.2738 N   0  0  0  0  0  0  0  0  0  0  0  0
    5.2990   -0.3338    0.1551 C   0  0  0  0  0  0  0  0  0  0  0  0
    6.3383   -1.1483   -0.3085 C   0  0  0  0  0  0  0  0  0  0  0  0
    7.6353   -0.9511    0.1500 C   0  0  0  0  0  0  0  0  0  0  0  0
    7.9847    0.0002    1.0355 N   0  0  0  0  0  0  0  0  0  0  0  0
    6.9843    0.7839    1.4787 C   0  0  0  0  0  0  0  0  0  0  0  0
    5.6598    0.6543    1.0784 C   0  0  0  0  0  0  0  0  0  0  0  0
    3.6903   -1.1514   -1.5517 C   0  0  0  0  0  0  0  0  0  0  0  0
    2.3971   -0.5923   -2.1411 C   0  0  0  0  0  0  0  0  0  0  0  0
   -4.4691    1.2499    0.3104 C   0  0  0  0  0  0  0  0  0  0  0  0
   -4.7460    2.6326    0.2249 C   0  0  0  0  0  0  0  0  0  0  0  0
   -6.0155    3.1134    0.5599 C   0  0  0  0  0  0  0  0  0  0  0  0
   -7.0130    2.2398    0.9775 C   0  0  0  0  0  0  0  0  0  0  0  0
   -6.7703    0.8673    1.0740 C   0  0  0  0  0  0  0  0  0  0  0  0
   -5.4913    0.3958    0.7365 C   0  0  0  0  0  0  0  0  0  0  0  0
   -6.0028   -1.9532    2.1764 H   0  0  0  0  0  0  0  0  0  0  0  0
   -5.0466   -2.9400    1.0344 H   0  0  0  0  0  0  0  0  0  0  0  0
   -6.5655   -2.1739    0.4818 H   0  0  0  0  0  0  0  0  0  0  0  0
   -3.0954   -1.7807    0.2824 H   0  0  0  0  0  0  0  0  0  0  0  0
   -1.5317   -0.9715   -1.0272 H   0  0  0  0  0  0  0  0  0  0  0  0
   -0.0796    0.3311   -2.5578 H   0  0  0  0  0  0  0  0  0  0  0  0
    0.4748    1.2465   -1.1509 H   0  0  0  0  0  0  0  0  0  0  0  0
    0.7532   -1.7918   -1.4407 H   0  0  0  0  0  0  0  0  0  0  0  0
    1.8309   -1.8746    0.5500 H   0  0  0  0  0  0  0  0  0  0  0  0
    0.8037   -0.5046    0.9248 H   0  0  0  0  0  0  0  0  0  0  0  0
    3.0883   -0.0619    1.5982 H   0  0  0  0  0  0  0  0  0  0  0  0
    2.6782    1.0575    0.2844 H   0  0  0  0  0  0  0  0  0  0  0  0
    6.1571   -1.9576   -1.0055 H   0  0  0  0  0  0  0  0  0  0  0  0
    8.4487   -1.5819   -0.1961 H   0  0  0  0  0  0  0  0  0  0  0  0
    7.2772    1.5526    2.1878 H   0  0  0  0  0  0  0  0  0  0  0  0
    4.9322    1.3501    1.4788 H   0  0  0  0  0  0  0  0  0  0  0  0
    3.6066   -2.2349   -1.4047 H   0  0  0  0  0  0  0  0  0  0  0  0
    4.4871   -0.9698   -2.2833 H   0  0  0  0  0  0  0  0  0  0  0  0
    2.1981   -1.0589   -3.1133 H   0  0  0  0  0  0  0  0  0  0  0  0
    2.5359    0.4806   -2.3343 H   0  0  0  0  0  0  0  0  0  0  0  0
   -3.9737    3.3256   -0.1002 H   0  0  0  0  0  0  0  0  0  0  0  0
   -6.2192    4.1787    0.4911 H   0  0  0  0  0  0  0  0  0  0  0  0
   -7.9951    2.6287    1.2316 H   0  0  0  0  0  0  0  0  0  0  0  0
   -7.5550    0.1938    1.4023 H   0  0  0  0  0  0  0  0  0  0  0  0
  1  2  1  0
  2  3  1  0
  3  4  2  0
  4  5  1  0
  5  6  2  0
  5  7  1  0
  7  8  1  0
  8  9  1  0
  9 10  1  0
 10 11  1  0
 11 12  1  0
 12 13  1  0
 13 14  2  0
 14 15  1  0
 15 16  2  0
 16 17  1  0
 17 18  2  0
 12 19  1  0
 19 20  1  0
  4 21  1  0
 21 22  2  0
 22 23  1  0
 23 24  2  0
 24 25  1  0
 25 26  2  0
 26  2  1  0
 20  9  1  0
 26 21  1  0
 18 13  1  0
  1 27  1  0
  1 28  1  0
  1 29  1  0
  3 30  1  0
  7 31  1  0
  8 32  1  0
  8 33  1  0
  9 34  1  0
 10 35  1  0
 10 36  1  0
 11 37  1  0
 11 38  1  0
 14 39  1  0
 15 40  1  0
 17 41  1  0
 18 42  1  0
 19 43  1  0
 19 44  1  0
 20 45  1  0
 20 46  1  0
 22 47  1  0
 23 48  1  0
 24 49  1  0
 25 50  1  0
M  END
$$$$
OCNT-2317172
     RDKit          3D

 46 48  0  0  0  0  0  0  0  0999 V2000
    0.5667   -0.7504   -2.3283 O   0  0  0  0  0  0  0  0  0  0  0  0
   -0.0392   -0.4885   -1.2913 C   0  0  0  0  0  0  0  0  0  0  0  0
    0.4014    0.4080   -0.3393 N   0  0  0  0  0  0  0  0  0  0  0  0
    1.7156    0.8945   -0.5371 O   0  0  0  0  0  0  0  0  0  0  0  0
    2.5212    0.6057    0.6089 C   0  0  0  0  0  0  0  0  0  0  0  0
    3.9605    0.9147    0.3149 C   0  0  0  0  0  0  0  0  0  0  0  0
    4.5416    0.6368   -0.9263 C   0  0  0  0  0  0  0  0  0  0  0  0
    5.8908    0.9058   -1.1357 C   0  0  0  0  0  0  0  0  0  0  0  0
    6.6240    1.4337   -0.0868 C   0  0  0  0  0  0  0  0  0  0  0  0
    6.1061    1.7003    1.1313 N   0  0  0  0  0  0  0  0  0  0  0  0
    4.7912    1.4339    1.3029 C   0  0  0  0  0  0  0  0  0  0  0  0
   -1.4408   -1.0713   -0.9842 C   0  0  0  0  0  0  0  0  0  0  0  0
   -1.5535   -2.5241   -1.4558 C   0  0  0  0  0  0  0  0  0  0  0  0
   -0.6740   -3.4812   -0.6468 C   0  0  0  0  0  0  0  0  0  0  0  0
   -0.3606   -2.9754    0.7604 C   0  0  0  0  0  0  0  0  0  0  0  0
   -1.4716   -2.0976    1.3199 C   0  0  0  0  0  0  0  0  0  0  0  0
   -1.8014   -0.9640    0.4530 N   0  0  0  0  0  0  0  0  0  0  0  0
   -2.5688    0.0613    1.0091 C   0  0  0  0  0  0  0  0  0  0  0  0
   -2.7935    0.1569    2.2116 O   0  0  0  0  0  0  0  0  0  0  0  0
   -3.1281    1.0952    0.1209 C   0  0  0  0  0  0  0  0  0  0  0  0
   -2.4940    2.3350    0.0172 C   0  0  0  0  0  0  0  0  0  0  0  0
   -3.0304    3.3077   -0.8259 C   0  0  0  0  0  0  0  0  0  0  0  0
   -4.1987    3.0434   -1.5444 C   0  0  0  0  0  0  0  0  0  0  0  0
   -4.8407    1.8098   -1.4181 C   0  0  0  0  0  0  0  0  0  0  0  0
   -4.3096    0.8313   -0.5789 C   0  0  0  0  0  0  0  0  0  0  0  0
    0.0511    0.3284    0.6103 H   0  0  0  0  0  0  0  0  0  0  0  0
    2.1595    1.2153    1.4451 H   0  0  0  0  0  0  0  0  0  0  0  0
    2.4337   -0.4553    0.8728 H   0  0  0  0  0  0  0  0  0  0  0  0
    3.9434    0.2177   -1.7340 H   0  0  0  0  0  0  0  0  0  0  0  0
    6.3566    0.7078   -2.0942 H   0  0  0  0  0  0  0  0  0  0  0  0
    7.6798    1.6617   -0.2012 H   0  0  0  0  0  0  0  0  0  0  0  0
    4.4159    1.6596    2.2977 H   0  0  0  0  0  0  0  0  0  0  0  0
   -2.1324   -0.4705   -1.5813 H   0  0  0  0  0  0  0  0  0  0  0  0
   -1.3109   -2.6168   -2.5209 H   0  0  0  0  0  0  0  0  0  0  0  0
   -2.5992   -2.8427   -1.3494 H   0  0  0  0  0  0  0  0  0  0  0  0
   -1.1760   -4.4547   -0.5881 H   0  0  0  0  0  0  0  0  0  0  0  0
    0.2699   -3.6584   -1.1764 H   0  0  0  0  0  0  0  0  0  0  0  0
   -0.1783   -3.8260    1.4269 H   0  0  0  0  0  0  0  0  0  0  0  0
    0.5735   -2.4011    0.7348 H   0  0  0  0  0  0  0  0  0  0  0  0
   -1.1872   -1.7239    2.3101 H   0  0  0  0  0  0  0  0  0  0  0  0
   -2.3900   -2.6844    1.4456 H   0  0  0  0  0  0  0  0  0  0  0  0
   -1.5944    2.5489    0.5872 H   0  0  0  0  0  0  0  0  0  0  0  0
   -2.5426    4.2751   -0.9200 H   0  0  0  0  0  0  0  0  0  0  0  0
   -4.6155    3.8064   -2.1982 H   0  0  0  0  0  0  0  0  0  0  0  0
   -5.7575    1.6162   -1.9698 H   0  0  0  0  0  0  0  0  0  0  0  0
   -4.8136   -0.1250   -0.4689 H   0  0  0  0  0  0  0  0  0  0  0  0
  1  2  2  0
  2  3  1  0
  3  4  1  0
  4  5  1  0
  5  6  1  0
  6  7  1  0
  7  8  2  0
  8  9  1  0
  9 10  2  0
 10 11  1  0
  2 12  1  0
 12 13  1  0
 13 14  1  0
 14 15  1  0
 15 16  1  0
 16 17  1  0
 17 18  1  0
 18 19  2  0
 18 20  1  0
 20 21  2  0
 21 22  1  0
 22 23  2  0
 23 24  1  0
 24 25  2  0
 11  6  2  0
 17 12  1  0
 25 20  1  0
  3 26  1  0
  5 27  1  0
  5 28  1  0
  7 29  1  0
  8 30  1  0
  9 31  1  0
 11 32  1  0
 12 33  1  0
 13 34  1  0
 13 35  1  0
 14 36  1  0
 14 37  1  0
 15 38  1  0
 15 39  1  0
 16 40  1  0
 16 41  1  0
 21 42  1  0
 22 43  1  0
 23 44  1  0
 24 45  1  0
 25 46  1  0
M  END
$$$$
OCNT-2317174
     RDKit          3D

 51 52  0  0  0  0  0  0  0  0999 V2000
    7.9467    1.3706   -0.0403 C   0  0  0  0  0  0  0  0  0  0  0  0
    7.2402    0.4486   -1.0244 C   0  0  0  0  0  0  0  0  0  0  0  0
    6.3729   -0.4619   -0.3423 O   0  0  0  0  0  0  0  0  0  0  0  0
    5.1089   -0.0614   -0.0111 C   0  0  0  0  0  0  0  0  0  0  0  0
    4.5315    1.1766   -0.2984 C   0  0  0  0  0  0  0  0  0  0  0  0
    3.2220    1.4663    0.1168 C   0  0  0  0  0  0  0  0  0  0  0  0
    2.4730    0.5261    0.8300 C   0  0  0  0  0  0  0  0  0  0  0  0
    1.0717    0.8221    1.3018 C   0  0  0  0  0  0  0  0  0  0  0  0
    0.1027    0.1327    0.4797 N   0  0  0  0  0  0  0  0  0  0  0  0
   -1.0378   -0.3901    1.0223 C   0  0  0  0  0  0  0  0  0  0  0  0
   -1.2503   -0.3570    2.2361 O   0  0  0  0  0  0  0  0  0  0  0  0
   -1.9164   -0.9792    0.1261 N   0  0  0  0  0  0  0  0  0  0  0  0
   -1.7442   -1.0040   -1.3343 C   0  0  0  0  0  0  0  0  0  0  0  0
   -2.4264   -2.1997   -1.9932 C   0  0  0  0  0  0  0  0  0  0  0  0
   -3.8019   -2.2789   -1.6106 O   0  0  0  0  0  0  0  0  0  0  0  0
   -3.9083   -2.5012   -0.2018 C   0  0  0  0  0  0  0  0  0  0  0  0
   -3.2359   -1.4012    0.6445 C   0  0  2  0  0  0  0  0  0  0  0  0
   -4.1748   -0.2215    1.0164 C   0  0  0  0  0  0  0  0  0  0  0  0
   -4.4250    0.9162    0.0024 C   0  0  0  0  0  0  0  0  0  0  0  0
   -5.2804    0.4967   -1.1907 C   0  0  0  0  0  0  0  0  0  0  0  0
   -5.1277    2.0798    0.7269 C   0  0  0  0  0  0  0  0  0  0  0  0
    3.0494   -0.7199    1.1040 C   0  0  0  0  0  0  0  0  0  0  0  0
    4.3487   -1.0005    0.6881 C   0  0  0  0  0  0  0  0  0  0  0  0
    4.8677   -2.2059    0.9839 F   0  0  0  0  0  0  0  0  0  0  0  0
    8.4991    0.7832    0.7013 H   0  0  0  0  0  0  0  0  0  0  0  0
    8.6496    2.0277   -0.5612 H   0  0  0  0  0  0  0  0  0  0  0  0
    7.2348    1.9888    0.5140 H   0  0  0  0  0  0  0  0  0  0  0  0
    7.9985   -0.1655   -1.5251 H   0  0  0  0  0  0  0  0  0  0  0  0
    6.7268    0.9954   -1.8206 H   0  0  0  0  0  0  0  0  0  0  0  0
    5.0714    1.9498   -0.8313 H   0  0  0  0  0  0  0  0  0  0  0  0
    2.8003    2.4414   -0.1145 H   0  0  0  0  0  0  0  0  0  0  0  0
    0.9726    0.5433    2.3595 H   0  0  0  0  0  0  0  0  0  0  0  0
    0.8516    1.8947    1.2303 H   0  0  0  0  0  0  0  0  0  0  0  0
    0.0811    0.4060   -0.4821 H   0  0  0  0  0  0  0  0  0  0  0  0
   -0.6822   -1.0237   -1.6002 H   0  0  0  0  0  0  0  0  0  0  0  0
   -2.1735   -0.0703   -1.7176 H   0  0  0  0  0  0  0  0  0  0  0  0
   -2.3891   -2.0900   -3.0818 H   0  0  0  0  0  0  0  0  0  0  0  0
   -1.9186   -3.1391   -1.7349 H   0  0  0  0  0  0  0  0  0  0  0  0
   -3.4426   -3.4744    0.0190 H   0  0  0  0  0  0  0  0  0  0  0  0
   -4.9728   -2.5952    0.0526 H   0  0  0  0  0  0  0  0  0  0  0  0
   -3.0352   -1.8920    1.6111 H   0  0  0  0  0  0  0  0  0  0  0  0
   -5.1401   -0.6310    1.3437 H   0  0  0  0  0  0  0  0  0  0  0  0
   -3.7508    0.2445    1.9178 H   0  0  0  0  0  0  0  0  0  0  0  0
   -3.4675    1.3024   -0.3662 H   0  0  0  0  0  0  0  0  0  0  0  0
   -5.6336    1.3720   -1.7484 H   0  0  0  0  0  0  0  0  0  0  0  0
   -6.1568   -0.0761   -0.8740 H   0  0  0  0  0  0  0  0  0  0  0  0
   -4.7092   -0.1063   -1.8987 H   0  0  0  0  0  0  0  0  0  0  0  0
   -5.2776    2.9323    0.0498 H   0  0  0  0  0  0  0  0  0  0  0  0
   -4.5267    2.4328    1.5714 H   0  0  0  0  0  0  0  0  0  0  0  0
   -6.1114    1.7763    1.1119 H   0  0  0  0  0  0  0  0  0  0  0  0
    2.4957   -1.4804    1.6478 H   0  0  0  0  0  0  0  0  0  0  0  0
  1  2  1  0
  2  3  1  0
  3  4  1  0
  4  5  1  0
  5  6  2  0
  6  7  1  0
  7  8  1  0
  8  9  1  0
  9 10  1  0
 10 11  2  0
 10 12  1  0
 12 13  1  0
 13 14  1  0
 14 15  1  0
 15 16  1  0
 16 17  1  0
 17 18  1  0
 18 19  1  0
 19 20  1  0
 19 21  1  0
  7 22  2  0
 22 23  1  0
 23 24  1  0
 23  4  2  0
 17 12  1  0
  1 25  1  0
  1 26  1  0
  1 27  1  0
  2 28  1  0
  2 29  1  0
  5 30  1  0
  6 31  1  0
  8 32  1  0
  8 33  1  0
  9 34  1  0
 13 35  1  0
 13 36  1  0
 14 37  1  0
 14 38  1  0
 16 39  1  0
 16 40  1  0
 17 41  1  1
 18 42  1  0
 18 43  1  0
 19 44  1  0
 20 45  1  0
 20 46  1  0
 20 47  1  0
 21 48  1  0
 21 49  1  0
 21 50  1  0
 22 51  1  0
M  END
$$$$
OCNT-2317181
     RDKit          3D

 47 49  0  0  0  0  0  0  0  0999 V2000
   -6.1205   -1.9000   -1.2452 C   0  0  0  0  0  0  0  0  0  0  0  0
   -5.2416   -0.8579   -0.6225 C   0  0  0  0  0  0  0  0  0  0  0  0
   -5.7543    0.0296    0.2941 C   0  0  0  0  0  0  0  0  0  0  0  0
   -4.8694    0.9563    0.8092 C   0  0  0  0  0  0  0  0  0  0  0  0
   -5.3732    1.9654    1.8246 C   0  0  0  0  0  0  0  0  0  0  0  0
   -4.4294    2.8443    2.2651 F   0  0  0  0  0  0  0  0  0  0  0  0
   -5.8743    1.3659    2.9450 F   0  0  0  0  0  0  0  0  0  0  0  0
   -6.3944    2.7291    1.3357 F   0  0  0  0  0  0  0  0  0  0  0  0
   -3.5659    0.9871    0.4314 N   0  0  0  0  0  0  0  0  0  0  0  0
   -3.1338    0.0931   -0.4694 C   0  0  0  0  0  0  0  0  0  0  0  0
   -1.8031    0.1448   -0.8840 N   0  0  0  0  0  0  0  0  0  0  0  0
   -0.8996    0.7864    0.0789 C   0  0  0  0  0  0  0  0  0  0  0  0
    0.5412    0.8747   -0.4813 C   0  0  0  0  0  0  0  0  0  0  0  0
    1.1072   -0.3808   -1.0471 N   0  0  0  0  0  0  0  0  0  0  0  0
    1.3915   -1.3805    0.0164 C   0  0  0  0  0  0  0  0  0  0  0  0
    2.6701   -1.0233    0.7930 C   0  0  0  0  0  0  0  0  0  0  0  0
    2.8306   -1.3995    1.9499 O   0  0  0  0  0  0  0  0  0  0  0  0
    3.5701   -0.3131    0.0190 N   0  0  0  0  0  0  0  0  0  0  0  0
    4.8475    0.1534    0.3663 C   0  0  0  0  0  0  0  0  0  0  0  0
    5.4587   -0.0989    1.5977 C   0  0  0  0  0  0  0  0  0  0  0  0
    6.7367    0.4010    1.8671 C   0  0  0  0  0  0  0  0  0  0  0  0
    7.4000    1.1502    0.9046 C   0  0  0  0  0  0  0  0  0  0  0  0
    8.6239    1.6276    1.1642 F   0  0  0  0  0  0  0  0  0  0  0  0
    6.8103    1.4097   -0.3252 C   0  0  0  0  0  0  0  0  0  0  0  0
    5.5337    0.9104   -0.5943 C   0  0  0  0  0  0  0  0  0  0  0  0
    0.1264   -0.9189   -2.0217 C   0  0  0  0  0  0  0  0  0  0  0  0
   -1.3156   -1.0973   -1.4932 C   0  0  0  0  0  0  0  0  0  0  0  0
   -3.9494   -0.8304   -1.0034 N   0  0  0  0  0  0  0  0  0  0  0  0
   -5.5487   -2.5327   -1.9319 H   0  0  0  0  0  0  0  0  0  0  0  0
   -6.5529   -2.5423   -0.4719 H   0  0  0  0  0  0  0  0  0  0  0  0
   -6.9274   -1.4246   -1.8114 H   0  0  0  0  0  0  0  0  0  0  0  0
   -6.7951    0.0049    0.5946 H   0  0  0  0  0  0  0  0  0  0  0  0
   -1.2249    1.8121    0.2949 H   0  0  0  0  0  0  0  0  0  0  0  0
   -0.8947    0.2299    1.0247 H   0  0  0  0  0  0  0  0  0  0  0  0
    0.5492    1.6224   -1.2861 H   0  0  0  0  0  0  0  0  0  0  0  0
    1.2041    1.2780    0.2935 H   0  0  0  0  0  0  0  0  0  0  0  0
    1.5876   -2.3613   -0.4346 H   0  0  0  0  0  0  0  0  0  0  0  0
    0.5640   -1.4900    0.7244 H   0  0  0  0  0  0  0  0  0  0  0  0
    3.1996   -0.0604   -0.8954 H   0  0  0  0  0  0  0  0  0  0  0  0
    4.9673   -0.6835    2.3692 H   0  0  0  0  0  0  0  0  0  0  0  0
    7.2136    0.2069    2.8226 H   0  0  0  0  0  0  0  0  0  0  0  0
    7.3454    1.9960   -1.0651 H   0  0  0  0  0  0  0  0  0  0  0  0
    5.0836    1.1205   -1.5613 H   0  0  0  0  0  0  0  0  0  0  0  0
    0.4886   -1.8721   -2.4264 H   0  0  0  0  0  0  0  0  0  0  0  0
    0.0995   -0.2304   -2.8772 H   0  0  0  0  0  0  0  0  0  0  0  0
   -1.3427   -1.9167   -0.7633 H   0  0  0  0  0  0  0  0  0  0  0  0
   -1.9394   -1.3851   -2.3488 H   0  0  0  0  0  0  0  0  0  0  0  0
  1  2  1  0
  2  3  2  0
  3  4  1  0
  4  5  1  0
  5  6  1  0
  5  7  1  0
  5  8  1  0
  4  9  2  0
  9 10  1  0
 10 11  1  0
 11 12  1  0
 12 13  1  0
 13 14  1  0
 14 15  1  0
 15 16  1  0
 16 17  2  0
 16 18  1  0
 18 19  1  0
 19 20  1  0
 20 21  2  0
 21 22  1  0
 22 23  1  0
 22 24  2  0
 24 25  1  0
 14 26  1  0
 26 27  1  0
 10 28  2  0
 28  2  1  0
 27 11  1  0
 25 19  2  0
  1 29  1  0
  1 30  1  0
  1 31  1  0
  3 32  1  0
 12 33  1  0
 12 34  1  0
 13 35  1  0
 13 36  1  0
 15 37  1  0
 15 38  1  0
 18 39  1  0
 20 40  1  0
 21 41  1  0
 24 42  1  0
 25 43  1  0
 26 44  1  0
 26 45  1  0
 27 46  1  0
 27 47  1  0
M  END
$$$$
OCNT-2317186
     RDKit          3D

 58 59  0  0  0  0  0  0  0  0999 V2000
    7.1139    0.4404   -1.3413 C   0  0  0  0  0  0  0  0  0  0  0  0
    6.2913   -0.5456   -0.5077 C   0  0  0  0  0  0  0  0  0  0  0  0
    7.2192   -1.5733    0.1458 C   0  0  0  0  0  0  0  0  0  0  0  0
    5.4592    0.1717    0.5790 C   0  0  0  0  0  0  0  0  0  0  0  0
    4.5131    1.1581    0.0387 N   0  0  0  0  0  0  0  0  0  0  0  0
    4.0850    2.1039    1.0908 C   0  0  0  0  0  0  0  0  0  0  0  0
    2.7911    2.8312    0.7018 C   0  0  0  0  0  0  0  0  0  0  0  0
    1.6697    1.9452    0.5737 O   0  0  0  0  0  0  0  0  0  0  0  0
    2.0509    0.5959    0.2202 C   0  0  0  0  0  0  0  0  0  0  0  0
    0.8801   -0.0403   -0.5377 C   0  0  0  0  0  0  0  0  0  0  0  0
   -0.3267   -0.0485    0.2741 N   0  0  0  0  0  0  0  0  0  0  0  0
   -1.4343   -0.7293   -0.1632 C   0  0  0  0  0  0  0  0  0  0  0  0
   -1.4537   -1.4398   -1.1567 O   0  0  0  0  0  0  0  0  0  0  0  0
   -2.4999   -0.5055    0.6718 N   0  0  0  0  0  0  0  0  0  0  0  0
   -3.7978   -1.1613    0.5158 C   0  0  0  0  0  0  0  0  0  0  0  0
   -3.6615   -2.6743    0.7131 C   0  0  0  0  0  0  0  0  0  0  0  0
   -4.5123   -0.7740   -0.8159 C   0  0  0  0  0  0  0  0  0  0  0  0
   -4.6197    0.7562   -1.0077 C   0  0  0  0  0  0  0  0  0  0  0  0
   -5.6206    1.4046   -0.0526 C   0  0  0  0  0  0  0  0  0  0  0  0
   -6.9866    0.7459   -0.1452 C   0  0  0  0  0  0  0  0  0  0  0  0
   -7.5489    1.0541   -1.3430 F   0  0  0  0  0  0  0  0  0  0  0  0
   -7.8027    1.2644    0.8064 F   0  0  0  0  0  0  0  0  0  0  0  0
   -6.9344   -0.7658    0.0042 C   0  0  0  0  0  0  0  0  0  0  0  0
   -5.9217   -1.3869   -0.9561 C   0  0  0  0  0  0  0  0  0  0  0  0
    3.3405    0.5490   -0.6288 C   0  0  0  0  0  0  0  0  0  0  0  0
    6.4676    1.1323   -1.8907 H   0  0  0  0  0  0  0  0  0  0  0  0
    7.7859    1.0308   -0.7092 H   0  0  0  0  0  0  0  0  0  0  0  0
    7.7253   -0.0917   -2.0781 H   0  0  0  0  0  0  0  0  0  0  0  0
    5.6266   -1.0919   -1.1867 H   0  0  0  0  0  0  0  0  0  0  0  0
    6.6427   -2.3108    0.7141 H   0  0  0  0  0  0  0  0  0  0  0  0
    7.9264   -1.0933    0.8311 H   0  0  0  0  0  0  0  0  0  0  0  0
    7.7963   -2.1135   -0.6121 H   0  0  0  0  0  0  0  0  0  0  0  0
    4.9270   -0.5658    1.1944 H   0  0  0  0  0  0  0  0  0  0  0  0
    6.1656    0.6826    1.2480 H   0  0  0  0  0  0  0  0  0  0  0  0
    3.9119    1.5716    2.0354 H   0  0  0  0  0  0  0  0  0  0  0  0
    4.8813    2.8376    1.2576 H   0  0  0  0  0  0  0  0  0  0  0  0
    2.9134    3.3672   -0.2466 H   0  0  0  0  0  0  0  0  0  0  0  0
    2.5334    3.5744    1.4632 H   0  0  0  0  0  0  0  0  0  0  0  0
    2.2041    0.0471    1.1589 H   0  0  0  0  0  0  0  0  0  0  0  0
    0.6482    0.5325   -1.4435 H   0  0  0  0  0  0  0  0  0  0  0  0
    1.1139   -1.0698   -0.8307 H   0  0  0  0  0  0  0  0  0  0  0  0
   -0.5314    0.8424    0.7083 H   0  0  0  0  0  0  0  0  0  0  0  0
   -2.2260   -0.2708    1.6154 H   0  0  0  0  0  0  0  0  0  0  0  0
   -4.3898   -0.7836    1.3574 H   0  0  0  0  0  0  0  0  0  0  0  0
   -4.6366   -3.1445    0.8716 H   0  0  0  0  0  0  0  0  0  0  0  0
   -3.0480   -2.8975    1.5933 H   0  0  0  0  0  0  0  0  0  0  0  0
   -3.1898   -3.1545   -0.1501 H   0  0  0  0  0  0  0  0  0  0  0  0
   -3.9122   -1.1618   -1.6488 H   0  0  0  0  0  0  0  0  0  0  0  0
   -4.9396    0.9568   -2.0389 H   0  0  0  0  0  0  0  0  0  0  0  0
   -3.6421    1.2380   -0.8990 H   0  0  0  0  0  0  0  0  0  0  0  0
   -5.7148    2.4685   -0.2989 H   0  0  0  0  0  0  0  0  0  0  0  0
   -5.2533    1.3578    0.9786 H   0  0  0  0  0  0  0  0  0  0  0  0
   -7.9270   -1.1835   -0.2003 H   0  0  0  0  0  0  0  0  0  0  0  0
   -6.6951   -1.0309    1.0401 H   0  0  0  0  0  0  0  0  0  0  0  0
   -6.2713   -1.2236   -1.9845 H   0  0  0  0  0  0  0  0  0  0  0  0
   -5.8981   -2.4729   -0.8221 H   0  0  0  0  0  0  0  0  0  0  0  0
    3.1738    1.1253   -1.5482 H   0  0  0  0  0  0  0  0  0  0  0  0
    3.5387   -0.4806   -0.9452 H   0  0  0  0  0  0  0  0  0  0  0  0
  1  2  1  0
  2  3  1  0
  2  4  1  0
  4  5  1  0
  5  6  1  0
  6  7  1  0
  7  8  1  0
  8  9  1  0
  9 10  1  0
 10 11  1  0
 11 12  1  0
 12 13  2  0
 12 14  1  0
 14 15  1  0
 15 16  1  0
 15 17  1  0
 17 18  1  0
 18 19  1  0
 19 20  1  0
 20 21  1  0
 20 22  1  0
 20 23  1  0
 23 24  1  0
  9 25  1  0
 25  5  1  0
 24 17  1  0
  1 26  1  0
  1 27  1  0
  1 28  1  0
  2 29  1  0
  3 30  1  0
  3 31  1  0
  3 32  1  0
  4 33  1  0
  4 34  1  0
  6 35  1  0
  6 36  1  0
  7 37  1  0
  7 38  1  0
  9 39  1  0
 10 40  1  0
 10 41  1  0
 11 42  1  0
 14 43  1  0
 15 44  1  0
 16 45  1  0
 16 46  1  0
 16 47  1  0
 17 48  1  0
 18 49  1  0
 18 50  1  0
 19 51  1  0
 19 52  1  0
 23 53  1  0
 23 54  1  0
 24 55  1  0
 24 56  1  0
 25 57  1  0
 25 58  1  0
M  END
$$$$
OCNT-2317192
     RDKit          3D

 52 54  0  0  0  0  0  0  0  0999 V2000
    4.8445    0.5246   -3.7405 C   0  0  0  0  0  0  0  0  0  0  0  0
    3.9907    0.2256   -2.6395 O   0  0  0  0  0  0  0  0  0  0  0  0
    4.6120    0.4043   -1.4078 C   0  0  0  0  0  0  0  0  0  0  0  0
    5.9195    0.7465   -1.3706 N   0  0  0  0  0  0  0  0  0  0  0  0
    6.4643    0.8931   -0.1420 C   0  0  0  0  0  0  0  0  0  0  0  0
    5.7646    0.7335    1.0502 C   0  0  0  0  0  0  0  0  0  0  0  0
    6.4427    0.8842    2.3763 C   0  0  0  0  0  0  0  0  0  0  0  0
    4.4158    0.3683    0.9714 C   0  0  0  0  0  0  0  0  0  0  0  0
    3.8148    0.1909   -0.2736 C   0  0  0  0  0  0  0  0  0  0  0  0
    2.4573   -0.1606   -0.4624 N   0  0  0  0  0  0  0  0  0  0  0  0
    1.5752   -0.6348    0.4787 C   0  0  0  0  0  0  0  0  0  0  0  0
    1.9011   -0.9521    1.6218 O   0  0  0  0  0  0  0  0  0  0  0  0
    0.2484   -0.7458    0.0408 N   0  0  0  0  0  0  0  0  0  0  0  0
   -0.2075   -0.4361   -1.3194 C   0  0  0  0  0  0  0  0  0  0  0  0
   -1.6681   -0.0017   -1.3745 C   0  0  0  0  0  0  0  0  0  0  0  0
   -2.5547   -1.0148   -0.6515 C   0  0  0  0  0  0  0  0  0  0  0  0
   -3.9968   -0.6969   -0.8289 N   0  0  0  0  0  0  0  0  0  0  0  0
   -4.8209   -1.8131   -1.3045 C   0  0  0  0  0  0  0  0  0  0  0  0
   -4.6073    0.1484    0.1072 C   0  0  0  0  0  0  0  0  0  0  0  0
   -5.4652   -0.3250    1.1133 C   0  0  0  0  0  0  0  0  0  0  0  0
   -6.0613    0.5460    2.0332 C   0  0  0  0  0  0  0  0  0  0  0  0
   -5.7991    1.9129    1.9706 C   0  0  0  0  0  0  0  0  0  0  0  0
   -4.9511    2.4065    0.9818 C   0  0  0  0  0  0  0  0  0  0  0  0
   -4.3695    1.5305    0.0600 C   0  0  0  0  0  0  0  0  0  0  0  0
   -2.1003   -1.1505    0.8036 C   0  0  0  0  0  0  0  0  0  0  0  0
   -0.6387   -1.5818    0.8570 C   0  0  0  0  0  0  0  0  0  0  0  0
    5.1483    1.5789   -3.7323 H   0  0  0  0  0  0  0  0  0  0  0  0
    5.7167   -0.1386   -3.7628 H   0  0  0  0  0  0  0  0  0  0  0  0
    4.2743    0.3499   -4.6591 H   0  0  0  0  0  0  0  0  0  0  0  0
    7.5196    1.1527   -0.1428 H   0  0  0  0  0  0  0  0  0  0  0  0
    7.3010    1.5610    2.3061 H   0  0  0  0  0  0  0  0  0  0  0  0
    6.7933   -0.0906    2.7318 H   0  0  0  0  0  0  0  0  0  0  0  0
    5.7568    1.3062    3.1188 H   0  0  0  0  0  0  0  0  0  0  0  0
    3.8520    0.2355    1.8905 H   0  0  0  0  0  0  0  0  0  0  0  0
    2.2115   -0.2730   -1.4363 H   0  0  0  0  0  0  0  0  0  0  0  0
    0.3946    0.3702   -1.7510 H   0  0  0  0  0  0  0  0  0  0  0  0
   -0.0471   -1.3350   -1.9277 H   0  0  0  0  0  0  0  0  0  0  0  0
   -1.7492    0.9873   -0.9083 H   0  0  0  0  0  0  0  0  0  0  0  0
   -1.9816    0.1098   -2.4202 H   0  0  0  0  0  0  0  0  0  0  0  0
   -2.3758   -1.9875   -1.1361 H   0  0  0  0  0  0  0  0  0  0  0  0
   -4.4014   -2.2111   -2.2362 H   0  0  0  0  0  0  0  0  0  0  0  0
   -4.8504   -2.6312   -0.5744 H   0  0  0  0  0  0  0  0  0  0  0  0
   -5.8428   -1.4911   -1.5308 H   0  0  0  0  0  0  0  0  0  0  0  0
   -5.6687   -1.3873    1.2124 H   0  0  0  0  0  0  0  0  0  0  0  0
   -6.7286    0.1539    2.7972 H   0  0  0  0  0  0  0  0  0  0  0  0
   -6.2639    2.5947    2.6765 H   0  0  0  0  0  0  0  0  0  0  0  0
   -4.7559    3.4739    0.9106 H   0  0  0  0  0  0  0  0  0  0  0  0
   -3.7481    1.9479   -0.7280 H   0  0  0  0  0  0  0  0  0  0  0  0
   -2.7168   -1.8855    1.3366 H   0  0  0  0  0  0  0  0  0  0  0  0
   -2.2015   -0.1943    1.3343 H   0  0  0  0  0  0  0  0  0  0  0  0
   -0.5351   -2.6087    0.4825 H   0  0  0  0  0  0  0  0  0  0  0  0
   -0.3116   -1.5904    1.9030 H   0  0  0  0  0  0  0  0  0  0  0  0
  1  2  1  0
  2  3  1  0
  3  4  1  0
  4  5  2  0
  5  6  1  0
  6  7  1  0
  6  8  2  0
  8  9  1  0
  9 10  1  0
 10 11  1  0
 11 12  2  0
 11 13  1  0
 13 14  1  0
 14 15  1  0
 15 16  1  0
 16 17  1  0
 17 18  1  0
 17 19  1  0
 19 20  2  0
 20 21  1  0
 21 22  2  0
 22 23  1  0
 23 24  2  0
 16 25  1  0
 25 26  1  0
  9  3  2  0
 26 13  1  0
 24 19  1  0
  1 27  1  0
  1 28  1  0
  1 29  1  0
  5 30  1  0
  7 31  1  0
  7 32  1  0
  7 33  1  0
  8 34  1  0
 10 35  1  0
 14 36  1  0
 14 37  1  0
 15 38  1  0
 15 39  1  0
 16 40  1  0
 18 41  1  0
 18 42  1  0
 18 43  1  0
 20 44  1  0
 21 45  1  0
 22 46  1  0
 23 47  1  0
 24 48  1  0
 25 49  1  0
 25 50  1  0
 26 51  1  0
 26 52  1  0
M  END
$$$$
OCNT-2317197
     RDKit          3D

 50 52  0  0  0  0  0  0  0  0999 V2000
    3.4459    1.6110   -2.0949 C   0  0  0  0  0  0  0  0  0  0  0  0
    3.9367    0.3033   -1.7979 O   0  0  0  0  0  0  0  0  0  0  0  0
    4.4368    0.2360   -0.5172 C   0  0  0  0  0  0  0  0  0  0  0  0
    5.6104    0.9620   -0.2451 C   0  0  0  0  0  0  0  0  0  0  0  0
    6.1874    0.9208    1.0181 C   0  0  0  0  0  0  0  0  0  0  0  0
    5.5940    0.1444    2.0009 C   0  0  0  0  0  0  0  0  0  0  0  0
    6.2875    0.0873    3.5768 Cl  0  0  0  0  0  0  0  0  0  0  0  0
    4.4425   -0.6001    1.7232 C   0  0  0  0  0  0  0  0  0  0  0  0
    3.8338   -0.6033    0.4507 C   0  0  0  0  0  0  0  0  0  0  0  0
    2.6954   -1.3668    0.2380 N   0  0  0  0  0  0  0  0  0  0  0  0
    2.3944   -2.5495    1.0535 C   0  0  0  0  0  0  0  0  0  0  0  0
    1.4653   -3.4049    0.1910 C   0  0  0  0  0  0  0  0  0  0  0  0
    0.8137   -2.4038   -0.7521 C   0  0  0  0  0  0  0  0  0  0  0  0
   -0.3188   -1.7373   -0.1081 N   0  0  0  0  0  0  0  0  0  0  0  0
   -1.1821   -0.9948   -0.8760 C   0  0  0  0  0  0  0  0  0  0  0  0
   -1.1290   -0.9082   -2.0940 O   0  0  0  0  0  0  0  0  0  0  0  0
   -2.1100   -0.3629   -0.0872 N   0  0  0  0  0  0  0  0  0  0  0  0
   -3.1809    0.3709   -0.7223 C   0  0  0  0  0  0  0  0  0  0  0  0
   -3.9304    1.1505    0.3014 C   0  0  0  0  0  0  0  0  0  0  0  0
   -5.3288    1.7255    0.0460 C   0  0  0  0  0  0  0  0  0  0  0  0
   -6.0120    1.4886   -1.2739 C   0  0  0  0  0  0  0  0  0  0  0  0
   -5.6518    3.0541    0.6759 C   0  0  0  0  0  0  0  0  0  0  0  0
   -5.1261    0.5577    0.9528 C   0  0  0  0  0  0  0  0  0  0  0  0
   -5.2902    0.6784    2.3134 F   0  0  0  0  0  0  0  0  0  0  0  0
   -5.5583   -0.7006    0.6028 F   0  0  0  0  0  0  0  0  0  0  0  0
    1.9773   -1.4370   -1.0440 C   0  0  0  0  0  0  0  0  0  0  0  0
    2.7672    1.5287   -2.9490 H   0  0  0  0  0  0  0  0  0  0  0  0
    4.2680    2.2720   -2.3823 H   0  0  0  0  0  0  0  0  0  0  0  0
    2.8848    2.0383   -1.2564 H   0  0  0  0  0  0  0  0  0  0  0  0
    6.0825    1.5505   -1.0266 H   0  0  0  0  0  0  0  0  0  0  0  0
    7.0902    1.4874    1.2242 H   0  0  0  0  0  0  0  0  0  0  0  0
    4.0129   -1.1815    2.5336 H   0  0  0  0  0  0  0  0  0  0  0  0
    1.8859   -2.2438    1.9749 H   0  0  0  0  0  0  0  0  0  0  0  0
    3.2900   -3.1260    1.3132 H   0  0  0  0  0  0  0  0  0  0  0  0
    2.0646   -4.1187   -0.3876 H   0  0  0  0  0  0  0  0  0  0  0  0
    0.7516   -3.9733    0.7952 H   0  0  0  0  0  0  0  0  0  0  0  0
    0.4544   -2.8819   -1.6696 H   0  0  0  0  0  0  0  0  0  0  0  0
   -0.0979   -1.2802    0.7667 H   0  0  0  0  0  0  0  0  0  0  0  0
   -2.3644   -0.9102    0.7231 H   0  0  0  0  0  0  0  0  0  0  0  0
   -2.7495    1.0497   -1.4662 H   0  0  0  0  0  0  0  0  0  0  0  0
   -3.8072   -0.3535   -1.2526 H   0  0  0  0  0  0  0  0  0  0  0  0
   -3.2627    1.7414    0.9177 H   0  0  0  0  0  0  0  0  0  0  0  0
   -5.9118    0.4560   -1.6235 H   0  0  0  0  0  0  0  0  0  0  0  0
   -5.5899    2.1481   -2.0393 H   0  0  0  0  0  0  0  0  0  0  0  0
   -7.0834    1.7007   -1.1938 H   0  0  0  0  0  0  0  0  0  0  0  0
   -5.1559    3.1830    1.6433 H   0  0  0  0  0  0  0  0  0  0  0  0
   -5.3305    3.8712    0.0222 H   0  0  0  0  0  0  0  0  0  0  0  0
   -6.7303    3.1474    0.8401 H   0  0  0  0  0  0  0  0  0  0  0  0
    2.6245   -1.8685   -1.8168 H   0  0  0  0  0  0  0  0  0  0  0  0
    1.6042   -0.4582   -1.3588 H   0  0  0  0  0  0  0  0  0  0  0  0
  1  2  1  0
  2  3  1  0
  3  4  1  0
  4  5  2  0
  5  6  1  0
  6  7  1  0
  6  8  2  0
  8  9  1  0
  9 10  1  0
 10 11  1  0
 11 12  1  0
 12 13  1  0
 13 14  1  0
 14 15  1  0
 15 16  2  0
 15 17  1  0
 17 18  1  0
 18 19  1  0
 19 20  1  0
 20 21  1  0
 20 22  1  0
 20 23  1  0
 23 24  1  0
 23 25  1  0
 13 26  1  0
  9  3  2  0
 26 10  1  0
 23 19  1  0
  1 27  1  0
  1 28  1  0
  1 29  1  0
  4 30  1  0
  5 31  1  0
  8 32  1  0
 11 33  1  0
 11 34  1  0
 12 35  1  0
 12 36  1  0
 13 37  1  0
 14 38  1  0
 17 39  1  0
 18 40  1  0
 18 41  1  0
 19 42  1  0
 21 43  1  0
 21 44  1  0
 21 45  1  0
 22 46  1  0
 22 47  1  0
 22 48  1  0
 26 49  1  0
 26 50  1  0
M  END
$$$$
OCNT-2317199
     RDKit          3D

 50 53  0  0  0  0  0  0  0  0999 V2000
    4.2271    1.5380    1.6452 C   0  0  0  0  0  0  0  0  0  0  0  0
    3.2096    0.5588    1.1807 C   0  0  0  0  0  0  0  0  0  0  0  0
    3.4417   -0.6881    0.6198 C   0  0  0  0  0  0  0  0  0  0  0  0
    4.7318   -1.4004    0.3461 C   0  0  0  0  0  0  0  0  0  0  0  0
    5.5844   -0.7182   -0.7035 C   0  0  0  0  0  0  0  0  0  0  0  0
    5.1459   -0.6374   -2.0364 C   0  0  0  0  0  0  0  0  0  0  0  0
    5.9325   -0.0091   -3.0025 C   0  0  0  0  0  0  0  0  0  0  0  0
    7.1586    0.5345   -2.6405 C   0  0  0  0  0  0  0  0  0  0  0  0
    7.9133    1.1371   -3.5684 F   0  0  0  0  0  0  0  0  0  0  0  0
    7.6146    0.4613   -1.3301 C   0  0  0  0  0  0  0  0  0  0  0  0
    6.8300   -0.1662   -0.3611 C   0  0  0  0  0  0  0  0  0  0  0  0
    1.9387   -1.4281    0.2405 S   0  0  0  0  0  0  0  0  0  0  0  0
    1.1156   -0.0699    0.8435 C   0  0  0  0  0  0  0  0  0  0  0  0
   -0.2491    0.0454    0.8352 N   0  0  0  0  0  0  0  0  0  0  0  0
   -1.1612   -0.9345    0.5435 C   0  0  0  0  0  0  0  0  0  0  0  0
   -0.9393   -2.1116    0.2945 O   0  0  0  0  0  0  0  0  0  0  0  0
   -2.4478   -0.4315    0.5867 N   0  0  0  0  0  0  0  0  0  0  0  0
   -3.5484   -1.2845    0.2092 C   0  0  0  0  0  0  0  0  0  0  0  0
   -4.8025   -0.5736    0.5426 C   0  0  0  0  0  0  0  0  0  0  0  0
   -5.6819    0.1498   -0.2312 C   0  0  0  0  0  0  0  0  0  0  0  0
   -5.5927    0.4101   -1.7465 C   0  0  0  0  0  0  0  0  0  0  0  0
   -4.4187    1.1749   -2.3002 C   0  0  0  0  0  0  0  0  0  0  0  0
   -5.7762    1.8115   -2.2683 C   0  0  0  0  0  0  0  0  0  0  0  0
   -6.7070    0.5647    0.6285 C   0  0  0  0  0  0  0  0  0  0  0  0
   -6.4974    0.1546    1.8811 N   0  0  0  0  0  0  0  0  0  0  0  0
   -5.3421   -0.5391    1.8070 N   0  0  0  0  0  0  0  0  0  0  0  0
   -4.8080   -1.1476    3.0043 C   0  0  0  0  0  0  0  0  0  0  0  0
    1.8705    0.9035    1.2935 N   0  0  0  0  0  0  0  0  0  0  0  0
    3.7677    2.3088    2.2717 H   0  0  0  0  0  0  0  0  0  0  0  0
    4.6969    2.0317    0.7895 H   0  0  0  0  0  0  0  0  0  0  0  0
    5.0036    1.0442    2.2371 H   0  0  0  0  0  0  0  0  0  0  0  0
    4.5575   -2.4348    0.0222 H   0  0  0  0  0  0  0  0  0  0  0  0
    5.2902   -1.4793    1.2879 H   0  0  0  0  0  0  0  0  0  0  0  0
    4.1866   -1.0618   -2.3276 H   0  0  0  0  0  0  0  0  0  0  0  0
    5.5968    0.0589   -4.0325 H   0  0  0  0  0  0  0  0  0  0  0  0
    8.5772    0.8913   -1.0726 H   0  0  0  0  0  0  0  0  0  0  0  0
    7.1972   -0.2206    0.6616 H   0  0  0  0  0  0  0  0  0  0  0  0
   -0.5786    0.9048    1.2431 H   0  0  0  0  0  0  0  0  0  0  0  0
   -2.5419    0.5372    0.3203 H   0  0  0  0  0  0  0  0  0  0  0  0
   -3.4699   -2.2440    0.7314 H   0  0  0  0  0  0  0  0  0  0  0  0
   -3.4729   -1.4856   -0.8651 H   0  0  0  0  0  0  0  0  0  0  0  0
   -5.9897   -0.3940   -2.3598 H   0  0  0  0  0  0  0  0  0  0  0  0
   -4.0238    0.8645   -3.2609 H   0  0  0  0  0  0  0  0  0  0  0  0
   -3.6707    1.5631   -1.6201 H   0  0  0  0  0  0  0  0  0  0  0  0
   -5.9366    2.6193   -1.5635 H   0  0  0  0  0  0  0  0  0  0  0  0
   -6.3024    1.9358   -3.2081 H   0  0  0  0  0  0  0  0  0  0  0  0
   -7.5929    1.1437    0.4040 H   0  0  0  0  0  0  0  0  0  0  0  0
   -3.7934   -0.7750    3.1628 H   0  0  0  0  0  0  0  0  0  0  0  0
   -5.4343   -0.8807    3.8599 H   0  0  0  0  0  0  0  0  0  0  0  0
   -4.8087   -2.2321    2.8692 H   0  0  0  0  0  0  0  0  0  0  0  0
  1  2  1  0
  2  3  2  0
  3  4  1  0
  4  5  1  0
  5  6  1  0
  6  7  2  0
  7  8  1  0
  8  9  1  0
  8 10  2  0
 10 11  1  0
  3 12  1  0
 12 13  1  0
 13 14  1  0
 14 15  1  0
 15 16  2  0
 15 17  1  0
 17 18  1  0
 18 19  1  0
 19 20  2  0
 20 21  1  0
 21 22  1  0
 22 23  1  0
 20 24  1  0
 24 25  2  0
 25 26  1  0
 26 27  1  0
 13 28  2  0
 28  2  1  0
 11  5  2  0
 26 19  1  0
 23 21  1  0
  1 29  1  0
  1 30  1  0
  1 31  1  0
  4 32  1  0
  4 33  1  0
  6 34  1  0
  7 35  1  0
 10 36  1  0
 11 37  1  0
 14 38  1  0
 17 39  1  0
 18 40  1  0
 18 41  1  0
 21 42  1  0
 22 43  1  0
 22 44  1  0
 23 45  1  0
 23 46  1  0
 24 47  1  0
 27 48  1  0
 27 49  1  0
 27 50  1  0
M  END
$$$$
OCNT-2317204
     RDKit          3D

 47 50  0  0  0  0  0  0  0  0999 V2000
    6.7431   -0.3631   -2.2010 C   0  0  0  0  0  0  0  0  0  0  0  0
    5.4077   -0.4683   -1.6526 N   0  0  0  0  0  0  0  0  0  0  0  0
    4.3351   -0.7338   -2.4592 C   0  0  0  0  0  0  0  0  0  0  0  0
    3.1137   -0.8398   -2.0561 N   0  0  0  0  0  0  0  0  0  0  0  0
    2.8774   -0.6737   -0.7110 C   0  0  0  0  0  0  0  0  0  0  0  0
    3.8430   -0.4108    0.1850 C   0  0  0  0  0  0  0  0  0  0  0  0
    3.5844   -0.2491    1.6491 C   0  0  0  0  0  0  0  0  0  0  0  0
    2.2230   -0.8114    2.0450 C   0  0  0  0  0  0  0  0  0  0  0  0
    1.1811   -0.4204    1.0989 N   0  0  0  0  0  0  0  0  0  0  0  0
   -0.1103   -0.3313    1.6064 C   0  0  0  0  0  0  0  0  0  0  0  0
   -0.3846   -0.5319    2.7859 O   0  0  0  0  0  0  0  0  0  0  0  0
   -1.0678   -0.0041    0.6822 N   0  0  0  0  0  0  0  0  0  0  0  0
   -2.4631    0.1475    1.0747 C   0  0  0  0  0  0  0  0  0  0  0  0
   -2.6643    1.4952    1.7896 C   0  0  0  0  0  0  0  0  0  0  0  0
   -4.1442    1.8097    1.9553 C   0  0  0  0  0  0  0  0  0  0  0  0
   -4.8053    1.9612    0.5891 C   0  0  0  0  0  0  0  0  0  0  0  0
   -4.4833    0.8216   -0.3431 C   0  0  0  0  0  0  0  0  0  0  0  0
   -5.2918    0.6202   -1.4704 C   0  0  0  0  0  0  0  0  0  0  0  0
   -6.3327    1.4358   -1.6934 F   0  0  0  0  0  0  0  0  0  0  0  0
   -5.0492   -0.4086   -2.3712 C   0  0  0  0  0  0  0  0  0  0  0  0
   -3.9764   -1.2595   -2.1465 C   0  0  0  0  0  0  0  0  0  0  0  0
   -3.6647   -2.5496   -3.2411 Cl  0  0  0  0  0  0  0  0  0  0  0  0
   -3.1467   -1.0754   -1.0395 C   0  0  0  0  0  0  0  0  0  0  0  0
   -3.3717   -0.0183   -0.1354 C   0  0  0  0  0  0  0  0  0  0  0  0
    1.4217   -0.7926   -0.3008 C   0  0  0  0  0  0  0  0  0  0  0  0
    5.2361   -0.2863   -0.2974 C   0  0  0  0  0  0  0  0  0  0  0  0
    6.1511   -0.0368    0.4830 O   0  0  0  0  0  0  0  0  0  0  0  0
    6.7473   -0.5376   -3.2803 H   0  0  0  0  0  0  0  0  0  0  0  0
    7.1355    0.6372   -1.9923 H   0  0  0  0  0  0  0  0  0  0  0  0
    7.3892   -1.0981   -1.7106 H   0  0  0  0  0  0  0  0  0  0  0  0
    4.5744   -0.8597   -3.5271 H   0  0  0  0  0  0  0  0  0  0  0  0
    3.6249    0.8201    1.8920 H   0  0  0  0  0  0  0  0  0  0  0  0
    4.3557   -0.7507    2.2445 H   0  0  0  0  0  0  0  0  0  0  0  0
    1.9769   -0.4674    3.0560 H   0  0  0  0  0  0  0  0  0  0  0  0
    2.2464   -1.9086    2.0738 H   0  0  0  0  0  0  0  0  0  0  0  0
   -0.7602    0.6286   -0.0399 H   0  0  0  0  0  0  0  0  0  0  0  0
   -2.7139   -0.6584    1.7778 H   0  0  0  0  0  0  0  0  0  0  0  0
   -2.1830    2.3037    1.2224 H   0  0  0  0  0  0  0  0  0  0  0  0
   -2.1788    1.4773    2.7724 H   0  0  0  0  0  0  0  0  0  0  0  0
   -4.6309    1.0074    2.5240 H   0  0  0  0  0  0  0  0  0  0  0  0
   -4.2714    2.7344    2.5293 H   0  0  0  0  0  0  0  0  0  0  0  0
   -5.8899    2.0340    0.7331 H   0  0  0  0  0  0  0  0  0  0  0  0
   -4.4689    2.8939    0.1197 H   0  0  0  0  0  0  0  0  0  0  0  0
   -5.7011   -0.5349   -3.2287 H   0  0  0  0  0  0  0  0  0  0  0  0
   -2.3168   -1.7612   -0.8748 H   0  0  0  0  0  0  0  0  0  0  0  0
    0.8208   -0.1586   -0.9598 H   0  0  0  0  0  0  0  0  0  0  0  0
    1.0828   -1.8277   -0.4312 H   0  0  0  0  0  0  0  0  0  0  0  0
  1  2  1  0
  2  3  1  0
  3  4  2  0
  4  5  1  0
  5  6  2  0
  6  7  1  0
  7  8  1  0
  8  9  1  0
  9 10  1  0
 10 11  2  0
 10 12  1  0
 12 13  1  0
 13 14  1  0
 14 15  1  0
 15 16  1  0
 16 17  1  0
 17 18  1  0
 18 19  1  0
 18 20  2  0
 20 21  1  0
 21 22  1  0
 21 23  2  0
 23 24  1  0
  9 25  1  0
  6 26  1  0
 26 27  2  0
 26  2  1  0
 25  5  1  0
 24 13  1  0
 24 17  2  0
  1 28  1  0
  1 29  1  0
  1 30  1  0
  3 31  1  0
  7 32  1  0
  7 33  1  0
  8 34  1  0
  8 35  1  0
 12 36  1  0
 13 37  1  0
 14 38  1  0
 14 39  1  0
 15 40  1  0
 15 41  1  0
 16 42  1  0
 16 43  1  0
 20 44  1  0
 23 45  1  0
 25 46  1  0
 25 47  1  0
M  END
$$$$
OCNT-2317216
     RDKit          3D

 44 46  0  0  0  0  0  0  0  0999 V2000
   -1.0939   -0.0195   -1.5840 O   0  0  0  0  0  0  0  0  0  0  0  0
   -1.4146    0.3763   -0.4646 C   0  0  0  0  0  0  0  0  0  0  0  0
   -2.6562   -0.1392    0.2295 C   0  0  0  0  0  0  0  0  0  0  0  0
   -3.2847   -1.2743   -0.5678 C   0  0  0  0  0  0  0  0  0  0  0  0
   -4.5192   -1.7333    0.0294 N   0  0  0  0  0  0  0  0  0  0  0  0
   -5.7813   -1.6452   -0.4748 C   0  0  0  0  0  0  0  0  0  0  0  0
   -6.5613   -2.2185    0.4999 C   0  0  0  0  0  0  0  0  0  0  0  0
   -5.7710   -2.6214    1.5386 N   0  0  0  0  0  0  0  0  0  0  0  0
   -4.5142   -2.3214    1.2380 N   0  0  0  0  0  0  0  0  0  0  0  0
   -0.6790    1.3186    0.2268 N   0  0  0  0  0  0  0  0  0  0  0  0
   -1.1238    2.0180    1.4269 C   0  0  0  0  0  0  0  0  0  0  0  0
   -0.0303    3.0327    1.7217 C   0  0  0  0  0  0  0  0  0  0  0  0
    0.5491    3.3154    0.3408 C   0  0  0  0  0  0  0  0  0  0  0  0
    0.5181    1.9416   -0.3444 C   0  0  0  0  0  0  0  0  0  0  0  0
    1.8042    1.1491   -0.0408 C   0  0  0  0  0  0  0  0  0  0  0  0
    1.9034   -0.1786   -0.7969 C   0  0  0  0  0  0  0  0  0  0  0  0
    3.2537   -0.8249   -0.5941 C   0  0  0  0  0  0  0  0  0  0  0  0
    3.4919   -1.6359    0.5237 C   0  0  0  0  0  0  0  0  0  0  0  0
    4.7451   -2.2176    0.7210 C   0  0  0  0  0  0  0  0  0  0  0  0
    5.7717   -1.9911   -0.1939 C   0  0  0  0  0  0  0  0  0  0  0  0
    5.5465   -1.1822   -1.3063 C   0  0  0  0  0  0  0  0  0  0  0  0
    4.2938   -0.5996   -1.5054 C   0  0  0  0  0  0  0  0  0  0  0  0
   -3.3709    0.6853    0.3327 H   0  0  0  0  0  0  0  0  0  0  0  0
   -2.3847   -0.4918    1.2307 H   0  0  0  0  0  0  0  0  0  0  0  0
   -2.6131   -2.1388   -0.6284 H   0  0  0  0  0  0  0  0  0  0  0  0
   -3.5121   -0.9588   -1.5929 H   0  0  0  0  0  0  0  0  0  0  0  0
   -6.0072   -1.2082   -1.4358 H   0  0  0  0  0  0  0  0  0  0  0  0
   -7.6319   -2.3622    0.5136 H   0  0  0  0  0  0  0  0  0  0  0  0
   -2.0735    2.5158    1.2029 H   0  0  0  0  0  0  0  0  0  0  0  0
   -1.2734    1.3135    2.2497 H   0  0  0  0  0  0  0  0  0  0  0  0
    0.7346    2.5902    2.3701 H   0  0  0  0  0  0  0  0  0  0  0  0
   -0.4139    3.9303    2.2148 H   0  0  0  0  0  0  0  0  0  0  0  0
    1.5450    3.7657    0.3827 H   0  0  0  0  0  0  0  0  0  0  0  0
   -0.1128    4.0087   -0.1936 H   0  0  0  0  0  0  0  0  0  0  0  0
    0.4032    2.0589   -1.4282 H   0  0  0  0  0  0  0  0  0  0  0  0
    1.8881    0.9556    1.0364 H   0  0  0  0  0  0  0  0  0  0  0  0
    2.6665    1.7734   -0.3112 H   0  0  0  0  0  0  0  0  0  0  0  0
    1.7330   -0.0210   -1.8690 H   0  0  0  0  0  0  0  0  0  0  0  0
    1.1297   -0.8763   -0.4570 H   0  0  0  0  0  0  0  0  0  0  0  0
    2.6998   -1.8202    1.2458 H   0  0  0  0  0  0  0  0  0  0  0  0
    4.9197   -2.8484    1.5885 H   0  0  0  0  0  0  0  0  0  0  0  0
    6.7468   -2.4454   -0.0404 H   0  0  0  0  0  0  0  0  0  0  0  0
    6.3465   -1.0052   -2.0202 H   0  0  0  0  0  0  0  0  0  0  0  0
    4.1326    0.0300   -2.3773 H   0  0  0  0  0  0  0  0  0  0  0  0
  1  2  2  0
  2  3  1  0
  3  4  1  0
  4  5  1  0
  5  6  1  0
  6  7  2  0
  7  8  1  0
  8  9  2  0
  2 10  1  0
 10 11  1  0
 11 12  1  0
 12 13  1  0
 13 14  1  0
 14 15  1  0
 15 16  1  0
 16 17  1  0
 17 18  2  0
 18 19  1  0
 19 20  2  0
 20 21  1  0
 21 22  2  0
  9  5  1  0
 14 10  1  0
 22 17  1  0
  3 23  1  0
  3 24  1  0
  4 25  1  0
  4 26  1  0
  6 27  1  0
  7 28  1  0
 11 29  1  0
 11 30  1  0
 12 31  1  0
 12 32  1  0
 13 33  1  0
 13 34  1  0
 14 35  1  0
 15 36  1  0
 15 37  1  0
 16 38  1  0
 16 39  1  0
 18 40  1  0
 19 41  1  0
 20 42  1  0
 21 43  1  0
 22 44  1  0
M  END
$$$$
OCNT-2317221
     RDKit          3D

 44 48  0  0  0  0  0  0  0  0999 V2000
   -5.5621    3.1094    2.0739 C   0  0  0  0  0  0  0  0  0  0  0  0
   -4.2954    2.5369    2.3827 O   0  0  0  0  0  0  0  0  0  0  0  0
   -3.9442    1.5111    1.5267 C   0  0  0  0  0  0  0  0  0  0  0  0
   -2.7210    0.9160    1.7618 C   0  0  0  0  0  0  0  0  0  0  0  0
   -2.3119   -0.1344    0.9325 C   0  0  0  0  0  0  0  0  0  0  0  0
   -0.9741   -0.7872    1.2016 C   0  0  0  0  0  0  0  0  0  0  0  0
   -0.0126   -0.3407    0.2138 N   0  0  0  0  0  0  0  0  0  0  0  0
    1.2913   -0.8020    0.4092 C   0  0  0  0  0  0  0  0  0  0  0  0
    1.5247   -2.0144    0.9776 N   0  0  0  0  0  0  0  0  0  0  0  0
    2.8016   -2.4307    1.1275 C   0  0  0  0  0  0  0  0  0  0  0  0
    3.9348   -1.7881    0.7893 N   0  0  0  0  0  0  0  0  0  0  0  0
    3.6591   -0.5946    0.2357 C   0  0  0  0  0  0  0  0  0  0  0  0
    2.4076   -0.0371    0.0180 C   0  0  0  0  0  0  0  0  0  0  0  0
    2.5113    1.2238   -0.5481 N   0  0  0  0  0  0  0  0  0  0  0  0
    3.8079    1.4212   -0.6829 C   0  0  0  0  0  0  0  0  0  0  0  0
    4.5244    0.3475   -0.2401 N   0  0  0  0  0  0  0  0  0  0  0  0
    5.9959    0.2578   -0.2122 C   0  0  0  0  0  0  0  0  0  0  0  0
    6.7438   -0.8211   -0.9590 C   0  0  0  0  0  0  0  0  0  0  0  0
    6.8545    0.6056   -1.4060 C   0  0  0  0  0  0  0  0  0  0  0  0
   -3.1600   -0.5328   -0.1327 C   0  0  0  0  0  0  0  0  0  0  0  0
   -2.8430   -1.5599   -1.0536 C   0  0  0  0  0  0  0  0  0  0  0  0
   -3.7218   -1.9117   -2.0772 C   0  0  0  0  0  0  0  0  0  0  0  0
   -4.9308   -1.2437   -2.2004 C   0  0  0  0  0  0  0  0  0  0  0  0
   -5.2502   -0.2242   -1.3017 C   0  0  0  0  0  0  0  0  0  0  0  0
   -4.3926    0.1475   -0.2749 C   0  0  0  0  0  0  0  0  0  0  0  0
   -4.7794    1.1436    0.5373 N   0  0  0  0  0  0  0  0  0  0  0  0
   -5.5626    3.5578    1.0742 H   0  0  0  0  0  0  0  0  0  0  0  0
   -5.7505    3.9094    2.7964 H   0  0  0  0  0  0  0  0  0  0  0  0
   -6.3667    2.3729    2.1765 H   0  0  0  0  0  0  0  0  0  0  0  0
   -2.1025    1.2676    2.5809 H   0  0  0  0  0  0  0  0  0  0  0  0
   -0.6329   -0.5239    2.2119 H   0  0  0  0  0  0  0  0  0  0  0  0
   -1.0972   -1.8775    1.1892 H   0  0  0  0  0  0  0  0  0  0  0  0
   -0.0082    0.6611    0.0308 H   0  0  0  0  0  0  0  0  0  0  0  0
    2.9278   -3.4101    1.5806 H   0  0  0  0  0  0  0  0  0  0  0  0
    4.2751    2.3083   -1.0889 H   0  0  0  0  0  0  0  0  0  0  0  0
    6.3904    0.5218    0.7658 H   0  0  0  0  0  0  0  0  0  0  0  0
    7.5978   -1.2740   -0.4679 H   0  0  0  0  0  0  0  0  0  0  0  0
    6.1775   -1.5091   -1.5775 H   0  0  0  0  0  0  0  0  0  0  0  0
    7.7905    1.1221   -1.2246 H   0  0  0  0  0  0  0  0  0  0  0  0
    6.3769    0.8732   -2.3420 H   0  0  0  0  0  0  0  0  0  0  0  0
   -1.8944   -2.0897   -0.9898 H   0  0  0  0  0  0  0  0  0  0  0  0
   -3.4563   -2.7010   -2.7757 H   0  0  0  0  0  0  0  0  0  0  0  0
   -5.6249   -1.5060   -2.9941 H   0  0  0  0  0  0  0  0  0  0  0  0
   -6.1977    0.2993   -1.4077 H   0  0  0  0  0  0  0  0  0  0  0  0
  1  2  1  0
  2  3  1  0
  3  4  1  0
  4  5  2  0
  5  6  1  0
  6  7  1  0
  7  8  1  0
  8  9  1  0
  9 10  2  0
 10 11  1  0
 11 12  2  0
 12 13  1  0
 13 14  1  0
 14 15  2  0
 15 16  1  0
 16 17  1  0
 17 18  1  0
 18 19  1  0
  5 20  1  0
 20 21  2  0
 21 22  1  0
 22 23  2  0
 23 24  1  0
 24 25  2  0
 25 26  1  0
 26  3  2  0
 13  8  2  0
 19 17  1  0
 25 20  1  0
 16 12  1  0
  1 27  1  0
  1 28  1  0
  1 29  1  0
  4 30  1  0
  6 31  1  0
  6 32  1  0
  7 33  1  0
 10 34  1  0
 15 35  1  0
 17 36  1  0
 18 37  1  0
 18 38  1  0
 19 39  1  0
 19 40  1  0
 21 41  1  0
 22 42  1  0
 23 43  1  0
 24 44  1  0
M  END
$$$$
OCNT-2317227
     RDKit          3D

 56 58  0  0  0  0  0  0  0  0999 V2000
   -1.7707   -2.3048    2.1786 C   0  0  0  0  0  0  0  0  0  0  0  0
   -1.8349   -0.8324    1.8625 C   0  0  0  0  0  0  0  0  0  0  0  0
   -1.6653    0.0514    2.9450 C   0  0  0  0  0  0  0  0  0  0  0  0
   -1.7136    1.4320    2.7665 C   0  0  0  0  0  0  0  0  0  0  0  0
   -1.9385    1.9565    1.5015 C   0  0  0  0  0  0  0  0  0  0  0  0
   -2.1078    1.1077    0.3955 C   0  0  0  0  0  0  0  0  0  0  0  0
   -2.3499    1.7618   -0.9452 C   0  0  0  0  0  0  0  0  0  0  0  0
   -2.0254   -0.3096    0.5536 C   0  0  0  0  0  0  0  0  0  0  0  0
   -2.1611   -1.1822   -0.6955 C   0  0  0  0  0  0  0  0  0  0  0  0
   -3.6092   -1.6520   -0.9357 C   0  0  0  0  0  0  0  0  0  0  0  0
   -3.5406   -3.1719   -0.9282 C   0  0  0  0  0  0  0  0  0  0  0  0
   -2.1129   -3.4748   -1.3445 C   0  0  0  0  0  0  0  0  0  0  0  0
   -1.3354   -2.3864   -0.7927 N   0  0  0  0  0  0  0  0  0  0  0  0
    0.0262   -2.3811   -1.0343 C   0  0  0  0  0  0  0  0  0  0  0  0
    0.5919   -3.2686   -1.6734 O   0  0  0  0  0  0  0  0  0  0  0  0
    0.6951   -1.3114   -0.4827 N   0  0  0  0  0  0  0  0  0  0  0  0
    2.1393   -1.2708   -0.5543 C   0  0  0  0  0  0  0  0  0  0  0  0
    2.6547   -0.3771    0.5327 C   0  0  0  0  0  0  0  0  0  0  0  0
    3.2385   -0.8139    1.6370 N   0  0  0  0  0  0  0  0  0  0  0  0
    3.5327    0.2980    2.3782 C   0  0  0  0  0  0  0  0  0  0  0  0
    3.1182    1.4341    1.7285 C   0  0  0  0  0  0  0  0  0  0  0  0
    2.5750    0.9991    0.5434 N   0  0  0  0  0  0  0  0  0  0  0  0
    1.9929    1.8645   -0.4681 C   0  0  0  0  0  0  0  0  0  0  0  0
    3.0370    2.6346   -1.2937 C   0  0  0  0  0  0  0  0  0  0  0  0
    3.9131    1.6989   -2.1315 C   0  0  0  0  0  0  0  0  0  0  0  0
    2.3377    3.6387   -2.2063 C   0  0  0  0  0  0  0  0  0  0  0  0
   -0.8620   -2.7582    1.7725 H   0  0  0  0  0  0  0  0  0  0  0  0
   -1.7516   -2.4768    3.2595 H   0  0  0  0  0  0  0  0  0  0  0  0
   -2.6573   -2.8206    1.8069 H   0  0  0  0  0  0  0  0  0  0  0  0
   -1.4933   -0.3373    3.9508 H   0  0  0  0  0  0  0  0  0  0  0  0
   -1.5840    2.0958    3.6176 H   0  0  0  0  0  0  0  0  0  0  0  0
   -1.9880    3.0383    1.3781 H   0  0  0  0  0  0  0  0  0  0  0  0
   -1.4581    1.6759   -1.5747 H   0  0  0  0  0  0  0  0  0  0  0  0
   -3.2078    1.3062   -1.4512 H   0  0  0  0  0  0  0  0  0  0  0  0
   -2.5824    2.8288   -0.8364 H   0  0  0  0  0  0  0  0  0  0  0  0
   -1.8493   -0.5941   -1.5665 H   0  0  0  0  0  0  0  0  0  0  0  0
   -4.3281   -1.2740   -0.1969 H   0  0  0  0  0  0  0  0  0  0  0  0
   -3.9452   -1.3050   -1.9205 H   0  0  0  0  0  0  0  0  0  0  0  0
   -3.7303   -3.5468    0.0773 H   0  0  0  0  0  0  0  0  0  0  0  0
   -4.2733   -3.6312   -1.5862 H   0  0  0  0  0  0  0  0  0  0  0  0
   -1.7470   -4.4424   -0.9721 H   0  0  0  0  0  0  0  0  0  0  0  0
   -2.0109   -3.4591   -2.4398 H   0  0  0  0  0  0  0  0  0  0  0  0
    0.3155   -1.0341    0.4286 H   0  0  0  0  0  0  0  0  0  0  0  0
    2.5427   -2.2871   -0.4052 H   0  0  0  0  0  0  0  0  0  0  0  0
    2.4357   -0.9308   -1.5576 H   0  0  0  0  0  0  0  0  0  0  0  0
    4.0232    0.2134    3.3412 H   0  0  0  0  0  0  0  0  0  0  0  0
    3.1684    2.4780    2.0012 H   0  0  0  0  0  0  0  0  0  0  0  0
    1.3439    1.2664   -1.1190 H   0  0  0  0  0  0  0  0  0  0  0  0
    1.3432    2.5648    0.0693 H   0  0  0  0  0  0  0  0  0  0  0  0
    3.6931    3.1903   -0.6151 H   0  0  0  0  0  0  0  0  0  0  0  0
    4.4592    0.9913   -1.5053 H   0  0  0  0  0  0  0  0  0  0  0  0
    3.3161    1.1348   -2.8490 H   0  0  0  0  0  0  0  0  0  0  0  0
    4.6570    2.2696   -2.6923 H   0  0  0  0  0  0  0  0  0  0  0  0
    1.6705    3.1412   -2.9102 H   0  0  0  0  0  0  0  0  0  0  0  0
    3.0689    4.2111   -2.7815 H   0  0  0  0  0  0  0  0  0  0  0  0
    1.7440    4.3516   -1.6262 H   0  0  0  0  0  0  0  0  0  0  0  0
  1  2  1  0
  2  3  1  0
  3  4  2  0
  4  5  1  0
  5  6  2  0
  6  7  1  0
  6  8  1  0
  8  9  1  0
  9 10  1  0
 10 11  1  0
 11 12  1  0
 12 13  1  0
 13 14  1  0
 14 15  2  0
 14 16  1  0
 16 17  1  0
 17 18  1  0
 18 19  2  0
 19 20  1  0
 20 21  2  0
 21 22  1  0
 22 23  1  0
 23 24  1  0
 24 25  1  0
 24 26  1  0
  8  2  2  0
 13  9  1  0
 22 18  1  0
  1 27  1  0
  1 28  1  0
  1 29  1  0
  3 30  1  0
  4 31  1  0
  5 32  1  0
  7 33  1  0
  7 34  1  0
  7 35  1  0
  9 36  1  0
 10 37  1  0
 10 38  1  0
 11 39  1  0
 11 40  1  0
 12 41  1  0
 12 42  1  0
 16 43  1  0
 17 44  1  0
 17 45  1  0
 20 46  1  0
 21 47  1  0
 23 48  1  0
 23 49  1  0
 24 50  1  0
 25 51  1  0
 25 52  1  0
 25 53  1  0
 26 54  1  0
 26 55  1  0
 26 56  1  0
M  END
$$$$
OCNT-2317229
     RDKit          3D

 53 54  0  0  0  0  0  0  0  0999 V2000
   -3.6755    1.9213   -0.3717 C   0  0  0  0  0  0  0  0  0  0  0  0
   -4.8428    1.4710   -1.2509 C   0  0  0  0  0  0  0  0  0  0  0  0
   -5.0929    2.5131   -2.3436 C   0  0  0  0  0  0  0  0  0  0  0  0
   -4.5872    0.0895   -1.8918 C   0  0  0  0  0  0  0  0  0  0  0  0
   -4.5324   -1.0658   -0.9103 C   0  0  0  0  0  0  0  0  0  0  0  0
   -5.6916   -1.3575   -0.1673 C   0  0  0  0  0  0  0  0  0  0  0  0
   -5.7196   -2.3999    0.7598 C   0  0  0  0  0  0  0  0  0  0  0  0
   -4.5864   -3.1796    0.9603 C   0  0  0  0  0  0  0  0  0  0  0  0
   -3.4343   -2.9205    0.2242 C   0  0  0  0  0  0  0  0  0  0  0  0
   -3.3897   -1.8794   -0.7262 C   0  0  0  0  0  0  0  0  0  0  0  0
   -2.0795   -1.6722   -1.4529 C   0  0  0  0  0  0  0  0  0  0  0  0
   -1.2800   -0.6694   -0.7834 N   0  0  0  0  0  0  0  0  0  0  0  0
    0.0894   -0.8143   -0.6934 C   0  0  0  0  0  0  0  0  0  0  0  0
    0.6973   -1.7457   -1.2036 O   0  0  0  0  0  0  0  0  0  0  0  0
    0.6328    0.2232    0.0360 N   0  0  0  0  0  0  0  0  0  0  0  0
    1.9535    0.3303    0.5108 C   0  0  0  0  0  0  0  0  0  0  0  0
    2.8560   -0.7360    0.5164 C   0  0  0  0  0  0  0  0  0  0  0  0
    4.1465   -0.5714    1.0314 C   0  0  0  0  0  0  0  0  0  0  0  0
    4.5488    0.6732    1.5237 C   0  0  0  0  0  0  0  0  0  0  0  0
    5.9000    0.8586    2.1050 C   0  0  0  0  0  0  0  0  0  0  0  0
    5.9708    1.3844    3.2131 O   0  0  0  0  0  0  0  0  0  0  0  0
    7.0130    0.4174    1.3886 N   0  0  0  0  0  0  0  0  0  0  0  0
    7.0261    0.1693   -0.0487 C   0  0  0  0  0  0  0  0  0  0  0  0
    8.2977    0.3912    2.0629 C   0  0  0  0  0  0  0  0  0  0  0  0
    3.6440    1.7348    1.5556 C   0  0  0  0  0  0  0  0  0  0  0  0
    2.3503    1.5618    1.0500 C   0  0  0  0  0  0  0  0  0  0  0  0
   -2.7460    1.9889   -0.9459 H   0  0  0  0  0  0  0  0  0  0  0  0
   -3.8771    2.9082    0.0571 H   0  0  0  0  0  0  0  0  0  0  0  0
   -3.5163    1.2323    0.4615 H   0  0  0  0  0  0  0  0  0  0  0  0
   -5.7422    1.4303   -0.6262 H   0  0  0  0  0  0  0  0  0  0  0  0
   -4.2339    2.6010   -3.0132 H   0  0  0  0  0  0  0  0  0  0  0  0
   -5.2860    3.4967   -1.9065 H   0  0  0  0  0  0  0  0  0  0  0  0
   -5.9665    2.2422   -2.9456 H   0  0  0  0  0  0  0  0  0  0  0  0
   -5.3892   -0.1354   -2.6083 H   0  0  0  0  0  0  0  0  0  0  0  0
   -3.6767    0.1514   -2.4930 H   0  0  0  0  0  0  0  0  0  0  0  0
   -6.5945   -0.7661   -0.3089 H   0  0  0  0  0  0  0  0  0  0  0  0
   -6.6237   -2.6006    1.3289 H   0  0  0  0  0  0  0  0  0  0  0  0
   -4.6002   -3.9904    1.6828 H   0  0  0  0  0  0  0  0  0  0  0  0
   -2.5536   -3.5384    0.3995 H   0  0  0  0  0  0  0  0  0  0  0  0
   -1.5343   -2.6206   -1.5145 H   0  0  0  0  0  0  0  0  0  0  0  0
   -2.2380   -1.3549   -2.4881 H   0  0  0  0  0  0  0  0  0  0  0  0
   -1.7135   -0.2290    0.0084 H   0  0  0  0  0  0  0  0  0  0  0  0
    0.0502    1.0435    0.1074 H   0  0  0  0  0  0  0  0  0  0  0  0
    2.5744   -1.7187    0.1499 H   0  0  0  0  0  0  0  0  0  0  0  0
    4.8232   -1.4224    1.0567 H   0  0  0  0  0  0  0  0  0  0  0  0
    7.8701    0.7036   -0.4948 H   0  0  0  0  0  0  0  0  0  0  0  0
    6.1202    0.5227   -0.5395 H   0  0  0  0  0  0  0  0  0  0  0  0
    7.1535   -0.9071   -0.2159 H   0  0  0  0  0  0  0  0  0  0  0  0
    8.8878    1.2463    1.7273 H   0  0  0  0  0  0  0  0  0  0  0  0
    8.8092   -0.5398    1.8049 H   0  0  0  0  0  0  0  0  0  0  0  0
    8.1877    0.4373    3.1533 H   0  0  0  0  0  0  0  0  0  0  0  0
    3.9385    2.6895    1.9852 H   0  0  0  0  0  0  0  0  0  0  0  0
    1.6628    2.4018    1.0835 H   0  0  0  0  0  0  0  0  0  0  0  0
  1  2  1  0
  2  3  1  0
  2  4  1  0
  4  5  1  0
  5  6  2  0
  6  7  1  0
  7  8  2  0
  8  9  1  0
  9 10  2  0
 10 11  1  0
 11 12  1  0
 12 13  1  0
 13 14  2  0
 13 15  1  0
 15 16  1  0
 16 17  1  0
 17 18  2  0
 18 19  1  0
 19 20  1  0
 20 21  2  0
 20 22  1  0
 22 23  1  0
 22 24  1  0
 19 25  2  0
 25 26  1  0
 10  5  1  0
 26 16  2  0
  1 27  1  0
  1 28  1  0
  1 29  1  0
  2 30  1  0
  3 31  1  0
  3 32  1  0
  3 33  1  0
  4 34  1  0
  4 35  1  0
  6 36  1  0
  7 37  1  0
  8 38  1  0
  9 39  1  0
 11 40  1  0
 11 41  1  0
 12 42  1  0
 15 43  1  0
 17 44  1  0
 18 45  1  0
 23 46  1  0
 23 47  1  0
 23 48  1  0
 24 49  1  0
 24 50  1  0
 24 51  1  0
 25 52  1  0
 26 53  1  0
M  END
$$$$
OCNT-2317255
     RDKit          3D

 47 49  0  0  0  0  0  0  0  0999 V2000
    7.2019    1.9308    1.0687 C   0  0  0  0  0  0  0  0  0  0  0  0
    6.2222    1.1185    1.7025 O   0  0  0  0  0  0  0  0  0  0  0  0
    5.1974    0.6619    0.9203 C   0  0  0  0  0  0  0  0  0  0  0  0
    4.2809   -0.1596    1.5797 C   0  0  0  0  0  0  0  0  0  0  0  0
    3.1846   -0.6942    0.8997 C   0  0  0  0  0  0  0  0  0  0  0  0
    2.9882   -0.4143   -0.4583 C   0  0  0  0  0  0  0  0  0  0  0  0
    1.7903   -0.9785   -1.1869 C   0  0  0  0  0  0  0  0  0  0  0  0
    0.5583   -0.2750   -0.8388 N   0  0  0  0  0  0  0  0  0  0  0  0
    0.3875    1.0639   -1.3888 C   0  0  0  0  0  0  0  0  0  0  0  0
   -0.3080   -0.8784    0.0555 C   0  0  0  0  0  0  0  0  0  0  0  0
   -0.1961   -2.0450    0.4222 O   0  0  0  0  0  0  0  0  0  0  0  0
   -1.3154   -0.0668    0.5136 N   0  0  0  0  0  0  0  0  0  0  0  0
   -2.3165   -0.5781    1.4235 C   0  0  0  0  0  0  0  0  0  0  0  0
   -3.4389   -1.2709    0.6966 C   0  0  0  0  0  0  0  0  0  0  0  0
   -3.5836   -2.6529    0.9450 C   0  0  0  0  0  0  0  0  0  0  0  0
   -4.5218   -3.4160    0.2625 C   0  0  0  0  0  0  0  0  0  0  0  0
   -5.2997   -2.7821   -0.6773 C   0  0  0  0  0  0  0  0  0  0  0  0
   -5.2027   -1.4666   -0.9532 N   0  0  0  0  0  0  0  0  0  0  0  0
   -4.2941   -0.7095   -0.2647 C   0  0  0  0  0  0  0  0  0  0  0  0
   -4.3036    0.6737   -0.6345 N   0  0  0  0  0  0  0  0  0  0  0  0
   -3.8306    1.7955    0.0099 C   0  0  0  0  0  0  0  0  0  0  0  0
   -4.1095    2.8631   -0.8121 C   0  0  0  0  0  0  0  0  0  0  0  0
   -4.7650    2.4549   -1.9334 N   0  0  0  0  0  0  0  0  0  0  0  0
   -4.8982    1.1543   -1.7883 C   0  0  0  0  0  0  0  0  0  0  0  0
    3.9077    0.4131   -1.1163 C   0  0  0  0  0  0  0  0  0  0  0  0
    5.0061    0.9469   -0.4317 C   0  0  0  0  0  0  0  0  0  0  0  0
    7.7109    1.3844    0.2678 H   0  0  0  0  0  0  0  0  0  0  0  0
    6.7613    2.8611    0.6955 H   0  0  0  0  0  0  0  0  0  0  0  0
    7.9526    2.1962    1.8194 H   0  0  0  0  0  0  0  0  0  0  0  0
    4.4223   -0.3873    2.6334 H   0  0  0  0  0  0  0  0  0  0  0  0
    2.4828   -1.3327    1.4338 H   0  0  0  0  0  0  0  0  0  0  0  0
    1.9277   -0.9130   -2.2731 H   0  0  0  0  0  0  0  0  0  0  0  0
    1.7124   -2.0481   -0.9590 H   0  0  0  0  0  0  0  0  0  0  0  0
    0.9322    1.7749   -0.7613 H   0  0  0  0  0  0  0  0  0  0  0  0
    0.7797    1.0957   -2.4096 H   0  0  0  0  0  0  0  0  0  0  0  0
   -0.6673    1.3486   -1.4235 H   0  0  0  0  0  0  0  0  0  0  0  0
   -1.0371    0.8925    0.6474 H   0  0  0  0  0  0  0  0  0  0  0  0
   -1.8228   -1.2581    2.1294 H   0  0  0  0  0  0  0  0  0  0  0  0
   -2.7005    0.2335    2.0454 H   0  0  0  0  0  0  0  0  0  0  0  0
   -2.9273   -3.1543    1.6559 H   0  0  0  0  0  0  0  0  0  0  0  0
   -4.6213   -4.4796    0.4460 H   0  0  0  0  0  0  0  0  0  0  0  0
   -6.0409   -3.3265   -1.2550 H   0  0  0  0  0  0  0  0  0  0  0  0
   -3.3896    1.7886    0.9885 H   0  0  0  0  0  0  0  0  0  0  0  0
   -3.8905    3.9089   -0.6383 H   0  0  0  0  0  0  0  0  0  0  0  0
   -5.3938    0.4957   -2.4905 H   0  0  0  0  0  0  0  0  0  0  0  0
    3.7765    0.6499   -2.1699 H   0  0  0  0  0  0  0  0  0  0  0  0
    5.6911    1.5811   -0.9842 H   0  0  0  0  0  0  0  0  0  0  0  0
  1  2  1  0
  2  3  1  0
  3  4  1  0
  4  5  2  0
  5  6  1  0
  6  7  1  0
  7  8  1  0
  8  9  1  0
  8 10  1  0
 10 11  2  0
 10 12  1  0
 12 13  1  0
 13 14  1  0
 14 15  1  0
 15 16  2  0
 16 17  1  0
 17 18  2  0
 18 19  1  0
 19 20  1  0
 20 21  1  0
 21 22  2  0
 22 23  1  0
 23 24  2  0
  6 25  2  0
 25 26  1  0
 26  3  2  0
 19 14  2  0
 24 20  1  0
  1 27  1  0
  1 28  1  0
  1 29  1  0
  4 30  1  0
  5 31  1  0
  7 32  1  0
  7 33  1  0
  9 34  1  0
  9 35  1  0
  9 36  1  0
 12 37  1  0
 13 38  1  0
 13 39  1  0
 15 40  1  0
 16 41  1  0
 17 42  1  0
 21 43  1  0
 22 44  1  0
 24 45  1  0
 25 46  1  0
 26 47  1  0
M  END
$$$$
OCNT-2317262
     RDKit          3D

 59 61  0  0  0  0  0  0  0  0999 V2000
   -5.9842    0.9578   -1.6154 C   0  0  0  0  0  0  0  0  0  0  0  0
   -5.8458    0.1892   -0.2936 C   0  0  0  0  0  0  0  0  0  0  0  0
   -7.2338    0.1395    0.3781 C   0  0  0  0  0  0  0  0  0  0  0  0
   -7.1932   -0.5832    1.7186 C   0  0  0  0  0  0  0  0  0  0  0  0
   -6.1240    0.0271    2.6117 C   0  0  0  0  0  0  0  0  0  0  0  0
   -4.7742    0.0684    1.8982 C   0  0  0  0  0  0  0  0  0  0  0  0
   -4.8602    0.7988    0.6222 N   0  0  0  0  0  0  0  0  0  0  0  0
   -3.5157    1.0113    0.0526 C   0  0  0  0  0  0  0  0  0  0  0  0
   -2.7774   -0.2275   -0.4958 C   0  0  0  0  0  0  0  0  0  0  0  0
   -1.4736    0.1092   -1.0435 N   0  0  0  0  0  0  0  0  0  0  0  0
   -0.3773    0.2998   -0.2264 C   0  0  0  0  0  0  0  0  0  0  0  0
   -0.4221    0.1283    0.9868 O   0  0  0  0  0  0  0  0  0  0  0  0
    0.8848    0.7161   -0.9798 C   0  0  0  0  0  0  0  0  0  0  0  0
    1.3851   -0.4222   -1.8781 C   0  0  0  0  0  0  0  0  0  0  0  0
    1.9880   -1.5866   -1.0815 C   0  0  0  0  0  0  0  0  0  0  0  0
    2.6082   -1.1574    0.2498 C   0  0  0  0  0  0  0  0  0  0  0  0
    3.0673    0.2263    0.1705 N   0  0  0  0  0  0  0  0  0  0  0  0
    4.3932    0.6394    0.0371 C   0  0  0  0  0  0  0  0  0  0  0  0
    4.6775    1.7668   -0.3596 O   0  0  0  0  0  0  0  0  0  0  0  0
    5.3206   -0.3104    0.4012 N   0  0  0  0  0  0  0  0  0  0  0  0
    6.7164   -0.2613    0.2044 C   0  0  0  0  0  0  0  0  0  0  0  0
    7.4985   -1.1924    0.9001 C   0  0  0  0  0  0  0  0  0  0  0  0
    8.8870   -1.2148    0.7439 C   0  0  0  0  0  0  0  0  0  0  0  0
    9.5053   -0.3106   -0.1156 C   0  0  0  0  0  0  0  0  0  0  0  0
    8.7346    0.6109   -0.8205 C   0  0  0  0  0  0  0  0  0  0  0  0
    7.3450    0.6330   -0.6643 C   0  0  0  0  0  0  0  0  0  0  0  0
    1.9972    1.2115   -0.0360 C   0  0  0  0  0  0  0  0  0  0  0  0
   -6.2086    2.0159   -1.4397 H   0  0  0  0  0  0  0  0  0  0  0  0
   -5.0741    0.8962   -2.2199 H   0  0  0  0  0  0  0  0  0  0  0  0
   -6.7961    0.5407   -2.2218 H   0  0  0  0  0  0  0  0  0  0  0  0
   -5.5475   -0.8411   -0.5289 H   0  0  0  0  0  0  0  0  0  0  0  0
   -7.6126    1.1591    0.5303 H   0  0  0  0  0  0  0  0  0  0  0  0
   -7.9500   -0.3690   -0.2789 H   0  0  0  0  0  0  0  0  0  0  0  0
   -8.1715   -0.5232    2.2080 H   0  0  0  0  0  0  0  0  0  0  0  0
   -6.9773   -1.6463    1.5571 H   0  0  0  0  0  0  0  0  0  0  0  0
   -6.4205    1.0435    2.9003 H   0  0  0  0  0  0  0  0  0  0  0  0
   -6.0370   -0.5552    3.5361 H   0  0  0  0  0  0  0  0  0  0  0  0
   -4.4182   -0.9572    1.7405 H   0  0  0  0  0  0  0  0  0  0  0  0
   -4.0584    0.5628    2.5663 H   0  0  0  0  0  0  0  0  0  0  0  0
   -3.5808    1.7649   -0.7425 H   0  0  0  0  0  0  0  0  0  0  0  0
   -2.8878    1.4957    0.8127 H   0  0  0  0  0  0  0  0  0  0  0  0
   -3.3408   -0.6931   -1.3098 H   0  0  0  0  0  0  0  0  0  0  0  0
   -2.6349   -0.9746    0.2918 H   0  0  0  0  0  0  0  0  0  0  0  0
   -1.4264    0.4106   -2.0085 H   0  0  0  0  0  0  0  0  0  0  0  0
    0.5851    1.5648   -1.6102 H   0  0  0  0  0  0  0  0  0  0  0  0
    2.1601   -0.0185   -2.5436 H   0  0  0  0  0  0  0  0  0  0  0  0
    0.5937   -0.8034   -2.5335 H   0  0  0  0  0  0  0  0  0  0  0  0
    1.2240   -2.3489   -0.8871 H   0  0  0  0  0  0  0  0  0  0  0  0
    2.7506   -2.0704   -1.7045 H   0  0  0  0  0  0  0  0  0  0  0  0
    1.8686   -1.2121    1.0563 H   0  0  0  0  0  0  0  0  0  0  0  0
    3.4032   -1.8594    0.5088 H   0  0  0  0  0  0  0  0  0  0  0  0
    5.0035   -0.9643    1.0981 H   0  0  0  0  0  0  0  0  0  0  0  0
    7.0402   -1.9092    1.5760 H   0  0  0  0  0  0  0  0  0  0  0  0
    9.4844   -1.9369    1.2938 H   0  0  0  0  0  0  0  0  0  0  0  0
   10.5850   -0.3239   -0.2382 H   0  0  0  0  0  0  0  0  0  0  0  0
    9.2109    1.3172   -1.4958 H   0  0  0  0  0  0  0  0  0  0  0  0
    6.7766    1.3575   -1.2398 H   0  0  0  0  0  0  0  0  0  0  0  0
    1.6137    1.4765    0.9556 H   0  0  0  0  0  0  0  0  0  0  0  0
    2.4159    2.1344   -0.4522 H   0  0  0  0  0  0  0  0  0  0  0  0
  1  2  1  0
  2  3  1  0
  3  4  1  0
  4  5  1  0
  5  6  1  0
  6  7  1  0
  7  8  1  0
  8  9  1  0
  9 10  1  0
 10 11  1  0
 11 12  2  0
 11 13  1  0
 13 14  1  0
 14 15  1  0
 15 16  1  0
 16 17  1  0
 17 18  1  0
 18 19  2  0
 18 20  1  0
 20 21  1  0
 21 22  2  0
 22 23  1  0
 23 24  2  0
 24 25  1  0
 25 26  2  0
 17 27  1  0
  7  2  1  0
 27 13  1  0
 26 21  1  0
  1 28  1  0
  1 29  1  0
  1 30  1  0
  2 31  1  0
  3 32  1  0
  3 33  1  0
  4 34  1  0
  4 35  1  0
  5 36  1  0
  5 37  1  0
  6 38  1  0
  6 39  1  0
  8 40  1  0
  8 41  1  0
  9 42  1  0
  9 43  1  0
 10 44  1  0
 13 45  1  0
 14 46  1  0
 14 47  1  0
 15 48  1  0
 15 49  1  0
 16 50  1  0
 16 51  1  0
 20 52  1  0
 22 53  1  0
 23 54  1  0
 24 55  1  0
 25 56  1  0
 26 57  1  0
 27 58  1  0
 27 59  1  0
M  END
$$$$
OCNT-2317271
     RDKit          3D

 45 47  0  0  0  0  0  0  0  0999 V2000
    6.8168   -0.7413    0.3981 C   0  0  0  0  0  0  0  0  0  0  0  0
    5.7029   -0.0364   -0.1343 O   0  0  0  0  0  0  0  0  0  0  0  0
    4.4466   -0.4321    0.2639 C   0  0  0  0  0  0  0  0  0  0  0  0
    4.2078   -1.4654    1.1749 C   0  0  0  0  0  0  0  0  0  0  0  0
    2.9043   -1.8099    1.5170 C   0  0  0  0  0  0  0  0  0  0  0  0
    1.8328   -1.1161    0.9595 C   0  0  0  0  0  0  0  0  0  0  0  0
    2.0304   -0.0526    0.0496 C   0  0  0  0  0  0  0  0  0  0  0  0
    0.9656    0.6879   -0.5387 C   0  0  0  0  0  0  0  0  0  0  0  0
   -0.3694    0.4303   -0.1515 N   0  0  0  0  0  0  0  0  0  0  0  0
   -0.6847    1.0420    1.1612 C   0  0  0  0  0  0  0  0  0  0  0  0
   -1.8795    2.0023    1.0661 C   0  0  0  0  0  0  0  0  0  0  0  0
   -3.0503    1.3794    0.5234 O   0  0  0  0  0  0  0  0  0  0  0  0
   -2.7969    0.5771   -0.6544 C   0  0  0  0  0  0  0  0  0  0  0  0
   -3.1014   -0.9184   -0.3597 C   0  0  0  0  0  0  0  0  0  0  0  0
   -4.5086   -1.3334   -0.1627 N   0  0  0  0  0  0  0  0  0  0  0  0
   -5.3180   -1.1664   -1.3655 C   0  0  0  0  0  0  0  0  0  0  0  0
   -5.1375   -0.6780    0.9807 C   0  0  0  0  0  0  0  0  0  0  0  0
   -1.3569    0.7472   -1.2021 C   0  0  0  0  0  0  0  0  0  0  0  0
    1.1822    1.6648   -1.4489 N   0  0  0  0  0  0  0  0  0  0  0  0
    2.4544    1.9503   -1.7794 C   0  0  0  0  0  0  0  0  0  0  0  0
    3.5515    1.3066   -1.2442 C   0  0  0  0  0  0  0  0  0  0  0  0
    3.3587    0.2779   -0.3108 C   0  0  0  0  0  0  0  0  0  0  0  0
    6.8754   -0.6237    1.4850 H   0  0  0  0  0  0  0  0  0  0  0  0
    6.7893   -1.7980    0.1125 H   0  0  0  0  0  0  0  0  0  0  0  0
    7.7237   -0.3053   -0.0319 H   0  0  0  0  0  0  0  0  0  0  0  0
    5.0145   -2.0288    1.6311 H   0  0  0  0  0  0  0  0  0  0  0  0
    2.7189   -2.6234    2.2137 H   0  0  0  0  0  0  0  0  0  0  0  0
    0.8226   -1.4207    1.2264 H   0  0  0  0  0  0  0  0  0  0  0  0
   -0.9462    0.2261    1.8453 H   0  0  0  0  0  0  0  0  0  0  0  0
    0.1681    1.5769    1.5982 H   0  0  0  0  0  0  0  0  0  0  0  0
   -2.1387    2.3689    2.0647 H   0  0  0  0  0  0  0  0  0  0  0  0
   -1.6352    2.8795    0.4557 H   0  0  0  0  0  0  0  0  0  0  0  0
   -3.4822    0.9381   -1.4285 H   0  0  0  0  0  0  0  0  0  0  0  0
   -2.6956   -1.5318   -1.1747 H   0  0  0  0  0  0  0  0  0  0  0  0
   -2.5506   -1.2242    0.5390 H   0  0  0  0  0  0  0  0  0  0  0  0
   -6.3048   -1.6219   -1.2250 H   0  0  0  0  0  0  0  0  0  0  0  0
   -5.4683   -0.1152   -1.6331 H   0  0  0  0  0  0  0  0  0  0  0  0
   -4.8575   -1.6781   -2.2177 H   0  0  0  0  0  0  0  0  0  0  0  0
   -6.0946   -1.1612    1.2085 H   0  0  0  0  0  0  0  0  0  0  0  0
   -5.3376    0.3840    0.8049 H   0  0  0  0  0  0  0  0  0  0  0  0
   -4.5186   -0.7769    1.8793 H   0  0  0  0  0  0  0  0  0  0  0  0
   -1.2059    0.0920   -2.0690 H   0  0  0  0  0  0  0  0  0  0  0  0
   -1.2509    1.7849   -1.5459 H   0  0  0  0  0  0  0  0  0  0  0  0
    2.5763    2.7431   -2.5116 H   0  0  0  0  0  0  0  0  0  0  0  0
    4.5472    1.5999   -1.5618 H   0  0  0  0  0  0  0  0  0  0  0  0
  1  2  1  0
  2  3  1  0
  3  4  2  0
  4  5  1  0
  5  6  2  0
  6  7  1  0
  7  8  2  0
  8  9  1  0
  9 10  1  0
 10 11  1  0
 11 12  1  0
 12 13  1  0
 13 14  1  0
 14 15  1  0
 15 16  1  0
 15 17  1  0
 13 18  1  0
  8 19  1  0
 19 20  2  0
 20 21  1  0
 21 22  2  0
 22  3  1  0
 22  7  1  0
 18  9  1  0
  1 23  1  0
  1 24  1  0
  1 25  1  0
  4 26  1  0
  5 27  1  0
  6 28  1  0
 10 29  1  0
 10 30  1  0
 11 31  1  0
 11 32  1  0
 13 33  1  0
 14 34  1  0
 14 35  1  0
 16 36  1  0
 16 37  1  0
 16 38  1  0
 17 39  1  0
 17 40  1  0
 17 41  1  0
 18 42  1  0
 18 43  1  0
 20 44  1  0
 21 45  1  0
M  END
$$$$
OCNT-2317273
     RDKit          3D

 50 52  0  0  0  0  0  0  0  0999 V2000
   -5.6883    2.1665    0.6784 C   0  0  0  0  0  0  0  0  0  0  0  0
   -5.4422    0.7806    0.0837 C   0  0  0  0  0  0  0  0  0  0  0  0
   -5.6529   -0.3187    1.1241 C   0  0  0  0  0  0  0  0  0  0  0  0
   -4.1209    0.6888   -0.5288 N   0  0  0  0  0  0  0  0  0  0  0  0
   -3.8541    0.4521   -1.8467 C   0  0  0  0  0  0  0  0  0  0  0  0
   -2.4855    0.4467   -1.9625 C   0  0  0  0  0  0  0  0  0  0  0  0
   -2.0033    0.6894   -0.6530 C   0  0  0  0  0  0  0  0  0  0  0  0
   -0.5692    0.7943   -0.2058 C   0  0  0  0  0  0  0  0  0  0  0  0
    0.1782   -0.4577   -0.4465 N   0  0  0  0  0  0  0  0  0  0  0  0
   -0.3664   -1.5595    0.3787 C   0  0  0  0  0  0  0  0  0  0  0  0
    0.0588   -2.9671   -0.0593 C   0  0  0  0  0  0  0  0  0  0  0  0
    1.5487   -3.2390    0.0730 C   0  0  0  0  0  0  0  0  0  0  0  0
    2.3119   -2.6196   -0.9815 N   0  0  0  0  0  0  0  0  0  0  0  0
    2.3378   -1.2780   -1.2579 C   0  0  0  0  0  0  0  0  0  0  0  0
    2.8562   -0.9084   -2.3123 O   0  0  0  0  0  0  0  0  0  0  0  0
    1.6615   -0.3232   -0.2381 C   0  0  0  0  0  0  0  0  0  0  0  0
    2.2880    1.0906   -0.3990 C   0  0  0  0  0  0  0  0  0  0  0  0
    3.7154    1.1684    0.1101 C   0  0  0  0  0  0  0  0  0  0  0  0
    3.9731    1.2735    1.4851 C   0  0  0  0  0  0  0  0  0  0  0  0
    5.2851    1.3363    1.9571 C   0  0  0  0  0  0  0  0  0  0  0  0
    6.3516    1.2936    1.0615 C   0  0  0  0  0  0  0  0  0  0  0  0
    6.1069    1.1891   -0.3062 C   0  0  0  0  0  0  0  0  0  0  0  0
    4.7956    1.1279   -0.7802 C   0  0  0  0  0  0  0  0  0  0  0  0
   -3.0107    0.8406    0.2209 N   0  0  0  0  0  0  0  0  0  0  0  0
   -5.5420    2.9470   -0.0765 H   0  0  0  0  0  0  0  0  0  0  0  0
   -5.0058    2.3765    1.5094 H   0  0  0  0  0  0  0  0  0  0  0  0
   -6.7131    2.2493    1.0554 H   0  0  0  0  0  0  0  0  0  0  0  0
   -6.1672    0.6253   -0.7255 H   0  0  0  0  0  0  0  0  0  0  0  0
   -6.6768   -0.2933    1.5117 H   0  0  0  0  0  0  0  0  0  0  0  0
   -5.4817   -1.3084    0.6864 H   0  0  0  0  0  0  0  0  0  0  0  0
   -4.9686   -0.2083    1.9726 H   0  0  0  0  0  0  0  0  0  0  0  0
   -4.6389    0.3078   -2.5754 H   0  0  0  0  0  0  0  0  0  0  0  0
   -1.9014    0.2838   -2.8575 H   0  0  0  0  0  0  0  0  0  0  0  0
   -0.5108    1.0897    0.8494 H   0  0  0  0  0  0  0  0  0  0  0  0
   -0.1523    1.6093   -0.8088 H   0  0  0  0  0  0  0  0  0  0  0  0
   -0.1190   -1.4048    1.4375 H   0  0  0  0  0  0  0  0  0  0  0  0
   -1.4610   -1.5698    0.3278 H   0  0  0  0  0  0  0  0  0  0  0  0
   -0.2721   -3.1492   -1.0898 H   0  0  0  0  0  0  0  0  0  0  0  0
   -0.4766   -3.6856    0.5741 H   0  0  0  0  0  0  0  0  0  0  0  0
    1.9346   -2.9017    1.0405 H   0  0  0  0  0  0  0  0  0  0  0  0
    1.7357   -4.3156   -0.0011 H   0  0  0  0  0  0  0  0  0  0  0  0
    2.6937   -3.1924   -1.7242 H   0  0  0  0  0  0  0  0  0  0  0  0
    1.9157   -0.6543    0.7768 H   0  0  0  0  0  0  0  0  0  0  0  0
    2.2409    1.4305   -1.4414 H   0  0  0  0  0  0  0  0  0  0  0  0
    1.7314    1.8313    0.1879 H   0  0  0  0  0  0  0  0  0  0  0  0
    3.1525    1.3122    2.1979 H   0  0  0  0  0  0  0  0  0  0  0  0
    5.4756    1.4203    3.0237 H   0  0  0  0  0  0  0  0  0  0  0  0
    7.3734    1.3420    1.4281 H   0  0  0  0  0  0  0  0  0  0  0  0
    6.9365    1.1525   -1.0074 H   0  0  0  0  0  0  0  0  0  0  0  0
    4.6220    1.0385   -1.8515 H   0  0  0  0  0  0  0  0  0  0  0  0
  1  2  1  0
  2  3  1  0
  2  4  1  0
  4  5  1  0
  5  6  2  0
  6  7  1  0
  7  8  1  0
  8  9  1  0
  9 10  1  0
 10 11  1  0
 11 12  1  0
 12 13  1  0
 13 14  1  0
 14 15  2  0
 14 16  1  0
 16 17  1  0
 17 18  1  0
 18 19  2  0
 19 20  1  0
 20 21  2  0
 21 22  1  0
 22 23  2  0
  7 24  2  0
 24  4  1  0
 16  9  1  0
 23 18  1  0
  1 25  1  0
  1 26  1  0
  1 27  1  0
  2 28  1  0
  3 29  1  0
  3 30  1  0
  3 31  1  0
  5 32  1  0
  6 33  1  0
  8 34  1  0
  8 35  1  0
 10 36  1  0
 10 37  1  0
 11 38  1  0
 11 39  1  0
 12 40  1  0
 12 41  1  0
 13 42  1  0
 16 43  1  0
 17 44  1  0
 17 45  1  0
 19 46  1  0
 20 47  1  0
 21 48  1  0
 22 49  1  0
 23 50  1  0
M  END
$$$$
OCNT-2317274
     RDKit          3D

  0  0  0  0  0  0  0  0  0  0999 V3000
M  V30 BEGIN CTAB
M  V30 COUNTS 51 53 0 0 0
M  V30 BEGIN ATOM
M  V30 1 C 5.908595 3.073800 -0.025679 0
M  V30 2 C 5.985217 1.568410 -0.091540 0
M  V30 3 O 7.065527 1.001772 -0.208253 0
M  V30 4 N 4.739242 0.977748 0.021634 0
M  V30 5 C 4.435853 -0.401205 0.008569 0
M  V30 6 C 5.393453 -1.406047 -0.133310 0
M  V30 7 C 5.011603 -2.749161 -0.133984 0
M  V30 8 C 3.669186 -3.094352 0.005664 0
M  V30 9 C 2.697399 -2.103956 0.145267 0
M  V30 10 O 1.418906 -2.575000 0.272402 0
M  V30 11 C 0.373939 -1.603103 0.370982 0
M  V30 12 C -0.961961 -2.346499 0.480147 0
M  V30 13 N -2.132664 -1.483228 0.699917 0
M  V30 14 C -2.440957 -0.698298 -0.500294 0
M  V30 15 C -3.973029 -0.458547 -0.579271 0 CFG=1
M  V30 16 C -4.964298 -0.487394 0.584058 0
M  V30 17 C -5.803992 0.756556 0.339790 0
M  V30 18 C -4.773761 1.813530 -0.037922 0
M  V30 19 C -3.702515 1.048361 -0.817636 0 CFG=1
M  V30 20 C -2.236347 0.840568 -0.265254 0
M  V30 21 C -1.953467 1.344142 1.153861 0
M  V30 22 C -1.213922 1.452655 -1.235014 0
M  V30 23 C 3.084656 -0.760431 0.147508 0
M  V30 24 H 5.028370 3.443795 -0.559341 0
M  V30 25 H 6.796512 3.503929 -0.498030 0
M  V30 26 H 5.865189 3.388977 1.020108 0
M  V30 27 H 3.951582 1.602642 0.135985 0
M  V30 28 H 6.449262 -1.180077 -0.244653 0
M  V30 29 H 5.764978 -3.525065 -0.243290 0
M  V30 30 H 3.379196 -4.142086 0.004881 0
M  V30 31 H 0.375349 -0.978504 -0.527561 0
M  V30 32 H 0.522032 -0.987256 1.265875 0
M  V30 33 H -0.892420 -3.036396 1.331013 0
M  V30 34 H -1.110546 -2.990920 -0.395936 0
M  V30 35 H -2.899743 -2.094745 0.984479 0
M  V30 36 H -2.043101 -1.086281 -1.446648 0
M  V30 37 H -4.422227 -0.946286 -1.456359 0
M  V30 38 H -4.469255 -0.415006 1.557489 0
M  V30 39 H -5.571605 -1.397453 0.578544 0
M  V30 40 H -6.487409 0.586840 -0.501209 0
M  V30 41 H -6.398509 1.043721 1.211468 0
M  V30 42 H -4.371827 2.288188 0.861275 0
M  V30 43 H -5.228471 2.600961 -0.647738 0
M  V30 44 H -3.739233 1.299513 -1.887311 0
M  V30 45 H -0.950599 1.049517 1.481178 0
M  V30 46 H -2.666230 0.956511 1.886929 0
M  V30 47 H -2.000091 2.438145 1.194602 0
M  V30 48 H -1.308073 2.544114 -1.257913 0
M  V30 49 H -0.189734 1.213420 -0.932645 0
M  V30 50 H -1.353648 1.086454 -2.258076 0
M  V30 51 H 2.343587 0.023023 0.259414 0
M  V30 END ATOM
M  V30 BEGIN BOND
M  V30 1 1 1 2
M  V30 2 2 2 3
M  V30 3 1 2 4
M  V30 4 1 4 5
M  V30 5 2 5 6
M  V30 6 1 6 7
M  V30 7 2 7 8
M  V30 8 1 8 9
M  V30 9 1 9 10
M  V30 10 1 10 11
M  V30 11 1 11 12
M  V30 12 1 12 13
M  V30 13 1 13 14
M  V30 14 1 14 15
M  V30 15 1 15 16
M  V30 16 1 16 17
M  V30 17 1 17 18
M  V30 18 1 18 19
M  V30 19 1 19 20
M  V30 20 1 20 21
M  V30 21 1 20 22
M  V30 22 2 9 23
M  V30 23 1 23 5
M  V30 24 1 20 14
M  V30 25 1 19 15
M  V30 26 1 1 24
M  V30 27 1 1 25
M  V30 28 1 1 26
M  V30 29 1 4 27
M  V30 30 1 6 28
M  V30 31 1 7 29
M  V30 32 1 8 30
M  V30 33 1 11 31
M  V30 34 1 11 32
M  V30 35 1 12 33
M  V30 36 1 12 34
M  V30 37 1 13 35
M  V30 38 1 14 36
M  V30 39 1 15 37 CFG=3
M  V30 40 1 16 38
M  V30 41 1 16 39
M  V30 42 1 17 40
M  V30 43 1 17 41
M  V30 44 1 18 42
M  V30 45 1 18 43
M  V30 46 1 19 44 CFG=3
M  V30 47 1 21 45
M  V30 48 1 21 46
M  V30 49 1 21 47
M  V30 50 1 22 48
M  V30 51 1 22 49
M  V30 52 1 22 50
M  V30 53 1 23 51
M  V30 END BOND
M  V30 BEGIN COLLECTION
M  V30 MDLV30/STERAC1 ATOMS=(2 15 19)
M  V30 END COLLECTION
M  V30 END CTAB
M  END
>  <_CXSMILES_Data>  (1193) 
|&1:14,18|

$$$$
OCNT-2317275
     RDKit          3D

 39 42  0  0  0  0  0  0  0  0999 V2000
   -4.3935    2.6827    0.9100 C   0  0  0  0  0  0  0  0  0  0  0  0
   -5.1706    1.5334    1.0243 C   0  0  0  0  0  0  0  0  0  0  0  0
   -4.5552    0.2815    1.0789 C   0  0  0  0  0  0  0  0  0  0  0  0
   -3.1631    0.1651    1.0206 C   0  0  0  0  0  0  0  0  0  0  0  0
   -2.7020   -1.1204    1.0791 O   0  0  0  0  0  0  0  0  0  0  0  0
   -1.2901   -1.3432    1.0256 C   0  0  0  0  0  0  0  0  0  0  0  0
   -0.7698   -1.3770   -0.4240 C   0  0  2  0  0  0  0  0  0  0  0  0
   -1.3837   -2.5260   -1.2451 C   0  0  0  0  0  0  0  0  0  0  0  0
   -0.3733   -3.6538   -1.1009 C   0  0  0  0  0  0  0  0  0  0  0  0
    0.9612   -2.9168   -1.1329 C   0  0  0  0  0  0  0  0  0  0  0  0
    0.6741   -1.6613   -0.4547 N   0  0  0  0  0  0  0  0  0  0  0  0
    1.5678   -0.6387   -0.3546 C   0  0  0  0  0  0  0  0  0  0  0  0
    1.2466    0.5933   -0.0023 N   0  0  0  0  0  0  0  0  0  0  0  0
    2.3244    1.4512    0.0437 N   0  0  0  0  0  0  0  0  0  0  0  0
    3.4476    0.8410   -0.2675 C   0  0  0  0  0  0  0  0  0  0  0  0
    4.8212    1.5944   -0.2879 C   0  0  0  0  0  0  0  0  0  0  0  0
    5.9830    1.0055   -0.6022 N   0  0  0  0  0  0  0  0  0  0  0  0
    6.9424    2.0005   -0.5031 O   0  0  0  0  0  0  0  0  0  0  0  0
    6.3491    3.1627   -0.1343 C   0  0  0  0  0  0  0  0  0  0  0  0
    5.0028    2.9623    0.0159 C   0  0  0  0  0  0  0  0  0  0  0  0
    3.2659   -0.8180   -0.6391 S   0  0  0  0  0  0  0  0  0  0  0  0
   -2.3900    1.3209    0.9072 C   0  0  0  0  0  0  0  0  0  0  0  0
   -3.0053    2.5760    0.8515 C   0  0  0  0  0  0  0  0  0  0  0  0
   -4.8671    3.6599    0.8672 H   0  0  0  0  0  0  0  0  0  0  0  0
   -6.2534    1.6086    1.0716 H   0  0  0  0  0  0  0  0  0  0  0  0
   -5.1664   -0.6132    1.1689 H   0  0  0  0  0  0  0  0  0  0  0  0
   -1.1179   -2.3206    1.4937 H   0  0  0  0  0  0  0  0  0  0  0  0
   -0.7432   -0.6325    1.6564 H   0  0  0  0  0  0  0  0  0  0  0  0
   -1.0113   -0.4384   -0.9376 H   0  0  0  0  0  0  0  0  0  0  0  0
   -2.3871   -2.8165   -0.9214 H   0  0  0  0  0  0  0  0  0  0  0  0
   -1.4453   -2.2293   -2.2999 H   0  0  0  0  0  0  0  0  0  0  0  0
   -0.4566   -4.4017   -1.8943 H   0  0  0  0  0  0  0  0  0  0  0  0
   -0.5060   -4.1588   -0.1368 H   0  0  0  0  0  0  0  0  0  0  0  0
    1.7374   -3.4981   -0.6247 H   0  0  0  0  0  0  0  0  0  0  0  0
    1.2649   -2.7357   -2.1711 H   0  0  0  0  0  0  0  0  0  0  0  0
    7.0080    4.0115   -0.0260 H   0  0  0  0  0  0  0  0  0  0  0  0
    4.2551    3.6869    0.3017 H   0  0  0  0  0  0  0  0  0  0  0  0
   -1.3061    1.2914    0.8563 H   0  0  0  0  0  0  0  0  0  0  0  0
   -2.3945    3.4710    0.7622 H   0  0  0  0  0  0  0  0  0  0  0  0
  1  2  2  0
  2  3  1  0
  3  4  2  0
  4  5  1  0
  5  6  1  0
  6  7  1  0
  7  8  1  0
  8  9  1  0
  9 10  1  0
 10 11  1  0
 11 12  1  0
 12 13  2  0
 13 14  1  0
 14 15  2  0
 15 16  1  0
 16 17  2  0
 17 18  1  0
 18 19  1  0
 19 20  2  0
 15 21  1  0
  4 22  1  0
 22 23  2  0
 23  1  1  0
 11  7  1  0
 21 12  1  0
 20 16  1  0
  1 24  1  0
  2 25  1  0
  3 26  1  0
  6 27  1  0
  6 28  1  0
  7 29  1  6
  8 30  1  0
  8 31  1  0
  9 32  1  0
  9 33  1  0
 10 34  1  0
 10 35  1  0
 19 36  1  0
 20 37  1  0
 22 38  1  0
 23 39  1  0
M  END
$$$$
OCNT-2317285
     RDKit          3D

 44 46  0  0  0  0  0  0  0  0999 V2000
    1.6041   -1.7937   -1.9083 O   0  0  0  0  0  0  0  0  0  0  0  0
    1.4742   -0.9995   -0.9780 C   0  0  0  0  0  0  0  0  0  0  0  0
    2.6641   -0.3357   -0.3102 C   0  0  0  0  0  0  0  0  0  0  0  0
    3.9772   -0.7131   -0.9937 C   0  0  0  0  0  0  0  0  0  0  0  0
    5.1549   -0.0437   -0.3322 C   0  0  0  0  0  0  0  0  0  0  0  0
    5.5905    1.2152   -0.7528 C   0  0  0  0  0  0  0  0  0  0  0  0
    6.6636    1.7999   -0.0976 C   0  0  0  0  0  0  0  0  0  0  0  0
    7.3176    1.2269    0.9350 N   0  0  0  0  0  0  0  0  0  0  0  0
    6.8807    0.0108    1.3257 C   0  0  0  0  0  0  0  0  0  0  0  0
    5.8175   -0.6549    0.7349 C   0  0  0  0  0  0  0  0  0  0  0  0
    0.2364   -0.6623   -0.4757 N   0  0  0  0  0  0  0  0  0  0  0  0
   -0.0503    0.2556    0.6152 C   0  0  0  0  0  0  0  0  0  0  0  0
   -1.5242    0.0281    0.9200 C   0  0  0  0  0  0  0  0  0  0  0  0
   -2.1023   -0.3508   -0.4491 C   0  0  0  0  0  0  0  0  0  0  0  0
   -3.4354   -1.0962   -0.3877 C   0  0  0  0  0  0  0  0  0  0  0  0
   -4.5616   -0.2333    0.1264 C   0  0  0  0  0  0  0  0  0  0  0  0
   -5.1526    0.7306   -0.7020 C   0  0  0  0  0  0  0  0  0  0  0  0
   -6.1849    1.5385   -0.2231 C   0  0  0  0  0  0  0  0  0  0  0  0
   -6.6355    1.3919    1.0873 C   0  0  0  0  0  0  0  0  0  0  0  0
   -6.0545    0.4372    1.9197 C   0  0  0  0  0  0  0  0  0  0  0  0
   -5.0220   -0.3718    1.4426 C   0  0  0  0  0  0  0  0  0  0  0  0
   -0.9840   -1.2060   -1.0469 C   0  0  0  0  0  0  0  0  0  0  0  0
    2.6904   -0.6477    0.7404 H   0  0  0  0  0  0  0  0  0  0  0  0
    2.5251    0.7512   -0.3448 H   0  0  0  0  0  0  0  0  0  0  0  0
    3.9488   -0.4361   -2.0556 H   0  0  0  0  0  0  0  0  0  0  0  0
    4.1195   -1.8015   -0.9757 H   0  0  0  0  0  0  0  0  0  0  0  0
    5.1096    1.7342   -1.5753 H   0  0  0  0  0  0  0  0  0  0  0  0
    7.0356    2.7759   -0.3958 H   0  0  0  0  0  0  0  0  0  0  0  0
    7.4248   -0.4312    2.1555 H   0  0  0  0  0  0  0  0  0  0  0  0
    5.5180   -1.6310    1.1018 H   0  0  0  0  0  0  0  0  0  0  0  0
    0.5910    0.0596    1.4785 H   0  0  0  0  0  0  0  0  0  0  0  0
    0.1310    1.2740    0.2550 H   0  0  0  0  0  0  0  0  0  0  0  0
   -1.6339   -0.8033    1.6274 H   0  0  0  0  0  0  0  0  0  0  0  0
   -1.9952    0.9138    1.3563 H   0  0  0  0  0  0  0  0  0  0  0  0
   -2.2036    0.5644   -1.0491 H   0  0  0  0  0  0  0  0  0  0  0  0
   -3.3428   -1.9953    0.2353 H   0  0  0  0  0  0  0  0  0  0  0  0
   -3.7043   -1.4574   -1.3891 H   0  0  0  0  0  0  0  0  0  0  0  0
   -4.8126    0.8566   -1.7275 H   0  0  0  0  0  0  0  0  0  0  0  0
   -6.6385    2.2820   -0.8734 H   0  0  0  0  0  0  0  0  0  0  0  0
   -7.4402    2.0205    1.4592 H   0  0  0  0  0  0  0  0  0  0  0  0
   -6.4066    0.3218    2.9415 H   0  0  0  0  0  0  0  0  0  0  0  0
   -4.5794   -1.1111    2.1062 H   0  0  0  0  0  0  0  0  0  0  0  0
   -0.9566   -1.1563   -2.1402 H   0  0  0  0  0  0  0  0  0  0  0  0
   -1.0535   -2.2569   -0.7431 H   0  0  0  0  0  0  0  0  0  0  0  0
  1  2  2  0
  2  3  1  0
  3  4  1  0
  4  5  1  0
  5  6  2  0
  6  7  1  0
  7  8  2  0
  8  9  1  0
  9 10  2  0
  2 11  1  0
 11 12  1  0
 12 13  1  0
 13 14  1  0
 14 15  1  0
 15 16  1  0
 16 17  2  0
 17 18  1  0
 18 19  2  0
 19 20  1  0
 20 21  2  0
 14 22  1  0
 10  5  1  0
 22 11  1  0
 21 16  1  0
  3 23  1  0
  3 24  1  0
  4 25  1  0
  4 26  1  0
  6 27  1  0
  7 28  1  0
  9 29  1  0
 10 30  1  0
 12 31  1  0
 12 32  1  0
 13 33  1  0
 13 34  1  0
 14 35  1  0
 15 36  1  0
 15 37  1  0
 17 38  1  0
 18 39  1  0
 19 40  1  0
 20 41  1  0
 21 42  1  0
 22 43  1  0
 22 44  1  0
M  END
$$$$
OCNT-2317287
     RDKit          3D

 55 58  0  0  0  0  0  0  0  0999 V2000
    1.7220    2.9067   -3.3428 C   0  0  0  0  0  0  0  0  0  0  0  0
    1.5925    2.8173   -1.9315 O   0  0  0  0  0  0  0  0  0  0  0  0
    1.3228    1.5171   -1.3503 C   0  0  0  0  0  0  0  0  0  0  0  0
    2.6513    0.8257   -1.1228 C   0  0  0  0  0  0  0  0  0  0  0  0
    3.1541    0.2816   -0.0342 N   0  0  0  0  0  0  0  0  0  0  0  0
    4.3648   -0.2296   -0.4692 C   0  0  0  0  0  0  0  0  0  0  0  0
    5.2827   -0.9387    0.4279 C   0  0  0  0  0  0  0  0  0  0  0  0
    4.9216   -1.1807    1.7529 C   0  0  0  0  0  0  0  0  0  0  0  0
    5.8094   -1.8647    2.5808 C   0  0  0  0  0  0  0  0  0  0  0  0
    7.0317   -2.2828    2.0693 C   0  0  0  0  0  0  0  0  0  0  0  0
    7.3171   -2.0009    0.7440 C   0  0  0  0  0  0  0  0  0  0  0  0
    6.4756   -1.3453   -0.0839 N   0  0  0  0  0  0  0  0  0  0  0  0
    4.5895   -0.0241   -1.7781 N   0  0  0  0  0  0  0  0  0  0  0  0
    3.4643    0.6661   -2.2081 O   0  0  0  0  0  0  0  0  0  0  0  0
    0.3929    0.6466   -2.2176 C   0  0  0  0  0  0  0  0  0  0  0  0
   -0.3454   -0.3957   -1.3805 C   0  0  0  0  0  0  0  0  0  0  0  0
   -1.1589    0.1954   -0.3072 N   0  0  0  0  0  0  0  0  0  0  0  0
   -2.5889   -0.2132   -0.3343 C   0  0  0  0  0  0  0  0  0  0  0  0
   -2.6283   -1.6630    0.1294 C   0  0  0  0  0  0  0  0  0  0  0  0
   -3.1571   -2.2462    1.2190 C   0  0  0  0  0  0  0  0  0  0  0  0
   -3.8809   -1.5827    2.3466 C   0  0  0  0  0  0  0  0  0  0  0  0
   -5.3468   -1.2761    2.0354 C   0  0  0  0  0  0  0  0  0  0  0  0
   -5.6568   -0.8086    0.6117 C   0  0  0  0  0  0  0  0  0  0  0  0
   -5.0603    0.5330    0.1995 C   0  0  0  0  0  0  0  0  0  0  0  0
   -3.5551    0.7748    0.3745 C   0  0  0  0  0  0  0  0  0  0  0  0
   -0.8538    1.5970   -0.0291 C   0  0  0  0  0  0  0  0  0  0  0  0
    0.6576    1.8235    0.0148 C   0  0  0  0  0  0  0  0  0  0  0  0
    2.3773    2.1373   -3.7562 H   0  0  0  0  0  0  0  0  0  0  0  0
    0.7398    2.8551   -3.8192 H   0  0  0  0  0  0  0  0  0  0  0  0
    2.1546    3.8840   -3.5790 H   0  0  0  0  0  0  0  0  0  0  0  0
    3.9625   -0.8476    2.1392 H   0  0  0  0  0  0  0  0  0  0  0  0
    5.5474   -2.0683    3.6159 H   0  0  0  0  0  0  0  0  0  0  0  0
    7.7461   -2.8147    2.6876 H   0  0  0  0  0  0  0  0  0  0  0  0
    8.2622   -2.3002    0.2978 H   0  0  0  0  0  0  0  0  0  0  0  0
   -0.3535    1.2682   -2.7299 H   0  0  0  0  0  0  0  0  0  0  0  0
    0.9529    0.1417   -3.0154 H   0  0  0  0  0  0  0  0  0  0  0  0
   -0.9472   -1.0032   -2.0676 H   0  0  0  0  0  0  0  0  0  0  0  0
    0.3784   -1.0816   -0.9230 H   0  0  0  0  0  0  0  0  0  0  0  0
   -2.9186   -0.2072   -1.3835 H   0  0  0  0  0  0  0  0  0  0  0  0
   -2.1456   -2.3503   -0.5667 H   0  0  0  0  0  0  0  0  0  0  0  0
   -3.0579   -3.3280    1.3078 H   0  0  0  0  0  0  0  0  0  0  0  0
   -3.8446   -2.2493    3.2189 H   0  0  0  0  0  0  0  0  0  0  0  0
   -3.3456   -0.6897    2.6802 H   0  0  0  0  0  0  0  0  0  0  0  0
   -5.9321   -2.1879    2.2162 H   0  0  0  0  0  0  0  0  0  0  0  0
   -5.7154   -0.5354    2.7558 H   0  0  0  0  0  0  0  0  0  0  0  0
   -5.3815   -1.5801   -0.1165 H   0  0  0  0  0  0  0  0  0  0  0  0
   -6.7485   -0.7222    0.5235 H   0  0  0  0  0  0  0  0  0  0  0  0
   -5.3137    0.7002   -0.8558 H   0  0  0  0  0  0  0  0  0  0  0  0
   -5.5849    1.3215    0.7555 H   0  0  0  0  0  0  0  0  0  0  0  0
   -3.3956    1.7750   -0.0511 H   0  0  0  0  0  0  0  0  0  0  0  0
   -3.3102    0.8863    1.4340 H   0  0  0  0  0  0  0  0  0  0  0  0
   -1.2476    1.8809    0.9532 H   0  0  0  0  0  0  0  0  0  0  0  0
   -1.3049    2.2623   -0.7759 H   0  0  0  0  0  0  0  0  0  0  0  0
    1.0561    1.1928    0.8201 H   0  0  0  0  0  0  0  0  0  0  0  0
    0.8524    2.8606    0.3179 H   0  0  0  0  0  0  0  0  0  0  0  0
  1  2  1  0
  2  3  1  0
  3  4  1  0
  4  5  2  0
  5  6  1  0
  6  7  1  0
  7  8  2  0
  8  9  1  0
  9 10  2  0
 10 11  1  0
 11 12  2  0
  6 13  2  0
 13 14  1  0
  3 15  1  0
 15 16  1  0
 16 17  1  0
 17 18  1  0
 18 19  1  0
 19 20  2  3
 20 21  1  0
 21 22  1  0
 22 23  1  0
 23 24  1  0
 24 25  1  0
 17 26  1  0
 26 27  1  0
 27  3  1  0
 14  4  1  0
 25 18  1  0
 12  7  1  0
  1 28  1  0
  1 29  1  0
  1 30  1  0
  8 31  1  0
  9 32  1  0
 10 33  1  0
 11 34  1  0
 15 35  1  0
 15 36  1  0
 16 37  1  0
 16 38  1  0
 18 39  1  0
 19 40  1  0
 20 41  1  0
 21 42  1  0
 21 43  1  0
 22 44  1  0
 22 45  1  0
 23 46  1  0
 23 47  1  0
 24 48  1  0
 24 49  1  0
 25 50  1  0
 25 51  1  0
 26 52  1  0
 26 53  1  0
 27 54  1  0
 27 55  1  0
M  END
$$$$
OCNT-2317297
     RDKit          3D

 52 54  0  0  0  0  0  0  0  0999 V2000
    0.1212    2.5502   -1.6414 O   0  0  0  0  0  0  0  0  0  0  0  0
    0.2179    1.5296   -0.9668 C   0  0  0  0  0  0  0  0  0  0  0  0
   -0.5196    1.3332    0.1710 N   0  0  0  0  0  0  0  0  0  0  0  0
   -1.5090    2.3096    0.5972 C   0  0  0  0  0  0  0  0  0  0  0  0
   -2.7776    2.3058   -0.2650 C   0  0  0  0  0  0  0  0  0  0  0  0
   -3.5218    0.9883   -0.2111 C   0  0  0  0  0  0  0  0  0  0  0  0
   -3.3830    0.0725   -1.2662 C   0  0  0  0  0  0  0  0  0  0  0  0
   -4.0341   -1.1608   -1.2279 C   0  0  0  0  0  0  0  0  0  0  0  0
   -4.8215   -1.4990   -0.1300 C   0  0  0  0  0  0  0  0  0  0  0  0
   -4.9671   -0.6011    0.9271 C   0  0  0  0  0  0  0  0  0  0  0  0
   -4.3375    0.6463    0.8778 C   0  0  0  0  0  0  0  0  0  0  0  0
   -4.4380    1.5404    1.9100 O   0  0  0  0  0  0  0  0  0  0  0  0
   -5.7896    1.8749    2.1980 C   0  0  0  0  0  0  0  0  0  0  0  0
   -6.2894    0.9687    3.0750 F   0  0  0  0  0  0  0  0  0  0  0  0
   -5.7777    3.0701    2.8410 F   0  0  0  0  0  0  0  0  0  0  0  0
    1.0746    0.4869   -1.2940 N   0  0  0  0  0  0  0  0  0  0  0  0
    1.7654    0.5664   -2.5828 C   0  0  0  0  0  0  0  0  0  0  0  0
    3.1440    1.2128   -2.4494 C   0  0  0  0  0  0  0  0  0  0  0  0
    4.1321    0.2977   -1.9702 O   0  0  0  0  0  0  0  0  0  0  0  0
    3.9296   -0.1310   -0.6208 C   0  0  0  0  0  0  0  0  0  0  0  0
    2.8421   -1.2096   -0.5429 C   0  0  0  0  0  0  0  0  0  0  0  0
    3.0625   -2.2185    0.6049 C   0  0  0  0  0  0  0  0  0  0  0  0
    3.3674   -1.7171    2.0403 C   0  0  0  0  0  0  0  0  0  0  0  0
    4.8127   -2.2149    1.8898 C   0  0  0  0  0  0  0  0  0  0  0  0
    4.3836   -3.0252    0.6557 C   0  0  0  0  0  0  0  0  0  0  0  0
    1.4432   -0.5821   -0.3637 C   0  0  0  0  0  0  0  0  0  0  0  0
   -0.7524    0.3723    0.3713 H   0  0  0  0  0  0  0  0  0  0  0  0
   -1.0483    3.3033    0.5612 H   0  0  0  0  0  0  0  0  0  0  0  0
   -1.7419    2.0851    1.6439 H   0  0  0  0  0  0  0  0  0  0  0  0
   -3.4476    3.1092    0.0663 H   0  0  0  0  0  0  0  0  0  0  0  0
   -2.5312    2.5431   -1.3075 H   0  0  0  0  0  0  0  0  0  0  0  0
   -2.7586    0.3168   -2.1246 H   0  0  0  0  0  0  0  0  0  0  0  0
   -3.9170   -1.8626   -2.0510 H   0  0  0  0  0  0  0  0  0  0  0  0
   -5.3152   -2.4670   -0.0931 H   0  0  0  0  0  0  0  0  0  0  0  0
   -5.5572   -0.8972    1.7908 H   0  0  0  0  0  0  0  0  0  0  0  0
   -6.4309    1.9551    1.3124 H   0  0  0  0  0  0  0  0  0  0  0  0
    1.1615    1.1666   -3.2723 H   0  0  0  0  0  0  0  0  0  0  0  0
    1.8265   -0.4409   -3.0077 H   0  0  0  0  0  0  0  0  0  0  0  0
    3.1258    2.1052   -1.8120 H   0  0  0  0  0  0  0  0  0  0  0  0
    3.4807    1.5269   -3.4436 H   0  0  0  0  0  0  0  0  0  0  0  0
    3.7264    0.7267    0.0330 H   0  0  0  0  0  0  0  0  0  0  0  0
    4.8976   -0.5339   -0.3151 H   0  0  0  0  0  0  0  0  0  0  0  0
    2.8444   -1.7787   -1.4821 H   0  0  0  0  0  0  0  0  0  0  0  0
    2.2071   -2.9127    0.6040 H   0  0  0  0  0  0  0  0  0  0  0  0
    2.8027   -2.2491    2.8145 H   0  0  0  0  0  0  0  0  0  0  0  0
    3.2672   -0.6423    2.2139 H   0  0  0  0  0  0  0  0  0  0  0  0
    5.5354   -1.4207    1.6752 H   0  0  0  0  0  0  0  0  0  0  0  0
    5.1898   -2.8078    2.7279 H   0  0  0  0  0  0  0  0  0  0  0  0
    4.2325   -4.0906    0.8680 H   0  0  0  0  0  0  0  0  0  0  0  0
    5.0405   -2.9365   -0.2143 H   0  0  0  0  0  0  0  0  0  0  0  0
    0.6794   -1.3628   -0.4750 H   0  0  0  0  0  0  0  0  0  0  0  0
    1.3520   -0.2016    0.6606 H   0  0  0  0  0  0  0  0  0  0  0  0
  1  2  2  0
  2  3  1  0
  3  4  1  0
  4  5  1  0
  5  6  1  0
  6  7  2  0
  7  8  1  0
  8  9  2  0
  9 10  1  0
 10 11  2  0
 11 12  1  0
 12 13  1  0
 13 14  1  0
 13 15  1  0
  2 16  1  0
 16 17  1  0
 17 18  1  0
 18 19  1  0
 19 20  1  0
 20 21  1  0
 21 22  1  0
 22 23  1  0
 23 24  1  0
 24 25  1  0
 21 26  1  0
 11  6  1  0
 26 16  1  0
 25 22  1  0
  3 27  1  0
  4 28  1  0
  4 29  1  0
  5 30  1  0
  5 31  1  0
  7 32  1  0
  8 33  1  0
  9 34  1  0
 10 35  1  0
 13 36  1  0
 17 37  1  0
 17 38  1  0
 18 39  1  0
 18 40  1  0
 20 41  1  0
 20 42  1  0
 21 43  1  0
 22 44  1  0
 23 45  1  0
 23 46  1  0
 24 47  1  0
 24 48  1  0
 25 49  1  0
 25 50  1  0
 26 51  1  0
 26 52  1  0
M  END
$$$$
OCNT-2317299
     RDKit          3D

 46 48  0  0  0  0  0  0  0  0999 V2000
    1.8342    0.2319   -1.1656 O   0  0  0  0  0  0  0  0  0  0  0  0
    1.0843   -0.7412   -1.1779 C   0  0  0  0  0  0  0  0  0  0  0  0
    1.5480   -2.0302   -1.1834 N   0  0  0  0  0  0  0  0  0  0  0  0
    2.9664   -2.3397   -1.0811 C   0  0  0  0  0  0  0  0  0  0  0  0
    3.3495   -2.8159    0.3279 C   0  0  0  0  0  0  0  0  0  0  0  0
    3.0027   -1.8823    1.3553 O   0  0  0  0  0  0  0  0  0  0  0  0
    3.7471   -0.7210    1.3370 C   0  0  0  0  0  0  0  0  0  0  0  0
    4.9948   -0.7650    0.8048 N   0  0  0  0  0  0  0  0  0  0  0  0
    5.6904    0.3984    0.8084 C   0  0  0  0  0  0  0  0  0  0  0  0
    5.2092    1.5873    1.3398 C   0  0  0  0  0  0  0  0  0  0  0  0
    6.1662    3.0134    1.3075 Cl  0  0  0  0  0  0  0  0  0  0  0  0
    3.9404    1.6004    1.9072 C   0  0  0  0  0  0  0  0  0  0  0  0
    3.1926    0.4251    1.9110 C   0  0  0  0  0  0  0  0  0  0  0  0
    1.6182    0.4367    2.6175 Cl  0  0  0  0  0  0  0  0  0  0  0  0
   -0.2909   -0.6226   -1.1839 N   0  0  0  0  0  0  0  0  0  0  0  0
   -1.2294   -1.7091   -0.8822 C   0  0  0  0  0  0  0  0  0  0  0  0
   -2.5497   -1.1961   -0.2731 C   0  0  0  0  0  0  0  0  0  0  0  0
   -3.2252   -0.2140   -1.1310 N   0  0  0  0  0  0  0  0  0  0  0  0
   -4.3801    0.4369   -0.5162 C   0  0  0  0  0  0  0  0  0  0  0  0
   -4.0562    1.3760    0.6106 C   0  0  0  0  0  0  0  0  0  0  0  0
   -3.8449    2.8553    0.3869 C   0  0  0  0  0  0  0  0  0  0  0  0
   -5.1010    2.3723    1.0552 C   0  0  0  0  0  0  0  0  0  0  0  0
   -2.3032    0.6905   -1.8347 C   0  0  0  0  0  0  0  0  0  0  0  0
   -0.8715    0.7178   -1.2722 C   0  0  0  0  0  0  0  0  0  0  0  0
    0.9348   -2.7368   -1.5557 H   0  0  0  0  0  0  0  0  0  0  0  0
    3.1728   -3.1354   -1.8038 H   0  0  0  0  0  0  0  0  0  0  0  0
    3.5529   -1.4659   -1.3777 H   0  0  0  0  0  0  0  0  0  0  0  0
    2.7836   -3.7281    0.5487 H   0  0  0  0  0  0  0  0  0  0  0  0
    4.4088   -3.0982    0.3833 H   0  0  0  0  0  0  0  0  0  0  0  0
    6.6784    0.3435    0.3564 H   0  0  0  0  0  0  0  0  0  0  0  0
    3.5350    2.5128    2.3333 H   0  0  0  0  0  0  0  0  0  0  0  0
   -1.4246   -2.2365   -1.8235 H   0  0  0  0  0  0  0  0  0  0  0  0
   -0.7634   -2.4173   -0.1883 H   0  0  0  0  0  0  0  0  0  0  0  0
   -3.2168   -2.0505   -0.1055 H   0  0  0  0  0  0  0  0  0  0  0  0
   -2.3147   -0.7678    0.7089 H   0  0  0  0  0  0  0  0  0  0  0  0
   -4.9445    0.9620   -1.2982 H   0  0  0  0  0  0  0  0  0  0  0  0
   -5.0646   -0.3327   -0.1386 H   0  0  0  0  0  0  0  0  0  0  0  0
   -3.5013    0.8976    1.4098 H   0  0  0  0  0  0  0  0  0  0  0  0
   -3.9406    3.2570   -0.6138 H   0  0  0  0  0  0  0  0  0  0  0  0
   -3.1058    3.3577    0.9994 H   0  0  0  0  0  0  0  0  0  0  0  0
   -5.2115    2.5485    2.1200 H   0  0  0  0  0  0  0  0  0  0  0  0
   -6.0295    2.4435    0.4968 H   0  0  0  0  0  0  0  0  0  0  0  0
   -2.2489    0.3311   -2.8709 H   0  0  0  0  0  0  0  0  0  0  0  0
   -2.6898    1.7121   -1.9017 H   0  0  0  0  0  0  0  0  0  0  0  0
   -0.2388    1.3512   -1.9047 H   0  0  0  0  0  0  0  0  0  0  0  0
   -0.8631    1.1469   -0.2627 H   0  0  0  0  0  0  0  0  0  0  0  0
  1  2  2  0
  2  3  1  0
  3  4  1  0
  4  5  1  0
  5  6  1  0
  6  7  1  0
  7  8  1  0
  8  9  2  0
  9 10  1  0
 10 11  1  0
 10 12  2  0
 12 13  1  0
 13 14  1  0
  2 15  1  0
 15 16  1  0
 16 17  1  0
 17 18  1  0
 18 19  1  0
 19 20  1  0
 20 21  1  0
 21 22  1  0
 18 23  1  0
 23 24  1  0
 13  7  2  0
 24 15  1  0
 22 20  1  0
  3 25  1  0
  4 26  1  0
  4 27  1  0
  5 28  1  0
  5 29  1  0
  9 30  1  0
 12 31  1  0
 16 32  1  0
 16 33  1  0
 17 34  1  0
 17 35  1  0
 19 36  1  0
 19 37  1  0
 20 38  1  0
 21 39  1  0
 21 40  1  0
 22 41  1  0
 22 42  1  0
 23 43  1  0
 23 44  1  0
 24 45  1  0
 24 46  1  0
M  END
$$$$
OCNT-2317300
     RDKit          3D

 47 51  0  0  0  0  0  0  0  0999 V2000
    8.3399   -0.4710    0.4467 C   0  0  0  0  0  0  0  0  0  0  0  0
    6.9474   -0.3711   -0.0351 C   0  0  0  0  0  0  0  0  0  0  0  0
    5.9025   -0.3487    0.7994 N   0  0  0  0  0  0  0  0  0  0  0  0
    4.8515   -0.2484   -0.0518 N   0  0  0  0  0  0  0  0  0  0  0  0
    3.4948   -0.1822    0.2573 C   0  0  0  0  0  0  0  0  0  0  0  0
    2.5790   -0.0787   -0.7248 C   0  0  0  0  0  0  0  0  0  0  0  0
    1.2418   -0.0274   -0.4067 N   0  0  0  0  0  0  0  0  0  0  0  0
    0.1685    0.2916   -1.2087 C   0  0  0  0  0  0  0  0  0  0  0  0
    0.2673    0.7734   -2.3360 O   0  0  0  0  0  0  0  0  0  0  0  0
   -1.0681    0.1129   -0.6154 N   0  0  0  0  0  0  0  0  0  0  0  0
   -2.2685    0.7201   -1.2032 C   0  0  0  0  0  0  0  0  0  0  0  0
   -3.3857    0.6037   -0.1424 C   0  0  0  0  0  0  0  0  0  0  0  0
   -4.7602    0.3271   -0.7763 C   0  0  0  0  0  0  0  0  0  0  0  0
   -5.7403    1.1761    0.0232 C   0  0  0  0  0  0  0  0  0  0  0  0
   -4.9379    2.4286    0.3273 C   0  0  0  0  0  0  0  0  0  0  0  0
   -3.5567    1.8945    0.6912 C   0  0  0  0  0  0  0  0  0  0  0  0
   -2.8329   -0.5197    0.7070 C   0  0  0  0  0  0  0  0  0  0  0  0
   -3.4886   -1.2594    1.6841 C   0  0  0  0  0  0  0  0  0  0  0  0
   -2.7817   -2.2584    2.3531 C   0  0  0  0  0  0  0  0  0  0  0  0
   -1.4417   -2.5145    2.0350 C   0  0  0  0  0  0  0  0  0  0  0  0
   -0.7851   -1.7654    1.0534 C   0  0  0  0  0  0  0  0  0  0  0  0
   -1.4834   -0.7535    0.4123 C   0  0  0  0  0  0  0  0  0  0  0  0
    3.0609   -0.0661   -2.1050 C   0  0  0  0  0  0  0  0  0  0  0  0
    4.3733   -0.1299   -2.4057 C   0  0  0  0  0  0  0  0  0  0  0  0
    5.3296   -0.2214   -1.3612 C   0  0  0  0  0  0  0  0  0  0  0  0
    6.6406   -0.2978   -1.3657 N   0  0  0  0  0  0  0  0  0  0  0  0
    8.4846   -1.3950    1.0150 H   0  0  0  0  0  0  0  0  0  0  0  0
    8.5847    0.3772    1.0934 H   0  0  0  0  0  0  0  0  0  0  0  0
    9.0440   -0.4737   -0.3912 H   0  0  0  0  0  0  0  0  0  0  0  0
    3.2618   -0.2142    1.3124 H   0  0  0  0  0  0  0  0  0  0  0  0
    1.0110   -0.0126    0.5774 H   0  0  0  0  0  0  0  0  0  0  0  0
   -2.5004    0.1436   -2.1089 H   0  0  0  0  0  0  0  0  0  0  0  0
   -2.0643    1.7524   -1.5091 H   0  0  0  0  0  0  0  0  0  0  0  0
   -5.0458   -0.7298   -0.7721 H   0  0  0  0  0  0  0  0  0  0  0  0
   -4.7784    0.6688   -1.8192 H   0  0  0  0  0  0  0  0  0  0  0  0
   -6.0238    0.6678    0.9516 H   0  0  0  0  0  0  0  0  0  0  0  0
   -6.6525    1.3943   -0.5396 H   0  0  0  0  0  0  0  0  0  0  0  0
   -4.8721    3.0625   -0.5649 H   0  0  0  0  0  0  0  0  0  0  0  0
   -5.3789    3.0207    1.1344 H   0  0  0  0  0  0  0  0  0  0  0  0
   -2.7831    2.6443    0.4942 H   0  0  0  0  0  0  0  0  0  0  0  0
   -3.5318    1.6858    1.7683 H   0  0  0  0  0  0  0  0  0  0  0  0
   -4.5294   -1.0726    1.9286 H   0  0  0  0  0  0  0  0  0  0  0  0
   -3.2775   -2.8525    3.1176 H   0  0  0  0  0  0  0  0  0  0  0  0
   -0.9128   -3.3159    2.5464 H   0  0  0  0  0  0  0  0  0  0  0  0
    0.2322   -2.0306    0.7919 H   0  0  0  0  0  0  0  0  0  0  0  0
    2.3459   -0.0144   -2.9198 H   0  0  0  0  0  0  0  0  0  0  0  0
    4.7203   -0.1207   -3.4327 H   0  0  0  0  0  0  0  0  0  0  0  0
  1  2  1  0
  2  3  2  0
  3  4  1  0
  4  5  1  0
  5  6  2  0
  6  7  1  0
  7  8  1  0
  8  9  2  0
  8 10  1  0
 10 11  1  0
 11 12  1  0
 12 13  1  0
 13 14  1  0
 14 15  1  0
 15 16  1  0
 12 17  1  0
 17 18  2  0
 18 19  1  0
 19 20  2  0
 20 21  1  0
 21 22  2  0
  6 23  1  0
 23 24  2  0
 24 25  1  0
 25 26  2  0
 26  2  1  0
 25  4  1  0
 22 10  1  0
 16 12  1  0
 22 17  1  0
  1 27  1  0
  1 28  1  0
  1 29  1  0
  5 30  1  0
  7 31  1  0
 11 32  1  0
 11 33  1  0
 13 34  1  0
 13 35  1  0
 14 36  1  0
 14 37  1  0
 15 38  1  0
 15 39  1  0
 16 40  1  0
 16 41  1  0
 18 42  1  0
 19 43  1  0
 20 44  1  0
 21 45  1  0
 23 46  1  0
 24 47  1  0
M  END
$$$$
OCNT-2317304
     RDKit          3D

 47 51  0  0  0  0  0  0  0  0999 V2000
    5.6983    2.6242   -1.3875 C   0  0  0  0  0  0  0  0  0  0  0  0
    5.8839    1.5746   -0.3025 C   0  0  0  0  0  0  0  0  0  0  0  0
    4.9366    0.4253   -0.4714 C   0  0  0  0  0  0  0  0  0  0  0  0
    3.6736    0.2702    0.0635 C   0  0  0  0  0  0  0  0  0  0  0  0
    3.0458   -0.9664   -0.3182 C   0  0  0  0  0  0  0  0  0  0  0  0
    1.7864   -1.5399   -0.0251 C   0  0  0  0  0  0  0  0  0  0  0  0
    0.8278   -0.8711    0.7541 N   0  0  0  0  0  0  0  0  0  0  0  0
    0.1832    0.2292    0.0246 C   0  0  0  0  0  0  0  0  0  0  0  0
   -1.0214   -0.2572   -0.7782 C   0  0  0  0  0  0  0  0  0  0  0  0
   -1.9864   -1.1122    0.0641 C   0  0  0  0  0  0  0  0  0  0  0  0
   -3.4132   -0.6273   -0.0135 C   0  0  0  0  0  0  0  0  0  0  0  0
   -4.4696   -1.3390   -0.5613 C   0  0  0  0  0  0  0  0  0  0  0  0
   -5.6071   -0.5846   -0.4519 N   0  0  0  0  0  0  0  0  0  0  0  0
   -5.3192    0.6019    0.1575 C   0  0  0  0  0  0  0  0  0  0  0  0
   -6.2306    1.5589    0.4133 N   0  0  0  0  0  0  0  0  0  0  0  0
   -5.6985    2.6404    1.0252 C   0  0  0  0  0  0  0  0  0  0  0  0
   -4.3630    2.7987    1.3703 C   0  0  0  0  0  0  0  0  0  0  0  0
   -3.4609    1.7731    1.0770 C   0  0  0  0  0  0  0  0  0  0  0  0
   -3.9579    0.6188    0.4447 C   0  0  0  0  0  0  0  0  0  0  0  0
   -1.5088   -1.2747    1.5139 C   0  0  0  0  0  0  0  0  0  0  0  0
   -0.0567   -1.7488    1.5404 C   0  0  0  0  0  0  0  0  0  0  0  0
    1.5193   -2.7709   -0.5287 N   0  0  0  0  0  0  0  0  0  0  0  0
    2.4406   -3.3820   -1.2901 C   0  0  0  0  0  0  0  0  0  0  0  0
    3.6443   -2.9250   -1.6410 N   0  0  0  0  0  0  0  0  0  0  0  0
    3.8939   -1.7122   -1.1193 C   0  0  0  0  0  0  0  0  0  0  0  0
    5.3769   -0.9295   -1.4213 S   0  0  0  0  0  0  0  0  0  0  0  0
    5.8995    2.2095   -2.3817 H   0  0  0  0  0  0  0  0  0  0  0  0
    6.3861    3.4608   -1.2253 H   0  0  0  0  0  0  0  0  0  0  0  0
    4.6760    3.0179   -1.3898 H   0  0  0  0  0  0  0  0  0  0  0  0
    5.7199    2.0372    0.6786 H   0  0  0  0  0  0  0  0  0  0  0  0
    6.9232    1.2219   -0.3097 H   0  0  0  0  0  0  0  0  0  0  0  0
    3.2024    1.0071    0.7045 H   0  0  0  0  0  0  0  0  0  0  0  0
   -0.1390    0.9823    0.7540 H   0  0  0  0  0  0  0  0  0  0  0  0
    0.8788    0.7536   -0.6416 H   0  0  0  0  0  0  0  0  0  0  0  0
   -0.6685   -0.8625   -1.6242 H   0  0  0  0  0  0  0  0  0  0  0  0
   -1.5243    0.6086   -1.2263 H   0  0  0  0  0  0  0  0  0  0  0  0
   -1.9733   -2.1184   -0.3824 H   0  0  0  0  0  0  0  0  0  0  0  0
   -4.5020   -2.3177   -1.0222 H   0  0  0  0  0  0  0  0  0  0  0  0
   -6.5334   -0.8412   -0.7579 H   0  0  0  0  0  0  0  0  0  0  0  0
   -6.4154    3.4282    1.2473 H   0  0  0  0  0  0  0  0  0  0  0  0
   -4.0282    3.7063    1.8622 H   0  0  0  0  0  0  0  0  0  0  0  0
   -2.4128    1.8710    1.3366 H   0  0  0  0  0  0  0  0  0  0  0  0
   -2.1416   -1.9989    2.0434 H   0  0  0  0  0  0  0  0  0  0  0  0
   -1.5983   -0.3318    2.0688 H   0  0  0  0  0  0  0  0  0  0  0  0
   -0.0359   -2.7961    1.2149 H   0  0  0  0  0  0  0  0  0  0  0  0
    0.2987   -1.7467    2.5783 H   0  0  0  0  0  0  0  0  0  0  0  0
    2.1708   -4.3654   -1.6660 H   0  0  0  0  0  0  0  0  0  0  0  0
  1  2  1  0
  2  3  1  0
  3  4  2  0
  4  5  1  0
  5  6  2  0
  6  7  1  0
  7  8  1  0
  8  9  1  0
  9 10  1  0
 10 11  1  0
 11 12  2  0
 12 13  1  0
 13 14  1  0
 14 15  1  0
 15 16  2  0
 16 17  1  0
 17 18  2  0
 18 19  1  0
 10 20  1  0
 20 21  1  0
  6 22  1  0
 22 23  2  0
 23 24  1  0
 24 25  2  0
 25 26  1  0
 26  3  1  0
 25  5  1  0
 21  7  1  0
 19 11  1  0
 19 14  2  0
  1 27  1  0
  1 28  1  0
  1 29  1  0
  2 30  1  0
  2 31  1  0
  4 32  1  0
  8 33  1  0
  8 34  1  0
  9 35  1  0
  9 36  1  0
 10 37  1  0
 12 38  1  0
 13 39  1  0
 16 40  1  0
 17 41  1  0
 18 42  1  0
 20 43  1  0
 20 44  1  0
 21 45  1  0
 21 46  1  0
 23 47  1  0
M  END
$$$$
