OCNT-2308638
     RDKit          3D

 38 41  0  0  0  0  0  0  0  0999 V2000
   -1.6491   -2.2718    0.6711 O   0  0  0  0  0  0  0  0  0  0  0  0
   -1.9156   -1.1149    0.3587 C   0  0  0  0  0  0  0  0  0  0  0  0
   -0.9998   -0.1016    0.1362 N   0  0  0  0  0  0  0  0  0  0  0  0
    0.4062   -0.1792    0.2205 C   0  0  0  0  0  0  0  0  0  0  0  0
    1.1282    0.9863   -0.0558 C   0  0  0  0  0  0  0  0  0  0  0  0
    2.5277    0.9952    0.0049 C   0  0  0  0  0  0  0  0  0  0  0  0
    3.2464   -0.1614    0.3426 C   0  0  0  0  0  0  0  0  0  0  0  0
    4.7117   -0.1563    0.4042 C   0  0  0  0  0  0  0  0  0  0  0  0
    5.5012   -1.1211   -0.2012 C   0  0  0  0  0  0  0  0  0  0  0  0
    6.8522   -1.1437   -0.1649 N   0  0  0  0  0  0  0  0  0  0  0  0
    7.4304   -0.1431    0.5137 C   0  0  0  0  0  0  0  0  0  0  0  0
    6.7901    0.8523    1.1429 N   0  0  0  0  0  0  0  0  0  0  0  0
    5.4410    0.8147    1.0721 C   0  0  0  0  0  0  0  0  0  0  0  0
    2.5104   -1.3238    0.6178 C   0  0  0  0  0  0  0  0  0  0  0  0
    1.1095   -1.3333    0.5585 C   0  0  0  0  0  0  0  0  0  0  0  0
   -3.3707   -0.6956    0.1841 C   0  0  2  0  0  0  0  0  0  0  0  0
   -3.6955   -0.1943   -1.2387 C   0  0  0  0  0  0  0  0  0  0  0  0
   -4.7248    0.8811   -1.0630 C   0  0  2  0  0  0  0  0  0  0  0  0
   -4.7896    1.2593    0.3839 C   0  0  2  0  0  0  0  0  0  0  0  0
   -3.8024    0.4294    1.1479 C   0  0  0  0  0  0  0  0  0  0  0  0
   -5.9692    0.6479   -0.2835 C   0  0  0  0  0  0  0  0  0  0  0  0
   -6.3832   -0.6238    0.0304 F   0  0  0  0  0  0  0  0  0  0  0  0
   -7.0904    1.4032   -0.5311 F   0  0  0  0  0  0  0  0  0  0  0  0
   -1.3698    0.8047   -0.1193 H   0  0  0  0  0  0  0  0  0  0  0  0
    0.6187    1.9075   -0.3271 H   0  0  0  0  0  0  0  0  0  0  0  0
    3.0514    1.9199   -0.2322 H   0  0  0  0  0  0  0  0  0  0  0  0
    5.0574   -1.9361   -0.7683 H   0  0  0  0  0  0  0  0  0  0  0  0
    8.5139   -0.1383    0.5575 H   0  0  0  0  0  0  0  0  0  0  0  0
    4.9454    1.6233    1.6038 H   0  0  0  0  0  0  0  0  0  0  0  0
    3.0170   -2.2460    0.8997 H   0  0  0  0  0  0  0  0  0  0  0  0
    0.6034   -2.2662    0.7876 H   0  0  0  0  0  0  0  0  0  0  0  0
   -3.9931   -1.5782    0.3870 H   0  0  0  0  0  0  0  0  0  0  0  0
   -4.0846   -1.0100   -1.8578 H   0  0  0  0  0  0  0  0  0  0  0  0
   -2.8187    0.2138   -1.7516 H   0  0  0  0  0  0  0  0  0  0  0  0
   -4.7354    1.6380   -1.8317 H   0  0  0  0  0  0  0  0  0  0  0  0
   -4.8480    2.2947    0.6811 H   0  0  0  0  0  0  0  0  0  0  0  0
   -4.2597    0.0118    2.0515 H   0  0  0  0  0  0  0  0  0  0  0  0
   -2.9630    1.0553    1.4675 H   0  0  0  0  0  0  0  0  0  0  0  0
  1  2  2  0
  2  3  1  0
  3  4  1  0
  4  5  1  0
  5  6  2  0
  6  7  1  0
  7  8  1  0
  8  9  2  0
  9 10  1  0
 10 11  2  0
 11 12  1  0
 12 13  2  0
  7 14  2  0
 14 15  1  0
  2 16  1  0
 16 17  1  0
 17 18  1  0
 18 19  1  0
 19 20  1  0
 19 21  1  0
 21 22  1  0
 21 23  1  0
 15  4  2  0
 20 16  1  0
 13  8  1  0
 21 18  1  0
  3 24  1  0
  5 25  1  0
  6 26  1  0
  9 27  1  0
 11 28  1  0
 13 29  1  0
 14 30  1  0
 15 31  1  0
 16 32  1  1
 17 33  1  0
 17 34  1  0
 18 35  1  6
 19 36  1  6
 20 37  1  0
 20 38  1  0
M  END
$$$$
OCNT-2308640
     RDKit          3D

 51 54  0  0  0  0  0  0  0  0999 V2000
    0.4102    2.3563    0.1593 O   0  0  0  0  0  0  0  0  0  0  0  0
    0.5963    1.1418    0.1289 C   0  0  0  0  0  0  0  0  0  0  0  0
   -0.5608    0.2832   -0.2133 C   0  0  0  0  0  0  0  0  0  0  0  0
   -1.3117    0.5901   -1.3517 C   0  0  0  0  0  0  0  0  0  0  0  0
   -2.4273   -0.1841   -1.6785 C   0  0  0  0  0  0  0  0  0  0  0  0
   -2.8097   -1.2466   -0.8549 C   0  0  0  0  0  0  0  0  0  0  0  0
   -3.9644   -1.9991   -1.2119 N   0  0  0  0  0  0  0  0  0  0  0  0
   -5.2356   -2.1772   -0.1137 S   0  0  0  0  0  0  0  0  0  0  0  0
   -4.7417   -2.8948    1.0436 O   0  0  0  0  0  0  0  0  0  0  0  0
   -6.3745   -2.6778   -0.8511 O   0  0  0  0  0  0  0  0  0  0  0  0
   -5.6037   -0.5186    0.3925 C   0  0  0  0  0  0  0  0  0  0  0  0
   -5.4492   -0.1922    1.7494 C   0  0  0  0  0  0  0  0  0  0  0  0
   -5.7287    1.0999    2.1854 C   0  0  0  0  0  0  0  0  0  0  0  0
   -5.5347    1.5029    3.8452 Cl  0  0  0  0  0  0  0  0  0  0  0  0
   -6.1648    2.0681    1.2852 C   0  0  0  0  0  0  0  0  0  0  0  0
   -6.3224    1.7405   -0.0638 C   0  0  0  0  0  0  0  0  0  0  0  0
   -6.0440    0.4456   -0.5188 C   0  0  0  0  0  0  0  0  0  0  0  0
   -6.2433    0.1590   -2.2095 Cl  0  0  0  0  0  0  0  0  0  0  0  0
   -2.0585   -1.5499    0.2826 C   0  0  0  0  0  0  0  0  0  0  0  0
   -0.9422   -0.7773    0.6141 C   0  0  0  0  0  0  0  0  0  0  0  0
    1.8274    0.5471    0.4030 N   0  0  0  0  0  0  0  0  0  0  0  0
    2.9099    1.4168    0.8581 C   0  0  0  0  0  0  0  0  0  0  0  0
    3.9969    0.6341    1.5839 C   0  0  0  0  0  0  0  0  0  0  0  0
    4.5983   -0.4780    0.7037 C   0  0  0  0  0  0  0  0  0  0  0  0
    5.9426   -0.1049    0.1484 C   0  0  0  0  0  0  0  0  0  0  0  0
    6.2844    0.9619   -0.6583 C   0  0  0  0  0  0  0  0  0  0  0  0
    7.6255    0.8607   -0.8881 N   0  0  0  0  0  0  0  0  0  0  0  0
    8.1885   -0.1997   -0.2900 N   0  0  0  0  0  0  0  0  0  0  0  0
    7.1689   -0.7854    0.3401 C   0  0  0  0  0  0  0  0  0  0  0  0
    3.6377   -0.9304   -0.4109 C   0  0  0  0  0  0  0  0  0  0  0  0
    2.1817   -0.8247    0.0274 C   0  0  0  0  0  0  0  0  0  0  0  0
   -1.0288    1.4327   -1.9794 H   0  0  0  0  0  0  0  0  0  0  0  0
   -2.9960    0.0648   -2.5706 H   0  0  0  0  0  0  0  0  0  0  0  0
   -4.3094   -1.9240   -2.1695 H   0  0  0  0  0  0  0  0  0  0  0  0
   -5.1122   -0.9383    2.4666 H   0  0  0  0  0  0  0  0  0  0  0  0
   -6.3826    3.0782    1.6246 H   0  0  0  0  0  0  0  0  0  0  0  0
   -6.6623    2.5073   -0.7577 H   0  0  0  0  0  0  0  0  0  0  0  0
   -2.3240   -2.3888    0.9215 H   0  0  0  0  0  0  0  0  0  0  0  0
   -0.3848   -0.9995    1.5204 H   0  0  0  0  0  0  0  0  0  0  0  0
    2.4994    2.1856    1.5228 H   0  0  0  0  0  0  0  0  0  0  0  0
    3.3156    1.9304   -0.0214 H   0  0  0  0  0  0  0  0  0  0  0  0
    3.5449    0.1666    2.4696 H   0  0  0  0  0  0  0  0  0  0  0  0
    4.7682    1.3177    1.9580 H   0  0  0  0  0  0  0  0  0  0  0  0
    4.7574   -1.3411    1.3670 H   0  0  0  0  0  0  0  0  0  0  0  0
    5.7046    1.7690   -1.0831 H   0  0  0  0  0  0  0  0  0  0  0  0
    8.2177    1.4737   -1.4390 H   0  0  0  0  0  0  0  0  0  0  0  0
    7.3573   -1.6843    0.9138 H   0  0  0  0  0  0  0  0  0  0  0  0
    3.8684   -1.9631   -0.7002 H   0  0  0  0  0  0  0  0  0  0  0  0
    3.7756   -0.3207   -1.3138 H   0  0  0  0  0  0  0  0  0  0  0  0
    2.0050   -1.4601    0.9027 H   0  0  0  0  0  0  0  0  0  0  0  0
    1.5352   -1.1735   -0.7835 H   0  0  0  0  0  0  0  0  0  0  0  0
  1  2  2  0
  2  3  1  0
  3  4  1  0
  4  5  2  0
  5  6  1  0
  6  7  1  0
  7  8  1  0
  8  9  2  0
  8 10  2  0
  8 11  1  0
 11 12  1  0
 12 13  2  0
 13 14  1  0
 13 15  1  0
 15 16  2  0
 16 17  1  0
 17 18  1  0
  6 19  2  0
 19 20  1  0
  2 21  1  0
 21 22  1  0
 22 23  1  0
 23 24  1  0
 24 25  1  0
 25 26  2  0
 26 27  1  0
 27 28  1  0
 28 29  2  0
 24 30  1  0
 30 31  1  0
 20  3  2  0
 31 21  1  0
 17 11  2  0
 29 25  1  0
  4 32  1  0
  5 33  1  0
  7 34  1  0
 12 35  1  0
 15 36  1  0
 16 37  1  0
 19 38  1  0
 20 39  1  0
 22 40  1  0
 22 41  1  0
 23 42  1  0
 23 43  1  0
 24 44  1  0
 26 45  1  0
 27 46  1  0
 29 47  1  0
 30 48  1  0
 30 49  1  0
 31 50  1  0
 31 51  1  0
M  END
$$$$
OCNT-2308641
     RDKit          3D

 48 51  0  0  0  0  0  0  0  0999 V2000
   -4.3601   -0.9974    2.9842 C   0  0  0  0  0  0  0  0  0  0  0  0
   -3.4282   -1.5508    1.9233 C   0  0  0  0  0  0  0  0  0  0  0  0
   -3.3501   -0.6972    0.7664 N   0  0  0  0  0  0  0  0  0  0  0  0
   -2.3430    0.2573    0.5260 C   0  0  0  0  0  0  0  0  0  0  0  0
   -1.3624    0.5004    1.2175 O   0  0  0  0  0  0  0  0  0  0  0  0
   -2.6523    0.8589   -0.7082 N   0  0  0  0  0  0  0  0  0  0  0  0
   -1.8081    1.8112   -1.3704 C   0  0  0  0  0  0  0  0  0  0  0  0
   -0.6878    1.0441   -2.0650 C   0  0  0  0  0  0  0  0  0  0  0  0
   -0.7773    0.6255   -3.2167 O   0  0  0  0  0  0  0  0  0  0  0  0
    0.3928    0.7871   -1.2414 N   0  0  0  0  0  0  0  0  0  0  0  0
    1.4010   -0.1543   -1.6447 C   0  0  0  0  0  0  0  0  0  0  0  0
    2.6719    0.0314   -0.8727 C   0  0  0  0  0  0  0  0  0  0  0  0
    2.7636   -0.2820    0.4832 C   0  0  0  0  0  0  0  0  0  0  0  0
    3.9731   -0.1146    1.1582 C   0  0  0  0  0  0  0  0  0  0  0  0
    5.0707    0.3646    0.4524 C   0  0  0  0  0  0  0  0  0  0  0  0
    6.3343    0.5062    1.0886 N   0  0  0  0  0  0  0  0  0  0  0  0
    6.6830    0.2573    2.3970 C   0  0  0  0  0  0  0  0  0  0  0  0
    8.0311    0.5143    2.4855 C   0  0  0  0  0  0  0  0  0  0  0  0
    8.5263    0.9240    1.2819 N   0  0  0  0  0  0  0  0  0  0  0  0
    7.4912    0.9218    0.4686 C   0  0  0  0  0  0  0  0  0  0  0  0
    4.9999    0.6921   -0.8611 N   0  0  0  0  0  0  0  0  0  0  0  0
    3.8133    0.5235   -1.4875 C   0  0  0  0  0  0  0  0  0  0  0  0
   -3.7992    0.2570   -1.2369 C   0  0  0  0  0  0  0  0  0  0  0  0
   -4.4522    0.4700   -2.4302 C   0  0  0  0  0  0  0  0  0  0  0  0
   -5.5946   -0.3018   -2.6804 C   0  0  0  0  0  0  0  0  0  0  0  0
   -6.0481   -1.2546   -1.7467 C   0  0  0  0  0  0  0  0  0  0  0  0
   -5.3672   -1.4632   -0.5459 C   0  0  0  0  0  0  0  0  0  0  0  0
   -4.2438   -0.6951   -0.3150 C   0  0  0  0  0  0  0  0  0  0  0  0
   -4.3917   -1.6648    3.8499 H   0  0  0  0  0  0  0  0  0  0  0  0
   -5.3764   -0.8901    2.5954 H   0  0  0  0  0  0  0  0  0  0  0  0
   -4.0257   -0.0138    3.3261 H   0  0  0  0  0  0  0  0  0  0  0  0
   -2.4277   -1.6450    2.3537 H   0  0  0  0  0  0  0  0  0  0  0  0
   -3.7453   -2.5497    1.6112 H   0  0  0  0  0  0  0  0  0  0  0  0
   -2.3611    2.4042   -2.0951 H   0  0  0  0  0  0  0  0  0  0  0  0
   -1.3820    2.4825   -0.6250 H   0  0  0  0  0  0  0  0  0  0  0  0
    0.2594    0.9580   -0.2517 H   0  0  0  0  0  0  0  0  0  0  0  0
    1.5780   -0.0671   -2.7166 H   0  0  0  0  0  0  0  0  0  0  0  0
    1.0032   -1.1565   -1.4708 H   0  0  0  0  0  0  0  0  0  0  0  0
    1.8976   -0.6646    1.0183 H   0  0  0  0  0  0  0  0  0  0  0  0
    4.0247   -0.3795    2.2051 H   0  0  0  0  0  0  0  0  0  0  0  0
    5.9810   -0.0678    3.1449 H   0  0  0  0  0  0  0  0  0  0  0  0
    8.6688    0.4285    3.3578 H   0  0  0  0  0  0  0  0  0  0  0  0
    7.5090    1.2045   -0.5760 H   0  0  0  0  0  0  0  0  0  0  0  0
    3.8115    0.8034   -2.5373 H   0  0  0  0  0  0  0  0  0  0  0  0
   -4.1103    1.1943   -3.1614 H   0  0  0  0  0  0  0  0  0  0  0  0
   -6.1442   -0.1699   -3.6147 H   0  0  0  0  0  0  0  0  0  0  0  0
   -6.9384   -1.8379   -1.9741 H   0  0  0  0  0  0  0  0  0  0  0  0
   -5.7085   -2.2046    0.1627 H   0  0  0  0  0  0  0  0  0  0  0  0
  1  2  1  0
  2  3  1  0
  3  4  1  0
  4  5  2  0
  4  6  1  0
  6  7  1  0
  7  8  1  0
  8  9  2  0
  8 10  1  0
 10 11  1  0
 11 12  1  0
 12 13  2  0
 13 14  1  0
 14 15  2  0
 15 16  1  0
 16 17  1  0
 17 18  2  0
 18 19  1  0
 19 20  2  0
 15 21  1  0
 21 22  2  0
  6 23  1  0
 23 24  2  0
 24 25  1  0
 25 26  2  0
 26 27  1  0
 27 28  2  0
 28  3  1  0
 22 12  1  0
 28 23  1  0
 20 16  1  0
  1 29  1  0
  1 30  1  0
  1 31  1  0
  2 32  1  0
  2 33  1  0
  7 34  1  0
  7 35  1  0
 10 36  1  0
 11 37  1  0
 11 38  1  0
 13 39  1  0
 14 40  1  0
 17 41  1  0
 18 42  1  0
 20 43  1  0
 22 44  1  0
 24 45  1  0
 25 46  1  0
 26 47  1  0
 27 48  1  0
M  END
$$$$
OCNT-2308647
     RDKit          3D

 56 58  0  0  0  0  0  0  0  0999 V2000
   -3.3313   -1.3611    2.5407 C   0  0  0  0  0  0  0  0  0  0  0  0
   -3.3039   -0.6501    1.2364 C   0  0  0  0  0  0  0  0  0  0  0  0
   -4.0352    0.4551    1.0648 N   0  0  0  0  0  0  0  0  0  0  0  0
   -3.7791    0.8353   -0.2030 N   0  0  0  0  0  0  0  0  0  0  0  0
   -4.4022    2.0539   -0.7193 C   0  0  0  0  0  0  0  0  0  0  0  0
   -3.7636    3.2959   -0.1015 C   0  0  0  0  0  0  0  0  0  0  0  0
   -5.9198    2.0484   -0.5239 C   0  0  0  0  0  0  0  0  0  0  0  0
   -2.8993    0.0007   -0.8501 C   0  0  0  0  0  0  0  0  0  0  0  0
   -2.4452    0.2091   -2.2497 C   0  0  0  0  0  0  0  0  0  0  0  0
   -2.5609   -0.9838    0.0691 C   0  0  0  0  0  0  0  0  0  0  0  0
   -1.6357   -2.1470   -0.1082 C   0  0  0  0  0  0  0  0  0  0  0  0
   -0.2546   -1.6952   -0.3295 N   0  0  0  0  0  0  0  0  0  0  0  0
    0.3415   -1.0443    0.8333 C   0  0  0  0  0  0  0  0  0  0  0  0
    1.6580   -0.3643    0.4359 C   0  0  0  0  0  0  0  0  0  0  0  0
    2.4966   -1.1766   -0.5760 C   0  0  0  0  0  0  0  0  0  0  0  0
    4.0083   -1.0004   -0.3377 C   0  0  0  0  0  0  0  0  0  0  0  0
    4.7423   -1.8462   -1.2273 O   0  0  0  0  0  0  0  0  0  0  0  0
    4.4748    0.3964   -0.6329 C   0  0  0  0  0  0  0  0  0  0  0  0
    4.4786    0.9498   -1.8336 N   0  0  0  0  0  0  0  0  0  0  0  0
    4.9901    2.2091   -1.6644 C   0  0  0  0  0  0  0  0  0  0  0  0
    5.3196    2.4270   -0.3509 C   0  0  0  0  0  0  0  0  0  0  0  0
    5.0080    1.2612    0.2938 N   0  0  0  0  0  0  0  0  0  0  0  0
    5.2370    0.9982    1.6934 C   0  0  0  0  0  0  0  0  0  0  0  0
    2.0749   -2.6508   -0.5321 C   0  0  0  0  0  0  0  0  0  0  0  0
    0.5740   -2.8109   -0.8108 C   0  0  0  0  0  0  0  0  0  0  0  0
   -3.7203   -2.3770    2.4130 H   0  0  0  0  0  0  0  0  0  0  0  0
   -3.9678   -0.8466    3.2697 H   0  0  0  0  0  0  0  0  0  0  0  0
   -2.3213   -1.4258    2.9628 H   0  0  0  0  0  0  0  0  0  0  0  0
   -4.2135    2.0772   -1.7974 H   0  0  0  0  0  0  0  0  0  0  0  0
   -3.9250    3.3388    0.9809 H   0  0  0  0  0  0  0  0  0  0  0  0
   -2.6827    3.3027   -0.2765 H   0  0  0  0  0  0  0  0  0  0  0  0
   -4.1827    4.2062   -0.5417 H   0  0  0  0  0  0  0  0  0  0  0  0
   -6.3712    2.9288   -0.9950 H   0  0  0  0  0  0  0  0  0  0  0  0
   -6.3657    1.1548   -0.9768 H   0  0  0  0  0  0  0  0  0  0  0  0
   -6.1966    2.0570    0.5370 H   0  0  0  0  0  0  0  0  0  0  0  0
   -1.7502   -0.5723   -2.5696 H   0  0  0  0  0  0  0  0  0  0  0  0
   -3.2969    0.1899   -2.9387 H   0  0  0  0  0  0  0  0  0  0  0  0
   -1.9332    1.1717   -2.3508 H   0  0  0  0  0  0  0  0  0  0  0  0
   -1.6918   -2.8292    0.7492 H   0  0  0  0  0  0  0  0  0  0  0  0
   -1.9854   -2.7096   -0.9843 H   0  0  0  0  0  0  0  0  0  0  0  0
   -0.3080   -0.2664    1.2505 H   0  0  0  0  0  0  0  0  0  0  0  0
    0.5154   -1.7709    1.6386 H   0  0  0  0  0  0  0  0  0  0  0  0
    2.2242   -0.1756    1.3555 H   0  0  0  0  0  0  0  0  0  0  0  0
    1.4436    0.6194   -0.0030 H   0  0  0  0  0  0  0  0  0  0  0  0
    2.2598   -0.8147   -1.5883 H   0  0  0  0  0  0  0  0  0  0  0  0
    4.2673   -1.3122    0.6792 H   0  0  0  0  0  0  0  0  0  0  0  0
    4.7737   -1.3643   -2.0801 H   0  0  0  0  0  0  0  0  0  0  0  0
    5.0970    2.8901   -2.4979 H   0  0  0  0  0  0  0  0  0  0  0  0
    5.7487    3.2802    0.1535 H   0  0  0  0  0  0  0  0  0  0  0  0
    5.6926    1.8785    2.1595 H   0  0  0  0  0  0  0  0  0  0  0  0
    5.9149    0.1441    1.7814 H   0  0  0  0  0  0  0  0  0  0  0  0
    4.2773    0.7870    2.1712 H   0  0  0  0  0  0  0  0  0  0  0  0
    2.3107   -3.0674    0.4561 H   0  0  0  0  0  0  0  0  0  0  0  0
    2.6330   -3.2436   -1.2672 H   0  0  0  0  0  0  0  0  0  0  0  0
    0.4227   -2.8974   -1.8915 H   0  0  0  0  0  0  0  0  0  0  0  0
    0.2585   -3.7625   -0.3687 H   0  0  0  0  0  0  0  0  0  0  0  0
  1  2  1  0
  2  3  2  0
  3  4  1  0
  4  5  1  0
  5  6  1  0
  5  7  1  0
  4  8  1  0
  8  9  1  0
  8 10  2  0
 10 11  1  0
 11 12  1  0
 12 13  1  0
 13 14  1  0
 14 15  1  0
 15 16  1  0
 16 17  1  0
 16 18  1  0
 18 19  2  0
 19 20  1  0
 20 21  2  0
 21 22  1  0
 22 23  1  0
 15 24  1  0
 24 25  1  0
 10  2  1  0
 25 12  1  0
 22 18  1  0
  1 26  1  0
  1 27  1  0
  1 28  1  0
  5 29  1  0
  6 30  1  0
  6 31  1  0
  6 32  1  0
  7 33  1  0
  7 34  1  0
  7 35  1  0
  9 36  1  0
  9 37  1  0
  9 38  1  0
 11 39  1  0
 11 40  1  0
 13 41  1  0
 13 42  1  0
 14 43  1  0
 14 44  1  0
 15 45  1  0
 16 46  1  0
 17 47  1  0
 20 48  1  0
 21 49  1  0
 23 50  1  0
 23 51  1  0
 23 52  1  0
 24 53  1  0
 24 54  1  0
 25 55  1  0
 25 56  1  0
M  END
$$$$
OCNT-2308660
     RDKit          3D

 36 38  0  0  0  0  0  0  0  0999 V2000
    0.6846   -0.3445   -1.9792 O   0  0  0  0  0  0  0  0  0  0  0  0
    0.5965   -0.1699   -0.7693 C   0  0  0  0  0  0  0  0  0  0  0  0
    1.6664   -0.1649    0.0974 N   0  0  0  0  0  0  0  0  0  0  0  0
    3.0350   -0.1531   -0.3727 C   0  0  0  0  0  0  0  0  0  0  0  0
    3.9978   -0.7185    0.6708 C   0  0  0  0  0  0  0  0  0  0  0  0
    5.4158   -0.6717    0.2213 C   0  0  0  0  0  0  0  0  0  0  0  0
    6.1124   -1.6125   -0.5074 C   0  0  0  0  0  0  0  0  0  0  0  0
    7.3727   -1.1168   -0.6722 N   0  0  0  0  0  0  0  0  0  0  0  0
    7.5506    0.0839   -0.0994 N   0  0  0  0  0  0  0  0  0  0  0  0
    6.3628    0.3540    0.4448 C   0  0  0  0  0  0  0  0  0  0  0  0
   -0.6745    0.0744   -0.0866 C   0  0  0  0  0  0  0  0  0  0  0  0
   -1.9292    0.1000   -0.6609 C   0  0  0  0  0  0  0  0  0  0  0  0
   -2.8233    0.3687    0.3509 N   0  0  0  0  0  0  0  0  0  0  0  0
   -4.2412    0.4900    0.2431 C   0  0  0  0  0  0  0  0  0  0  0  0
   -5.0237    0.7694    1.3732 C   0  0  0  0  0  0  0  0  0  0  0  0
   -6.4143    0.8870    1.2604 C   0  0  0  0  0  0  0  0  0  0  0  0
   -7.0411    0.7280    0.0234 C   0  0  0  0  0  0  0  0  0  0  0  0
   -8.7592    0.8874   -0.0357 Cl  0  0  0  0  0  0  0  0  0  0  0  0
   -6.2706    0.4495   -1.1079 C   0  0  0  0  0  0  0  0  0  0  0  0
   -6.9727    0.2391   -2.6736 Cl  0  0  0  0  0  0  0  0  0  0  0  0
   -4.8773    0.3311   -0.9988 C   0  0  0  0  0  0  0  0  0  0  0  0
   -2.0559    0.4964    1.4915 C   0  0  0  0  0  0  0  0  0  0  0  0
   -0.7705    0.3294    1.2675 N   0  0  0  0  0  0  0  0  0  0  0  0
    1.4444    0.1541    1.0374 H   0  0  0  0  0  0  0  0  0  0  0  0
    3.2846    0.8882   -0.6082 H   0  0  0  0  0  0  0  0  0  0  0  0
    3.1014   -0.7215   -1.3079 H   0  0  0  0  0  0  0  0  0  0  0  0
    3.8943   -0.1590    1.6094 H   0  0  0  0  0  0  0  0  0  0  0  0
    3.7199   -1.7544    0.9040 H   0  0  0  0  0  0  0  0  0  0  0  0
    5.8279   -2.5713   -0.9174 H   0  0  0  0  0  0  0  0  0  0  0  0
    8.1560   -1.5387   -1.1603 H   0  0  0  0  0  0  0  0  0  0  0  0
    6.2338    1.2860    0.9809 H   0  0  0  0  0  0  0  0  0  0  0  0
   -2.2132   -0.0533   -1.6913 H   0  0  0  0  0  0  0  0  0  0  0  0
   -4.5956    0.9038    2.3627 H   0  0  0  0  0  0  0  0  0  0  0  0
   -7.0052    1.1041    2.1482 H   0  0  0  0  0  0  0  0  0  0  0  0
   -4.3171    0.1138   -1.9040 H   0  0  0  0  0  0  0  0  0  0  0  0
   -2.4724    0.7117    2.4653 H   0  0  0  0  0  0  0  0  0  0  0  0
  1  2  2  0
  2  3  1  0
  3  4  1  0
  4  5  1  0
  5  6  1  0
  6  7  2  0
  7  8  1  0
  8  9  1  0
  9 10  2  0
  2 11  1  0
 11 12  2  0
 12 13  1  0
 13 14  1  0
 14 15  1  0
 15 16  2  0
 16 17  1  0
 17 18  1  0
 17 19  2  0
 19 20  1  0
 19 21  1  0
 13 22  1  0
 22 23  2  0
 10  6  1  0
 23 11  1  0
 21 14  2  0
  3 24  1  0
  4 25  1  0
  4 26  1  0
  5 27  1  0
  5 28  1  0
  7 29  1  0
  8 30  1  0
 10 31  1  0
 12 32  1  0
 15 33  1  0
 16 34  1  0
 21 35  1  0
 22 36  1  0
M  END
$$$$
OCNT-2308661
     RDKit          3D

 38 41  0  0  0  0  0  0  0  0999 V2000
    7.1454    0.8594   -2.0160 C   0  0  0  0  0  0  0  0  0  0  0  0
    6.5854   -0.2291   -1.2945 O   0  0  0  0  0  0  0  0  0  0  0  0
    5.3049   -0.0949   -0.8267 C   0  0  0  0  0  0  0  0  0  0  0  0
    4.5101    1.0400   -1.0059 C   0  0  0  0  0  0  0  0  0  0  0  0
    3.2068    1.0875   -0.4900 C   0  0  0  0  0  0  0  0  0  0  0  0
    2.6701    0.0027    0.2155 C   0  0  0  0  0  0  0  0  0  0  0  0
    1.3231    0.0253    0.7597 C   0  0  0  0  0  0  0  0  0  0  0  0
    0.3949    1.0400    0.6669 C   0  0  0  0  0  0  0  0  0  0  0  0
   -0.6916    0.5539    1.3351 N   0  0  0  0  0  0  0  0  0  0  0  0
   -1.9646    1.2047    1.5525 C   0  0  0  0  0  0  0  0  0  0  0  0
   -3.1471    0.4352    0.9948 C   0  0  0  0  0  0  0  0  0  0  0  0
   -4.2371    0.4064    1.7167 N   0  0  0  0  0  0  0  0  0  0  0  0
   -5.3071   -0.2660    1.1970 C   0  0  0  0  0  0  0  0  0  0  0  0
   -6.5690   -0.5118    1.6864 C   0  0  0  0  0  0  0  0  0  0  0  0
   -7.2142   -1.2524    0.6820 C   0  0  0  0  0  0  0  0  0  0  0  0
   -6.4382   -1.4710   -0.3824 N   0  0  0  0  0  0  0  0  0  0  0  0
   -5.2613   -0.8711   -0.0563 N   0  0  0  0  0  0  0  0  0  0  0  0
   -4.1021   -0.8134   -0.8373 C   0  0  0  0  0  0  0  0  0  0  0  0
   -4.0968   -1.4142   -2.0858 O   0  0  0  0  0  0  0  0  0  0  0  0
   -3.0180   -0.1799   -0.3721 C   0  0  0  0  0  0  0  0  0  0  0  0
   -0.4579   -0.6721    1.8264 N   0  0  0  0  0  0  0  0  0  0  0  0
    0.7729   -1.0123    1.4707 N   0  0  0  0  0  0  0  0  0  0  0  0
    3.4685   -1.1340    0.3947 C   0  0  0  0  0  0  0  0  0  0  0  0
    4.7691   -1.1821   -0.1197 C   0  0  0  0  0  0  0  0  0  0  0  0
    5.6896   -2.6236    0.1450 Cl  0  0  0  0  0  0  0  0  0  0  0  0
    7.2168    1.7538   -1.3884 H   0  0  0  0  0  0  0  0  0  0  0  0
    6.5777    1.0608   -2.9303 H   0  0  0  0  0  0  0  0  0  0  0  0
    8.1611    0.5782   -2.3106 H   0  0  0  0  0  0  0  0  0  0  0  0
    4.8716    1.9111   -1.5432 H   0  0  0  0  0  0  0  0  0  0  0  0
    2.6262    1.9919   -0.6530 H   0  0  0  0  0  0  0  0  0  0  0  0
    0.4057    2.0173    0.2093 H   0  0  0  0  0  0  0  0  0  0  0  0
   -1.9362    2.1928    1.0813 H   0  0  0  0  0  0  0  0  0  0  0  0
   -2.0745    1.3379    2.6344 H   0  0  0  0  0  0  0  0  0  0  0  0
   -6.9599   -0.1948    2.6418 H   0  0  0  0  0  0  0  0  0  0  0  0
   -8.2247   -1.6419    0.6824 H   0  0  0  0  0  0  0  0  0  0  0  0
   -4.9826   -1.8279   -2.1805 H   0  0  0  0  0  0  0  0  0  0  0  0
   -2.0974   -0.1131   -0.9336 H   0  0  0  0  0  0  0  0  0  0  0  0
    3.0803   -1.9934    0.9391 H   0  0  0  0  0  0  0  0  0  0  0  0
  1  2  1  0
  2  3  1  0
  3  4  1  0
  4  5  2  0
  5  6  1  0
  6  7  1  0
  7  8  2  0
  8  9  1  0
  9 10  1  0
 10 11  1  0
 11 12  2  0
 12 13  1  0
 13 14  2  0
 14 15  1  0
 15 16  2  0
 16 17  1  0
 17 18  1  0
 18 19  1  0
 18 20  2  0
  9 21  1  0
 21 22  2  0
  6 23  2  0
 23 24  1  0
 24 25  1  0
 24  3  2  0
 22  7  1  0
 20 11  1  0
 17 13  1  0
  1 26  1  0
  1 27  1  0
  1 28  1  0
  4 29  1  0
  5 30  1  0
  8 31  1  0
 10 32  1  0
 10 33  1  0
 14 34  1  0
 15 35  1  0
 19 36  1  0
 20 37  1  0
 23 38  1  0
M  END
$$$$
OCNT-2308666
     RDKit          3D

 53 56  0  0  0  0  0  0  0  0999 V2000
   -4.5392   -4.4363   -1.6275 C   0  0  0  0  0  0  0  0  0  0  0  0
   -4.4173   -4.0603   -0.2615 O   0  0  0  0  0  0  0  0  0  0  0  0
   -3.6344   -2.9733    0.0121 C   0  0  0  0  0  0  0  0  0  0  0  0
   -3.0321   -2.1377   -0.9266 C   0  0  0  0  0  0  0  0  0  0  0  0
   -2.2534   -1.0525   -0.5069 C   0  0  0  0  0  0  0  0  0  0  0  0
   -2.0591   -0.7874    0.8586 C   0  0  0  0  0  0  0  0  0  0  0  0
   -1.2362    0.3961    1.3407 C   0  0  0  0  0  0  0  0  0  0  0  0
   -1.9110    1.7254    1.0231 C   0  0  0  0  0  0  0  0  0  0  0  0
   -0.9885    2.2452   -0.0525 C   0  0  0  0  0  0  0  0  0  0  0  0
   -1.3144    3.4598   -0.8366 C   0  0  0  0  0  0  0  0  0  0  0  0
   -0.4562    3.8499   -1.8726 C   0  0  0  0  0  0  0  0  0  0  0  0
   -0.7395    4.9885   -2.6291 C   0  0  0  0  0  0  0  0  0  0  0  0
   -1.8789    5.7422   -2.3541 C   0  0  0  0  0  0  0  0  0  0  0  0
   -2.7358    5.3601   -1.3230 C   0  0  0  0  0  0  0  0  0  0  0  0
   -2.4561    4.2217   -0.5626 C   0  0  0  0  0  0  0  0  0  0  0  0
    0.1140    1.5708   -0.2092 N   0  0  0  0  0  0  0  0  0  0  0  0
    0.0474    0.5076    0.6547 N   0  0  0  0  0  0  0  0  0  0  0  0
    1.1286   -0.3236    0.9070 C   0  0  0  0  0  0  0  0  0  0  0  0
    1.0957   -1.1936    1.7769 O   0  0  0  0  0  0  0  0  0  0  0  0
    2.3424   -0.0415    0.0434 C   0  0  0  0  0  0  0  0  0  0  0  0
    3.3852   -1.0453    0.1718 N   0  0  0  0  0  0  0  0  0  0  0  0
    3.4929   -2.1544   -0.6194 C   0  0  0  0  0  0  0  0  0  0  0  0
    4.5821   -2.8347   -0.3512 N   0  0  0  0  0  0  0  0  0  0  0  0
    5.1971   -2.1550    0.6731 C   0  0  0  0  0  0  0  0  0  0  0  0
    6.4612   -2.6625    1.2531 C   0  0  0  0  0  0  0  0  0  0  0  0
    4.4696   -1.0280    1.0179 C   0  0  0  0  0  0  0  0  0  0  0  0
    4.7035    0.0080    2.0513 C   0  0  0  0  0  0  0  0  0  0  0  0
   -2.6696   -1.6342    1.7934 C   0  0  0  0  0  0  0  0  0  0  0  0
   -3.4506   -2.7132    1.3706 C   0  0  0  0  0  0  0  0  0  0  0  0
   -5.0629   -3.6648   -2.2016 H   0  0  0  0  0  0  0  0  0  0  0  0
   -5.1398   -5.3499   -1.6702 H   0  0  0  0  0  0  0  0  0  0  0  0
   -3.5618   -4.6605   -2.0675 H   0  0  0  0  0  0  0  0  0  0  0  0
   -3.1459   -2.3012   -1.9931 H   0  0  0  0  0  0  0  0  0  0  0  0
   -1.7929   -0.4192   -1.2628 H   0  0  0  0  0  0  0  0  0  0  0  0
   -1.0445    0.3027    2.4166 H   0  0  0  0  0  0  0  0  0  0  0  0
   -1.8630    2.4047    1.8807 H   0  0  0  0  0  0  0  0  0  0  0  0
   -2.9440    1.6347    0.6776 H   0  0  0  0  0  0  0  0  0  0  0  0
    0.4371    3.2723   -2.1003 H   0  0  0  0  0  0  0  0  0  0  0  0
   -0.0704    5.2869   -3.4328 H   0  0  0  0  0  0  0  0  0  0  0  0
   -2.0989    6.6292   -2.9438 H   0  0  0  0  0  0  0  0  0  0  0  0
   -3.6232    5.9522   -1.1095 H   0  0  0  0  0  0  0  0  0  0  0  0
   -3.1416    3.9557    0.2366 H   0  0  0  0  0  0  0  0  0  0  0  0
    2.7702    0.9296    0.3121 H   0  0  0  0  0  0  0  0  0  0  0  0
    2.0520   -0.0175   -1.0133 H   0  0  0  0  0  0  0  0  0  0  0  0
    2.7607   -2.4143   -1.3726 H   0  0  0  0  0  0  0  0  0  0  0  0
    6.8370   -3.5191    0.6848 H   0  0  0  0  0  0  0  0  0  0  0  0
    6.3041   -2.9823    2.2876 H   0  0  0  0  0  0  0  0  0  0  0  0
    7.2304   -1.8842    1.2418 H   0  0  0  0  0  0  0  0  0  0  0  0
    5.5371   -0.2668    2.7052 H   0  0  0  0  0  0  0  0  0  0  0  0
    4.9450    0.9680    1.5847 H   0  0  0  0  0  0  0  0  0  0  0  0
    3.8173    0.1386    2.6807 H   0  0  0  0  0  0  0  0  0  0  0  0
   -2.5357   -1.4725    2.8608 H   0  0  0  0  0  0  0  0  0  0  0  0
   -3.9133   -3.3640    2.1092 H   0  0  0  0  0  0  0  0  0  0  0  0
  1  2  1  0
  2  3  1  0
  3  4  1  0
  4  5  2  0
  5  6  1  0
  6  7  1  0
  7  8  1  0
  8  9  1  0
  9 10  1  0
 10 11  2  0
 11 12  1  0
 12 13  2  0
 13 14  1  0
 14 15  2  0
  9 16  2  0
 16 17  1  0
 17 18  1  0
 18 19  2  0
 18 20  1  0
 20 21  1  0
 21 22  1  0
 22 23  2  0
 23 24  1  0
 24 25  1  0
 24 26  2  0
 26 27  1  0
  6 28  2  0
 28 29  1  0
 29  3  2  0
 17  7  1  0
 26 21  1  0
 15 10  1  0
  1 30  1  0
  1 31  1  0
  1 32  1  0
  4 33  1  0
  5 34  1  0
  7 35  1  0
  8 36  1  0
  8 37  1  0
 11 38  1  0
 12 39  1  0
 13 40  1  0
 14 41  1  0
 15 42  1  0
 20 43  1  0
 20 44  1  0
 22 45  1  0
 25 46  1  0
 25 47  1  0
 25 48  1  0
 27 49  1  0
 27 50  1  0
 27 51  1  0
 28 52  1  0
 29 53  1  0
M  END
$$$$
OCNT-2308676
     RDKit          3D

 49 52  0  0  0  0  0  0  0  0999 V2000
   -3.1464   -0.9012   -3.7552 C   0  0  0  0  0  0  0  0  0  0  0  0
   -2.5535   -0.6838   -2.3961 C   0  0  0  0  0  0  0  0  0  0  0  0
   -1.1899   -0.7945   -2.2046 C   0  0  0  0  0  0  0  0  0  0  0  0
   -0.6930   -0.5778   -0.9307 C   0  0  0  0  0  0  0  0  0  0  0  0
    0.6857   -0.6542   -0.6829 N   0  0  0  0  0  0  0  0  0  0  0  0
    1.0919   -0.1837    0.6534 C   0  0  0  0  0  0  0  0  0  0  0  0
    2.5675   -0.4798    0.9240 C   0  0  0  0  0  0  0  0  0  0  0  0
    3.3756   -0.4511   -0.3713 C   0  0  0  0  0  0  0  0  0  0  0  0
    4.7595   -0.7343   -0.1168 O   0  0  0  0  0  0  0  0  0  0  0  0
    5.5230    0.3521    0.2531 C   0  0  0  0  0  0  0  0  0  0  0  0
    6.8832    0.1419    0.4389 C   0  0  0  0  0  0  0  0  0  0  0  0
    7.7351    1.1295    0.8118 N   0  0  0  0  0  0  0  0  0  0  0  0
    7.1601    2.3394    0.9916 C   0  0  0  0  0  0  0  0  0  0  0  0
    5.8022    2.5499    0.8100 C   0  0  0  0  0  0  0  0  0  0  0  0
    4.9528    1.5631    0.4398 N   0  0  0  0  0  0  0  0  0  0  0  0
    2.8655   -1.5383   -1.3320 C   0  0  0  0  0  0  0  0  0  0  0  0
    1.3804   -1.8541   -1.1478 C   0  0  0  0  0  0  0  0  0  0  0  0
   -1.5235   -0.2319    0.0685 N   0  0  0  0  0  0  0  0  0  0  0  0
   -2.8410   -0.1452   -0.1938 C   0  0  0  0  0  0  0  0  0  0  0  0
   -3.7426    0.2213    0.9192 C   0  0  0  0  0  0  0  0  0  0  0  0
   -3.2438    0.4858    2.2120 C   0  0  0  0  0  0  0  0  0  0  0  0
   -4.0865    0.8339    3.2735 C   0  0  0  0  0  0  0  0  0  0  0  0
   -5.4602    0.9276    3.0701 C   0  0  0  0  0  0  0  0  0  0  0  0
   -5.9815    0.6704    1.7977 C   0  0  0  0  0  0  0  0  0  0  0  0
   -7.4300    0.7670    1.5757 N   0  0  0  0  0  0  0  0  0  0  0  0
   -8.1401    1.0895    2.5394 O   0  0  0  0  0  0  0  0  0  0  0  0
   -7.8604    0.5205    0.4402 O   0  0  0  0  0  0  0  0  0  0  0  0
   -5.1360    0.3214    0.7330 C   0  0  0  0  0  0  0  0  0  0  0  0
   -3.3945   -0.3686   -1.3972 N   0  0  0  0  0  0  0  0  0  0  0  0
   -2.7517   -0.1648   -4.4622 H   0  0  0  0  0  0  0  0  0  0  0  0
   -2.9109   -1.9078   -4.1146 H   0  0  0  0  0  0  0  0  0  0  0  0
   -4.2359   -0.7968   -3.7265 H   0  0  0  0  0  0  0  0  0  0  0  0
   -0.5364   -1.0105   -3.0392 H   0  0  0  0  0  0  0  0  0  0  0  0
    0.5024   -0.6553    1.4502 H   0  0  0  0  0  0  0  0  0  0  0  0
    0.9318    0.9004    0.7095 H   0  0  0  0  0  0  0  0  0  0  0  0
    2.6712   -1.4692    1.3902 H   0  0  0  0  0  0  0  0  0  0  0  0
    2.9579    0.2253    1.6661 H   0  0  0  0  0  0  0  0  0  0  0  0
    3.2570    0.5156   -0.8805 H   0  0  0  0  0  0  0  0  0  0  0  0
    7.3256   -0.8362    0.2909 H   0  0  0  0  0  0  0  0  0  0  0  0
    7.8242    3.1432    1.2886 H   0  0  0  0  0  0  0  0  0  0  0  0
    5.3577    3.5274    0.9591 H   0  0  0  0  0  0  0  0  0  0  0  0
    3.0429   -1.1936   -2.3594 H   0  0  0  0  0  0  0  0  0  0  0  0
    3.4465   -2.4639   -1.2328 H   0  0  0  0  0  0  0  0  0  0  0  0
    0.9971   -2.2473   -2.0953 H   0  0  0  0  0  0  0  0  0  0  0  0
    1.2567   -2.6566   -0.4085 H   0  0  0  0  0  0  0  0  0  0  0  0
   -2.1719    0.4211    2.4010 H   0  0  0  0  0  0  0  0  0  0  0  0
   -3.6648    1.0311    4.2567 H   0  0  0  0  0  0  0  0  0  0  0  0
   -6.1041    1.1993    3.9039 H   0  0  0  0  0  0  0  0  0  0  0  0
   -5.5549    0.1239   -0.2539 H   0  0  0  0  0  0  0  0  0  0  0  0
  1  2  1  0
  2  3  1  0
  3  4  2  0
  4  5  1  0
  5  6  1  0
  6  7  1  0
  7  8  1  0
  8  9  1  0
  9 10  1  0
 10 11  2  0
 11 12  1  0
 12 13  2  0
 13 14  1  0
 14 15  2  0
  8 16  1  0
 16 17  1  0
  4 18  1  0
 18 19  2  0
 19 20  1  0
 20 21  1  0
 21 22  2  0
 22 23  1  0
 23 24  2  0
 24 25  1  0
 25 26  2  0
 25 27  1  0
 24 28  1  0
 19 29  1  0
 29  2  2  0
 17  5  1  0
 28 20  2  0
 15 10  1  0
  1 30  1  0
  1 31  1  0
  1 32  1  0
  3 33  1  0
  6 34  1  0
  6 35  1  0
  7 36  1  0
  7 37  1  0
  8 38  1  0
 11 39  1  0
 13 40  1  0
 14 41  1  0
 16 42  1  0
 16 43  1  0
 17 44  1  0
 17 45  1  0
 21 46  1  0
 22 47  1  0
 23 48  1  0
 28 49  1  0
M  CHG  2  25   1  27  -1
M  END
$$$$
OCNT-2308682
     RDKit          3D

 44 48  0  0  0  0  0  0  0  0999 V2000
    3.4073   -1.1938   -2.0354 O   0  0  0  0  0  0  0  0  0  0  0  0
    2.3399   -0.8063   -1.5664 C   0  0  0  0  0  0  0  0  0  0  0  0
    1.1415   -1.6553   -1.6922 C   0  0  0  0  0  0  0  0  0  0  0  0
    1.2404   -2.8771   -2.3778 C   0  0  0  0  0  0  0  0  0  0  0  0
    0.1168   -3.6831   -2.5371 C   0  0  0  0  0  0  0  0  0  0  0  0
   -1.1047   -3.2669   -2.0191 C   0  0  0  0  0  0  0  0  0  0  0  0
   -1.2031   -2.0504   -1.3340 C   0  0  0  0  0  0  0  0  0  0  0  0
   -0.0744   -1.2364   -1.1519 C   0  0  0  0  0  0  0  0  0  0  0  0
   -0.0813    0.0686   -0.4374 C   0  0  0  0  0  0  0  0  0  0  0  0
   -1.2670    0.5733    0.2286 C   0  0  0  0  0  0  0  0  0  0  0  0
   -2.3906   -0.0554    0.5067 N   0  0  0  0  0  0  0  0  0  0  0  0
   -3.1328    0.9119    1.1394 C   0  0  0  0  0  0  0  0  0  0  0  0
   -4.5024    0.6759    1.6486 C   0  0  0  0  0  0  0  0  0  0  0  0
   -5.4774    0.9479    0.6128 N   0  0  0  0  0  0  0  0  0  0  0  0
   -5.8198    2.1569    0.0870 C   0  0  0  0  0  0  0  0  0  0  0  0
   -6.7880    1.9975   -0.7853 N   0  0  0  0  0  0  0  0  0  0  0  0
   -7.0182    0.6522   -0.7488 C   0  0  0  0  0  0  0  0  0  0  0  0
   -6.2498   -0.0342    0.1014 N   0  0  0  0  0  0  0  0  0  0  0  0
   -2.5095    2.0886    1.2818 N   0  0  0  0  0  0  0  0  0  0  0  0
   -1.2682    1.8683    0.6808 O   0  0  0  0  0  0  0  0  0  0  0  0
    0.9790    0.8211   -0.3647 N   0  0  0  0  0  0  0  0  0  0  0  0
    2.1638    0.4099   -0.9230 N   0  0  0  0  0  0  0  0  0  0  0  0
    3.3156    1.2842   -0.7114 C   0  0  0  0  0  0  0  0  0  0  0  0
    3.9786    1.0369    0.6242 C   0  0  0  0  0  0  0  0  0  0  0  0
    5.0179    0.1028    0.7416 C   0  0  0  0  0  0  0  0  0  0  0  0
    5.6183   -0.1364    1.9786 C   0  0  0  0  0  0  0  0  0  0  0  0
    5.1819    0.5495    3.1107 C   0  0  0  0  0  0  0  0  0  0  0  0
    4.1413    1.4710    3.0088 C   0  0  0  0  0  0  0  0  0  0  0  0
    3.5394    1.7113    1.7727 C   0  0  0  0  0  0  0  0  0  0  0  0
    2.1941   -3.1987   -2.7935 H   0  0  0  0  0  0  0  0  0  0  0  0
    0.1937   -4.6281   -3.0698 H   0  0  0  0  0  0  0  0  0  0  0  0
   -1.9892   -3.8879   -2.1490 H   0  0  0  0  0  0  0  0  0  0  0  0
   -2.1860   -1.7746   -0.9657 H   0  0  0  0  0  0  0  0  0  0  0  0
   -4.7381    1.3257    2.4984 H   0  0  0  0  0  0  0  0  0  0  0  0
   -4.6226   -0.3637    1.9715 H   0  0  0  0  0  0  0  0  0  0  0  0
   -5.3472    3.0901    0.3633 H   0  0  0  0  0  0  0  0  0  0  0  0
   -7.7688    0.1613   -1.3552 H   0  0  0  0  0  0  0  0  0  0  0  0
    4.0436    1.1427   -1.5194 H   0  0  0  0  0  0  0  0  0  0  0  0
    2.9789    2.3262   -0.7809 H   0  0  0  0  0  0  0  0  0  0  0  0
    5.3599   -0.4483   -0.1331 H   0  0  0  0  0  0  0  0  0  0  0  0
    6.4241   -0.8613    2.0580 H   0  0  0  0  0  0  0  0  0  0  0  0
    5.6494    0.3615    4.0735 H   0  0  0  0  0  0  0  0  0  0  0  0
    3.7949    2.0001    3.8926 H   0  0  0  0  0  0  0  0  0  0  0  0
    2.7187    2.4227    1.7071 H   0  0  0  0  0  0  0  0  0  0  0  0
  1  2  2  0
  2  3  1  0
  3  4  2  0
  4  5  1  0
  5  6  2  0
  6  7  1  0
  7  8  2  0
  8  9  1  0
  9 10  1  0
 10 11  2  0
 11 12  1  0
 12 13  1  0
 13 14  1  0
 14 15  1  0
 15 16  2  0
 16 17  1  0
 17 18  2  0
 12 19  2  0
 19 20  1  0
  9 21  2  0
 21 22  1  0
 22 23  1  0
 23 24  1  0
 24 25  2  0
 25 26  1  0
 26 27  2  0
 27 28  1  0
 28 29  2  0
 22  2  1  0
 29 24  1  0
  8  3  1  0
 20 10  1  0
 18 14  1  0
  4 30  1  0
  5 31  1  0
  6 32  1  0
  7 33  1  0
 13 34  1  0
 13 35  1  0
 15 36  1  0
 17 37  1  0
 23 38  1  0
 23 39  1  0
 25 40  1  0
 26 41  1  0
 27 42  1  0
 28 43  1  0
 29 44  1  0
M  END
$$$$
OCNT-2308683
     RDKit          3D

 48 51  0  0  0  0  0  0  0  0999 V2000
   -3.1625    2.8714   -0.0487 N   0  0  0  0  0  0  0  0  0  0  0  0
   -2.7305    1.7950   -0.1073 C   0  0  0  0  0  0  0  0  0  0  0  0
   -2.2063    0.4135   -0.1747 C   0  0  0  0  0  0  0  0  0  0  0  0
   -2.9715   -0.4758   -1.1504 C   0  0  0  0  0  0  0  0  0  0  0  0
   -2.2585   -1.3407   -1.9997 C   0  0  0  0  0  0  0  0  0  0  0  0
   -2.9304   -2.1881   -2.8823 C   0  0  0  0  0  0  0  0  0  0  0  0
   -4.3219   -2.1866   -2.9278 C   0  0  0  0  0  0  0  0  0  0  0  0
   -5.0432   -1.3369   -2.0930 C   0  0  0  0  0  0  0  0  0  0  0  0
   -4.3750   -0.4876   -1.2089 C   0  0  0  0  0  0  0  0  0  0  0  0
   -2.1119   -0.2618    1.2256 C   0  0  0  0  0  0  0  0  0  0  0  0
   -3.4242   -0.2294    2.0417 C   0  0  0  0  0  0  0  0  0  0  0  0
   -2.9611   -0.0926    3.4869 C   0  0  0  0  0  0  0  0  0  0  0  0
   -1.7347    0.7934    3.3645 C   0  0  0  0  0  0  0  0  0  0  0  0
   -1.1146    0.3412    2.1311 N   0  0  0  0  0  0  0  0  0  0  0  0
    0.2478    0.4975    1.9495 C   0  0  0  0  0  0  0  0  0  0  0  0
    0.9121    1.2068    2.6974 O   0  0  0  0  0  0  0  0  0  0  0  0
    0.7550   -0.2228    0.8911 N   0  0  0  0  0  0  0  0  0  0  0  0
    2.0465   -0.1161    0.3342 C   0  0  0  0  0  0  0  0  0  0  0  0
    2.4603   -1.1381   -0.5269 C   0  0  0  0  0  0  0  0  0  0  0  0
    3.7193   -1.0919   -1.1316 C   0  0  0  0  0  0  0  0  0  0  0  0
    4.5694   -0.0084   -0.9010 C   0  0  0  0  0  0  0  0  0  0  0  0
    5.8250   -0.0176   -1.5234 N   0  0  0  0  0  0  0  0  0  0  0  0
    6.7158    1.0193   -1.5661 C   0  0  0  0  0  0  0  0  0  0  0  0
    7.8183    0.8396   -2.0881 O   0  0  0  0  0  0  0  0  0  0  0  0
    6.2705    2.3890   -1.1082 C   0  0  0  0  0  0  0  0  0  0  0  0
    5.2570    2.3635    0.3839 S   0  0  0  0  0  0  0  0  0  0  0  0
    4.1670    1.0202   -0.0413 C   0  0  0  0  0  0  0  0  0  0  0  0
    2.9060    0.9600    0.5713 C   0  0  0  0  0  0  0  0  0  0  0  0
   -1.1932    0.5169   -0.5826 H   0  0  0  0  0  0  0  0  0  0  0  0
   -1.1704   -1.3575   -1.9910 H   0  0  0  0  0  0  0  0  0  0  0  0
   -2.3688   -2.8472   -3.5400 H   0  0  0  0  0  0  0  0  0  0  0  0
   -4.8454   -2.8432   -3.6183 H   0  0  0  0  0  0  0  0  0  0  0  0
   -6.1301   -1.3312   -2.1338 H   0  0  0  0  0  0  0  0  0  0  0  0
   -4.9714    0.1675   -0.5755 H   0  0  0  0  0  0  0  0  0  0  0  0
   -1.8094   -1.3108    1.1053 H   0  0  0  0  0  0  0  0  0  0  0  0
   -4.0253   -1.1309    1.8867 H   0  0  0  0  0  0  0  0  0  0  0  0
   -4.0517    0.6323    1.7923 H   0  0  0  0  0  0  0  0  0  0  0  0
   -2.6794   -1.0772    3.8792 H   0  0  0  0  0  0  0  0  0  0  0  0
   -3.7266    0.3332    4.1412 H   0  0  0  0  0  0  0  0  0  0  0  0
   -2.0096    1.8464    3.2377 H   0  0  0  0  0  0  0  0  0  0  0  0
   -1.0592    0.6975    4.2196 H   0  0  0  0  0  0  0  0  0  0  0  0
    0.2516   -1.0688    0.6778 H   0  0  0  0  0  0  0  0  0  0  0  0
    1.8173   -1.9901   -0.7320 H   0  0  0  0  0  0  0  0  0  0  0  0
    4.0196   -1.9046   -1.7881 H   0  0  0  0  0  0  0  0  0  0  0  0
    6.1461   -0.8605   -1.9826 H   0  0  0  0  0  0  0  0  0  0  0  0
    7.1582    2.9955   -0.9043 H   0  0  0  0  0  0  0  0  0  0  0  0
    5.7125    2.8598   -1.9241 H   0  0  0  0  0  0  0  0  0  0  0  0
    2.6114    1.7696    1.2346 H   0  0  0  0  0  0  0  0  0  0  0  0
  1  2  3  0
  2  3  1  0
  3  4  1  0
  4  5  2  0
  5  6  1  0
  6  7  2  0
  7  8  1  0
  8  9  2  0
  3 10  1  0
 10 11  1  0
 11 12  1  0
 12 13  1  0
 13 14  1  0
 14 15  1  0
 15 16  2  0
 15 17  1  0
 17 18  1  0
 18 19  1  0
 19 20  2  0
 20 21  1  0
 21 22  1  0
 22 23  1  0
 23 24  2  0
 23 25  1  0
 25 26  1  0
 26 27  1  0
 27 28  1  0
  9  4  1  0
 14 10  1  0
 28 18  2  0
 27 21  2  0
  3 29  1  0
  5 30  1  0
  6 31  1  0
  7 32  1  0
  8 33  1  0
  9 34  1  0
 10 35  1  0
 11 36  1  0
 11 37  1  0
 12 38  1  0
 12 39  1  0
 13 40  1  0
 13 41  1  0
 17 42  1  0
 19 43  1  0
 20 44  1  0
 22 45  1  0
 25 46  1  0
 25 47  1  0
 28 48  1  0
M  END
$$$$
OCNT-2308684
     RDKit          3D

 54 57  0  0  0  0  0  0  0  0999 V2000
    8.3529   -0.3634    0.7845 C   0  0  0  0  0  0  0  0  0  0  0  0
    8.3376   -0.6322   -0.6438 N   0  0  0  0  0  0  0  0  0  0  0  0
    7.5129    0.3858   -1.6864 S   0  0  0  0  0  0  0  0  0  0  0  0
    7.9901    1.7339   -1.4717 O   0  0  0  0  0  0  0  0  0  0  0  0
    7.5522   -0.2403   -2.9893 O   0  0  0  0  0  0  0  0  0  0  0  0
    5.8453    0.2829   -1.0842 C   0  0  0  0  0  0  0  0  0  0  0  0
    5.0626   -0.8231   -1.4251 C   0  0  0  0  0  0  0  0  0  0  0  0
    3.7482   -0.9020   -0.9638 C   0  0  0  0  0  0  0  0  0  0  0  0
    3.2099    0.1224   -0.1699 C   0  0  0  0  0  0  0  0  0  0  0  0
    1.7785    0.0402    0.3012 C   0  0  0  0  0  0  0  0  0  0  0  0
    0.7994    0.5168   -0.7748 C   0  0  0  0  0  0  0  0  0  0  0  0
   -0.5792    0.4698   -0.3238 N   0  0  0  0  0  0  0  0  0  0  0  0
   -1.2710   -0.7219   -0.2629 C   0  0  0  0  0  0  0  0  0  0  0  0
   -0.8095   -1.8019   -0.6047 O   0  0  0  0  0  0  0  0  0  0  0  0
   -2.6505   -0.6167    0.2671 C   0  0  0  0  0  0  0  0  0  0  0  0
   -3.5097    0.2924   -0.3555 C   0  0  0  0  0  0  0  0  0  0  0  0
   -4.8034    0.4142    0.1213 C   0  0  0  0  0  0  0  0  0  0  0  0
   -5.7954    1.3403   -0.4605 C   0  0  0  0  0  0  0  0  0  0  0  0
   -5.8020    1.6765   -1.8219 C   0  0  0  0  0  0  0  0  0  0  0  0
   -6.7602    2.5592   -2.3000 C   0  0  0  0  0  0  0  0  0  0  0  0
   -7.7068    3.1298   -1.5296 N   0  0  0  0  0  0  0  0  0  0  0  0
   -7.7058    2.7902   -0.2254 C   0  0  0  0  0  0  0  0  0  0  0  0
   -6.7904    1.9180    0.3419 C   0  0  0  0  0  0  0  0  0  0  0  0
   -5.2339   -0.3141    1.1799 N   0  0  0  0  0  0  0  0  0  0  0  0
   -4.4126   -1.2020    1.7672 C   0  0  0  0  0  0  0  0  0  0  0  0
   -4.9011   -1.9404    2.8373 C   0  0  0  0  0  0  0  0  0  0  0  0
   -4.1153   -2.8785    3.5102 C   0  0  0  0  0  0  0  0  0  0  0  0
   -2.8046   -3.0891    3.1092 C   0  0  0  0  0  0  0  0  0  0  0  0
   -2.2903   -2.3599    2.0388 C   0  0  0  0  0  0  0  0  0  0  0  0
   -3.0859   -1.4087    1.3501 C   0  0  0  0  0  0  0  0  0  0  0  0
    4.0024    1.2348    0.1485 C   0  0  0  0  0  0  0  0  0  0  0  0
    5.3185    1.3188   -0.3089 C   0  0  0  0  0  0  0  0  0  0  0  0
    8.3654    0.7082    0.9988 H   0  0  0  0  0  0  0  0  0  0  0  0
    9.2564   -0.8011    1.2189 H   0  0  0  0  0  0  0  0  0  0  0  0
    7.4862   -0.8244    1.2655 H   0  0  0  0  0  0  0  0  0  0  0  0
    8.4461   -1.5874   -0.9775 H   0  0  0  0  0  0  0  0  0  0  0  0
    5.4638   -1.6171   -2.0510 H   0  0  0  0  0  0  0  0  0  0  0  0
    3.1389   -1.7642   -1.2327 H   0  0  0  0  0  0  0  0  0  0  0  0
    1.5559   -0.9926    0.5983 H   0  0  0  0  0  0  0  0  0  0  0  0
    1.6519    0.6392    1.2124 H   0  0  0  0  0  0  0  0  0  0  0  0
    1.0082    1.5546   -1.0575 H   0  0  0  0  0  0  0  0  0  0  0  0
    0.8885   -0.0992   -1.6774 H   0  0  0  0  0  0  0  0  0  0  0  0
   -0.9719    1.2971    0.1080 H   0  0  0  0  0  0  0  0  0  0  0  0
   -3.1626    0.8835   -1.1961 H   0  0  0  0  0  0  0  0  0  0  0  0
   -5.0913    1.2492   -2.5212 H   0  0  0  0  0  0  0  0  0  0  0  0
   -6.7922    2.8342   -3.3509 H   0  0  0  0  0  0  0  0  0  0  0  0
   -8.4847    3.2507    0.3758 H   0  0  0  0  0  0  0  0  0  0  0  0
   -6.8533    1.6914    1.4024 H   0  0  0  0  0  0  0  0  0  0  0  0
   -5.9291   -1.7827    3.1571 H   0  0  0  0  0  0  0  0  0  0  0  0
   -4.5328   -3.4414    4.3410 H   0  0  0  0  0  0  0  0  0  0  0  0
   -2.1837   -3.8200    3.6210 H   0  0  0  0  0  0  0  0  0  0  0  0
   -1.2611   -2.5470    1.7367 H   0  0  0  0  0  0  0  0  0  0  0  0
    3.5979    2.0460    0.7506 H   0  0  0  0  0  0  0  0  0  0  0  0
    5.9204    2.1909   -0.0620 H   0  0  0  0  0  0  0  0  0  0  0  0
  1  2  1  0
  2  3  1  0
  3  4  2  0
  3  5  2  0
  3  6  1  0
  6  7  1  0
  7  8  2  0
  8  9  1  0
  9 10  1  0
 10 11  1  0
 11 12  1  0
 12 13  1  0
 13 14  2  0
 13 15  1  0
 15 16  2  0
 16 17  1  0
 17 18  1  0
 18 19  2  0
 19 20  1  0
 20 21  2  0
 21 22  1  0
 22 23  2  0
 17 24  2  0
 24 25  1  0
 25 26  2  0
 26 27  1  0
 27 28  2  0
 28 29  1  0
 29 30  2  0
  9 31  2  0
 31 32  1  0
 32  6  2  0
 30 15  1  0
 23 18  1  0
 30 25  1  0
  1 33  1  0
  1 34  1  0
  1 35  1  0
  2 36  1  0
  7 37  1  0
  8 38  1  0
 10 39  1  0
 10 40  1  0
 11 41  1  0
 11 42  1  0
 12 43  1  0
 16 44  1  0
 19 45  1  0
 20 46  1  0
 22 47  1  0
 23 48  1  0
 26 49  1  0
 27 50  1  0
 28 51  1  0
 29 52  1  0
 31 53  1  0
 32 54  1  0
M  END
$$$$
OCNT-2308710
     RDKit          3D

 50 52  0  0  0  0  0  0  0  0999 V2000
   -6.0349    2.2524    1.5041 C   0  0  0  0  0  0  0  0  0  0  0  0
   -6.0393    0.9826    2.1449 O   0  0  0  0  0  0  0  0  0  0  0  0
   -4.7761    0.3120    2.0360 C   0  0  0  0  0  0  0  0  0  0  0  0
   -4.6623   -0.4863    0.7537 C   0  0  0  0  0  0  0  0  0  0  0  0
   -5.8164   -1.0179    0.1494 C   0  0  0  0  0  0  0  0  0  0  0  0
   -5.7361   -1.7744   -1.0218 C   0  0  0  0  0  0  0  0  0  0  0  0
   -4.4984   -2.0332   -1.6026 C   0  0  0  0  0  0  0  0  0  0  0  0
   -3.3381   -1.5377   -1.0100 C   0  0  0  0  0  0  0  0  0  0  0  0
   -3.4154   -0.7662    0.1620 C   0  0  0  0  0  0  0  0  0  0  0  0
   -2.1508   -0.2908    0.7809 C   0  0  0  0  0  0  0  0  0  0  0  0
   -1.9515   -0.4368    1.9798 O   0  0  0  0  0  0  0  0  0  0  0  0
   -1.2627    0.3182   -0.0815 N   0  0  0  0  0  0  0  0  0  0  0  0
    0.0646    0.7368    0.3579 C   0  0  0  0  0  0  0  0  0  0  0  0
    0.6160    1.8534   -0.5391 C   0  0  0  0  0  0  0  0  0  0  0  0
    1.5890    1.3164   -1.5795 C   0  0  0  0  0  0  0  0  0  0  0  0
    2.7135    0.6204   -0.9609 N   0  0  0  0  0  0  0  0  0  0  0  0
    3.8679    0.4535   -1.7273 C   0  0  0  0  0  0  0  0  0  0  0  0
    3.9381    0.7761   -2.9114 O   0  0  0  0  0  0  0  0  0  0  0  0
    5.0724   -0.1343   -1.0967 C   0  0  0  0  0  0  0  0  0  0  0  0
    5.7152   -1.1990   -1.7360 C   0  0  0  0  0  0  0  0  0  0  0  0
    6.8620   -1.7564   -1.1696 C   0  0  0  0  0  0  0  0  0  0  0  0
    7.3724   -1.2406    0.0229 C   0  0  0  0  0  0  0  0  0  0  0  0
    6.7454   -0.1609    0.6474 C   0  0  0  0  0  0  0  0  0  0  0  0
    5.5981    0.4001    0.0851 C   0  0  0  0  0  0  0  0  0  0  0  0
    2.4618   -0.0692    0.3088 C   0  0  0  0  0  0  0  0  0  0  0  0
    1.0008   -0.4777    0.4413 C   0  0  0  0  0  0  0  0  0  0  0  0
   -5.7936    2.1555    0.4415 H   0  0  0  0  0  0  0  0  0  0  0  0
   -7.0350    2.6847    1.5953 H   0  0  0  0  0  0  0  0  0  0  0  0
   -5.3219    2.9235    1.9926 H   0  0  0  0  0  0  0  0  0  0  0  0
   -3.9744    1.0505    2.1413 H   0  0  0  0  0  0  0  0  0  0  0  0
   -4.7092   -0.3862    2.8775 H   0  0  0  0  0  0  0  0  0  0  0  0
   -6.7941   -0.8423    0.5971 H   0  0  0  0  0  0  0  0  0  0  0  0
   -6.6434   -2.1713   -1.4713 H   0  0  0  0  0  0  0  0  0  0  0  0
   -4.4370   -2.6368   -2.5048 H   0  0  0  0  0  0  0  0  0  0  0  0
   -2.3748   -1.7854   -1.4489 H   0  0  0  0  0  0  0  0  0  0  0  0
   -1.4897    0.3659   -1.0669 H   0  0  0  0  0  0  0  0  0  0  0  0
   -0.0542    1.1530    1.3670 H   0  0  0  0  0  0  0  0  0  0  0  0
    1.1543    2.5726    0.0929 H   0  0  0  0  0  0  0  0  0  0  0  0
   -0.1928    2.4099   -1.0266 H   0  0  0  0  0  0  0  0  0  0  0  0
    1.0878    0.6091   -2.2514 H   0  0  0  0  0  0  0  0  0  0  0  0
    1.9682    2.1398   -2.1956 H   0  0  0  0  0  0  0  0  0  0  0  0
    5.3246   -1.5887   -2.6731 H   0  0  0  0  0  0  0  0  0  0  0  0
    7.3622   -2.5865   -1.6621 H   0  0  0  0  0  0  0  0  0  0  0  0
    8.2695   -1.6733    0.4596 H   0  0  0  0  0  0  0  0  0  0  0  0
    7.1581    0.2491    1.5659 H   0  0  0  0  0  0  0  0  0  0  0  0
    5.1288    1.2579    0.5587 H   0  0  0  0  0  0  0  0  0  0  0  0
    2.7369    0.6190    1.1160 H   0  0  0  0  0  0  0  0  0  0  0  0
    3.0931   -0.9593    0.3883 H   0  0  0  0  0  0  0  0  0  0  0  0
    0.7594   -1.1943   -0.3558 H   0  0  0  0  0  0  0  0  0  0  0  0
    0.8421   -1.0066    1.3885 H   0  0  0  0  0  0  0  0  0  0  0  0
  1  2  1  0
  2  3  1  0
  3  4  1  0
  4  5  2  0
  5  6  1  0
  6  7  2  0
  7  8  1  0
  8  9  2  0
  9 10  1  0
 10 11  2  0
 10 12  1  0
 12 13  1  0
 13 14  1  0
 14 15  1  0
 15 16  1  0
 16 17  1  0
 17 18  2  0
 17 19  1  0
 19 20  2  0
 20 21  1  0
 21 22  2  0
 22 23  1  0
 23 24  2  0
 16 25  1  0
 25 26  1  0
  9  4  1  0
 26 13  1  0
 24 19  1  0
  1 27  1  0
  1 28  1  0
  1 29  1  0
  3 30  1  0
  3 31  1  0
  5 32  1  0
  6 33  1  0
  7 34  1  0
  8 35  1  0
 12 36  1  0
 13 37  1  0
 14 38  1  0
 14 39  1  0
 15 40  1  0
 15 41  1  0
 20 42  1  0
 21 43  1  0
 22 44  1  0
 23 45  1  0
 24 46  1  0
 25 47  1  0
 25 48  1  0
 26 49  1  0
 26 50  1  0
M  END
$$$$
OCNT-2308724
     RDKit          3D

 40 42  0  0  0  0  0  0  0  0999 V2000
    0.1284   -0.3626   -1.4937 O   0  0  0  0  0  0  0  0  0  0  0  0
    0.2998    0.6227   -0.7899 C   0  0  0  0  0  0  0  0  0  0  0  0
   -0.6905    1.5640   -0.5997 N   0  0  0  0  0  0  0  0  0  0  0  0
   -1.9143    1.4642   -1.3679 C   0  0  0  0  0  0  0  0  0  0  0  0
   -2.9463    2.2954   -0.7177 C   0  0  0  0  0  0  0  0  0  0  0  0
   -3.0903    3.5923   -0.9258 N   0  0  0  0  0  0  0  0  0  0  0  0
   -4.2275    3.9650   -0.2771 N   0  0  0  0  0  0  0  0  0  0  0  0
   -4.7842    2.9330    0.3310 N   0  0  0  0  0  0  0  0  0  0  0  0
   -3.9594    1.8697    0.1331 N   0  0  0  0  0  0  0  0  0  0  0  0
   -4.2317    0.6287    0.7735 C   0  0  0  0  0  0  0  0  0  0  0  0
   -3.2842   -0.3970    0.8687 C   0  0  0  0  0  0  0  0  0  0  0  0
   -3.6061   -1.5989    1.5098 C   0  0  0  0  0  0  0  0  0  0  0  0
   -4.8670   -1.7848    2.0701 C   0  0  0  0  0  0  0  0  0  0  0  0
   -5.8105   -0.7650    2.0015 C   0  0  0  0  0  0  0  0  0  0  0  0
   -5.4953    0.4371    1.3630 C   0  0  0  0  0  0  0  0  0  0  0  0
    1.4244    0.9428   -0.0647 N   0  0  0  0  0  0  0  0  0  0  0  0
    2.6555    0.2585   -0.0422 C   0  0  0  0  0  0  0  0  0  0  0  0
    2.9701   -0.8087   -0.8837 C   0  0  0  0  0  0  0  0  0  0  0  0
    4.2216   -1.4383   -0.8086 C   0  0  0  0  0  0  0  0  0  0  0  0
    5.1761   -1.0040    0.1090 C   0  0  0  0  0  0  0  0  0  0  0  0
    6.4261   -1.5198    0.2906 O   0  0  0  0  0  0  0  0  0  0  0  0
    6.8146   -2.6129   -0.5237 C   0  0  0  0  0  0  0  0  0  0  0  0
    6.0084   -3.6781   -0.3285 F   0  0  0  0  0  0  0  0  0  0  0  0
    8.0737   -2.9740   -0.1897 F   0  0  0  0  0  0  0  0  0  0  0  0
    6.8093   -2.2742   -1.8306 F   0  0  0  0  0  0  0  0  0  0  0  0
    4.8643    0.0680    0.9479 C   0  0  0  0  0  0  0  0  0  0  0  0
    3.6169    0.6959    0.8734 C   0  0  0  0  0  0  0  0  0  0  0  0
   -0.3585    2.5082   -0.4554 H   0  0  0  0  0  0  0  0  0  0  0  0
   -2.2220    0.4260   -1.5151 H   0  0  0  0  0  0  0  0  0  0  0  0
   -1.6946    1.8616   -2.3662 H   0  0  0  0  0  0  0  0  0  0  0  0
   -2.2694   -0.3048    0.5014 H   0  0  0  0  0  0  0  0  0  0  0  0
   -2.8620   -2.3900    1.5794 H   0  0  0  0  0  0  0  0  0  0  0  0
   -5.1101   -2.7203    2.5678 H   0  0  0  0  0  0  0  0  0  0  0  0
   -6.7939   -0.9022    2.4449 H   0  0  0  0  0  0  0  0  0  0  0  0
   -6.2612    1.2110    1.3262 H   0  0  0  0  0  0  0  0  0  0  0  0
    1.3111    1.6852    0.6096 H   0  0  0  0  0  0  0  0  0  0  0  0
    2.2631   -1.1788   -1.6207 H   0  0  0  0  0  0  0  0  0  0  0  0
    4.4035   -2.2642   -1.4907 H   0  0  0  0  0  0  0  0  0  0  0  0
    5.5977    0.4221    1.6692 H   0  0  0  0  0  0  0  0  0  0  0  0
    3.4144    1.5270    1.5438 H   0  0  0  0  0  0  0  0  0  0  0  0
  1  2  2  0
  2  3  1  0
  3  4  1  0
  4  5  1  0
  5  6  2  0
  6  7  1  0
  7  8  2  0
  8  9  1  0
  9 10  1  0
 10 11  2  0
 11 12  1  0
 12 13  2  0
 13 14  1  0
 14 15  2  0
  2 16  1  0
 16 17  1  0
 17 18  1  0
 18 19  2  0
 19 20  1  0
 20 21  1  0
 21 22  1  0
 22 23  1  0
 22 24  1  0
 22 25  1  0
 20 26  2  0
 26 27  1  0
  9  5  1  0
 15 10  1  0
 27 17  2  0
  3 28  1  0
  4 29  1  0
  4 30  1  0
 11 31  1  0
 12 32  1  0
 13 33  1  0
 14 34  1  0
 15 35  1  0
 16 36  1  0
 18 37  1  0
 19 38  1  0
 26 39  1  0
 27 40  1  0
M  END
$$$$
OCNT-2308752
     RDKit          3D

 48 50  0  0  0  0  0  0  0  0999 V2000
    3.1962    0.7887    2.5093 C   0  0  0  0  0  0  0  0  0  0  0  0
    3.9223    0.9383    1.1727 C   0  0  0  0  0  0  0  0  0  0  0  0
    4.7560   -0.3028    0.8570 C   0  0  0  0  0  0  0  0  0  0  0  0
    2.9408    1.2267    0.0597 C   0  0  0  0  0  0  0  0  0  0  0  0
    3.0577    2.4017   -0.5783 N   0  0  0  0  0  0  0  0  0  0  0  0
    2.1665    2.6226   -1.5549 C   0  0  0  0  0  0  0  0  0  0  0  0
    1.1774    1.7302   -1.9011 C   0  0  0  0  0  0  0  0  0  0  0  0
    1.1093    0.5481   -1.1898 C   0  0  0  0  0  0  0  0  0  0  0  0
    0.1555   -0.4110   -1.4568 N   0  0  0  0  0  0  0  0  0  0  0  0
   -1.0626   -0.1387   -2.2008 C   0  0  0  0  0  0  0  0  0  0  0  0
   -1.8956   -1.4041   -2.0173 C   0  0  0  0  0  0  0  0  0  0  0  0
   -1.4689   -1.9721   -0.6502 C   0  0  0  0  0  0  0  0  0  0  0  0
   -1.5754   -3.5110   -0.6787 C   0  0  0  0  0  0  0  0  0  0  0  0
   -1.1582   -4.0922    0.5502 O   0  0  0  0  0  0  0  0  0  0  0  0
   -2.3203   -1.4479    0.5478 C   0  0  0  0  0  0  0  0  0  0  0  0
   -2.5680    0.0398    0.6674 C   0  0  0  0  0  0  0  0  0  0  0  0
   -3.7704    0.5965    0.2007 C   0  0  0  0  0  0  0  0  0  0  0  0
   -3.9999    1.9697    0.2993 C   0  0  0  0  0  0  0  0  0  0  0  0
   -3.0312    2.7879    0.8670 C   0  0  0  0  0  0  0  0  0  0  0  0
   -3.2505    4.1064    0.9539 F   0  0  0  0  0  0  0  0  0  0  0  0
   -1.8403    2.2581    1.3452 C   0  0  0  0  0  0  0  0  0  0  0  0
   -1.6115    0.8845    1.2523 C   0  0  0  0  0  0  0  0  0  0  0  0
    0.0114   -1.5462   -0.5467 C   0  0  0  0  0  0  0  0  0  0  0  0
    2.0047    0.2967   -0.2157 N   0  0  0  0  0  0  0  0  0  0  0  0
    3.9127    0.6394    3.3241 H   0  0  0  0  0  0  0  0  0  0  0  0
    2.5099   -0.0658    2.5051 H   0  0  0  0  0  0  0  0  0  0  0  0
    2.6084    1.6849    2.7381 H   0  0  0  0  0  0  0  0  0  0  0  0
    4.6083    1.7911    1.2566 H   0  0  0  0  0  0  0  0  0  0  0  0
    5.2828   -0.1883   -0.0970 H   0  0  0  0  0  0  0  0  0  0  0  0
    5.5060   -0.4733    1.6367 H   0  0  0  0  0  0  0  0  0  0  0  0
    4.1343   -1.2026    0.7873 H   0  0  0  0  0  0  0  0  0  0  0  0
    2.2697    3.5707   -2.0736 H   0  0  0  0  0  0  0  0  0  0  0  0
    0.4931    1.9671   -2.7024 H   0  0  0  0  0  0  0  0  0  0  0  0
   -0.8576    0.0293   -3.2639 H   0  0  0  0  0  0  0  0  0  0  0  0
   -1.5856    0.7397   -1.8117 H   0  0  0  0  0  0  0  0  0  0  0  0
   -1.6379   -2.1074   -2.8204 H   0  0  0  0  0  0  0  0  0  0  0  0
   -2.9697   -1.2109   -2.0959 H   0  0  0  0  0  0  0  0  0  0  0  0
   -2.6143   -3.8153   -0.8489 H   0  0  0  0  0  0  0  0  0  0  0  0
   -0.9771   -3.9489   -1.4863 H   0  0  0  0  0  0  0  0  0  0  0  0
   -0.1871   -4.1551    0.5414 H   0  0  0  0  0  0  0  0  0  0  0  0
   -3.3023   -1.9416    0.5180 H   0  0  0  0  0  0  0  0  0  0  0  0
   -1.8718   -1.7841    1.4932 H   0  0  0  0  0  0  0  0  0  0  0  0
   -4.5356   -0.0371   -0.2423 H   0  0  0  0  0  0  0  0  0  0  0  0
   -4.9263    2.4053   -0.0606 H   0  0  0  0  0  0  0  0  0  0  0  0
   -1.0954    2.9131    1.7855 H   0  0  0  0  0  0  0  0  0  0  0  0
   -0.6736    0.4830    1.6303 H   0  0  0  0  0  0  0  0  0  0  0  0
    0.6833   -2.3414   -0.8922 H   0  0  0  0  0  0  0  0  0  0  0  0
    0.2807   -1.3215    0.4912 H   0  0  0  0  0  0  0  0  0  0  0  0
  1  2  1  0
  2  3  1  0
  2  4  1  0
  4  5  2  0
  5  6  1  0
  6  7  2  0
  7  8  1  0
  8  9  1  0
  9 10  1  0
 10 11  1  0
 11 12  1  0
 12 13  1  0
 13 14  1  0
 12 15  1  0
 15 16  1  0
 16 17  1  0
 17 18  2  0
 18 19  1  0
 19 20  1  0
 19 21  2  0
 21 22  1  0
 12 23  1  0
  8 24  2  0
 24  4  1  0
 23  9  1  0
 22 16  2  0
  1 25  1  0
  1 26  1  0
  1 27  1  0
  2 28  1  0
  3 29  1  0
  3 30  1  0
  3 31  1  0
  6 32  1  0
  7 33  1  0
 10 34  1  0
 10 35  1  0
 11 36  1  0
 11 37  1  0
 13 38  1  0
 13 39  1  0
 14 40  1  0
 15 41  1  0
 15 42  1  0
 17 43  1  0
 18 44  1  0
 21 45  1  0
 22 46  1  0
 23 47  1  0
 23 48  1  0
M  END
$$$$
OCNT-2308766
     RDKit          3D

 56 58  0  0  0  0  0  0  0  0999 V2000
    3.1609   -1.9084    0.9082 O   0  0  0  0  0  0  0  0  0  0  0  0
    3.3723   -1.0131    0.0961 C   0  0  0  0  0  0  0  0  0  0  0  0
    4.7432   -0.3694   -0.1363 C   0  0  0  0  0  0  0  0  0  0  0  0
    5.6923   -0.8239    0.8161 O   0  0  0  0  0  0  0  0  0  0  0  0
    6.9581   -0.3170    0.7338 C   0  0  0  0  0  0  0  0  0  0  0  0
    7.8310   -0.7737    1.7264 C   0  0  0  0  0  0  0  0  0  0  0  0
    9.1573   -0.3380    1.7655 C   0  0  0  0  0  0  0  0  0  0  0  0
    9.6133    0.5592    0.8046 C   0  0  0  0  0  0  0  0  0  0  0  0
   11.2447    1.1027    0.8441 Cl  0  0  0  0  0  0  0  0  0  0  0  0
    8.7535    1.0201   -0.1907 C   0  0  0  0  0  0  0  0  0  0  0  0
    7.4247    0.5819   -0.2272 C   0  0  0  0  0  0  0  0  0  0  0  0
    2.3783   -0.4905   -0.7184 N   0  0  0  0  0  0  0  0  0  0  0  0
    0.9872   -0.9077   -0.5778 C   0  0  0  0  0  0  0  0  0  0  0  0
    0.2101   -0.6388   -1.8774 C   0  0  0  0  0  0  0  0  0  0  0  0
   -0.5196    0.7004   -1.8219 C   0  0  0  0  0  0  0  0  0  0  0  0
   -1.5793    0.7401   -0.6989 C   0  0  0  0  0  0  0  0  0  0  0  0
   -2.8621    0.3084   -1.2639 N   0  0  0  0  0  0  0  0  0  0  0  0
   -4.0447    0.7869   -0.5464 C   0  0  0  0  0  0  0  0  0  0  0  0
   -5.2973    0.5991   -1.4102 C   0  0  0  0  0  0  0  0  0  0  0  0
   -6.4394    0.3528   -0.4244 C   0  0  0  0  0  0  0  0  0  0  0  0
   -5.8360    0.4502    0.9082 N   0  0  0  0  0  0  0  0  0  0  0  0
   -6.5382   -0.3485    1.9364 C   0  0  0  0  0  0  0  0  0  0  0  0
   -8.0170   -0.0121    2.2161 C   0  0  0  0  0  0  0  0  0  0  0  0
   -8.7988   -0.2582    1.1400 F   0  0  0  0  0  0  0  0  0  0  0  0
   -8.1870    1.2799    2.5710 F   0  0  0  0  0  0  0  0  0  0  0  0
   -8.4852   -0.7763    3.2325 F   0  0  0  0  0  0  0  0  0  0  0  0
   -4.4333    0.0571    0.7454 C   0  0  0  0  0  0  0  0  0  0  0  0
   -1.1643   -0.1236    0.5089 C   0  0  0  0  0  0  0  0  0  0  0  0
    0.3512   -0.2216    0.6452 C   0  0  0  0  0  0  0  0  0  0  0  0
    5.0608   -0.6445   -1.1492 H   0  0  0  0  0  0  0  0  0  0  0  0
    4.6175    0.7169   -0.0516 H   0  0  0  0  0  0  0  0  0  0  0  0
    7.4721   -1.4760    2.4761 H   0  0  0  0  0  0  0  0  0  0  0  0
    9.8217   -0.7023    2.5441 H   0  0  0  0  0  0  0  0  0  0  0  0
    9.1109    1.7196   -0.9420 H   0  0  0  0  0  0  0  0  0  0  0  0
    6.7872    0.9602   -1.0186 H   0  0  0  0  0  0  0  0  0  0  0  0
    2.5651    0.3734   -1.2114 H   0  0  0  0  0  0  0  0  0  0  0  0
    0.9921   -1.9926   -0.4104 H   0  0  0  0  0  0  0  0  0  0  0  0
   -0.5278   -1.4373   -2.0277 H   0  0  0  0  0  0  0  0  0  0  0  0
    0.8788   -0.6668   -2.7462 H   0  0  0  0  0  0  0  0  0  0  0  0
   -0.9731    0.9208   -2.7967 H   0  0  0  0  0  0  0  0  0  0  0  0
    0.2131    1.5003   -1.6507 H   0  0  0  0  0  0  0  0  0  0  0  0
   -1.6574    1.7893   -0.3853 H   0  0  0  0  0  0  0  0  0  0  0  0
   -2.8925   -0.7043   -1.3734 H   0  0  0  0  0  0  0  0  0  0  0  0
   -3.9442    1.8624   -0.3427 H   0  0  0  0  0  0  0  0  0  0  0  0
   -5.2046   -0.2664   -2.0785 H   0  0  0  0  0  0  0  0  0  0  0  0
   -5.4785    1.4817   -2.0337 H   0  0  0  0  0  0  0  0  0  0  0  0
   -7.2342    1.0954   -0.5473 H   0  0  0  0  0  0  0  0  0  0  0  0
   -6.8653   -0.6408   -0.6128 H   0  0  0  0  0  0  0  0  0  0  0  0
   -5.9999   -0.2204    2.8837 H   0  0  0  0  0  0  0  0  0  0  0  0
   -6.4782   -1.4150    1.6834 H   0  0  0  0  0  0  0  0  0  0  0  0
   -3.8328    0.3860    1.5976 H   0  0  0  0  0  0  0  0  0  0  0  0
   -4.3282   -1.0294    0.6295 H   0  0  0  0  0  0  0  0  0  0  0  0
   -1.5706   -1.1400    0.4242 H   0  0  0  0  0  0  0  0  0  0  0  0
   -1.5807    0.3033    1.4276 H   0  0  0  0  0  0  0  0  0  0  0  0
    0.7640    0.7874    0.7799 H   0  0  0  0  0  0  0  0  0  0  0  0
    0.6087   -0.7787    1.5543 H   0  0  0  0  0  0  0  0  0  0  0  0
  1  2  2  0
  2  3  1  0
  3  4  1  0
  4  5  1  0
  5  6  1  0
  6  7  2  0
  7  8  1  0
  8  9  1  0
  8 10  2  0
 10 11  1  0
  2 12  1  0
 12 13  1  0
 13 14  1  0
 14 15  1  0
 15 16  1  0
 16 17  1  0
 17 18  1  0
 18 19  1  0
 19 20  1  0
 20 21  1  0
 21 22  1  0
 22 23  1  0
 23 24  1  0
 23 25  1  0
 23 26  1  0
 21 27  1  0
 16 28  1  0
 28 29  1  0
 11  5  2  0
 29 13  1  0
 27 18  1  0
  3 30  1  0
  3 31  1  0
  6 32  1  0
  7 33  1  0
 10 34  1  0
 11 35  1  0
 12 36  1  0
 13 37  1  0
 14 38  1  0
 14 39  1  0
 15 40  1  0
 15 41  1  0
 16 42  1  0
 17 43  1  0
 18 44  1  0
 19 45  1  0
 19 46  1  0
 20 47  1  0
 20 48  1  0
 22 49  1  0
 22 50  1  0
 27 51  1  0
 27 52  1  0
 28 53  1  0
 28 54  1  0
 29 55  1  0
 29 56  1  0
M  END
$$$$
OCNT-2308774
     RDKit          3D

 46 48  0  0  0  0  0  0  0  0999 V2000
    4.3547    2.3505   -1.2887 C   0  0  0  0  0  0  0  0  0  0  0  0
    4.2301    0.8667   -1.0521 C   0  0  0  0  0  0  0  0  0  0  0  0
    4.9664    0.0068   -1.8808 C   0  0  0  0  0  0  0  0  0  0  0  0
    4.8802   -1.3691   -1.7276 C   0  0  0  0  0  0  0  0  0  0  0  0
    4.0531   -1.9018   -0.7450 C   0  0  0  0  0  0  0  0  0  0  0  0
    3.2995   -1.0766    0.1182 C   0  0  0  0  0  0  0  0  0  0  0  0
    2.4323   -1.8026    1.1473 C   0  0  0  0  0  0  0  0  0  0  0  0
    3.0724   -1.8031    2.5357 C   0  0  0  0  0  0  0  0  0  0  0  0
    1.0726   -1.3165    1.1881 N   0  0  0  0  0  0  0  0  0  0  0  0
    0.1156   -1.7023    0.2762 C   0  0  0  0  0  0  0  0  0  0  0  0
    0.2498   -2.6257   -0.5202 O   0  0  0  0  0  0  0  0  0  0  0  0
   -1.1057   -0.8851    0.3544 C   0  0  0  0  0  0  0  0  0  0  0  0
   -1.2263    0.1401    1.2229 N   0  0  0  0  0  0  0  0  0  0  0  0
   -2.4606    0.6164    0.9789 N   0  0  0  0  0  0  0  0  0  0  0  0
   -3.1511   -0.0411   -0.0072 C   0  0  0  0  0  0  0  0  0  0  0  0
   -4.5114    0.3309   -0.4216 C   0  0  0  0  0  0  0  0  0  0  0  0
   -5.1480   -0.3896   -1.4453 C   0  0  0  0  0  0  0  0  0  0  0  0
   -6.4416   -0.0633   -1.8647 C   0  0  0  0  0  0  0  0  0  0  0  0
   -7.1246    0.9917   -1.2673 C   0  0  0  0  0  0  0  0  0  0  0  0
   -6.5172    1.7237   -0.2494 C   0  0  0  0  0  0  0  0  0  0  0  0
   -5.2232    1.3948    0.1677 C   0  0  0  0  0  0  0  0  0  0  0  0
   -4.6472    2.1335    1.1741 O   0  0  0  0  0  0  0  0  0  0  0  0
   -2.2799   -1.0275   -0.4287 C   0  0  0  0  0  0  0  0  0  0  0  0
    3.4098    0.3336   -0.0205 C   0  0  0  0  0  0  0  0  0  0  0  0
    2.6200    1.2854    0.8446 C   0  0  0  0  0  0  0  0  0  0  0  0
    4.9065    2.8189   -0.4677 H   0  0  0  0  0  0  0  0  0  0  0  0
    4.8934    2.5661   -2.2179 H   0  0  0  0  0  0  0  0  0  0  0  0
    3.3654    2.8102   -1.3810 H   0  0  0  0  0  0  0  0  0  0  0  0
    5.6069    0.4087   -2.6626 H   0  0  0  0  0  0  0  0  0  0  0  0
    5.4452   -2.0285   -2.3804 H   0  0  0  0  0  0  0  0  0  0  0  0
    3.9885   -2.9858   -0.6609 H   0  0  0  0  0  0  0  0  0  0  0  0
    2.3565   -2.8555    0.8436 H   0  0  0  0  0  0  0  0  0  0  0  0
    3.1649   -0.7992    2.9590 H   0  0  0  0  0  0  0  0  0  0  0  0
    2.4689   -2.3931    3.2348 H   0  0  0  0  0  0  0  0  0  0  0  0
    4.0761   -2.2414    2.5040 H   0  0  0  0  0  0  0  0  0  0  0  0
    0.8331   -0.4804    1.7110 H   0  0  0  0  0  0  0  0  0  0  0  0
   -2.8044    1.4079    1.5155 H   0  0  0  0  0  0  0  0  0  0  0  0
   -4.6448   -1.2197   -1.9351 H   0  0  0  0  0  0  0  0  0  0  0  0
   -6.9123   -0.6367   -2.6597 H   0  0  0  0  0  0  0  0  0  0  0  0
   -8.1301    1.2428   -1.5957 H   0  0  0  0  0  0  0  0  0  0  0  0
   -7.0657    2.5434    0.2046 H   0  0  0  0  0  0  0  0  0  0  0  0
   -5.2843    2.8137    1.4546 H   0  0  0  0  0  0  0  0  0  0  0  0
   -2.4422   -1.7677   -1.1997 H   0  0  0  0  0  0  0  0  0  0  0  0
    1.6388    1.4693    0.3964 H   0  0  0  0  0  0  0  0  0  0  0  0
    2.4891    0.9117    1.8605 H   0  0  0  0  0  0  0  0  0  0  0  0
    3.1308    2.2452    0.9669 H   0  0  0  0  0  0  0  0  0  0  0  0
  1  2  1  0
  2  3  1  0
  3  4  2  0
  4  5  1  0
  5  6  2  0
  6  7  1  0
  7  8  1  0
  7  9  1  0
  9 10  1  0
 10 11  2  0
 10 12  1  0
 12 13  2  0
 13 14  1  0
 14 15  1  0
 15 16  1  0
 16 17  2  0
 17 18  1  0
 18 19  2  0
 19 20  1  0
 20 21  2  0
 21 22  1  0
 15 23  2  0
  6 24  1  0
 24 25  1  0
 24  2  2  0
 23 12  1  0
 21 16  1  0
  1 26  1  0
  1 27  1  0
  1 28  1  0
  3 29  1  0
  4 30  1  0
  5 31  1  0
  7 32  1  0
  8 33  1  0
  8 34  1  0
  8 35  1  0
  9 36  1  0
 14 37  1  0
 17 38  1  0
 18 39  1  0
 19 40  1  0
 20 41  1  0
 22 42  1  0
 23 43  1  0
 25 44  1  0
 25 45  1  0
 25 46  1  0
M  END
$$$$
OCNT-2308775
     RDKit          3D

 48 50  0  0  0  0  0  0  0  0999 V2000
    5.4651    2.3060   -1.5785 C   0  0  0  0  0  0  0  0  0  0  0  0
    5.8329    1.1740   -2.4117 N   0  0  0  0  0  0  0  0  0  0  0  0
    6.1510   -0.3182   -1.7231 S   0  0  0  0  0  0  0  0  0  0  0  0
    7.1602   -0.1371   -0.7034 O   0  0  0  0  0  0  0  0  0  0  0  0
    6.3266   -1.2473   -2.8171 O   0  0  0  0  0  0  0  0  0  0  0  0
    4.6139   -0.7064   -0.9230 C   0  0  0  0  0  0  0  0  0  0  0  0
    3.5481   -1.1844   -1.6859 C   0  0  0  0  0  0  0  0  0  0  0  0
    2.3434   -1.5017   -1.0563 C   0  0  0  0  0  0  0  0  0  0  0  0
    2.1925   -1.3654    0.3380 C   0  0  0  0  0  0  0  0  0  0  0  0
    0.8452   -1.7186    0.9589 C   0  0  0  0  0  0  0  0  0  0  0  0
    0.8894   -2.0431    2.4547 C   0  0  0  0  0  0  0  0  0  0  0  0
   -0.0575   -0.5958    0.7284 N   0  0  0  0  0  0  0  0  0  0  0  0
   -1.3996   -0.7132    0.6172 C   0  0  0  0  0  0  0  0  0  0  0  0
   -2.2853    0.3442    0.5785 C   0  0  0  0  0  0  0  0  0  0  0  0
   -2.0081    1.7925    0.7576 C   0  0  0  0  0  0  0  0  0  0  0  0
   -3.5491   -0.2221    0.3870 N   0  0  0  0  0  0  0  0  0  0  0  0
   -4.8191    0.3861    0.1270 C   0  0  0  0  0  0  0  0  0  0  0  0
   -5.9845   -0.3846    0.2954 C   0  0  0  0  0  0  0  0  0  0  0  0
   -7.2465    0.1628    0.0511 C   0  0  0  0  0  0  0  0  0  0  0  0
   -7.3616    1.4815   -0.3777 C   0  0  0  0  0  0  0  0  0  0  0  0
   -6.2152    2.2483   -0.5704 C   0  0  0  0  0  0  0  0  0  0  0  0
   -4.9485    1.7042   -0.3257 C   0  0  0  0  0  0  0  0  0  0  0  0
   -3.4889   -1.5836    0.4725 N   0  0  0  0  0  0  0  0  0  0  0  0
   -2.1920   -1.8658    0.5476 C   0  0  0  0  0  0  0  0  0  0  0  0
    3.2803   -0.8811    1.0837 C   0  0  0  0  0  0  0  0  0  0  0  0
    4.4898   -0.5609    0.4600 C   0  0  0  0  0  0  0  0  0  0  0  0
    5.7762    3.2298   -2.0751 H   0  0  0  0  0  0  0  0  0  0  0  0
    5.9544    2.2722   -0.6016 H   0  0  0  0  0  0  0  0  0  0  0  0
    4.3807    2.3393   -1.4439 H   0  0  0  0  0  0  0  0  0  0  0  0
    5.5362    1.1434   -3.3846 H   0  0  0  0  0  0  0  0  0  0  0  0
    3.6465   -1.3141   -2.7614 H   0  0  0  0  0  0  0  0  0  0  0  0
    1.5086   -1.8594   -1.6590 H   0  0  0  0  0  0  0  0  0  0  0  0
    0.4870   -2.6183    0.4407 H   0  0  0  0  0  0  0  0  0  0  0  0
   -0.0869   -2.3981    2.8035 H   0  0  0  0  0  0  0  0  0  0  0  0
    1.6234   -2.8278    2.6674 H   0  0  0  0  0  0  0  0  0  0  0  0
    1.1405   -1.1632    3.0580 H   0  0  0  0  0  0  0  0  0  0  0  0
    0.3733    0.3130    0.8698 H   0  0  0  0  0  0  0  0  0  0  0  0
   -2.7873    2.2856    1.3462 H   0  0  0  0  0  0  0  0  0  0  0  0
   -1.9021    2.2901   -0.2113 H   0  0  0  0  0  0  0  0  0  0  0  0
   -1.0725    1.9481    1.3056 H   0  0  0  0  0  0  0  0  0  0  0  0
   -5.9261   -1.4192    0.6310 H   0  0  0  0  0  0  0  0  0  0  0  0
   -8.1362   -0.4452    0.1938 H   0  0  0  0  0  0  0  0  0  0  0  0
   -8.3425    1.9070   -0.5723 H   0  0  0  0  0  0  0  0  0  0  0  0
   -6.3047    3.2718   -0.9274 H   0  0  0  0  0  0  0  0  0  0  0  0
   -4.0941    2.3307   -0.5460 H   0  0  0  0  0  0  0  0  0  0  0  0
   -1.8914   -2.9039    0.5668 H   0  0  0  0  0  0  0  0  0  0  0  0
    3.2092   -0.7493    2.1611 H   0  0  0  0  0  0  0  0  0  0  0  0
    5.3253   -0.2030    1.0586 H   0  0  0  0  0  0  0  0  0  0  0  0
  1  2  1  0
  2  3  1  0
  3  4  2  0
  3  5  2  0
  3  6  1  0
  6  7  1  0
  7  8  2  0
  8  9  1  0
  9 10  1  0
 10 11  1  0
 10 12  1  0
 12 13  1  0
 13 14  2  0
 14 15  1  0
 14 16  1  0
 16 17  1  0
 17 18  2  0
 18 19  1  0
 19 20  2  0
 20 21  1  0
 21 22  2  0
 16 23  1  0
 23 24  2  0
  9 25  2  0
 25 26  1  0
 26  6  2  0
 24 13  1  0
 22 17  1  0
  1 27  1  0
  1 28  1  0
  1 29  1  0
  2 30  1  0
  7 31  1  0
  8 32  1  0
 10 33  1  0
 11 34  1  0
 11 35  1  0
 11 36  1  0
 12 37  1  0
 15 38  1  0
 15 39  1  0
 15 40  1  0
 18 41  1  0
 19 42  1  0
 20 43  1  0
 21 44  1  0
 22 45  1  0
 24 46  1  0
 25 47  1  0
 26 48  1  0
M  END
$$$$
OCNT-2308782
     RDKit          3D

 45 47  0  0  0  0  0  0  0  0999 V2000
   -4.2871   -0.0932   -1.8191 C   0  0  0  0  0  0  0  0  0  0  0  0
   -3.8487    0.4190   -0.5335 N   0  0  0  0  0  0  0  0  0  0  0  0
   -3.4345   -0.5015    0.4500 C   0  0  0  0  0  0  0  0  0  0  0  0
   -3.9619   -1.7992    0.5310 C   0  0  0  0  0  0  0  0  0  0  0  0
   -3.5769   -2.6798    1.5454 C   0  0  0  0  0  0  0  0  0  0  0  0
   -2.6768   -2.2682    2.5198 C   0  0  0  0  0  0  0  0  0  0  0  0
   -2.1753   -0.9694    2.4897 C   0  0  0  0  0  0  0  0  0  0  0  0
   -2.5528   -0.0719    1.4717 C   0  0  0  0  0  0  0  0  0  0  0  0
   -2.0212    1.3481    1.5318 C   0  0  0  0  0  0  0  0  0  0  0  0
   -1.3767    1.8171    0.2926 N   0  0  0  0  0  0  0  0  0  0  0  0
   -0.1302    1.1011   -0.0370 C   0  0  0  0  0  0  0  0  0  0  0  0
    0.3158    1.5074   -1.4434 C   0  0  0  0  0  0  0  0  0  0  0  0
    1.5419    0.7004   -1.8895 C   0  0  0  0  0  0  0  0  0  0  0  0
    2.3649    0.2885   -0.7386 N   0  0  0  0  0  0  0  0  0  0  0  0
    3.5989   -0.2786   -1.1038 C   0  0  0  0  0  0  0  0  0  0  0  0
    4.3926   -0.9148   -0.1520 C   0  0  0  0  0  0  0  0  0  0  0  0
    5.6033   -1.4974   -0.5202 C   0  0  0  0  0  0  0  0  0  0  0  0
    5.9804   -1.4329   -1.8423 C   0  0  0  0  0  0  0  0  0  0  0  0
    5.2142   -0.8372   -2.7684 N   0  0  0  0  0  0  0  0  0  0  0  0
    4.0162   -0.2718   -2.3908 N   0  0  0  0  0  0  0  0  0  0  0  0
    2.3991    1.2484    0.3618 C   0  0  0  0  0  0  0  0  0  0  0  0
    0.9993    1.3733    0.9745 C   0  0  0  0  0  0  0  0  0  0  0  0
   -5.2536   -0.6004   -1.7403 H   0  0  0  0  0  0  0  0  0  0  0  0
   -3.5462   -0.7715   -2.2554 H   0  0  0  0  0  0  0  0  0  0  0  0
   -4.4190    0.7452   -2.5107 H   0  0  0  0  0  0  0  0  0  0  0  0
   -3.1008    1.1166   -0.6421 H   0  0  0  0  0  0  0  0  0  0  0  0
   -4.6882   -2.1494   -0.1955 H   0  0  0  0  0  0  0  0  0  0  0  0
   -3.9912   -3.6838    1.5750 H   0  0  0  0  0  0  0  0  0  0  0  0
   -2.3794   -2.9506    3.3111 H   0  0  0  0  0  0  0  0  0  0  0  0
   -1.4909   -0.6535    3.2734 H   0  0  0  0  0  0  0  0  0  0  0  0
   -2.8762    2.0042    1.7393 H   0  0  0  0  0  0  0  0  0  0  0  0
   -1.3409    1.4784    2.3816 H   0  0  0  0  0  0  0  0  0  0  0  0
   -1.1785    2.8119    0.3952 H   0  0  0  0  0  0  0  0  0  0  0  0
   -0.3299    0.0220   -0.0656 H   0  0  0  0  0  0  0  0  0  0  0  0
    0.5641    2.5777   -1.4579 H   0  0  0  0  0  0  0  0  0  0  0  0
   -0.4911    1.3675   -2.1737 H   0  0  0  0  0  0  0  0  0  0  0  0
    1.2005   -0.1990   -2.4174 H   0  0  0  0  0  0  0  0  0  0  0  0
    2.1073    1.3157   -2.6014 H   0  0  0  0  0  0  0  0  0  0  0  0
    4.0618   -0.9940    0.8776 H   0  0  0  0  0  0  0  0  0  0  0  0
    6.2255   -1.9988    0.2116 H   0  0  0  0  0  0  0  0  0  0  0  0
    6.9063   -1.8644   -2.2021 H   0  0  0  0  0  0  0  0  0  0  0  0
    3.0949    0.9743    1.1623 H   0  0  0  0  0  0  0  0  0  0  0  0
    2.7295    2.2258   -0.0148 H   0  0  0  0  0  0  0  0  0  0  0  0
    0.9021    0.6641    1.8067 H   0  0  0  0  0  0  0  0  0  0  0  0
    0.9097    2.3743    1.4158 H   0  0  0  0  0  0  0  0  0  0  0  0
  1  2  1  0
  2  3  1  0
  3  4  2  0
  4  5  1  0
  5  6  2  0
  6  7  1  0
  7  8  2  0
  8  9  1  0
  9 10  1  0
 10 11  1  0
 11 12  1  0
 12 13  1  0
 13 14  1  0
 14 15  1  0
 15 16  2  0
 16 17  1  0
 17 18  2  0
 18 19  1  0
 19 20  2  0
 14 21  1  0
 21 22  1  0
  8  3  1  0
 22 11  1  0
 20 15  1  0
  1 23  1  0
  1 24  1  0
  1 25  1  0
  2 26  1  0
  4 27  1  0
  5 28  1  0
  6 29  1  0
  7 30  1  0
  9 31  1  0
  9 32  1  0
 10 33  1  0
 11 34  1  0
 12 35  1  0
 12 36  1  0
 13 37  1  0
 13 38  1  0
 16 39  1  0
 17 40  1  0
 18 41  1  0
 21 42  1  0
 21 43  1  0
 22 44  1  0
 22 45  1  0
M  END
$$$$
OCNT-2308794
     RDKit          3D

 43 45  0  0  0  0  0  0  0  0999 V2000
    1.9593    2.6966    0.5230 O   0  0  0  0  0  0  0  0  0  0  0  0
    1.5331    1.5564    0.6791 C   0  0  0  0  0  0  0  0  0  0  0  0
    0.1899    1.2752    0.7839 N   0  0  0  0  0  0  0  0  0  0  0  0
   -0.8602    2.2531    0.6129 C   0  0  0  0  0  0  0  0  0  0  0  0
   -1.7111    2.0183   -0.6529 C   0  0  0  0  0  0  0  0  0  0  0  0
   -2.4211    0.7318   -0.7957 N   0  0  0  0  0  0  0  0  0  0  0  0
   -3.3258    0.4454    0.3143 C   0  0  0  0  0  0  0  0  0  0  0  0
   -4.0652   -0.8970    0.2723 C   0  0  0  0  0  0  0  0  0  0  0  0
   -4.5426   -1.3230   -1.1136 C   0  0  0  0  0  0  0  0  0  0  0  0
   -3.4508   -2.0423   -1.9026 C   0  0  0  0  0  0  0  0  0  0  0  0
   -2.2759   -1.1693   -2.3409 C   0  0  0  0  0  0  0  0  0  0  0  0
   -1.5802   -0.3811   -1.2271 C   0  0  0  0  0  0  0  0  0  0  0  0
    2.3623    0.3665    0.7718 C   0  0  0  0  0  0  0  0  0  0  0  0
    1.8411   -0.8557    0.8409 N   0  0  0  0  0  0  0  0  0  0  0  0
    2.9076   -1.7150    0.8860 C   0  0  0  0  0  0  0  0  0  0  0  0
    4.0930   -1.0232    0.8626 C   0  0  0  0  0  0  0  0  0  0  0  0
    5.4742   -1.3620    0.8882 C   0  0  0  0  0  0  0  0  0  0  0  0
    6.3937   -0.3800    0.8534 C   0  0  0  0  0  0  0  0  0  0  0  0
    6.0105    1.0209    0.7827 C   0  0  0  0  0  0  0  0  0  0  0  0
    4.7044    1.3394    0.7579 C   0  0  0  0  0  0  0  0  0  0  0  0
    3.7468    0.3237    0.7940 N   0  0  0  0  0  0  0  0  0  0  0  0
   -0.0504    0.2951    0.8974 H   0  0  0  0  0  0  0  0  0  0  0  0
   -1.4789    2.2232    1.5150 H   0  0  0  0  0  0  0  0  0  0  0  0
   -0.4242    3.2580    0.5621 H   0  0  0  0  0  0  0  0  0  0  0  0
   -2.4633    2.8171   -0.6942 H   0  0  0  0  0  0  0  0  0  0  0  0
   -1.0849    2.1799   -1.5410 H   0  0  0  0  0  0  0  0  0  0  0  0
   -2.7954    0.4775    1.2759 H   0  0  0  0  0  0  0  0  0  0  0  0
   -4.0808    1.2414    0.3469 H   0  0  0  0  0  0  0  0  0  0  0  0
   -3.4333   -1.6824    0.7057 H   0  0  0  0  0  0  0  0  0  0  0  0
   -4.9363   -0.8139    0.9337 H   0  0  0  0  0  0  0  0  0  0  0  0
   -5.3745   -2.0262   -0.9808 H   0  0  0  0  0  0  0  0  0  0  0  0
   -4.9397   -0.4714   -1.6784 H   0  0  0  0  0  0  0  0  0  0  0  0
   -3.9043   -2.4844   -2.7996 H   0  0  0  0  0  0  0  0  0  0  0  0
   -3.0681   -2.8824   -1.3098 H   0  0  0  0  0  0  0  0  0  0  0  0
   -2.6133   -0.4773   -3.1236 H   0  0  0  0  0  0  0  0  0  0  0  0
   -1.5319   -1.8209   -2.8179 H   0  0  0  0  0  0  0  0  0  0  0  0
   -0.6418   -0.0094   -1.6567 H   0  0  0  0  0  0  0  0  0  0  0  0
   -1.2968   -1.0396   -0.3967 H   0  0  0  0  0  0  0  0  0  0  0  0
    2.7660   -2.7865    0.9337 H   0  0  0  0  0  0  0  0  0  0  0  0
    5.7701   -2.4066    0.9406 H   0  0  0  0  0  0  0  0  0  0  0  0
    7.4542   -0.6129    0.8733 H   0  0  0  0  0  0  0  0  0  0  0  0
    6.7851    1.7781    0.7477 H   0  0  0  0  0  0  0  0  0  0  0  0
    4.3597    2.3650    0.7041 H   0  0  0  0  0  0  0  0  0  0  0  0
  1  2  2  0
  2  3  1  0
  3  4  1  0
  4  5  1  0
  5  6  1  0
  6  7  1  0
  7  8  1  0
  8  9  1  0
  9 10  1  0
 10 11  1  0
 11 12  1  0
  2 13  1  0
 13 14  2  0
 14 15  1  0
 15 16  2  0
 16 17  1  0
 17 18  2  0
 18 19  1  0
 19 20  2  0
 20 21  1  0
 12  6  1  0
 21 13  1  0
 21 16  1  0
  3 22  1  0
  4 23  1  0
  4 24  1  0
  5 25  1  0
  5 26  1  0
  7 27  1  0
  7 28  1  0
  8 29  1  0
  8 30  1  0
  9 31  1  0
  9 32  1  0
 10 33  1  0
 10 34  1  0
 11 35  1  0
 11 36  1  0
 12 37  1  0
 12 38  1  0
 15 39  1  0
 17 40  1  0
 18 41  1  0
 19 42  1  0
 20 43  1  0
M  END
$$$$
OCNT-2308798
     RDKit          3D

 44 47  0  0  0  0  0  0  0  0999 V2000
   -7.6418   -1.0603    0.4145 C   0  0  0  0  0  0  0  0  0  0  0  0
   -6.1673   -0.8051    0.3130 C   0  0  0  0  0  0  0  0  0  0  0  0
   -5.6261    0.4133    0.7340 C   0  0  0  0  0  0  0  0  0  0  0  0
   -4.2542    0.6699    0.6133 C   0  0  0  0  0  0  0  0  0  0  0  0
   -3.4023   -0.2845    0.0483 C   0  0  0  0  0  0  0  0  0  0  0  0
   -1.9989   -0.0736   -0.0920 N   0  0  0  0  0  0  0  0  0  0  0  0
   -1.1868   -1.1353   -0.3530 N   0  0  0  0  0  0  0  0  0  0  0  0
    0.0718   -0.7434   -0.2909 N   0  0  0  0  0  0  0  0  0  0  0  0
    0.0878    0.6075   -0.0700 C   0  0  0  0  0  0  0  0  0  0  0  0
    1.3441    1.3534    0.0343 C   0  0  0  0  0  0  0  0  0  0  0  0
    1.3675    2.5549    0.2725 O   0  0  0  0  0  0  0  0  0  0  0  0
    2.4414    0.5372   -0.1581 N   0  0  0  0  0  0  0  0  0  0  0  0
    3.8142    0.8756   -0.1229 C   0  0  0  0  0  0  0  0  0  0  0  0
    4.2681    2.1736    0.1211 C   0  0  0  0  0  0  0  0  0  0  0  0
    5.6329    2.4435    0.1369 C   0  0  0  0  0  0  0  0  0  0  0  0
    6.5076    1.4027   -0.0954 C   0  0  0  0  0  0  0  0  0  0  0  0
    6.1130    0.1362   -0.3358 N   0  0  0  0  0  0  0  0  0  0  0  0
    4.7774   -0.1368   -0.3450 C   0  0  0  0  0  0  0  0  0  0  0  0
    4.3820   -1.5762   -0.6342 C   0  0  0  0  0  0  0  0  0  0  0  0
    3.7957   -2.4399    0.4614 C   0  0  0  0  0  0  0  0  0  0  0  0
    5.1801   -2.7157   -0.0396 C   0  0  0  0  0  0  0  0  0  0  0  0
   -1.2179    1.0764   -0.0044 C   0  0  0  0  0  0  0  0  0  0  0  0
   -1.7127    2.4710    0.0822 C   0  0  0  0  0  0  0  0  0  0  0  0
   -3.9484   -1.5111   -0.3682 C   0  0  0  0  0  0  0  0  0  0  0  0
   -5.3186   -1.7625   -0.2472 C   0  0  0  0  0  0  0  0  0  0  0  0
   -7.8454   -2.1277    0.5504 H   0  0  0  0  0  0  0  0  0  0  0  0
   -8.1442   -0.7173   -0.4951 H   0  0  0  0  0  0  0  0  0  0  0  0
   -8.0706   -0.5363    1.2752 H   0  0  0  0  0  0  0  0  0  0  0  0
   -6.2703    1.1727    1.1736 H   0  0  0  0  0  0  0  0  0  0  0  0
   -3.8972    1.6116    1.0106 H   0  0  0  0  0  0  0  0  0  0  0  0
    2.2162   -0.4376   -0.3366 H   0  0  0  0  0  0  0  0  0  0  0  0
    3.5874    2.9984    0.3016 H   0  0  0  0  0  0  0  0  0  0  0  0
    5.9999    3.4462    0.3250 H   0  0  0  0  0  0  0  0  0  0  0  0
    7.5820    1.5614   -0.0960 H   0  0  0  0  0  0  0  0  0  0  0  0
    4.0139   -1.7478   -1.6432 H   0  0  0  0  0  0  0  0  0  0  0  0
    3.0106   -3.1378    0.1928 H   0  0  0  0  0  0  0  0  0  0  0  0
    3.7000   -2.0285    1.4604 H   0  0  0  0  0  0  0  0  0  0  0  0
    6.0160   -2.4765    0.6092 H   0  0  0  0  0  0  0  0  0  0  0  0
    5.3395   -3.5930   -0.6555 H   0  0  0  0  0  0  0  0  0  0  0  0
   -0.9713    3.1818   -0.2947 H   0  0  0  0  0  0  0  0  0  0  0  0
   -2.6045    2.6207   -0.5339 H   0  0  0  0  0  0  0  0  0  0  0  0
   -1.9319    2.7414    1.1193 H   0  0  0  0  0  0  0  0  0  0  0  0
   -3.3237   -2.2875   -0.8078 H   0  0  0  0  0  0  0  0  0  0  0  0
   -5.7152   -2.7149   -0.5929 H   0  0  0  0  0  0  0  0  0  0  0  0
  1  2  1  0
  2  3  1  0
  3  4  2  0
  4  5  1  0
  5  6  1  0
  6  7  1  0
  7  8  2  0
  8  9  1  0
  9 10  1  0
 10 11  2  0
 10 12  1  0
 12 13  1  0
 13 14  1  0
 14 15  2  0
 15 16  1  0
 16 17  2  0
 17 18  1  0
 18 19  1  0
 19 20  1  0
 20 21  1  0
  9 22  2  0
 22 23  1  0
  5 24  2  0
 24 25  1  0
 25  2  2  0
 22  6  1  0
 18 13  2  0
 21 19  1  0
  1 26  1  0
  1 27  1  0
  1 28  1  0
  3 29  1  0
  4 30  1  0
 12 31  1  0
 14 32  1  0
 15 33  1  0
 16 34  1  0
 19 35  1  0
 20 36  1  0
 20 37  1  0
 21 38  1  0
 21 39  1  0
 23 40  1  0
 23 41  1  0
 23 42  1  0
 24 43  1  0
 25 44  1  0
M  END
$$$$
OCNT-2308800
     RDKit          3D

 42 43  0  0  0  0  0  0  0  0999 V2000
   -4.8996   -0.9439   -0.1426 C   0  0  0  0  0  0  0  0  0  0  0  0
   -4.1600    0.3097    0.3356 C   0  0  0  0  0  0  0  0  0  0  0  0
   -4.4903    1.3703   -0.5846 O   0  0  0  0  0  0  0  0  0  0  0  0
   -2.6183    0.1283    0.3105 C   0  0  0  0  0  0  0  0  0  0  0  0
   -2.1319   -0.0312   -1.0758 N   0  0  0  0  0  0  0  0  0  0  0  0
   -0.6733    0.0882   -1.2461 C   0  0  0  0  0  0  0  0  0  0  0  0
   -0.1273    1.4987   -0.9525 C   0  0  0  0  0  0  0  0  0  0  0  0
    0.8290    1.5184    0.2335 C   0  0  0  0  0  0  0  0  0  0  0  0
    1.9294    0.5695    0.0662 N   0  0  0  0  0  0  0  0  0  0  0  0
    3.0570    0.7551    0.8773 C   0  0  0  0  0  0  0  0  0  0  0  0
    3.0640    1.5931    1.7762 O   0  0  0  0  0  0  0  0  0  0  0  0
    4.2209   -0.0639    0.6032 C   0  0  0  0  0  0  0  0  0  0  0  0
    5.1375   -0.5753    1.5100 C   0  0  0  0  0  0  0  0  0  0  0  0
    6.1197   -1.2850    0.7856 C   0  0  0  0  0  0  0  0  0  0  0  0
    7.4356   -2.1090    1.4658 Cl  0  0  0  0  0  0  0  0  0  0  0  0
    5.8138   -1.1686   -0.5485 C   0  0  0  0  0  0  0  0  0  0  0  0
    4.6822   -0.4033   -0.6512 N   0  0  0  0  0  0  0  0  0  0  0  0
    1.6148   -0.7105   -0.5754 C   0  0  0  0  0  0  0  0  0  0  0  0
    0.1197   -1.0187   -0.5356 C   0  0  0  0  0  0  0  0  0  0  0  0
   -4.6014    0.6538    1.7718 C   0  0  0  0  0  0  0  0  0  0  0  0
   -5.9376    0.8804    1.8335 F   0  0  0  0  0  0  0  0  0  0  0  0
   -3.9890    1.7839    2.2084 F   0  0  0  0  0  0  0  0  0  0  0  0
   -5.9844   -0.7938   -0.0944 H   0  0  0  0  0  0  0  0  0  0  0  0
   -4.6454   -1.8174    0.4663 H   0  0  0  0  0  0  0  0  0  0  0  0
   -4.6755   -1.1704   -1.1905 H   0  0  0  0  0  0  0  0  0  0  0  0
   -3.8183    1.3128   -1.2946 H   0  0  0  0  0  0  0  0  0  0  0  0
   -2.1631    1.0218    0.7502 H   0  0  0  0  0  0  0  0  0  0  0  0
   -2.3360   -0.7349    0.9230 H   0  0  0  0  0  0  0  0  0  0  0  0
   -2.4313   -0.9408   -1.4335 H   0  0  0  0  0  0  0  0  0  0  0  0
   -0.5165   -0.0640   -2.3234 H   0  0  0  0  0  0  0  0  0  0  0  0
   -0.9339    2.2251   -0.7981 H   0  0  0  0  0  0  0  0  0  0  0  0
    0.4143    1.8495   -1.8419 H   0  0  0  0  0  0  0  0  0  0  0  0
    1.2399    2.5268    0.3596 H   0  0  0  0  0  0  0  0  0  0  0  0
    0.3052    1.2635    1.1627 H   0  0  0  0  0  0  0  0  0  0  0  0
    5.0858   -0.4470    2.5842 H   0  0  0  0  0  0  0  0  0  0  0  0
    6.3146   -1.5450   -1.4300 H   0  0  0  0  0  0  0  0  0  0  0  0
    4.2557   -0.1031   -1.5182 H   0  0  0  0  0  0  0  0  0  0  0  0
    2.1598   -1.5234   -0.0849 H   0  0  0  0  0  0  0  0  0  0  0  0
    1.9554   -0.6462   -1.6150 H   0  0  0  0  0  0  0  0  0  0  0  0
   -0.0754   -1.9856   -1.0144 H   0  0  0  0  0  0  0  0  0  0  0  0
   -0.1846   -1.1158    0.5130 H   0  0  0  0  0  0  0  0  0  0  0  0
   -4.3618   -0.1522    2.4725 H   0  0  0  0  0  0  0  0  0  0  0  0
  1  2  1  0
  2  3  1  0
  2  4  1  0
  4  5  1  0
  5  6  1  0
  6  7  1  0
  7  8  1  0
  8  9  1  0
  9 10  1  0
 10 11  2  0
 10 12  1  0
 12 13  2  0
 13 14  1  0
 14 15  1  0
 14 16  2  0
 16 17  1  0
  9 18  1  0
 18 19  1  0
  2 20  1  0
 20 21  1  0
 20 22  1  0
 19  6  1  0
 17 12  1  0
  1 23  1  0
  1 24  1  0
  1 25  1  0
  3 26  1  0
  4 27  1  0
  4 28  1  0
  5 29  1  0
  6 30  1  0
  7 31  1  0
  7 32  1  0
  8 33  1  0
  8 34  1  0
 13 35  1  0
 16 36  1  0
 17 37  1  0
 18 38  1  0
 18 39  1  0
 19 40  1  0
 19 41  1  0
 20 42  1  0
M  END
$$$$
OCNT-2308810
     RDKit          3D

 44 47  0  0  0  0  0  0  0  0999 V2000
   -2.1042    2.1435   -1.5570 O   0  0  0  0  0  0  0  0  0  0  0  0
   -2.4192    1.1861   -0.8575 C   0  0  0  0  0  0  0  0  0  0  0  0
   -1.5432    0.5759    0.0138 N   0  0  0  0  0  0  0  0  0  0  0  0
   -0.1645    1.0079    0.1355 C   0  0  0  0  0  0  0  0  0  0  0  0
    0.7108    0.5098   -1.0227 C   0  0  0  0  0  0  0  0  0  0  0  0
    0.9219   -1.0044   -1.0081 C   0  0  0  0  0  0  0  0  0  0  0  0
    2.0563   -1.2151   -0.0061 C   0  0  0  0  0  0  0  0  0  0  0  0
    2.8053    0.0400   -0.0400 N   0  0  0  0  0  0  0  0  0  0  0  0
    4.0846    0.1750    0.4525 C   0  0  0  0  0  0  0  0  0  0  0  0
    4.8746    1.3026    0.1703 C   0  0  0  0  0  0  0  0  0  0  0  0
    6.1738    1.4501    0.6737 C   0  0  0  0  0  0  0  0  0  0  0  0
    6.7209    0.4653    1.4862 C   0  0  0  0  0  0  0  0  0  0  0  0
    5.9601   -0.6564    1.7889 C   0  0  0  0  0  0  0  0  0  0  0  0
    6.6842   -2.0044    2.9018 Br  0  0  0  0  0  0  0  0  0  0  0  0
    4.6632   -0.7990    1.2828 C   0  0  0  0  0  0  0  0  0  0  0  0
    2.1447    1.0338   -0.8863 C   0  0  0  0  0  0  0  0  0  0  0  0
   -3.7357    0.5617   -0.9348 C   0  0  0  0  0  0  0  0  0  0  0  0
   -4.5352    0.6122   -2.0692 C   0  0  0  0  0  0  0  0  0  0  0  0
   -5.6849   -0.0874   -1.8267 N   0  0  0  0  0  0  0  0  0  0  0  0
   -5.6697   -0.5694   -0.5497 C   0  0  0  0  0  0  0  0  0  0  0  0
   -6.6681   -1.2896   -0.0071 N   0  0  0  0  0  0  0  0  0  0  0  0
   -6.4411   -1.6210    1.2824 C   0  0  0  0  0  0  0  0  0  0  0  0
   -5.3156   -1.2769    2.0173 C   0  0  0  0  0  0  0  0  0  0  0  0
   -4.3067   -0.5324    1.4030 C   0  0  0  0  0  0  0  0  0  0  0  0
   -4.4791   -0.1704    0.0524 C   0  0  0  0  0  0  0  0  0  0  0  0
   -1.7997   -0.3272    0.3861 H   0  0  0  0  0  0  0  0  0  0  0  0
    0.1968    0.6504    1.1054 H   0  0  0  0  0  0  0  0  0  0  0  0
   -0.1561    2.1039    0.1620 H   0  0  0  0  0  0  0  0  0  0  0  0
    0.2746    0.8304   -1.9754 H   0  0  0  0  0  0  0  0  0  0  0  0
    0.0283   -1.5797   -0.7501 H   0  0  0  0  0  0  0  0  0  0  0  0
    1.2512   -1.3330   -2.0021 H   0  0  0  0  0  0  0  0  0  0  0  0
    1.6565   -1.3880    0.9992 H   0  0  0  0  0  0  0  0  0  0  0  0
    2.6626   -2.0771   -0.3055 H   0  0  0  0  0  0  0  0  0  0  0  0
    4.4937    2.0989   -0.4637 H   0  0  0  0  0  0  0  0  0  0  0  0
    6.7516    2.3368    0.4264 H   0  0  0  0  0  0  0  0  0  0  0  0
    7.7278    0.5812    1.8758 H   0  0  0  0  0  0  0  0  0  0  0  0
    4.0994   -1.6854    1.5569 H   0  0  0  0  0  0  0  0  0  0  0  0
    2.1659    2.0380   -0.4490 H   0  0  0  0  0  0  0  0  0  0  0  0
    2.6296    1.0622   -1.8696 H   0  0  0  0  0  0  0  0  0  0  0  0
   -4.3640    1.0840   -3.0287 H   0  0  0  0  0  0  0  0  0  0  0  0
   -6.4522   -0.2278   -2.4677 H   0  0  0  0  0  0  0  0  0  0  0  0
   -7.2376   -2.2002    1.7446 H   0  0  0  0  0  0  0  0  0  0  0  0
   -5.2284   -1.5758    3.0565 H   0  0  0  0  0  0  0  0  0  0  0  0
   -3.4330   -0.2293    1.9701 H   0  0  0  0  0  0  0  0  0  0  0  0
  1  2  2  0
  2  3  1  0
  3  4  1  0
  4  5  1  0
  5  6  1  0
  6  7  1  0
  7  8  1  0
  8  9  1  0
  9 10  2  0
 10 11  1  0
 11 12  2  0
 12 13  1  0
 13 14  1  0
 13 15  2  0
  8 16  1  0
  2 17  1  0
 17 18  2  0
 18 19  1  0
 19 20  1  0
 20 21  1  0
 21 22  2  0
 22 23  1  0
 23 24  2  0
 24 25  1  0
 16  5  1  0
 25 17  1  0
 15  9  1  0
 25 20  2  0
  3 26  1  0
  4 27  1  0
  4 28  1  0
  5 29  1  0
  6 30  1  0
  6 31  1  0
  7 32  1  0
  7 33  1  0
 10 34  1  0
 11 35  1  0
 12 36  1  0
 15 37  1  0
 16 38  1  0
 16 39  1  0
 18 40  1  0
 19 41  1  0
 22 42  1  0
 23 43  1  0
 24 44  1  0
M  END
$$$$
OCNT-2308818
     RDKit          3D

 49 53  0  0  0  0  0  0  0  0999 V2000
    6.0048    3.2684   -1.3535 C   0  0  0  0  0  0  0  0  0  0  0  0
    6.5158    2.0980   -0.8119 C   0  0  0  0  0  0  0  0  0  0  0  0
    5.6413    1.0719   -0.4570 C   0  0  0  0  0  0  0  0  0  0  0  0
    4.2651    1.2327   -0.6505 C   0  0  0  0  0  0  0  0  0  0  0  0
    3.2950    0.1650   -0.2874 C   0  0  0  0  0  0  0  0  0  0  0  0
    1.9908    0.3784   -0.5351 N   0  0  0  0  0  0  0  0  0  0  0  0
    1.1190   -0.5890   -0.2033 C   0  0  0  0  0  0  0  0  0  0  0  0
   -0.2670   -0.3491   -0.4196 N   0  0  0  0  0  0  0  0  0  0  0  0
   -0.8709    0.1792    0.8222 C   0  0  0  0  0  0  0  0  0  0  0  0
   -2.1683    0.9364    0.5349 C   0  0  0  0  0  0  0  0  0  0  0  0
   -2.8794    0.3588   -0.6881 C   0  0  0  0  0  0  0  0  0  0  0  0
   -4.0895    1.0796   -0.9606 O   0  0  0  0  0  0  0  0  0  0  0  0
   -5.1935    0.6731   -0.2428 C   0  0  0  0  0  0  0  0  0  0  0  0
   -6.3910    1.3327   -0.4919 C   0  0  0  0  0  0  0  0  0  0  0  0
   -7.5440    1.0319    0.1560 N   0  0  0  0  0  0  0  0  0  0  0  0
   -7.4420    0.0372    1.0654 C   0  0  0  0  0  0  0  0  0  0  0  0
   -6.2480   -0.6219    1.3148 C   0  0  0  0  0  0  0  0  0  0  0  0
   -5.0968   -0.3188    0.6708 N   0  0  0  0  0  0  0  0  0  0  0  0
   -1.9848    0.4911   -1.9322 C   0  0  0  0  0  0  0  0  0  0  0  0
   -0.4947    0.5080   -1.5893 C   0  0  0  0  0  0  0  0  0  0  0  0
    1.5373   -1.8042    0.3681 C   0  0  0  0  0  0  0  0  0  0  0  0
    0.6828   -2.8863    0.7013 C   0  0  0  0  0  0  0  0  0  0  0  0
    1.1906   -4.0532    1.2670 C   0  0  0  0  0  0  0  0  0  0  0  0
    2.5545   -4.1555    1.5007 C   0  0  0  0  0  0  0  0  0  0  0  0
    3.3978   -3.0942    1.1587 C   0  0  0  0  0  0  0  0  0  0  0  0
    2.9135   -1.9216    0.5902 C   0  0  0  0  0  0  0  0  0  0  0  0
    3.7842   -0.9583    0.2764 N   0  0  0  0  0  0  0  0  0  0  0  0
    3.7665    2.3869   -1.1838 N   0  0  0  0  0  0  0  0  0  0  0  0
    4.6356    3.3647   -1.5184 C   0  0  0  0  0  0  0  0  0  0  0  0
    6.6566    4.0858   -1.6405 H   0  0  0  0  0  0  0  0  0  0  0  0
    7.5853    1.9792   -0.6653 H   0  0  0  0  0  0  0  0  0  0  0  0
    6.0351    0.1526   -0.0330 H   0  0  0  0  0  0  0  0  0  0  0  0
   -1.0955   -0.6590    1.4917 H   0  0  0  0  0  0  0  0  0  0  0  0
   -0.1895    0.8522    1.3588 H   0  0  0  0  0  0  0  0  0  0  0  0
   -2.8095    0.9250    1.4232 H   0  0  0  0  0  0  0  0  0  0  0  0
   -1.9499    1.9981    0.3563 H   0  0  0  0  0  0  0  0  0  0  0  0
   -3.0817   -0.7118   -0.5458 H   0  0  0  0  0  0  0  0  0  0  0  0
   -6.4524    2.1280   -1.2253 H   0  0  0  0  0  0  0  0  0  0  0  0
   -8.3533   -0.2202    1.5932 H   0  0  0  0  0  0  0  0  0  0  0  0
   -6.1859   -1.4187    2.0472 H   0  0  0  0  0  0  0  0  0  0  0  0
   -2.2333    1.3888   -2.5116 H   0  0  0  0  0  0  0  0  0  0  0  0
   -2.1999   -0.3546   -2.5986 H   0  0  0  0  0  0  0  0  0  0  0  0
    0.0665    0.1502   -2.4624 H   0  0  0  0  0  0  0  0  0  0  0  0
   -0.1769    1.5407   -1.3902 H   0  0  0  0  0  0  0  0  0  0  0  0
   -0.3847   -2.8143    0.5024 H   0  0  0  0  0  0  0  0  0  0  0  0
    0.5252   -4.8754    1.5169 H   0  0  0  0  0  0  0  0  0  0  0  0
    2.9691   -5.0588    1.9403 H   0  0  0  0  0  0  0  0  0  0  0  0
    4.4668   -3.1882    1.3375 H   0  0  0  0  0  0  0  0  0  0  0  0
    4.1832    4.2586   -1.9377 H   0  0  0  0  0  0  0  0  0  0  0  0
  1  2  2  0
  2  3  1  0
  3  4  2  0
  4  5  1  0
  5  6  2  0
  6  7  1  0
  7  8  1  0
  8  9  1  0
  9 10  1  0
 10 11  1  0
 11 12  1  0
 12 13  1  0
 13 14  2  0
 14 15  1  0
 15 16  2  0
 16 17  1  0
 17 18  2  0
 11 19  1  0
 19 20  1  0
  7 21  2  0
 21 22  1  0
 22 23  2  0
 23 24  1  0
 24 25  2  0
 25 26  1  0
 26 27  2  0
  4 28  1  0
 28 29  2  0
 29  1  1  0
 27  5  1  0
 20  8  1  0
 26 21  1  0
 18 13  1  0
  1 30  1  0
  2 31  1  0
  3 32  1  0
  9 33  1  0
  9 34  1  0
 10 35  1  0
 10 36  1  0
 11 37  1  0
 14 38  1  0
 16 39  1  0
 17 40  1  0
 19 41  1  0
 19 42  1  0
 20 43  1  0
 20 44  1  0
 22 45  1  0
 23 46  1  0
 24 47  1  0
 25 48  1  0
 29 49  1  0
M  END
$$$$
OCNT-2308832
     RDKit          3D

 41 42  0  0  0  0  0  0  0  0999 V2000
    5.2793    1.1734   -0.3497 C   0  0  0  0  0  0  0  0  0  0  0  0
    4.7598   -0.2663   -0.2110 C   0  0  0  0  0  0  0  0  0  0  0  0
    5.3096   -1.1239   -1.3646 C   0  0  0  0  0  0  0  0  0  0  0  0
    5.2629   -0.8560    1.1185 C   0  0  0  0  0  0  0  0  0  0  0  0
    3.2539   -0.2506   -0.2296 C   0  0  0  0  0  0  0  0  0  0  0  0
    2.4152   -0.2935    0.7907 N   0  0  0  0  0  0  0  0  0  0  0  0
    1.1784   -0.2163    0.2013 C   0  0  0  0  0  0  0  0  0  0  0  0
   -0.1107   -0.2103    0.7509 C   0  0  0  0  0  0  0  0  0  0  0  0
   -1.2286   -0.0914   -0.1004 C   0  0  0  0  0  0  0  0  0  0  0  0
   -2.5004   -0.1396    0.4813 N   0  0  0  0  0  0  0  0  0  0  0  0
   -3.6754    0.3134   -0.2731 C   0  0  0  0  0  0  0  0  0  0  0  0
   -4.8980    0.4468    0.6668 C   0  0  0  0  0  0  0  0  0  0  0  0
   -5.2971   -0.9014    1.2713 C   0  0  0  0  0  0  0  0  0  0  0  0
   -4.5575    1.3260    1.7670 O   0  0  0  0  0  0  0  0  0  0  0  0
   -6.0764    1.0295   -0.1238 C   0  0  0  0  0  0  0  0  0  0  0  0
   -6.4116    0.2202   -1.1578 F   0  0  0  0  0  0  0  0  0  0  0  0
   -5.7057    2.2209   -0.6695 F   0  0  0  0  0  0  0  0  0  0  0  0
   -1.0205   -0.0612   -1.4917 C   0  0  0  0  0  0  0  0  0  0  0  0
    0.2619   -0.0611   -2.0658 C   0  0  0  0  0  0  0  0  0  0  0  0
    1.3180   -0.1330   -1.1717 C   0  0  0  0  0  0  0  0  0  0  0  0
    2.6500   -0.1429   -1.4597 O   0  0  0  0  0  0  0  0  0  0  0  0
    4.9468    1.6297   -1.2895 H   0  0  0  0  0  0  0  0  0  0  0  0
    6.3747    1.2035   -0.3335 H   0  0  0  0  0  0  0  0  0  0  0  0
    4.9153    1.8082    0.4669 H   0  0  0  0  0  0  0  0  0  0  0  0
    5.0323   -0.7119   -2.3414 H   0  0  0  0  0  0  0  0  0  0  0  0
    6.4038   -1.1761   -1.3310 H   0  0  0  0  0  0  0  0  0  0  0  0
    4.9230   -2.1487   -1.3178 H   0  0  0  0  0  0  0  0  0  0  0  0
    6.3584   -0.8833    1.1513 H   0  0  0  0  0  0  0  0  0  0  0  0
    4.9220   -0.2636    1.9762 H   0  0  0  0  0  0  0  0  0  0  0  0
    4.8988   -1.8803    1.2627 H   0  0  0  0  0  0  0  0  0  0  0  0
   -0.2269   -0.2931    1.8259 H   0  0  0  0  0  0  0  0  0  0  0  0
   -2.5008    0.2209    1.4372 H   0  0  0  0  0  0  0  0  0  0  0  0
   -3.8963   -0.3894   -1.0845 H   0  0  0  0  0  0  0  0  0  0  0  0
   -3.4528    1.2960   -0.7085 H   0  0  0  0  0  0  0  0  0  0  0  0
   -5.5252   -1.6397    0.4951 H   0  0  0  0  0  0  0  0  0  0  0  0
   -4.5045   -1.3028    1.9122 H   0  0  0  0  0  0  0  0  0  0  0  0
   -6.1780   -0.7903    1.9128 H   0  0  0  0  0  0  0  0  0  0  0  0
   -4.2931    2.1809    1.3754 H   0  0  0  0  0  0  0  0  0  0  0  0
   -6.9563    1.2063    0.5023 H   0  0  0  0  0  0  0  0  0  0  0  0
   -1.8671   -0.0322   -2.1732 H   0  0  0  0  0  0  0  0  0  0  0  0
    0.4188   -0.0166   -3.1360 H   0  0  0  0  0  0  0  0  0  0  0  0
  1  2  1  0
  2  3  1  0
  2  4  1  0
  2  5  1  0
  5  6  2  0
  6  7  1  0
  7  8  2  0
  8  9  1  0
  9 10  1  0
 10 11  1  0
 11 12  1  0
 12 13  1  0
 12 14  1  0
 12 15  1  0
 15 16  1  0
 15 17  1  0
  9 18  2  0
 18 19  1  0
 19 20  2  0
 20 21  1  0
 21  5  1  0
 20  7  1  0
  1 22  1  0
  1 23  1  0
  1 24  1  0
  3 25  1  0
  3 26  1  0
  3 27  1  0
  4 28  1  0
  4 29  1  0
  4 30  1  0
  8 31  1  0
 10 32  1  0
 11 33  1  0
 11 34  1  0
 13 35  1  0
 13 36  1  0
 13 37  1  0
 14 38  1  0
 15 39  1  0
 18 40  1  0
 19 41  1  0
M  END
$$$$
OCNT-2308837
     RDKit          3D

 47 49  0  0  0  0  0  0  0  0999 V2000
   -0.3778   -1.7502   -1.9933 C   0  0  0  0  0  0  0  0  0  0  0  0
   -0.6174   -0.7065   -0.8958 C   0  0  0  0  0  0  0  0  0  0  0  0
    0.4334   -0.7468    0.1372 N   0  0  0  0  0  0  0  0  0  0  0  0
    1.6861   -0.0979   -0.3138 C   0  0  0  0  0  0  0  0  0  0  0  0
    2.8583   -0.3151    0.6949 C   0  0  0  0  0  0  0  0  0  0  0  0
    3.3115   -1.7846    0.7219 C   0  0  0  0  0  0  0  0  0  0  0  0
    2.3577   -0.0126    2.0114 O   0  0  0  0  0  0  0  0  0  0  0  0
    4.0299    0.6070    0.3548 C   0  0  0  0  0  0  0  0  0  0  0  0
    4.4474    1.6171    1.2376 C   0  0  0  0  0  0  0  0  0  0  0  0
    5.5130    2.4620    0.9165 C   0  0  0  0  0  0  0  0  0  0  0  0
    6.1819    2.3136   -0.2949 C   0  0  0  0  0  0  0  0  0  0  0  0
    5.7861    1.3203   -1.1858 C   0  0  0  0  0  0  0  0  0  0  0  0
    4.7203    0.4754   -0.8648 C   0  0  0  0  0  0  0  0  0  0  0  0
   -1.9809   -0.9341   -0.2505 C   0  0  0  0  0  0  0  0  0  0  0  0
   -2.2427   -2.0869    0.5035 C   0  0  0  0  0  0  0  0  0  0  0  0
   -3.4920   -2.2832    1.0871 C   0  0  0  0  0  0  0  0  0  0  0  0
   -4.5013   -1.3312    0.9284 C   0  0  0  0  0  0  0  0  0  0  0  0
   -4.2669   -0.1680    0.1816 C   0  0  0  0  0  0  0  0  0  0  0  0
   -5.2948    0.8077    0.0176 N   0  0  0  0  0  0  0  0  0  0  0  0
   -5.2217    1.9977   -0.6775 C   0  0  0  0  0  0  0  0  0  0  0  0
   -6.4539    2.5946   -0.5531 C   0  0  0  0  0  0  0  0  0  0  0  0
   -7.2925    1.8215    0.1930 N   0  0  0  0  0  0  0  0  0  0  0  0
   -6.5796    0.7656    0.5203 C   0  0  0  0  0  0  0  0  0  0  0  0
   -3.0030    0.0216   -0.4034 C   0  0  0  0  0  0  0  0  0  0  0  0
   -1.2131   -1.7658   -2.7033 H   0  0  0  0  0  0  0  0  0  0  0  0
   -0.2774   -2.7612   -1.5821 H   0  0  0  0  0  0  0  0  0  0  0  0
    0.5292   -1.5337   -2.5661 H   0  0  0  0  0  0  0  0  0  0  0  0
   -0.6242    0.2885   -1.3600 H   0  0  0  0  0  0  0  0  0  0  0  0
    0.0902   -0.1935    0.9271 H   0  0  0  0  0  0  0  0  0  0  0  0
    1.4890    0.9779   -0.4140 H   0  0  0  0  0  0  0  0  0  0  0  0
    1.9876   -0.4689   -1.2991 H   0  0  0  0  0  0  0  0  0  0  0  0
    3.6480   -2.1344   -0.2594 H   0  0  0  0  0  0  0  0  0  0  0  0
    2.5042   -2.4457    1.0569 H   0  0  0  0  0  0  0  0  0  0  0  0
    4.1354   -1.9220    1.4327 H   0  0  0  0  0  0  0  0  0  0  0  0
    1.6628   -0.6746    2.1777 H   0  0  0  0  0  0  0  0  0  0  0  0
    3.9434    1.7552    2.1925 H   0  0  0  0  0  0  0  0  0  0  0  0
    5.8190    3.2347    1.6170 H   0  0  0  0  0  0  0  0  0  0  0  0
    7.0114    2.9702   -0.5426 H   0  0  0  0  0  0  0  0  0  0  0  0
    6.3082    1.2008   -2.1315 H   0  0  0  0  0  0  0  0  0  0  0  0
    4.4371   -0.2916   -1.5822 H   0  0  0  0  0  0  0  0  0  0  0  0
   -1.4657   -2.8366    0.6424 H   0  0  0  0  0  0  0  0  0  0  0  0
   -3.6801   -3.1821    1.6698 H   0  0  0  0  0  0  0  0  0  0  0  0
   -5.4543   -1.5367    1.4058 H   0  0  0  0  0  0  0  0  0  0  0  0
   -4.3361    2.3317   -1.1939 H   0  0  0  0  0  0  0  0  0  0  0  0
   -6.7763    3.5426   -0.9643 H   0  0  0  0  0  0  0  0  0  0  0  0
   -6.9565   -0.0510    1.1187 H   0  0  0  0  0  0  0  0  0  0  0  0
   -2.7829    0.9091   -0.9894 H   0  0  0  0  0  0  0  0  0  0  0  0
  1  2  1  0
  2  3  1  0
  3  4  1  0
  4  5  1  0
  5  6  1  0
  5  7  1  0
  5  8  1  0
  8  9  2  0
  9 10  1  0
 10 11  2  0
 11 12  1  0
 12 13  2  0
  2 14  1  0
 14 15  2  0
 15 16  1  0
 16 17  2  0
 17 18  1  0
 18 19  1  0
 19 20  1  0
 20 21  2  0
 21 22  1  0
 22 23  2  0
 18 24  2  0
 13  8  1  0
 24 14  1  0
 23 19  1  0
  1 25  1  0
  1 26  1  0
  1 27  1  0
  2 28  1  0
  3 29  1  0
  4 30  1  0
  4 31  1  0
  6 32  1  0
  6 33  1  0
  6 34  1  0
  7 35  1  0
  9 36  1  0
 10 37  1  0
 11 38  1  0
 12 39  1  0
 13 40  1  0
 15 41  1  0
 16 42  1  0
 17 43  1  0
 20 44  1  0
 21 45  1  0
 23 46  1  0
 24 47  1  0
M  END
$$$$
OCNT-2308839
     RDKit          3D

 40 42  0  0  0  0  0  0  0  0999 V2000
   -5.2310   -0.0125   -0.7279 C   0  0  0  0  0  0  0  0  0  0  0  0
   -4.1455    0.8108    0.0007 C   0  0  0  0  0  0  0  0  0  0  0  0
   -3.7962    2.0207   -0.8864 C   0  0  0  0  0  0  0  0  0  0  0  0
   -4.7410    1.3175    1.3275 C   0  0  0  0  0  0  0  0  0  0  0  0
   -2.8901   -0.0863    0.2398 C   0  0  0  0  0  0  0  0  0  0  0  0
   -3.2999   -1.2614    0.9558 O   0  0  0  0  0  0  0  0  0  0  0  0
   -1.7464    0.5963    1.0197 C   0  0  0  0  0  0  0  0  0  0  0  0
   -0.4631   -0.1552    0.9071 C   0  0  0  0  0  0  0  0  0  0  0  0
    0.7851    0.2793    0.5211 C   0  0  0  0  0  0  0  0  0  0  0  0
    1.5914   -0.8342    0.6032 N   0  0  0  0  0  0  0  0  0  0  0  0
    2.9762   -0.9563    0.3196 C   0  0  0  0  0  0  0  0  0  0  0  0
    3.6068   -2.2152    0.4732 C   0  0  0  0  0  0  0  0  0  0  0  0
    4.9708   -2.3707    0.2018 C   0  0  0  0  0  0  0  0  0  0  0  0
    5.6711   -1.2618   -0.2170 C   0  0  0  0  0  0  0  0  0  0  0  0
    6.9946   -1.2258   -0.5243 O   0  0  0  0  0  0  0  0  0  0  0  0
    7.1533    0.1616   -0.8854 C   0  0  0  0  0  0  0  0  0  0  0  0
    5.9302    0.9225   -0.7888 O   0  0  0  0  0  0  0  0  0  0  0  0
    5.0633   -0.0378   -0.3674 C   0  0  0  0  0  0  0  0  0  0  0  0
    3.7206    0.1536   -0.1092 C   0  0  0  0  0  0  0  0  0  0  0  0
    0.8486   -1.8911    1.0167 N   0  0  0  0  0  0  0  0  0  0  0  0
   -0.3970   -1.4851    1.2111 N   0  0  0  0  0  0  0  0  0  0  0  0
   -4.8502   -0.4150   -1.6733 H   0  0  0  0  0  0  0  0  0  0  0  0
   -5.5790   -0.8545   -0.1197 H   0  0  0  0  0  0  0  0  0  0  0  0
   -6.1072    0.6042   -0.9593 H   0  0  0  0  0  0  0  0  0  0  0  0
   -3.1272    2.7233   -0.3802 H   0  0  0  0  0  0  0  0  0  0  0  0
   -4.6975    2.5820   -1.1594 H   0  0  0  0  0  0  0  0  0  0  0  0
   -3.3116    1.7010   -1.8156 H   0  0  0  0  0  0  0  0  0  0  0  0
   -4.0386    1.9649    1.8629 H   0  0  0  0  0  0  0  0  0  0  0  0
   -5.0070    0.4879    1.9914 H   0  0  0  0  0  0  0  0  0  0  0  0
   -5.6509    1.9028    1.1514 H   0  0  0  0  0  0  0  0  0  0  0  0
   -2.5174   -0.4266   -0.7357 H   0  0  0  0  0  0  0  0  0  0  0  0
   -2.5027   -1.8146    1.0807 H   0  0  0  0  0  0  0  0  0  0  0  0
   -2.0018    0.6620    2.0842 H   0  0  0  0  0  0  0  0  0  0  0  0
   -1.5756    1.6133    0.6544 H   0  0  0  0  0  0  0  0  0  0  0  0
    1.1434    1.2476    0.2114 H   0  0  0  0  0  0  0  0  0  0  0  0
    3.0437   -3.0869    0.8057 H   0  0  0  0  0  0  0  0  0  0  0  0
    5.4604   -3.3314    0.3173 H   0  0  0  0  0  0  0  0  0  0  0  0
    7.5192    0.2162   -1.9172 H   0  0  0  0  0  0  0  0  0  0  0  0
    7.9003    0.6136   -0.2227 H   0  0  0  0  0  0  0  0  0  0  0  0
    3.2978    1.1412   -0.2453 H   0  0  0  0  0  0  0  0  0  0  0  0
  1  2  1  0
  2  3  1  0
  2  4  1  0
  2  5  1  0
  5  6  1  0
  5  7  1  0
  7  8  1  0
  8  9  2  0
  9 10  1  0
 10 11  1  0
 11 12  1  0
 12 13  2  0
 13 14  1  0
 14 15  1  0
 15 16  1  0
 16 17  1  0
 17 18  1  0
 18 19  1  0
 10 20  1  0
 20 21  2  0
 21  8  1  0
 19 11  2  0
 18 14  2  0
  1 22  1  0
  1 23  1  0
  1 24  1  0
  3 25  1  0
  3 26  1  0
  3 27  1  0
  4 28  1  0
  4 29  1  0
  4 30  1  0
  5 31  1  0
  6 32  1  0
  7 33  1  0
  7 34  1  0
  9 35  1  0
 12 36  1  0
 13 37  1  0
 16 38  1  0
 16 39  1  0
 19 40  1  0
M  END
$$$$
OCNT-2308851
     RDKit          3D

 49 52  0  0  0  0  0  0  0  0999 V2000
   -5.3456    0.3318   -0.5434 C   0  0  0  0  0  0  0  0  0  0  0  0
   -3.8238    0.1842   -0.6117 C   0  0  0  0  0  0  0  0  0  0  0  0
   -3.4491   -0.9037   -1.6236 C   0  0  0  0  0  0  0  0  0  0  0  0
   -1.9276   -1.0777   -1.7328 C   0  0  0  0  0  0  0  0  0  0  0  0
   -1.1706    0.1752   -1.5964 N   0  0  0  0  0  0  0  0  0  0  0  0
    0.1257    0.1500   -2.2950 C   0  0  0  0  0  0  0  0  0  0  0  0
    1.0882   -0.7956   -1.5800 C   0  0  0  0  0  0  0  0  0  0  0  0
    1.7874   -0.3867   -0.5579 N   0  0  0  0  0  0  0  0  0  0  0  0
    2.5933   -1.3383   -0.0112 C   0  0  0  0  0  0  0  0  0  0  0  0
    2.7096   -2.6388   -0.4455 C   0  0  0  0  0  0  0  0  0  0  0  0
    3.6351   -3.2467    0.3955 C   0  0  0  0  0  0  0  0  0  0  0  0
    4.1030   -2.4038    1.3175 N   0  0  0  0  0  0  0  0  0  0  0  0
    3.4545   -1.2143    1.0807 N   0  0  0  0  0  0  0  0  0  0  0  0
    3.7234   -0.0852    1.9143 C   0  0  0  0  0  0  0  0  0  0  0  0
    3.0735    1.1425    1.7366 C   0  0  0  0  0  0  0  0  0  0  0  0
    3.3677    2.2251    2.5730 C   0  0  0  0  0  0  0  0  0  0  0  0
    4.3091    2.0932    3.5907 C   0  0  0  0  0  0  0  0  0  0  0  0
    4.9595    0.8770    3.7789 C   0  0  0  0  0  0  0  0  0  0  0  0
    4.6693   -0.2075    2.9474 C   0  0  0  0  0  0  0  0  0  0  0  0
    1.9365   -3.0808   -1.5659 C   0  0  0  0  0  0  0  0  0  0  0  0
    1.9557   -4.2186   -2.0194 O   0  0  0  0  0  0  0  0  0  0  0  0
    1.1489   -2.0820   -2.0964 N   0  0  0  0  0  0  0  0  0  0  0  0
   -1.9745    1.3370   -1.9762 C   0  0  0  0  0  0  0  0  0  0  0  0
   -3.1305    1.5313   -0.9711 C   0  0  0  0  0  0  0  0  0  0  0  0
   -2.6139    2.2463    0.2902 C   0  0  0  0  0  0  0  0  0  0  0  0
   -3.6864    2.5932    1.1585 O   0  0  0  0  0  0  0  0  0  0  0  0
   -5.6422    1.0860    0.1916 H   0  0  0  0  0  0  0  0  0  0  0  0
   -5.8128   -0.6149   -0.2540 H   0  0  0  0  0  0  0  0  0  0  0  0
   -5.7580    0.6269   -1.5143 H   0  0  0  0  0  0  0  0  0  0  0  0
   -3.4775   -0.1524    0.3748 H   0  0  0  0  0  0  0  0  0  0  0  0
   -3.8582   -0.6433   -2.6088 H   0  0  0  0  0  0  0  0  0  0  0  0
   -3.9024   -1.8618   -1.3422 H   0  0  0  0  0  0  0  0  0  0  0  0
   -1.7266   -1.5637   -2.6956 H   0  0  0  0  0  0  0  0  0  0  0  0
   -1.5933   -1.7669   -0.9486 H   0  0  0  0  0  0  0  0  0  0  0  0
    0.0117   -0.1357   -3.3469 H   0  0  0  0  0  0  0  0  0  0  0  0
    0.5933    1.1424   -2.2690 H   0  0  0  0  0  0  0  0  0  0  0  0
    3.9968   -4.2672    0.3803 H   0  0  0  0  0  0  0  0  0  0  0  0
    2.3284    1.2972    0.9635 H   0  0  0  0  0  0  0  0  0  0  0  0
    2.8564    3.1737    2.4274 H   0  0  0  0  0  0  0  0  0  0  0  0
    4.5340    2.9369    4.2368 H   0  0  0  0  0  0  0  0  0  0  0  0
    5.6935    0.7683    4.5728 H   0  0  0  0  0  0  0  0  0  0  0  0
    5.1944   -1.1459    3.1184 H   0  0  0  0  0  0  0  0  0  0  0  0
    0.5731   -2.3538   -2.8779 H   0  0  0  0  0  0  0  0  0  0  0  0
   -2.3678    1.2187   -2.9948 H   0  0  0  0  0  0  0  0  0  0  0  0
   -1.3635    2.2485   -1.9897 H   0  0  0  0  0  0  0  0  0  0  0  0
   -3.8695    2.1925   -1.4439 H   0  0  0  0  0  0  0  0  0  0  0  0
   -1.8946    1.6341    0.8459 H   0  0  0  0  0  0  0  0  0  0  0  0
   -2.1106    3.1804    0.0179 H   0  0  0  0  0  0  0  0  0  0  0  0
   -3.9230    1.7928    1.6574 H   0  0  0  0  0  0  0  0  0  0  0  0
  1  2  1  0
  2  3  1  0
  3  4  1  0
  4  5  1  0
  5  6  1  0
  6  7  1  0
  7  8  2  0
  8  9  1  0
  9 10  2  0
 10 11  1  0
 11 12  2  0
 12 13  1  0
 13 14  1  0
 14 15  2  0
 15 16  1  0
 16 17  2  0
 17 18  1  0
 18 19  2  0
 10 20  1  0
 20 21  2  0
 20 22  1  0
  5 23  1  0
 23 24  1  0
 24 25  1  0
 25 26  1  0
 24  2  1  0
 22  7  1  0
 13  9  1  0
 19 14  1  0
  1 27  1  0
  1 28  1  0
  1 29  1  0
  2 30  1  0
  3 31  1  0
  3 32  1  0
  4 33  1  0
  4 34  1  0
  6 35  1  0
  6 36  1  0
 11 37  1  0
 15 38  1  0
 16 39  1  0
 17 40  1  0
 18 41  1  0
 19 42  1  0
 22 43  1  0
 23 44  1  0
 23 45  1  0
 24 46  1  0
 25 47  1  0
 25 48  1  0
 26 49  1  0
M  END
$$$$
OCNT-2308854
     RDKit          3D

 42 45  0  0  0  0  0  0  0  0999 V2000
   -1.6899    1.9844    2.3407 O   0  0  0  0  0  0  0  0  0  0  0  0
   -1.7982    0.9245    1.7301 C   0  0  0  0  0  0  0  0  0  0  0  0
   -0.7402    0.0464    1.5826 N   0  0  0  0  0  0  0  0  0  0  0  0
    0.5894    0.3916    2.0266 C   0  0  0  0  0  0  0  0  0  0  0  0
    1.4186    0.9115    0.8799 C   0  0  0  0  0  0  0  0  0  0  0  0
    1.3135    2.2521    0.4880 C   0  0  0  0  0  0  0  0  0  0  0  0
    2.0650    2.7377   -0.5804 C   0  0  0  0  0  0  0  0  0  0  0  0
    2.9291    1.8887   -1.2713 C   0  0  0  0  0  0  0  0  0  0  0  0
    3.0521    0.5418   -0.9011 C   0  0  0  0  0  0  0  0  0  0  0  0
    3.9732   -0.3713   -1.6731 C   0  0  0  0  0  0  0  0  0  0  0  0
    4.9316   -1.0499   -0.8166 N   0  0  0  0  0  0  0  0  0  0  0  0
    5.0176   -2.3990   -0.6051 C   0  0  0  0  0  0  0  0  0  0  0  0
    6.0963   -2.5571    0.2334 C   0  0  0  0  0  0  0  0  0  0  0  0
    6.6667   -1.3458    0.5263 N   0  0  0  0  0  0  0  0  0  0  0  0
    5.9470   -0.4567   -0.1208 C   0  0  0  0  0  0  0  0  0  0  0  0
    2.2793    0.0605    0.1698 C   0  0  0  0  0  0  0  0  0  0  0  0
   -3.0540    0.5004    1.0908 C   0  0  0  0  0  0  0  0  0  0  0  0
   -3.3603   -0.7325    0.5346 C   0  0  0  0  0  0  0  0  0  0  0  0
   -4.6517   -0.6354    0.0795 N   0  0  0  0  0  0  0  0  0  0  0  0
   -5.4410   -1.5903   -0.5581 C   0  0  0  0  0  0  0  0  0  0  0  0
   -6.6949   -1.2668   -0.9184 C   0  0  0  0  0  0  0  0  0  0  0  0
   -7.1872    0.0725   -0.6295 C   0  0  0  0  0  0  0  0  0  0  0  0
   -6.4156    0.9885   -0.0113 C   0  0  0  0  0  0  0  0  0  0  0  0
   -5.0872    0.6495    0.3717 C   0  0  0  0  0  0  0  0  0  0  0  0
   -4.1501    1.3440    0.9766 N   0  0  0  0  0  0  0  0  0  0  0  0
   -0.8259   -0.7063    0.9190 H   0  0  0  0  0  0  0  0  0  0  0  0
    0.5554    1.1284    2.8369 H   0  0  0  0  0  0  0  0  0  0  0  0
    1.0394   -0.5186    2.4384 H   0  0  0  0  0  0  0  0  0  0  0  0
    0.6382    2.9247    1.0167 H   0  0  0  0  0  0  0  0  0  0  0  0
    1.9734    3.7808   -0.8736 H   0  0  0  0  0  0  0  0  0  0  0  0
    3.5041    2.2921   -2.1024 H   0  0  0  0  0  0  0  0  0  0  0  0
    4.5587    0.1806   -2.4179 H   0  0  0  0  0  0  0  0  0  0  0  0
    3.3839   -1.1276   -2.2040 H   0  0  0  0  0  0  0  0  0  0  0  0
    4.3361   -3.1098   -1.0501 H   0  0  0  0  0  0  0  0  0  0  0  0
    6.4956   -3.4780    0.6386 H   0  0  0  0  0  0  0  0  0  0  0  0
    6.1129    0.6132   -0.1166 H   0  0  0  0  0  0  0  0  0  0  0  0
    2.3576   -0.9851    0.4646 H   0  0  0  0  0  0  0  0  0  0  0  0
   -2.8006   -1.6499    0.4367 H   0  0  0  0  0  0  0  0  0  0  0  0
   -5.0054   -2.5646   -0.7375 H   0  0  0  0  0  0  0  0  0  0  0  0
   -7.3518   -1.9721   -1.4163 H   0  0  0  0  0  0  0  0  0  0  0  0
   -8.2030    0.3159   -0.9268 H   0  0  0  0  0  0  0  0  0  0  0  0
   -6.7776    1.9867    0.2076 H   0  0  0  0  0  0  0  0  0  0  0  0
  1  2  2  0
  2  3  1  0
  3  4  1  0
  4  5  1  0
  5  6  1  0
  6  7  2  0
  7  8  1  0
  8  9  2  0
  9 10  1  0
 10 11  1  0
 11 12  1  0
 12 13  2  0
 13 14  1  0
 14 15  2  0
  9 16  1  0
  2 17  1  0
 17 18  2  0
 18 19  1  0
 19 20  1  0
 20 21  2  0
 21 22  1  0
 22 23  2  0
 23 24  1  0
 24 25  2  0
 16  5  2  0
 25 17  1  0
 15 11  1  0
 24 19  1  0
  3 26  1  0
  4 27  1  0
  4 28  1  0
  6 29  1  0
  7 30  1  0
  8 31  1  0
 10 32  1  0
 10 33  1  0
 12 34  1  0
 13 35  1  0
 15 36  1  0
 16 37  1  0
 18 38  1  0
 20 39  1  0
 21 40  1  0
 22 41  1  0
 23 42  1  0
M  END
$$$$
OCNT-2308858
     RDKit          3D

 47 50  0  0  0  0  0  0  0  0999 V2000
   -7.8721   -0.3726   -0.2794 C   0  0  0  0  0  0  0  0  0  0  0  0
   -6.4655   -0.1759    0.0175 N   0  0  0  0  0  0  0  0  0  0  0  0
   -5.9902    1.1940    0.1431 C   0  0  0  0  0  0  0  0  0  0  0  0
   -4.7068    1.2733    0.9619 C   0  0  0  0  0  0  0  0  0  0  0  0
   -3.6893    0.3045    0.4283 C   0  0  0  0  0  0  0  0  0  0  0  0
   -2.3149    0.5466    0.5853 C   0  0  0  0  0  0  0  0  0  0  0  0
   -1.3617   -0.3714    0.1196 C   0  0  0  0  0  0  0  0  0  0  0  0
   -0.0046   -0.0403    0.3130 N   0  0  0  0  0  0  0  0  0  0  0  0
    1.1085   -0.7785   -0.0606 C   0  0  0  0  0  0  0  0  0  0  0  0
    1.1061   -1.8633   -0.6291 O   0  0  0  0  0  0  0  0  0  0  0  0
    2.3957   -0.0721    0.3345 C   0  0  0  0  0  0  0  0  0  0  0  0
    3.6469   -0.8237   -0.1265 C   0  0  0  0  0  0  0  0  0  0  0  0
    3.9077   -0.7001   -1.6465 C   0  0  0  0  0  0  0  0  0  0  0  0
    4.7828    0.5447   -1.8559 C   0  0  0  0  0  0  0  0  0  0  0  0
    5.5327    0.5929   -0.5630 C   0  0  0  0  0  0  0  0  0  0  0  0
    6.6830    1.3071   -0.2736 C   0  0  0  0  0  0  0  0  0  0  0  0
    7.2060    1.2263    1.0187 C   0  0  0  0  0  0  0  0  0  0  0  0
    6.5735    0.4457    1.9989 C   0  0  0  0  0  0  0  0  0  0  0  0
    5.4069   -0.2617    1.7016 C   0  0  0  0  0  0  0  0  0  0  0  0
    4.8951   -0.1773    0.4163 C   0  0  0  0  0  0  0  0  0  0  0  0
   -1.7996   -1.5447   -0.4961 C   0  0  0  0  0  0  0  0  0  0  0  0
   -3.1677   -1.8029   -0.6420 C   0  0  0  0  0  0  0  0  0  0  0  0
   -4.1146   -0.8841   -0.1810 C   0  0  0  0  0  0  0  0  0  0  0  0
   -5.5692   -1.1893   -0.3311 C   0  0  0  0  0  0  0  0  0  0  0  0
   -5.9209   -2.2908   -0.7422 O   0  0  0  0  0  0  0  0  0  0  0  0
   -8.4752    0.1889    0.4396 H   0  0  0  0  0  0  0  0  0  0  0  0
   -8.1431   -1.4302   -0.2169 H   0  0  0  0  0  0  0  0  0  0  0  0
   -8.0716   -0.0133   -1.2933 H   0  0  0  0  0  0  0  0  0  0  0  0
   -5.8287    1.5808   -0.8708 H   0  0  0  0  0  0  0  0  0  0  0  0
   -6.7654    1.8007    0.6240 H   0  0  0  0  0  0  0  0  0  0  0  0
   -4.3215    2.2987    0.9297 H   0  0  0  0  0  0  0  0  0  0  0  0
   -4.9100    1.0190    2.0093 H   0  0  0  0  0  0  0  0  0  0  0  0
   -1.9956    1.4622    1.0780 H   0  0  0  0  0  0  0  0  0  0  0  0
    0.1751    0.8393    0.7811 H   0  0  0  0  0  0  0  0  0  0  0  0
    2.3779    0.9457   -0.0755 H   0  0  0  0  0  0  0  0  0  0  0  0
    2.3949    0.0132    1.4290 H   0  0  0  0  0  0  0  0  0  0  0  0
    3.6056   -1.8812    0.1595 H   0  0  0  0  0  0  0  0  0  0  0  0
    4.4713   -1.5842   -1.9782 H   0  0  0  0  0  0  0  0  0  0  0  0
    2.9948   -0.6642   -2.2492 H   0  0  0  0  0  0  0  0  0  0  0  0
    5.4437    0.4259   -2.7191 H   0  0  0  0  0  0  0  0  0  0  0  0
    4.1715    1.4453   -1.9721 H   0  0  0  0  0  0  0  0  0  0  0  0
    7.1721    1.9125   -1.0299 H   0  0  0  0  0  0  0  0  0  0  0  0
    8.1127    1.7717    1.2688 H   0  0  0  0  0  0  0  0  0  0  0  0
    6.9974    0.3922    2.9988 H   0  0  0  0  0  0  0  0  0  0  0  0
    4.9193   -0.8640    2.4614 H   0  0  0  0  0  0  0  0  0  0  0  0
   -1.1049   -2.2902   -0.8707 H   0  0  0  0  0  0  0  0  0  0  0  0
   -3.4881   -2.7294   -1.1151 H   0  0  0  0  0  0  0  0  0  0  0  0
  1  2  1  0
  2  3  1  0
  3  4  1  0
  4  5  1  0
  5  6  1  0
  6  7  2  0
  7  8  1  0
  8  9  1  0
  9 10  2  0
  9 11  1  0
 11 12  1  0
 12 13  1  0
 13 14  1  0
 14 15  1  0
 15 16  2  0
 16 17  1  0
 17 18  2  0
 18 19  1  0
 19 20  2  0
  7 21  1  0
 21 22  2  0
 22 23  1  0
 23 24  1  0
 24 25  2  0
 24  2  1  0
 23  5  2  0
 20 12  1  0
 20 15  1  0
  1 26  1  0
  1 27  1  0
  1 28  1  0
  3 29  1  0
  3 30  1  0
  4 31  1  0
  4 32  1  0
  6 33  1  0
  8 34  1  0
 11 35  1  0
 11 36  1  0
 12 37  1  0
 13 38  1  0
 13 39  1  0
 14 40  1  0
 14 41  1  0
 16 42  1  0
 17 43  1  0
 18 44  1  0
 19 45  1  0
 21 46  1  0
 22 47  1  0
M  END
$$$$
OCNT-2308864
     RDKit          3D

 47 50  0  0  0  0  0  0  0  0999 V2000
   -6.0879   -1.3724    2.0744 C   0  0  0  0  0  0  0  0  0  0  0  0
   -4.7545   -0.9309    1.6353 C   0  0  0  0  0  0  0  0  0  0  0  0
   -3.5665   -1.2666    2.0865 N   0  0  0  0  0  0  0  0  0  0  0  0
   -2.6533   -0.5792    1.3136 N   0  0  0  0  0  0  0  0  0  0  0  0
   -3.3470    0.1305    0.4468 C   0  0  0  0  0  0  0  0  0  0  0  0
   -2.9172    1.0538   -0.5933 C   0  0  0  0  0  0  0  0  0  0  0  0
   -3.7132    2.1669   -0.9193 C   0  0  0  0  0  0  0  0  0  0  0  0
   -3.3163    3.0765   -1.9056 C   0  0  0  0  0  0  0  0  0  0  0  0
   -2.1205    2.8864   -2.5938 C   0  0  0  0  0  0  0  0  0  0  0  0
   -1.3190    1.7878   -2.2950 C   0  0  0  0  0  0  0  0  0  0  0  0
   -1.7104    0.8889   -1.2908 C   0  0  0  0  0  0  0  0  0  0  0  0
   -0.8432   -0.2814   -1.0728 C   0  0  0  0  0  0  0  0  0  0  0  0
   -1.0240   -1.2405   -1.8200 O   0  0  0  0  0  0  0  0  0  0  0  0
    0.1390   -0.2268   -0.0781 N   0  0  0  0  0  0  0  0  0  0  0  0
    0.4369    0.9795    0.6842 C   0  0  0  0  0  0  0  0  0  0  0  0
    0.9836   -1.4333    0.0891 C   0  0  0  0  0  0  0  0  0  0  0  0
    1.5109   -1.7159    1.5018 C   0  0  0  0  0  0  0  0  0  0  0  0
    2.7232   -0.8853    1.9201 C   0  0  0  0  0  0  0  0  0  0  0  0
    3.6970   -0.5757    0.8141 C   0  0  0  0  0  0  0  0  0  0  0  0
    4.9212    0.0286    1.1452 C   0  0  0  0  0  0  0  0  0  0  0  0
    5.8448    0.3614    0.1548 C   0  0  0  0  0  0  0  0  0  0  0  0
    5.5557    0.0968   -1.1793 C   0  0  0  0  0  0  0  0  0  0  0  0
    4.3411   -0.4963   -1.5215 C   0  0  0  0  0  0  0  0  0  0  0  0
    3.3978   -0.8241   -0.5340 C   0  0  0  0  0  0  0  0  0  0  0  0
    2.1191   -1.5078   -0.9486 C   0  0  0  0  0  0  0  0  0  0  0  0
   -4.7018   -0.0338    0.6040 O   0  0  0  0  0  0  0  0  0  0  0  0
   -6.7425   -0.5123    2.2461 H   0  0  0  0  0  0  0  0  0  0  0  0
   -6.0203   -1.9412    3.0065 H   0  0  0  0  0  0  0  0  0  0  0  0
   -6.5483   -2.0110    1.3147 H   0  0  0  0  0  0  0  0  0  0  0  0
   -4.6546    2.3397   -0.3999 H   0  0  0  0  0  0  0  0  0  0  0  0
   -3.9469    3.9313   -2.1399 H   0  0  0  0  0  0  0  0  0  0  0  0
   -1.8184    3.5864   -3.3690 H   0  0  0  0  0  0  0  0  0  0  0  0
   -0.3956    1.6211   -2.8455 H   0  0  0  0  0  0  0  0  0  0  0  0
    1.4584    1.2969    0.4666 H   0  0  0  0  0  0  0  0  0  0  0  0
    0.3157    0.7675    1.7485 H   0  0  0  0  0  0  0  0  0  0  0  0
   -0.2236    1.8120    0.4405 H   0  0  0  0  0  0  0  0  0  0  0  0
    0.3141   -2.2745   -0.1413 H   0  0  0  0  0  0  0  0  0  0  0  0
    1.8135   -2.7722    1.5313 H   0  0  0  0  0  0  0  0  0  0  0  0
    0.7126   -1.6120    2.2459 H   0  0  0  0  0  0  0  0  0  0  0  0
    2.3915    0.0629    2.3571 H   0  0  0  0  0  0  0  0  0  0  0  0
    3.2474   -1.4240    2.7199 H   0  0  0  0  0  0  0  0  0  0  0  0
    5.1604    0.2424    2.1846 H   0  0  0  0  0  0  0  0  0  0  0  0
    6.7884    0.8251    0.4252 H   0  0  0  0  0  0  0  0  0  0  0  0
    6.2755    0.3469   -1.9536 H   0  0  0  0  0  0  0  0  0  0  0  0
    4.1310   -0.7070   -2.5679 H   0  0  0  0  0  0  0  0  0  0  0  0
    1.7790   -1.1013   -1.9095 H   0  0  0  0  0  0  0  0  0  0  0  0
    2.3673   -2.5639   -1.1166 H   0  0  0  0  0  0  0  0  0  0  0  0
  1  2  1  0
  2  3  2  0
  3  4  1  0
  4  5  2  0
  5  6  1  0
  6  7  2  0
  7  8  1  0
  8  9  2  0
  9 10  1  0
 10 11  2  0
 11 12  1  0
 12 13  2  0
 12 14  1  0
 14 15  1  0
 14 16  1  0
 16 17  1  0
 17 18  1  0
 18 19  1  0
 19 20  2  0
 20 21  1  0
 21 22  2  0
 22 23  1  0
 23 24  2  0
 24 25  1  0
  5 26  1  0
 26  2  1  0
 11  6  1  0
 25 16  1  0
 24 19  1  0
  1 27  1  0
  1 28  1  0
  1 29  1  0
  7 30  1  0
  8 31  1  0
  9 32  1  0
 10 33  1  0
 15 34  1  0
 15 35  1  0
 15 36  1  0
 16 37  1  0
 17 38  1  0
 17 39  1  0
 18 40  1  0
 18 41  1  0
 20 42  1  0
 21 43  1  0
 22 44  1  0
 23 45  1  0
 25 46  1  0
 25 47  1  0
M  END
$$$$
OCNT-2308872
     RDKit          3D

  0  0  0  0  0  0  0  0  0  0999 V3000
M  V30 BEGIN CTAB
M  V30 COUNTS 38 40 0 0 0
M  V30 BEGIN ATOM
M  V30 1 C 7.005055 1.186453 -0.183699 0
M  V30 2 S 5.701972 2.356091 0.096841 0
M  V30 3 O 6.005639 3.569283 -0.635927 0
M  V30 4 O 5.359141 2.375905 1.504057 0
M  V30 5 C 4.293855 1.667842 -0.744420 0
M  V30 6 C 3.544073 2.130199 -1.808307 0
M  V30 7 C 2.479262 1.246839 -2.146312 0
M  V30 8 C 2.445838 0.133032 -1.330530 0
M  V30 9 C 1.471875 -0.999124 -1.351740 0
M  V30 10 N 0.393955 -0.680439 -0.449612 0
M  V30 11 C -0.809403 -1.327861 -0.542226 0
M  V30 12 O -1.110080 -2.127245 -1.416919 0
M  V30 13 C -1.761768 -1.021227 0.550892 0 CFG=1
M  V30 14 C -1.993893 0.376349 1.061737 0
M  V30 15 C -3.042119 -0.279735 0.198755 0 CFG=2
M  V30 16 C -4.348438 -0.756175 0.782771 0
M  V30 17 C -4.847325 -2.030580 0.483979 0
M  V30 18 C -6.060980 -2.433297 1.019309 0
M  V30 19 N -6.813974 -1.662045 1.829762 0
M  V30 20 C -6.332231 -0.433247 2.105282 0
M  V30 21 C -5.131413 0.055113 1.611756 0
M  V30 22 S 3.710309 0.167146 -0.172319 0
M  V30 23 H 6.763856 0.241655 0.305718 0
M  V30 24 H 7.920489 1.597078 0.249097 0
M  V30 25 H 7.134793 1.051546 -1.260355 0
M  V30 26 H 3.751787 3.071927 -2.305945 0
M  V30 27 H 1.764119 1.424618 -2.941824 0
M  V30 28 H 1.075070 -1.156834 -2.359805 0
M  V30 29 H 1.925694 -1.940675 -1.023032 0
M  V30 30 H 0.615569 -0.199183 0.411468 0
M  V30 31 H -1.846756 -1.826398 1.274568 0
M  V30 32 H -1.438998 1.199670 0.625880 0
M  V30 33 H -2.180866 0.493648 2.123614 0
M  V30 34 H -3.113417 0.095654 -0.822079 0
M  V30 35 H -4.292921 -2.703167 -0.164001 0
M  V30 36 H -6.469050 -3.416563 0.801816 0
M  V30 37 H -6.957776 0.175492 2.752240 0
M  V30 38 H -4.810945 1.058762 1.869509 0
M  V30 END ATOM
M  V30 BEGIN BOND
M  V30 1 1 1 2
M  V30 2 2 2 3
M  V30 3 2 2 4
M  V30 4 1 2 5
M  V30 5 2 5 6
M  V30 6 1 6 7
M  V30 7 2 7 8
M  V30 8 1 8 9
M  V30 9 1 9 10
M  V30 10 1 10 11
M  V30 11 2 11 12
M  V30 12 1 11 13
M  V30 13 1 13 14
M  V30 14 1 14 15
M  V30 15 1 15 16
M  V30 16 2 16 17
M  V30 17 1 17 18
M  V30 18 2 18 19
M  V30 19 1 19 20
M  V30 20 2 20 21
M  V30 21 1 8 22
M  V30 22 1 22 5
M  V30 23 1 15 13
M  V30 24 1 21 16
M  V30 25 1 1 23
M  V30 26 1 1 24
M  V30 27 1 1 25
M  V30 28 1 6 26
M  V30 29 1 7 27
M  V30 30 1 9 28
M  V30 31 1 9 29
M  V30 32 1 10 30
M  V30 33 1 13 31 CFG=1
M  V30 34 1 14 32
M  V30 35 1 14 33
M  V30 36 1 15 34 CFG=3
M  V30 37 1 17 35
M  V30 38 1 18 36
M  V30 39 1 20 37
M  V30 40 1 21 38
M  V30 END BOND
M  V30 BEGIN COLLECTION
M  V30 MDLV30/STERAC1 ATOMS=(2 13 15)
M  V30 END COLLECTION
M  V30 END CTAB
M  END
>  <_CXSMILES_Data>  (131) 
|&1:12,14|

$$$$
OCNT-2308879
     RDKit          3D

 53 55  0  0  0  0  0  0  0  0999 V2000
    5.4794   -2.6130    3.0860 C   0  0  0  0  0  0  0  0  0  0  0  0
    5.3713   -2.5854    1.6691 O   0  0  0  0  0  0  0  0  0  0  0  0
    4.5891   -1.6035    1.1222 C   0  0  0  0  0  0  0  0  0  0  0  0
    3.8593   -0.6535    1.8359 C   0  0  0  0  0  0  0  0  0  0  0  0
    3.0904    0.3018    1.1563 C   0  0  0  0  0  0  0  0  0  0  0  0
    3.0337    0.3334   -0.2483 C   0  0  0  0  0  0  0  0  0  0  0  0
    2.1495    1.3658   -0.9333 C   0  0  0  0  0  0  0  0  0  0  0  0
    2.7019    1.8671   -2.2701 C   0  0  0  0  0  0  0  0  0  0  0  0
    0.8157    0.8139   -1.1328 N   0  0  0  0  0  0  0  0  0  0  0  0
   -0.1662    0.9861   -0.1899 C   0  0  0  0  0  0  0  0  0  0  0  0
    0.0262    1.6425    0.8315 O   0  0  0  0  0  0  0  0  0  0  0  0
   -1.3741    0.3505   -0.4743 N   0  0  0  0  0  0  0  0  0  0  0  0
   -1.7553   -0.1039   -1.8160 C   0  0  0  0  0  0  0  0  0  0  0  0
   -2.3742   -1.5011   -1.8715 C   0  0  0  0  0  0  0  0  0  0  0  0
   -1.8140   -2.4807   -0.8399 C   0  0  0  0  0  0  0  0  0  0  0  0
   -2.1257   -2.1608    0.6310 C   0  0  0  0  0  0  0  0  0  0  0  0
   -3.0719   -0.9780    0.8541 C   0  0  0  0  0  0  0  0  0  0  0  0
   -2.4135    0.3954    0.5744 C   0  0  0  0  0  0  0  0  0  0  0  0
   -3.3888    1.5480    0.3580 C   0  0  0  0  0  0  0  0  0  0  0  0
   -3.0646    2.8192    0.8464 C   0  0  0  0  0  0  0  0  0  0  0  0
   -3.9380    3.8750    0.6339 C   0  0  0  0  0  0  0  0  0  0  0  0
   -5.1047    3.7600   -0.0289 N   0  0  0  0  0  0  0  0  0  0  0  0
   -5.4010    2.5363   -0.5110 C   0  0  0  0  0  0  0  0  0  0  0  0
   -4.5873    1.4215   -0.3529 C   0  0  0  0  0  0  0  0  0  0  0  0
    3.7561   -0.6355   -0.9564 C   0  0  0  0  0  0  0  0  0  0  0  0
    4.5241   -1.5801   -0.2741 C   0  0  0  0  0  0  0  0  0  0  0  0
    5.2084   -2.4821   -0.9941 F   0  0  0  0  0  0  0  0  0  0  0  0
    6.1520   -3.4334    3.3558 H   0  0  0  0  0  0  0  0  0  0  0  0
    5.9166   -1.6836    3.4659 H   0  0  0  0  0  0  0  0  0  0  0  0
    4.5072   -2.8127    3.5485 H   0  0  0  0  0  0  0  0  0  0  0  0
    3.8551   -0.6272    2.9204 H   0  0  0  0  0  0  0  0  0  0  0  0
    2.5168    1.0252    1.7384 H   0  0  0  0  0  0  0  0  0  0  0  0
    2.0795    2.2453   -0.2799 H   0  0  0  0  0  0  0  0  0  0  0  0
    2.0811    2.6853   -2.6549 H   0  0  0  0  0  0  0  0  0  0  0  0
    3.7252    2.2431   -2.1599 H   0  0  0  0  0  0  0  0  0  0  0  0
    2.7039    1.0842   -3.0369 H   0  0  0  0  0  0  0  0  0  0  0  0
    0.8089   -0.1002   -1.5568 H   0  0  0  0  0  0  0  0  0  0  0  0
   -2.4546    0.6297   -2.2337 H   0  0  0  0  0  0  0  0  0  0  0  0
   -0.8993   -0.0886   -2.4945 H   0  0  0  0  0  0  0  0  0  0  0  0
   -3.4620   -1.4331   -1.7750 H   0  0  0  0  0  0  0  0  0  0  0  0
   -2.2095   -1.9088   -2.8772 H   0  0  0  0  0  0  0  0  0  0  0  0
   -0.7273   -2.5662   -0.9656 H   0  0  0  0  0  0  0  0  0  0  0  0
   -2.2177   -3.4755   -1.0655 H   0  0  0  0  0  0  0  0  0  0  0  0
   -1.1872   -1.9898    1.1739 H   0  0  0  0  0  0  0  0  0  0  0  0
   -2.5701   -3.0538    1.0877 H   0  0  0  0  0  0  0  0  0  0  0  0
   -3.9878   -1.1417    0.2799 H   0  0  0  0  0  0  0  0  0  0  0  0
   -3.4030   -0.9847    1.9017 H   0  0  0  0  0  0  0  0  0  0  0  0
   -1.9024    0.6169    1.5225 H   0  0  0  0  0  0  0  0  0  0  0  0
   -2.1372    2.9922    1.3834 H   0  0  0  0  0  0  0  0  0  0  0  0
   -3.7098    4.8711    1.0064 H   0  0  0  0  0  0  0  0  0  0  0  0
   -6.3413    2.4688   -1.0511 H   0  0  0  0  0  0  0  0  0  0  0  0
   -4.9011    0.4847   -0.7943 H   0  0  0  0  0  0  0  0  0  0  0  0
    3.7381   -0.6857   -2.0407 H   0  0  0  0  0  0  0  0  0  0  0  0
  1  2  1  0
  2  3  1  0
  3  4  1  0
  4  5  2  0
  5  6  1  0
  6  7  1  0
  7  8  1  0
  7  9  1  0
  9 10  1  0
 10 11  2  0
 10 12  1  0
 12 13  1  0
 13 14  1  0
 14 15  1  0
 15 16  1  0
 16 17  1  0
 17 18  1  0
 18 19  1  0
 19 20  2  0
 20 21  1  0
 21 22  2  0
 22 23  1  0
 23 24  2  0
  6 25  2  0
 25 26  1  0
 26 27  1  0
 26  3  2  0
 18 12  1  0
 24 19  1  0
  1 28  1  0
  1 29  1  0
  1 30  1  0
  4 31  1  0
  5 32  1  0
  7 33  1  0
  8 34  1  0
  8 35  1  0
  8 36  1  0
  9 37  1  0
 13 38  1  0
 13 39  1  0
 14 40  1  0
 14 41  1  0
 15 42  1  0
 15 43  1  0
 16 44  1  0
 16 45  1  0
 17 46  1  0
 17 47  1  0
 18 48  1  0
 20 49  1  0
 21 50  1  0
 23 51  1  0
 24 52  1  0
 25 53  1  0
M  END
$$$$
OCNT-2308899
     RDKit          3D

 38 40  0  0  0  0  0  0  0  0999 V2000
   -6.4545    2.2548    1.2445 F   0  0  0  0  0  0  0  0  0  0  0  0
   -6.0122    1.0084    1.5694 C   0  0  0  0  0  0  0  0  0  0  0  0
   -7.0631    0.1699    1.3438 F   0  0  0  0  0  0  0  0  0  0  0  0
   -5.8311    1.0170    2.9201 F   0  0  0  0  0  0  0  0  0  0  0  0
   -4.7716    0.6210    0.8045 C   0  0  0  0  0  0  0  0  0  0  0  0
   -4.8720    0.0042   -0.4517 C   0  0  0  0  0  0  0  0  0  0  0  0
   -3.7240   -0.3359   -1.1713 C   0  0  0  0  0  0  0  0  0  0  0  0
   -2.4548   -0.0558   -0.6521 C   0  0  0  0  0  0  0  0  0  0  0  0
   -1.2073   -0.4343   -1.4135 C   0  0  0  0  0  0  0  0  0  0  0  0
   -0.6208   -1.7632   -0.9247 C   0  0  0  0  0  0  0  0  0  0  0  0
    0.5771   -2.1204   -1.6724 N   0  0  0  0  0  0  0  0  0  0  0  0
    1.7657   -1.5497   -1.3957 C   0  0  0  0  0  0  0  0  0  0  0  0
    2.0212   -0.7421   -0.3706 N   0  0  0  0  0  0  0  0  0  0  0  0
    3.3374   -0.4176   -0.4957 N   0  0  0  0  0  0  0  0  0  0  0  0
    4.0157    0.4512    0.4277 C   0  0  0  0  0  0  0  0  0  0  0  0
    3.3148    0.9699    1.4628 N   0  0  0  0  0  0  0  0  0  0  0  0
    3.9848    1.7770    2.3041 C   0  0  0  0  0  0  0  0  0  0  0  0
    5.3147    2.0892    2.1581 C   0  0  0  0  0  0  0  0  0  0  0  0
    5.9444    1.5188    1.0781 C   0  0  0  0  0  0  0  0  0  0  0  0
    5.3290    0.7030    0.2014 N   0  0  0  0  0  0  0  0  0  0  0  0
    3.8989   -1.0210   -1.6042 C   0  0  0  0  0  0  0  0  0  0  0  0
    2.9036   -1.7555   -2.1999 C   0  0  0  0  0  0  0  0  0  0  0  0
   -2.3508    0.5640    0.5997 C   0  0  0  0  0  0  0  0  0  0  0  0
   -3.4981    0.9036    1.3193 C   0  0  0  0  0  0  0  0  0  0  0  0
   -5.8506   -0.2166   -0.8759 H   0  0  0  0  0  0  0  0  0  0  0  0
   -3.8280   -0.8178   -2.1412 H   0  0  0  0  0  0  0  0  0  0  0  0
   -1.4323   -0.4985   -2.4862 H   0  0  0  0  0  0  0  0  0  0  0  0
   -0.4739    0.3764   -1.3178 H   0  0  0  0  0  0  0  0  0  0  0  0
   -0.4137   -1.7335    0.1527 H   0  0  0  0  0  0  0  0  0  0  0  0
   -1.3591   -2.5624   -1.0655 H   0  0  0  0  0  0  0  0  0  0  0  0
    0.4166   -2.5684   -2.5667 H   0  0  0  0  0  0  0  0  0  0  0  0
    3.3986    2.1776    3.1262 H   0  0  0  0  0  0  0  0  0  0  0  0
    5.8313    2.7410    2.8485 H   0  0  0  0  0  0  0  0  0  0  0  0
    6.9958    1.7062    0.8790 H   0  0  0  0  0  0  0  0  0  0  0  0
    4.9396   -0.8693   -1.8525 H   0  0  0  0  0  0  0  0  0  0  0  0
    2.9911   -2.3606   -3.0899 H   0  0  0  0  0  0  0  0  0  0  0  0
   -1.3699    0.7857    1.0194 H   0  0  0  0  0  0  0  0  0  0  0  0
   -3.3923    1.3892    2.2883 H   0  0  0  0  0  0  0  0  0  0  0  0
  1  2  1  0
  2  3  1  0
  2  4  1  0
  2  5  1  0
  5  6  1  0
  6  7  2  0
  7  8  1  0
  8  9  1  0
  9 10  1  0
 10 11  1  0
 11 12  1  0
 12 13  2  0
 13 14  1  0
 14 15  1  0
 15 16  2  0
 16 17  1  0
 17 18  2  0
 18 19  1  0
 19 20  2  0
 14 21  1  0
 21 22  2  0
  8 23  2  0
 23 24  1  0
 24  5  2  0
 22 12  1  0
 20 15  1  0
  6 25  1  0
  7 26  1  0
  9 27  1  0
  9 28  1  0
 10 29  1  0
 10 30  1  0
 11 31  1  0
 17 32  1  0
 18 33  1  0
 19 34  1  0
 21 35  1  0
 22 36  1  0
 23 37  1  0
 24 38  1  0
M  END
$$$$
OCNT-2308903
     RDKit          3D

 38 40  0  0  0  0  0  0  0  0999 V2000
    4.8855   -0.4814    1.6551 C   0  0  0  0  0  0  0  0  0  0  0  0
    5.1080   -0.0034    0.3158 N   0  0  0  0  0  0  0  0  0  0  0  0
    6.3374    0.1077   -0.2750 C   0  0  0  0  0  0  0  0  0  0  0  0
    6.2474    0.5663   -1.5022 N   0  0  0  0  0  0  0  0  0  0  0  0
    4.9048    0.7587   -1.7113 C   0  0  0  0  0  0  0  0  0  0  0  0
    4.1739    0.4125   -0.5949 C   0  0  0  0  0  0  0  0  0  0  0  0
    2.6375    0.5032   -0.4813 C   0  0  0  0  0  0  0  0  0  0  0  0
    1.8504    0.1799    0.5965 C   0  0  0  0  0  0  0  0  0  0  0  0
    0.5833    0.4336    0.1591 N   0  0  0  0  0  0  0  0  0  0  0  0
   -0.6631    0.2766    0.8832 C   0  0  0  0  0  0  0  0  0  0  0  0
   -1.2888   -1.0973    0.6240 C   0  0  0  0  0  0  0  0  0  0  0  0
   -0.5231   -2.0881    1.3307 O   0  0  0  0  0  0  0  0  0  0  0  0
   -2.7374   -1.1783    1.1332 C   0  0  0  0  0  0  0  0  0  0  0  0
   -3.7145   -0.3186    0.3729 C   0  0  0  0  0  0  0  0  0  0  0  0
   -4.3319    0.7783    0.9940 C   0  0  0  0  0  0  0  0  0  0  0  0
   -5.2359    1.5799    0.2908 C   0  0  0  0  0  0  0  0  0  0  0  0
   -5.5359    1.2901   -1.0384 C   0  0  0  0  0  0  0  0  0  0  0  0
   -4.9316    0.2007   -1.6523 C   0  0  0  0  0  0  0  0  0  0  0  0
   -5.2250   -0.0843   -2.9277 F   0  0  0  0  0  0  0  0  0  0  0  0
   -4.0282   -0.6031   -0.9630 C   0  0  0  0  0  0  0  0  0  0  0  0
    0.5788    0.8941   -1.1025 N   0  0  0  0  0  0  0  0  0  0  0  0
    1.8412    0.9406   -1.5074 N   0  0  0  0  0  0  0  0  0  0  0  0
    4.4056    0.3111    2.2344 H   0  0  0  0  0  0  0  0  0  0  0  0
    4.2558   -1.3731    1.6088 H   0  0  0  0  0  0  0  0  0  0  0  0
    5.8425   -0.7383    2.1175 H   0  0  0  0  0  0  0  0  0  0  0  0
    7.2592   -0.1568    0.2272 H   0  0  0  0  0  0  0  0  0  0  0  0
    4.5306    1.1371   -2.6544 H   0  0  0  0  0  0  0  0  0  0  0  0
    2.0465   -0.2029    1.5846 H   0  0  0  0  0  0  0  0  0  0  0  0
   -1.3135    1.0966    0.5617 H   0  0  0  0  0  0  0  0  0  0  0  0
   -0.4346    0.4135    1.9465 H   0  0  0  0  0  0  0  0  0  0  0  0
   -1.2385   -1.3464   -0.4429 H   0  0  0  0  0  0  0  0  0  0  0  0
   -0.7995   -2.9609    0.9959 H   0  0  0  0  0  0  0  0  0  0  0  0
   -3.0848   -2.2194    1.0833 H   0  0  0  0  0  0  0  0  0  0  0  0
   -2.7614   -0.9327    2.2035 H   0  0  0  0  0  0  0  0  0  0  0  0
   -4.1154    1.0200    2.0330 H   0  0  0  0  0  0  0  0  0  0  0  0
   -5.7067    2.4289    0.7805 H   0  0  0  0  0  0  0  0  0  0  0  0
   -6.2359    1.9025   -1.5976 H   0  0  0  0  0  0  0  0  0  0  0  0
   -3.5829   -1.4466   -1.4826 H   0  0  0  0  0  0  0  0  0  0  0  0
  1  2  1  0
  2  3  1  0
  3  4  2  0
  4  5  1  0
  5  6  2  0
  6  7  1  0
  7  8  2  0
  8  9  1  0
  9 10  1  0
 10 11  1  0
 11 12  1  0
 11 13  1  0
 13 14  1  0
 14 15  2  0
 15 16  1  0
 16 17  2  0
 17 18  1  0
 18 19  1  0
 18 20  2  0
  9 21  1  0
 21 22  2  0
  6  2  1  0
 22  7  1  0
 20 14  1  0
  1 23  1  0
  1 24  1  0
  1 25  1  0
  3 26  1  0
  5 27  1  0
  8 28  1  0
 10 29  1  0
 10 30  1  0
 11 31  1  0
 12 32  1  0
 13 33  1  0
 13 34  1  0
 15 35  1  0
 16 36  1  0
 17 37  1  0
 20 38  1  0
M  END
$$$$
OCNT-2308915
     RDKit          3D

 47 49  0  0  0  0  0  0  0  0999 V2000
    4.7973   -0.5520   -1.7610 C   0  0  0  0  0  0  0  0  0  0  0  0
    4.4075    0.3459   -0.5860 C   0  0  0  0  0  0  0  0  0  0  0  0
    3.0290    0.1403   -0.1844 N   0  0  0  0  0  0  0  0  0  0  0  0
    1.9942    0.6390   -0.9283 C   0  0  0  0  0  0  0  0  0  0  0  0
    2.1779    1.3073   -1.9417 O   0  0  0  0  0  0  0  0  0  0  0  0
    0.7330    0.3316   -0.4455 N   0  0  0  0  0  0  0  0  0  0  0  0
    0.4636   -0.1913    0.8949 C   0  0  0  0  0  0  0  0  0  0  0  0
   -0.8877    0.2746    1.4253 C   0  0  0  0  0  0  0  0  0  0  0  0
   -2.0504   -0.1515    0.5082 C   0  0  0  0  0  0  0  0  0  0  0  0
   -3.2676    0.7621    0.7680 C   0  0  0  0  0  0  0  0  0  0  0  0
   -4.5585    0.2539    0.1697 C   0  0  0  0  0  0  0  0  0  0  0  0
   -5.1746   -0.8985    0.6772 C   0  0  0  0  0  0  0  0  0  0  0  0
   -6.3681   -1.3665    0.1248 C   0  0  0  0  0  0  0  0  0  0  0  0
   -6.9596   -0.6861   -0.9374 C   0  0  0  0  0  0  0  0  0  0  0  0
   -6.3598    0.4640   -1.4462 C   0  0  0  0  0  0  0  0  0  0  0  0
   -5.1665    0.9335   -0.8946 C   0  0  0  0  0  0  0  0  0  0  0  0
   -1.6251   -0.1730   -0.9749 C   0  0  0  0  0  0  0  0  0  0  0  0
   -0.4210    0.7205   -1.2522 C   0  0  0  0  0  0  0  0  0  0  0  0
    5.2545    0.1042    0.6237 C   0  0  0  0  0  0  0  0  0  0  0  0
    5.5775   -1.0853    1.2496 C   0  0  0  0  0  0  0  0  0  0  0  0
    6.3800   -0.7623    2.3047 N   0  0  0  0  0  0  0  0  0  0  0  0
    6.5982    0.5553    2.4237 N   0  0  0  0  0  0  0  0  0  0  0  0
    5.9148    1.0820    1.4054 C   0  0  0  0  0  0  0  0  0  0  0  0
    4.2023   -0.3210   -2.6506 H   0  0  0  0  0  0  0  0  0  0  0  0
    5.8537   -0.4208   -2.0201 H   0  0  0  0  0  0  0  0  0  0  0  0
    4.6366   -1.6115   -1.5301 H   0  0  0  0  0  0  0  0  0  0  0  0
    4.5168    1.3912   -0.9024 H   0  0  0  0  0  0  0  0  0  0  0  0
    2.8366   -0.7079    0.3217 H   0  0  0  0  0  0  0  0  0  0  0  0
    1.2510    0.1272    1.5861 H   0  0  0  0  0  0  0  0  0  0  0  0
    0.4943   -1.2851    0.8299 H   0  0  0  0  0  0  0  0  0  0  0  0
   -1.0507   -0.1251    2.4333 H   0  0  0  0  0  0  0  0  0  0  0  0
   -0.8676    1.3684    1.5221 H   0  0  0  0  0  0  0  0  0  0  0  0
   -2.3237   -1.1806    0.7785 H   0  0  0  0  0  0  0  0  0  0  0  0
   -3.4272    0.8683    1.8496 H   0  0  0  0  0  0  0  0  0  0  0  0
   -3.0557    1.7737    0.3978 H   0  0  0  0  0  0  0  0  0  0  0  0
   -4.7296   -1.4381    1.5099 H   0  0  0  0  0  0  0  0  0  0  0  0
   -6.8374   -2.2613    0.5250 H   0  0  0  0  0  0  0  0  0  0  0  0
   -7.8890   -1.0502   -1.3669 H   0  0  0  0  0  0  0  0  0  0  0  0
   -6.8218    0.9971   -2.2730 H   0  0  0  0  0  0  0  0  0  0  0  0
   -4.7134    1.8333   -1.3046 H   0  0  0  0  0  0  0  0  0  0  0  0
   -2.4492    0.1025   -1.6400 H   0  0  0  0  0  0  0  0  0  0  0  0
   -1.3544   -1.2047   -1.2382 H   0  0  0  0  0  0  0  0  0  0  0  0
   -0.6519    1.7674   -1.0218 H   0  0  0  0  0  0  0  0  0  0  0  0
   -0.1612    0.6690   -2.3156 H   0  0  0  0  0  0  0  0  0  0  0  0
    5.3200   -2.1126    1.0357 H   0  0  0  0  0  0  0  0  0  0  0  0
    6.8119   -1.3836    2.9810 H   0  0  0  0  0  0  0  0  0  0  0  0
    5.9212    2.1567    1.2698 H   0  0  0  0  0  0  0  0  0  0  0  0
  1  2  1  0
  2  3  1  0
  3  4  1  0
  4  5  2  0
  4  6  1  0
  6  7  1  0
  7  8  1  0
  8  9  1  0
  9 10  1  0
 10 11  1  0
 11 12  2  0
 12 13  1  0
 13 14  2  0
 14 15  1  0
 15 16  2  0
  9 17  1  0
 17 18  1  0
  2 19  1  0
 19 20  2  0
 20 21  1  0
 21 22  1  0
 22 23  2  0
 18  6  1  0
 23 19  1  0
 16 11  1  0
  1 24  1  0
  1 25  1  0
  1 26  1  0
  2 27  1  0
  3 28  1  0
  7 29  1  0
  7 30  1  0
  8 31  1  0
  8 32  1  0
  9 33  1  0
 10 34  1  0
 10 35  1  0
 12 36  1  0
 13 37  1  0
 14 38  1  0
 15 39  1  0
 16 40  1  0
 17 41  1  0
 17 42  1  0
 18 43  1  0
 18 44  1  0
 20 45  1  0
 21 46  1  0
 23 47  1  0
M  END
$$$$
OCNT-2308924
     RDKit          3D

 37 39  0  0  0  0  0  0  0  0999 V2000
   -3.3698   -2.1144    0.5928 C   0  0  0  0  0  0  0  0  0  0  0  0
   -3.2833   -0.6119    0.3235 C   0  0  0  0  0  0  0  0  0  0  0  0
   -1.8469   -0.2221    0.3059 N   0  0  0  0  0  0  0  0  0  0  0  0
   -1.3683    1.0563    0.0762 C   0  0  0  0  0  0  0  0  0  0  0  0
   -2.0754    2.0339   -0.1298 O   0  0  0  0  0  0  0  0  0  0  0  0
    0.1087    1.2120    0.1289 C   0  0  0  0  0  0  0  0  0  0  0  0
    0.6343    2.3874    0.6663 C   0  0  0  0  0  0  0  0  0  0  0  0
    2.0138    2.5492    0.7435 C   0  0  0  0  0  0  0  0  0  0  0  0
    2.8669    1.5461    0.2693 C   0  0  0  0  0  0  0  0  0  0  0  0
    2.3659    0.3748   -0.3122 C   0  0  0  0  0  0  0  0  0  0  0  0
    3.1719   -0.6724   -0.7978 N   0  0  0  0  0  0  0  0  0  0  0  0
    4.5174   -0.8189   -0.7408 C   0  0  0  0  0  0  0  0  0  0  0  0
    5.3854   -0.0695   -0.0968 N   0  0  0  0  0  0  0  0  0  0  0  0
    6.6694   -0.5436   -0.2705 C   0  0  0  0  0  0  0  0  0  0  0  0
    6.7841   -1.6703   -1.0503 C   0  0  0  0  0  0  0  0  0  0  0  0
    5.2334   -2.1555   -1.5840 S   0  0  0  0  0  0  0  0  0  0  0  0
    0.9692    0.2197   -0.3664 C   0  0  0  0  0  0  0  0  0  0  0  0
   -4.2013    0.2465    1.2286 C   0  0  0  0  0  0  0  0  0  0  0  0
   -5.2543    0.2268    0.0974 C   0  0  0  0  0  0  0  0  0  0  0  0
   -6.2191   -0.7142    0.2348 F   0  0  0  0  0  0  0  0  0  0  0  0
   -5.8904    1.3947   -0.1399 F   0  0  0  0  0  0  0  0  0  0  0  0
   -4.1239   -0.1423   -0.8899 C   0  0  0  0  0  0  0  0  0  0  0  0
   -2.8448   -2.6815   -0.1841 H   0  0  0  0  0  0  0  0  0  0  0  0
   -4.4065   -2.4672    0.6132 H   0  0  0  0  0  0  0  0  0  0  0  0
   -2.9186   -2.3654    1.5593 H   0  0  0  0  0  0  0  0  0  0  0  0
   -1.1634   -0.8984    0.6292 H   0  0  0  0  0  0  0  0  0  0  0  0
   -0.0267    3.1709    1.0307 H   0  0  0  0  0  0  0  0  0  0  0  0
    2.4335    3.4567    1.1709 H   0  0  0  0  0  0  0  0  0  0  0  0
    3.9371    1.7178    0.3484 H   0  0  0  0  0  0  0  0  0  0  0  0
    2.6791   -1.3587   -1.3540 H   0  0  0  0  0  0  0  0  0  0  0  0
    7.4938   -0.0227    0.2010 H   0  0  0  0  0  0  0  0  0  0  0  0
    7.6770   -2.2144   -1.3213 H   0  0  0  0  0  0  0  0  0  0  0  0
    0.5501   -0.6732   -0.8222 H   0  0  0  0  0  0  0  0  0  0  0  0
   -3.8468    1.2534    1.4697 H   0  0  0  0  0  0  0  0  0  0  0  0
   -4.5238   -0.2273    2.1612 H   0  0  0  0  0  0  0  0  0  0  0  0
   -4.3862   -0.9203   -1.6140 H   0  0  0  0  0  0  0  0  0  0  0  0
   -3.7416    0.7180   -1.4478 H   0  0  0  0  0  0  0  0  0  0  0  0
  1  2  1  0
  2  3  1  0
  3  4  1  0
  4  5  2  0
  4  6  1  0
  6  7  1  0
  7  8  2  0
  8  9  1  0
  9 10  2  0
 10 11  1  0
 11 12  1  0
 12 13  2  0
 13 14  1  0
 14 15  2  0
 15 16  1  0
 10 17  1  0
  2 18  1  0
 18 19  1  0
 19 20  1  0
 19 21  1  0
 19 22  1  0
 22  2  1  0
 17  6  2  0
 16 12  1  0
  1 23  1  0
  1 24  1  0
  1 25  1  0
  3 26  1  0
  7 27  1  0
  8 28  1  0
  9 29  1  0
 11 30  1  0
 14 31  1  0
 15 32  1  0
 17 33  1  0
 18 34  1  0
 18 35  1  0
 22 36  1  0
 22 37  1  0
M  END
$$$$
OCNT-2308941
     RDKit          3D

 40 43  0  0  0  0  0  0  0  0999 V2000
   -2.2295   -1.3349    1.6618 C   0  0  0  0  0  0  0  0  0  0  0  0
   -2.5858   -0.9161    0.2826 C   0  0  0  0  0  0  0  0  0  0  0  0
   -1.9987   -1.3480   -0.8969 C   0  0  0  0  0  0  0  0  0  0  0  0
   -0.8973   -2.2961   -1.2029 C   0  0  0  0  0  0  0  0  0  0  0  0
    0.3326   -1.5418   -1.3074 N   0  0  0  0  0  0  0  0  0  0  0  0
    1.1752   -1.4001   -0.2283 C   0  0  0  0  0  0  0  0  0  0  0  0
    1.0110   -1.9729    0.8434 O   0  0  0  0  0  0  0  0  0  0  0  0
    2.3183   -0.4584   -0.3929 C   0  0  0  0  0  0  0  0  0  0  0  0
    2.8636   -0.1607   -1.6475 C   0  0  0  0  0  0  0  0  0  0  0  0
    3.9367    0.7257   -1.7487 C   0  0  0  0  0  0  0  0  0  0  0  0
    4.4758    1.3109   -0.6012 C   0  0  0  0  0  0  0  0  0  0  0  0
    3.9484    1.0055    0.6627 C   0  0  0  0  0  0  0  0  0  0  0  0
    4.5147    1.5970    1.8175 N   0  0  0  0  0  0  0  0  0  0  0  0
    4.1774    1.4398    3.1384 C   0  0  0  0  0  0  0  0  0  0  0  0
    4.9635    2.1856    3.8806 N   0  0  0  0  0  0  0  0  0  0  0  0
    5.8082    2.8175    3.0077 N   0  0  0  0  0  0  0  0  0  0  0  0
    5.5477    2.4691    1.7558 N   0  0  0  0  0  0  0  0  0  0  0  0
    2.8693    0.1171    0.7638 C   0  0  0  0  0  0  0  0  0  0  0  0
   -2.5690   -0.7292   -1.9709 O   0  0  0  0  0  0  0  0  0  0  0  0
   -3.5320    0.1009   -1.4917 C   0  0  0  0  0  0  0  0  0  0  0  0
   -4.3527    0.9163   -2.2704 C   0  0  0  0  0  0  0  0  0  0  0  0
   -5.2801    1.7037   -1.5818 C   0  0  0  0  0  0  0  0  0  0  0  0
   -5.3574    1.6568   -0.1918 C   0  0  0  0  0  0  0  0  0  0  0  0
   -6.2572    2.4264    0.4358 F   0  0  0  0  0  0  0  0  0  0  0  0
   -4.5247    0.8318    0.5694 C   0  0  0  0  0  0  0  0  0  0  0  0
   -3.5857    0.0289   -0.1039 C   0  0  0  0  0  0  0  0  0  0  0  0
   -1.9122   -2.3820    1.6882 H   0  0  0  0  0  0  0  0  0  0  0  0
   -3.0838   -1.2323    2.3384 H   0  0  0  0  0  0  0  0  0  0  0  0
   -1.4126   -0.7156    2.0454 H   0  0  0  0  0  0  0  0  0  0  0  0
   -1.0664   -2.7823   -2.1689 H   0  0  0  0  0  0  0  0  0  0  0  0
   -0.8129   -3.0726   -0.4369 H   0  0  0  0  0  0  0  0  0  0  0  0
    0.3663   -0.8606   -2.0528 H   0  0  0  0  0  0  0  0  0  0  0  0
    2.4858   -0.6274   -2.5530 H   0  0  0  0  0  0  0  0  0  0  0  0
    4.3628    0.9559   -2.7232 H   0  0  0  0  0  0  0  0  0  0  0  0
    5.3154    1.9966   -0.7134 H   0  0  0  0  0  0  0  0  0  0  0  0
    3.3882    0.7994    3.4983 H   0  0  0  0  0  0  0  0  0  0  0  0
    2.4311   -0.1481    1.7231 H   0  0  0  0  0  0  0  0  0  0  0  0
   -4.2706    0.9335   -3.3502 H   0  0  0  0  0  0  0  0  0  0  0  0
   -5.9503    2.3614   -2.1281 H   0  0  0  0  0  0  0  0  0  0  0  0
   -4.6131    0.8218    1.6500 H   0  0  0  0  0  0  0  0  0  0  0  0
  1  2  1  0
  2  3  2  0
  3  4  1  0
  4  5  1  0
  5  6  1  0
  6  7  2  0
  6  8  1  0
  8  9  1  0
  9 10  2  0
 10 11  1  0
 11 12  2  0
 12 13  1  0
 13 14  1  0
 14 15  2  0
 15 16  1  0
 16 17  2  0
 12 18  1  0
  3 19  1  0
 19 20  1  0
 20 21  2  0
 21 22  1  0
 22 23  2  0
 23 24  1  0
 23 25  1  0
 25 26  2  0
 26  2  1  0
 18  8  2  0
 26 20  1  0
 17 13  1  0
  1 27  1  0
  1 28  1  0
  1 29  1  0
  4 30  1  0
  4 31  1  0
  5 32  1  0
  9 33  1  0
 10 34  1  0
 11 35  1  0
 14 36  1  0
 18 37  1  0
 21 38  1  0
 22 39  1  0
 25 40  1  0
M  END
$$$$
OCNT-2308945
     RDKit          3D

 41 43  0  0  0  0  0  0  0  0999 V2000
    6.2601    1.0303   -1.3866 C   0  0  0  0  0  0  0  0  0  0  0  0
    5.7154   -0.3438   -1.0279 C   0  0  0  0  0  0  0  0  0  0  0  0
    4.2473   -0.2927   -0.6867 C   0  0  0  0  0  0  0  0  0  0  0  0
    3.2792   -0.4796   -1.6918 C   0  0  0  0  0  0  0  0  0  0  0  0
    1.9112   -0.4192   -1.4000 C   0  0  0  0  0  0  0  0  0  0  0  0
    1.5180   -0.1648   -0.0973 C   0  0  0  0  0  0  0  0  0  0  0  0
    2.4736    0.0270    0.9009 C   0  0  0  0  0  0  0  0  0  0  0  0
    3.8337   -0.0313    0.6260 C   0  0  0  0  0  0  0  0  0  0  0  0
    1.8388    0.2878    2.2257 C   0  0  0  0  0  0  0  0  0  0  0  0
    0.3470    0.2376    1.8810 C   0  0  0  0  0  0  0  0  0  0  0  0
    0.2173   -0.0529    0.4406 N   0  0  0  0  0  0  0  0  0  0  0  0
   -0.9666   -0.1899   -0.2827 C   0  0  0  0  0  0  0  0  0  0  0  0
   -1.0014   -0.4346   -1.4868 O   0  0  0  0  0  0  0  0  0  0  0  0
   -2.1094   -0.0236    0.4865 N   0  0  0  0  0  0  0  0  0  0  0  0
   -3.4188   -0.1041    0.0318 C   0  0  0  0  0  0  0  0  0  0  0  0
   -3.8616   -0.3627   -1.2427 C   0  0  0  0  0  0  0  0  0  0  0  0
   -5.2208   -0.3393   -1.1954 N   0  0  0  0  0  0  0  0  0  0  0  0
   -6.1294   -0.5580   -2.2951 C   0  0  0  0  0  0  0  0  0  0  0  0
   -5.7118   -0.0814    0.0293 N   0  0  0  0  0  0  0  0  0  0  0  0
   -4.6128    0.0657    0.7997 C   0  0  0  0  0  0  0  0  0  0  0  0
   -4.7026    0.3655    2.2669 C   0  0  0  0  0  0  0  0  0  0  0  0
   -3.4602    0.4843    2.8298 F   0  0  0  0  0  0  0  0  0  0  0  0
   -5.3380   -0.6103    2.9687 F   0  0  0  0  0  0  0  0  0  0  0  0
   -5.3459    1.5335    2.5318 F   0  0  0  0  0  0  0  0  0  0  0  0
    6.1495    1.7315   -0.5523 H   0  0  0  0  0  0  0  0  0  0  0  0
    7.3244    0.9631   -1.6338 H   0  0  0  0  0  0  0  0  0  0  0  0
    5.7365    1.4527   -2.2512 H   0  0  0  0  0  0  0  0  0  0  0  0
    5.8773   -1.0362   -1.8629 H   0  0  0  0  0  0  0  0  0  0  0  0
    6.2758   -0.7550   -0.1795 H   0  0  0  0  0  0  0  0  0  0  0  0
    3.5877   -0.6741   -2.7172 H   0  0  0  0  0  0  0  0  0  0  0  0
    1.1939   -0.5701   -2.1988 H   0  0  0  0  0  0  0  0  0  0  0  0
    4.5618    0.1250    1.4168 H   0  0  0  0  0  0  0  0  0  0  0  0
    2.1020   -0.4878    2.9518 H   0  0  0  0  0  0  0  0  0  0  0  0
    2.1207    1.2699    2.6177 H   0  0  0  0  0  0  0  0  0  0  0  0
   -0.1413    1.1955    2.0954 H   0  0  0  0  0  0  0  0  0  0  0  0
   -0.1664   -0.5447    2.4521 H   0  0  0  0  0  0  0  0  0  0  0  0
   -1.9958    0.1796    1.4677 H   0  0  0  0  0  0  0  0  0  0  0  0
   -3.3328   -0.5598   -2.1656 H   0  0  0  0  0  0  0  0  0  0  0  0
   -5.5585   -0.7395   -3.2090 H   0  0  0  0  0  0  0  0  0  0  0  0
   -6.7482   -1.4281   -2.0621 H   0  0  0  0  0  0  0  0  0  0  0  0
   -6.7486    0.3348   -2.4129 H   0  0  0  0  0  0  0  0  0  0  0  0
  1  2  1  0
  2  3  1  0
  3  4  1  0
  4  5  2  0
  5  6  1  0
  6  7  2  0
  7  8  1  0
  7  9  1  0
  9 10  1  0
 10 11  1  0
 11 12  1  0
 12 13  2  0
 12 14  1  0
 14 15  1  0
 15 16  2  0
 16 17  1  0
 17 18  1  0
 17 19  1  0
 19 20  2  0
 20 21  1  0
 21 22  1  0
 21 23  1  0
 21 24  1  0
  8  3  2  0
 20 15  1  0
 11  6  1  0
  1 25  1  0
  1 26  1  0
  1 27  1  0
  2 28  1  0
  2 29  1  0
  4 30  1  0
  5 31  1  0
  8 32  1  0
  9 33  1  0
  9 34  1  0
 10 35  1  0
 10 36  1  0
 14 37  1  0
 16 38  1  0
 18 39  1  0
 18 40  1  0
 18 41  1  0
M  END
$$$$
OCNT-2308952
     RDKit          3D

 38 41  0  0  0  0  0  0  0  0999 V2000
   -6.2695    0.3234   -0.1986 Br  0  0  0  0  0  0  0  0  0  0  0  0
   -4.4341    0.3587   -0.6439 C   0  0  0  0  0  0  0  0  0  0  0  0
   -4.0563    0.5022   -1.9811 C   0  0  0  0  0  0  0  0  0  0  0  0
   -2.6998    0.5283   -2.3382 C   0  0  0  0  0  0  0  0  0  0  0  0
   -1.7069    0.3996   -1.3649 C   0  0  0  0  0  0  0  0  0  0  0  0
   -2.0882    0.2467   -0.0388 C   0  0  0  0  0  0  0  0  0  0  0  0
   -3.4468    0.2489    0.3225 C   0  0  0  0  0  0  0  0  0  0  0  0
   -3.5878    0.0911    1.8063 C   0  0  0  0  0  0  0  0  0  0  0  0
   -2.1882    0.5137    2.2731 C   0  0  0  0  0  0  0  0  0  0  0  0
   -1.2020    0.0656    1.1695 C   0  0  0  0  0  0  0  0  0  0  0  0
   -0.8249   -1.3310    1.3981 N   0  0  0  0  0  0  0  0  0  0  0  0
    0.2659   -1.8103    0.5416 C   0  0  0  0  0  0  0  0  0  0  0  0
    1.5754   -1.1869    0.9126 C   0  0  0  0  0  0  0  0  0  0  0  0
    1.9956   -1.1857    2.1942 N   0  0  0  0  0  0  0  0  0  0  0  0
    3.2295   -0.5396    2.1946 O   0  0  0  0  0  0  0  0  0  0  0  0
    3.5103   -0.1714    0.9314 C   0  0  0  0  0  0  0  0  0  0  0  0
    2.5137   -0.5486    0.0759 C   0  0  0  0  0  0  0  0  0  0  0  0
    2.5951   -0.2409   -1.3658 C   0  0  0  0  0  0  0  0  0  0  0  0
    3.9374    0.1515   -1.7504 O   0  0  0  0  0  0  0  0  0  0  0  0
    4.5269    1.1151   -0.8464 C   0  0  0  0  0  0  0  0  0  0  0  0
    4.7540    0.5235    0.5634 C   0  0  0  0  0  0  0  0  0  0  0  0
   -4.8107    0.5953   -2.7586 H   0  0  0  0  0  0  0  0  0  0  0  0
   -2.4225    0.6445   -3.3833 H   0  0  0  0  0  0  0  0  0  0  0  0
   -0.6608    0.4186   -1.6485 H   0  0  0  0  0  0  0  0  0  0  0  0
   -4.3506    0.7465    2.2351 H   0  0  0  0  0  0  0  0  0  0  0  0
   -3.7993   -0.9525    2.0609 H   0  0  0  0  0  0  0  0  0  0  0  0
   -1.9465    0.1207    3.2670 H   0  0  0  0  0  0  0  0  0  0  0  0
   -2.1542    1.6103    2.3553 H   0  0  0  0  0  0  0  0  0  0  0  0
   -0.3439    0.7463    1.1578 H   0  0  0  0  0  0  0  0  0  0  0  0
   -0.4937   -1.4244    2.3616 H   0  0  0  0  0  0  0  0  0  0  0  0
    0.0403   -1.6631   -0.5186 H   0  0  0  0  0  0  0  0  0  0  0  0
    0.3533   -2.8946    0.6822 H   0  0  0  0  0  0  0  0  0  0  0  0
    2.3258   -1.1132   -1.9688 H   0  0  0  0  0  0  0  0  0  0  0  0
    1.9155    0.5781   -1.6247 H   0  0  0  0  0  0  0  0  0  0  0  0
    3.8770    1.9984   -0.8061 H   0  0  0  0  0  0  0  0  0  0  0  0
    5.4851    1.4288   -1.2729 H   0  0  0  0  0  0  0  0  0  0  0  0
    5.5712   -0.2053    0.5296 H   0  0  0  0  0  0  0  0  0  0  0  0
    5.0146    1.3116    1.2754 H   0  0  0  0  0  0  0  0  0  0  0  0
  1  2  1  0
  2  3  1  0
  3  4  2  0
  4  5  1  0
  5  6  2  0
  6  7  1  0
  7  8  1  0
  8  9  1  0
  9 10  1  0
 10 11  1  0
 11 12  1  0
 12 13  1  0
 13 14  2  0
 14 15  1  0
 15 16  1  0
 16 17  2  0
 17 18  1  0
 18 19  1  0
 19 20  1  0
 20 21  1  0
  7  2  2  0
 17 13  1  0
 10  6  1  0
 21 16  1  0
  3 22  1  0
  4 23  1  0
  5 24  1  0
  8 25  1  0
  8 26  1  0
  9 27  1  0
  9 28  1  0
 10 29  1  0
 11 30  1  0
 12 31  1  0
 12 32  1  0
 18 33  1  0
 18 34  1  0
 20 35  1  0
 20 36  1  0
 21 37  1  0
 21 38  1  0
M  END
$$$$
OCNT-2308954
     RDKit          3D

 41 44  0  0  0  0  0  0  0  0999 V2000
    2.8146   -1.6814    1.1923 C   0  0  0  0  0  0  0  0  0  0  0  0
    2.3098   -0.3627    0.6600 C   0  0  0  0  0  0  0  0  0  0  0  0
    0.9451   -0.0174    0.7677 C   0  0  0  0  0  0  0  0  0  0  0  0
   -0.0062   -0.8948    1.3668 N   0  0  0  0  0  0  0  0  0  0  0  0
   -0.8213   -1.9932    0.3718 S   0  0  0  0  0  0  0  0  0  0  0  0
   -1.4285   -2.9611    1.2615 O   0  0  0  0  0  0  0  0  0  0  0  0
    0.0469   -2.4128   -0.7062 O   0  0  0  0  0  0  0  0  0  0  0  0
   -2.1382   -1.0079   -0.3041 C   0  0  0  0  0  0  0  0  0  0  0  0
   -2.0643   -0.5773   -1.6465 C   0  0  0  0  0  0  0  0  0  0  0  0
   -3.0955    0.1877   -2.1982 C   0  0  0  0  0  0  0  0  0  0  0  0
   -4.1680    0.4842   -1.3833 C   0  0  0  0  0  0  0  0  0  0  0  0
   -5.2965    1.2187   -1.7063 N   0  0  0  0  0  0  0  0  0  0  0  0
   -6.1705    1.3037   -0.6288 C   0  0  0  0  0  0  0  0  0  0  0  0
   -7.2403    1.8890   -0.6236 O   0  0  0  0  0  0  0  0  0  0  0  0
   -5.5416    0.5338    0.5389 C   0  0  0  0  0  0  0  0  0  0  0  0
   -4.2531    0.0517   -0.0597 C   0  0  0  0  0  0  0  0  0  0  0  0
   -3.2435   -0.7057    0.5039 C   0  0  0  0  0  0  0  0  0  0  0  0
    0.4613    1.1877    0.2500 C   0  0  0  0  0  0  0  0  0  0  0  0
    1.3226    2.0754   -0.3799 C   0  0  0  0  0  0  0  0  0  0  0  0
    2.6751    1.7624   -0.4793 C   0  0  0  0  0  0  0  0  0  0  0  0
    3.1948    0.5627    0.0484 C   0  0  0  0  0  0  0  0  0  0  0  0
    4.6407    0.3599   -0.0900 C   0  0  0  0  0  0  0  0  0  0  0  0
    5.4604    0.8543   -1.0014 N   0  0  0  0  0  0  0  0  0  0  0  0
    6.6962    0.3950   -0.6244 C   0  0  0  0  0  0  0  0  0  0  0  0
    6.5863   -0.3458    0.5233 C   0  0  0  0  0  0  0  0  0  0  0  0
    5.2745   -0.3663    0.8856 O   0  0  0  0  0  0  0  0  0  0  0  0
    2.0144   -2.4035    1.3737 H   0  0  0  0  0  0  0  0  0  0  0  0
    3.4840   -2.1604    0.4702 H   0  0  0  0  0  0  0  0  0  0  0  0
    3.3377   -1.5275    2.1412 H   0  0  0  0  0  0  0  0  0  0  0  0
    0.2372   -1.3187    2.2612 H   0  0  0  0  0  0  0  0  0  0  0  0
   -1.2023   -0.8353   -2.2600 H   0  0  0  0  0  0  0  0  0  0  0  0
   -3.0479    0.5262   -3.2271 H   0  0  0  0  0  0  0  0  0  0  0  0
   -5.4913    1.6444   -2.6002 H   0  0  0  0  0  0  0  0  0  0  0  0
   -5.3619    1.2148    1.3743 H   0  0  0  0  0  0  0  0  0  0  0  0
   -6.1877   -0.3017    0.8190 H   0  0  0  0  0  0  0  0  0  0  0  0
   -3.3056   -1.0546    1.5305 H   0  0  0  0  0  0  0  0  0  0  0  0
   -0.5894    1.4485    0.3447 H   0  0  0  0  0  0  0  0  0  0  0  0
    0.9475    3.0112   -0.7855 H   0  0  0  0  0  0  0  0  0  0  0  0
    3.3432    2.4713   -0.9696 H   0  0  0  0  0  0  0  0  0  0  0  0
    7.5874    0.6250   -1.1912 H   0  0  0  0  0  0  0  0  0  0  0  0
    7.2741   -0.8793    1.1619 H   0  0  0  0  0  0  0  0  0  0  0  0
  1  2  1  0
  2  3  1  0
  3  4  1  0
  4  5  1  0
  5  6  2  0
  5  7  2  0
  5  8  1  0
  8  9  1  0
  9 10  2  0
 10 11  1  0
 11 12  1  0
 12 13  1  0
 13 14  2  0
 13 15  1  0
 15 16  1  0
 16 17  1  0
  3 18  2  0
 18 19  1  0
 19 20  2  0
 20 21  1  0
 21 22  1  0
 22 23  2  0
 23 24  1  0
 24 25  2  0
 25 26  1  0
 21  2  2  0
 26 22  1  0
 17  8  2  0
 16 11  2  0
  1 27  1  0
  1 28  1  0
  1 29  1  0
  4 30  1  0
  9 31  1  0
 10 32  1  0
 12 33  1  0
 15 34  1  0
 15 35  1  0
 17 36  1  0
 18 37  1  0
 19 38  1  0
 20 39  1  0
 24 40  1  0
 25 41  1  0
M  END
$$$$
OCNT-2308968
     RDKit          3D

 59 62  0  0  0  0  0  0  0  0999 V2000
   -6.2698    2.8285   -2.2913 C   0  0  0  0  0  0  0  0  0  0  0  0
   -5.6014    1.6721   -1.6094 C   0  0  0  0  0  0  0  0  0  0  0  0
   -6.3513    0.6794   -0.9718 C   0  0  0  0  0  0  0  0  0  0  0  0
   -5.7193   -0.4007   -0.3469 C   0  0  0  0  0  0  0  0  0  0  0  0
   -4.3219   -0.5142   -0.3487 C   0  0  0  0  0  0  0  0  0  0  0  0
   -3.5722   -1.6582    0.3266 C   0  0  0  0  0  0  0  0  0  0  0  0
   -4.4050   -2.9143    0.6202 C   0  0  0  0  0  0  0  0  0  0  0  0
   -2.8651   -1.2108    1.5438 N   0  0  0  0  0  0  0  0  0  0  0  0
   -3.6107   -0.4140    2.5154 C   0  0  0  0  0  0  0  0  0  0  0  0
   -1.5869   -1.7025    1.7624 C   0  0  0  0  0  0  0  0  0  0  0  0
   -1.0778   -2.5778    1.0669 O   0  0  0  0  0  0  0  0  0  0  0  0
   -0.9238   -1.1258    2.8143 N   0  0  0  0  0  0  0  0  0  0  0  0
    0.4428   -1.4888    3.1226 C   0  0  0  0  0  0  0  0  0  0  0  0
    1.4194   -0.5568    2.4482 C   0  0  0  0  0  0  0  0  0  0  0  0
    1.9444    0.5462    3.1328 C   0  0  0  0  0  0  0  0  0  0  0  0
    2.8257    1.4178    2.4946 C   0  0  0  0  0  0  0  0  0  0  0  0
    3.1855    1.2015    1.1645 C   0  0  0  0  0  0  0  0  0  0  0  0
    2.6706    0.1072    0.4558 C   0  0  0  0  0  0  0  0  0  0  0  0
    3.0407   -0.1294   -0.9873 C   0  0  0  0  0  0  0  0  0  0  0  0
    4.4531   -0.4276   -1.1448 N   0  0  0  0  0  0  0  0  0  0  0  0
    5.0340   -1.6332   -0.8575 C   0  0  0  0  0  0  0  0  0  0  0  0
    6.3166   -1.6348   -1.1385 N   0  0  0  0  0  0  0  0  0  0  0  0
    6.5788   -0.3778   -1.6258 C   0  0  0  0  0  0  0  0  0  0  0  0
    7.7905    0.1670   -2.0761 C   0  0  0  0  0  0  0  0  0  0  0  0
    7.8077    1.4892   -2.5360 C   0  0  0  0  0  0  0  0  0  0  0  0
    6.6410    2.2550   -2.5482 C   0  0  0  0  0  0  0  0  0  0  0  0
    5.4220    1.7297   -2.1040 C   0  0  0  0  0  0  0  0  0  0  0  0
    5.4258    0.4053   -1.6468 C   0  0  0  0  0  0  0  0  0  0  0  0
    1.7847   -0.7632    1.1086 C   0  0  0  0  0  0  0  0  0  0  0  0
   -3.5766    0.4915   -0.9874 C   0  0  0  0  0  0  0  0  0  0  0  0
   -4.2073    1.5694   -1.6128 C   0  0  0  0  0  0  0  0  0  0  0  0
   -6.0593    2.8041   -3.3652 H   0  0  0  0  0  0  0  0  0  0  0  0
   -5.9085    3.7740   -1.8741 H   0  0  0  0  0  0  0  0  0  0  0  0
   -7.3561    2.7990   -2.1597 H   0  0  0  0  0  0  0  0  0  0  0  0
   -7.4376    0.7372   -0.9564 H   0  0  0  0  0  0  0  0  0  0  0  0
   -6.3428   -1.1443    0.1426 H   0  0  0  0  0  0  0  0  0  0  0  0
   -2.8196   -1.9812   -0.4071 H   0  0  0  0  0  0  0  0  0  0  0  0
   -4.9025   -3.2784   -0.2856 H   0  0  0  0  0  0  0  0  0  0  0  0
   -5.1730   -2.7313    1.3791 H   0  0  0  0  0  0  0  0  0  0  0  0
   -3.7671   -3.7207    0.9984 H   0  0  0  0  0  0  0  0  0  0  0  0
   -4.6447   -0.7658    2.5737 H   0  0  0  0  0  0  0  0  0  0  0  0
   -3.5942    0.6327    2.1993 H   0  0  0  0  0  0  0  0  0  0  0  0
   -3.1816   -0.4904    3.5179 H   0  0  0  0  0  0  0  0  0  0  0  0
   -1.1532   -0.1581    2.9715 H   0  0  0  0  0  0  0  0  0  0  0  0
    0.6447   -2.5282    2.8393 H   0  0  0  0  0  0  0  0  0  0  0  0
    0.5518   -1.4247    4.2112 H   0  0  0  0  0  0  0  0  0  0  0  0
    1.6739    0.7314    4.1698 H   0  0  0  0  0  0  0  0  0  0  0  0
    3.2367    2.2667    3.0350 H   0  0  0  0  0  0  0  0  0  0  0  0
    3.8780    1.8926    0.6889 H   0  0  0  0  0  0  0  0  0  0  0  0
    2.4878   -0.9767   -1.4092 H   0  0  0  0  0  0  0  0  0  0  0  0
    2.7887    0.7488   -1.5902 H   0  0  0  0  0  0  0  0  0  0  0  0
    4.4791   -2.4676   -0.4474 H   0  0  0  0  0  0  0  0  0  0  0  0
    8.6914   -0.4357   -2.0641 H   0  0  0  0  0  0  0  0  0  0  0  0
    8.7416    1.9208   -2.8873 H   0  0  0  0  0  0  0  0  0  0  0  0
    6.6796    3.2801   -2.9110 H   0  0  0  0  0  0  0  0  0  0  0  0
    4.5215    2.3333   -2.1165 H   0  0  0  0  0  0  0  0  0  0  0  0
    1.3630   -1.6150    0.5738 H   0  0  0  0  0  0  0  0  0  0  0  0
   -2.4895    0.4373   -0.9963 H   0  0  0  0  0  0  0  0  0  0  0  0
   -3.6025    2.3303   -2.1003 H   0  0  0  0  0  0  0  0  0  0  0  0
  1  2  1  0
  2  3  1  0
  3  4  2  0
  4  5  1  0
  5  6  1  0
  6  7  1  0
  6  8  1  0
  8  9  1  0
  8 10  1  0
 10 11  2  0
 10 12  1  0
 12 13  1  0
 13 14  1  0
 14 15  1  0
 15 16  2  0
 16 17  1  0
 17 18  2  0
 18 19  1  0
 19 20  1  0
 20 21  1  0
 21 22  2  0
 22 23  1  0
 23 24  2  0
 24 25  1  0
 25 26  2  0
 26 27  1  0
 27 28  2  0
 18 29  1  0
  5 30  2  0
 30 31  1  0
 31  2  2  0
 29 14  2  0
 28 20  1  0
 28 23  1  0
  1 32  1  0
  1 33  1  0
  1 34  1  0
  3 35  1  0
  4 36  1  0
  6 37  1  0
  7 38  1  0
  7 39  1  0
  7 40  1  0
  9 41  1  0
  9 42  1  0
  9 43  1  0
 12 44  1  0
 13 45  1  0
 13 46  1  0
 15 47  1  0
 16 48  1  0
 17 49  1  0
 19 50  1  0
 19 51  1  0
 21 52  1  0
 24 53  1  0
 25 54  1  0
 26 55  1  0
 27 56  1  0
 29 57  1  0
 30 58  1  0
 31 59  1  0
M  END
$$$$
OCNT-2308971
     RDKit          3D

 50 52  0  0  0  0  0  0  0  0999 V2000
    6.3311   -2.7662    0.0538 C   0  0  0  0  0  0  0  0  0  0  0  0
    5.6430   -1.4450    0.2070 C   0  0  0  0  0  0  0  0  0  0  0  0
    6.0434   -0.5013    1.0719 C   0  0  0  0  0  0  0  0  0  0  0  0
    5.3669    0.6866    1.1679 N   0  0  0  0  0  0  0  0  0  0  0  0
    4.2547    1.0036    0.4257 C   0  0  0  0  0  0  0  0  0  0  0  0
    3.6549    2.0638    0.5759 O   0  0  0  0  0  0  0  0  0  0  0  0
    3.8044   -0.0261   -0.5587 C   0  0  0  0  0  0  0  0  0  0  0  0
    2.6374    0.3153   -1.4282 C   0  0  0  0  0  0  0  0  0  0  0  0
    1.4521    0.4727   -0.6149 N   0  0  0  0  0  0  0  0  0  0  0  0
    0.2196    0.4492   -1.2155 C   0  0  0  0  0  0  0  0  0  0  0  0
    0.0350    0.1808   -2.3942 O   0  0  0  0  0  0  0  0  0  0  0  0
   -0.7697    0.7471   -0.3203 N   0  0  0  0  0  0  0  0  0  0  0  0
   -2.1799    0.7352   -0.6756 C   0  0  0  0  0  0  0  0  0  0  0  0
   -2.9119    1.8896   -0.0004 C   0  0  0  0  0  0  0  0  0  0  0  0
   -3.7389    2.7248   -0.7708 C   0  0  0  0  0  0  0  0  0  0  0  0
   -4.4337    3.7846   -0.1843 C   0  0  0  0  0  0  0  0  0  0  0  0
   -4.3148    4.0254    1.1818 C   0  0  0  0  0  0  0  0  0  0  0  0
   -3.5016    3.2073    1.9617 C   0  0  0  0  0  0  0  0  0  0  0  0
   -2.8054    2.1470    1.3762 C   0  0  0  0  0  0  0  0  0  0  0  0
   -2.8855   -0.6168   -0.4146 C   0  0  0  0  0  0  0  0  0  0  0  0
   -2.3750   -1.7768   -1.2727 C   0  0  0  0  0  0  0  0  0  0  0  0
   -3.0406   -2.9906   -0.6405 C   0  0  0  0  0  0  0  0  0  0  0  0
   -3.0884   -2.6848    0.8545 C   0  0  0  0  0  0  0  0  0  0  0  0
   -2.7739   -1.1940    1.0011 C   0  0  0  0  0  0  0  0  0  0  0  0
    4.4895   -1.1825   -0.6346 C   0  0  0  0  0  0  0  0  0  0  0  0
    5.6412   -3.5874    0.2759 H   0  0  0  0  0  0  0  0  0  0  0  0
    6.7020   -2.8911   -0.9691 H   0  0  0  0  0  0  0  0  0  0  0  0
    7.1870   -2.8596    0.7309 H   0  0  0  0  0  0  0  0  0  0  0  0
    6.8986   -0.6247    1.7288 H   0  0  0  0  0  0  0  0  0  0  0  0
    5.6669    1.3897    1.8320 H   0  0  0  0  0  0  0  0  0  0  0  0
    2.8105    1.2535   -1.9678 H   0  0  0  0  0  0  0  0  0  0  0  0
    2.4587   -0.4639   -2.1785 H   0  0  0  0  0  0  0  0  0  0  0  0
    1.5390    1.1834    0.1020 H   0  0  0  0  0  0  0  0  0  0  0  0
   -0.5206    0.7020    0.6540 H   0  0  0  0  0  0  0  0  0  0  0  0
   -2.2281    0.9115   -1.7588 H   0  0  0  0  0  0  0  0  0  0  0  0
   -3.8449    2.5565   -1.8409 H   0  0  0  0  0  0  0  0  0  0  0  0
   -5.0661    4.4227   -0.7960 H   0  0  0  0  0  0  0  0  0  0  0  0
   -4.8545    4.8510    1.6378 H   0  0  0  0  0  0  0  0  0  0  0  0
   -3.4081    3.3946    3.0283 H   0  0  0  0  0  0  0  0  0  0  0  0
   -2.1819    1.5242    2.0115 H   0  0  0  0  0  0  0  0  0  0  0  0
   -3.9554   -0.4881   -0.6398 H   0  0  0  0  0  0  0  0  0  0  0  0
   -1.2878   -1.8858   -1.2019 H   0  0  0  0  0  0  0  0  0  0  0  0
   -2.6432   -1.6655   -2.3275 H   0  0  0  0  0  0  0  0  0  0  0  0
   -4.0605   -3.1024   -1.0275 H   0  0  0  0  0  0  0  0  0  0  0  0
   -2.5003   -3.9171   -0.8564 H   0  0  0  0  0  0  0  0  0  0  0  0
   -4.0765   -2.9237    1.2625 H   0  0  0  0  0  0  0  0  0  0  0  0
   -2.3543   -3.2840    1.4039 H   0  0  0  0  0  0  0  0  0  0  0  0
   -1.7616   -1.0799    1.4043 H   0  0  0  0  0  0  0  0  0  0  0  0
   -3.4667   -0.7141    1.6992 H   0  0  0  0  0  0  0  0  0  0  0  0
    4.1937   -1.9507   -1.3443 H   0  0  0  0  0  0  0  0  0  0  0  0
  1  2  1  0
  2  3  2  0
  3  4  1  0
  4  5  1  0
  5  6  2  0
  5  7  1  0
  7  8  1  0
  8  9  1  0
  9 10  1  0
 10 11  2  0
 10 12  1  0
 12 13  1  0
 13 14  1  0
 14 15  2  0
 15 16  1  0
 16 17  2  0
 17 18  1  0
 18 19  2  0
 13 20  1  0
 20 21  1  0
 21 22  1  0
 22 23  1  0
 23 24  1  0
  7 25  2  0
 25  2  1  0
 19 14  1  0
 24 20  1  0
  1 26  1  0
  1 27  1  0
  1 28  1  0
  3 29  1  0
  4 30  1  0
  8 31  1  0
  8 32  1  0
  9 33  1  0
 12 34  1  0
 13 35  1  0
 15 36  1  0
 16 37  1  0
 17 38  1  0
 18 39  1  0
 19 40  1  0
 20 41  1  0
 21 42  1  0
 21 43  1  0
 22 44  1  0
 22 45  1  0
 23 46  1  0
 23 47  1  0
 24 48  1  0
 24 49  1  0
 25 50  1  0
M  END
$$$$
OCNT-2308982
     RDKit          3D

  0  0  0  0  0  0  0  0  0  0999 V3000
M  V30 BEGIN CTAB
M  V30 COUNTS 41 43 0 0 0
M  V30 BEGIN ATOM
M  V30 1 C 5.990927 1.951612 0.154814 0
M  V30 2 C 4.808433 1.018153 0.359195 0
M  V30 3 C 4.509391 0.207541 -0.902495 0
M  V30 4 C 3.346972 -0.710172 -0.718653 0
M  V30 5 N 3.529516 -1.956290 -0.269479 0
M  V30 6 N 2.289991 -2.471821 -0.233486 0
M  V30 7 C 1.309749 -1.604892 -0.636851 0
M  V30 8 C -0.074866 -1.994272 -0.650225 0
M  V30 9 O -0.440899 -3.109243 -0.292518 0
M  V30 10 N -0.949745 -1.024029 -1.076901 0
M  V30 11 C -2.379005 -1.210251 -1.053143 0
M  V30 12 C -3.030159 -0.622042 0.179153 0 CFG=2
M  V30 13 C -4.410358 -1.162199 0.461685 0
M  V30 14 N -5.096936 -0.104626 1.225714 0
M  V30 15 C -4.497603 1.185249 0.836181 0
M  V30 16 C -3.094336 0.862586 0.423188 0 CFG=2
M  V30 17 C -2.483137 1.876155 -0.484364 0
M  V30 18 F -3.138205 1.920164 -1.666782 0
M  V30 19 F -2.535276 3.108760 0.068270 0
M  V30 20 F -1.181470 1.606274 -0.755577 0
M  V30 21 C -2.217498 -0.003757 1.315473 0
M  V30 22 C 1.978860 -0.441447 -0.963852 0
M  V30 23 H 6.896000 1.389104 -0.095655 0
M  V30 24 H 6.186880 2.520807 1.068889 0
M  V30 25 H 5.793581 2.663583 -0.652938 0
M  V30 26 H 5.022437 0.343959 1.197537 0
M  V30 27 H 3.928919 1.608330 0.644433 0
M  V30 28 H 5.394780 -0.374173 -1.188924 0
M  V30 29 H 4.300802 0.887976 -1.737674 0
M  V30 30 H 2.162867 -3.429684 0.079247 0
M  V30 31 H -0.595817 -0.097329 -1.275390 0
M  V30 32 H -2.603316 -2.280981 -1.114522 0
M  V30 33 H -2.784986 -0.735656 -1.952893 0
M  V30 34 H -4.959805 -1.343699 -0.468736 0
M  V30 35 H -4.371167 -2.094928 1.033024 0
M  V30 36 H -4.895714 -0.259083 2.214115 0
M  V30 37 H -5.072235 1.605891 0.003578 0
M  V30 38 H -4.525836 1.893259 1.670528 0
M  V30 39 H -2.527937 -0.193113 2.337818 0
M  V30 40 H -1.140956 0.089620 1.227458 0
M  V30 41 H 1.557157 0.484664 -1.327486 0
M  V30 END ATOM
M  V30 BEGIN BOND
M  V30 1 1 1 2
M  V30 2 1 2 3
M  V30 3 1 3 4
M  V30 4 2 4 5
M  V30 5 1 5 6
M  V30 6 1 6 7
M  V30 7 1 7 8
M  V30 8 2 8 9
M  V30 9 1 8 10
M  V30 10 1 10 11
M  V30 11 1 12 11 CFG=3
M  V30 12 1 12 13
M  V30 13 1 13 14
M  V30 14 1 14 15
M  V30 15 1 15 16
M  V30 16 1 16 17 CFG=3
M  V30 17 1 17 18
M  V30 18 1 17 19
M  V30 19 1 17 20
M  V30 20 1 16 21
M  V30 21 2 7 22
M  V30 22 1 22 4
M  V30 23 1 16 12
M  V30 24 1 21 12
M  V30 25 1 1 23
M  V30 26 1 1 24
M  V30 27 1 1 25
M  V30 28 1 2 26
M  V30 29 1 2 27
M  V30 30 1 3 28
M  V30 31 1 3 29
M  V30 32 1 6 30
M  V30 33 1 10 31
M  V30 34 1 11 32
M  V30 35 1 11 33
M  V30 36 1 13 34
M  V30 37 1 13 35
M  V30 38 1 14 36
M  V30 39 1 15 37
M  V30 40 1 15 38
M  V30 41 1 21 39
M  V30 42 1 21 40
M  V30 43 1 22 41
M  V30 END BOND
M  V30 BEGIN COLLECTION
M  V30 MDLV30/STERAC1 ATOMS=(2 12 16)
M  V30 END COLLECTION
M  V30 END CTAB
M  END
>  <_CXSMILES_Data>  (143) 
|&1:11,15|

$$$$
OCNT-2308998
     RDKit          3D

 42 44  0  0  0  0  0  0  0  0999 V2000
    7.1993    0.6793    0.4224 C   0  0  0  0  0  0  0  0  0  0  0  0
    5.9858    0.0789   -0.2239 C   0  0  0  0  0  0  0  0  0  0  0  0
    6.0696   -0.4890   -1.4982 C   0  0  0  0  0  0  0  0  0  0  0  0
    4.9321   -1.0113   -2.1101 C   0  0  0  0  0  0  0  0  0  0  0  0
    3.6991   -0.9615   -1.4565 C   0  0  0  0  0  0  0  0  0  0  0  0
    3.5785   -0.3868   -0.1809 C   0  0  0  0  0  0  0  0  0  0  0  0
    2.2792   -0.3307    0.5056 C   0  0  0  0  0  0  0  0  0  0  0  0
    2.1212   -0.7689    1.8217 C   0  0  0  0  0  0  0  0  0  0  0  0
    0.9572   -0.7350    2.5163 N   0  0  0  0  0  0  0  0  0  0  0  0
   -0.1247   -0.2439    1.8656 C   0  0  0  0  0  0  0  0  0  0  0  0
   -0.0974    0.2009    0.5509 C   0  0  0  0  0  0  0  0  0  0  0  0
   -1.2938    0.7471   -0.1421 C   0  0  0  0  0  0  0  0  0  0  0  0
   -1.1136    1.5598   -1.0424 O   0  0  0  0  0  0  0  0  0  0  0  0
   -2.5112    0.2487    0.2758 N   0  0  0  0  0  0  0  0  0  0  0  0
   -3.8125    0.6319   -0.1432 C   0  0  0  0  0  0  0  0  0  0  0  0
   -4.0299    1.7034   -1.0176 C   0  0  0  0  0  0  0  0  0  0  0  0
   -5.3249    2.0776   -1.3892 C   0  0  0  0  0  0  0  0  0  0  0  0
   -6.4254    1.3940   -0.8848 C   0  0  0  0  0  0  0  0  0  0  0  0
   -6.2346    0.3225   -0.0140 C   0  0  0  0  0  0  0  0  0  0  0  0
   -4.9361   -0.0766    0.3502 C   0  0  0  0  0  0  0  0  0  0  0  0
   -4.7511   -1.2387    1.2719 C   0  0  0  0  0  0  0  0  0  0  0  0
   -5.7562   -2.1633    1.3547 N   0  0  0  0  0  0  0  0  0  0  0  0
   -3.7116   -1.3978    1.9049 O   0  0  0  0  0  0  0  0  0  0  0  0
    1.1291    0.1655   -0.1246 C   0  0  0  0  0  0  0  0  0  0  0  0
    4.7390    0.1362    0.4180 C   0  0  0  0  0  0  0  0  0  0  0  0
    8.1104    0.1670    0.0959 H   0  0  0  0  0  0  0  0  0  0  0  0
    7.2766    1.7391    0.1611 H   0  0  0  0  0  0  0  0  0  0  0  0
    7.1474    0.5852    1.5122 H   0  0  0  0  0  0  0  0  0  0  0  0
    7.0217   -0.5267   -2.0228 H   0  0  0  0  0  0  0  0  0  0  0  0
    5.0036   -1.4568   -3.0990 H   0  0  0  0  0  0  0  0  0  0  0  0
    2.8282   -1.3846   -1.9534 H   0  0  0  0  0  0  0  0  0  0  0  0
    2.9595   -1.1826    2.3783 H   0  0  0  0  0  0  0  0  0  0  0  0
   -1.0252   -0.2093    2.4727 H   0  0  0  0  0  0  0  0  0  0  0  0
   -2.5094   -0.5144    0.9554 H   0  0  0  0  0  0  0  0  0  0  0  0
   -3.2066    2.2839   -1.4232 H   0  0  0  0  0  0  0  0  0  0  0  0
   -5.4668    2.9172   -2.0663 H   0  0  0  0  0  0  0  0  0  0  0  0
   -7.4304    1.7022   -1.1628 H   0  0  0  0  0  0  0  0  0  0  0  0
   -7.1117   -0.1732    0.3917 H   0  0  0  0  0  0  0  0  0  0  0  0
   -6.4770   -2.2408    0.6512 H   0  0  0  0  0  0  0  0  0  0  0  0
   -5.5461   -2.9994    1.8866 H   0  0  0  0  0  0  0  0  0  0  0  0
    1.1860    0.5395   -1.1458 H   0  0  0  0  0  0  0  0  0  0  0  0
    4.6728    0.6109    1.3963 H   0  0  0  0  0  0  0  0  0  0  0  0
  1  2  1  0
  2  3  2  0
  3  4  1  0
  4  5  2  0
  5  6  1  0
  6  7  1  0
  7  8  2  0
  8  9  1  0
  9 10  2  0
 10 11  1  0
 11 12  1  0
 12 13  2  0
 12 14  1  0
 14 15  1  0
 15 16  2  0
 16 17  1  0
 17 18  2  0
 18 19  1  0
 19 20  2  0
 20 21  1  0
 21 22  1  0
 21 23  2  0
 11 24  2  0
  6 25  2  0
 25  2  1  0
 24  7  1  0
 20 15  1  0
  1 26  1  0
  1 27  1  0
  1 28  1  0
  3 29  1  0
  4 30  1  0
  5 31  1  0
  8 32  1  0
 10 33  1  0
 14 34  1  0
 16 35  1  0
 17 36  1  0
 18 37  1  0
 19 38  1  0
 22 39  1  0
 22 40  1  0
 24 41  1  0
 25 42  1  0
M  END
$$$$
OCNT-2309000
     RDKit          3D

 57 59  0  0  0  0  0  0  0  0999 V2000
   -2.5879    0.1834   -1.4793 O   0  0  0  0  0  0  0  0  0  0  0  0
   -2.5620    0.0663   -0.2580 C   0  0  0  0  0  0  0  0  0  0  0  0
   -3.8067    0.1898    0.6415 C   0  0  0  0  0  0  0  0  0  0  0  0
   -4.9921    0.6586    0.0204 O   0  0  0  0  0  0  0  0  0  0  0  0
   -5.6434   -0.3201   -0.8011 C   0  0  0  0  0  0  0  0  0  0  0  0
   -6.3723    0.4282   -1.9173 C   0  0  0  0  0  0  0  0  0  0  0  0
   -7.4485    1.3798   -1.3857 C   0  0  0  0  0  0  0  0  0  0  0  0
   -8.1207    0.8871   -0.1038 C   0  0  0  0  0  0  0  0  0  0  0  0
   -8.0636   -0.6282    0.0205 C   0  0  0  0  0  0  0  0  0  0  0  0
   -6.6224   -1.1498    0.0481 C   0  0  0  0  0  0  0  0  0  0  0  0
   -1.4054   -0.2227    0.4503 N   0  0  0  0  0  0  0  0  0  0  0  0
   -0.1169   -0.2332   -0.2220 C   0  0  0  0  0  0  0  0  0  0  0  0
    0.9313   -1.0195    0.5683 C   0  0  0  0  0  0  0  0  0  0  0  0
    1.3115   -0.3298    1.8874 C   0  0  0  0  0  0  0  0  0  0  0  0
    2.8286   -0.2215    1.8551 C   0  0  0  0  0  0  0  0  0  0  0  0
    3.1045   -0.1113    0.4227 N   0  0  0  0  0  0  0  0  0  0  0  0
    4.5202   -0.3080    0.0810 C   0  0  0  0  0  0  0  0  0  0  0  0
    5.4149    0.8373    0.5814 C   0  0  0  0  0  0  0  0  0  0  0  0
    6.8488    0.6540    0.1432 C   0  0  0  0  0  0  0  0  0  0  0  0
    7.2916    1.1855   -1.0754 C   0  0  0  0  0  0  0  0  0  0  0  0
    8.6112    0.9996   -1.4897 C   0  0  0  0  0  0  0  0  0  0  0  0
    9.4982    0.2783   -0.6928 C   0  0  0  0  0  0  0  0  0  0  0  0
    9.0665   -0.2589    0.5186 C   0  0  0  0  0  0  0  0  0  0  0  0
    7.7471   -0.0743    0.9348 C   0  0  0  0  0  0  0  0  0  0  0  0
    2.2521   -1.1305   -0.1982 C   0  0  0  0  0  0  0  0  0  0  0  0
   -3.5638    0.9131    1.4281 H   0  0  0  0  0  0  0  0  0  0  0  0
   -3.9831   -0.7767    1.1273 H   0  0  0  0  0  0  0  0  0  0  0  0
   -4.8990   -0.9877   -1.2505 H   0  0  0  0  0  0  0  0  0  0  0  0
   -5.6572    1.0090   -2.5123 H   0  0  0  0  0  0  0  0  0  0  0  0
   -6.8345   -0.2994   -2.5962 H   0  0  0  0  0  0  0  0  0  0  0  0
   -7.0137    2.3693   -1.1984 H   0  0  0  0  0  0  0  0  0  0  0  0
   -8.2035    1.5242   -2.1681 H   0  0  0  0  0  0  0  0  0  0  0  0
   -7.6247    1.3380    0.7648 H   0  0  0  0  0  0  0  0  0  0  0  0
   -9.1609    1.2314   -0.0787 H   0  0  0  0  0  0  0  0  0  0  0  0
   -8.5879   -0.9543    0.9261 H   0  0  0  0  0  0  0  0  0  0  0  0
   -8.5970   -1.0791   -0.8260 H   0  0  0  0  0  0  0  0  0  0  0  0
   -6.6342   -2.1838   -0.3177 H   0  0  0  0  0  0  0  0  0  0  0  0
   -6.2833   -1.1882    1.0898 H   0  0  0  0  0  0  0  0  0  0  0  0
   -1.4109   -0.0094    1.4394 H   0  0  0  0  0  0  0  0  0  0  0  0
   -0.2490   -0.6805   -1.2142 H   0  0  0  0  0  0  0  0  0  0  0  0
    0.1870    0.8096   -0.3704 H   0  0  0  0  0  0  0  0  0  0  0  0
    0.5446   -2.0254    0.7766 H   0  0  0  0  0  0  0  0  0  0  0  0
    0.9730   -0.9076    2.7539 H   0  0  0  0  0  0  0  0  0  0  0  0
    0.8674    0.6704    1.9609 H   0  0  0  0  0  0  0  0  0  0  0  0
    3.2804   -1.1220    2.2903 H   0  0  0  0  0  0  0  0  0  0  0  0
    3.1696    0.6518    2.4192 H   0  0  0  0  0  0  0  0  0  0  0  0
    4.8861   -1.2684    0.4686 H   0  0  0  0  0  0  0  0  0  0  0  0
    4.6097   -0.3593   -1.0125 H   0  0  0  0  0  0  0  0  0  0  0  0
    5.0417    1.7998    0.2080 H   0  0  0  0  0  0  0  0  0  0  0  0
    5.3871    0.9055    1.6758 H   0  0  0  0  0  0  0  0  0  0  0  0
    6.6094    1.7482   -1.7092 H   0  0  0  0  0  0  0  0  0  0  0  0
    8.9468    1.4176   -2.4352 H   0  0  0  0  0  0  0  0  0  0  0  0
   10.5258    0.1346   -1.0161 H   0  0  0  0  0  0  0  0  0  0  0  0
    9.7579   -0.8223    1.1396 H   0  0  0  0  0  0  0  0  0  0  0  0
    7.4245   -0.5011    1.8816 H   0  0  0  0  0  0  0  0  0  0  0  0
    2.1373   -0.9612   -1.2739 H   0  0  0  0  0  0  0  0  0  0  0  0
    2.6698   -2.1360   -0.0541 H   0  0  0  0  0  0  0  0  0  0  0  0
  1  2  2  0
  2  3  1  0
  3  4  1  0
  4  5  1  0
  5  6  1  0
  6  7  1  0
  7  8  1  0
  8  9  1  0
  9 10  1  0
  2 11  1  0
 11 12  1  0
 12 13  1  0
 13 14  1  0
 14 15  1  0
 15 16  1  0
 16 17  1  0
 17 18  1  0
 18 19  1  0
 19 20  2  0
 20 21  1  0
 21 22  2  0
 22 23  1  0
 23 24  2  0
 16 25  1  0
 10  5  1  0
 25 13  1  0
 24 19  1  0
  3 26  1  0
  3 27  1  0
  5 28  1  0
  6 29  1  0
  6 30  1  0
  7 31  1  0
  7 32  1  0
  8 33  1  0
  8 34  1  0
  9 35  1  0
  9 36  1  0
 10 37  1  0
 10 38  1  0
 11 39  1  0
 12 40  1  0
 12 41  1  0
 13 42  1  0
 14 43  1  0
 14 44  1  0
 15 45  1  0
 15 46  1  0
 17 47  1  0
 17 48  1  0
 18 49  1  0
 18 50  1  0
 20 51  1  0
 21 52  1  0
 22 53  1  0
 23 54  1  0
 24 55  1  0
 25 56  1  0
 25 57  1  0
M  END
$$$$
OCNT-2309003
     RDKit          3D

 54 58  0  0  0  0  0  0  0  0999 V2000
   -0.5928   -0.6698    3.5762 O   0  0  0  0  0  0  0  0  0  0  0  0
    0.1180   -0.4807    2.5926 C   0  0  0  0  0  0  0  0  0  0  0  0
   -0.3588   -0.0262    1.3915 N   0  0  0  0  0  0  0  0  0  0  0  0
   -1.7621    0.2348    1.1360 C   0  0  0  0  0  0  0  0  0  0  0  0
   -2.1632    1.6819    1.4159 C   0  0  0  0  0  0  0  0  0  0  0  0
   -1.2312    2.7319    1.4781 C   0  0  0  0  0  0  0  0  0  0  0  0
   -1.6451    4.0429    1.7264 C   0  0  0  0  0  0  0  0  0  0  0  0
   -2.9970    4.3262    1.9098 C   0  0  0  0  0  0  0  0  0  0  0  0
   -3.9362    3.3003    1.8452 C   0  0  0  0  0  0  0  0  0  0  0  0
   -3.5233    1.9893    1.5997 C   0  0  0  0  0  0  0  0  0  0  0  0
   -2.0952   -0.2104   -0.2846 C   0  0  0  0  0  0  0  0  0  0  0  0
   -1.6531    0.5180   -1.4069 C   0  0  0  0  0  0  0  0  0  0  0  0
   -1.9353    0.1098   -2.7174 C   0  0  0  0  0  0  0  0  0  0  0  0
   -2.6737   -1.0647   -2.8599 C   0  0  0  0  0  0  0  0  0  0  0  0
   -3.1282   -1.7447   -3.9607 N   0  0  0  0  0  0  0  0  0  0  0  0
   -3.8083   -2.8467   -3.5244 C   0  0  0  0  0  0  0  0  0  0  0  0
   -3.8193   -2.9234   -2.2133 N   0  0  0  0  0  0  0  0  0  0  0  0
   -3.1219   -1.8209   -1.7828 C   0  0  0  0  0  0  0  0  0  0  0  0
   -2.8292   -1.3989   -0.4780 C   0  0  0  0  0  0  0  0  0  0  0  0
    1.6236   -0.7033    2.6529 C   0  0  0  0  0  0  0  0  0  0  0  0
    2.4103    0.6010    2.5665 C   0  0  0  0  0  0  0  0  0  0  0  0
    2.7505    0.7834    1.0831 C   0  0  0  0  0  0  0  0  0  0  0  0
    2.3029   -0.4575    0.4214 N   0  0  0  0  0  0  0  0  0  0  0  0
    3.0813   -0.8932   -0.6635 C   0  0  0  0  0  0  0  0  0  0  0  0
    2.4223   -1.1702   -1.8699 C   0  0  0  0  0  0  0  0  0  0  0  0
    3.1280   -1.6202   -2.9910 C   0  0  0  0  0  0  0  0  0  0  0  0
    4.5080   -1.8074   -2.9220 C   0  0  0  0  0  0  0  0  0  0  0  0
    5.1813   -1.5512   -1.7297 C   0  0  0  0  0  0  0  0  0  0  0  0
    4.4707   -1.1039   -0.6169 C   0  0  0  0  0  0  0  0  0  0  0  0
    5.1473   -0.8937    0.5250 F   0  0  0  0  0  0  0  0  0  0  0  0
    2.1335   -1.4973    1.4583 C   0  0  0  0  0  0  0  0  0  0  0  0
    0.2868    0.0071    0.6057 H   0  0  0  0  0  0  0  0  0  0  0  0
   -2.3348   -0.3828    1.8416 H   0  0  0  0  0  0  0  0  0  0  0  0
   -0.1720    2.5400    1.3365 H   0  0  0  0  0  0  0  0  0  0  0  0
   -0.9108    4.8430    1.7794 H   0  0  0  0  0  0  0  0  0  0  0  0
   -3.3181    5.3458    2.1057 H   0  0  0  0  0  0  0  0  0  0  0  0
   -4.9919    3.5178    1.9889 H   0  0  0  0  0  0  0  0  0  0  0  0
   -4.2720    1.2008    1.5539 H   0  0  0  0  0  0  0  0  0  0  0  0
   -1.0765    1.4294   -1.2656 H   0  0  0  0  0  0  0  0  0  0  0  0
   -1.5950    0.6857   -3.5710 H   0  0  0  0  0  0  0  0  0  0  0  0
   -2.9901   -1.4753   -4.9240 H   0  0  0  0  0  0  0  0  0  0  0  0
   -4.2716   -3.5477   -4.2026 H   0  0  0  0  0  0  0  0  0  0  0  0
   -3.1739   -1.9986    0.3600 H   0  0  0  0  0  0  0  0  0  0  0  0
    1.8339   -1.2358    3.5876 H   0  0  0  0  0  0  0  0  0  0  0  0
    3.3412    0.5088    3.1384 H   0  0  0  0  0  0  0  0  0  0  0  0
    1.8648    1.4636    2.9628 H   0  0  0  0  0  0  0  0  0  0  0  0
    2.1953    1.6297    0.6636 H   0  0  0  0  0  0  0  0  0  0  0  0
    3.8169    1.0003    0.9657 H   0  0  0  0  0  0  0  0  0  0  0  0
    1.3442   -1.0351   -1.9364 H   0  0  0  0  0  0  0  0  0  0  0  0
    2.5951   -1.8273   -3.9162 H   0  0  0  0  0  0  0  0  0  0  0  0
    5.0553   -2.1587   -3.7928 H   0  0  0  0  0  0  0  0  0  0  0  0
    6.2537   -1.7021   -1.6545 H   0  0  0  0  0  0  0  0  0  0  0  0
    3.0879   -1.9761    1.7132 H   0  0  0  0  0  0  0  0  0  0  0  0
    1.4277   -2.2675    1.1286 H   0  0  0  0  0  0  0  0  0  0  0  0
  1  2  2  0
  2  3  1  0
  3  4  1  0
  4  5  1  0
  5  6  2  0
  6  7  1  0
  7  8  2  0
  8  9  1  0
  9 10  2  0
  4 11  1  0
 11 12  2  0
 12 13  1  0
 13 14  2  0
 14 15  1  0
 15 16  1  0
 16 17  2  0
 17 18  1  0
 18 19  2  0
  2 20  1  0
 20 21  1  0
 21 22  1  0
 22 23  1  0
 23 24  1  0
 24 25  2  0
 25 26  1  0
 26 27  2  0
 27 28  1  0
 28 29  2  0
 29 30  1  0
 23 31  1  0
 10  5  1  0
 19 11  1  0
 31 20  1  0
 18 14  1  0
 29 24  1  0
  3 32  1  0
  4 33  1  0
  6 34  1  0
  7 35  1  0
  8 36  1  0
  9 37  1  0
 10 38  1  0
 12 39  1  0
 13 40  1  0
 15 41  1  0
 16 42  1  0
 19 43  1  0
 20 44  1  0
 21 45  1  0
 21 46  1  0
 22 47  1  0
 22 48  1  0
 25 49  1  0
 26 50  1  0
 27 51  1  0
 28 52  1  0
 31 53  1  0
 31 54  1  0
M  END
$$$$
OCNT-2309014
     RDKit          3D

  0  0  0  0  0  0  0  0  0  0999 V3000
M  V30 BEGIN CTAB
M  V30 COUNTS 43 46 0 0 0
M  V30 BEGIN ATOM
M  V30 1 C -5.369497 1.688053 0.956330 0
M  V30 2 N -4.105198 1.127535 0.574217 0
M  V30 3 C -2.864802 1.673217 0.816068 0
M  V30 4 O -2.629773 2.726498 1.390383 0
M  V30 5 O -1.852973 0.847552 0.304926 0
M  V30 6 C -2.557994 -0.214457 -0.251611 0
M  V30 7 C -2.028462 -1.321624 -0.892349 0
M  V30 8 C -0.573639 -1.561436 -1.098378 0
M  V30 9 O -0.194618 -2.591811 -1.646594 0
M  V30 10 N 0.297494 -0.594857 -0.651358 0
M  V30 11 C 1.733778 -0.843160 -0.602543 0 CFG=1
M  V30 12 C 2.519785 0.461776 -0.630671 0
M  V30 13 C 2.123975 1.497422 -1.498036 0
M  V30 14 C 2.837666 2.693753 -1.563165 0
M  V30 15 C 3.967825 2.870533 -0.773400 0
M  V30 16 C 4.391273 1.846666 0.071913 0
M  V30 17 C 3.688033 0.632650 0.139918 0
M  V30 18 C 4.192798 -0.433903 1.081798 0
M  V30 19 C 3.586063 -1.810096 0.823822 0
M  V30 20 C 2.076719 -1.721876 0.631902 0 CFG=1
M  V30 21 O 1.468633 -1.219872 1.835711 0
M  V30 22 C -2.943985 -2.276801 -1.372668 0
M  V30 23 C -4.333371 -2.108158 -1.207781 0
M  V30 24 C -4.839820 -0.981814 -0.558444 0
M  V30 25 C -3.924854 -0.060017 -0.095051 0
M  V30 26 H -5.975470 1.858725 0.061662 0
M  V30 27 H -5.224458 2.640092 1.474525 0
M  V30 28 H -5.885816 0.993910 1.625931 0
M  V30 29 H -0.058539 0.141381 -0.054302 0
M  V30 30 H 2.021170 -1.400025 -1.504841 0
M  V30 31 H 1.250660 1.373980 -2.136449 0
M  V30 32 H 2.511626 3.485128 -2.233032 0
M  V30 33 H 4.524273 3.802922 -0.820059 0
M  V30 34 H 5.281948 1.998054 0.678839 0
M  V30 35 H 5.283659 -0.513889 0.999207 0
M  V30 36 H 3.966748 -0.118096 2.107974 0
M  V30 37 H 4.042050 -2.255913 -0.069064 0
M  V30 38 H 3.823411 -2.461858 1.672836 0
M  V30 39 H 1.670883 -2.729477 0.487223 0
M  V30 40 H 1.602503 -0.255847 1.854693 0
M  V30 41 H -2.578863 -3.168320 -1.882808 0
M  V30 42 H -5.013121 -2.866937 -1.590992 0
M  V30 43 H -5.907724 -0.849601 -0.428737 0
M  V30 END ATOM
M  V30 BEGIN BOND
M  V30 1 1 1 2
M  V30 2 1 2 3
M  V30 3 2 3 4
M  V30 4 1 3 5
M  V30 5 1 5 6
M  V30 6 2 6 7
M  V30 7 1 7 8
M  V30 8 2 8 9
M  V30 9 1 8 10
M  V30 10 1 10 11
M  V30 11 1 11 12
M  V30 12 2 12 13
M  V30 13 1 13 14
M  V30 14 2 14 15
M  V30 15 1 15 16
M  V30 16 2 16 17
M  V30 17 1 17 18
M  V30 18 1 18 19
M  V30 19 1 19 20
M  V30 20 1 20 21
M  V30 21 1 7 22
M  V30 22 2 22 23
M  V30 23 1 23 24
M  V30 24 2 24 25
M  V30 25 1 25 2
M  V30 26 1 25 6
M  V30 27 1 20 11
M  V30 28 1 17 12
M  V30 29 1 1 26
M  V30 30 1 1 27
M  V30 31 1 1 28
M  V30 32 1 10 29
M  V30 33 1 11 30 CFG=3
M  V30 34 1 13 31
M  V30 35 1 14 32
M  V30 36 1 15 33
M  V30 37 1 16 34
M  V30 38 1 18 35
M  V30 39 1 18 36
M  V30 40 1 19 37
M  V30 41 1 19 38
M  V30 42 1 20 39 CFG=3
M  V30 43 1 21 40
M  V30 44 1 22 41
M  V30 45 1 23 42
M  V30 46 1 24 43
M  V30 END BOND
M  V30 BEGIN COLLECTION
M  V30 MDLV30/STERAC1 ATOMS=(2 11 20)
M  V30 END COLLECTION
M  V30 END CTAB
M  END
>  <_CXSMILES_Data>  (147) 
|&1:10,19|

$$$$
OCNT-2309041
     RDKit          3D

 51 53  0  0  0  0  0  0  0  0999 V2000
   -3.2710   -2.8866   -1.3055 C   0  0  0  0  0  0  0  0  0  0  0  0
   -3.4856   -1.5280   -0.7049 C   0  0  0  0  0  0  0  0  0  0  0  0
   -4.7207   -0.8853   -0.8158 C   0  0  0  0  0  0  0  0  0  0  0  0
   -4.9220    0.3715   -0.2376 C   0  0  0  0  0  0  0  0  0  0  0  0
   -3.9008    1.0144    0.4804 C   0  0  0  0  0  0  0  0  0  0  0  0
   -4.2245    2.3342    1.1273 C   0  0  0  0  0  0  0  0  0  0  0  0
   -2.6537    0.3693    0.5736 C   0  0  0  0  0  0  0  0  0  0  0  0
   -1.5542    0.9726    1.2268 N   0  0  0  0  0  0  0  0  0  0  0  0
   -0.8145    0.4506    2.2775 C   0  0  0  0  0  0  0  0  0  0  0  0
   -1.0914   -0.8377    2.9561 C   0  0  0  0  0  0  0  0  0  0  0  0
    0.1237    1.3115    2.6244 N   0  0  0  0  0  0  0  0  0  0  0  0
    0.0506    2.3894    1.7816 N   0  0  0  0  0  0  0  0  0  0  0  0
   -0.9238    2.1650    0.9307 C   0  0  0  0  0  0  0  0  0  0  0  0
   -1.1737    3.1305   -0.4896 S   0  0  0  0  0  0  0  0  0  0  0  0
   -0.6407    1.9991   -1.8110 C   0  0  0  0  0  0  0  0  0  0  0  0
    0.5613    1.1524   -1.4276 C   0  0  0  0  0  0  0  0  0  0  0  0
    0.5391   -0.0720   -1.5263 O   0  0  0  0  0  0  0  0  0  0  0  0
    1.6612    1.8613   -0.9853 N   0  0  0  0  0  0  0  0  0  0  0  0
    2.7748    1.1713   -0.3622 C   0  0  0  0  0  0  0  0  0  0  0  0
    3.7358    0.5811   -1.3915 C   0  0  0  0  0  0  0  0  0  0  0  0
    5.0099    0.0389   -0.7473 C   0  0  0  0  0  0  0  0  0  0  0  0
    4.7911   -1.1390    0.0700 N   0  0  0  0  0  0  0  0  0  0  0  0
    4.6442   -1.1801    1.4275 C   0  0  0  0  0  0  0  0  0  0  0  0
    4.4697   -2.5054    1.7495 C   0  0  0  0  0  0  0  0  0  0  0  0
    4.5456   -3.1842    0.5194 C   0  0  0  0  0  0  0  0  0  0  0  0
    4.7535   -2.3554   -0.5061 N   0  0  0  0  0  0  0  0  0  0  0  0
   -2.4563   -0.9013    0.0054 C   0  0  0  0  0  0  0  0  0  0  0  0
   -3.4095   -3.6585   -0.5418 H   0  0  0  0  0  0  0  0  0  0  0  0
   -2.2611   -2.9703   -1.7211 H   0  0  0  0  0  0  0  0  0  0  0  0
   -3.9754   -3.0717   -2.1235 H   0  0  0  0  0  0  0  0  0  0  0  0
   -5.5396   -1.3584   -1.3539 H   0  0  0  0  0  0  0  0  0  0  0  0
   -5.8988    0.8417   -0.3380 H   0  0  0  0  0  0  0  0  0  0  0  0
   -5.2570    2.3342    1.4942 H   0  0  0  0  0  0  0  0  0  0  0  0
   -4.1182    3.1493    0.4065 H   0  0  0  0  0  0  0  0  0  0  0  0
   -3.5921    2.5314    1.9977 H   0  0  0  0  0  0  0  0  0  0  0  0
   -0.5926   -0.8659    3.9302 H   0  0  0  0  0  0  0  0  0  0  0  0
   -0.7121   -1.6762    2.3648 H   0  0  0  0  0  0  0  0  0  0  0  0
   -2.1623   -0.9784    3.1300 H   0  0  0  0  0  0  0  0  0  0  0  0
   -1.4726    1.3366   -2.0686 H   0  0  0  0  0  0  0  0  0  0  0  0
   -0.3883    2.5820   -2.7023 H   0  0  0  0  0  0  0  0  0  0  0  0
    1.4584    2.7885   -0.6229 H   0  0  0  0  0  0  0  0  0  0  0  0
    2.3758    0.3950    0.2999 H   0  0  0  0  0  0  0  0  0  0  0  0
    3.2928    1.9124    0.2576 H   0  0  0  0  0  0  0  0  0  0  0  0
    4.0154    1.3636   -2.1083 H   0  0  0  0  0  0  0  0  0  0  0  0
    3.2359   -0.2063   -1.9682 H   0  0  0  0  0  0  0  0  0  0  0  0
    5.4870    0.7998   -0.1180 H   0  0  0  0  0  0  0  0  0  0  0  0
    5.7329   -0.2410   -1.5234 H   0  0  0  0  0  0  0  0  0  0  0  0
    4.6635   -0.2859    2.0353 H   0  0  0  0  0  0  0  0  0  0  0  0
    4.3121   -2.9233    2.7326 H   0  0  0  0  0  0  0  0  0  0  0  0
    4.4613   -4.2462    0.3274 H   0  0  0  0  0  0  0  0  0  0  0  0
   -1.4829   -1.3904    0.0594 H   0  0  0  0  0  0  0  0  0  0  0  0
  1  2  1  0
  2  3  1  0
  3  4  2  0
  4  5  1  0
  5  6  1  0
  5  7  2  0
  7  8  1  0
  8  9  1  0
  9 10  1  0
  9 11  2  0
 11 12  1  0
 12 13  2  0
 13 14  1  0
 14 15  1  0
 15 16  1  0
 16 17  2  0
 16 18  1  0
 18 19  1  0
 19 20  1  0
 20 21  1  0
 21 22  1  0
 22 23  1  0
 23 24  2  0
 24 25  1  0
 25 26  2  0
  7 27  1  0
 27  2  2  0
 13  8  1  0
 26 22  1  0
  1 28  1  0
  1 29  1  0
  1 30  1  0
  3 31  1  0
  4 32  1  0
  6 33  1  0
  6 34  1  0
  6 35  1  0
 10 36  1  0
 10 37  1  0
 10 38  1  0
 15 39  1  0
 15 40  1  0
 18 41  1  0
 19 42  1  0
 19 43  1  0
 20 44  1  0
 20 45  1  0
 21 46  1  0
 21 47  1  0
 23 48  1  0
 24 49  1  0
 25 50  1  0
 27 51  1  0
M  END
$$$$
OCNT-2309057
     RDKit          3D

 49 52  0  0  0  0  0  0  0  0999 V2000
   -6.7524   -0.5755   -0.7093 C   0  0  0  0  0  0  0  0  0  0  0  0
   -5.3922   -0.4069   -0.0872 C   0  0  0  0  0  0  0  0  0  0  0  0
   -4.4907   -1.4843   -0.1188 C   0  0  0  0  0  0  0  0  0  0  0  0
   -3.2501   -1.3234    0.4596 C   0  0  0  0  0  0  0  0  0  0  0  0
   -2.8665   -0.1330    1.0495 C   0  0  0  0  0  0  0  0  0  0  0  0
   -3.7297    0.9478    1.0934 C   0  0  0  0  0  0  0  0  0  0  0  0
   -5.0101    0.8169    0.5265 C   0  0  0  0  0  0  0  0  0  0  0  0
   -5.9524    1.9903    0.5722 C   0  0  0  0  0  0  0  0  0  0  0  0
   -1.4635   -0.2502    1.5242 C   0  0  0  0  0  0  0  0  0  0  0  0
   -0.4554    0.5105    0.6778 C   0  0  0  0  0  0  0  0  0  0  0  0
    0.3360    1.3048    1.1860 O   0  0  0  0  0  0  0  0  0  0  0  0
   -0.4696    0.2505   -0.6717 N   0  0  0  0  0  0  0  0  0  0  0  0
    0.5263    0.7890   -1.5684 C   0  0  0  0  0  0  0  0  0  0  0  0
    1.6696   -0.1574   -1.6272 C   0  0  0  0  0  0  0  0  0  0  0  0
    1.6669   -1.3479   -2.1977 N   0  0  0  0  0  0  0  0  0  0  0  0
    2.9113   -1.9100   -2.0360 N   0  0  0  0  0  0  0  0  0  0  0  0
    3.6530   -1.0562   -1.3694 C   0  0  0  0  0  0  0  0  0  0  0  0
    5.0626   -1.2159   -0.9274 C   0  0  0  0  0  0  0  0  0  0  0  0
    5.6999    0.1395   -0.5969 C   0  0  0  0  0  0  0  0  0  0  0  0
    7.0401   -0.0714    0.0780 C   0  0  0  0  0  0  0  0  0  0  0  0
    6.9088   -0.7308    1.2475 F   0  0  0  0  0  0  0  0  0  0  0  0
    7.6354    1.1134    0.3372 F   0  0  0  0  0  0  0  0  0  0  0  0
    7.8738   -0.7820   -0.7099 F   0  0  0  0  0  0  0  0  0  0  0  0
    4.7523    0.9697    0.2878 C   0  0  0  0  0  0  0  0  0  0  0  0
    3.4222    1.2338   -0.4232 C   0  0  0  0  0  0  0  0  0  0  0  0
    2.9081    0.0579   -1.0882 N   0  0  0  0  0  0  0  0  0  0  0  0
   -1.2833   -1.7665    1.3988 C   0  0  0  0  0  0  0  0  0  0  0  0
   -2.2757   -2.2867    0.4759 O   0  0  0  0  0  0  0  0  0  0  0  0
   -6.8731   -1.5722   -1.1472 H   0  0  0  0  0  0  0  0  0  0  0  0
   -7.5339   -0.4506    0.0468 H   0  0  0  0  0  0  0  0  0  0  0  0
   -6.8974    0.1555   -1.5109 H   0  0  0  0  0  0  0  0  0  0  0  0
   -4.7522   -2.4300   -0.5827 H   0  0  0  0  0  0  0  0  0  0  0  0
   -3.4153    1.8809    1.5534 H   0  0  0  0  0  0  0  0  0  0  0  0
   -5.5096    2.8407    1.1017 H   0  0  0  0  0  0  0  0  0  0  0  0
   -6.8727    1.7193    1.0991 H   0  0  0  0  0  0  0  0  0  0  0  0
   -6.1946    2.3220   -0.4423 H   0  0  0  0  0  0  0  0  0  0  0  0
   -1.3555    0.0625    2.5684 H   0  0  0  0  0  0  0  0  0  0  0  0
   -1.0043   -0.5432   -1.0117 H   0  0  0  0  0  0  0  0  0  0  0  0
    0.0632    0.8740   -2.5566 H   0  0  0  0  0  0  0  0  0  0  0  0
    0.8248    1.7901   -1.2444 H   0  0  0  0  0  0  0  0  0  0  0  0
    5.0732   -1.8721   -0.0482 H   0  0  0  0  0  0  0  0  0  0  0  0
    5.6390   -1.7190   -1.7125 H   0  0  0  0  0  0  0  0  0  0  0  0
    5.8687    0.6909   -1.5319 H   0  0  0  0  0  0  0  0  0  0  0  0
    5.2129    1.9267    0.5591 H   0  0  0  0  0  0  0  0  0  0  0  0
    4.5604    0.4312    1.2253 H   0  0  0  0  0  0  0  0  0  0  0  0
    2.6804    1.5848    0.2969 H   0  0  0  0  0  0  0  0  0  0  0  0
    3.5507    1.9987   -1.1975 H   0  0  0  0  0  0  0  0  0  0  0  0
   -0.2879   -2.0562    1.0447 H   0  0  0  0  0  0  0  0  0  0  0  0
   -1.4514   -2.2596    2.3651 H   0  0  0  0  0  0  0  0  0  0  0  0
  1  2  1  0
  2  3  1  0
  3  4  2  0
  4  5  1  0
  5  6  2  0
  6  7  1  0
  7  8  1  0
  5  9  1  0
  9 10  1  0
 10 11  2  0
 10 12  1  0
 12 13  1  0
 13 14  1  0
 14 15  2  0
 15 16  1  0
 16 17  2  0
 17 18  1  0
 18 19  1  0
 19 20  1  0
 20 21  1  0
 20 22  1  0
 20 23  1  0
 19 24  1  0
 24 25  1  0
 25 26  1  0
  9 27  1  0
 27 28  1  0
  7  2  2  0
 26 14  1  0
 28  4  1  0
 26 17  1  0
  1 29  1  0
  1 30  1  0
  1 31  1  0
  3 32  1  0
  6 33  1  0
  8 34  1  0
  8 35  1  0
  8 36  1  0
  9 37  1  0
 12 38  1  0
 13 39  1  0
 13 40  1  0
 18 41  1  0
 18 42  1  0
 19 43  1  0
 24 44  1  0
 24 45  1  0
 25 46  1  0
 25 47  1  0
 27 48  1  0
 27 49  1  0
M  END
$$$$
OCNT-2309065
     RDKit          3D

 51 54  0  0  0  0  0  0  0  0999 V2000
   -7.0708    0.6952    2.6193 C   0  0  0  0  0  0  0  0  0  0  0  0
   -5.9652   -0.2922    2.6301 C   0  0  0  0  0  0  0  0  0  0  0  0
   -5.9906   -1.3083    3.4981 N   0  0  0  0  0  0  0  0  0  0  0  0
   -4.8414   -2.0325    3.2649 O   0  0  0  0  0  0  0  0  0  0  0  0
   -4.1334   -1.4563    2.2591 C   0  0  0  0  0  0  0  0  0  0  0  0
   -2.8658   -2.1253    1.9038 C   0  0  0  0  0  0  0  0  0  0  0  0
   -4.8006   -0.3328    1.8081 C   0  0  0  0  0  0  0  0  0  0  0  0
   -4.4228    0.6272    0.7170 C   0  0  0  0  0  0  0  0  0  0  0  0
   -4.6244    0.0125   -0.6704 C   0  0  0  0  0  0  0  0  0  0  0  0
   -3.0330    1.1508    0.8774 C   0  0  0  0  0  0  0  0  0  0  0  0
   -1.8911    0.6868    0.4164 N   0  0  0  0  0  0  0  0  0  0  0  0
   -0.9922    1.5989    0.9060 C   0  0  0  0  0  0  0  0  0  0  0  0
    0.4651    1.4966    0.6495 C   0  0  0  0  0  0  0  0  0  0  0  0
    0.8793    2.2749   -0.6015 C   0  0  0  0  0  0  0  0  0  0  0  0
    2.3865    2.2154   -0.8338 C   0  0  0  0  0  0  0  0  0  0  0  0
    2.7591    0.8554   -1.0414 O   0  0  0  0  0  0  0  0  0  0  0  0
    4.0943    0.5682   -1.1965 C   0  0  0  0  0  0  0  0  0  0  0  0
    5.1000    1.5381   -1.2678 C   0  0  0  0  0  0  0  0  0  0  0  0
    6.4323    1.1604   -1.4256 C   0  0  0  0  0  0  0  0  0  0  0  0
    6.7716   -0.1874   -1.5160 C   0  0  0  0  0  0  0  0  0  0  0  0
    5.7843   -1.1803   -1.4524 C   0  0  0  0  0  0  0  0  0  0  0  0
    6.1308   -2.5389   -1.5465 C   0  0  0  0  0  0  0  0  0  0  0  0
    5.1553   -3.5337   -1.4855 C   0  0  0  0  0  0  0  0  0  0  0  0
    3.8200   -3.1834   -1.3299 C   0  0  0  0  0  0  0  0  0  0  0  0
    3.4609   -1.8374   -1.2346 C   0  0  0  0  0  0  0  0  0  0  0  0
    4.4269   -0.8082   -1.2925 C   0  0  0  0  0  0  0  0  0  0  0  0
   -1.5298    2.5935    1.6234 N   0  0  0  0  0  0  0  0  0  0  0  0
   -2.8931    2.2954    1.6107 O   0  0  0  0  0  0  0  0  0  0  0  0
   -6.6949    1.6880    2.8869 H   0  0  0  0  0  0  0  0  0  0  0  0
   -7.5223    0.7527    1.6236 H   0  0  0  0  0  0  0  0  0  0  0  0
   -7.8589    0.4293    3.3316 H   0  0  0  0  0  0  0  0  0  0  0  0
   -2.0174   -1.5910    2.3418 H   0  0  0  0  0  0  0  0  0  0  0  0
   -2.8448   -3.1550    2.2750 H   0  0  0  0  0  0  0  0  0  0  0  0
   -2.7316   -2.1611    0.8189 H   0  0  0  0  0  0  0  0  0  0  0  0
   -5.0978    1.4923    0.7739 H   0  0  0  0  0  0  0  0  0  0  0  0
   -3.9778   -0.8570   -0.8326 H   0  0  0  0  0  0  0  0  0  0  0  0
   -5.6607   -0.3178   -0.8044 H   0  0  0  0  0  0  0  0  0  0  0  0
   -4.3993    0.7410   -1.4574 H   0  0  0  0  0  0  0  0  0  0  0  0
    1.0169    1.8710    1.5206 H   0  0  0  0  0  0  0  0  0  0  0  0
    0.7305    0.4381    0.5418 H   0  0  0  0  0  0  0  0  0  0  0  0
    0.3598    1.8544   -1.4722 H   0  0  0  0  0  0  0  0  0  0  0  0
    0.5704    3.3236   -0.5139 H   0  0  0  0  0  0  0  0  0  0  0  0
    2.9062    2.6284    0.0393 H   0  0  0  0  0  0  0  0  0  0  0  0
    2.6280    2.8073   -1.7245 H   0  0  0  0  0  0  0  0  0  0  0  0
    4.8809    2.5985   -1.2078 H   0  0  0  0  0  0  0  0  0  0  0  0
    7.2093    1.9189   -1.4800 H   0  0  0  0  0  0  0  0  0  0  0  0
    7.8181   -0.4584   -1.6390 H   0  0  0  0  0  0  0  0  0  0  0  0
    7.1707   -2.8338   -1.6692 H   0  0  0  0  0  0  0  0  0  0  0  0
    5.4395   -4.5799   -1.5601 H   0  0  0  0  0  0  0  0  0  0  0  0
    3.0546   -3.9532   -1.2826 H   0  0  0  0  0  0  0  0  0  0  0  0
    2.4083   -1.5886   -1.1144 H   0  0  0  0  0  0  0  0  0  0  0  0
  1  2  1  0
  2  3  2  0
  3  4  1  0
  4  5  1  0
  5  6  1  0
  5  7  2  0
  7  8  1  0
  8  9  1  0
  8 10  1  0
 10 11  2  0
 11 12  1  0
 12 13  1  0
 13 14  1  0
 14 15  1  0
 15 16  1  0
 16 17  1  0
 17 18  2  0
 18 19  1  0
 19 20  2  0
 20 21  1  0
 21 22  2  0
 22 23  1  0
 23 24  2  0
 24 25  1  0
 25 26  2  0
 12 27  2  0
 27 28  1  0
  7  2  1  0
 28 10  1  0
 26 17  1  0
 26 21  1  0
  1 29  1  0
  1 30  1  0
  1 31  1  0
  6 32  1  0
  6 33  1  0
  6 34  1  0
  8 35  1  0
  9 36  1  0
  9 37  1  0
  9 38  1  0
 13 39  1  0
 13 40  1  0
 14 41  1  0
 14 42  1  0
 15 43  1  0
 15 44  1  0
 18 45  1  0
 19 46  1  0
 20 47  1  0
 22 48  1  0
 23 49  1  0
 24 50  1  0
 25 51  1  0
M  END
$$$$
OCNT-2309084
     RDKit          3D

 40 44  0  0  0  0  0  0  0  0999 V2000
   -1.1412    3.4839   -0.7160 N   0  0  0  0  0  0  0  0  0  0  0  0
   -1.5324    2.5720   -0.1148 C   0  0  0  0  0  0  0  0  0  0  0  0
   -1.9693    1.4612    0.6556 C   0  0  0  0  0  0  0  0  0  0  0  0
   -1.4223    0.9989    1.8292 C   0  0  0  0  0  0  0  0  0  0  0  0
   -0.2683    1.5366    2.5509 N   0  0  0  0  0  0  0  0  0  0  0  0
    0.8499    0.4105    3.1405 S   0  0  0  0  0  0  0  0  0  0  0  0
    1.9769    1.1460    3.6648 O   0  0  0  0  0  0  0  0  0  0  0  0
    0.1051   -0.5338    3.9505 O   0  0  0  0  0  0  0  0  0  0  0  0
    1.3753   -0.4286    1.6607 C   0  0  0  0  0  0  0  0  0  0  0  0
    1.0480   -1.8055    1.5135 C   0  0  0  0  0  0  0  0  0  0  0  0
    1.3770   -2.5091    0.3444 C   0  0  0  0  0  0  0  0  0  0  0  0
    2.0270   -1.8121   -0.6460 C   0  0  0  0  0  0  0  0  0  0  0  0
    2.4618   -2.2368   -1.8970 N   0  0  0  0  0  0  0  0  0  0  0  0
    3.0702   -1.1787   -2.5546 C   0  0  0  0  0  0  0  0  0  0  0  0
    3.5672   -1.1686   -3.6613 O   0  0  0  0  0  0  0  0  0  0  0  0
    2.9881   -0.0389   -1.6154 C   0  0  0  0  0  0  0  0  0  0  0  0
    2.3484   -0.4890   -0.4879 C   0  0  0  0  0  0  0  0  0  0  0  0
    2.0700    0.2820    0.6380 C   0  0  0  0  0  0  0  0  0  0  0  0
    2.5288    1.6285    0.5440 C   0  0  0  0  0  0  0  0  0  0  0  0
    3.1877    2.1037   -0.6166 C   0  0  0  0  0  0  0  0  0  0  0  0
    3.4208    1.2653   -1.7150 C   0  0  0  0  0  0  0  0  0  0  0  0
   -2.1868   -0.0761    2.2076 N   0  0  0  0  0  0  0  0  0  0  0  0
   -3.1579   -0.3734    1.3254 N   0  0  0  0  0  0  0  0  0  0  0  0
   -3.0237    0.5680    0.3859 C   0  0  0  0  0  0  0  0  0  0  0  0
   -3.9539    0.6436   -0.8565 C   0  0  0  0  0  0  0  0  0  0  0  0
   -4.2965   -0.6229   -1.5988 C   0  0  0  0  0  0  0  0  0  0  0  0
   -3.3770    0.3834   -2.2252 C   0  0  0  0  0  0  0  0  0  0  0  0
    0.1399    2.4322    2.2789 H   0  0  0  0  0  0  0  0  0  0  0  0
    0.5271   -2.3365    2.3097 H   0  0  0  0  0  0  0  0  0  0  0  0
    1.1212   -3.5571    0.2325 H   0  0  0  0  0  0  0  0  0  0  0  0
    2.3666   -3.1607   -2.2909 H   0  0  0  0  0  0  0  0  0  0  0  0
    2.4021    2.3218    1.3725 H   0  0  0  0  0  0  0  0  0  0  0  0
    3.5244    3.1389   -0.6532 H   0  0  0  0  0  0  0  0  0  0  0  0
    3.9261    1.6212   -2.6068 H   0  0  0  0  0  0  0  0  0  0  0  0
   -2.0802   -0.6460    3.0438 H   0  0  0  0  0  0  0  0  0  0  0  0
   -4.7406    1.3872   -0.7768 H   0  0  0  0  0  0  0  0  0  0  0  0
   -5.3004   -0.7176   -1.9959 H   0  0  0  0  0  0  0  0  0  0  0  0
   -3.8721   -1.5572   -1.2480 H   0  0  0  0  0  0  0  0  0  0  0  0
   -2.3309    0.1144   -2.3178 H   0  0  0  0  0  0  0  0  0  0  0  0
   -3.7558    0.9714   -3.0537 H   0  0  0  0  0  0  0  0  0  0  0  0
  1  2  3  0
  2  3  1  0
  3  4  2  0
  4  5  1  0
  5  6  1  0
  6  7  2  0
  6  8  2  0
  6  9  1  0
  9 10  2  0
 10 11  1  0
 11 12  2  0
 12 13  1  0
 13 14  1  0
 14 15  2  0
 14 16  1  0
 16 17  2  0
 17 18  1  0
 18 19  2  0
 19 20  1  0
 20 21  2  0
  4 22  1  0
 22 23  1  0
 23 24  2  0
 24 25  1  0
 25 26  1  0
 26 27  1  0
 24  3  1  0
 27 25  1  0
 18  9  1  0
 17 12  1  0
 21 16  1  0
  5 28  1  0
 10 29  1  0
 11 30  1  0
 13 31  1  0
 19 32  1  0
 20 33  1  0
 21 34  1  0
 22 35  1  0
 25 36  1  0
 26 37  1  0
 26 38  1  0
 27 39  1  0
 27 40  1  0
M  END
$$$$
OCNT-2309101
     RDKit          3D

 41 43  0  0  0  0  0  0  0  0999 V2000
    5.0268    2.7214   -1.1692 C   0  0  0  0  0  0  0  0  0  0  0  0
    4.6853    1.5501   -0.2992 C   0  0  0  0  0  0  0  0  0  0  0  0
    5.6641    0.9470    0.4789 C   0  0  0  0  0  0  0  0  0  0  0  0
    5.3034   -0.1309    1.2762 C   0  0  0  0  0  0  0  0  0  0  0  0
    3.9813   -0.5679    1.2723 C   0  0  0  0  0  0  0  0  0  0  0  0
    3.0538    0.0897    0.4687 C   0  0  0  0  0  0  0  0  0  0  0  0
    1.7335   -0.3792    0.4999 N   0  0  0  0  0  0  0  0  0  0  0  0
    0.6708    0.1495   -0.2141 C   0  0  0  0  0  0  0  0  0  0  0  0
    0.7021    1.1011   -0.9845 O   0  0  0  0  0  0  0  0  0  0  0  0
   -0.6253   -0.6227    0.0482 C   0  0  0  0  0  0  0  0  0  0  0  0
   -0.5680   -2.0291   -0.5825 C   0  0  0  0  0  0  0  0  0  0  0  0
   -1.4267   -2.1069   -1.8403 C   0  0  0  0  0  0  0  0  0  0  0  0
   -2.8786   -1.6883   -1.5693 C   0  0  0  0  0  0  0  0  0  0  0  0
   -3.0204   -0.7082   -0.4776 N   0  0  0  0  0  0  0  0  0  0  0  0
   -4.2818    0.0408   -0.6223 C   0  0  0  0  0  0  0  0  0  0  0  0
   -4.6598    0.6944    0.6704 C   0  0  0  0  0  0  0  0  0  0  0  0
   -4.7897    0.0812    1.9076 C   0  0  0  0  0  0  0  0  0  0  0  0
   -5.2485    1.2865    3.0339 S   0  0  0  0  0  0  0  0  0  0  0  0
   -5.2657    2.4943    1.8783 N   0  0  0  0  0  0  0  0  0  0  0  0
   -4.9394    2.0579    0.6731 N   0  0  0  0  0  0  0  0  0  0  0  0
   -1.8474    0.1825   -0.4319 C   0  0  0  0  0  0  0  0  0  0  0  0
    3.3989    1.1308   -0.3062 N   0  0  0  0  0  0  0  0  0  0  0  0
    5.8318    2.4552   -1.8618 H   0  0  0  0  0  0  0  0  0  0  0  0
    5.3477    3.5665   -0.5520 H   0  0  0  0  0  0  0  0  0  0  0  0
    4.1589    3.0352   -1.7590 H   0  0  0  0  0  0  0  0  0  0  0  0
    6.6870    1.3083    0.4676 H   0  0  0  0  0  0  0  0  0  0  0  0
    6.0440   -0.6249    1.8985 H   0  0  0  0  0  0  0  0  0  0  0  0
    3.6956   -1.4072    1.8961 H   0  0  0  0  0  0  0  0  0  0  0  0
    1.5491   -1.1650    1.1044 H   0  0  0  0  0  0  0  0  0  0  0  0
   -0.7068   -0.7429    1.1383 H   0  0  0  0  0  0  0  0  0  0  0  0
    0.4567   -2.3338   -0.8224 H   0  0  0  0  0  0  0  0  0  0  0  0
   -0.9459   -2.7592    0.1446 H   0  0  0  0  0  0  0  0  0  0  0  0
   -1.4061   -3.1241   -2.2481 H   0  0  0  0  0  0  0  0  0  0  0  0
   -0.9936   -1.4504   -2.6054 H   0  0  0  0  0  0  0  0  0  0  0  0
   -3.4600   -2.5779   -1.2985 H   0  0  0  0  0  0  0  0  0  0  0  0
   -3.2973   -1.3073   -2.5098 H   0  0  0  0  0  0  0  0  0  0  0  0
   -5.0980   -0.6477   -0.8781 H   0  0  0  0  0  0  0  0  0  0  0  0
   -4.2167    0.7792   -1.4309 H   0  0  0  0  0  0  0  0  0  0  0  0
   -4.6314   -0.9525    2.1759 H   0  0  0  0  0  0  0  0  0  0  0  0
   -1.9997    1.0052    0.2781 H   0  0  0  0  0  0  0  0  0  0  0  0
   -1.6841    0.6494   -1.4123 H   0  0  0  0  0  0  0  0  0  0  0  0
  1  2  1  0
  2  3  2  0
  3  4  1  0
  4  5  2  0
  5  6  1  0
  6  7  1  0
  7  8  1  0
  8  9  2  0
  8 10  1  0
 10 11  1  0
 11 12  1  0
 12 13  1  0
 13 14  1  0
 14 15  1  0
 15 16  1  0
 16 17  2  0
 17 18  1  0
 18 19  1  0
 19 20  2  0
 14 21  1  0
  6 22  2  0
 22  2  1  0
 21 10  1  0
 20 16  1  0
  1 23  1  0
  1 24  1  0
  1 25  1  0
  3 26  1  0
  4 27  1  0
  5 28  1  0
  7 29  1  0
 10 30  1  0
 11 31  1  0
 11 32  1  0
 12 33  1  0
 12 34  1  0
 13 35  1  0
 13 36  1  0
 15 37  1  0
 15 38  1  0
 17 39  1  0
 21 40  1  0
 21 41  1  0
M  END
$$$$
OCNT-2309109
     RDKit          3D

 42 44  0  0  0  0  0  0  0  0999 V2000
   -3.0970   -0.6433    2.1700 C   0  0  0  0  0  0  0  0  0  0  0  0
   -2.5125    0.2779    1.2575 O   0  0  0  0  0  0  0  0  0  0  0  0
   -3.0587    0.3547    0.0018 C   0  0  0  0  0  0  0  0  0  0  0  0
   -4.2035   -0.3398   -0.4070 C   0  0  0  0  0  0  0  0  0  0  0  0
   -4.6850   -0.2114   -1.7122 C   0  0  0  0  0  0  0  0  0  0  0  0
   -4.0262    0.6074   -2.6225 C   0  0  0  0  0  0  0  0  0  0  0  0
   -2.8881    1.3060   -2.2260 C   0  0  0  0  0  0  0  0  0  0  0  0
   -2.3969    1.2001   -0.9107 C   0  0  0  0  0  0  0  0  0  0  0  0
   -1.1493    1.9668   -0.5102 C   0  0  2  0  0  0  0  0  0  0  0  0
   -1.2163    3.3067   -1.0229 O   0  0  0  0  0  0  0  0  0  0  0  0
    0.1661    1.3120   -1.0025 C   0  0  0  0  0  0  0  0  0  0  0  0
    0.4000   -0.0323   -0.4648 N   0  0  0  0  0  0  0  0  0  0  0  0
    1.7648   -0.4959   -0.6474 C   0  0  0  0  0  0  0  0  0  0  0  0
    1.7824   -2.0394   -0.7164 C   0  0  0  0  0  0  0  0  0  0  0  0
    3.1844   -2.4694   -0.2696 C   0  0  0  0  0  0  0  0  0  0  0  0
    3.5010   -1.3971    0.7273 C   0  0  0  0  0  0  0  0  0  0  0  0
    4.4716   -1.4219    1.7157 C   0  0  0  0  0  0  0  0  0  0  0  0
    4.6123   -0.2952    2.5224 C   0  0  0  0  0  0  0  0  0  0  0  0
    5.5445   -0.3124    3.4874 F   0  0  0  0  0  0  0  0  0  0  0  0
    3.8059    0.8357    2.3333 C   0  0  0  0  0  0  0  0  0  0  0  0
    4.0003    2.2214    3.3392 Cl  0  0  0  0  0  0  0  0  0  0  0  0
    2.8388    0.8578    1.3239 C   0  0  0  0  0  0  0  0  0  0  0  0
    2.6876   -0.2692    0.5257 C   0  0  0  0  0  0  0  0  0  0  0  0
   -4.1241   -0.3551    2.4155 H   0  0  0  0  0  0  0  0  0  0  0  0
   -3.0516   -1.6668    1.7835 H   0  0  0  0  0  0  0  0  0  0  0  0
   -2.5135   -0.6119    3.0950 H   0  0  0  0  0  0  0  0  0  0  0  0
   -4.7465   -0.9947    0.2660 H   0  0  0  0  0  0  0  0  0  0  0  0
   -5.5728   -0.7587   -2.0189 H   0  0  0  0  0  0  0  0  0  0  0  0
   -4.3940    0.6994   -3.6411 H   0  0  0  0  0  0  0  0  0  0  0  0
   -2.3744    1.9366   -2.9497 H   0  0  0  0  0  0  0  0  0  0  0  0
   -1.1007    2.0826    0.5783 H   0  0  0  0  0  0  0  0  0  0  0  0
   -2.1275    3.6104   -0.8653 H   0  0  0  0  0  0  0  0  0  0  0  0
    0.1626    1.2647   -2.0991 H   0  0  0  0  0  0  0  0  0  0  0  0
    0.9877    1.9886   -0.7382 H   0  0  0  0  0  0  0  0  0  0  0  0
    0.1214   -0.0903    0.5142 H   0  0  0  0  0  0  0  0  0  0  0  0
    2.2242   -0.0936   -1.5597 H   0  0  0  0  0  0  0  0  0  0  0  0
    1.5335   -2.4141   -1.7150 H   0  0  0  0  0  0  0  0  0  0  0  0
    1.0452   -2.4671   -0.0200 H   0  0  0  0  0  0  0  0  0  0  0  0
    3.8969   -2.4360   -1.1000 H   0  0  0  0  0  0  0  0  0  0  0  0
    3.1729   -3.4672    0.1775 H   0  0  0  0  0  0  0  0  0  0  0  0
    5.1089   -2.2853    1.8701 H   0  0  0  0  0  0  0  0  0  0  0  0
    2.2256    1.7394    1.1730 H   0  0  0  0  0  0  0  0  0  0  0  0
  1  2  1  0
  2  3  1  0
  3  4  2  0
  4  5  1  0
  5  6  2  0
  6  7  1  0
  7  8  2  0
  8  9  1  0
  9 10  1  0
  9 11  1  0
 11 12  1  0
 12 13  1  0
 13 14  1  0
 14 15  1  0
 15 16  1  0
 16 17  1  0
 17 18  2  0
 18 19  1  0
 18 20  1  0
 20 21  1  0
 20 22  2  0
 22 23  1  0
  8  3  1  0
 23 13  1  0
 23 16  2  0
  1 24  1  0
  1 25  1  0
  1 26  1  0
  4 27  1  0
  5 28  1  0
  6 29  1  0
  7 30  1  0
  9 31  1  1
 10 32  1  0
 11 33  1  0
 11 34  1  0
 12 35  1  0
 13 36  1  0
 14 37  1  0
 14 38  1  0
 15 39  1  0
 15 40  1  0
 17 41  1  0
 22 42  1  0
M  END
$$$$
OCNT-2309135
     RDKit          3D

 45 47  0  0  0  0  0  0  0  0999 V2000
    3.8469   -0.7939    2.5531 O   0  0  0  0  0  0  0  0  0  0  0  0
    3.6729   -0.4173    1.3925 C   0  0  0  0  0  0  0  0  0  0  0  0
    4.8074   -0.1245    0.5285 C   0  0  0  0  0  0  0  0  0  0  0  0
    5.9480   -0.8898    0.3699 C   0  0  0  0  0  0  0  0  0  0  0  0
    6.8928   -0.2860   -0.5092 C   0  0  0  0  0  0  0  0  0  0  0  0
    6.4614    0.9408   -0.9614 C   0  0  0  0  0  0  0  0  0  0  0  0
    4.9362    1.3636   -0.3131 S   0  0  0  0  0  0  0  0  0  0  0  0
    2.3749   -0.2948    0.8766 N   0  0  0  0  0  0  0  0  0  0  0  0
    1.2582   -0.4583    1.8022 C   0  0  0  0  0  0  0  0  0  0  0  0
   -0.0242    0.1641    1.2593 C   0  0  0  0  0  0  0  0  0  0  0  0
   -0.4416   -0.4282   -0.1010 C   0  0  0  0  0  0  0  0  0  0  0  0
   -1.5595   -1.4836    0.0027 C   0  0  0  0  0  0  0  0  0  0  0  0
   -2.9082   -1.0506    0.6104 C   0  0  0  0  0  0  0  0  0  0  0  0
   -3.7117   -0.0171   -0.0415 N   0  0  0  0  0  0  0  0  0  0  0  0
   -3.8021   -0.1315   -1.5038 C   0  0  0  0  0  0  0  0  0  0  0  0
   -4.7739    0.9118   -2.0797 C   0  0  0  0  0  0  0  0  0  0  0  0
   -4.3882    2.2421   -1.7060 O   0  0  0  0  0  0  0  0  0  0  0  0
   -4.3676    2.3615   -0.2764 C   0  0  0  0  0  0  0  0  0  0  0  0
   -3.3840    1.3599    0.3531 C   0  0  0  0  0  0  0  0  0  0  0  0
    0.7662   -1.0370   -0.8453 C   0  0  0  0  0  0  0  0  0  0  0  0
    2.0578   -0.2787   -0.5531 C   0  0  0  0  0  0  0  0  0  0  0  0
    6.0893   -1.8440    0.8648 H   0  0  0  0  0  0  0  0  0  0  0  0
    7.8459   -0.7222   -0.7824 H   0  0  0  0  0  0  0  0  0  0  0  0
    6.9772    1.6207   -1.6259 H   0  0  0  0  0  0  0  0  0  0  0  0
    1.5146    0.0021    2.7633 H   0  0  0  0  0  0  0  0  0  0  0  0
    1.1232   -1.5323    1.9787 H   0  0  0  0  0  0  0  0  0  0  0  0
   -0.8177    0.0780    2.0062 H   0  0  0  0  0  0  0  0  0  0  0  0
    0.1484    1.2406    1.1245 H   0  0  0  0  0  0  0  0  0  0  0  0
   -0.8066    0.3963   -0.7227 H   0  0  0  0  0  0  0  0  0  0  0  0
   -1.7429   -1.9050   -0.9944 H   0  0  0  0  0  0  0  0  0  0  0  0
   -1.1884   -2.3224    0.6078 H   0  0  0  0  0  0  0  0  0  0  0  0
   -2.7813   -0.8061    1.6716 H   0  0  0  0  0  0  0  0  0  0  0  0
   -3.5345   -1.9536    0.6247 H   0  0  0  0  0  0  0  0  0  0  0  0
   -4.1520   -1.1311   -1.7849 H   0  0  0  0  0  0  0  0  0  0  0  0
   -2.8181    0.0273   -1.9601 H   0  0  0  0  0  0  0  0  0  0  0  0
   -5.8017    0.7257   -1.7453 H   0  0  0  0  0  0  0  0  0  0  0  0
   -4.7663    0.8606   -3.1731 H   0  0  0  0  0  0  0  0  0  0  0  0
   -4.0598    3.3840   -0.0349 H   0  0  0  0  0  0  0  0  0  0  0  0
   -5.3832    2.2195    0.1128 H   0  0  0  0  0  0  0  0  0  0  0  0
   -3.4309    1.4642    1.4430 H   0  0  0  0  0  0  0  0  0  0  0  0
   -2.3735    1.6271    0.0327 H   0  0  0  0  0  0  0  0  0  0  0  0
    0.5693   -1.0354   -1.9241 H   0  0  0  0  0  0  0  0  0  0  0  0
    0.9011   -2.0868   -0.5527 H   0  0  0  0  0  0  0  0  0  0  0  0
    1.9530    0.7687   -0.8575 H   0  0  0  0  0  0  0  0  0  0  0  0
    2.8733   -0.7281   -1.1277 H   0  0  0  0  0  0  0  0  0  0  0  0
  1  2  2  0
  2  3  1  0
  3  4  2  0
  4  5  1  0
  5  6  2  0
  6  7  1  0
  2  8  1  0
  8  9  1  0
  9 10  1  0
 10 11  1  0
 11 12  1  0
 12 13  1  0
 13 14  1  0
 14 15  1  0
 15 16  1  0
 16 17  1  0
 17 18  1  0
 18 19  1  0
 11 20  1  0
 20 21  1  0
  7  3  1  0
 21  8  1  0
 19 14  1  0
  4 22  1  0
  5 23  1  0
  6 24  1  0
  9 25  1  0
  9 26  1  0
 10 27  1  0
 10 28  1  0
 11 29  1  0
 12 30  1  0
 12 31  1  0
 13 32  1  0
 13 33  1  0
 15 34  1  0
 15 35  1  0
 16 36  1  0
 16 37  1  0
 18 38  1  0
 18 39  1  0
 19 40  1  0
 19 41  1  0
 20 42  1  0
 20 43  1  0
 21 44  1  0
 21 45  1  0
M  END
$$$$
OCNT-2309139
     RDKit          3D

 42 45  0  0  0  0  0  0  0  0999 V2000
   -3.3143    2.0112    2.0104 C   0  0  0  0  0  0  0  0  0  0  0  0
   -3.3638    0.9368    0.9833 C   0  0  0  0  0  0  0  0  0  0  0  0
   -2.5991    0.6965   -0.1574 C   0  0  0  0  0  0  0  0  0  0  0  0
   -1.4481    1.4587   -0.6422 C   0  0  0  0  0  0  0  0  0  0  0  0
   -1.1789    1.5701   -1.8343 O   0  0  0  0  0  0  0  0  0  0  0  0
   -0.6547    1.9958    0.3483 N   0  0  0  0  0  0  0  0  0  0  0  0
    0.5974    2.6404    0.0384 C   0  0  0  0  0  0  0  0  0  0  0  0
    1.7431    1.6738    0.1117 C   0  0  0  0  0  0  0  0  0  0  0  0
    2.4796    1.4928    1.2840 C   0  0  0  0  0  0  0  0  0  0  0  0
    3.5275    0.5711    1.3150 C   0  0  0  0  0  0  0  0  0  0  0  0
    3.8109   -0.1569    0.1627 C   0  0  0  0  0  0  0  0  0  0  0  0
    4.8707   -1.1045    0.1499 N   0  0  0  0  0  0  0  0  0  0  0  0
    5.7382   -1.4522    1.1631 C   0  0  0  0  0  0  0  0  0  0  0  0
    6.5697   -2.4112    0.6320 C   0  0  0  0  0  0  0  0  0  0  0  0
    6.2487   -2.6689   -0.6702 N   0  0  0  0  0  0  0  0  0  0  0  0
    5.2314   -1.8765   -0.9327 C   0  0  0  0  0  0  0  0  0  0  0  0
    3.1028   -0.0035   -0.9850 N   0  0  0  0  0  0  0  0  0  0  0  0
    2.0902    0.8943   -0.9847 C   0  0  0  0  0  0  0  0  0  0  0  0
   -3.1789   -0.4451   -0.8108 C   0  0  0  0  0  0  0  0  0  0  0  0
   -2.8817   -1.1556   -1.9940 C   0  0  0  0  0  0  0  0  0  0  0  0
   -3.6553   -2.2663   -2.3493 C   0  0  0  0  0  0  0  0  0  0  0  0
   -4.7144   -2.6778   -1.5452 C   0  0  0  0  0  0  0  0  0  0  0  0
   -5.0308   -1.9938   -0.3682 C   0  0  0  0  0  0  0  0  0  0  0  0
   -4.2453   -0.8849   -0.0297 C   0  0  0  0  0  0  0  0  0  0  0  0
   -4.3311   -0.0384    1.0470 N   0  0  0  0  0  0  0  0  0  0  0  0
   -2.5755    1.7687    2.7804 H   0  0  0  0  0  0  0  0  0  0  0  0
   -3.0483    2.9721    1.5589 H   0  0  0  0  0  0  0  0  0  0  0  0
   -4.2853    2.1375    2.5010 H   0  0  0  0  0  0  0  0  0  0  0  0
   -0.7972    1.6533    1.2868 H   0  0  0  0  0  0  0  0  0  0  0  0
    0.5550    3.1107   -0.9507 H   0  0  0  0  0  0  0  0  0  0  0  0
    0.7361    3.4453    0.7690 H   0  0  0  0  0  0  0  0  0  0  0  0
    2.2467    2.0669    2.1777 H   0  0  0  0  0  0  0  0  0  0  0  0
    4.0872    0.4504    2.2347 H   0  0  0  0  0  0  0  0  0  0  0  0
    5.7081   -1.0145    2.1482 H   0  0  0  0  0  0  0  0  0  0  0  0
    7.3841   -2.9291    1.1226 H   0  0  0  0  0  0  0  0  0  0  0  0
    4.7121   -1.8121   -1.8807 H   0  0  0  0  0  0  0  0  0  0  0  0
    1.5446    0.9679   -1.9241 H   0  0  0  0  0  0  0  0  0  0  0  0
   -2.0584   -0.8412   -2.6307 H   0  0  0  0  0  0  0  0  0  0  0  0
   -3.4242   -2.8090   -3.2626 H   0  0  0  0  0  0  0  0  0  0  0  0
   -5.3051   -3.5428   -1.8377 H   0  0  0  0  0  0  0  0  0  0  0  0
   -5.8585   -2.3163    0.2548 H   0  0  0  0  0  0  0  0  0  0  0  0
   -5.0352   -0.1137    1.7681 H   0  0  0  0  0  0  0  0  0  0  0  0
  1  2  1  0
  2  3  2  0
  3  4  1  0
  4  5  2  0
  4  6  1  0
  6  7  1  0
  7  8  1  0
  8  9  2  0
  9 10  1  0
 10 11  2  0
 11 12  1  0
 12 13  1  0
 13 14  2  0
 14 15  1  0
 15 16  2  0
 11 17  1  0
 17 18  2  0
  3 19  1  0
 19 20  2  0
 20 21  1  0
 21 22  2  0
 22 23  1  0
 23 24  2  0
 24 25  1  0
 25  2  1  0
 18  8  1  0
 24 19  1  0
 16 12  1  0
  1 26  1  0
  1 27  1  0
  1 28  1  0
  6 29  1  0
  7 30  1  0
  7 31  1  0
  9 32  1  0
 10 33  1  0
 13 34  1  0
 14 35  1  0
 16 36  1  0
 18 37  1  0
 20 38  1  0
 21 39  1  0
 22 40  1  0
 23 41  1  0
 25 42  1  0
M  END
$$$$
OCNT-2309149
     RDKit          3D

 36 38  0  0  0  0  0  0  0  0999 V2000
   -6.9428   -1.5969   -0.7529 F   0  0  0  0  0  0  0  0  0  0  0  0
   -5.6938   -1.2474   -0.4208 C   0  0  0  0  0  0  0  0  0  0  0  0
   -5.0456   -1.9182    0.6079 C   0  0  0  0  0  0  0  0  0  0  0  0
   -3.7429   -1.5516    0.9517 C   0  0  0  0  0  0  0  0  0  0  0  0
   -3.0858   -0.5164    0.2724 C   0  0  0  0  0  0  0  0  0  0  0  0
   -1.8194   -0.2849    0.7295 O   0  0  0  0  0  0  0  0  0  0  0  0
   -1.0328    0.7767    0.1691 C   0  0  0  0  0  0  0  0  0  0  0  0
   -0.0305    1.2065    1.2521 C   0  0  0  0  0  0  0  0  0  0  0  0
    1.2903    0.4535    1.1319 C   0  0  0  0  0  0  0  0  0  0  0  0
    1.8861    0.7036   -0.1739 N   0  0  0  0  0  0  0  0  0  0  0  0
    3.1973    0.4648   -0.3967 C   0  0  0  0  0  0  0  0  0  0  0  0
    3.9012    0.5545   -1.5074 N   0  0  0  0  0  0  0  0  0  0  0  0
    5.1978    0.2026   -1.1972 N   0  0  0  0  0  0  0  0  0  0  0  0
    5.2001   -0.0783    0.0900 C   0  0  0  0  0  0  0  0  0  0  0  0
    6.3155   -0.5099    0.9584 C   0  0  0  0  0  0  0  0  0  0  0  0
    6.5224    0.3610    1.9862 F   0  0  0  0  0  0  0  0  0  0  0  0
    6.0678   -1.7196    1.5356 F   0  0  0  0  0  0  0  0  0  0  0  0
    3.9647    0.0651    0.6648 O   0  0  0  0  0  0  0  0  0  0  0  0
    1.0132    0.9601   -1.3131 C   0  0  0  0  0  0  0  0  0  0  0  0
   -0.3324    0.2788   -1.1022 C   0  0  0  0  0  0  0  0  0  0  0  0
   -3.7641    0.1388   -0.7605 C   0  0  0  0  0  0  0  0  0  0  0  0
   -3.1978    1.1313   -1.4603 F   0  0  0  0  0  0  0  0  0  0  0  0
   -5.0642   -0.2214   -1.1094 C   0  0  0  0  0  0  0  0  0  0  0  0
   -5.5539   -2.7198    1.1347 H   0  0  0  0  0  0  0  0  0  0  0  0
   -3.2331   -2.0765    1.7570 H   0  0  0  0  0  0  0  0  0  0  0  0
   -1.6553    1.6565   -0.0266 H   0  0  0  0  0  0  0  0  0  0  0  0
   -0.4513    1.0563    2.2533 H   0  0  0  0  0  0  0  0  0  0  0  0
    0.1714    2.2804    1.1427 H   0  0  0  0  0  0  0  0  0  0  0  0
    1.9522    0.7999    1.9351 H   0  0  0  0  0  0  0  0  0  0  0  0
    1.1318   -0.6227    1.2730 H   0  0  0  0  0  0  0  0  0  0  0  0
    7.2479   -0.5911    0.3933 H   0  0  0  0  0  0  0  0  0  0  0  0
    0.8773    2.0420   -1.4307 H   0  0  0  0  0  0  0  0  0  0  0  0
    1.4452    0.5851   -2.2491 H   0  0  0  0  0  0  0  0  0  0  0  0
   -0.1886   -0.8090   -1.0501 H   0  0  0  0  0  0  0  0  0  0  0  0
   -0.9701    0.4519   -1.9756 H   0  0  0  0  0  0  0  0  0  0  0  0
   -5.5778    0.2945   -1.9125 H   0  0  0  0  0  0  0  0  0  0  0  0
  1  2  1  0
  2  3  1  0
  3  4  2  0
  4  5  1  0
  5  6  1  0
  6  7  1  0
  7  8  1  0
  8  9  1  0
  9 10  1  0
 10 11  1  0
 11 12  2  0
 12 13  1  0
 13 14  2  0
 14 15  1  0
 15 16  1  0
 15 17  1  0
 14 18  1  0
 10 19  1  0
 19 20  1  0
  5 21  2  0
 21 22  1  0
 21 23  1  0
 23  2  2  0
 20  7  1  0
 18 11  1  0
  3 24  1  0
  4 25  1  0
  7 26  1  0
  8 27  1  0
  8 28  1  0
  9 29  1  0
  9 30  1  0
 15 31  1  0
 19 32  1  0
 19 33  1  0
 20 34  1  0
 20 35  1  0
 23 36  1  0
M  END
$$$$
OCNT-2309157
     RDKit          3D

 48 51  0  0  0  0  0  0  0  0999 V2000
    3.5359    0.0144   -3.3056 C   0  0  0  0  0  0  0  0  0  0  0  0
    2.6682    0.0731   -2.1056 C   0  0  0  0  0  0  0  0  0  0  0  0
    1.3138   -0.1959   -2.0454 C   0  0  0  0  0  0  0  0  0  0  0  0
    0.9175    0.0879   -0.7283 C   0  0  0  0  0  0  0  0  0  0  0  0
   -0.3762   -0.0560   -0.2742 N   0  0  0  0  0  0  0  0  0  0  0  0
   -0.8588    0.4227    0.9221 C   0  0  0  0  0  0  0  0  0  0  0  0
   -0.2627    1.1889    1.6752 O   0  0  0  0  0  0  0  0  0  0  0  0
   -2.1560   -0.0215    1.2322 N   0  0  0  0  0  0  0  0  0  0  0  0
   -2.7533    0.5081    2.4575 C   0  0  0  0  0  0  0  0  0  0  0  0
   -4.2734    0.4083    2.4502 C   0  0  0  0  0  0  0  0  0  0  0  0
   -4.7722   -1.0152    2.2101 C   0  0  0  0  0  0  0  0  0  0  0  0
   -3.6867   -1.9467    1.6740 C   0  0  0  0  0  0  0  0  0  0  0  0
   -2.7343   -1.2598    0.6832 C   0  0  0  0  0  0  0  0  0  0  0  0
   -3.3899   -0.9844   -0.6420 C   0  0  0  0  0  0  0  0  0  0  0  0
   -3.8870    0.1958   -1.1614 C   0  0  0  0  0  0  0  0  0  0  0  0
   -4.3625   -0.0924   -2.4060 N   0  0  0  0  0  0  0  0  0  0  0  0
   -4.1878   -1.3766   -2.7537 N   0  0  0  0  0  0  0  0  0  0  0  0
   -3.6159   -1.9219   -1.6795 C   0  0  0  0  0  0  0  0  0  0  0  0
    1.9544    0.4716    0.0011 N   0  0  0  0  0  0  0  0  0  0  0  0
    3.0398    0.4521   -0.8160 N   0  0  0  0  0  0  0  0  0  0  0  0
    4.3137    0.7980   -0.2569 C   0  0  0  0  0  0  0  0  0  0  0  0
    5.5244    0.6206   -0.9353 C   0  0  0  0  0  0  0  0  0  0  0  0
    6.7368    0.9803   -0.3322 C   0  0  0  0  0  0  0  0  0  0  0  0
    6.7560    1.5144    0.9535 C   0  0  0  0  0  0  0  0  0  0  0  0
    5.5626    1.6854    1.6459 C   0  0  0  0  0  0  0  0  0  0  0  0
    4.3514    1.3271    1.0482 C   0  0  0  0  0  0  0  0  0  0  0  0
    2.9294   -0.1055   -4.2108 H   0  0  0  0  0  0  0  0  0  0  0  0
    4.1081    0.9380   -3.4325 H   0  0  0  0  0  0  0  0  0  0  0  0
    4.2109   -0.8452   -3.2600 H   0  0  0  0  0  0  0  0  0  0  0  0
    0.6921   -0.5239   -2.8667 H   0  0  0  0  0  0  0  0  0  0  0  0
   -1.0523   -0.3161   -0.9713 H   0  0  0  0  0  0  0  0  0  0  0  0
   -2.4629    1.5573    2.5848 H   0  0  0  0  0  0  0  0  0  0  0  0
   -2.3314   -0.0496    3.3026 H   0  0  0  0  0  0  0  0  0  0  0  0
   -4.6715    1.0609    1.6637 H   0  0  0  0  0  0  0  0  0  0  0  0
   -4.6788    0.7884    3.3949 H   0  0  0  0  0  0  0  0  0  0  0  0
   -5.1664   -1.4326    3.1445 H   0  0  0  0  0  0  0  0  0  0  0  0
   -5.6185   -0.9849    1.5129 H   0  0  0  0  0  0  0  0  0  0  0  0
   -4.1516   -2.8337    1.2268 H   0  0  0  0  0  0  0  0  0  0  0  0
   -3.0960   -2.3085    2.5267 H   0  0  0  0  0  0  0  0  0  0  0  0
   -1.9038   -1.9559    0.5021 H   0  0  0  0  0  0  0  0  0  0  0  0
   -3.9408    1.1979   -0.7585 H   0  0  0  0  0  0  0  0  0  0  0  0
   -4.8049    0.5334   -3.0720 H   0  0  0  0  0  0  0  0  0  0  0  0
   -3.3772   -2.9786   -1.6959 H   0  0  0  0  0  0  0  0  0  0  0  0
    5.5880    0.1814   -1.9201 H   0  0  0  0  0  0  0  0  0  0  0  0
    7.6715    0.8344   -0.8685 H   0  0  0  0  0  0  0  0  0  0  0  0
    7.6991    1.7907    1.4172 H   0  0  0  0  0  0  0  0  0  0  0  0
    5.5660    2.0969    2.6519 H   0  0  0  0  0  0  0  0  0  0  0  0
    3.4333    1.4770    1.6173 H   0  0  0  0  0  0  0  0  0  0  0  0
  1  2  1  0
  2  3  2  0
  3  4  1  0
  4  5  1  0
  5  6  1  0
  6  7  2  0
  6  8  1  0
  8  9  1  0
  9 10  1  0
 10 11  1  0
 11 12  1  0
 12 13  1  0
 13 14  1  0
 14 15  2  0
 15 16  1  0
 16 17  1  0
 17 18  2  0
  4 19  2  0
 19 20  1  0
 20 21  1  0
 21 22  2  0
 22 23  1  0
 23 24  2  0
 24 25  1  0
 25 26  2  0
 20  2  1  0
 26 21  1  0
 13  8  1  0
 18 14  1  0
  1 27  1  0
  1 28  1  0
  1 29  1  0
  3 30  1  0
  5 31  1  0
  9 32  1  0
  9 33  1  0
 10 34  1  0
 10 35  1  0
 11 36  1  0
 11 37  1  0
 12 38  1  0
 12 39  1  0
 13 40  1  0
 15 41  1  0
 16 42  1  0
 18 43  1  0
 22 44  1  0
 23 45  1  0
 24 46  1  0
 25 47  1  0
 26 48  1  0
M  END
$$$$
OCNT-2309162
     RDKit          3D

 43 44  0  0  0  0  0  0  0  0999 V2000
   -1.4058    2.0048   -2.6455 C   0  0  0  0  0  0  0  0  0  0  0  0
   -2.0153    0.8387   -1.8610 C   0  0  0  0  0  0  0  0  0  0  0  0
   -3.2793    1.3032   -1.0995 C   0  0  0  0  0  0  0  0  0  0  0  0
   -3.8083    2.4002   -1.2472 O   0  0  0  0  0  0  0  0  0  0  0  0
   -3.8049    0.3283   -0.2647 N   0  0  0  0  0  0  0  0  0  0  0  0
   -4.8431    0.6841    0.7001 C   0  0  0  0  0  0  0  0  0  0  0  0
   -4.3273    1.3408    1.9850 C   0  0  0  0  0  0  0  0  0  0  0  0
   -3.5761    0.4644    2.7001 F   0  0  0  0  0  0  0  0  0  0  0  0
   -3.5621    2.4271    1.7453 F   0  0  0  0  0  0  0  0  0  0  0  0
   -5.3589    1.7294    2.7725 F   0  0  0  0  0  0  0  0  0  0  0  0
   -1.1167    0.1216   -0.9252 N   0  0  0  0  0  0  0  0  0  0  0  0
   -0.5076    0.9415    0.1325 C   0  0  0  0  0  0  0  0  0  0  0  0
    0.9113    0.4054    0.3109 C   0  0  0  0  0  0  0  0  0  0  0  0
    0.9015   -0.9296   -0.4296 C   0  0  0  0  0  0  0  0  0  0  0  0
    2.2744   -1.4005   -0.9145 C   0  0  0  0  0  0  0  0  0  0  0  0
    3.2430   -1.6768    0.2121 C   0  0  0  0  0  0  0  0  0  0  0  0
    4.3244   -0.8151    0.4464 C   0  0  0  0  0  0  0  0  0  0  0  0
    5.2181   -1.0699    1.4872 C   0  0  0  0  0  0  0  0  0  0  0  0
    5.0414   -2.1858    2.3063 C   0  0  0  0  0  0  0  0  0  0  0  0
    3.9663   -3.0460    2.0839 C   0  0  0  0  0  0  0  0  0  0  0  0
    3.0721   -2.7950    1.0428 C   0  0  0  0  0  0  0  0  0  0  0  0
   -0.0465   -0.6296   -1.5861 C   0  0  0  0  0  0  0  0  0  0  0  0
   -2.1209    2.3468   -3.4063 H   0  0  0  0  0  0  0  0  0  0  0  0
   -1.1796    2.8734   -2.0143 H   0  0  0  0  0  0  0  0  0  0  0  0
   -0.4934    1.7113   -3.1748 H   0  0  0  0  0  0  0  0  0  0  0  0
   -2.3828    0.1034   -2.5939 H   0  0  0  0  0  0  0  0  0  0  0  0
   -3.1336   -0.3937   -0.0150 H   0  0  0  0  0  0  0  0  0  0  0  0
   -5.3780   -0.2396    0.9409 H   0  0  0  0  0  0  0  0  0  0  0  0
   -5.5559    1.3622    0.2139 H   0  0  0  0  0  0  0  0  0  0  0  0
   -1.0779    0.8029    1.0561 H   0  0  0  0  0  0  0  0  0  0  0  0
   -0.4796    2.0143   -0.0720 H   0  0  0  0  0  0  0  0  0  0  0  0
    1.6251    1.0975   -0.1552 H   0  0  0  0  0  0  0  0  0  0  0  0
    1.1803    0.2964    1.3644 H   0  0  0  0  0  0  0  0  0  0  0  0
    0.4471   -1.6955    0.2171 H   0  0  0  0  0  0  0  0  0  0  0  0
    2.7062   -0.6628   -1.6044 H   0  0  0  0  0  0  0  0  0  0  0  0
    2.1582   -2.3216   -1.5033 H   0  0  0  0  0  0  0  0  0  0  0  0
    4.4812    0.0594   -0.1815 H   0  0  0  0  0  0  0  0  0  0  0  0
    6.0575   -0.3992    1.6592 H   0  0  0  0  0  0  0  0  0  0  0  0
    5.7386   -2.3849    3.1165 H   0  0  0  0  0  0  0  0  0  0  0  0
    3.8244   -3.9157    2.7211 H   0  0  0  0  0  0  0  0  0  0  0  0
    2.2419   -3.4778    0.8832 H   0  0  0  0  0  0  0  0  0  0  0  0
   -0.4267   -1.5487   -2.0470 H   0  0  0  0  0  0  0  0  0  0  0  0
    0.4674   -0.0419   -2.3566 H   0  0  0  0  0  0  0  0  0  0  0  0
  1  2  1  0
  2  3  1  0
  3  4  2  0
  3  5  1  0
  5  6  1  0
  6  7  1  0
  7  8  1  0
  7  9  1  0
  7 10  1  0
  2 11  1  0
 11 12  1  0
 12 13  1  0
 13 14  1  0
 14 15  1  0
 15 16  1  0
 16 17  2  0
 17 18  1  0
 18 19  2  0
 19 20  1  0
 20 21  2  0
 14 22  1  0
 22 11  1  0
 21 16  1  0
  1 23  1  0
  1 24  1  0
  1 25  1  0
  2 26  1  0
  5 27  1  0
  6 28  1  0
  6 29  1  0
 12 30  1  0
 12 31  1  0
 13 32  1  0
 13 33  1  0
 14 34  1  0
 15 35  1  0
 15 36  1  0
 17 37  1  0
 18 38  1  0
 19 39  1  0
 20 40  1  0
 21 41  1  0
 22 42  1  0
 22 43  1  0
M  END
$$$$
OCNT-2309174
     RDKit          3D

 50 52  0  0  0  0  0  0  0  0999 V2000
   -3.1502    2.1347    0.7391 C   0  0  0  0  0  0  0  0  0  0  0  0
   -2.5233    1.3044   -0.4164 C   0  0  0  0  0  0  0  0  0  0  0  0
   -1.0671    1.8065   -0.5183 C   0  0  0  0  0  0  0  0  0  0  0  0
   -3.2864    1.6836   -1.7018 C   0  0  0  0  0  0  0  0  0  0  0  0
   -2.6430   -0.2245   -0.1925 C   0  0  0  0  0  0  0  0  0  0  0  0
   -3.6228   -0.7225    0.6997 C   0  0  0  0  0  0  0  0  0  0  0  0
   -3.8250   -2.0925    0.9121 C   0  0  0  0  0  0  0  0  0  0  0  0
   -3.0681   -3.0260    0.2227 C   0  0  0  0  0  0  0  0  0  0  0  0
   -2.1040   -2.5842   -0.6734 C   0  0  0  0  0  0  0  0  0  0  0  0
   -1.8755   -1.2060   -0.8679 C   0  0  0  0  0  0  0  0  0  0  0  0
   -0.8295   -0.9074   -1.8731 C   0  0  0  0  0  0  0  0  0  0  0  0
   -1.1887   -0.5865   -3.0016 O   0  0  0  0  0  0  0  0  0  0  0  0
    0.5078   -1.0452   -1.4910 N   0  0  0  0  0  0  0  0  0  0  0  0
    1.5512   -0.8178   -2.4849 C   0  0  0  0  0  0  0  0  0  0  0  0
    2.5822    0.1759   -1.9574 C   0  0  0  0  0  0  0  0  0  0  0  0
    3.1231   -0.1858   -0.5547 C   0  0  0  0  0  0  0  0  0  0  0  0
    2.9730    1.0269    0.3856 C   0  0  0  0  0  0  0  0  0  0  0  0
    3.5621    0.8423    1.6936 N   0  0  0  0  0  0  0  0  0  0  0  0
    2.9306    0.8017    2.9003 C   0  0  0  0  0  0  0  0  0  0  0  0
    3.9557    0.6183    3.7964 C   0  0  0  0  0  0  0  0  0  0  0  0
    5.1436    0.5585    3.1249 N   0  0  0  0  0  0  0  0  0  0  0  0
    4.8909    0.7047    1.8308 N   0  0  0  0  0  0  0  0  0  0  0  0
    2.4600   -1.4612   -0.0029 C   0  0  0  0  0  0  0  0  0  0  0  0
    0.9405   -1.4458   -0.1521 C   0  0  0  0  0  0  0  0  0  0  0  0
   -2.7198    1.8569    1.7085 H   0  0  0  0  0  0  0  0  0  0  0  0
   -4.2376    2.0123    0.7947 H   0  0  0  0  0  0  0  0  0  0  0  0
   -2.9767    3.2089    0.5985 H   0  0  0  0  0  0  0  0  0  0  0  0
   -1.0200    2.9019   -0.4873 H   0  0  0  0  0  0  0  0  0  0  0  0
   -0.4638    1.4316    0.3139 H   0  0  0  0  0  0  0  0  0  0  0  0
   -0.5846    1.5284   -1.4567 H   0  0  0  0  0  0  0  0  0  0  0  0
   -2.8699    1.2011   -2.5896 H   0  0  0  0  0  0  0  0  0  0  0  0
   -4.3411    1.3908   -1.6382 H   0  0  0  0  0  0  0  0  0  0  0  0
   -3.2528    2.7656   -1.8759 H   0  0  0  0  0  0  0  0  0  0  0  0
   -4.2797   -0.0545    1.2504 H   0  0  0  0  0  0  0  0  0  0  0  0
   -4.5944   -2.4231    1.6063 H   0  0  0  0  0  0  0  0  0  0  0  0
   -3.2377   -4.0893    0.3687 H   0  0  0  0  0  0  0  0  0  0  0  0
   -1.5268   -3.3148   -1.2374 H   0  0  0  0  0  0  0  0  0  0  0  0
    2.0167   -1.7850   -2.7081 H   0  0  0  0  0  0  0  0  0  0  0  0
    1.1309   -0.4432   -3.4237 H   0  0  0  0  0  0  0  0  0  0  0  0
    2.1255    1.1741   -1.9430 H   0  0  0  0  0  0  0  0  0  0  0  0
    3.4178    0.2365   -2.6651 H   0  0  0  0  0  0  0  0  0  0  0  0
    4.1964   -0.3994   -0.6546 H   0  0  0  0  0  0  0  0  0  0  0  0
    3.4617    1.9082   -0.0482 H   0  0  0  0  0  0  0  0  0  0  0  0
    1.9177    1.2804    0.5318 H   0  0  0  0  0  0  0  0  0  0  0  0
    1.8625    0.9023    3.0154 H   0  0  0  0  0  0  0  0  0  0  0  0
    3.9084    0.5287    4.8720 H   0  0  0  0  0  0  0  0  0  0  0  0
    2.8573   -2.3216   -0.5585 H   0  0  0  0  0  0  0  0  0  0  0  0
    2.7299   -1.6387    1.0435 H   0  0  0  0  0  0  0  0  0  0  0  0
    0.4906   -0.7619    0.5746 H   0  0  0  0  0  0  0  0  0  0  0  0
    0.5526   -2.4482    0.0547 H   0  0  0  0  0  0  0  0  0  0  0  0
  1  2  1  0
  2  3  1  0
  2  4  1  0
  2  5  1  0
  5  6  2  0
  6  7  1  0
  7  8  2  0
  8  9  1  0
  9 10  2  0
 10 11  1  0
 11 12  2  0
 11 13  1  0
 13 14  1  0
 14 15  1  0
 15 16  1  0
 16 17  1  0
 17 18  1  0
 18 19  1  0
 19 20  2  0
 20 21  1  0
 21 22  2  0
 16 23  1  0
 23 24  1  0
 10  5  1  0
 24 13  1  0
 22 18  1  0
  1 25  1  0
  1 26  1  0
  1 27  1  0
  3 28  1  0
  3 29  1  0
  3 30  1  0
  4 31  1  0
  4 32  1  0
  4 33  1  0
  6 34  1  0
  7 35  1  0
  8 36  1  0
  9 37  1  0
 14 38  1  0
 14 39  1  0
 15 40  1  0
 15 41  1  0
 16 42  1  0
 17 43  1  0
 17 44  1  0
 19 45  1  0
 20 46  1  0
 23 47  1  0
 23 48  1  0
 24 49  1  0
 24 50  1  0
M  END
$$$$
OCNT-2309179
     RDKit          3D

 43 45  0  0  0  0  0  0  0  0999 V2000
    7.7335    0.0794   -0.6234 C   0  0  0  0  0  0  0  0  0  0  0  0
    6.3159    0.1831   -0.3201 N   0  0  0  0  0  0  0  0  0  0  0  0
    5.9039    1.3934    0.3808 C   0  0  0  0  0  0  0  0  0  0  0  0
    5.5406   -0.9705   -0.4277 C   0  0  0  0  0  0  0  0  0  0  0  0
    6.0052   -2.0814   -0.6735 O   0  0  0  0  0  0  0  0  0  0  0  0
    4.0801   -0.8752   -0.2648 C   0  0  0  0  0  0  0  0  0  0  0  0
    3.4070   -1.7418    0.5874 C   0  0  0  0  0  0  0  0  0  0  0  0
    2.0200   -1.6396    0.6921 C   0  0  0  0  0  0  0  0  0  0  0  0
    1.3346   -0.6940   -0.0731 C   0  0  0  0  0  0  0  0  0  0  0  0
   -0.0560   -0.5987    0.0897 N   0  0  0  0  0  0  0  0  0  0  0  0
   -0.6973    0.3593   -0.8002 C   0  0  0  0  0  0  0  0  0  0  0  0
   -2.1878    0.3345   -0.5452 C   0  0  0  0  0  0  0  0  0  0  0  0
   -3.0736   -0.2055   -1.4831 C   0  0  0  0  0  0  0  0  0  0  0  0
   -4.4527   -0.2327   -1.2335 C   0  0  0  0  0  0  0  0  0  0  0  0
   -4.9770    0.2782   -0.0334 C   0  0  0  0  0  0  0  0  0  0  0  0
   -6.3825    0.2456    0.2084 N   0  0  0  0  0  0  0  0  0  0  0  0
   -7.0734    0.7015    1.3116 C   0  0  0  0  0  0  0  0  0  0  0  0
   -8.4034    0.4489    1.0743 C   0  0  0  0  0  0  0  0  0  0  0  0
   -8.5718   -0.1496   -0.1374 N   0  0  0  0  0  0  0  0  0  0  0  0
   -7.3581   -0.2593   -0.6313 C   0  0  0  0  0  0  0  0  0  0  0  0
   -4.0815    0.8108    0.9017 C   0  0  0  0  0  0  0  0  0  0  0  0
   -4.4871    1.3140    2.0747 F   0  0  0  0  0  0  0  0  0  0  0  0
   -2.7083    0.8382    0.6521 C   0  0  0  0  0  0  0  0  0  0  0  0
    1.9838    0.1417   -0.9116 N   0  0  0  0  0  0  0  0  0  0  0  0
    3.3322    0.0236   -1.0061 C   0  0  0  0  0  0  0  0  0  0  0  0
    8.2819   -0.0811    0.3095 H   0  0  0  0  0  0  0  0  0  0  0  0
    7.9363   -0.7526   -1.3036 H   0  0  0  0  0  0  0  0  0  0  0  0
    8.0688    1.0083   -1.0940 H   0  0  0  0  0  0  0  0  0  0  0  0
    4.8834    1.3371    0.7615 H   0  0  0  0  0  0  0  0  0  0  0  0
    5.9939    2.2403   -0.3051 H   0  0  0  0  0  0  0  0  0  0  0  0
    6.5709    1.5472    1.2351 H   0  0  0  0  0  0  0  0  0  0  0  0
    3.9515   -2.4841    1.1645 H   0  0  0  0  0  0  0  0  0  0  0  0
    1.4802   -2.2911    1.3721 H   0  0  0  0  0  0  0  0  0  0  0  0
   -0.4683   -1.5229    0.0027 H   0  0  0  0  0  0  0  0  0  0  0  0
   -0.3322    1.3787   -0.6195 H   0  0  0  0  0  0  0  0  0  0  0  0
   -0.5005    0.1119   -1.8514 H   0  0  0  0  0  0  0  0  0  0  0  0
   -2.6983   -0.6112   -2.4217 H   0  0  0  0  0  0  0  0  0  0  0  0
   -5.0808   -0.6631   -2.0078 H   0  0  0  0  0  0  0  0  0  0  0  0
   -6.6001    1.1612    2.1644 H   0  0  0  0  0  0  0  0  0  0  0  0
   -9.2447    0.6703    1.7185 H   0  0  0  0  0  0  0  0  0  0  0  0
   -7.1452   -0.6990   -1.5945 H   0  0  0  0  0  0  0  0  0  0  0  0
   -2.0441    1.2513    1.4082 H   0  0  0  0  0  0  0  0  0  0  0  0
    3.8009    0.6950   -1.7199 H   0  0  0  0  0  0  0  0  0  0  0  0
  1  2  1  0
  2  3  1  0
  2  4  1  0
  4  5  2  0
  4  6  1  0
  6  7  2  0
  7  8  1  0
  8  9  2  0
  9 10  1  0
 10 11  1  0
 11 12  1  0
 12 13  1  0
 13 14  2  0
 14 15  1  0
 15 16  1  0
 16 17  1  0
 17 18  2  0
 18 19  1  0
 19 20  2  0
 15 21  2  0
 21 22  1  0
 21 23  1  0
  9 24  1  0
 24 25  2  0
 25  6  1  0
 23 12  2  0
 20 16  1  0
  1 26  1  0
  1 27  1  0
  1 28  1  0
  3 29  1  0
  3 30  1  0
  3 31  1  0
  7 32  1  0
  8 33  1  0
 10 34  1  0
 11 35  1  0
 11 36  1  0
 13 37  1  0
 14 38  1  0
 17 39  1  0
 18 40  1  0
 20 41  1  0
 23 42  1  0
 25 43  1  0
M  END
$$$$
OCNT-2309181
     RDKit          3D

 53 55  0  0  0  0  0  0  0  0999 V2000
   -1.9273   -2.8565    2.2788 C   0  0  0  0  0  0  0  0  0  0  0  0
   -2.2439   -1.3754    2.4210 C   0  0  0  0  0  0  0  0  0  0  0  0
   -1.5706   -0.5734    1.3949 N   0  0  0  0  0  0  0  0  0  0  0  0
   -2.1677   -0.2017    0.1812 C   0  0  0  0  0  0  0  0  0  0  0  0
   -1.5529    0.4355   -0.6738 O   0  0  0  0  0  0  0  0  0  0  0  0
   -3.6301   -0.6048   -0.0203 C   0  0  0  0  0  0  0  0  0  0  0  0
   -4.1610   -0.3425   -1.3906 C   0  0  0  0  0  0  0  0  0  0  0  0
   -4.6743   -1.2516   -2.2953 C   0  0  0  0  0  0  0  0  0  0  0  0
   -5.0502   -0.5318   -3.3918 N   0  0  0  0  0  0  0  0  0  0  0  0
   -5.6258   -1.0416   -4.6118 C   0  0  0  0  0  0  0  0  0  0  0  0
   -4.8514    0.7898   -3.2575 N   0  0  0  0  0  0  0  0  0  0  0  0
   -4.2859    0.9024   -2.0532 C   0  0  0  0  0  0  0  0  0  0  0  0
   -0.1556   -0.2525    1.6425 C   0  0  0  0  0  0  0  0  0  0  0  0
    0.1670    1.2336    1.7449 C   0  0  0  0  0  0  0  0  0  0  0  0
    1.6637    1.2533    1.4786 C   0  0  0  0  0  0  0  0  0  0  0  0
    1.8159    0.3023    0.3732 N   0  0  0  0  0  0  0  0  0  0  0  0
    3.2032   -0.1231    0.1229 C   0  0  0  0  0  0  0  0  0  0  0  0
    3.2948   -1.1183   -1.0474 C   0  0  0  0  0  0  0  0  0  0  0  0
    4.1297    1.0534   -0.1753 C   0  0  0  0  0  0  0  0  0  0  0  0
    5.3195    1.2177    0.5515 C   0  0  0  0  0  0  0  0  0  0  0  0
    6.1784    2.2842    0.2769 C   0  0  0  0  0  0  0  0  0  0  0  0
    5.8602    3.1981   -0.7259 C   0  0  0  0  0  0  0  0  0  0  0  0
    4.6827    3.0486   -1.4554 C   0  0  0  0  0  0  0  0  0  0  0  0
    3.8237    1.9828   -1.1837 C   0  0  0  0  0  0  0  0  0  0  0  0
    0.8717   -0.7997    0.6296 C   0  0  0  0  0  0  0  0  0  0  0  0
   -2.4591   -3.4332    3.0418 H   0  0  0  0  0  0  0  0  0  0  0  0
   -2.2240   -3.2332    1.2948 H   0  0  0  0  0  0  0  0  0  0  0  0
   -0.8553   -3.0446    2.3962 H   0  0  0  0  0  0  0  0  0  0  0  0
   -3.3258   -1.2297    2.3732 H   0  0  0  0  0  0  0  0  0  0  0  0
   -1.9322   -1.0110    3.4067 H   0  0  0  0  0  0  0  0  0  0  0  0
   -3.7349   -1.6745    0.1899 H   0  0  0  0  0  0  0  0  0  0  0  0
   -4.2395   -0.0451    0.6989 H   0  0  0  0  0  0  0  0  0  0  0  0
   -4.7936   -2.3252   -2.2506 H   0  0  0  0  0  0  0  0  0  0  0  0
   -5.7158   -2.1296   -4.5455 H   0  0  0  0  0  0  0  0  0  0  0  0
   -6.6146   -0.5924   -4.7410 H   0  0  0  0  0  0  0  0  0  0  0  0
   -4.9679   -0.7715   -5.4426 H   0  0  0  0  0  0  0  0  0  0  0  0
   -3.9916    1.8833   -1.7005 H   0  0  0  0  0  0  0  0  0  0  0  0
    0.1084   -0.6903    2.6166 H   0  0  0  0  0  0  0  0  0  0  0  0
   -0.3623    1.8321    0.9957 H   0  0  0  0  0  0  0  0  0  0  0  0
   -0.0836    1.6392    2.7304 H   0  0  0  0  0  0  0  0  0  0  0  0
    1.9947    2.2628    1.2167 H   0  0  0  0  0  0  0  0  0  0  0  0
    2.2087    0.9222    2.3717 H   0  0  0  0  0  0  0  0  0  0  0  0
    3.5762   -0.6377    1.0194 H   0  0  0  0  0  0  0  0  0  0  0  0
    2.7737   -2.0550   -0.8232 H   0  0  0  0  0  0  0  0  0  0  0  0
    2.8622   -0.7066   -1.9668 H   0  0  0  0  0  0  0  0  0  0  0  0
    4.3392   -1.3753   -1.2609 H   0  0  0  0  0  0  0  0  0  0  0  0
    5.5858    0.5150    1.3375 H   0  0  0  0  0  0  0  0  0  0  0  0
    7.0966    2.4024    0.8463 H   0  0  0  0  0  0  0  0  0  0  0  0
    6.5281    4.0284   -0.9382 H   0  0  0  0  0  0  0  0  0  0  0  0
    4.4286    3.7615   -2.2351 H   0  0  0  0  0  0  0  0  0  0  0  0
    2.9000    1.8815   -1.7511 H   0  0  0  0  0  0  0  0  0  0  0  0
    1.3676   -1.6674    1.0837 H   0  0  0  0  0  0  0  0  0  0  0  0
    0.4166   -1.1349   -0.3072 H   0  0  0  0  0  0  0  0  0  0  0  0
  1  2  1  0
  2  3  1  0
  3  4  1  0
  4  5  2  0
  4  6  1  0
  6  7  1  0
  7  8  2  0
  8  9  1  0
  9 10  1  0
  9 11  1  0
 11 12  2  0
  3 13  1  0
 13 14  1  0
 14 15  1  0
 15 16  1  0
 16 17  1  0
 17 18  1  0
 17 19  1  0
 19 20  2  0
 20 21  1  0
 21 22  2  0
 22 23  1  0
 23 24  2  0
 16 25  1  0
 12  7  1  0
 25 13  1  0
 24 19  1  0
  1 26  1  0
  1 27  1  0
  1 28  1  0
  2 29  1  0
  2 30  1  0
  6 31  1  0
  6 32  1  0
  8 33  1  0
 10 34  1  0
 10 35  1  0
 10 36  1  0
 12 37  1  0
 13 38  1  0
 14 39  1  0
 14 40  1  0
 15 41  1  0
 15 42  1  0
 17 43  1  0
 18 44  1  0
 18 45  1  0
 18 46  1  0
 20 47  1  0
 21 48  1  0
 22 49  1  0
 23 50  1  0
 24 51  1  0
 25 52  1  0
 25 53  1  0
M  END
$$$$
OCNT-2309187
     RDKit          3D

 40 42  0  0  0  0  0  0  0  0999 V2000
    0.6447    1.2085   -2.9037 O   0  0  0  0  0  0  0  0  0  0  0  0
    0.5449    1.2310   -1.6799 C   0  0  0  0  0  0  0  0  0  0  0  0
    1.3583    2.1827   -0.8056 C   0  0  0  0  0  0  0  0  0  0  0  0
    2.6465    1.5806   -0.5179 N   0  0  0  0  0  0  0  0  0  0  0  0
    2.7591    0.6087    0.4601 C   0  0  0  0  0  0  0  0  0  0  0  0
    1.7772    0.2905    1.1322 O   0  0  0  0  0  0  0  0  0  0  0  0
    4.0753   -0.0046    0.5745 C   0  0  0  0  0  0  0  0  0  0  0  0
    5.2943    0.3880    0.0469 C   0  0  0  0  0  0  0  0  0  0  0  0
    6.3554   -0.5003    0.3941 C   0  0  0  0  0  0  0  0  0  0  0  0
    5.9189   -1.5405    1.1809 C   0  0  0  0  0  0  0  0  0  0  0  0
    4.2441   -1.4416    1.5014 S   0  0  0  0  0  0  0  0  0  0  0  0
   -0.2248    0.3408   -0.9614 N   0  0  0  0  0  0  0  0  0  0  0  0
   -0.9465   -0.7112   -1.6308 C   0  0  0  0  0  0  0  0  0  0  0  0
   -2.0100   -1.3211   -0.7475 C   0  0  0  0  0  0  0  0  0  0  0  0
   -1.9531   -2.7245   -0.5888 C   0  0  0  0  0  0  0  0  0  0  0  0
   -2.8164   -3.4025    0.2706 C   0  0  0  0  0  0  0  0  0  0  0  0
   -3.7599   -2.6934    0.9978 C   0  0  0  0  0  0  0  0  0  0  0  0
   -3.8504   -1.3090    0.8531 C   0  0  0  0  0  0  0  0  0  0  0  0
   -3.0000   -0.6085   -0.0289 C   0  0  0  0  0  0  0  0  0  0  0  0
   -3.1979    0.8021   -0.1364 N   0  0  0  0  0  0  0  0  0  0  0  0
   -3.7011    1.6321    0.8482 C   0  0  0  0  0  0  0  0  0  0  0  0
   -3.7173    2.8985    0.3161 C   0  0  0  0  0  0  0  0  0  0  0  0
   -3.2765    2.8849   -0.9736 N   0  0  0  0  0  0  0  0  0  0  0  0
   -3.0001    1.6227   -1.2253 C   0  0  0  0  0  0  0  0  0  0  0  0
    0.8230    2.4057    0.1231 H   0  0  0  0  0  0  0  0  0  0  0  0
    1.5240    3.1173   -1.3493 H   0  0  0  0  0  0  0  0  0  0  0  0
    3.3420    1.6132   -1.2501 H   0  0  0  0  0  0  0  0  0  0  0  0
    5.4378    1.2779   -0.5533 H   0  0  0  0  0  0  0  0  0  0  0  0
    7.3873   -0.3784    0.0867 H   0  0  0  0  0  0  0  0  0  0  0  0
    6.5033   -2.3537    1.5899 H   0  0  0  0  0  0  0  0  0  0  0  0
    0.0718    0.1748    0.0018 H   0  0  0  0  0  0  0  0  0  0  0  0
   -0.1927   -1.4586   -1.9085 H   0  0  0  0  0  0  0  0  0  0  0  0
   -1.3793   -0.3599   -2.5726 H   0  0  0  0  0  0  0  0  0  0  0  0
   -1.2070   -3.3079   -1.1278 H   0  0  0  0  0  0  0  0  0  0  0  0
   -2.7428   -4.4819    0.3771 H   0  0  0  0  0  0  0  0  0  0  0  0
   -4.4349   -3.2159    1.6712 H   0  0  0  0  0  0  0  0  0  0  0  0
   -4.6323   -0.8014    1.4138 H   0  0  0  0  0  0  0  0  0  0  0  0
   -3.9527    1.2791    1.8370 H   0  0  0  0  0  0  0  0  0  0  0  0
   -4.0229    3.8177    0.7990 H   0  0  0  0  0  0  0  0  0  0  0  0
   -2.6890    1.2582   -2.1922 H   0  0  0  0  0  0  0  0  0  0  0  0
  1  2  2  0
  2  3  1  0
  3  4  1  0
  4  5  1  0
  5  6  2  0
  5  7  1  0
  7  8  2  0
  8  9  1  0
  9 10  2  0
 10 11  1  0
  2 12  1  0
 12 13  1  0
 13 14  1  0
 14 15  2  0
 15 16  1  0
 16 17  2  0
 17 18  1  0
 18 19  2  0
 19 20  1  0
 20 21  1  0
 21 22  2  0
 22 23  1  0
 23 24  2  0
 11  7  1  0
 19 14  1  0
 24 20  1  0
  3 25  1  0
  3 26  1  0
  4 27  1  0
  8 28  1  0
  9 29  1  0
 10 30  1  0
 12 31  1  0
 13 32  1  0
 13 33  1  0
 15 34  1  0
 16 35  1  0
 17 36  1  0
 18 37  1  0
 21 38  1  0
 22 39  1  0
 24 40  1  0
M  END
$$$$
OCNT-2309193
     RDKit          3D

 53 54  0  0  0  0  0  0  0  0999 V2000
   -4.9449    0.8041   -0.8963 C   0  0  0  0  0  0  0  0  0  0  0  0
   -4.4276    0.0179    0.3044 C   0  0  0  0  0  0  0  0  0  0  0  0
   -5.1545    0.4950    1.5694 C   0  0  0  0  0  0  0  0  0  0  0  0
   -2.9028    0.1296    0.5252 C   0  0  0  0  0  0  0  0  0  0  0  0
   -1.9274   -0.3349   -0.6025 C   0  0  0  0  0  0  0  0  0  0  0  0
   -1.7777    0.6828   -1.7715 C   0  0  0  0  0  0  0  0  0  0  0  0
   -1.7776    2.0446   -1.3601 O   0  0  0  0  0  0  0  0  0  0  0  0
   -2.3032   -1.7138   -1.2016 C   0  0  0  0  0  0  0  0  0  0  0  0
   -1.7221   -2.7130   -0.2156 C   0  0  0  0  0  0  0  0  0  0  0  0
   -0.3868   -2.0824    0.1359 C   0  0  0  0  0  0  0  0  0  0  0  0
   -0.6001   -0.6430    0.0248 N   0  0  0  0  0  0  0  0  0  0  0  0
    0.2318    0.3260    0.5385 C   0  0  0  0  0  0  0  0  0  0  0  0
   -0.0570    1.5197    0.5337 O   0  0  0  0  0  0  0  0  0  0  0  0
    1.4126   -0.1353    1.0484 N   0  0  0  0  0  0  0  0  0  0  0  0
    2.4492    0.7574    1.5458 C   0  0  0  0  0  0  0  0  0  0  0  0
    3.5298    1.1330    0.4858 C   0  0  0  0  0  0  0  0  0  0  0  0
    4.6408    1.9472    1.1875 C   0  0  0  0  0  0  0  0  0  0  0  0
    2.9058    2.0576   -0.5845 C   0  0  0  0  0  0  0  0  0  0  0  0
    4.1399   -0.1257   -0.1607 C   0  0  0  0  0  0  0  0  0  0  0  0
    4.2022   -0.4783   -1.5000 C   0  0  0  0  0  0  0  0  0  0  0  0
    4.8397   -1.7334   -1.7195 C   0  0  0  0  0  0  0  0  0  0  0  0
    5.2531   -2.3125   -0.5440 C   0  0  0  0  0  0  0  0  0  0  0  0
    4.8733   -1.3498    0.8113 S   0  0  0  0  0  0  0  0  0  0  0  0
   -6.0405    0.8201   -0.9092 H   0  0  0  0  0  0  0  0  0  0  0  0
   -4.6303    0.3441   -1.8357 H   0  0  0  0  0  0  0  0  0  0  0  0
   -4.5962    1.8415   -0.8763 H   0  0  0  0  0  0  0  0  0  0  0  0
   -4.6947   -1.0364    0.1684 H   0  0  0  0  0  0  0  0  0  0  0  0
   -6.2378    0.3695    1.4674 H   0  0  0  0  0  0  0  0  0  0  0  0
   -4.9531    1.5532    1.7683 H   0  0  0  0  0  0  0  0  0  0  0  0
   -4.8360   -0.0824    2.4439 H   0  0  0  0  0  0  0  0  0  0  0  0
   -2.6650    1.1619    0.8123 H   0  0  0  0  0  0  0  0  0  0  0  0
   -2.6765   -0.4580    1.4275 H   0  0  0  0  0  0  0  0  0  0  0  0
   -0.8463    0.5023   -2.3214 H   0  0  0  0  0  0  0  0  0  0  0  0
   -2.5904    0.5717   -2.4940 H   0  0  0  0  0  0  0  0  0  0  0  0
   -1.1140    2.1137   -0.6364 H   0  0  0  0  0  0  0  0  0  0  0  0
   -1.8082   -1.8566   -2.1721 H   0  0  0  0  0  0  0  0  0  0  0  0
   -3.3725   -1.8592   -1.3682 H   0  0  0  0  0  0  0  0  0  0  0  0
   -1.6120   -3.7156   -0.6381 H   0  0  0  0  0  0  0  0  0  0  0  0
   -2.3595   -2.7847    0.6731 H   0  0  0  0  0  0  0  0  0  0  0  0
    0.3869   -2.3619   -0.5880 H   0  0  0  0  0  0  0  0  0  0  0  0
   -0.0549   -2.3569    1.1417 H   0  0  0  0  0  0  0  0  0  0  0  0
    1.7273   -1.0416    0.7396 H   0  0  0  0  0  0  0  0  0  0  0  0
    2.9062    0.2370    2.3956 H   0  0  0  0  0  0  0  0  0  0  0  0
    1.9812    1.6641    1.9482 H   0  0  0  0  0  0  0  0  0  0  0  0
    5.4462    2.2044    0.4893 H   0  0  0  0  0  0  0  0  0  0  0  0
    4.2434    2.8824    1.5990 H   0  0  0  0  0  0  0  0  0  0  0  0
    5.0920    1.3944    2.0190 H   0  0  0  0  0  0  0  0  0  0  0  0
    2.4371    2.9350   -0.1240 H   0  0  0  0  0  0  0  0  0  0  0  0
    3.6654    2.4256   -1.2848 H   0  0  0  0  0  0  0  0  0  0  0  0
    2.1406    1.5451   -1.1774 H   0  0  0  0  0  0  0  0  0  0  0  0
    3.8091    0.1347   -2.3025 H   0  0  0  0  0  0  0  0  0  0  0  0
    4.9908   -2.1841   -2.6928 H   0  0  0  0  0  0  0  0  0  0  0  0
    5.7655   -3.2562   -0.4154 H   0  0  0  0  0  0  0  0  0  0  0  0
  1  2  1  0
  2  3  1  0
  2  4  1  0
  4  5  1  0
  5  6  1  0
  6  7  1  0
  5  8  1  0
  8  9  1  0
  9 10  1  0
 10 11  1  0
 11 12  1  0
 12 13  2  0
 12 14  1  0
 14 15  1  0
 15 16  1  0
 16 17  1  0
 16 18  1  0
 16 19  1  0
 19 20  2  0
 20 21  1  0
 21 22  2  0
 22 23  1  0
 11  5  1  0
 23 19  1  0
  1 24  1  0
  1 25  1  0
  1 26  1  0
  2 27  1  0
  3 28  1  0
  3 29  1  0
  3 30  1  0
  4 31  1  0
  4 32  1  0
  6 33  1  0
  6 34  1  0
  7 35  1  0
  8 36  1  0
  8 37  1  0
  9 38  1  0
  9 39  1  0
 10 40  1  0
 10 41  1  0
 14 42  1  0
 15 43  1  0
 15 44  1  0
 17 45  1  0
 17 46  1  0
 17 47  1  0
 18 48  1  0
 18 49  1  0
 18 50  1  0
 20 51  1  0
 21 52  1  0
 22 53  1  0
M  END
$$$$
OCNT-2309194
     RDKit          3D

 54 57  0  0  0  0  0  0  0  0999 V2000
    6.7007    2.1895    0.7252 C   0  0  0  0  0  0  0  0  0  0  0  0
    7.0650    0.8384    0.4686 O   0  0  0  0  0  0  0  0  0  0  0  0
    6.0675   -0.0022    0.0499 C   0  0  0  0  0  0  0  0  0  0  0  0
    6.4926   -1.3057   -0.2329 C   0  0  0  0  0  0  0  0  0  0  0  0
    5.6030   -2.2907   -0.6757 C   0  0  0  0  0  0  0  0  0  0  0  0
    4.2750   -1.9027   -0.8168 C   0  0  0  0  0  0  0  0  0  0  0  0
    3.2635   -2.7030   -1.2393 O   0  0  0  0  0  0  0  0  0  0  0  0
    2.1267   -1.9511   -1.2542 C   0  0  0  0  0  0  0  0  0  0  0  0
    0.9276   -2.6493   -1.7639 C   0  0  0  0  0  0  0  0  0  0  0  0
    2.3870   -0.6649   -0.8011 C   0  0  0  0  0  0  0  0  0  0  0  0
    1.4565    0.4431   -0.6500 C   0  0  0  0  0  0  0  0  0  0  0  0
    1.8200    1.6127   -0.7298 O   0  0  0  0  0  0  0  0  0  0  0  0
    0.1543    0.0956   -0.3441 N   0  0  0  0  0  0  0  0  0  0  0  0
   -0.7917    1.1341    0.0338 C   0  0  0  0  0  0  0  0  0  0  0  0
   -2.2724    0.6601    0.1728 C   0  0  0  0  0  0  0  0  0  0  0  0
   -2.8729    0.0864   -1.0784 N   0  0  0  0  0  0  0  0  0  0  0  0
   -2.8419   -1.3606   -1.2244 C   0  0  0  0  0  0  0  0  0  0  0  0
   -2.4523    0.7408   -2.3168 C   0  0  0  0  0  0  0  0  0  0  0  0
   -3.1541    1.9080    0.5670 C   0  0  0  0  0  0  0  0  0  0  0  0
   -4.1596    1.3297    1.5171 C   0  0  0  0  0  0  0  0  0  0  0  0
   -5.3553    1.8887    1.9359 C   0  0  0  0  0  0  0  0  0  0  0  0
   -6.1289    1.1828    2.8595 C   0  0  0  0  0  0  0  0  0  0  0  0
   -5.6946   -0.0561    3.3570 C   0  0  0  0  0  0  0  0  0  0  0  0
   -4.4810   -0.6049    2.9375 C   0  0  0  0  0  0  0  0  0  0  0  0
   -3.7285    0.0978    2.0113 C   0  0  0  0  0  0  0  0  0  0  0  0
   -2.3862   -0.2534    1.4529 C   0  0  0  0  0  0  0  0  0  0  0  0
    3.7990   -0.6284   -0.5458 C   0  0  0  0  0  0  0  0  0  0  0  0
    4.7181    0.3479   -0.1009 C   0  0  0  0  0  0  0  0  0  0  0  0
    6.3078    2.6717   -0.1758 H   0  0  0  0  0  0  0  0  0  0  0  0
    7.6056    2.7281    1.0225 H   0  0  0  0  0  0  0  0  0  0  0  0
    5.9875    2.2545    1.5538 H   0  0  0  0  0  0  0  0  0  0  0  0
    7.5437   -1.5600   -0.1089 H   0  0  0  0  0  0  0  0  0  0  0  0
    5.9264   -3.2992   -0.9007 H   0  0  0  0  0  0  0  0  0  0  0  0
    0.3051   -2.9922   -0.9318 H   0  0  0  0  0  0  0  0  0  0  0  0
    1.2043   -3.5246   -2.3616 H   0  0  0  0  0  0  0  0  0  0  0  0
    0.3340   -1.9879   -2.4024 H   0  0  0  0  0  0  0  0  0  0  0  0
   -0.0050   -0.8403   -0.0009 H   0  0  0  0  0  0  0  0  0  0  0  0
   -0.7120    1.9524   -0.6926 H   0  0  0  0  0  0  0  0  0  0  0  0
   -0.4356    1.5494    0.9859 H   0  0  0  0  0  0  0  0  0  0  0  0
   -3.2885   -1.6683   -2.1782 H   0  0  0  0  0  0  0  0  0  0  0  0
   -1.8260   -1.7597   -1.1892 H   0  0  0  0  0  0  0  0  0  0  0  0
   -3.4478   -1.8526   -0.4571 H   0  0  0  0  0  0  0  0  0  0  0  0
   -1.4270    0.4798   -2.5995 H   0  0  0  0  0  0  0  0  0  0  0  0
   -2.5287    1.8305   -2.2463 H   0  0  0  0  0  0  0  0  0  0  0  0
   -3.1102    0.4466   -3.1430 H   0  0  0  0  0  0  0  0  0  0  0  0
   -2.5640    2.6700    1.0903 H   0  0  0  0  0  0  0  0  0  0  0  0
   -3.6435    2.3781   -0.2921 H   0  0  0  0  0  0  0  0  0  0  0  0
   -5.6883    2.8493    1.5560 H   0  0  0  0  0  0  0  0  0  0  0  0
   -7.0747    1.5970    3.1993 H   0  0  0  0  0  0  0  0  0  0  0  0
   -6.3080   -0.5898    4.0789 H   0  0  0  0  0  0  0  0  0  0  0  0
   -4.1414   -1.5573    3.3320 H   0  0  0  0  0  0  0  0  0  0  0  0
   -1.6279    0.0167    2.1989 H   0  0  0  0  0  0  0  0  0  0  0  0
   -2.2756   -1.3216    1.2539 H   0  0  0  0  0  0  0  0  0  0  0  0
    4.3528    1.3468    0.1093 H   0  0  0  0  0  0  0  0  0  0  0  0
  1  2  1  0
  2  3  1  0
  3  4  2  0
  4  5  1  0
  5  6  2  0
  6  7  1  0
  7  8  1  0
  8  9  1  0
  8 10  2  0
 10 11  1  0
 11 12  2  0
 11 13  1  0
 13 14  1  0
 14 15  1  0
 15 16  1  0
 16 17  1  0
 16 18  1  0
 15 19  1  0
 19 20  1  0
 20 21  2  0
 21 22  1  0
 22 23  2  0
 23 24  1  0
 24 25  2  0
 25 26  1  0
 10 27  1  0
 27 28  2  0
 28  3  1  0
 27  6  1  0
 26 15  1  0
 25 20  1  0
  1 29  1  0
  1 30  1  0
  1 31  1  0
  4 32  1  0
  5 33  1  0
  9 34  1  0
  9 35  1  0
  9 36  1  0
 13 37  1  0
 14 38  1  0
 14 39  1  0
 17 40  1  0
 17 41  1  0
 17 42  1  0
 18 43  1  0
 18 44  1  0
 18 45  1  0
 19 46  1  0
 19 47  1  0
 21 48  1  0
 22 49  1  0
 23 50  1  0
 24 51  1  0
 26 52  1  0
 26 53  1  0
 28 54  1  0
M  END
$$$$
OCNT-2309206
     RDKit          3D

 47 48  0  0  0  0  0  0  0  0999 V2000
   -1.8765   -5.4150    0.2333 C   0  0  0  0  0  0  0  0  0  0  0  0
   -2.0886   -3.9979    0.0698 N   0  0  0  0  0  0  0  0  0  0  0  0
   -1.0351   -3.1506   -0.2063 C   0  0  0  0  0  0  0  0  0  0  0  0
    0.1349   -3.5254   -0.2313 O   0  0  0  0  0  0  0  0  0  0  0  0
   -1.4480   -1.6985   -0.4239 C   0  0  0  0  0  0  0  0  0  0  0  0
   -0.3545   -0.9359   -1.1870 C   0  0  0  0  0  0  0  0  0  0  0  0
    0.9048   -0.8569   -0.4644 N   0  0  0  0  0  0  0  0  0  0  0  0
    1.8407    0.1030   -0.7973 C   0  0  0  0  0  0  0  0  0  0  0  0
    1.6108    0.9962   -1.6006 O   0  0  0  0  0  0  0  0  0  0  0  0
    3.0001   -0.0871   -0.0778 N   0  0  0  0  0  0  0  0  0  0  0  0
    4.1953    0.6525   -0.1540 C   0  0  0  0  0  0  0  0  0  0  0  0
    4.4225    1.6724   -1.0814 C   0  0  0  0  0  0  0  0  0  0  0  0
    5.6418    2.3597   -1.0969 C   0  0  0  0  0  0  0  0  0  0  0  0
    6.6396    2.0261   -0.1858 C   0  0  0  0  0  0  0  0  0  0  0  0
    8.1379    2.8703   -0.2058 Cl  0  0  0  0  0  0  0  0  0  0  0  0
    6.4296    1.0091    0.7410 C   0  0  0  0  0  0  0  0  0  0  0  0
    5.2106    0.3242    0.7550 C   0  0  0  0  0  0  0  0  0  0  0  0
   -1.7966   -1.0664    0.9356 C   0  0  0  0  0  0  0  0  0  0  0  0
   -2.5062    0.2612    0.8122 C   0  0  0  0  0  0  0  0  0  0  0  0
   -1.7842    1.4600    0.8649 C   0  0  0  0  0  0  0  0  0  0  0  0
   -2.4364    2.6877    0.7312 C   0  0  0  0  0  0  0  0  0  0  0  0
   -3.8255    2.7412    0.5517 C   0  0  0  0  0  0  0  0  0  0  0  0
   -4.5318    4.0637    0.3863 C   0  0  0  0  0  0  0  0  0  0  0  0
   -3.8692    5.1069    0.9597 F   0  0  0  0  0  0  0  0  0  0  0  0
   -4.7025    4.4009   -0.9218 F   0  0  0  0  0  0  0  0  0  0  0  0
   -5.7787    4.0707    0.9376 F   0  0  0  0  0  0  0  0  0  0  0  0
   -4.5456    1.5388    0.4910 C   0  0  0  0  0  0  0  0  0  0  0  0
   -3.8925    0.3107    0.6210 C   0  0  0  0  0  0  0  0  0  0  0  0
   -2.7548   -5.8438    0.7210 H   0  0  0  0  0  0  0  0  0  0  0  0
   -1.7437   -5.8648   -0.7541 H   0  0  0  0  0  0  0  0  0  0  0  0
   -0.9857   -5.5980    0.8400 H   0  0  0  0  0  0  0  0  0  0  0  0
   -3.0317   -3.6803   -0.1149 H   0  0  0  0  0  0  0  0  0  0  0  0
   -2.3408   -1.7097   -1.0643 H   0  0  0  0  0  0  0  0  0  0  0  0
   -0.1368   -1.4404   -2.1367 H   0  0  0  0  0  0  0  0  0  0  0  0
   -0.6937    0.0743   -1.4396 H   0  0  0  0  0  0  0  0  0  0  0  0
    1.2951   -1.7683   -0.2425 H   0  0  0  0  0  0  0  0  0  0  0  0
    2.9431   -0.7886    0.6451 H   0  0  0  0  0  0  0  0  0  0  0  0
    3.6706    1.9564   -1.8115 H   0  0  0  0  0  0  0  0  0  0  0  0
    5.8000    3.1509   -1.8249 H   0  0  0  0  0  0  0  0  0  0  0  0
    7.2065    0.7439    1.4529 H   0  0  0  0  0  0  0  0  0  0  0  0
    5.0679   -0.4673    1.4863 H   0  0  0  0  0  0  0  0  0  0  0  0
   -0.8964   -0.9502    1.5533 H   0  0  0  0  0  0  0  0  0  0  0  0
   -2.4423   -1.7388    1.5166 H   0  0  0  0  0  0  0  0  0  0  0  0
   -0.7029    1.4477    0.9963 H   0  0  0  0  0  0  0  0  0  0  0  0
   -1.8501    3.6053    0.7649 H   0  0  0  0  0  0  0  0  0  0  0  0
   -5.6245    1.5563    0.3426 H   0  0  0  0  0  0  0  0  0  0  0  0
   -4.4762   -0.6058    0.5746 H   0  0  0  0  0  0  0  0  0  0  0  0
  1  2  1  0
  2  3  1  0
  3  4  2  0
  3  5  1  0
  5  6  1  0
  6  7  1  0
  7  8  1  0
  8  9  2  0
  8 10  1  0
 10 11  1  0
 11 12  1  0
 12 13  2  0
 13 14  1  0
 14 15  1  0
 14 16  2  0
 16 17  1  0
  5 18  1  0
 18 19  1  0
 19 20  1  0
 20 21  2  0
 21 22  1  0
 22 23  1  0
 23 24  1  0
 23 25  1  0
 23 26  1  0
 22 27  2  0
 27 28  1  0
 17 11  2  0
 28 19  2  0
  1 29  1  0
  1 30  1  0
  1 31  1  0
  2 32  1  0
  5 33  1  0
  6 34  1  0
  6 35  1  0
  7 36  1  0
 10 37  1  0
 12 38  1  0
 13 39  1  0
 16 40  1  0
 17 41  1  0
 18 42  1  0
 18 43  1  0
 20 44  1  0
 21 45  1  0
 27 46  1  0
 28 47  1  0
M  END
$$$$
OCNT-2309207
     RDKit          3D

 48 50  0  0  0  0  0  0  0  0999 V2000
    6.8687    2.0567    0.4013 C   0  0  0  0  0  0  0  0  0  0  0  0
    6.2696    0.8728    1.1449 C   0  0  0  0  0  0  0  0  0  0  0  0
    4.9348    0.4698    0.5740 C   0  0  0  0  0  0  0  0  0  0  0  0
    3.7540    1.0568    1.0397 C   0  0  0  0  0  0  0  0  0  0  0  0
    2.5190    0.6894    0.4970 C   0  0  0  0  0  0  0  0  0  0  0  0
    2.4416   -0.2679   -0.5207 C   0  0  0  0  0  0  0  0  0  0  0  0
    1.1627   -0.5770   -1.0138 N   0  0  0  0  0  0  0  0  0  0  0  0
    0.8044   -1.5573   -1.9172 C   0  0  0  0  0  0  0  0  0  0  0  0
    1.5581   -2.3405   -2.4896 O   0  0  0  0  0  0  0  0  0  0  0  0
   -0.7013   -1.5716   -2.2278 C   0  0  0  0  0  0  0  0  0  0  0  0
   -1.5165   -0.9095   -1.1728 N   0  0  0  0  0  0  0  0  0  0  0  0
   -1.6567   -1.7687    0.0112 C   0  0  0  0  0  0  0  0  0  0  0  0
   -1.6291   -0.8525    1.2215 C   0  0  0  0  0  0  0  0  0  0  0  0
   -0.6838   -0.9420    2.0148 O   0  0  0  0  0  0  0  0  0  0  0  0
   -2.6615    0.0647    1.4025 N   0  0  0  0  0  0  0  0  0  0  0  0
   -2.5519    0.8973    2.6000 C   0  0  0  0  0  0  0  0  0  0  0  0
   -3.8438    0.1853    0.5930 C   0  0  0  0  0  0  0  0  0  0  0  0
   -5.0156    0.6760    1.2235 C   0  0  0  0  0  0  0  0  0  0  0  0
   -6.2320    0.8307    0.5543 C   0  0  0  0  0  0  0  0  0  0  0  0
   -6.3202    0.5000   -0.7823 C   0  0  0  0  0  0  0  0  0  0  0  0
   -5.1889    0.0215   -1.4334 C   0  0  0  0  0  0  0  0  0  0  0  0
   -3.9377   -0.1456   -0.7744 C   0  0  0  0  0  0  0  0  0  0  0  0
   -2.8448   -0.6218   -1.7130 C   0  0  0  0  0  0  0  0  0  0  0  0
    3.6187   -0.8499   -0.9897 C   0  0  0  0  0  0  0  0  0  0  0  0
    4.8561   -0.4819   -0.4489 C   0  0  0  0  0  0  0  0  0  0  0  0
    7.8367    2.3258    0.8359 H   0  0  0  0  0  0  0  0  0  0  0  0
    6.2155    2.9341    0.4582 H   0  0  0  0  0  0  0  0  0  0  0  0
    7.0250    1.8230   -0.6574 H   0  0  0  0  0  0  0  0  0  0  0  0
    6.1560    1.1209    2.2074 H   0  0  0  0  0  0  0  0  0  0  0  0
    6.9609    0.0220    1.1051 H   0  0  0  0  0  0  0  0  0  0  0  0
    3.7849    1.8011    1.8319 H   0  0  0  0  0  0  0  0  0  0  0  0
    1.6177    1.1528    0.8904 H   0  0  0  0  0  0  0  0  0  0  0  0
    0.3761   -0.0762   -0.6093 H   0  0  0  0  0  0  0  0  0  0  0  0
   -0.8059   -1.0308   -3.1771 H   0  0  0  0  0  0  0  0  0  0  0  0
   -1.0230   -2.6088   -2.3817 H   0  0  0  0  0  0  0  0  0  0  0  0
   -2.5505   -2.4039    0.0168 H   0  0  0  0  0  0  0  0  0  0  0  0
   -0.8019   -2.4490    0.1189 H   0  0  0  0  0  0  0  0  0  0  0  0
   -2.9528    1.8988    2.4119 H   0  0  0  0  0  0  0  0  0  0  0  0
   -1.5077    1.0307    2.9009 H   0  0  0  0  0  0  0  0  0  0  0  0
   -3.0841    0.4122    3.4245 H   0  0  0  0  0  0  0  0  0  0  0  0
   -5.0238    0.9222    2.2826 H   0  0  0  0  0  0  0  0  0  0  0  0
   -7.1035    1.2026    1.0866 H   0  0  0  0  0  0  0  0  0  0  0  0
   -7.2578    0.6150   -1.3192 H   0  0  0  0  0  0  0  0  0  0  0  0
   -5.2780   -0.2207   -2.4931 H   0  0  0  0  0  0  0  0  0  0  0  0
   -2.7277    0.1553   -2.4806 H   0  0  0  0  0  0  0  0  0  0  0  0
   -3.2286   -1.5224   -2.2157 H   0  0  0  0  0  0  0  0  0  0  0  0
    3.6097   -1.5909   -1.7826 H   0  0  0  0  0  0  0  0  0  0  0  0
    5.7589   -0.9489   -0.8365 H   0  0  0  0  0  0  0  0  0  0  0  0
  1  2  1  0
  2  3  1  0
  3  4  1  0
  4  5  2  0
  5  6  1  0
  6  7  1  0
  7  8  1  0
  8  9  2  0
  8 10  1  0
 10 11  1  0
 11 12  1  0
 12 13  1  0
 13 14  2  0
 13 15  1  0
 15 16  1  0
 15 17  1  0
 17 18  2  0
 18 19  1  0
 19 20  2  0
 20 21  1  0
 21 22  2  0
 22 23  1  0
  6 24  2  0
 24 25  1  0
 25  3  2  0
 23 11  1  0
 22 17  1  0
  1 26  1  0
  1 27  1  0
  1 28  1  0
  2 29  1  0
  2 30  1  0
  4 31  1  0
  5 32  1  0
  7 33  1  0
 10 34  1  0
 10 35  1  0
 12 36  1  0
 12 37  1  0
 16 38  1  0
 16 39  1  0
 16 40  1  0
 18 41  1  0
 19 42  1  0
 20 43  1  0
 21 44  1  0
 23 45  1  0
 23 46  1  0
 24 47  1  0
 25 48  1  0
M  END
$$$$
OCNT-2309214
     RDKit          3D

 46 48  0  0  0  0  0  0  0  0999 V2000
    5.8824   -1.1443    0.4878 C   0  0  0  0  0  0  0  0  0  0  0  0
    5.6674   -0.1798   -0.5356 O   0  0  0  0  0  0  0  0  0  0  0  0
    4.4683    0.4779   -0.5264 C   0  0  0  0  0  0  0  0  0  0  0  0
    4.3363    1.4634   -1.5117 C   0  0  0  0  0  0  0  0  0  0  0  0
    3.1663    2.2188   -1.6216 C   0  0  0  0  0  0  0  0  0  0  0  0
    2.1111    1.9893   -0.7441 C   0  0  0  0  0  0  0  0  0  0  0  0
    2.2405    0.9991    0.2341 C   0  0  0  0  0  0  0  0  0  0  0  0
    0.8805    0.7033    1.3359 S   0  0  0  0  0  0  0  0  0  0  0  0
    0.5666    1.9714    1.9586 O   0  0  0  0  0  0  0  0  0  0  0  0
    1.1879   -0.4627    2.1363 O   0  0  0  0  0  0  0  0  0  0  0  0
   -0.3793    0.2982    0.2787 N   0  0  0  0  0  0  0  0  0  0  0  0
   -0.2166   -0.9369   -0.5480 C   0  0  0  0  0  0  0  0  0  0  0  0
   -0.5995   -2.2218    0.2105 C   0  0  0  0  0  0  0  0  0  0  0  0
   -1.9659   -2.1701    0.7599 N   0  0  0  0  0  0  0  0  0  0  0  0
   -2.2599   -3.3747    1.5340 C   0  0  0  0  0  0  0  0  0  0  0  0
   -2.1275   -0.9578    1.5960 C   0  0  0  0  0  0  0  0  0  0  0  0
   -1.7546    0.3824    0.8840 C   0  0  0  0  0  0  0  0  0  0  0  0
   -2.7494    0.9280   -0.1388 C   0  0  0  0  0  0  0  0  0  0  0  0
   -2.6321    2.2771   -0.5251 C   0  0  0  0  0  0  0  0  0  0  0  0
   -3.5052    2.8384   -1.4585 C   0  0  0  0  0  0  0  0  0  0  0  0
   -4.5088    2.0593   -2.0263 C   0  0  0  0  0  0  0  0  0  0  0  0
   -4.6360    0.7209   -1.6626 C   0  0  0  0  0  0  0  0  0  0  0  0
   -3.7624    0.1583   -0.7274 C   0  0  0  0  0  0  0  0  0  0  0  0
    3.4130    0.2432    0.3532 C   0  0  0  0  0  0  0  0  0  0  0  0
    5.8336   -0.6852    1.4808 H   0  0  0  0  0  0  0  0  0  0  0  0
    6.8901   -1.5506    0.3577 H   0  0  0  0  0  0  0  0  0  0  0  0
    5.1744   -1.9751    0.4001 H   0  0  0  0  0  0  0  0  0  0  0  0
    5.1595    1.6470   -2.1990 H   0  0  0  0  0  0  0  0  0  0  0  0
    3.0835    2.9837   -2.3896 H   0  0  0  0  0  0  0  0  0  0  0  0
    1.1969    2.5736   -0.8231 H   0  0  0  0  0  0  0  0  0  0  0  0
    0.8109   -1.0200   -0.9157 H   0  0  0  0  0  0  0  0  0  0  0  0
   -0.8413   -0.8329   -1.4439 H   0  0  0  0  0  0  0  0  0  0  0  0
    0.1278   -2.4168    1.0066 H   0  0  0  0  0  0  0  0  0  0  0  0
   -0.5285   -3.0605   -0.4930 H   0  0  0  0  0  0  0  0  0  0  0  0
   -1.5867   -3.4942    2.3905 H   0  0  0  0  0  0  0  0  0  0  0  0
   -3.2900   -3.3486    1.9061 H   0  0  0  0  0  0  0  0  0  0  0  0
   -2.1756   -4.2659    0.9025 H   0  0  0  0  0  0  0  0  0  0  0  0
   -3.1653   -0.8956    1.9478 H   0  0  0  0  0  0  0  0  0  0  0  0
   -1.4985   -1.0539    2.4917 H   0  0  0  0  0  0  0  0  0  0  0  0
   -1.7518    1.1358    1.6838 H   0  0  0  0  0  0  0  0  0  0  0  0
   -1.8488    2.8983   -0.0929 H   0  0  0  0  0  0  0  0  0  0  0  0
   -3.3994    3.8822   -1.7415 H   0  0  0  0  0  0  0  0  0  0  0  0
   -5.1894    2.4930   -2.7538 H   0  0  0  0  0  0  0  0  0  0  0  0
   -5.4156    0.1091   -2.1093 H   0  0  0  0  0  0  0  0  0  0  0  0
   -3.8874   -0.8922   -0.4780 H   0  0  0  0  0  0  0  0  0  0  0  0
    3.4788   -0.5121    1.1294 H   0  0  0  0  0  0  0  0  0  0  0  0
  1  2  1  0
  2  3  1  0
  3  4  1  0
  4  5  2  0
  5  6  1  0
  6  7  2  0
  7  8  1  0
  8  9  2  0
  8 10  2  0
  8 11  1  0
 11 12  1  0
 12 13  1  0
 13 14  1  0
 14 15  1  0
 14 16  1  0
 16 17  1  0
 17 18  1  0
 18 19  2  0
 19 20  1  0
 20 21  2  0
 21 22  1  0
 22 23  2  0
  7 24  1  0
 24  3  2  0
 17 11  1  0
 23 18  1  0
  1 25  1  0
  1 26  1  0
  1 27  1  0
  4 28  1  0
  5 29  1  0
  6 30  1  0
 12 31  1  0
 12 32  1  0
 13 33  1  0
 13 34  1  0
 15 35  1  0
 15 36  1  0
 15 37  1  0
 16 38  1  0
 16 39  1  0
 17 40  1  0
 19 41  1  0
 20 42  1  0
 21 43  1  0
 22 44  1  0
 23 45  1  0
 24 46  1  0
M  END
$$$$
OCNT-2309246
     RDKit          3D

 42 46  0  0  0  0  0  0  0  0999 V2000
    1.5585    0.4041    2.0033 O   0  0  0  0  0  0  0  0  0  0  0  0
    1.3698   -0.1603    0.9271 C   0  0  0  0  0  0  0  0  0  0  0  0
    2.4976   -0.5732    0.1211 C   0  0  0  0  0  0  0  0  0  0  0  0
    2.6850   -1.7306   -0.6147 C   0  0  0  0  0  0  0  0  0  0  0  0
    3.9016   -1.7502   -1.2394 N   0  0  0  0  0  0  0  0  0  0  0  0
    4.4986   -0.6423   -0.8586 C   0  0  0  0  0  0  0  0  0  0  0  0
    5.7882   -0.1255   -1.1719 C   0  0  0  0  0  0  0  0  0  0  0  0
    6.1844    1.0510   -0.6502 C   0  0  0  0  0  0  0  0  0  0  0  0
    5.3217    1.8162    0.2341 C   0  0  0  0  0  0  0  0  0  0  0  0
    4.1030    1.3354    0.5331 C   0  0  0  0  0  0  0  0  0  0  0  0
    3.6921    0.1130   -0.0069 N   0  0  0  0  0  0  0  0  0  0  0  0
    0.0871   -0.4152    0.4152 N   0  0  0  0  0  0  0  0  0  0  0  0
   -0.1657   -0.5036   -1.0275 C   0  0  0  0  0  0  0  0  0  0  0  0
   -1.4195    0.2573   -1.4319 C   0  0  0  0  0  0  0  0  0  0  0  0
   -2.5850   -0.2560   -0.7220 N   0  0  0  0  0  0  0  0  0  0  0  0
   -3.9207   -0.0202   -1.2950 C   0  0  0  0  0  0  0  0  0  0  0  0
   -4.2103    1.0235   -2.3435 C   0  0  0  0  0  0  0  0  0  0  0  0
   -4.7141    1.2136   -0.9473 C   0  0  0  0  0  0  0  0  0  0  0  0
   -2.3872   -0.4998    0.6656 C   0  0  0  0  0  0  0  0  0  0  0  0
   -3.4974   -0.7291    1.5040 C   0  0  0  0  0  0  0  0  0  0  0  0
   -3.3531   -0.9476    2.8740 C   0  0  0  0  0  0  0  0  0  0  0  0
   -2.0876   -0.9581    3.4380 C   0  0  0  0  0  0  0  0  0  0  0  0
   -0.9656   -0.7625    2.6314 C   0  0  0  0  0  0  0  0  0  0  0  0
   -1.0858   -0.5349    1.2479 C   0  0  0  0  0  0  0  0  0  0  0  0
    1.9956   -2.5590   -0.7243 H   0  0  0  0  0  0  0  0  0  0  0  0
    6.4296   -0.7010   -1.8294 H   0  0  0  0  0  0  0  0  0  0  0  0
    7.1661    1.4557   -0.8777 H   0  0  0  0  0  0  0  0  0  0  0  0
    5.6801    2.7577    0.6367 H   0  0  0  0  0  0  0  0  0  0  0  0
    3.4160    1.8578    1.1876 H   0  0  0  0  0  0  0  0  0  0  0  0
    0.6753   -0.0880   -1.5914 H   0  0  0  0  0  0  0  0  0  0  0  0
   -0.2590   -1.5666   -1.2819 H   0  0  0  0  0  0  0  0  0  0  0  0
   -1.5558    0.1429   -2.5136 H   0  0  0  0  0  0  0  0  0  0  0  0
   -1.3008    1.3280   -1.2216 H   0  0  0  0  0  0  0  0  0  0  0  0
   -4.4759   -0.9514   -1.3927 H   0  0  0  0  0  0  0  0  0  0  0  0
   -3.4266    1.6903   -2.6787 H   0  0  0  0  0  0  0  0  0  0  0  0
   -4.9316    0.7739   -3.1134 H   0  0  0  0  0  0  0  0  0  0  0  0
   -5.7753    1.0951   -0.7650 H   0  0  0  0  0  0  0  0  0  0  0  0
   -4.2382    1.9689   -0.3327 H   0  0  0  0  0  0  0  0  0  0  0  0
   -4.5044   -0.7367    1.0978 H   0  0  0  0  0  0  0  0  0  0  0  0
   -4.2301   -1.1120    3.4940 H   0  0  0  0  0  0  0  0  0  0  0  0
   -1.9641   -1.1340    4.5034 H   0  0  0  0  0  0  0  0  0  0  0  0
    0.0037   -0.8264    3.1169 H   0  0  0  0  0  0  0  0  0  0  0  0
  1  2  2  0
  2  3  1  0
  3  4  2  0
  4  5  1  0
  5  6  2  0
  6  7  1  0
  7  8  2  0
  8  9  1  0
  9 10  2  0
 10 11  1  0
  2 12  1  0
 12 13  1  0
 13 14  1  0
 14 15  1  0
 15 16  1  0
 16 17  1  0
 17 18  1  0
 15 19  1  0
 19 20  2  0
 20 21  1  0
 21 22  2  0
 22 23  1  0
 23 24  2  0
 11  3  1  0
 24 12  1  0
 11  6  1  0
 18 16  1  0
 24 19  1  0
  4 25  1  0
  7 26  1  0
  8 27  1  0
  9 28  1  0
 10 29  1  0
 13 30  1  0
 13 31  1  0
 14 32  1  0
 14 33  1  0
 16 34  1  0
 17 35  1  0
 17 36  1  0
 18 37  1  0
 18 38  1  0
 20 39  1  0
 21 40  1  0
 22 41  1  0
 23 42  1  0
M  END
$$$$
OCNT-2309252
     RDKit          3D

 41 43  0  0  0  0  0  0  0  0999 V2000
   -0.4556   -2.9185   -0.1309 O   0  0  0  0  0  0  0  0  0  0  0  0
   -0.2334   -1.7058   -0.1750 C   0  0  0  0  0  0  0  0  0  0  0  0
   -1.3580   -0.7664   -0.0227 C   0  0  0  0  0  0  0  0  0  0  0  0
   -1.2322    0.5305    0.3033 N   0  0  0  0  0  0  0  0  0  0  0  0
   -2.5127    1.0383    0.3781 O   0  0  0  0  0  0  0  0  0  0  0  0
   -3.4221    0.0551    0.1256 C   0  0  0  0  0  0  0  0  0  0  0  0
   -4.8294    0.4333    0.1802 C   0  0  0  0  0  0  0  0  0  0  0  0
   -5.2225    1.7432    0.4728 C   0  0  0  0  0  0  0  0  0  0  0  0
   -6.5747    2.0444    0.5095 C   0  0  0  0  0  0  0  0  0  0  0  0
   -7.5499    1.1428    0.2775 N   0  0  0  0  0  0  0  0  0  0  0  0
   -7.1562   -0.1158   -0.0017 C   0  0  0  0  0  0  0  0  0  0  0  0
   -5.8295   -0.5136   -0.0612 C   0  0  0  0  0  0  0  0  0  0  0  0
   -2.7360   -1.1084   -0.1256 C   0  0  0  0  0  0  0  0  0  0  0  0
    1.0720   -1.2276   -0.3635 N   0  0  0  0  0  0  0  0  0  0  0  0
    2.1688   -2.1885   -0.2819 C   0  0  0  0  0  0  0  0  0  0  0  0
    3.4536   -1.5202    0.1941 C   0  0  0  0  0  0  0  0  0  0  0  0
    3.9119   -0.4303   -0.7883 C   0  0  0  0  0  0  0  0  0  0  0  0
    4.8909    0.5668   -0.1421 C   0  0  0  0  0  0  0  0  0  0  0  0
    4.2924    1.5109    0.8965 C   0  0  0  0  0  0  0  0  0  0  0  0
    5.3183    2.3423    1.4264 O   0  0  0  0  0  0  0  0  0  0  0  0
    2.7271    0.2460   -1.5014 C   0  0  0  0  0  0  0  0  0  0  0  0
    1.4123    0.1496   -0.7268 C   0  0  0  0  0  0  0  0  0  0  0  0
   -4.4987    2.5270    0.6719 H   0  0  0  0  0  0  0  0  0  0  0  0
   -6.9173    3.0508    0.7338 H   0  0  0  0  0  0  0  0  0  0  0  0
   -7.9610   -0.8229   -0.1829 H   0  0  0  0  0  0  0  0  0  0  0  0
   -5.5978   -1.5475   -0.2922 H   0  0  0  0  0  0  0  0  0  0  0  0
   -3.1432   -2.0830   -0.3505 H   0  0  0  0  0  0  0  0  0  0  0  0
    2.3018   -2.6274   -1.2779 H   0  0  0  0  0  0  0  0  0  0  0  0
    1.9027   -3.0007    0.4036 H   0  0  0  0  0  0  0  0  0  0  0  0
    4.2460   -2.2702    0.3028 H   0  0  0  0  0  0  0  0  0  0  0  0
    3.2800   -1.1019    1.1917 H   0  0  0  0  0  0  0  0  0  0  0  0
    4.4894   -0.9382   -1.5748 H   0  0  0  0  0  0  0  0  0  0  0  0
    5.3545    1.1714   -0.9333 H   0  0  0  0  0  0  0  0  0  0  0  0
    5.7227    0.0150    0.3154 H   0  0  0  0  0  0  0  0  0  0  0  0
    3.8506    0.9639    1.7328 H   0  0  0  0  0  0  0  0  0  0  0  0
    3.5238    2.1575    0.4638 H   0  0  0  0  0  0  0  0  0  0  0  0
    5.6843    2.8646    0.6923 H   0  0  0  0  0  0  0  0  0  0  0  0
    2.9504    1.2916   -1.7417 H   0  0  0  0  0  0  0  0  0  0  0  0
    2.5825   -0.2579   -2.4673 H   0  0  0  0  0  0  0  0  0  0  0  0
    0.6184    0.5723   -1.3498 H   0  0  0  0  0  0  0  0  0  0  0  0
    1.4760    0.7275    0.2013 H   0  0  0  0  0  0  0  0  0  0  0  0
  1  2  2  0
  2  3  1  0
  3  4  2  0
  4  5  1  0
  5  6  1  0
  6  7  1  0
  7  8  2  0
  8  9  1  0
  9 10  2  0
 10 11  1  0
 11 12  2  0
  6 13  2  0
  2 14  1  0
 14 15  1  0
 15 16  1  0
 16 17  1  0
 17 18  1  0
 18 19  1  0
 19 20  1  0
 17 21  1  0
 21 22  1  0
 13  3  1  0
 22 14  1  0
 12  7  1  0
  8 23  1  0
  9 24  1  0
 11 25  1  0
 12 26  1  0
 13 27  1  0
 15 28  1  0
 15 29  1  0
 16 30  1  0
 16 31  1  0
 17 32  1  0
 18 33  1  0
 18 34  1  0
 19 35  1  0
 19 36  1  0
 20 37  1  0
 21 38  1  0
 21 39  1  0
 22 40  1  0
 22 41  1  0
M  END
$$$$
OCNT-2309256
     RDKit          3D

 45 47  0  0  0  0  0  0  0  0999 V2000
    3.3840   -1.7458    2.0982 C   0  0  0  0  0  0  0  0  0  0  0  0
    2.6645   -1.3297    0.9460 O   0  0  0  0  0  0  0  0  0  0  0  0
    3.3178   -0.4435    0.1496 C   0  0  0  0  0  0  0  0  0  0  0  0
    2.7555   -0.0587   -1.0514 C   0  0  0  0  0  0  0  0  0  0  0  0
    1.5028   -0.4685   -1.6607 C   0  0  0  0  0  0  0  0  0  0  0  0
    1.4766   -1.0873   -2.7258 O   0  0  0  0  0  0  0  0  0  0  0  0
    0.3121   -0.1140   -1.0016 N   0  0  0  0  0  0  0  0  0  0  0  0
    0.2694    0.9031    0.0476 C   0  0  0  0  0  0  0  0  0  0  0  0
   -1.1493    1.3111    0.4394 C   0  0  0  0  0  0  0  0  0  0  0  0
   -2.0043    0.0594    0.6797 C   0  0  0  0  0  0  0  0  0  0  0  0
   -2.0166   -0.8796   -0.5629 C   0  0  0  0  0  0  0  0  0  0  0  0
   -3.3903   -0.9686   -1.2375 C   0  0  0  0  0  0  0  0  0  0  0  0
   -4.5147   -1.2712   -0.2481 C   0  0  0  0  0  0  0  0  0  0  0  0
   -4.1730   -0.8891    1.1923 C   0  0  0  0  0  0  0  0  0  0  0  0
   -3.3260    0.3018    1.2990 N   0  0  0  0  0  0  0  0  0  0  0  0
   -4.0170    1.5125    0.8668 C   0  0  0  0  0  0  0  0  0  0  0  0
   -0.9550   -0.4973   -1.6069 C   0  0  0  0  0  0  0  0  0  0  0  0
    3.7707    1.0137   -1.9165 S   0  0  0  0  0  0  0  0  0  0  0  0
    4.9432    1.0178   -0.6726 C   0  0  0  0  0  0  0  0  0  0  0  0
    6.1771    1.8399   -0.8194 C   0  0  0  0  0  0  0  0  0  0  0  0
    4.5769    0.1943    0.3731 C   0  0  0  0  0  0  0  0  0  0  0  0
    2.7716   -2.4820    2.6278 H   0  0  0  0  0  0  0  0  0  0  0  0
    3.5577   -0.9056    2.7789 H   0  0  0  0  0  0  0  0  0  0  0  0
    4.3270   -2.2310    1.8243 H   0  0  0  0  0  0  0  0  0  0  0  0
    0.8256    1.7847   -0.2903 H   0  0  0  0  0  0  0  0  0  0  0  0
    0.7828    0.5035    0.9276 H   0  0  0  0  0  0  0  0  0  0  0  0
   -1.1013    1.9316    1.3423 H   0  0  0  0  0  0  0  0  0  0  0  0
   -1.5861    1.9271   -0.3565 H   0  0  0  0  0  0  0  0  0  0  0  0
   -1.4577   -0.5038    1.4526 H   0  0  0  0  0  0  0  0  0  0  0  0
   -1.7722   -1.8884   -0.1977 H   0  0  0  0  0  0  0  0  0  0  0  0
   -3.3815   -1.7336   -2.0237 H   0  0  0  0  0  0  0  0  0  0  0  0
   -3.6098   -0.0220   -1.7472 H   0  0  0  0  0  0  0  0  0  0  0  0
   -4.7505   -2.3420   -0.2787 H   0  0  0  0  0  0  0  0  0  0  0  0
   -5.4219   -0.7472   -0.5732 H   0  0  0  0  0  0  0  0  0  0  0  0
   -3.6581   -1.7304    1.6757 H   0  0  0  0  0  0  0  0  0  0  0  0
   -5.0972   -0.7564    1.7685 H   0  0  0  0  0  0  0  0  0  0  0  0
   -4.1690    1.5623   -0.2150 H   0  0  0  0  0  0  0  0  0  0  0  0
   -4.9983    1.5888    1.3496 H   0  0  0  0  0  0  0  0  0  0  0  0
   -3.4665    2.4069    1.1766 H   0  0  0  0  0  0  0  0  0  0  0  0
   -1.2856    0.3546   -2.2148 H   0  0  0  0  0  0  0  0  0  0  0  0
   -0.8161   -1.3373   -2.2971 H   0  0  0  0  0  0  0  0  0  0  0  0
    6.7551    1.5204   -1.6928 H   0  0  0  0  0  0  0  0  0  0  0  0
    6.8198    1.7412    0.0617 H   0  0  0  0  0  0  0  0  0  0  0  0
    5.9268    2.8998   -0.9336 H   0  0  0  0  0  0  0  0  0  0  0  0
    5.2011    0.0587    1.2470 H   0  0  0  0  0  0  0  0  0  0  0  0
  1  2  1  0
  2  3  1  0
  3  4  2  0
  4  5  1  0
  5  6  2  0
  5  7  1  0
  7  8  1  0
  8  9  1  0
  9 10  1  0
 10 11  1  0
 11 12  1  0
 12 13  1  0
 13 14  1  0
 14 15  1  0
 15 16  1  0
 11 17  1  0
  4 18  1  0
 18 19  1  0
 19 20  1  0
 19 21  2  0
 21  3  1  0
 17  7  1  0
 15 10  1  0
  1 22  1  0
  1 23  1  0
  1 24  1  0
  8 25  1  0
  8 26  1  0
  9 27  1  0
  9 28  1  0
 10 29  1  0
 11 30  1  0
 12 31  1  0
 12 32  1  0
 13 33  1  0
 13 34  1  0
 14 35  1  0
 14 36  1  0
 16 37  1  0
 16 38  1  0
 16 39  1  0
 17 40  1  0
 17 41  1  0
 20 42  1  0
 20 43  1  0
 20 44  1  0
 21 45  1  0
M  END
$$$$
OCNT-2309262
     RDKit          3D

 34 36  0  0  0  0  0  0  0  0999 V2000
   -3.3466   -2.1221    2.6885 O   0  0  0  0  0  0  0  0  0  0  0  0
   -2.4704   -1.9798    1.5443 S   0  0  0  0  0  0  0  0  0  0  0  0
   -2.4423   -2.9726    0.4927 O   0  0  0  0  0  0  0  0  0  0  0  0
   -0.9168   -1.7680    2.1696 N   0  0  0  0  0  0  0  0  0  0  0  0
    0.1266   -1.3088    1.3211 C   0  0  0  0  0  0  0  0  0  0  0  0
    0.7093   -0.0674    1.5789 C   0  0  0  0  0  0  0  0  0  0  0  0
    1.7098    0.4314    0.7364 C   0  0  0  0  0  0  0  0  0  0  0  0
    2.1331   -0.3171   -0.3704 C   0  0  0  0  0  0  0  0  0  0  0  0
    3.1446    0.1663   -1.2489 N   0  0  0  0  0  0  0  0  0  0  0  0
    3.8397    1.3565   -1.1772 C   0  0  0  0  0  0  0  0  0  0  0  0
    4.7091    1.3847   -2.2419 C   0  0  0  0  0  0  0  0  0  0  0  0
    4.4804    0.1766   -2.9126 C   0  0  0  0  0  0  0  0  0  0  0  0
    3.5409   -0.5635   -2.3249 N   0  0  0  0  0  0  0  0  0  0  0  0
    1.5469   -1.5685   -0.6170 C   0  0  0  0  0  0  0  0  0  0  0  0
    0.5480   -2.0610    0.2276 C   0  0  0  0  0  0  0  0  0  0  0  0
   -2.8214   -0.3986    0.8020 C   0  0  0  0  0  0  0  0  0  0  0  0
   -3.3480    0.6302    1.5908 C   0  0  0  0  0  0  0  0  0  0  0  0
   -3.6282    1.8675    1.0072 C   0  0  0  0  0  0  0  0  0  0  0  0
   -3.3908    2.0637   -0.3545 C   0  0  0  0  0  0  0  0  0  0  0  0
   -3.7308    3.5924   -1.0664 Cl  0  0  0  0  0  0  0  0  0  0  0  0
   -2.8832    1.0306   -1.1435 C   0  0  0  0  0  0  0  0  0  0  0  0
   -2.6032   -0.2099   -0.5672 C   0  0  0  0  0  0  0  0  0  0  0  0
   -0.9311   -1.4463    3.1356 H   0  0  0  0  0  0  0  0  0  0  0  0
    0.3866    0.5310    2.4266 H   0  0  0  0  0  0  0  0  0  0  0  0
    2.1311    1.4040    0.9711 H   0  0  0  0  0  0  0  0  0  0  0  0
    3.6700    2.0775   -0.3933 H   0  0  0  0  0  0  0  0  0  0  0  0
    5.4083    2.1687   -2.4954 H   0  0  0  0  0  0  0  0  0  0  0  0
    4.9589   -0.1991   -3.8083 H   0  0  0  0  0  0  0  0  0  0  0  0
    1.8588   -2.1765   -1.4654 H   0  0  0  0  0  0  0  0  0  0  0  0
    0.1140   -3.0371    0.0226 H   0  0  0  0  0  0  0  0  0  0  0  0
   -3.5467    0.4761    2.6492 H   0  0  0  0  0  0  0  0  0  0  0  0
   -4.0366    2.6715    1.6148 H   0  0  0  0  0  0  0  0  0  0  0  0
   -2.7071    1.1834   -2.2055 H   0  0  0  0  0  0  0  0  0  0  0  0
   -2.2128   -1.0156   -1.1861 H   0  0  0  0  0  0  0  0  0  0  0  0
  1  2  2  0
  2  3  2  0
  2  4  1  0
  4  5  1  0
  5  6  1  0
  6  7  2  0
  7  8  1  0
  8  9  1  0
  9 10  1  0
 10 11  2  0
 11 12  1  0
 12 13  2  0
  8 14  2  0
 14 15  1  0
  2 16  1  0
 16 17  1  0
 17 18  2  0
 18 19  1  0
 19 20  1  0
 19 21  2  0
 21 22  1  0
 15  5  2  0
 22 16  2  0
 13  9  1  0
  4 23  1  0
  6 24  1  0
  7 25  1  0
 10 26  1  0
 11 27  1  0
 12 28  1  0
 14 29  1  0
 15 30  1  0
 17 31  1  0
 18 32  1  0
 21 33  1  0
 22 34  1  0
M  END
$$$$
OCNT-2309265
     RDKit          3D

 48 51  0  0  0  0  0  0  0  0999 V2000
    4.9064   -1.2907    0.7294 C   0  0  0  0  0  0  0  0  0  0  0  0
    5.1666    0.1842    0.6597 C   0  0  0  0  0  0  0  0  0  0  0  0
    6.4668    0.6627    0.8222 C   0  0  0  0  0  0  0  0  0  0  0  0
    6.8152    1.9678    0.7875 N   0  0  0  0  0  0  0  0  0  0  0  0
    5.8191    2.8505    0.5833 C   0  0  0  0  0  0  0  0  0  0  0  0
    4.4927    2.4877    0.4159 C   0  0  0  0  0  0  0  0  0  0  0  0
    4.1463    1.1303    0.4603 C   0  0  0  0  0  0  0  0  0  0  0  0
    2.6973    0.7389    0.2638 C   0  0  0  0  0  0  0  0  0  0  0  0
    2.3550    0.5533   -1.2270 C   0  0  0  0  0  0  0  0  0  0  0  0
    1.0019    0.0770   -1.5348 N   0  0  0  0  0  0  0  0  0  0  0  0
    0.7154   -1.2904   -1.0578 C   0  0  0  0  0  0  0  0  0  0  0  0
   -0.4510   -1.4018   -0.0482 C   0  0  0  0  0  0  0  0  0  0  0  0
   -1.6723   -0.7999   -0.6050 N   0  0  0  0  0  0  0  0  0  0  0  0
   -2.8133   -0.9026    0.1876 C   0  0  0  0  0  0  0  0  0  0  0  0
   -2.7039   -1.3768    1.4605 N   0  0  0  0  0  0  0  0  0  0  0  0
   -3.8053   -1.4761    2.2313 C   0  0  0  0  0  0  0  0  0  0  0  0
   -5.0709   -1.1683    1.9108 N   0  0  0  0  0  0  0  0  0  0  0  0
   -5.1562   -0.7363    0.6414 C   0  0  0  0  0  0  0  0  0  0  0  0
   -4.1116   -0.5855   -0.2552 C   0  0  0  0  0  0  0  0  0  0  0  0
   -4.7407   -0.1474   -1.4417 C   0  0  0  0  0  0  0  0  0  0  0  0
   -6.0626    0.0112   -1.3103 N   0  0  0  0  0  0  0  0  0  0  0  0
   -6.2891   -0.3631   -0.0302 N   0  0  0  0  0  0  0  0  0  0  0  0
   -7.6349   -0.3437    0.4851 C   0  0  0  0  0  0  0  0  0  0  0  0
   -1.4857    0.4485   -1.3675 C   0  0  0  0  0  0  0  0  0  0  0  0
   -0.0624    1.0303   -1.1852 C   0  0  0  0  0  0  0  0  0  0  0  0
    5.8405   -1.8622    0.7611 H   0  0  0  0  0  0  0  0  0  0  0  0
    4.3377   -1.5319    1.6325 H   0  0  0  0  0  0  0  0  0  0  0  0
    4.3527   -1.6283   -0.1517 H   0  0  0  0  0  0  0  0  0  0  0  0
    7.2996   -0.0159    0.9909 H   0  0  0  0  0  0  0  0  0  0  0  0
    6.1218    3.8932    0.5565 H   0  0  0  0  0  0  0  0  0  0  0  0
    3.7435    3.2562    0.2545 H   0  0  0  0  0  0  0  0  0  0  0  0
    2.0658    1.5183    0.7070 H   0  0  0  0  0  0  0  0  0  0  0  0
    2.4798   -0.1689    0.8365 H   0  0  0  0  0  0  0  0  0  0  0  0
    3.0716   -0.1409   -1.6849 H   0  0  0  0  0  0  0  0  0  0  0  0
    2.5154    1.5036   -1.7533 H   0  0  0  0  0  0  0  0  0  0  0  0
    1.6050   -1.7703   -0.6326 H   0  0  0  0  0  0  0  0  0  0  0  0
    0.4542   -1.8832   -1.9441 H   0  0  0  0  0  0  0  0  0  0  0  0
   -0.6192   -2.4648    0.1655 H   0  0  0  0  0  0  0  0  0  0  0  0
   -0.1654   -0.9064    0.8893 H   0  0  0  0  0  0  0  0  0  0  0  0
   -3.6454   -1.8515    3.2376 H   0  0  0  0  0  0  0  0  0  0  0  0
   -4.2856    0.0634   -2.4002 H   0  0  0  0  0  0  0  0  0  0  0  0
   -8.2601   -0.9683   -0.1586 H   0  0  0  0  0  0  0  0  0  0  0  0
   -7.9900    0.6900    0.4762 H   0  0  0  0  0  0  0  0  0  0  0  0
   -7.6518   -0.7337    1.5053 H   0  0  0  0  0  0  0  0  0  0  0  0
   -2.1984    1.2257   -1.0653 H   0  0  0  0  0  0  0  0  0  0  0  0
   -1.6592    0.2350   -2.4291 H   0  0  0  0  0  0  0  0  0  0  0  0
    0.0324    1.9233   -1.8142 H   0  0  0  0  0  0  0  0  0  0  0  0
    0.0321    1.3577   -0.1429 H   0  0  0  0  0  0  0  0  0  0  0  0
  1  2  1  0
  2  3  2  0
  3  4  1  0
  4  5  2  0
  5  6  1  0
  6  7  2  0
  7  8  1  0
  8  9  1  0
  9 10  1  0
 10 11  1  0
 11 12  1  0
 12 13  1  0
 13 14  1  0
 14 15  1  0
 15 16  2  0
 16 17  1  0
 17 18  2  0
 18 19  1  0
 19 20  1  0
 20 21  2  0
 21 22  1  0
 22 23  1  0
 13 24  1  0
 24 25  1  0
  7  2  1  0
 25 10  1  0
 19 14  2  0
 22 18  1  0
  1 26  1  0
  1 27  1  0
  1 28  1  0
  3 29  1  0
  5 30  1  0
  6 31  1  0
  8 32  1  0
  8 33  1  0
  9 34  1  0
  9 35  1  0
 11 36  1  0
 11 37  1  0
 12 38  1  0
 12 39  1  0
 16 40  1  0
 20 41  1  0
 23 42  1  0
 23 43  1  0
 23 44  1  0
 24 45  1  0
 24 46  1  0
 25 47  1  0
 25 48  1  0
M  END
$$$$
OCNT-2309277
     RDKit          3D

 33 35  0  0  0  0  0  0  0  0999 V2000
   -0.5554   -0.9057   -2.3288 O   0  0  0  0  0  0  0  0  0  0  0  0
   -0.0704   -1.0146   -1.2025 C   0  0  0  0  0  0  0  0  0  0  0  0
   -0.8108   -1.5651   -0.1775 N   0  0  0  0  0  0  0  0  0  0  0  0
   -2.2085   -1.8959   -0.3267 C   0  0  0  0  0  0  0  0  0  0  0  0
   -3.0760   -0.7685    0.1691 C   0  0  0  0  0  0  0  0  0  0  0  0
   -3.5724   -0.7685    1.4814 C   0  0  0  0  0  0  0  0  0  0  0  0
   -4.3537    0.2935    1.9420 C   0  0  0  0  0  0  0  0  0  0  0  0
   -4.6384    1.3669    1.0996 C   0  0  0  0  0  0  0  0  0  0  0  0
   -4.1390    1.3745   -0.1967 C   0  0  0  0  0  0  0  0  0  0  0  0
   -4.4321    2.4469   -0.9862 O   0  0  0  0  0  0  0  0  0  0  0  0
   -3.3616    0.3208   -0.6686 C   0  0  0  0  0  0  0  0  0  0  0  0
    1.2820   -0.5828   -0.8593 C   0  0  0  0  0  0  0  0  0  0  0  0
    1.9778   -0.5635    0.3368 C   0  0  0  0  0  0  0  0  0  0  0  0
    1.3778   -1.0834    1.8682 Cl  0  0  0  0  0  0  0  0  0  0  0  0
    3.3201   -0.0444    0.2150 C   0  0  0  0  0  0  0  0  0  0  0  0
    4.3469    0.1418    1.1798 C   0  0  0  0  0  0  0  0  0  0  0  0
    5.5877    0.6724    0.8139 C   0  0  0  0  0  0  0  0  0  0  0  0
    5.8337    1.0264   -0.5035 C   0  0  0  0  0  0  0  0  0  0  0  0
    4.8476    0.8576   -1.4766 C   0  0  0  0  0  0  0  0  0  0  0  0
    3.5988    0.3223   -1.1018 C   0  0  0  0  0  0  0  0  0  0  0  0
    2.2579    0.0357   -2.1301 S   0  0  0  0  0  0  0  0  0  0  0  0
   -0.4437   -1.5264    0.7633 H   0  0  0  0  0  0  0  0  0  0  0  0
   -2.4463   -2.1304   -1.3702 H   0  0  0  0  0  0  0  0  0  0  0  0
   -2.3923   -2.8042    0.2578 H   0  0  0  0  0  0  0  0  0  0  0  0
   -3.3551   -1.5955    2.1538 H   0  0  0  0  0  0  0  0  0  0  0  0
   -4.7394    0.2867    2.9581 H   0  0  0  0  0  0  0  0  0  0  0  0
   -5.2441    2.1964    1.4529 H   0  0  0  0  0  0  0  0  0  0  0  0
   -4.0023    2.3186   -1.8484 H   0  0  0  0  0  0  0  0  0  0  0  0
   -2.9664    0.3339   -1.6818 H   0  0  0  0  0  0  0  0  0  0  0  0
    4.1747   -0.1287    2.2195 H   0  0  0  0  0  0  0  0  0  0  0  0
    6.3604    0.8074    1.5671 H   0  0  0  0  0  0  0  0  0  0  0  0
    6.8002    1.4392   -0.7835 H   0  0  0  0  0  0  0  0  0  0  0  0
    5.0424    1.1366   -2.5088 H   0  0  0  0  0  0  0  0  0  0  0  0
  1  2  2  0
  2  3  1  0
  3  4  1  0
  4  5  1  0
  5  6  2  0
  6  7  1  0
  7  8  2  0
  8  9  1  0
  9 10  1  0
  9 11  2  0
  2 12  1  0
 12 13  2  0
 13 14  1  0
 13 15  1  0
 15 16  2  0
 16 17  1  0
 17 18  2  0
 18 19  1  0
 19 20  2  0
 20 21  1  0
 11  5  1  0
 21 12  1  0
 20 15  1  0
  3 22  1  0
  4 23  1  0
  4 24  1  0
  6 25  1  0
  7 26  1  0
  8 27  1  0
 10 28  1  0
 11 29  1  0
 16 30  1  0
 17 31  1  0
 18 32  1  0
 19 33  1  0
M  END
$$$$
OCNT-2309284
     RDKit          3D

 46 49  0  0  0  0  0  0  0  0999 V2000
    0.7072    1.4770   -2.0819 O   0  0  0  0  0  0  0  0  0  0  0  0
    1.2639    0.4493   -1.7140 C   0  0  0  0  0  0  0  0  0  0  0  0
    0.8113   -0.8148   -2.0321 N   0  0  0  0  0  0  0  0  0  0  0  0
   -0.3656   -1.0200   -2.8537 C   0  0  0  0  0  0  0  0  0  0  0  0
   -1.6637   -1.2172   -2.0769 C   0  0  0  0  0  0  0  0  0  0  0  0
   -1.6606   -2.3807   -1.0887 C   0  0  0  0  0  0  0  0  0  0  0  0
   -2.9084   -2.1114   -0.2467 C   0  0  0  0  0  0  0  0  0  0  0  0
   -3.0306   -0.6548   -0.2468 N   0  0  0  0  0  0  0  0  0  0  0  0
   -3.8271    0.0560    0.6196 C   0  0  0  0  0  0  0  0  0  0  0  0
   -4.7675   -0.5824    1.4513 C   0  0  0  0  0  0  0  0  0  0  0  0
   -5.5870    0.1316    2.3354 C   0  0  0  0  0  0  0  0  0  0  0  0
   -5.4791    1.5107    2.4009 C   0  0  0  0  0  0  0  0  0  0  0  0
   -6.2611    2.1964    3.2456 F   0  0  0  0  0  0  0  0  0  0  0  0
   -4.5673    2.1698    1.5941 C   0  0  0  0  0  0  0  0  0  0  0  0
   -4.4574    3.5047    1.6527 F   0  0  0  0  0  0  0  0  0  0  0  0
   -3.7533    1.4556    0.7143 C   0  0  0  0  0  0  0  0  0  0  0  0
   -2.0964   -0.0398   -1.1973 C   0  0  0  0  0  0  0  0  0  0  0  0
    2.4659    0.5222   -0.8402 C   0  0  0  0  0  0  0  0  0  0  0  0
    2.5982    1.6188    0.0182 C   0  0  0  0  0  0  0  0  0  0  0  0
    3.7131    1.7308    0.8543 C   0  0  0  0  0  0  0  0  0  0  0  0
    4.7151    0.7486    0.8294 C   0  0  0  0  0  0  0  0  0  0  0  0
    5.8392    0.8794    1.6814 N   0  0  0  0  0  0  0  0  0  0  0  0
    6.9304    0.0592    1.8218 C   0  0  0  0  0  0  0  0  0  0  0  0
    7.7354    0.5556    2.7327 N   0  0  0  0  0  0  0  0  0  0  0  0
    7.1365    1.7073    3.1682 N   0  0  0  0  0  0  0  0  0  0  0  0
    5.9881    1.9144    2.5395 N   0  0  0  0  0  0  0  0  0  0  0  0
    4.5917   -0.3430   -0.0430 C   0  0  0  0  0  0  0  0  0  0  0  0
    3.4707   -0.4523   -0.8764 C   0  0  0  0  0  0  0  0  0  0  0  0
    1.2195   -1.6203   -1.5781 H   0  0  0  0  0  0  0  0  0  0  0  0
   -0.1642   -1.9119   -3.4575 H   0  0  0  0  0  0  0  0  0  0  0  0
   -0.4737   -0.1755   -3.5437 H   0  0  0  0  0  0  0  0  0  0  0  0
   -2.4615   -1.4028   -2.8111 H   0  0  0  0  0  0  0  0  0  0  0  0
   -1.6991   -3.3569   -1.5810 H   0  0  0  0  0  0  0  0  0  0  0  0
   -0.7719   -2.3561   -0.4470 H   0  0  0  0  0  0  0  0  0  0  0  0
   -3.7919   -2.5618   -0.7131 H   0  0  0  0  0  0  0  0  0  0  0  0
   -2.7779   -2.5256    0.7589 H   0  0  0  0  0  0  0  0  0  0  0  0
   -4.8886   -1.6619    1.4174 H   0  0  0  0  0  0  0  0  0  0  0  0
   -6.3050   -0.3843    2.9644 H   0  0  0  0  0  0  0  0  0  0  0  0
   -3.0540    2.0256    0.1113 H   0  0  0  0  0  0  0  0  0  0  0  0
   -2.5743    0.7335   -1.8086 H   0  0  0  0  0  0  0  0  0  0  0  0
   -1.2614    0.3965   -0.6419 H   0  0  0  0  0  0  0  0  0  0  0  0
    1.8306    2.3914    0.0404 H   0  0  0  0  0  0  0  0  0  0  0  0
    3.7808    2.5960    1.5132 H   0  0  0  0  0  0  0  0  0  0  0  0
    7.0911   -0.8493    1.2649 H   0  0  0  0  0  0  0  0  0  0  0  0
    5.3479   -1.1204   -0.1108 H   0  0  0  0  0  0  0  0  0  0  0  0
    3.4123   -1.2870   -1.5703 H   0  0  0  0  0  0  0  0  0  0  0  0
  1  2  2  0
  2  3  1  0
  3  4  1  0
  4  5  1  0
  5  6  1  0
  6  7  1  0
  7  8  1  0
  8  9  1  0
  9 10  1  0
 10 11  2  0
 11 12  1  0
 12 13  1  0
 12 14  2  0
 14 15  1  0
 14 16  1  0
  8 17  1  0
  2 18  1  0
 18 19  1  0
 19 20  2  0
 20 21  1  0
 21 22  1  0
 22 23  1  0
 23 24  2  0
 24 25  1  0
 25 26  2  0
 21 27  2  0
 27 28  1  0
 17  5  1  0
 28 18  2  0
 16  9  2  0
 26 22  1  0
  3 29  1  0
  4 30  1  0
  4 31  1  0
  5 32  1  0
  6 33  1  0
  6 34  1  0
  7 35  1  0
  7 36  1  0
 10 37  1  0
 11 38  1  0
 16 39  1  0
 17 40  1  0
 17 41  1  0
 19 42  1  0
 20 43  1  0
 23 44  1  0
 27 45  1  0
 28 46  1  0
M  END
$$$$
OCNT-2309291
     RDKit          3D

 43 45  0  0  0  0  0  0  0  0999 V2000
    5.3901    1.6671    1.1289 C   0  0  0  0  0  0  0  0  0  0  0  0
    4.0590    1.3442    0.5190 C   0  0  0  0  0  0  0  0  0  0  0  0
    3.3375    2.3166   -0.1786 C   0  0  0  0  0  0  0  0  0  0  0  0
    2.1128    1.9962   -0.7634 C   0  0  0  0  0  0  0  0  0  0  0  0
    1.6019    0.6989   -0.6685 C   0  0  0  0  0  0  0  0  0  0  0  0
    2.3139   -0.2853    0.0173 C   0  0  0  0  0  0  0  0  0  0  0  0
    1.9358   -1.5888    0.1951 O   0  0  0  0  0  0  0  0  0  0  0  0
    0.6566   -1.9935   -0.2911 C   0  0  0  0  0  0  0  0  0  0  0  0
    0.6026   -3.5147   -0.1733 C   0  0  0  0  0  0  0  0  0  0  0  0
   -0.5167   -1.4056    0.5228 C   0  0  0  0  0  0  0  0  0  0  0  0
   -0.3936   -1.1022    1.7142 O   0  0  0  0  0  0  0  0  0  0  0  0
   -1.7146   -1.2021   -0.1324 N   0  0  0  0  0  0  0  0  0  0  0  0
   -2.0471   -1.5478   -1.5080 C   0  0  0  0  0  0  0  0  0  0  0  0
   -3.4449   -0.9893   -1.7364 C   0  0  0  0  0  0  0  0  0  0  0  0
   -4.0471   -0.9731   -0.3353 C   0  0  0  0  0  0  0  0  0  0  0  0
   -2.8596   -0.6043    0.5561 C   0  0  0  0  0  0  0  0  0  0  0  0
   -2.6441    0.8807    0.6729 C   0  0  0  0  0  0  0  0  0  0  0  0
   -3.2788    1.8539    0.0456 N   0  0  0  0  0  0  0  0  0  0  0  0
   -2.7039    3.0182    0.4867 C   0  0  0  0  0  0  0  0  0  0  0  0
   -1.7009    2.7572    1.3872 C   0  0  0  0  0  0  0  0  0  0  0  0
   -1.6758    1.3972    1.5055 N   0  0  0  0  0  0  0  0  0  0  0  0
    3.5424    0.0436    0.5999 C   0  0  0  0  0  0  0  0  0  0  0  0
    6.1950    1.3826    0.4441 H   0  0  0  0  0  0  0  0  0  0  0  0
    5.4749    2.7373    1.3450 H   0  0  0  0  0  0  0  0  0  0  0  0
    5.5215    1.1332    2.0762 H   0  0  0  0  0  0  0  0  0  0  0  0
    3.7222    3.3298   -0.2686 H   0  0  0  0  0  0  0  0  0  0  0  0
    1.5515    2.7596   -1.2968 H   0  0  0  0  0  0  0  0  0  0  0  0
    0.6466    0.5043   -1.1422 H   0  0  0  0  0  0  0  0  0  0  0  0
    0.5812   -1.7368   -1.3518 H   0  0  0  0  0  0  0  0  0  0  0  0
    0.7263   -3.8286    0.8697 H   0  0  0  0  0  0  0  0  0  0  0  0
   -0.3448   -3.9210   -0.5383 H   0  0  0  0  0  0  0  0  0  0  0  0
    1.4213   -3.9717   -0.7399 H   0  0  0  0  0  0  0  0  0  0  0  0
   -2.0360   -2.6383   -1.5981 H   0  0  0  0  0  0  0  0  0  0  0  0
   -1.3208   -1.1216   -2.2051 H   0  0  0  0  0  0  0  0  0  0  0  0
   -3.3825    0.0307   -2.1332 H   0  0  0  0  0  0  0  0  0  0  0  0
   -4.0251   -1.5901   -2.4423 H   0  0  0  0  0  0  0  0  0  0  0  0
   -4.9024   -0.2961   -0.2494 H   0  0  0  0  0  0  0  0  0  0  0  0
   -4.3914   -1.9853   -0.0866 H   0  0  0  0  0  0  0  0  0  0  0  0
   -2.9706   -1.0379    1.5568 H   0  0  0  0  0  0  0  0  0  0  0  0
   -3.0390    3.9821    0.1268 H   0  0  0  0  0  0  0  0  0  0  0  0
   -1.0209    3.3944    1.9330 H   0  0  0  0  0  0  0  0  0  0  0  0
   -1.0294    0.8342    2.0515 H   0  0  0  0  0  0  0  0  0  0  0  0
    4.0969   -0.7281    1.1301 H   0  0  0  0  0  0  0  0  0  0  0  0
  1  2  1  0
  2  3  2  0
  3  4  1  0
  4  5  2  0
  5  6  1  0
  6  7  1  0
  7  8  1  0
  8  9  1  0
  8 10  1  0
 10 11  2  0
 10 12  1  0
 12 13  1  0
 13 14  1  0
 14 15  1  0
 15 16  1  0
 16 17  1  0
 17 18  2  0
 18 19  1  0
 19 20  2  0
 20 21  1  0
  6 22  2  0
 22  2  1  0
 16 12  1  0
 21 17  1  0
  1 23  1  0
  1 24  1  0
  1 25  1  0
  3 26  1  0
  4 27  1  0
  5 28  1  0
  8 29  1  0
  9 30  1  0
  9 31  1  0
  9 32  1  0
 13 33  1  0
 13 34  1  0
 14 35  1  0
 14 36  1  0
 15 37  1  0
 15 38  1  0
 16 39  1  0
 19 40  1  0
 20 41  1  0
 21 42  1  0
 22 43  1  0
M  END
$$$$
OCNT-2309292
     RDKit          3D

 51 54  0  0  0  0  0  0  0  0999 V2000
   -4.5754    2.4795   -0.6074 C   0  0  0  0  0  0  0  0  0  0  0  0
   -3.4653    1.5510   -0.0418 C   0  0  0  0  0  0  0  0  0  0  0  0
   -3.2870    1.9552    1.4388 C   0  0  0  0  0  0  0  0  0  0  0  0
   -2.1391    1.8519   -0.8129 C   0  0  0  0  0  0  0  0  0  0  0  0
   -2.1508    2.6372   -1.7704 O   0  0  0  0  0  0  0  0  0  0  0  0
   -0.9432    1.2469   -0.4451 N   0  0  0  0  0  0  0  0  0  0  0  0
    0.2656    1.6155   -1.1957 C   0  0  0  0  0  0  0  0  0  0  0  0
    1.5716    1.3360   -0.4333 C   0  0  0  0  0  0  0  0  0  0  0  0
    1.6632   -0.0692    0.0069 N   0  0  0  0  0  0  0  0  0  0  0  0
    2.8644   -0.5721    0.4231 C   0  0  0  0  0  0  0  0  0  0  0  0
    4.1113    0.0051    0.5490 C   0  0  0  0  0  0  0  0  0  0  0  0
    4.9426   -1.0103    1.0479 C   0  0  0  0  0  0  0  0  0  0  0  0
    6.4409   -0.8023    1.3885 C   0  0  0  0  0  0  0  0  0  0  0  0
    7.4629   -0.9134    0.2849 C   0  0  0  0  0  0  0  0  0  0  0  0
    7.3940   -1.9689    1.3495 C   0  0  0  0  0  0  0  0  0  0  0  0
    4.2981   -2.1624    1.2213 N   0  0  0  0  0  0  0  0  0  0  0  0
    3.0515   -1.8790    0.8061 N   0  0  0  0  0  0  0  0  0  0  0  0
    0.3900   -0.7769    0.2224 C   0  0  0  0  0  0  0  0  0  0  0  0
   -0.7544    0.1984    0.5649 C   0  0  0  0  0  0  0  0  0  0  0  0
   -3.9599    0.1102   -0.2734 C   0  0  0  0  0  0  0  0  0  0  0  0
   -3.8562   -0.4716   -1.5543 C   0  0  0  0  0  0  0  0  0  0  0  0
   -4.3036   -1.7732   -1.7942 C   0  0  0  0  0  0  0  0  0  0  0  0
   -4.8734   -2.5019   -0.7612 C   0  0  0  0  0  0  0  0  0  0  0  0
   -5.3056   -3.7502   -0.9898 F   0  0  0  0  0  0  0  0  0  0  0  0
   -5.0184   -1.9482    0.5037 C   0  0  0  0  0  0  0  0  0  0  0  0
   -4.5699   -0.6467    0.7474 C   0  0  0  0  0  0  0  0  0  0  0  0
   -5.5354    2.3103   -0.1040 H   0  0  0  0  0  0  0  0  0  0  0  0
   -4.7390    2.3192   -1.6811 H   0  0  0  0  0  0  0  0  0  0  0  0
   -4.3122    3.5364   -0.4749 H   0  0  0  0  0  0  0  0  0  0  0  0
   -2.7734    2.9204    1.5231 H   0  0  0  0  0  0  0  0  0  0  0  0
   -2.7080    1.2269    2.0127 H   0  0  0  0  0  0  0  0  0  0  0  0
   -4.2534    2.0576    1.9483 H   0  0  0  0  0  0  0  0  0  0  0  0
    0.2250    2.6763   -1.4675 H   0  0  0  0  0  0  0  0  0  0  0  0
    0.2457    1.0347   -2.1263 H   0  0  0  0  0  0  0  0  0  0  0  0
    2.4109    1.5881   -1.0922 H   0  0  0  0  0  0  0  0  0  0  0  0
    1.6253    1.9868    0.4480 H   0  0  0  0  0  0  0  0  0  0  0  0
    4.3843    1.0246    0.3311 H   0  0  0  0  0  0  0  0  0  0  0  0
    6.6164   -0.0565    2.1589 H   0  0  0  0  0  0  0  0  0  0  0  0
    7.1247   -1.1802   -0.7107 H   0  0  0  0  0  0  0  0  0  0  0  0
    8.2979   -0.2254    0.3009 H   0  0  0  0  0  0  0  0  0  0  0  0
    7.0038   -2.9432    1.0763 H   0  0  0  0  0  0  0  0  0  0  0  0
    8.1816   -1.9958    2.0919 H   0  0  0  0  0  0  0  0  0  0  0  0
    2.3695   -2.6244    0.8072 H   0  0  0  0  0  0  0  0  0  0  0  0
    0.4656   -1.4998    1.0434 H   0  0  0  0  0  0  0  0  0  0  0  0
    0.1417   -1.3332   -0.6899 H   0  0  0  0  0  0  0  0  0  0  0  0
   -0.5187    0.7121    1.5043 H   0  0  0  0  0  0  0  0  0  0  0  0
   -1.6674   -0.3736    0.7155 H   0  0  0  0  0  0  0  0  0  0  0  0
   -3.4319    0.0894   -2.3854 H   0  0  0  0  0  0  0  0  0  0  0  0
   -4.2117   -2.2190   -2.7805 H   0  0  0  0  0  0  0  0  0  0  0  0
   -5.4909   -2.5290    1.2900 H   0  0  0  0  0  0  0  0  0  0  0  0
   -4.7044   -0.2432    1.7460 H   0  0  0  0  0  0  0  0  0  0  0  0
  1  2  1  0
  2  3  1  0
  2  4  1  0
  4  5  2  0
  4  6  1  0
  6  7  1  0
  7  8  1  0
  8  9  1  0
  9 10  1  0
 10 11  2  0
 11 12  1  0
 12 13  1  0
 13 14  1  0
 14 15  1  0
 12 16  2  0
 16 17  1  0
  9 18  1  0
 18 19  1  0
  2 20  1  0
 20 21  1  0
 21 22  2  0
 22 23  1  0
 23 24  1  0
 23 25  2  0
 25 26  1  0
 19  6  1  0
 26 20  2  0
 17 10  1  0
 15 13  1  0
  1 27  1  0
  1 28  1  0
  1 29  1  0
  3 30  1  0
  3 31  1  0
  3 32  1  0
  7 33  1  0
  7 34  1  0
  8 35  1  0
  8 36  1  0
 11 37  1  0
 13 38  1  0
 14 39  1  0
 14 40  1  0
 15 41  1  0
 15 42  1  0
 17 43  1  0
 18 44  1  0
 18 45  1  0
 19 46  1  0
 19 47  1  0
 21 48  1  0
 22 49  1  0
 25 50  1  0
 26 51  1  0
M  END
$$$$
OCNT-2309302
     RDKit          3D

 41 45  0  0  0  0  0  0  0  0999 V2000
    1.0729    2.0056   -1.9211 O   0  0  0  0  0  0  0  0  0  0  0  0
    1.1904    0.9984   -1.2298 C   0  0  0  0  0  0  0  0  0  0  0  0
    0.1219    0.2276   -0.8444 N   0  0  0  0  0  0  0  0  0  0  0  0
   -1.2413    0.5809   -1.1642 C   0  0  0  0  0  0  0  0  0  0  0  0
   -1.7983    1.4302   -0.0673 C   0  0  0  0  0  0  0  0  0  0  0  0
   -2.2652    0.8703    1.2620 C   0  0  0  0  0  0  0  0  0  0  0  0
   -2.5849   -0.5964    1.5145 C   0  0  0  0  0  0  0  0  0  0  0  0
   -3.8093   -0.8508    0.6686 C   0  0  0  0  0  0  0  0  0  0  0  0
   -4.5087   -2.0416    0.5458 C   0  0  0  0  0  0  0  0  0  0  0  0
   -5.6104   -2.0754   -0.3096 C   0  0  0  0  0  0  0  0  0  0  0  0
   -5.9936   -0.9314   -1.0250 C   0  0  0  0  0  0  0  0  0  0  0  0
   -5.2807    0.2636   -0.8932 C   0  0  0  0  0  0  0  0  0  0  0  0
   -4.1857    0.3047   -0.0422 C   0  0  0  0  0  0  0  0  0  0  0  0
   -3.2719    1.4485    0.2663 C   0  0  0  0  0  0  0  0  0  0  0  0
    2.4800    0.5493   -0.7518 C   0  0  0  0  0  0  0  0  0  0  0  0
    2.8738   -0.5418    0.0051 C   0  0  0  0  0  0  0  0  0  0  0  0
    4.2856   -0.4831    0.1783 C   0  0  0  0  0  0  0  0  0  0  0  0
    5.2325   -1.2874    0.8365 C   0  0  0  0  0  0  0  0  0  0  0  0
    4.8480   -2.3927    1.4914 F   0  0  0  0  0  0  0  0  0  0  0  0
    6.5841   -0.9418    0.8151 C   0  0  0  0  0  0  0  0  0  0  0  0
    7.0033    0.2032    0.1403 C   0  0  0  0  0  0  0  0  0  0  0  0
    6.0853    1.0250   -0.5254 C   0  0  0  0  0  0  0  0  0  0  0  0
    4.7343    0.6556   -0.4882 C   0  0  0  0  0  0  0  0  0  0  0  0
    3.6292    1.2559   -1.0408 N   0  0  0  0  0  0  0  0  0  0  0  0
    0.2676   -0.5242   -0.1899 H   0  0  0  0  0  0  0  0  0  0  0  0
   -1.2723    1.1307   -2.1109 H   0  0  0  0  0  0  0  0  0  0  0  0
   -1.7853   -0.3568   -1.3042 H   0  0  0  0  0  0  0  0  0  0  0  0
   -1.2932    2.3928   -0.0443 H   0  0  0  0  0  0  0  0  0  0  0  0
   -2.0440    1.4256    2.1636 H   0  0  0  0  0  0  0  0  0  0  0  0
   -2.8181   -0.7572    2.5717 H   0  0  0  0  0  0  0  0  0  0  0  0
   -1.7527   -1.2383    1.2118 H   0  0  0  0  0  0  0  0  0  0  0  0
   -4.2100   -2.9274    1.0968 H   0  0  0  0  0  0  0  0  0  0  0  0
   -6.1774   -2.9962   -0.4248 H   0  0  0  0  0  0  0  0  0  0  0  0
   -6.8542   -0.9749   -1.6883 H   0  0  0  0  0  0  0  0  0  0  0  0
   -5.5805    1.1465   -1.4489 H   0  0  0  0  0  0  0  0  0  0  0  0
   -3.7162    2.4087    0.5088 H   0  0  0  0  0  0  0  0  0  0  0  0
    2.2332   -1.3172    0.4030 H   0  0  0  0  0  0  0  0  0  0  0  0
    7.3018   -1.5740    1.3286 H   0  0  0  0  0  0  0  0  0  0  0  0
    8.0597    0.4636    0.1293 H   0  0  0  0  0  0  0  0  0  0  0  0
    6.4157    1.9161   -1.0508 H   0  0  0  0  0  0  0  0  0  0  0  0
    3.6346    2.1057   -1.5908 H   0  0  0  0  0  0  0  0  0  0  0  0
  1  2  2  0
  2  3  1  0
  3  4  1  0
  4  5  1  0
  5  6  1  0
  6  7  1  0
  7  8  1  0
  8  9  2  0
  9 10  1  0
 10 11  2  0
 11 12  1  0
 12 13  2  0
 13 14  1  0
  2 15  1  0
 15 16  2  0
 16 17  1  0
 17 18  2  0
 18 19  1  0
 18 20  1  0
 20 21  2  0
 21 22  1  0
 22 23  2  0
 23 24  1  0
 14  5  1  0
 24 15  1  0
 14  6  1  0
 23 17  1  0
 13  8  1  0
  3 25  1  0
  4 26  1  0
  4 27  1  0
  5 28  1  0
  6 29  1  0
  7 30  1  0
  7 31  1  0
  9 32  1  0
 10 33  1  0
 11 34  1  0
 12 35  1  0
 14 36  1  0
 16 37  1  0
 20 38  1  0
 21 39  1  0
 22 40  1  0
 24 41  1  0
M  END
$$$$
OCNT-2309338
     RDKit          3D

 50 51  0  0  0  0  0  0  0  0999 V2000
   -4.0608   -1.4779    1.2794 C   0  0  0  0  0  0  0  0  0  0  0  0
   -2.9190   -1.5881    0.2542 C   0  0  0  0  0  0  0  0  0  0  0  0
   -3.5389   -1.8271   -1.1326 C   0  0  0  0  0  0  0  0  0  0  0  0
   -1.8733   -0.3997    0.3152 C   0  0  0  0  0  0  0  0  0  0  0  0
   -1.1437   -0.4248    1.6868 C   0  0  0  0  0  0  0  0  0  0  0  0
   -0.8406   -0.5262   -0.7502 N   0  0  0  0  0  0  0  0  0  0  0  0
    0.0271   -1.7067   -0.7440 C   0  0  0  0  0  0  0  0  0  0  0  0
    1.3760   -1.3784   -0.1999 C   0  0  0  0  0  0  0  0  0  0  0  0
    2.3456   -0.5289   -0.6901 C   0  0  0  0  0  0  0  0  0  0  0  0
    3.3683   -0.6219    0.2137 N   0  0  0  0  0  0  0  0  0  0  0  0
    4.6584    0.0809    0.1913 C   0  0  0  0  0  0  0  0  0  0  0  0
    4.4170    1.6025    0.2115 C   0  0  0  0  0  0  0  0  0  0  0  0
    5.5384   -0.2791    1.4089 C   0  0  0  0  0  0  0  0  0  0  0  0
    5.4299   -0.3014   -1.0860 C   0  0  0  0  0  0  0  0  0  0  0  0
    3.0525   -1.4867    1.1963 N   0  0  0  0  0  0  0  0  0  0  0  0
    1.8383   -1.9577    0.9517 N   0  0  0  0  0  0  0  0  0  0  0  0
   -2.5902    0.9661    0.0903 C   0  0  0  0  0  0  0  0  0  0  0  0
   -2.8580    1.4226   -1.2194 C   0  0  0  0  0  0  0  0  0  0  0  0
   -3.5023    2.6403   -1.4590 C   0  0  0  0  0  0  0  0  0  0  0  0
   -3.8977    3.4305   -0.3876 C   0  0  0  0  0  0  0  0  0  0  0  0
   -4.7694    5.0772   -0.7018 Br  0  0  0  0  0  0  0  0  0  0  0  0
   -3.6561    3.0114    0.9157 C   0  0  0  0  0  0  0  0  0  0  0  0
   -3.0104    1.7910    1.1508 C   0  0  0  0  0  0  0  0  0  0  0  0
   -3.6852   -1.3998    2.3029 H   0  0  0  0  0  0  0  0  0  0  0  0
   -4.7080   -0.6185    1.0795 H   0  0  0  0  0  0  0  0  0  0  0  0
   -4.6918   -2.3735    1.2415 H   0  0  0  0  0  0  0  0  0  0  0  0
   -2.3879   -2.5137    0.5119 H   0  0  0  0  0  0  0  0  0  0  0  0
   -4.1254   -2.7533   -1.1286 H   0  0  0  0  0  0  0  0  0  0  0  0
   -4.2182   -1.0196   -1.4215 H   0  0  0  0  0  0  0  0  0  0  0  0
   -2.7765   -1.9363   -1.9094 H   0  0  0  0  0  0  0  0  0  0  0  0
   -1.8190   -0.2808    2.5349 H   0  0  0  0  0  0  0  0  0  0  0  0
   -0.3811    0.3615    1.7489 H   0  0  0  0  0  0  0  0  0  0  0  0
   -0.6554   -1.3875    1.8696 H   0  0  0  0  0  0  0  0  0  0  0  0
   -0.2636    0.3145   -0.7358 H   0  0  0  0  0  0  0  0  0  0  0  0
   -0.4003   -2.5639   -0.2171 H   0  0  0  0  0  0  0  0  0  0  0  0
    0.1554   -2.0271   -1.7850 H   0  0  0  0  0  0  0  0  0  0  0  0
    2.3855    0.1030   -1.5646 H   0  0  0  0  0  0  0  0  0  0  0  0
    3.8424    1.8993    1.0971 H   0  0  0  0  0  0  0  0  0  0  0  0
    5.3641    2.1539    0.2254 H   0  0  0  0  0  0  0  0  0  0  0  0
    3.8573    1.9371   -0.6695 H   0  0  0  0  0  0  0  0  0  0  0  0
    6.4948    0.2557    1.3772 H   0  0  0  0  0  0  0  0  0  0  0  0
    5.7632   -1.3520    1.4383 H   0  0  0  0  0  0  0  0  0  0  0  0
    5.0453   -0.0147    2.3520 H   0  0  0  0  0  0  0  0  0  0  0  0
    6.4093    0.1893   -1.1191 H   0  0  0  0  0  0  0  0  0  0  0  0
    4.8866   -0.0086   -1.9917 H   0  0  0  0  0  0  0  0  0  0  0  0
    5.5946   -1.3842   -1.1384 H   0  0  0  0  0  0  0  0  0  0  0  0
   -2.5635    0.8205   -2.0780 H   0  0  0  0  0  0  0  0  0  0  0  0
   -3.6890    2.9542   -2.4822 H   0  0  0  0  0  0  0  0  0  0  0  0
   -3.9671    3.6214    1.7599 H   0  0  0  0  0  0  0  0  0  0  0  0
   -2.8578    1.5053    2.1874 H   0  0  0  0  0  0  0  0  0  0  0  0
  1  2  1  0
  2  3  1  0
  2  4  1  0
  4  5  1  0
  4  6  1  0
  6  7  1  0
  7  8  1  0
  8  9  2  0
  9 10  1  0
 10 11  1  0
 11 12  1  0
 11 13  1  0
 11 14  1  0
 10 15  1  0
 15 16  2  0
  4 17  1  0
 17 18  1  0
 18 19  2  0
 19 20  1  0
 20 21  1  0
 20 22  2  0
 22 23  1  0
 16  8  1  0
 23 17  2  0
  1 24  1  0
  1 25  1  0
  1 26  1  0
  2 27  1  0
  3 28  1  0
  3 29  1  0
  3 30  1  0
  5 31  1  0
  5 32  1  0
  5 33  1  0
  6 34  1  0
  7 35  1  0
  7 36  1  0
  9 37  1  0
 12 38  1  0
 12 39  1  0
 12 40  1  0
 13 41  1  0
 13 42  1  0
 13 43  1  0
 14 44  1  0
 14 45  1  0
 14 46  1  0
 18 47  1  0
 19 48  1  0
 22 49  1  0
 23 50  1  0
M  END
$$$$
OCNT-2309342
     RDKit          3D

 53 56  0  0  0  0  0  0  0  0999 V2000
   -5.5102   -3.8984    1.7686 C   0  0  0  0  0  0  0  0  0  0  0  0
   -4.1488   -3.2583    1.9462 C   0  0  0  0  0  0  0  0  0  0  0  0
   -3.7916   -2.6059    0.7313 O   0  0  0  0  0  0  0  0  0  0  0  0
   -2.5066   -1.9510    0.7233 C   0  0  0  0  0  0  0  0  0  0  0  0
   -2.1821   -1.1459   -0.5571 C   0  0  0  0  0  0  0  0  0  0  0  0
   -1.4783   -0.0825    0.3480 C   0  0  0  0  0  0  0  0  0  0  0  0
    0.0335   -0.2685    0.6029 C   0  0  0  0  0  0  0  0  0  0  0  0
    0.8471   -0.0746   -0.5973 N   0  0  0  0  0  0  0  0  0  0  0  0
    2.1854    0.0364   -0.4308 C   0  0  0  0  0  0  0  0  0  0  0  0
    2.8378    0.1609    0.7023 N   0  0  0  0  0  0  0  0  0  0  0  0
    4.1661    0.2069    0.3693 C   0  0  0  0  0  0  0  0  0  0  0  0
    5.2941    0.3194    1.1990 C   0  0  0  0  0  0  0  0  0  0  0  0
    6.5687    0.3355    0.6157 C   0  0  0  0  0  0  0  0  0  0  0  0
    6.7161    0.2402   -0.7683 C   0  0  0  0  0  0  0  0  0  0  0  0
    5.5982    0.1308   -1.5953 C   0  0  0  0  0  0  0  0  0  0  0  0
    5.7543    0.0355   -2.9215 F   0  0  0  0  0  0  0  0  0  0  0  0
    4.3341    0.1191   -1.0074 C   0  0  0  0  0  0  0  0  0  0  0  0
    3.0541    0.0378   -1.5003 N   0  0  0  0  0  0  0  0  0  0  0  0
    2.7002   -0.0081   -2.8975 C   0  0  0  0  0  0  0  0  0  0  0  0
   -1.9816    1.2610   -0.0345 N   0  0  0  0  0  0  0  0  0  0  0  0
   -1.5509    1.7181   -1.3702 C   0  0  0  0  0  0  0  0  0  0  0  0
   -0.5876    2.9163   -1.3341 C   0  0  0  0  0  0  0  0  0  0  0  0
   -1.1484    4.0555   -0.6675 O   0  0  0  0  0  0  0  0  0  0  0  0
   -2.0041    3.6989    0.4275 C   0  0  0  0  0  0  0  0  0  0  0  0
   -1.7255    2.2943    0.9886 C   0  0  0  0  0  0  0  0  0  0  0  0
   -2.3971   -0.6152    1.4966 C   0  0  0  0  0  0  0  0  0  0  0  0
   -5.8222   -4.4121    2.6822 H   0  0  0  0  0  0  0  0  0  0  0  0
   -6.2610   -3.1431    1.5137 H   0  0  0  0  0  0  0  0  0  0  0  0
   -5.4925   -4.6202    0.9455 H   0  0  0  0  0  0  0  0  0  0  0  0
   -4.1804   -2.5259    2.7594 H   0  0  0  0  0  0  0  0  0  0  0  0
   -3.4004   -4.0220    2.1822 H   0  0  0  0  0  0  0  0  0  0  0  0
   -1.7090   -2.6623    0.9756 H   0  0  0  0  0  0  0  0  0  0  0  0
   -1.5405   -1.6685   -1.2730 H   0  0  0  0  0  0  0  0  0  0  0  0
   -3.0806   -0.8080   -1.0901 H   0  0  0  0  0  0  0  0  0  0  0  0
    0.2215   -1.2841    0.9745 H   0  0  0  0  0  0  0  0  0  0  0  0
    0.3565    0.4079    1.4029 H   0  0  0  0  0  0  0  0  0  0  0  0
    0.5083   -0.5935   -1.3999 H   0  0  0  0  0  0  0  0  0  0  0  0
    5.1689    0.3905    2.2743 H   0  0  0  0  0  0  0  0  0  0  0  0
    7.4476    0.4219    1.2502 H   0  0  0  0  0  0  0  0  0  0  0  0
    7.7061    0.2510   -1.2156 H   0  0  0  0  0  0  0  0  0  0  0  0
    3.4356    0.5501   -3.4814 H   0  0  0  0  0  0  0  0  0  0  0  0
    1.7212    0.4541   -3.0465 H   0  0  0  0  0  0  0  0  0  0  0  0
    2.6792   -1.0550   -3.2095 H   0  0  0  0  0  0  0  0  0  0  0  0
   -1.1316    0.9142   -1.9828 H   0  0  0  0  0  0  0  0  0  0  0  0
   -2.4625    2.0395   -1.8904 H   0  0  0  0  0  0  0  0  0  0  0  0
    0.3546    2.6606   -0.8382 H   0  0  0  0  0  0  0  0  0  0  0  0
   -0.3408    3.2264   -2.3547 H   0  0  0  0  0  0  0  0  0  0  0  0
   -3.0423    3.7794    0.0845 H   0  0  0  0  0  0  0  0  0  0  0  0
   -1.8629    4.4509    1.2105 H   0  0  0  0  0  0  0  0  0  0  0  0
   -0.6857    2.2701    1.3310 H   0  0  0  0  0  0  0  0  0  0  0  0
   -2.3691    2.1253    1.8584 H   0  0  0  0  0  0  0  0  0  0  0  0
   -1.9280   -0.6906    2.4828 H   0  0  0  0  0  0  0  0  0  0  0  0
   -3.3671   -0.1151    1.6170 H   0  0  0  0  0  0  0  0  0  0  0  0
  1  2  1  0
  2  3  1  0
  3  4  1  0
  4  5  1  0
  5  6  1  0
  6  7  1  0
  7  8  1  0
  8  9  1  0
  9 10  2  0
 10 11  1  0
 11 12  2  0
 12 13  1  0
 13 14  2  0
 14 15  1  0
 15 16  1  0
 15 17  2  0
 17 18  1  0
 18 19  1  0
  6 20  1  0
 20 21  1  0
 21 22  1  0
 22 23  1  0
 23 24  1  0
 24 25  1  0
  6 26  1  0
 26  4  1  0
 18  9  1  0
 25 20  1  0
 17 11  1  0
  1 27  1  0
  1 28  1  0
  1 29  1  0
  2 30  1  0
  2 31  1  0
  4 32  1  0
  5 33  1  0
  5 34  1  0
  7 35  1  0
  7 36  1  0
  8 37  1  0
 12 38  1  0
 13 39  1  0
 14 40  1  0
 19 41  1  0
 19 42  1  0
 19 43  1  0
 21 44  1  0
 21 45  1  0
 22 46  1  0
 22 47  1  0
 24 48  1  0
 24 49  1  0
 25 50  1  0
 25 51  1  0
 26 52  1  0
 26 53  1  0
M  END
$$$$
OCNT-2309351
     RDKit          3D

 56 59  0  0  0  0  0  0  0  0999 V2000
    5.1359    3.2437    0.5506 C   0  0  0  0  0  0  0  0  0  0  0  0
    4.4282    1.9941    0.1553 C   0  0  0  0  0  0  0  0  0  0  0  0
    3.5395    1.7997   -0.8796 C   0  0  0  0  0  0  0  0  0  0  0  0
    3.0685    0.4534   -0.9406 C   0  0  0  0  0  0  0  0  0  0  0  0
    3.6023   -0.3369    0.0543 C   0  0  0  0  0  0  0  0  0  0  0  0
    3.2941   -1.8672    0.2690 C   0  0  0  0  0  0  0  0  0  0  0  0
    4.0156   -2.6641    1.1367 C   0  0  0  0  0  0  0  0  0  0  0  0
    3.5750   -3.9532    1.0042 N   0  0  0  0  0  0  0  0  0  0  0  0
    2.5544   -3.9895    0.0961 C   0  0  0  0  0  0  0  0  0  0  0  0
    2.3107   -2.6999   -0.3518 C   0  0  0  0  0  0  0  0  0  0  0  0
    1.2165   -2.3727   -1.2524 C   0  0  0  0  0  0  0  0  0  0  0  0
    1.0107   -2.9798   -2.2971 O   0  0  0  0  0  0  0  0  0  0  0  0
    0.4011   -1.3767   -0.7801 N   0  0  0  0  0  0  0  0  0  0  0  0
   -0.7375   -0.8621   -1.5169 C   0  0  0  0  0  0  0  0  0  0  0  0
   -1.8275   -0.2577   -0.5533 C   0  0  0  0  0  0  0  0  0  0  0  0
   -1.1441    0.6500    0.4252 N   0  0  0  0  0  0  0  0  0  0  0  0
   -0.4683    1.8378   -0.1454 C   0  0  0  0  0  0  0  0  0  0  0  0
   -1.0869    3.1789    0.2859 C   0  0  0  0  0  0  0  0  0  0  0  0
   -1.1138    3.3633    1.7052 O   0  0  0  0  0  0  0  0  0  0  0  0
   -1.2076    2.1302    2.4281 C   0  0  0  0  0  0  0  0  0  0  0  0
   -1.9121    1.0191    1.6303 C   0  0  0  0  0  0  0  0  0  0  0  0
   -2.4933   -1.4880    0.1591 C   0  0  0  0  0  0  0  0  0  0  0  0
   -3.9937   -1.3255    0.3865 C   0  0  0  0  0  0  0  0  0  0  0  0
   -4.7475   -1.1396   -0.9305 C   0  0  0  0  0  0  0  0  0  0  0  0
   -3.9308   -0.4274   -2.0089 C   0  0  0  0  0  0  0  0  0  0  0  0
   -2.8851    0.5067   -1.4051 C   0  0  0  0  0  0  0  0  0  0  0  0
    4.7027    0.5472    1.0231 S   0  0  0  0  0  0  0  0  0  0  0  0
    4.9636    3.4737    1.6074 H   0  0  0  0  0  0  0  0  0  0  0  0
    4.7812    4.0971   -0.0376 H   0  0  0  0  0  0  0  0  0  0  0  0
    6.2138    3.1457    0.3854 H   0  0  0  0  0  0  0  0  0  0  0  0
    3.2442    2.5804   -1.5702 H   0  0  0  0  0  0  0  0  0  0  0  0
    2.3904    0.1004   -1.7052 H   0  0  0  0  0  0  0  0  0  0  0  0
    4.8374   -2.4367    1.8024 H   0  0  0  0  0  0  0  0  0  0  0  0
    3.9493   -4.7537    1.4979 H   0  0  0  0  0  0  0  0  0  0  0  0
    2.0560   -4.9203   -0.1427 H   0  0  0  0  0  0  0  0  0  0  0  0
    0.6308   -0.9058    0.0890 H   0  0  0  0  0  0  0  0  0  0  0  0
   -1.1540   -1.6593   -2.1437 H   0  0  0  0  0  0  0  0  0  0  0  0
   -0.3435   -0.1078   -2.2066 H   0  0  0  0  0  0  0  0  0  0  0  0
    0.5643    1.8115    0.2219 H   0  0  0  0  0  0  0  0  0  0  0  0
   -0.4078    1.8142   -1.2366 H   0  0  0  0  0  0  0  0  0  0  0  0
   -0.5127    4.0081   -0.1398 H   0  0  0  0  0  0  0  0  0  0  0  0
   -2.1124    3.2718   -0.0891 H   0  0  0  0  0  0  0  0  0  0  0  0
   -1.7576    2.3347    3.3524 H   0  0  0  0  0  0  0  0  0  0  0  0
   -0.1948    1.8225    2.7149 H   0  0  0  0  0  0  0  0  0  0  0  0
   -2.0245    0.1523    2.2885 H   0  0  0  0  0  0  0  0  0  0  0  0
   -2.9089    1.3819    1.3589 H   0  0  0  0  0  0  0  0  0  0  0  0
   -1.9898   -1.7147    1.1065 H   0  0  0  0  0  0  0  0  0  0  0  0
   -2.3581   -2.3963   -0.4445 H   0  0  0  0  0  0  0  0  0  0  0  0
   -4.3895   -2.2040    0.9094 H   0  0  0  0  0  0  0  0  0  0  0  0
   -4.1900   -0.4705    1.0411 H   0  0  0  0  0  0  0  0  0  0  0  0
   -5.0654   -2.1152   -1.3179 H   0  0  0  0  0  0  0  0  0  0  0  0
   -5.6683   -0.5781   -0.7308 H   0  0  0  0  0  0  0  0  0  0  0  0
   -4.6063    0.1373   -2.6620 H   0  0  0  0  0  0  0  0  0  0  0  0
   -3.4387   -1.1710   -2.6469 H   0  0  0  0  0  0  0  0  0  0  0  0
   -2.3992    1.0694   -2.2114 H   0  0  0  0  0  0  0  0  0  0  0  0
   -3.4163    1.2488   -0.7972 H   0  0  0  0  0  0  0  0  0  0  0  0
  1  2  1  0
  2  3  2  0
  3  4  1  0
  4  5  2  0
  5  6  1  0
  6  7  2  0
  7  8  1  0
  8  9  1  0
  9 10  2  0
 10 11  1  0
 11 12  2  0
 11 13  1  0
 13 14  1  0
 14 15  1  0
 15 16  1  0
 16 17  1  0
 17 18  1  0
 18 19  1  0
 19 20  1  0
 20 21  1  0
 15 22  1  0
 22 23  1  0
 23 24  1  0
 24 25  1  0
 25 26  1  0
  5 27  1  0
 27  2  1  0
 10  6  1  0
 26 15  1  0
 21 16  1  0
  1 28  1  0
  1 29  1  0
  1 30  1  0
  3 31  1  0
  4 32  1  0
  7 33  1  0
  8 34  1  0
  9 35  1  0
 13 36  1  0
 14 37  1  0
 14 38  1  0
 17 39  1  0
 17 40  1  0
 18 41  1  0
 18 42  1  0
 20 43  1  0
 20 44  1  0
 21 45  1  0
 21 46  1  0
 22 47  1  0
 22 48  1  0
 23 49  1  0
 23 50  1  0
 24 51  1  0
 24 52  1  0
 25 53  1  0
 25 54  1  0
 26 55  1  0
 26 56  1  0
M  END
$$$$
OCNT-2309368
     RDKit          3D

 55 58  0  0  0  0  0  0  0  0999 V2000
   -5.2136   -2.2524   -1.1195 C   0  0  0  0  0  0  0  0  0  0  0  0
   -4.4187   -1.2615   -0.3103 C   0  0  0  0  0  0  0  0  0  0  0  0
   -3.0845   -1.5668    0.0225 C   0  0  0  0  0  0  0  0  0  0  0  0
   -2.2990   -0.6853    0.7739 C   0  0  0  0  0  0  0  0  0  0  0  0
   -0.9735   -1.0743    1.0511 N   0  0  0  0  0  0  0  0  0  0  0  0
   -0.0673   -0.4447    1.8772 C   0  0  0  0  0  0  0  0  0  0  0  0
   -0.2861    0.5117    2.6088 O   0  0  0  0  0  0  0  0  0  0  0  0
    1.1664   -1.0607    1.7993 N   0  0  0  0  0  0  0  0  0  0  0  0
    2.3032   -0.5220    2.5153 C   0  0  0  0  0  0  0  0  0  0  0  0
    3.1011    0.4130    1.6396 C   0  0  0  0  0  0  0  0  0  0  0  0
    2.7311    1.7585    1.5302 C   0  0  0  0  0  0  0  0  0  0  0  0
    3.4452    2.6185    0.7020 C   0  0  0  0  0  0  0  0  0  0  0  0
    4.5305    2.1392   -0.0326 C   0  0  0  0  0  0  0  0  0  0  0  0
    4.9362    0.7927    0.0532 C   0  0  0  0  0  0  0  0  0  0  0  0
    6.1051    0.2944   -0.7948 C   0  0  0  0  0  0  0  0  0  0  0  0
    7.3483    1.1850   -0.7221 C   0  0  0  0  0  0  0  0  0  0  0  0
    5.6659    0.1295   -2.1691 N   0  0  0  0  0  0  0  0  0  0  0  0
    5.6964   -1.1802   -2.5735 C   0  0  0  0  0  0  0  0  0  0  0  0
    5.2134   -1.6054   -3.6066 O   0  0  0  0  0  0  0  0  0  0  0  0
    6.3103   -1.9151   -1.6226 N   0  0  0  0  0  0  0  0  0  0  0  0
    6.5486   -1.1621   -0.5152 C   0  0  0  0  0  0  0  0  0  0  0  0
    7.0126   -1.6028    0.5277 O   0  0  0  0  0  0  0  0  0  0  0  0
    4.1945   -0.0597    0.8933 C   0  0  0  0  0  0  0  0  0  0  0  0
   -2.8518    0.5259    1.1799 C   0  0  0  0  0  0  0  0  0  0  0  0
   -4.1725    0.8466    0.8491 C   0  0  0  0  0  0  0  0  0  0  0  0
   -4.9739   -0.0330    0.1040 C   0  0  0  0  0  0  0  0  0  0  0  0
   -6.3522    0.3579   -0.2177 C   0  0  0  0  0  0  0  0  0  0  0  0
   -7.3746    0.2177    0.7254 C   0  0  0  0  0  0  0  0  0  0  0  0
   -8.6601    0.5967    0.3756 C   0  0  0  0  0  0  0  0  0  0  0  0
   -8.9923    1.1019   -0.8321 N   0  0  0  0  0  0  0  0  0  0  0  0
   -7.9909    1.2408   -1.7256 C   0  0  0  0  0  0  0  0  0  0  0  0
   -6.6759    0.8867   -1.4716 C   0  0  0  0  0  0  0  0  0  0  0  0
   -6.1753   -2.4622   -0.6429 H   0  0  0  0  0  0  0  0  0  0  0  0
   -5.3791   -1.8654   -2.1287 H   0  0  0  0  0  0  0  0  0  0  0  0
   -4.6858   -3.2091   -1.2087 H   0  0  0  0  0  0  0  0  0  0  0  0
   -2.6640   -2.5134   -0.3098 H   0  0  0  0  0  0  0  0  0  0  0  0
   -0.6898   -1.9816    0.7141 H   0  0  0  0  0  0  0  0  0  0  0  0
    1.3787   -1.4970    0.9160 H   0  0  0  0  0  0  0  0  0  0  0  0
    1.9818   -0.0119    3.4309 H   0  0  0  0  0  0  0  0  0  0  0  0
    2.9227   -1.3705    2.8230 H   0  0  0  0  0  0  0  0  0  0  0  0
    1.8745    2.1372    2.0879 H   0  0  0  0  0  0  0  0  0  0  0  0
    3.1467    3.6627    0.6227 H   0  0  0  0  0  0  0  0  0  0  0  0
    5.0524    2.8399   -0.6824 H   0  0  0  0  0  0  0  0  0  0  0  0
    7.1742    2.1718   -1.1635 H   0  0  0  0  0  0  0  0  0  0  0  0
    7.6691    1.3297    0.3152 H   0  0  0  0  0  0  0  0  0  0  0  0
    8.1921    0.7413   -1.2663 H   0  0  0  0  0  0  0  0  0  0  0  0
    5.0887    0.7938   -2.6667 H   0  0  0  0  0  0  0  0  0  0  0  0
    6.4357   -2.9104   -1.6750 H   0  0  0  0  0  0  0  0  0  0  0  0
    4.4581   -1.1132    0.9857 H   0  0  0  0  0  0  0  0  0  0  0  0
   -2.2777    1.2534    1.7457 H   0  0  0  0  0  0  0  0  0  0  0  0
   -4.5738    1.8046    1.1759 H   0  0  0  0  0  0  0  0  0  0  0  0
   -7.1738   -0.1800    1.7145 H   0  0  0  0  0  0  0  0  0  0  0  0
   -9.4815    0.5012    1.0802 H   0  0  0  0  0  0  0  0  0  0  0  0
   -8.2792    1.6608   -2.6850 H   0  0  0  0  0  0  0  0  0  0  0  0
   -5.9169    1.0275   -2.2341 H   0  0  0  0  0  0  0  0  0  0  0  0
  1  2  1  0
  2  3  1  0
  3  4  2  0
  4  5  1  0
  5  6  1  0
  6  7  2  0
  6  8  1  0
  8  9  1  0
  9 10  1  0
 10 11  1  0
 11 12  2  0
 12 13  1  0
 13 14  2  0
 14 15  1  0
 15 16  1  0
 15 17  1  0
 17 18  1  0
 18 19  2  0
 18 20  1  0
 20 21  1  0
 21 22  2  0
 14 23  1  0
  4 24  1  0
 24 25  2  0
 25 26  1  0
 26 27  1  0
 27 28  2  0
 28 29  1  0
 29 30  2  0
 30 31  1  0
 31 32  2  0
 26  2  2  0
 32 27  1  0
 23 10  2  0
 21 15  1  0
  1 33  1  0
  1 34  1  0
  1 35  1  0
  3 36  1  0
  5 37  1  0
  8 38  1  0
  9 39  1  0
  9 40  1  0
 11 41  1  0
 12 42  1  0
 13 43  1  0
 16 44  1  0
 16 45  1  0
 16 46  1  0
 17 47  1  0
 20 48  1  0
 23 49  1  0
 24 50  1  0
 25 51  1  0
 28 52  1  0
 29 53  1  0
 31 54  1  0
 32 55  1  0
M  END
$$$$
OCNT-2309371
     RDKit          3D

 44 46  0  0  0  0  0  0  0  0999 V2000
   -2.8367    1.7330   -1.7361 C   0  0  0  0  0  0  0  0  0  0  0  0
   -3.2811    0.2851   -1.5844 C   0  0  0  0  0  0  0  0  0  0  0  0
   -3.4938   -0.0984   -0.1417 C   0  0  0  0  0  0  0  0  0  0  0  0
   -4.7959   -0.0862    0.3628 C   0  0  0  0  0  0  0  0  0  0  0  0
   -5.1316   -0.3945    1.6320 N   0  0  0  0  0  0  0  0  0  0  0  0
   -4.1191   -0.7291    2.4530 C   0  0  0  0  0  0  0  0  0  0  0  0
   -2.7903   -0.7688    2.0641 C   0  0  0  0  0  0  0  0  0  0  0  0
   -2.4600   -0.4462    0.7476 C   0  0  0  0  0  0  0  0  0  0  0  0
   -1.1257   -0.4618    0.2818 N   0  0  0  0  0  0  0  0  0  0  0  0
    0.0243   -0.7168    1.0020 C   0  0  0  0  0  0  0  0  0  0  0  0
    0.1209   -0.9622    2.1962 O   0  0  0  0  0  0  0  0  0  0  0  0
    1.2794   -0.6337    0.1485 C   0  0  0  0  0  0  0  0  0  0  0  0
    1.8459    0.7845    0.0207 C   0  0  0  0  0  0  0  0  0  0  0  0
    1.6740    1.5605   -1.1400 C   0  0  0  0  0  0  0  0  0  0  0  0
    2.1799    2.8604   -1.2294 C   0  0  0  0  0  0  0  0  0  0  0  0
    2.8642    3.4175   -0.1532 C   0  0  0  0  0  0  0  0  0  0  0  0
    3.0395    2.6773    1.0116 C   0  0  0  0  0  0  0  0  0  0  0  0
    2.5326    1.3785    1.0953 C   0  0  0  0  0  0  0  0  0  0  0  0
    1.3849   -1.5812   -1.0509 C   0  0  0  0  0  0  0  0  0  0  0  0
    2.2613   -1.8374    0.1442 C   0  0  0  0  0  0  0  0  0  0  0  0
    1.9515   -3.0529    0.9881 C   0  0  0  0  0  0  0  0  0  0  0  0
    3.7458   -1.6032   -0.0195 C   0  0  0  0  0  0  0  0  0  0  0  0
   -1.8860    1.9213   -1.2272 H   0  0  0  0  0  0  0  0  0  0  0  0
   -3.5809    2.4196   -1.3183 H   0  0  0  0  0  0  0  0  0  0  0  0
   -2.7062    1.9784   -2.7948 H   0  0  0  0  0  0  0  0  0  0  0  0
   -4.2112    0.1383   -2.1483 H   0  0  0  0  0  0  0  0  0  0  0  0
   -2.5552   -0.3897   -2.0525 H   0  0  0  0  0  0  0  0  0  0  0  0
   -5.6408    0.1849   -0.2660 H   0  0  0  0  0  0  0  0  0  0  0  0
   -4.4070   -0.9739    3.4715 H   0  0  0  0  0  0  0  0  0  0  0  0
   -2.0514   -1.0513    2.8034 H   0  0  0  0  0  0  0  0  0  0  0  0
   -0.9730   -0.2114   -0.6838 H   0  0  0  0  0  0  0  0  0  0  0  0
    1.1400    1.1513   -1.9938 H   0  0  0  0  0  0  0  0  0  0  0  0
    2.0378    3.4380   -2.1391 H   0  0  0  0  0  0  0  0  0  0  0  0
    3.2568    4.4287   -0.2198 H   0  0  0  0  0  0  0  0  0  0  0  0
    3.5659    3.1086    1.8590 H   0  0  0  0  0  0  0  0  0  0  0  0
    2.6676    0.8156    2.0184 H   0  0  0  0  0  0  0  0  0  0  0  0
    1.8609   -1.2365   -1.9627 H   0  0  0  0  0  0  0  0  0  0  0  0
    0.5695   -2.2723   -1.2419 H   0  0  0  0  0  0  0  0  0  0  0  0
    0.8872   -3.3097    0.9808 H   0  0  0  0  0  0  0  0  0  0  0  0
    2.2570   -2.8807    2.0253 H   0  0  0  0  0  0  0  0  0  0  0  0
    2.4959   -3.9259    0.6122 H   0  0  0  0  0  0  0  0  0  0  0  0
    4.1960   -1.3386    0.9428 H   0  0  0  0  0  0  0  0  0  0  0  0
    3.9721   -0.8066   -0.7355 H   0  0  0  0  0  0  0  0  0  0  0  0
    4.2350   -2.5124   -0.3853 H   0  0  0  0  0  0  0  0  0  0  0  0
  1  2  1  0
  2  3  1  0
  3  4  2  0
  4  5  1  0
  5  6  2  0
  6  7  1  0
  7  8  2  0
  8  9  1  0
  9 10  1  0
 10 11  2  0
 10 12  1  0
 12 13  1  0
 13 14  2  0
 14 15  1  0
 15 16  2  0
 16 17  1  0
 17 18  2  0
 12 19  1  0
 19 20  1  0
 20 21  1  0
 20 22  1  0
  8  3  1  0
 20 12  1  0
 18 13  1  0
  1 23  1  0
  1 24  1  0
  1 25  1  0
  2 26  1  0
  2 27  1  0
  4 28  1  0
  6 29  1  0
  7 30  1  0
  9 31  1  0
 14 32  1  0
 15 33  1  0
 16 34  1  0
 17 35  1  0
 18 36  1  0
 19 37  1  0
 19 38  1  0
 21 39  1  0
 21 40  1  0
 21 41  1  0
 22 42  1  0
 22 43  1  0
 22 44  1  0
M  END
$$$$
OCNT-2309372
     RDKit          3D

 53 55  0  0  0  0  0  0  0  0999 V2000
    3.7900    2.4772    2.0492 C   0  0  0  0  0  0  0  0  0  0  0  0
    2.9122    1.5214    1.4569 O   0  0  0  0  0  0  0  0  0  0  0  0
    3.5577    0.5211    0.7885 C   0  0  0  0  0  0  0  0  0  0  0  0
    4.5525   -0.2310    1.4243 C   0  0  0  0  0  0  0  0  0  0  0  0
    5.1582   -1.3079    0.7709 C   0  0  0  0  0  0  0  0  0  0  0  0
    4.7753   -1.6565   -0.5277 C   0  0  0  0  0  0  0  0  0  0  0  0
    5.4014   -2.8325   -1.2166 C   0  0  0  0  0  0  0  0  0  0  0  0
    3.7568   -0.9267   -1.1516 C   0  0  0  0  0  0  0  0  0  0  0  0
    3.1455    0.1563   -0.4952 C   0  0  0  0  0  0  0  0  0  0  0  0
    1.9076    1.0691   -1.3973 S   0  0  0  0  0  0  0  0  0  0  0  0
    2.2442    0.9148   -2.7995 O   0  0  0  0  0  0  0  0  0  0  0  0
    1.7498    2.3953   -0.8395 O   0  0  0  0  0  0  0  0  0  0  0  0
    0.4618    0.1902   -1.1008 N   0  0  0  0  0  0  0  0  0  0  0  0
    0.1789   -0.0075    0.3707 C   0  0  0  0  0  0  0  0  0  0  0  0
   -1.2898   -0.3804    0.6412 C   0  0  0  0  0  0  0  0  0  0  0  0
   -2.2146    0.6975    0.2588 N   0  0  0  0  0  0  0  0  0  0  0  0
   -3.6425    0.3349    0.2245 C   0  0  0  0  0  0  0  0  0  0  0  0
   -4.0588   -0.5920   -0.9354 C   0  0  0  0  0  0  0  0  0  0  0  0
   -5.3673   -1.3217   -0.6401 C   0  0  0  0  0  0  0  0  0  0  0  0
   -6.1955   -0.5335    0.2040 O   0  0  0  0  0  0  0  0  0  0  0  0
   -5.6642   -0.4052    1.5241 C   0  0  0  0  0  0  0  0  0  0  0  0
   -4.1435   -0.2461    1.5524 C   0  0  0  0  0  0  0  0  0  0  0  0
   -1.7476    1.4249   -0.9407 C   0  0  0  0  0  0  0  0  0  0  0  0
   -0.7954    0.6058   -1.8517 C   0  0  1  0  0  0  0  0  0  0  0  0
   -0.5719    1.3405   -3.1699 C   0  0  0  0  0  0  0  0  0  0  0  0
    4.1150    2.1327    3.0368 H   0  0  0  0  0  0  0  0  0  0  0  0
    4.6564    2.6952    1.4126 H   0  0  0  0  0  0  0  0  0  0  0  0
    3.2281    3.4063    2.1839 H   0  0  0  0  0  0  0  0  0  0  0  0
    4.8520   -0.0055    2.4438 H   0  0  0  0  0  0  0  0  0  0  0  0
    5.9262   -1.8789    1.2884 H   0  0  0  0  0  0  0  0  0  0  0  0
    5.4024   -2.6943   -2.3039 H   0  0  0  0  0  0  0  0  0  0  0  0
    4.8446   -3.7448   -0.9788 H   0  0  0  0  0  0  0  0  0  0  0  0
    6.4428   -2.9597   -0.9019 H   0  0  0  0  0  0  0  0  0  0  0  0
    3.4353   -1.2025   -2.1564 H   0  0  0  0  0  0  0  0  0  0  0  0
    0.8121   -0.8259    0.7336 H   0  0  0  0  0  0  0  0  0  0  0  0
    0.4163    0.9025    0.9323 H   0  0  0  0  0  0  0  0  0  0  0  0
   -1.5155   -1.3114    0.1082 H   0  0  0  0  0  0  0  0  0  0  0  0
   -1.3953   -0.5841    1.7129 H   0  0  0  0  0  0  0  0  0  0  0  0
   -4.1901    1.2801    0.0928 H   0  0  0  0  0  0  0  0  0  0  0  0
   -4.1855    0.0173   -1.8398 H   0  0  0  0  0  0  0  0  0  0  0  0
   -3.2979   -1.3411   -1.1782 H   0  0  0  0  0  0  0  0  0  0  0  0
   -5.9050   -1.5139   -1.5736 H   0  0  0  0  0  0  0  0  0  0  0  0
   -5.1836   -2.2934   -0.1672 H   0  0  0  0  0  0  0  0  0  0  0  0
   -6.1401    0.4734    1.9716 H   0  0  0  0  0  0  0  0  0  0  0  0
   -5.9692   -1.2729    2.1171 H   0  0  0  0  0  0  0  0  0  0  0  0
   -3.6949   -1.2337    1.7224 H   0  0  0  0  0  0  0  0  0  0  0  0
   -3.8551    0.3777    2.4072 H   0  0  0  0  0  0  0  0  0  0  0  0
   -2.5966    1.8040   -1.5222 H   0  0  0  0  0  0  0  0  0  0  0  0
   -1.2143    2.3182   -0.5902 H   0  0  0  0  0  0  0  0  0  0  0  0
   -1.2942   -0.3345   -2.1237 H   0  0  0  0  0  0  0  0  0  0  0  0
    0.0079    0.7320   -3.8698 H   0  0  0  0  0  0  0  0  0  0  0  0
   -0.0711    2.3032   -3.0319 H   0  0  0  0  0  0  0  0  0  0  0  0
   -1.5314    1.5457   -3.6554 H   0  0  0  0  0  0  0  0  0  0  0  0
  1  2  1  0
  2  3  1  0
  3  4  1  0
  4  5  2  0
  5  6  1  0
  6  7  1  0
  6  8  2  0
  8  9  1  0
  9 10  1  0
 10 11  2  0
 10 12  2  0
 10 13  1  0
 13 14  1  0
 14 15  1  0
 15 16  1  0
 16 17  1  0
 17 18  1  0
 18 19  1  0
 19 20  1  0
 20 21  1  0
 21 22  1  0
 16 23  1  0
 23 24  1  0
 24 25  1  0
  9  3  2  0
 24 13  1  0
 22 17  1  0
  1 26  1  0
  1 27  1  0
  1 28  1  0
  4 29  1  0
  5 30  1  0
  7 31  1  0
  7 32  1  0
  7 33  1  0
  8 34  1  0
 14 35  1  0
 14 36  1  0
 15 37  1  0
 15 38  1  0
 17 39  1  0
 18 40  1  0
 18 41  1  0
 19 42  1  0
 19 43  1  0
 21 44  1  0
 21 45  1  0
 22 46  1  0
 22 47  1  0
 23 48  1  0
 23 49  1  0
 24 50  1  6
 25 51  1  0
 25 52  1  0
 25 53  1  0
M  END
$$$$
OCNT-2309377
     RDKit          3D

 49 51  0  0  0  0  0  0  0  0999 V2000
    6.6270    1.7934   -1.4764 N   0  0  0  0  0  0  0  0  0  0  0  0
    5.8316    0.9531   -0.7023 C   0  0  0  0  0  0  0  0  0  0  0  0
    5.3610   -0.2449   -1.2159 C   0  0  0  0  0  0  0  0  0  0  0  0
    4.5772   -1.0642   -0.4056 C   0  0  0  0  0  0  0  0  0  0  0  0
    4.2818   -0.6693    0.8997 C   0  0  0  0  0  0  0  0  0  0  0  0
    3.4419   -1.5238    1.8109 C   0  0  0  0  0  0  0  0  0  0  0  0
    1.9203   -1.2538    1.8109 C   0  0  0  0  0  0  0  0  0  0  0  0
    1.2561   -1.5433    0.4533 C   0  0  0  0  0  0  0  0  0  0  0  0
   -0.1708   -1.0053    0.4087 C   0  0  0  0  0  0  0  0  0  0  0  0
   -0.2280    0.4351    0.6622 N   0  0  0  0  0  0  0  0  0  0  0  0
   -1.3305    1.2323    0.3665 C   0  0  0  0  0  0  0  0  0  0  0  0
   -1.3386    2.4458    0.5736 O   0  0  0  0  0  0  0  0  0  0  0  0
   -2.5299    0.5283   -0.2477 C   0  0  0  0  0  0  0  0  0  0  0  0
   -3.7374    1.4589   -0.3583 C   0  0  0  0  0  0  0  0  0  0  0  0
   -4.9101    0.7735   -1.0118 C   0  0  0  0  0  0  0  0  0  0  0  0
   -5.2134    1.0002   -2.3607 C   0  0  0  0  0  0  0  0  0  0  0  0
   -6.2954    0.3499   -2.9605 C   0  0  0  0  0  0  0  0  0  0  0  0
   -7.0816   -0.5345   -2.2214 C   0  0  0  0  0  0  0  0  0  0  0  0
   -6.7850   -0.7708   -0.8809 C   0  0  0  0  0  0  0  0  0  0  0  0
   -5.7062   -0.1200   -0.2893 C   0  0  0  0  0  0  0  0  0  0  0  0
   -5.4283   -0.3694    0.9986 F   0  0  0  0  0  0  0  0  0  0  0  0
    0.9392    1.0494    1.2962 C   0  0  0  0  0  0  0  0  0  0  0  0
    1.5339    0.1338    2.3625 C   0  0  0  0  0  0  0  0  0  0  0  0
    4.8220    0.5395    1.3241 C   0  0  0  0  0  0  0  0  0  0  0  0
    5.5811    1.3527    0.5533 N   0  0  0  0  0  0  0  0  0  0  0  0
    6.1694    2.0353   -2.3470 H   0  0  0  0  0  0  0  0  0  0  0  0
    6.8149    2.6165   -0.9087 H   0  0  0  0  0  0  0  0  0  0  0  0
    5.6085   -0.5459   -2.2277 H   0  0  0  0  0  0  0  0  0  0  0  0
    4.2099   -2.0082   -0.7984 H   0  0  0  0  0  0  0  0  0  0  0  0
    3.6120   -2.5782    1.5532 H   0  0  0  0  0  0  0  0  0  0  0  0
    3.8228   -1.4204    2.8360 H   0  0  0  0  0  0  0  0  0  0  0  0
    1.5028   -1.9827    2.5221 H   0  0  0  0  0  0  0  0  0  0  0  0
    1.2546   -2.6231    0.2643 H   0  0  0  0  0  0  0  0  0  0  0  0
    1.8178   -1.0793   -0.3643 H   0  0  0  0  0  0  0  0  0  0  0  0
   -0.7873   -1.4965    1.1704 H   0  0  0  0  0  0  0  0  0  0  0  0
   -0.6118   -1.2217   -0.5689 H   0  0  0  0  0  0  0  0  0  0  0  0
   -2.2466    0.1766   -1.2467 H   0  0  0  0  0  0  0  0  0  0  0  0
   -2.7881   -0.3404    0.3687 H   0  0  0  0  0  0  0  0  0  0  0  0
   -4.0360    1.8181    0.6350 H   0  0  0  0  0  0  0  0  0  0  0  0
   -3.4737    2.3584   -0.9299 H   0  0  0  0  0  0  0  0  0  0  0  0
   -4.6108    1.6864   -2.9523 H   0  0  0  0  0  0  0  0  0  0  0  0
   -6.5254    0.5350   -4.0073 H   0  0  0  0  0  0  0  0  0  0  0  0
   -7.9234   -1.0375   -2.6902 H   0  0  0  0  0  0  0  0  0  0  0  0
   -7.3854   -1.4568   -0.2923 H   0  0  0  0  0  0  0  0  0  0  0  0
    0.6710    2.0095    1.7491 H   0  0  0  0  0  0  0  0  0  0  0  0
    1.6712    1.2559    0.5069 H   0  0  0  0  0  0  0  0  0  0  0  0
    2.3763    0.6241    2.8594 H   0  0  0  0  0  0  0  0  0  0  0  0
    0.7752   -0.0112    3.1442 H   0  0  0  0  0  0  0  0  0  0  0  0
    4.6641    0.9061    2.3348 H   0  0  0  0  0  0  0  0  0  0  0  0
  1  2  1  0
  2  3  2  0
  3  4  1  0
  4  5  2  0
  5  6  1  0
  6  7  1  0
  7  8  1  0
  8  9  1  0
  9 10  1  0
 10 11  1  0
 11 12  2  0
 11 13  1  0
 13 14  1  0
 14 15  1  0
 15 16  2  0
 16 17  1  0
 17 18  2  0
 18 19  1  0
 19 20  2  0
 20 21  1  0
 10 22  1  0
 22 23  1  0
  5 24  1  0
 24 25  2  0
 25  2  1  0
 23  7  1  0
 20 15  1  0
  1 26  1  0
  1 27  1  0
  3 28  1  0
  4 29  1  0
  6 30  1  0
  6 31  1  0
  7 32  1  0
  8 33  1  0
  8 34  1  0
  9 35  1  0
  9 36  1  0
 13 37  1  0
 13 38  1  0
 14 39  1  0
 14 40  1  0
 16 41  1  0
 17 42  1  0
 18 43  1  0
 19 44  1  0
 22 45  1  0
 22 46  1  0
 23 47  1  0
 23 48  1  0
 24 49  1  0
M  END
$$$$
OCNT-2309379
     RDKit          3D

 50 53  0  0  0  0  0  0  0  0999 V2000
    5.9487    1.9164    0.4052 C   0  0  0  0  0  0  0  0  0  0  0  0
    5.1579    0.7126    0.4811 N   0  0  0  0  0  0  0  0  0  0  0  0
    4.7931   -0.0993   -0.5527 C   0  0  0  0  0  0  0  0  0  0  0  0
    4.0331   -1.1128   -0.0051 C   0  0  0  0  0  0  0  0  0  0  0  0
    3.3888   -2.2617   -0.6959 C   0  0  0  0  0  0  0  0  0  0  0  0
    1.9931   -1.9960   -1.2491 C   0  0  0  0  0  0  0  0  0  0  0  0
    0.9171   -1.3543   -0.3497 C   0  0  0  0  0  0  0  0  0  0  0  0
    0.5488   -0.5513   -1.5009 N   0  0  0  0  0  0  0  0  0  0  0  0
   -0.2878    0.5067   -1.7065 C   0  0  0  0  0  0  0  0  0  0  0  0
   -0.2134    1.1704   -2.7465 O   0  0  0  0  0  0  0  0  0  0  0  0
   -1.2932    0.9136   -0.6298 C   0  0  2  0  0  0  0  0  0  0  0  0
   -0.5805    1.6593    0.5054 C   0  0  0  0  0  0  0  0  0  0  0  0
   -1.3989    1.6249    1.7836 C   0  0  0  0  0  0  0  0  0  0  0  0
   -1.7539    0.1998    2.1908 C   0  0  0  0  0  0  0  0  0  0  0  0
   -1.6736   -0.7445    1.1237 O   0  0  0  0  0  0  0  0  0  0  0  0
   -2.1566   -0.2697   -0.1460 C   0  0  1  0  0  0  0  0  0  0  0  0
   -3.6748   -0.1142   -0.0787 C   0  0  0  0  0  0  0  0  0  0  0  0
   -4.4439   -1.2744    0.1385 C   0  0  0  0  0  0  0  0  0  0  0  0
   -5.8366   -1.2183    0.2162 C   0  0  0  0  0  0  0  0  0  0  0  0
   -6.4897    0.0020    0.0814 C   0  0  0  0  0  0  0  0  0  0  0  0
   -5.7491    1.1624   -0.1264 C   0  0  0  0  0  0  0  0  0  0  0  0
   -4.3535    1.1064   -0.2038 C   0  0  0  0  0  0  0  0  0  0  0  0
    1.7700   -0.8425   -2.2420 C   0  0  0  0  0  0  0  0  0  0  0  0
    4.0303   -0.8216    1.3797 C   0  0  0  0  0  0  0  0  0  0  0  0
    4.7023    0.2926    1.6739 N   0  0  0  0  0  0  0  0  0  0  0  0
    5.3489    2.7473    0.7847 H   0  0  0  0  0  0  0  0  0  0  0  0
    6.2289    2.1029   -0.6344 H   0  0  0  0  0  0  0  0  0  0  0  0
    6.8454    1.7788    1.0146 H   0  0  0  0  0  0  0  0  0  0  0  0
    5.0916    0.1083   -1.5710 H   0  0  0  0  0  0  0  0  0  0  0  0
    3.3358   -3.1058    0.0041 H   0  0  0  0  0  0  0  0  0  0  0  0
    4.0399   -2.5943   -1.5146 H   0  0  0  0  0  0  0  0  0  0  0  0
    1.6222   -2.9421   -1.6774 H   0  0  0  0  0  0  0  0  0  0  0  0
    1.2728   -0.7661    0.4966 H   0  0  0  0  0  0  0  0  0  0  0  0
    0.1526   -2.0629   -0.0253 H   0  0  0  0  0  0  0  0  0  0  0  0
   -1.9367    1.6307   -1.1528 H   0  0  0  0  0  0  0  0  0  0  0  0
   -0.4076    2.7002    0.2049 H   0  0  0  0  0  0  0  0  0  0  0  0
    0.4124    1.2439    0.7034 H   0  0  0  0  0  0  0  0  0  0  0  0
   -2.3213    2.1985    1.6349 H   0  0  0  0  0  0  0  0  0  0  0  0
   -0.8693    2.1277    2.6008 H   0  0  0  0  0  0  0  0  0  0  0  0
   -1.0544   -0.1445    2.9604 H   0  0  0  0  0  0  0  0  0  0  0  0
   -2.7527    0.1614    2.6397 H   0  0  0  0  0  0  0  0  0  0  0  0
   -2.0063   -1.0994   -0.8497 H   0  0  0  0  0  0  0  0  0  0  0  0
   -3.9479   -2.2368    0.2565 H   0  0  0  0  0  0  0  0  0  0  0  0
   -6.4079   -2.1273    0.3843 H   0  0  0  0  0  0  0  0  0  0  0  0
   -7.5736    0.0501    0.1411 H   0  0  0  0  0  0  0  0  0  0  0  0
   -6.2582    2.1178   -0.2278 H   0  0  0  0  0  0  0  0  0  0  0  0
   -3.8237    2.0420   -0.3554 H   0  0  0  0  0  0  0  0  0  0  0  0
    1.5932   -1.1510   -3.2758 H   0  0  0  0  0  0  0  0  0  0  0  0
    2.4787   -0.0115   -2.2155 H   0  0  0  0  0  0  0  0  0  0  0  0
    3.5595   -1.3743    2.1830 H   0  0  0  0  0  0  0  0  0  0  0  0
  1  2  1  0
  2  3  1  0
  3  4  2  0
  4  5  1  0
  5  6  1  0
  6  7  1  0
  7  8  1  0
  8  9  1  0
  9 10  2  0
  9 11  1  0
 11 12  1  0
 12 13  1  0
 13 14  1  0
 14 15  1  0
 15 16  1  0
 16 17  1  0
 17 18  2  0
 18 19  1  0
 19 20  2  0
 20 21  1  0
 21 22  2  0
  8 23  1  0
  4 24  1  0
 24 25  2  0
 25  2  1  0
 23  6  1  0
 16 11  1  0
 22 17  1  0
  1 26  1  0
  1 27  1  0
  1 28  1  0
  3 29  1  0
  5 30  1  0
  5 31  1  0
  6 32  1  0
  7 33  1  0
  7 34  1  0
 11 35  1  6
 12 36  1  0
 12 37  1  0
 13 38  1  0
 13 39  1  0
 14 40  1  0
 14 41  1  0
 16 42  1  6
 18 43  1  0
 19 44  1  0
 20 45  1  0
 21 46  1  0
 22 47  1  0
 23 48  1  0
 23 49  1  0
 24 50  1  0
M  END
$$$$
OCNT-2309390
     RDKit          3D

 35 37  0  0  0  0  0  0  0  0999 V2000
   -0.8975   -2.3204   -2.3003 F   0  0  0  0  0  0  0  0  0  0  0  0
   -0.1516   -1.5491   -1.4663 C   0  0  0  0  0  0  0  0  0  0  0  0
   -0.2437   -0.2833   -1.9235 F   0  0  0  0  0  0  0  0  0  0  0  0
    1.1247   -1.9592   -1.6076 F   0  0  0  0  0  0  0  0  0  0  0  0
   -0.6602   -1.7055   -0.0513 C   0  0  0  0  0  0  0  0  0  0  0  0
   -0.1253   -0.7382    0.8853 N   0  0  0  0  0  0  0  0  0  0  0  0
   -0.7765    0.3998    1.3318 C   0  0  0  0  0  0  0  0  0  0  0  0
   -2.0796    0.8659    0.8859 C   0  0  0  0  0  0  0  0  0  0  0  0
   -3.2139    0.6342    1.6717 C   0  0  0  0  0  0  0  0  0  0  0  0
   -4.4682    1.0710    1.2415 C   0  0  0  0  0  0  0  0  0  0  0  0
   -4.5935    1.7450    0.0274 C   0  0  0  0  0  0  0  0  0  0  0  0
   -3.4653    1.9875   -0.7551 C   0  0  0  0  0  0  0  0  0  0  0  0
   -2.2104    1.5519   -0.3259 C   0  0  0  0  0  0  0  0  0  0  0  0
    0.0790    0.9376    2.2740 C   0  0  0  0  0  0  0  0  0  0  0  0
    1.2047    0.1747    2.4199 N   0  0  0  0  0  0  0  0  0  0  0  0
    1.0610   -0.8132    1.5702 C   0  0  0  0  0  0  0  0  0  0  0  0
    2.2229   -2.0777    1.3584 S   0  0  0  0  0  0  0  0  0  0  0  0
    3.7079   -1.0614    1.0556 C   0  0  0  0  0  0  0  0  0  0  0  0
    3.7427   -0.5588   -0.3578 C   0  0  0  0  0  0  0  0  0  0  0  0
    3.0387    0.4605   -0.8125 N   0  0  0  0  0  0  0  0  0  0  0  0
    3.2930    0.6464   -2.1558 C   0  0  0  0  0  0  0  0  0  0  0  0
    4.1963   -0.2283   -2.7164 C   0  0  0  0  0  0  0  0  0  0  0  0
    4.7523   -1.3272   -1.5262 S   0  0  0  0  0  0  0  0  0  0  0  0
   -0.4407   -2.7090    0.3286 H   0  0  0  0  0  0  0  0  0  0  0  0
   -1.7516   -1.6170   -0.0437 H   0  0  0  0  0  0  0  0  0  0  0  0
   -3.1274    0.1132    2.6227 H   0  0  0  0  0  0  0  0  0  0  0  0
   -5.3466    0.8891    1.8555 H   0  0  0  0  0  0  0  0  0  0  0  0
   -5.5697    2.0880   -0.3060 H   0  0  0  0  0  0  0  0  0  0  0  0
   -3.5605    2.5211   -1.6974 H   0  0  0  0  0  0  0  0  0  0  0  0
   -1.3357    1.7590   -0.9394 H   0  0  0  0  0  0  0  0  0  0  0  0
   -0.0674    1.8381    2.8571 H   0  0  0  0  0  0  0  0  0  0  0  0
    3.7502   -0.2191    1.7542 H   0  0  0  0  0  0  0  0  0  0  0  0
    4.5827   -1.6858    1.2679 H   0  0  0  0  0  0  0  0  0  0  0  0
    2.7849    1.4436   -2.6845 H   0  0  0  0  0  0  0  0  0  0  0  0
    4.5443   -0.2736   -3.7379 H   0  0  0  0  0  0  0  0  0  0  0  0
  1  2  1  0
  2  3  1  0
  2  4  1  0
  2  5  1  0
  5  6  1  0
  6  7  1  0
  7  8  1  0
  8  9  2  0
  9 10  1  0
 10 11  2  0
 11 12  1  0
 12 13  2  0
  7 14  2  0
 14 15  1  0
 15 16  2  0
 16 17  1  0
 17 18  1  0
 18 19  1  0
 19 20  2  0
 20 21  1  0
 21 22  2  0
 22 23  1  0
 16  6  1  0
 23 19  1  0
 13  8  1  0
  5 24  1  0
  5 25  1  0
  9 26  1  0
 10 27  1  0
 11 28  1  0
 12 29  1  0
 13 30  1  0
 14 31  1  0
 18 32  1  0
 18 33  1  0
 21 34  1  0
 22 35  1  0
M  END
$$$$
OCNT-2309398
     RDKit          3D

 50 53  0  0  0  0  0  0  0  0999 V2000
   -3.1698   -4.7714   -2.2290 C   0  0  0  0  0  0  0  0  0  0  0  0
   -3.7685   -3.5000   -2.0146 O   0  0  0  0  0  0  0  0  0  0  0  0
   -3.0597   -2.6018   -1.2658 C   0  0  0  0  0  0  0  0  0  0  0  0
   -3.6818   -1.3671   -1.0891 C   0  0  0  0  0  0  0  0  0  0  0  0
   -3.0647   -0.3584   -0.3442 C   0  0  0  0  0  0  0  0  0  0  0  0
   -1.7990   -0.5557    0.2391 C   0  0  0  0  0  0  0  0  0  0  0  0
   -1.1708    0.5723    1.0540 C   0  0  0  0  0  0  0  0  0  0  0  0
    0.0240    0.2197    1.9736 C   0  0  0  0  0  0  0  0  0  0  0  0
    1.2824   -0.0113    1.2779 N   0  0  0  0  0  0  0  0  0  0  0  0
    2.2217   -0.8943    1.7333 C   0  0  0  0  0  0  0  0  0  0  0  0
    2.0865   -1.6533    2.6800 O   0  0  0  0  0  0  0  0  0  0  0  0
    3.4881   -0.8734    0.9660 C   0  0  2  0  0  0  0  0  0  0  0  0
    3.5018   -1.0313   -0.5400 C   0  0  0  0  0  0  0  0  0  0  0  0
    3.9704   -2.1663    0.3376 C   0  0  1  0  0  0  0  0  0  0  0  0
    5.3949   -2.5633    0.4189 C   0  0  0  0  0  0  0  0  0  0  0  0
    5.6449   -3.2387    1.5605 F   0  0  0  0  0  0  0  0  0  0  0  0
    5.7164   -3.3663   -0.6212 F   0  0  0  0  0  0  0  0  0  0  0  0
    6.2163   -1.4886    0.3807 F   0  0  0  0  0  0  0  0  0  0  0  0
   -0.8401    1.6942    0.0853 C   0  0  0  0  0  0  0  0  0  0  0  0
   -0.3288    1.6011   -1.2003 C   0  0  0  0  0  0  0  0  0  0  0  0
   -0.1879    2.8626   -1.7089 N   0  0  0  0  0  0  0  0  0  0  0  0
   -0.5577    3.7963   -0.7715 C   0  0  0  0  0  0  0  0  0  0  0  0
   -0.5587    5.1944   -0.8464 C   0  0  0  0  0  0  0  0  0  0  0  0
   -0.9959    5.9037    0.2753 C   0  0  0  0  0  0  0  0  0  0  0  0
   -1.4162    5.2388    1.4239 C   0  0  0  0  0  0  0  0  0  0  0  0
   -1.4112    3.8400    1.4807 C   0  0  0  0  0  0  0  0  0  0  0  0
   -0.9742    3.0984    0.3626 C   0  0  0  0  0  0  0  0  0  0  0  0
   -1.1899   -1.8065    0.0604 C   0  0  0  0  0  0  0  0  0  0  0  0
   -1.8121   -2.8184   -0.6852 C   0  0  0  0  0  0  0  0  0  0  0  0
   -3.8515   -5.3607   -2.8492 H   0  0  0  0  0  0  0  0  0  0  0  0
   -2.2238   -4.6768   -2.7725 H   0  0  0  0  0  0  0  0  0  0  0  0
   -3.0317   -5.3071   -1.2843 H   0  0  0  0  0  0  0  0  0  0  0  0
   -4.6567   -1.1861   -1.5349 H   0  0  0  0  0  0  0  0  0  0  0  0
   -3.5777    0.5950   -0.2289 H   0  0  0  0  0  0  0  0  0  0  0  0
   -1.9678    0.9186    1.7285 H   0  0  0  0  0  0  0  0  0  0  0  0
   -0.2172   -0.6459    2.6014 H   0  0  0  0  0  0  0  0  0  0  0  0
    0.2180    1.0609    2.6511 H   0  0  0  0  0  0  0  0  0  0  0  0
    1.5596    0.6689    0.5805 H   0  0  0  0  0  0  0  0  0  0  0  0
    4.2467   -0.2338    1.4074 H   0  0  0  0  0  0  0  0  0  0  0  0
    4.2422   -0.4691   -1.0986 H   0  0  0  0  0  0  0  0  0  0  0  0
    2.5595   -1.1603   -1.0619 H   0  0  0  0  0  0  0  0  0  0  0  0
    3.3347   -3.0398    0.4172 H   0  0  0  0  0  0  0  0  0  0  0  0
   -0.0802    0.7366   -1.8031 H   0  0  0  0  0  0  0  0  0  0  0  0
    0.1407    3.0840   -2.6388 H   0  0  0  0  0  0  0  0  0  0  0  0
   -0.2337    5.7159   -1.7409 H   0  0  0  0  0  0  0  0  0  0  0  0
   -1.0093    6.9911    0.2489 H   0  0  0  0  0  0  0  0  0  0  0  0
   -1.7539    5.8097    2.2855 H   0  0  0  0  0  0  0  0  0  0  0  0
   -1.7449    3.3380    2.3839 H   0  0  0  0  0  0  0  0  0  0  0  0
   -0.2218   -2.0290    0.5007 H   0  0  0  0  0  0  0  0  0  0  0  0
   -1.2918   -3.7653   -0.7856 H   0  0  0  0  0  0  0  0  0  0  0  0
  1  2  1  0
  2  3  1  0
  3  4  1  0
  4  5  2  0
  5  6  1  0
  6  7  1  0
  7  8  1  0
  8  9  1  0
  9 10  1  0
 10 11  2  0
 10 12  1  0
 12 13  1  0
 13 14  1  0
 14 15  1  0
 15 16  1  0
 15 17  1  0
 15 18  1  0
  7 19  1  0
 19 20  2  0
 20 21  1  0
 21 22  1  0
 22 23  2  0
 23 24  1  0
 24 25  2  0
 25 26  1  0
 26 27  2  0
  6 28  2  0
 28 29  1  0
 29  3  2  0
 14 12  1  0
 27 19  1  0
 27 22  1  0
  1 30  1  0
  1 31  1  0
  1 32  1  0
  4 33  1  0
  5 34  1  0
  7 35  1  0
  8 36  1  0
  8 37  1  0
  9 38  1  0
 12 39  1  6
 13 40  1  0
 13 41  1  0
 14 42  1  1
 20 43  1  0
 21 44  1  0
 23 45  1  0
 24 46  1  0
 25 47  1  0
 26 48  1  0
 28 49  1  0
 29 50  1  0
M  END
$$$$
OCNT-2309402
     RDKit          3D

 44 47  0  0  0  0  0  0  0  0999 V2000
    2.0424   -1.8809   -2.3864 O   0  0  0  0  0  0  0  0  0  0  0  0
    2.0225   -1.3289   -1.2885 C   0  0  0  0  0  0  0  0  0  0  0  0
    3.2031   -1.3308   -0.4442 C   0  0  0  0  0  0  0  0  0  0  0  0
    4.0303   -2.4247   -0.2811 C   0  0  0  0  0  0  0  0  0  0  0  0
    5.0561   -2.1416    0.5607 O   0  0  0  0  0  0  0  0  0  0  0  0
    4.9294   -0.8337    0.9123 C   0  0  0  0  0  0  0  0  0  0  0  0
    5.7976   -0.1377    1.7504 C   0  0  0  0  0  0  0  0  0  0  0  0
    5.5092    1.2132    1.9679 C   0  0  0  0  0  0  0  0  0  0  0  0
    4.4066    1.8218    1.3639 C   0  0  0  0  0  0  0  0  0  0  0  0
    3.5494    1.0936    0.5265 C   0  0  0  0  0  0  0  0  0  0  0  0
    3.8102   -0.2739    0.3053 C   0  0  0  0  0  0  0  0  0  0  0  0
    0.8891   -0.6602   -0.8116 N   0  0  0  0  0  0  0  0  0  0  0  0
   -0.2466   -0.5717   -1.7294 C   0  0  0  0  0  0  0  0  0  0  0  0
   -1.2533    0.5130   -1.3042 C   0  0  0  0  0  0  0  0  0  0  0  0
   -1.7028    0.3427    0.1024 N   0  0  0  0  0  0  0  0  0  0  0  0
   -2.6209    1.4281    0.4959 C   0  0  0  0  0  0  0  0  0  0  0  0
   -3.9386    1.3738   -0.2218 C   0  0  0  0  0  0  0  0  0  0  0  0
   -4.5193    2.3961   -0.8244 N   0  0  0  0  0  0  0  0  0  0  0  0
   -5.6893    1.9142   -1.3480 C   0  0  0  0  0  0  0  0  0  0  0  0
   -5.8341    0.5803   -1.0609 C   0  0  0  0  0  0  0  0  0  0  0  0
   -4.7173    0.2438   -0.3389 N   0  0  0  0  0  0  0  0  0  0  0  0
   -4.4123   -1.0777    0.1723 C   0  0  0  0  0  0  0  0  0  0  0  0
   -3.8091   -1.8398   -0.7773 F   0  0  0  0  0  0  0  0  0  0  0  0
   -5.5531   -1.7360    0.5224 F   0  0  0  0  0  0  0  0  0  0  0  0
   -0.5139    0.3464    0.9852 C   0  0  0  0  0  0  0  0  0  0  0  0
    0.4987   -0.7469    0.5997 C   0  0  0  0  0  0  0  0  0  0  0  0
    4.0111   -3.4325   -0.6736 H   0  0  0  0  0  0  0  0  0  0  0  0
    6.6565   -0.6225    2.1984 H   0  0  0  0  0  0  0  0  0  0  0  0
    6.1624    1.8007    2.6100 H   0  0  0  0  0  0  0  0  0  0  0  0
    4.2139    2.8783    1.5392 H   0  0  0  0  0  0  0  0  0  0  0  0
    2.7034    1.5830    0.0525 H   0  0  0  0  0  0  0  0  0  0  0  0
    0.1174   -0.3533   -2.7401 H   0  0  0  0  0  0  0  0  0  0  0  0
   -0.7325   -1.5554   -1.7573 H   0  0  0  0  0  0  0  0  0  0  0  0
   -2.1077    0.4596   -1.9882 H   0  0  0  0  0  0  0  0  0  0  0  0
   -0.7876    1.4993   -1.4334 H   0  0  0  0  0  0  0  0  0  0  0  0
   -2.1585    2.4110    0.3369 H   0  0  0  0  0  0  0  0  0  0  0  0
   -2.8405    1.3516    1.5689 H   0  0  0  0  0  0  0  0  0  0  0  0
   -6.3635    2.5527   -1.9045 H   0  0  0  0  0  0  0  0  0  0  0  0
   -6.6060   -0.1386   -1.3003 H   0  0  0  0  0  0  0  0  0  0  0  0
   -3.7791   -1.0125    1.0594 H   0  0  0  0  0  0  0  0  0  0  0  0
   -0.8262    0.1725    2.0218 H   0  0  0  0  0  0  0  0  0  0  0  0
   -0.0155    1.3244    0.9491 H   0  0  0  0  0  0  0  0  0  0  0  0
    0.0557   -1.7403    0.7495 H   0  0  0  0  0  0  0  0  0  0  0  0
    1.3629   -0.6915    1.2637 H   0  0  0  0  0  0  0  0  0  0  0  0
  1  2  2  0
  2  3  1  0
  3  4  2  0
  4  5  1  0
  5  6  1  0
  6  7  2  0
  7  8  1  0
  8  9  2  0
  9 10  1  0
 10 11  2  0
  2 12  1  0
 12 13  1  0
 13 14  1  0
 14 15  1  0
 15 16  1  0
 16 17  1  0
 17 18  2  0
 18 19  1  0
 19 20  2  0
 20 21  1  0
 21 22  1  0
 22 23  1  0
 22 24  1  0
 15 25  1  0
 25 26  1  0
 11  3  1  0
 26 12  1  0
 11  6  1  0
 21 17  1  0
  4 27  1  0
  7 28  1  0
  8 29  1  0
  9 30  1  0
 10 31  1  0
 13 32  1  0
 13 33  1  0
 14 34  1  0
 14 35  1  0
 16 36  1  0
 16 37  1  0
 19 38  1  0
 20 39  1  0
 22 40  1  0
 25 41  1  0
 25 42  1  0
 26 43  1  0
 26 44  1  0
M  END
$$$$
OCNT-2309424
     RDKit          3D

 43 45  0  0  0  0  0  0  0  0999 V2000
   -3.9038   -1.6833   -0.5282 C   0  0  0  0  0  0  0  0  0  0  0  0
   -4.4045   -0.2687   -0.4108 C   0  0  0  0  0  0  0  0  0  0  0  0
   -5.6231    0.0656   -1.0262 C   0  0  0  0  0  0  0  0  0  0  0  0
   -6.1404    1.3573   -0.9390 C   0  0  0  0  0  0  0  0  0  0  0  0
   -5.4502    2.3336   -0.2312 C   0  0  0  0  0  0  0  0  0  0  0  0
   -4.2429    2.0174    0.3904 C   0  0  0  0  0  0  0  0  0  0  0  0
   -3.7036    0.7183    0.3198 C   0  0  0  0  0  0  0  0  0  0  0  0
   -2.3640    0.4268    0.9790 C   0  0  0  0  0  0  0  0  0  0  0  0
   -2.2648    1.1750    2.1979 O   0  0  0  0  0  0  0  0  0  0  0  0
   -1.2171    0.7944    0.0288 C   0  0  0  0  0  0  0  0  0  0  0  0
    0.0233    0.1592    0.4263 N   0  0  0  0  0  0  0  0  0  0  0  0
    0.8020   -0.6930   -0.2939 C   0  0  0  0  0  0  0  0  0  0  0  0
    1.8401   -1.0007    0.5623 C   0  0  0  0  0  0  0  0  0  0  0  0
    3.0127   -1.9013    0.3617 C   0  0  0  0  0  0  0  0  0  0  0  0
    4.2165   -1.2421   -0.1465 N   0  0  0  0  0  0  0  0  0  0  0  0
    4.1069   -0.6255   -1.4613 C   0  0  0  0  0  0  0  0  0  0  0  0
    5.4278    0.1221   -1.5819 C   0  0  0  0  0  0  0  0  0  0  0  0
    5.8669    0.3959   -0.1453 C   0  0  0  0  0  0  0  0  0  0  0  0
    4.7858   -0.2239    0.7304 C   0  0  0  0  0  0  0  0  0  0  0  0
    1.6342   -0.3532    1.7567 N   0  0  0  0  0  0  0  0  0  0  0  0
    0.5241    0.3636    1.6567 N   0  0  0  0  0  0  0  0  0  0  0  0
   -4.5052   -2.2654   -1.2348 H   0  0  0  0  0  0  0  0  0  0  0  0
   -3.9545   -2.1830    0.4442 H   0  0  0  0  0  0  0  0  0  0  0  0
   -2.8731   -1.6985   -0.8960 H   0  0  0  0  0  0  0  0  0  0  0  0
   -6.1843   -0.6849   -1.5795 H   0  0  0  0  0  0  0  0  0  0  0  0
   -7.0852    1.5987   -1.4186 H   0  0  0  0  0  0  0  0  0  0  0  0
   -5.8527    3.3401   -0.1544 H   0  0  0  0  0  0  0  0  0  0  0  0
   -3.7221    2.7937    0.9496 H   0  0  0  0  0  0  0  0  0  0  0  0
   -2.3167   -0.6279    1.2712 H   0  0  0  0  0  0  0  0  0  0  0  0
   -1.3868    0.9709    2.5802 H   0  0  0  0  0  0  0  0  0  0  0  0
   -1.0257    1.8740    0.0238 H   0  0  0  0  0  0  0  0  0  0  0  0
   -1.4244    0.4733   -0.9985 H   0  0  0  0  0  0  0  0  0  0  0  0
    0.5757   -0.9949   -1.3056 H   0  0  0  0  0  0  0  0  0  0  0  0
    2.7333   -2.7092   -0.3263 H   0  0  0  0  0  0  0  0  0  0  0  0
    3.2504   -2.3956    1.3121 H   0  0  0  0  0  0  0  0  0  0  0  0
    3.9908   -1.3645   -2.2601 H   0  0  0  0  0  0  0  0  0  0  0  0
    3.2813    0.0922   -1.5241 H   0  0  0  0  0  0  0  0  0  0  0  0
    6.1795   -0.4957   -2.0872 H   0  0  0  0  0  0  0  0  0  0  0  0
    5.3150    1.0483   -2.1545 H   0  0  0  0  0  0  0  0  0  0  0  0
    5.9724    1.4684    0.0476 H   0  0  0  0  0  0  0  0  0  0  0  0
    6.8385   -0.0762    0.0417 H   0  0  0  0  0  0  0  0  0  0  0  0
    5.2081   -0.6511    1.6452 H   0  0  0  0  0  0  0  0  0  0  0  0
    4.0598    0.5496    1.0058 H   0  0  0  0  0  0  0  0  0  0  0  0
  1  2  1  0
  2  3  2  0
  3  4  1  0
  4  5  2  0
  5  6  1  0
  6  7  2  0
  7  8  1  0
  8  9  1  0
  8 10  1  0
 10 11  1  0
 11 12  1  0
 12 13  2  0
 13 14  1  0
 14 15  1  0
 15 16  1  0
 16 17  1  0
 17 18  1  0
 18 19  1  0
 13 20  1  0
 20 21  2  0
  7  2  1  0
 21 11  1  0
 19 15  1  0
  1 22  1  0
  1 23  1  0
  1 24  1  0
  3 25  1  0
  4 26  1  0
  5 27  1  0
  6 28  1  0
  8 29  1  0
  9 30  1  0
 10 31  1  0
 10 32  1  0
 12 33  1  0
 14 34  1  0
 14 35  1  0
 16 36  1  0
 16 37  1  0
 17 38  1  0
 17 39  1  0
 18 40  1  0
 18 41  1  0
 19 42  1  0
 19 43  1  0
M  END
$$$$
OCNT-2309429
     RDKit          3D

 45 48  0  0  0  0  0  0  0  0999 V2000
   -2.3157    5.2513    0.4121 C   0  0  0  0  0  0  0  0  0  0  0  0
   -2.0479    3.7813    0.3708 C   0  0  0  0  0  0  0  0  0  0  0  0
   -0.8296    3.1273    0.2396 C   0  0  0  0  0  0  0  0  0  0  0  0
    0.4974    3.8078    0.1092 C   0  0  0  0  0  0  0  0  0  0  0  0
   -0.9967    1.6835    0.2427 C   0  0  0  0  0  0  0  0  0  0  0  0
   -0.0968    0.6029    0.1404 C   0  0  0  0  0  0  0  0  0  0  0  0
    1.2920    0.8013    0.0232 N   0  0  0  0  0  0  0  0  0  0  0  0
    1.9834    0.3354    1.2453 C   0  0  0  0  0  0  0  0  0  0  0  0
    2.8200   -0.8621    0.8143 C   0  0  0  0  0  0  0  0  0  0  0  0
    3.1616   -0.5115   -0.6222 C   0  0  0  0  0  0  0  0  0  0  0  0
    3.7105   -1.9109   -1.5582 S   0  0  0  0  0  0  0  0  0  0  0  0
    3.8700   -1.2774   -3.1029 N   0  0  0  0  0  0  0  0  0  0  0  0
    2.6651   -2.9006   -1.6525 O   0  0  0  0  0  0  0  0  0  0  0  0
    5.0550   -2.2498   -1.1520 O   0  0  0  0  0  0  0  0  0  0  0  0
    1.8567    0.0654   -1.1362 C   0  0  0  0  0  0  0  0  0  0  0  0
   -0.5864   -0.6580    0.1886 N   0  0  0  0  0  0  0  0  0  0  0  0
   -1.9107   -0.8616    0.3196 C   0  0  0  0  0  0  0  0  0  0  0  0
   -2.3741   -2.2568    0.3592 C   0  0  0  0  0  0  0  0  0  0  0  0
   -3.7069   -2.6027    0.6348 C   0  0  0  0  0  0  0  0  0  0  0  0
   -4.1064   -3.9389    0.6699 C   0  0  0  0  0  0  0  0  0  0  0  0
   -3.1570   -4.9135    0.4246 C   0  0  0  0  0  0  0  0  0  0  0  0
   -1.8664   -4.6408    0.1513 N   0  0  0  0  0  0  0  0  0  0  0  0
   -1.5105   -3.3290    0.1251 C   0  0  0  0  0  0  0  0  0  0  0  0
   -2.8384    0.0961    0.4237 N   0  0  0  0  0  0  0  0  0  0  0  0
   -2.3283    1.3361    0.3787 C   0  0  0  0  0  0  0  0  0  0  0  0
   -3.3535    2.6855    0.4970 S   0  0  0  0  0  0  0  0  0  0  0  0
   -1.8090    5.7018    1.2722 H   0  0  0  0  0  0  0  0  0  0  0  0
   -1.9412    5.7292   -0.4996 H   0  0  0  0  0  0  0  0  0  0  0  0
   -3.3832    5.4827    0.4940 H   0  0  0  0  0  0  0  0  0  0  0  0
    0.9728    3.5396   -0.8404 H   0  0  0  0  0  0  0  0  0  0  0  0
    0.4026    4.8977    0.1346 H   0  0  0  0  0  0  0  0  0  0  0  0
    1.1582    3.5163    0.9323 H   0  0  0  0  0  0  0  0  0  0  0  0
    1.3183    0.0850    2.0809 H   0  0  0  0  0  0  0  0  0  0  0  0
    2.6399    1.1453    1.5862 H   0  0  0  0  0  0  0  0  0  0  0  0
    3.7052   -1.0008    1.4420 H   0  0  0  0  0  0  0  0  0  0  0  0
    2.2208   -1.7796    0.8683 H   0  0  0  0  0  0  0  0  0  0  0  0
    3.9598    0.2406   -0.6468 H   0  0  0  0  0  0  0  0  0  0  0  0
    4.8508   -1.3227   -3.3917 H   0  0  0  0  0  0  0  0  0  0  0  0
    3.2483   -1.7732   -3.7479 H   0  0  0  0  0  0  0  0  0  0  0  0
    2.0342    0.7657   -1.9606 H   0  0  0  0  0  0  0  0  0  0  0  0
    1.1909   -0.7185   -1.5168 H   0  0  0  0  0  0  0  0  0  0  0  0
   -4.4461   -1.8270    0.8279 H   0  0  0  0  0  0  0  0  0  0  0  0
   -5.1339   -4.2081    0.8853 H   0  0  0  0  0  0  0  0  0  0  0  0
   -3.4158   -5.9688    0.4413 H   0  0  0  0  0  0  0  0  0  0  0  0
   -0.4591   -3.1657   -0.1049 H   0  0  0  0  0  0  0  0  0  0  0  0
  1  2  1  0
  2  3  2  0
  3  4  1  0
  3  5  1  0
  5  6  2  0
  6  7  1  0
  7  8  1  0
  8  9  1  0
  9 10  1  0
 10 11  1  0
 11 12  1  0
 11 13  2  0
 11 14  2  0
 10 15  1  0
  6 16  1  0
 16 17  2  0
 17 18  1  0
 18 19  1  0
 19 20  2  0
 20 21  1  0
 21 22  2  0
 22 23  1  0
 17 24  1  0
 24 25  2  0
 25 26  1  0
 26  2  1  0
 25  5  1  0
 15  7  1  0
 23 18  2  0
  1 27  1  0
  1 28  1  0
  1 29  1  0
  4 30  1  0
  4 31  1  0
  4 32  1  0
  8 33  1  0
  8 34  1  0
  9 35  1  0
  9 36  1  0
 10 37  1  0
 12 38  1  0
 12 39  1  0
 15 40  1  0
 15 41  1  0
 19 42  1  0
 20 43  1  0
 21 44  1  0
 23 45  1  0
M  END
$$$$
OCNT-2309434
     RDKit          3D

 52 55  0  0  0  0  0  0  0  0999 V2000
   -3.8685    3.1567   -1.6951 C   0  0  0  0  0  0  0  0  0  0  0  0
   -3.3526    1.8657   -1.2420 N   0  0  0  0  0  0  0  0  0  0  0  0
   -1.9495    1.6880   -1.6582 C   0  0  0  0  0  0  0  0  0  0  0  0
   -1.3317    0.3797   -1.1269 C   0  0  0  0  0  0  0  0  0  0  0  0
   -1.4425    0.2456    0.3569 N   0  0  0  0  0  0  0  0  0  0  0  0
   -0.2874    1.0514    1.2888 S   0  0  0  0  0  0  0  0  0  0  0  0
   -0.4733    0.6777    2.6733 O   0  0  0  0  0  0  0  0  0  0  0  0
   -0.2346    2.4375    0.8802 O   0  0  0  0  0  0  0  0  0  0  0  0
    1.2543    0.4218    0.9024 C   0  0  0  0  0  0  0  0  0  0  0  0
    2.3732    1.0787    0.4414 C   0  0  0  0  0  0  0  0  0  0  0  0
    3.3307    0.1145    0.2962 N   0  0  0  0  0  0  0  0  0  0  0  0
    4.7009    0.3225   -0.1445 C   0  0  0  0  0  0  0  0  0  0  0  0
    5.7490   -0.2136    0.8477 C   0  0  0  0  0  0  0  0  0  0  0  0
    6.3878   -1.4057    0.1455 C   0  0  0  0  0  0  0  0  0  0  0  0
    6.3719   -0.9965   -1.3189 C   0  0  0  0  0  0  0  0  0  0  0  0
    5.0019   -0.3527   -1.4949 C   0  0  0  0  0  0  0  0  0  0  0  0
    2.8884   -1.1249    0.6072 N   0  0  0  0  0  0  0  0  0  0  0  0
    1.6230   -0.9268    0.9930 C   0  0  0  0  0  0  0  0  0  0  0  0
   -2.8604    0.4305    0.8248 C   0  0  0  0  0  0  0  0  0  0  0  0
   -3.6568   -0.8575    0.6217 C   0  0  0  0  0  0  0  0  0  0  0  0
   -3.3035   -1.9848    1.3887 C   0  0  0  0  0  0  0  0  0  0  0  0
   -3.9854   -3.1954    1.2487 C   0  0  0  0  0  0  0  0  0  0  0  0
   -5.0304   -3.3020    0.3360 C   0  0  0  0  0  0  0  0  0  0  0  0
   -5.3939   -2.1979   -0.4331 C   0  0  0  0  0  0  0  0  0  0  0  0
   -4.7128   -0.9848   -0.2930 C   0  0  0  0  0  0  0  0  0  0  0  0
   -3.4653    1.7443    0.2305 C   0  0  0  0  0  0  0  0  0  0  0  0
   -3.8133    3.2308   -2.7881 H   0  0  0  0  0  0  0  0  0  0  0  0
   -3.3159    4.0007   -1.2639 H   0  0  0  0  0  0  0  0  0  0  0  0
   -4.9251    3.2624   -1.4249 H   0  0  0  0  0  0  0  0  0  0  0  0
   -1.3430    2.5428   -1.3397 H   0  0  0  0  0  0  0  0  0  0  0  0
   -1.9028    1.6603   -2.7538 H   0  0  0  0  0  0  0  0  0  0  0  0
   -0.2831    0.3109   -1.4366 H   0  0  0  0  0  0  0  0  0  0  0  0
   -1.8327   -0.4810   -1.5884 H   0  0  0  0  0  0  0  0  0  0  0  0
    2.5570    2.1214    0.2232 H   0  0  0  0  0  0  0  0  0  0  0  0
    4.8339    1.4086   -0.2412 H   0  0  0  0  0  0  0  0  0  0  0  0
    6.5133    0.5558    1.0149 H   0  0  0  0  0  0  0  0  0  0  0  0
    5.3412   -0.4862    1.8269 H   0  0  0  0  0  0  0  0  0  0  0  0
    7.3985   -1.6085    0.5107 H   0  0  0  0  0  0  0  0  0  0  0  0
    5.7805   -2.3068    0.2955 H   0  0  0  0  0  0  0  0  0  0  0  0
    7.1616   -0.2609   -1.5162 H   0  0  0  0  0  0  0  0  0  0  0  0
    6.5206   -1.8485   -1.9912 H   0  0  0  0  0  0  0  0  0  0  0  0
    5.0049    0.3732   -2.3170 H   0  0  0  0  0  0  0  0  0  0  0  0
    4.2594   -1.1213   -1.7468 H   0  0  0  0  0  0  0  0  0  0  0  0
    1.0279   -1.7727    1.3172 H   0  0  0  0  0  0  0  0  0  0  0  0
   -2.8637    0.5799    1.9138 H   0  0  0  0  0  0  0  0  0  0  0  0
   -2.4851   -1.9180    2.1043 H   0  0  0  0  0  0  0  0  0  0  0  0
   -3.6968   -4.0535    1.8511 H   0  0  0  0  0  0  0  0  0  0  0  0
   -5.5617   -4.2434    0.2225 H   0  0  0  0  0  0  0  0  0  0  0  0
   -6.2088   -2.2802   -1.1488 H   0  0  0  0  0  0  0  0  0  0  0  0
   -5.0208   -0.1483   -0.9170 H   0  0  0  0  0  0  0  0  0  0  0  0
   -4.5218    1.8126    0.5206 H   0  0  0  0  0  0  0  0  0  0  0  0
   -2.9569    2.5977    0.7013 H   0  0  0  0  0  0  0  0  0  0  0  0
  1  2  1  0
  2  3  1  0
  3  4  1  0
  4  5  1  0
  5  6  1  0
  6  7  2  0
  6  8  2  0
  6  9  1  0
  9 10  2  0
 10 11  1  0
 11 12  1  0
 12 13  1  0
 13 14  1  0
 14 15  1  0
 15 16  1  0
 11 17  1  0
 17 18  2  0
  5 19  1  0
 19 20  1  0
 20 21  2  0
 21 22  1  0
 22 23  2  0
 23 24  1  0
 24 25  2  0
 19 26  1  0
 26  2  1  0
 18  9  1  0
 25 20  1  0
 16 12  1  0
  1 27  1  0
  1 28  1  0
  1 29  1  0
  3 30  1  0
  3 31  1  0
  4 32  1  0
  4 33  1  0
 10 34  1  0
 12 35  1  0
 13 36  1  0
 13 37  1  0
 14 38  1  0
 14 39  1  0
 15 40  1  0
 15 41  1  0
 16 42  1  0
 16 43  1  0
 18 44  1  0
 19 45  1  0
 21 46  1  0
 22 47  1  0
 23 48  1  0
 24 49  1  0
 25 50  1  0
 26 51  1  0
 26 52  1  0
M  END
$$$$
OCNT-2309435
     RDKit          3D

 47 49  0  0  0  0  0  0  0  0999 V2000
   -6.1599   -2.1375    0.8720 C   0  0  0  0  0  0  0  0  0  0  0  0
   -6.2893   -0.8014    0.1411 C   0  0  0  0  0  0  0  0  0  0  0  0
   -6.9006    0.2549    1.0613 C   0  0  0  0  0  0  0  0  0  0  0  0
   -4.9568   -0.3389   -0.4784 C   0  0  0  0  0  0  0  0  0  0  0  0
   -3.8251   -0.0798    0.5227 C   0  0  0  0  0  0  0  0  0  0  0  0
   -2.5698    0.3748   -0.1712 C   0  0  0  0  0  0  0  0  0  0  0  0
   -2.3175    1.7234   -0.4139 C   0  0  0  0  0  0  0  0  0  0  0  0
   -1.1513    2.0950   -1.0800 C   0  0  0  0  0  0  0  0  0  0  0  0
   -0.2581    1.1106   -1.4866 C   0  0  0  0  0  0  0  0  0  0  0  0
    0.9266    1.4185   -2.1557 N   0  0  0  0  0  0  0  0  0  0  0  0
    1.8783    2.2034   -1.3633 C   0  0  0  0  0  0  0  0  0  0  0  0
    2.5718    1.4917   -0.2308 C   0  0  0  0  0  0  0  0  0  0  0  0
    2.0924    1.3338    1.0565 C   0  0  0  0  0  0  0  0  0  0  0  0
    3.2057    0.4337    1.9949 S   0  0  0  0  0  0  0  0  0  0  0  0
    4.2398    0.3079    0.6313 C   0  0  0  0  0  0  0  0  0  0  0  0
    5.6005   -0.4470    0.6646 C   0  0  0  0  0  0  0  0  0  0  0  0
    6.4660   -0.5794   -0.3963 C   0  0  0  0  0  0  0  0  0  0  0  0
    7.5178   -1.3085    0.0725 N   0  0  0  0  0  0  0  0  0  0  0  0
    8.6879   -1.7174   -0.6655 C   0  0  0  0  0  0  0  0  0  0  0  0
    7.3967   -1.6557    1.3698 N   0  0  0  0  0  0  0  0  0  0  0  0
    6.2200   -1.1285    1.7263 C   0  0  0  0  0  0  0  0  0  0  0  0
    3.8083    0.9008   -0.4627 N   0  0  0  0  0  0  0  0  0  0  0  0
   -0.4915   -0.1970   -1.2811 N   0  0  0  0  0  0  0  0  0  0  0  0
   -1.6299   -0.5375   -0.6344 C   0  0  0  0  0  0  0  0  0  0  0  0
   -7.1463   -2.5058    1.1741 H   0  0  0  0  0  0  0  0  0  0  0  0
   -5.7061   -2.8945    0.2242 H   0  0  0  0  0  0  0  0  0  0  0  0
   -5.5497   -2.0502    1.7766 H   0  0  0  0  0  0  0  0  0  0  0  0
   -6.9892   -0.9521   -0.6916 H   0  0  0  0  0  0  0  0  0  0  0  0
   -6.3058    0.3990    1.9687 H   0  0  0  0  0  0  0  0  0  0  0  0
   -7.9079   -0.0440    1.3713 H   0  0  0  0  0  0  0  0  0  0  0  0
   -6.9824    1.2187    0.5483 H   0  0  0  0  0  0  0  0  0  0  0  0
   -5.1416    0.5743   -1.0603 H   0  0  0  0  0  0  0  0  0  0  0  0
   -4.6302   -1.0947   -1.2056 H   0  0  0  0  0  0  0  0  0  0  0  0
   -3.6026   -0.9852    1.0992 H   0  0  0  0  0  0  0  0  0  0  0  0
   -4.1207    0.6821    1.2533 H   0  0  0  0  0  0  0  0  0  0  0  0
   -3.0250    2.4867   -0.1012 H   0  0  0  0  0  0  0  0  0  0  0  0
   -0.9592    3.1397   -1.2969 H   0  0  0  0  0  0  0  0  0  0  0  0
    1.3400    0.5050   -2.3515 H   0  0  0  0  0  0  0  0  0  0  0  0
    2.6564    2.5457   -2.0579 H   0  0  0  0  0  0  0  0  0  0  0  0
    1.4142    3.1240   -0.9865 H   0  0  0  0  0  0  0  0  0  0  0  0
    1.1575    1.6821    1.4720 H   0  0  0  0  0  0  0  0  0  0  0  0
    6.4118   -0.2237   -1.4157 H   0  0  0  0  0  0  0  0  0  0  0  0
    8.6218   -1.3416   -1.6895 H   0  0  0  0  0  0  0  0  0  0  0  0
    9.5697   -1.3018   -0.1717 H   0  0  0  0  0  0  0  0  0  0  0  0
    8.7278   -2.8094   -0.6702 H   0  0  0  0  0  0  0  0  0  0  0  0
    5.8734   -1.2672    2.7418 H   0  0  0  0  0  0  0  0  0  0  0  0
   -1.7677   -1.6070   -0.4987 H   0  0  0  0  0  0  0  0  0  0  0  0
  1  2  1  0
  2  3  1  0
  2  4  1  0
  4  5  1  0
  5  6  1  0
  6  7  2  0
  7  8  1  0
  8  9  2  0
  9 10  1  0
 10 11  1  0
 11 12  1  0
 12 13  2  0
 13 14  1  0
 14 15  1  0
 15 16  1  0
 16 17  2  0
 17 18  1  0
 18 19  1  0
 18 20  1  0
 20 21  2  0
 15 22  2  0
  9 23  1  0
 23 24  2  0
 24  6  1  0
 22 12  1  0
 21 16  1  0
  1 25  1  0
  1 26  1  0
  1 27  1  0
  2 28  1  0
  3 29  1  0
  3 30  1  0
  3 31  1  0
  4 32  1  0
  4 33  1  0
  5 34  1  0
  5 35  1  0
  7 36  1  0
  8 37  1  0
 10 38  1  0
 11 39  1  0
 11 40  1  0
 13 41  1  0
 17 42  1  0
 19 43  1  0
 19 44  1  0
 19 45  1  0
 21 46  1  0
 24 47  1  0
M  END
$$$$
OCNT-2309439
     RDKit          3D

 54 56  0  0  0  0  0  0  0  0999 V2000
    7.4288   -2.9448    0.0387 C   0  0  0  0  0  0  0  0  0  0  0  0
    6.6992   -2.1403    0.9556 O   0  0  0  0  0  0  0  0  0  0  0  0
    5.9168   -1.1476    0.4318 C   0  0  0  0  0  0  0  0  0  0  0  0
    5.7458   -0.8773   -0.9270 C   0  0  0  0  0  0  0  0  0  0  0  0
    4.9078    0.1670   -1.3408 C   0  0  0  0  0  0  0  0  0  0  0  0
    4.2294    0.9583   -0.4041 C   0  0  0  0  0  0  0  0  0  0  0  0
    3.3064    2.0673   -0.8539 C   0  0  0  0  0  0  0  0  0  0  0  0
    1.9721    1.5552   -1.4025 C   0  0  0  0  0  0  0  0  0  0  0  0
    1.1869    0.8588   -0.3973 N   0  0  0  0  0  0  0  0  0  0  0  0
   -0.1354    0.5838   -0.6340 C   0  0  0  0  0  0  0  0  0  0  0  0
   -0.7148    0.9906   -1.6369 O   0  0  0  0  0  0  0  0  0  0  0  0
   -0.7657   -0.1394    0.3513 N   0  0  0  0  0  0  0  0  0  0  0  0
   -0.1507   -0.7868    1.5024 C   0  0  0  0  0  0  0  0  0  0  0  0
   -1.1407   -1.8674    1.9021 C   0  0  0  0  0  0  0  0  0  0  0  0
   -2.4797   -1.2313    1.5727 C   0  0  0  0  0  0  0  0  0  0  0  0
   -2.2015   -0.4536    0.2744 C   0  0  1  0  0  0  0  0  0  0  0  0
   -3.1260    0.7874    0.1529 C   0  0  0  0  0  0  0  0  0  0  0  0
   -4.5712    0.4806    0.2314 N   0  0  0  0  0  0  0  0  0  0  0  0
   -5.0034   -0.3679   -0.9044 C   0  0  0  0  0  0  0  0  0  0  0  0
   -6.5044   -0.2174   -1.1967 C   0  0  0  0  0  0  0  0  0  0  0  0
   -6.8597    1.1097   -1.6088 O   0  0  0  0  0  0  0  0  0  0  0  0
   -5.9898    2.1151   -1.0705 C   0  0  0  0  0  0  0  0  0  0  0  0
   -5.3815    1.7194    0.2842 C   0  0  0  0  0  0  0  0  0  0  0  0
    4.4047    0.6880    0.9572 C   0  0  0  0  0  0  0  0  0  0  0  0
    5.2378   -0.3538    1.3606 C   0  0  0  0  0  0  0  0  0  0  0  0
    5.3725   -0.5888    2.6751 F   0  0  0  0  0  0  0  0  0  0  0  0
    8.1354   -2.3416   -0.5411 H   0  0  0  0  0  0  0  0  0  0  0  0
    6.7544   -3.5044   -0.6179 H   0  0  0  0  0  0  0  0  0  0  0  0
    8.0078   -3.6708    0.6176 H   0  0  0  0  0  0  0  0  0  0  0  0
    6.2470   -1.4599   -1.6933 H   0  0  0  0  0  0  0  0  0  0  0  0
    4.7895    0.3569   -2.4066 H   0  0  0  0  0  0  0  0  0  0  0  0
    3.1223    2.7557   -0.0192 H   0  0  0  0  0  0  0  0  0  0  0  0
    3.8173    2.6550   -1.6268 H   0  0  0  0  0  0  0  0  0  0  0  0
    1.3855    2.4022   -1.7770 H   0  0  0  0  0  0  0  0  0  0  0  0
    2.1237    0.8635   -2.2394 H   0  0  0  0  0  0  0  0  0  0  0  0
    1.6826    0.1463    0.1121 H   0  0  0  0  0  0  0  0  0  0  0  0
    0.8268   -1.2134    1.2650 H   0  0  0  0  0  0  0  0  0  0  0  0
   -0.0370   -0.0324    2.2882 H   0  0  0  0  0  0  0  0  0  0  0  0
   -1.0495   -2.1554    2.9528 H   0  0  0  0  0  0  0  0  0  0  0  0
   -0.9935   -2.7618    1.2848 H   0  0  0  0  0  0  0  0  0  0  0  0
   -3.2759   -1.9723    1.4541 H   0  0  0  0  0  0  0  0  0  0  0  0
   -2.7655   -0.5521    2.3857 H   0  0  0  0  0  0  0  0  0  0  0  0
   -2.3283   -1.1111   -0.5948 H   0  0  0  0  0  0  0  0  0  0  0  0
   -2.8645    1.4685    0.9745 H   0  0  0  0  0  0  0  0  0  0  0  0
   -2.9196    1.3373   -0.7719 H   0  0  0  0  0  0  0  0  0  0  0  0
   -4.4530   -0.0988   -1.8156 H   0  0  0  0  0  0  0  0  0  0  0  0
   -4.7848   -1.4161   -0.6743 H   0  0  0  0  0  0  0  0  0  0  0  0
   -6.8012   -0.8993   -2.0002 H   0  0  0  0  0  0  0  0  0  0  0  0
   -7.1026   -0.4752   -0.3148 H   0  0  0  0  0  0  0  0  0  0  0  0
   -5.2035    2.3185   -1.8068 H   0  0  0  0  0  0  0  0  0  0  0  0
   -6.5791    3.0317   -0.9635 H   0  0  0  0  0  0  0  0  0  0  0  0
   -4.8137    2.5593    0.7017 H   0  0  0  0  0  0  0  0  0  0  0  0
   -6.2033    1.5286    0.9862 H   0  0  0  0  0  0  0  0  0  0  0  0
    3.8992    1.2764    1.7179 H   0  0  0  0  0  0  0  0  0  0  0  0
  1  2  1  0
  2  3  1  0
  3  4  1  0
  4  5  2  0
  5  6  1  0
  6  7  1  0
  7  8  1  0
  8  9  1  0
  9 10  1  0
 10 11  2  0
 10 12  1  0
 12 13  1  0
 13 14  1  0
 14 15  1  0
 15 16  1  0
 16 17  1  0
 17 18  1  0
 18 19  1  0
 19 20  1  0
 20 21  1  0
 21 22  1  0
 22 23  1  0
  6 24  2  0
 24 25  1  0
 25 26  1  0
 25  3  2  0
 16 12  1  0
 23 18  1  0
  1 27  1  0
  1 28  1  0
  1 29  1  0
  4 30  1  0
  5 31  1  0
  7 32  1  0
  7 33  1  0
  8 34  1  0
  8 35  1  0
  9 36  1  0
 13 37  1  0
 13 38  1  0
 14 39  1  0
 14 40  1  0
 15 41  1  0
 15 42  1  0
 16 43  1  6
 17 44  1  0
 17 45  1  0
 19 46  1  0
 19 47  1  0
 20 48  1  0
 20 49  1  0
 22 50  1  0
 22 51  1  0
 23 52  1  0
 23 53  1  0
 24 54  1  0
M  END
$$$$
OCNT-2309445
     RDKit          3D

 51 54  0  0  0  0  0  0  0  0999 V2000
   -7.8339    0.0527    0.1436 C   0  0  0  0  0  0  0  0  0  0  0  0
   -6.3867    0.5048    0.3317 C   0  0  0  0  0  0  0  0  0  0  0  0
   -6.2576    1.4126    1.5629 C   0  0  0  0  0  0  0  0  0  0  0  0
   -4.8675    1.8118    1.7786 N   0  0  0  0  0  0  0  0  0  0  0  0
   -3.9988    0.6530    1.9899 C   0  0  0  0  0  0  0  0  0  0  0  0
   -4.0046   -0.2893    0.7755 C   0  0  0  0  0  0  0  0  0  0  0  0
   -3.3244    0.3460   -0.4526 C   0  0  0  0  0  0  0  0  0  0  0  0
   -1.8772    0.3070   -0.3713 N   0  0  0  0  0  0  0  0  0  0  0  0
   -1.0499   -0.7031   -0.7687 C   0  0  0  0  0  0  0  0  0  0  0  0
    0.2124   -0.2330   -0.4788 C   0  0  0  0  0  0  0  0  0  0  0  0
    1.4799   -0.9102   -0.6967 C   0  0  0  0  0  0  0  0  0  0  0  0
    1.5468   -2.2297   -1.1557 C   0  0  0  0  0  0  0  0  0  0  0  0
    2.7837   -2.8377   -1.3692 C   0  0  0  0  0  0  0  0  0  0  0  0
    3.9662   -2.1390   -1.1122 C   0  0  0  0  0  0  0  0  0  0  0  0
    3.9383   -0.8345   -0.6112 C   0  0  0  0  0  0  0  0  0  0  0  0
    5.0848   -0.0605   -0.4019 N   0  0  0  0  0  0  0  0  0  0  0  0
    6.3686   -0.7161   -0.1615 C   0  0  0  0  0  0  0  0  0  0  0  0
    7.4650    0.2568    0.1810 C   0  0  0  0  0  0  0  0  0  0  0  0
    7.8554    1.3809   -0.5224 C   0  0  0  0  0  0  0  0  0  0  0  0
    8.9369    2.0650    0.1026 C   0  0  0  0  0  0  0  0  0  0  0  0
    9.3390    1.4403    1.2616 C   0  0  0  0  0  0  0  0  0  0  0  0
    8.4158    0.0389    1.5896 S   0  0  0  0  0  0  0  0  0  0  0  0
    2.6825   -0.2270   -0.4443 C   0  0  0  0  0  0  0  0  0  0  0  0
    0.1013    1.0224    0.0681 N   0  0  0  0  0  0  0  0  0  0  0  0
   -1.1842    1.3438    0.1233 N   0  0  0  0  0  0  0  0  0  0  0  0
   -5.4521   -0.7070    0.4574 C   0  0  0  0  0  0  0  0  0  0  0  0
   -8.4971    0.9156    0.0225 H   0  0  0  0  0  0  0  0  0  0  0  0
   -7.9315   -0.5734   -0.7495 H   0  0  0  0  0  0  0  0  0  0  0  0
   -8.1861   -0.5267    1.0038 H   0  0  0  0  0  0  0  0  0  0  0  0
   -6.1000    1.0790   -0.5593 H   0  0  0  0  0  0  0  0  0  0  0  0
   -6.6478    0.9132    2.4587 H   0  0  0  0  0  0  0  0  0  0  0  0
   -6.8605    2.3158    1.4140 H   0  0  0  0  0  0  0  0  0  0  0  0
   -4.8116    2.4249    2.5929 H   0  0  0  0  0  0  0  0  0  0  0  0
   -4.3245    0.1073    2.8848 H   0  0  0  0  0  0  0  0  0  0  0  0
   -2.9826    1.0026    2.1983 H   0  0  0  0  0  0  0  0  0  0  0  0
   -3.4535   -1.1994    1.0483 H   0  0  0  0  0  0  0  0  0  0  0  0
   -3.6213    1.3885   -0.6117 H   0  0  0  0  0  0  0  0  0  0  0  0
   -3.5886   -0.2057   -1.3633 H   0  0  0  0  0  0  0  0  0  0  0  0
   -1.4221   -1.6181   -1.2021 H   0  0  0  0  0  0  0  0  0  0  0  0
    0.6469   -2.8006   -1.3640 H   0  0  0  0  0  0  0  0  0  0  0  0
    2.8298   -3.8562   -1.7464 H   0  0  0  0  0  0  0  0  0  0  0  0
    4.9063   -2.6408   -1.3190 H   0  0  0  0  0  0  0  0  0  0  0  0
    4.9158    0.6860    0.2693 H   0  0  0  0  0  0  0  0  0  0  0  0
    6.6846   -1.2547   -1.0637 H   0  0  0  0  0  0  0  0  0  0  0  0
    6.2556   -1.4541    0.6430 H   0  0  0  0  0  0  0  0  0  0  0  0
    7.3770    1.6963   -1.4430 H   0  0  0  0  0  0  0  0  0  0  0  0
    9.3948    2.9697   -0.2780 H   0  0  0  0  0  0  0  0  0  0  0  0
   10.1312    1.7390    1.9343 H   0  0  0  0  0  0  0  0  0  0  0  0
    2.6399    0.8085   -0.1085 H   0  0  0  0  0  0  0  0  0  0  0  0
   -5.8117   -1.3591    1.2650 H   0  0  0  0  0  0  0  0  0  0  0  0
   -5.4826   -1.3067   -0.4604 H   0  0  0  0  0  0  0  0  0  0  0  0
  1  2  1  0
  2  3  1  0
  3  4  1  0
  4  5  1  0
  5  6  1  0
  6  7  1  0
  7  8  1  0
  8  9  1  0
  9 10  2  0
 10 11  1  0
 11 12  1  0
 12 13  2  0
 13 14  1  0
 14 15  2  0
 15 16  1  0
 16 17  1  0
 17 18  1  0
 18 19  2  0
 19 20  1  0
 20 21  2  0
 21 22  1  0
 15 23  1  0
 10 24  1  0
 24 25  2  0
  6 26  1  0
 26  2  1  0
 25  8  1  0
 23 11  2  0
 22 18  1  0
  1 27  1  0
  1 28  1  0
  1 29  1  0
  2 30  1  0
  3 31  1  0
  3 32  1  0
  4 33  1  0
  5 34  1  0
  5 35  1  0
  6 36  1  0
  7 37  1  0
  7 38  1  0
  9 39  1  0
 12 40  1  0
 13 41  1  0
 14 42  1  0
 16 43  1  0
 17 44  1  0
 17 45  1  0
 19 46  1  0
 20 47  1  0
 21 48  1  0
 23 49  1  0
 26 50  1  0
 26 51  1  0
M  END
$$$$
OCNT-2309447
     RDKit          3D

 44 46  0  0  0  0  0  0  0  0999 V2000
    0.6401    1.7884    2.7588 C   0  0  0  0  0  0  0  0  0  0  0  0
    0.2986    1.9007    1.2696 C   0  0  0  0  0  0  0  0  0  0  0  0
   -0.8147    1.0384    0.9155 N   0  0  0  0  0  0  0  0  0  0  0  0
   -2.1135    1.3513    1.2252 C   0  0  0  0  0  0  0  0  0  0  0  0
   -2.4289    2.3835    1.8090 O   0  0  0  0  0  0  0  0  0  0  0  0
   -3.1006    0.3749    0.8187 C   0  0  0  0  0  0  0  0  0  0  0  0
   -3.0069   -0.8332    0.1486 C   0  0  0  0  0  0  0  0  0  0  0  0
   -4.3166   -1.3850    0.0164 C   0  0  0  0  0  0  0  0  0  0  0  0
   -4.8707   -2.5519   -0.5468 C   0  0  0  0  0  0  0  0  0  0  0  0
   -3.7763   -3.6428   -1.2779 Cl  0  0  0  0  0  0  0  0  0  0  0  0
   -6.2407   -2.8001   -0.5074 C   0  0  0  0  0  0  0  0  0  0  0  0
   -7.0778   -1.8725    0.1021 C   0  0  0  0  0  0  0  0  0  0  0  0
   -8.7742   -2.1729    0.1536 Cl  0  0  0  0  0  0  0  0  0  0  0  0
   -6.5786   -0.6968    0.6769 C   0  0  0  0  0  0  0  0  0  0  0  0
   -5.1940   -0.4812    0.6183 C   0  0  0  0  0  0  0  0  0  0  0  0
   -4.4387    0.5654    1.0891 N   0  0  0  0  0  0  0  0  0  0  0  0
    1.4829    1.5862    0.3727 C   0  0  0  0  0  0  0  0  0  0  0  0
    1.8121    2.4577   -0.6743 C   0  0  0  0  0  0  0  0  0  0  0  0
    2.8885    2.1786   -1.5207 C   0  0  0  0  0  0  0  0  0  0  0  0
    3.6476    1.0194   -1.3532 C   0  0  0  0  0  0  0  0  0  0  0  0
    4.6715    0.8740   -2.2462 O   0  0  0  0  0  0  0  0  0  0  0  0
    5.2905   -0.3963   -2.3483 C   0  0  0  0  0  0  0  0  0  0  0  0
    6.4103   -0.6899   -1.3436 C   0  0  0  0  0  0  0  0  0  0  0  0
    7.0424   -1.8922   -1.5258 N   0  0  0  0  0  0  0  0  0  0  0  0
    6.7428    0.0423   -0.4190 O   0  0  0  0  0  0  0  0  0  0  0  0
    3.3276    0.1444   -0.3174 C   0  0  0  0  0  0  0  0  0  0  0  0
    2.2505    0.4222    0.5340 C   0  0  0  0  0  0  0  0  0  0  0  0
    1.5154    2.3980    3.0084 H   0  0  0  0  0  0  0  0  0  0  0  0
    0.8491    0.7548    3.0555 H   0  0  0  0  0  0  0  0  0  0  0  0
   -0.1953    2.1334    3.3777 H   0  0  0  0  0  0  0  0  0  0  0  0
   -0.0175    2.9369    1.0912 H   0  0  0  0  0  0  0  0  0  0  0  0
   -0.6088    0.1704    0.4458 H   0  0  0  0  0  0  0  0  0  0  0  0
   -2.0980   -1.2907   -0.2194 H   0  0  0  0  0  0  0  0  0  0  0  0
   -6.6454   -3.7061   -0.9478 H   0  0  0  0  0  0  0  0  0  0  0  0
   -7.2410    0.0216    1.1503 H   0  0  0  0  0  0  0  0  0  0  0  0
   -4.7959    1.3795    1.5742 H   0  0  0  0  0  0  0  0  0  0  0  0
    1.2359    3.3661   -0.8393 H   0  0  0  0  0  0  0  0  0  0  0  0
    3.1361    2.8728   -2.3204 H   0  0  0  0  0  0  0  0  0  0  0  0
    5.7527   -0.4285   -3.3425 H   0  0  0  0  0  0  0  0  0  0  0  0
    4.5519   -1.2077   -2.3289 H   0  0  0  0  0  0  0  0  0  0  0  0
    7.0077   -2.3833   -2.4087 H   0  0  0  0  0  0  0  0  0  0  0  0
    7.8459   -2.0594   -0.9317 H   0  0  0  0  0  0  0  0  0  0  0  0
    3.9071   -0.7520   -0.1246 H   0  0  0  0  0  0  0  0  0  0  0  0
    2.0269   -0.2817    1.3326 H   0  0  0  0  0  0  0  0  0  0  0  0
  1  2  1  0
  2  3  1  0
  3  4  1  0
  4  5  2  0
  4  6  1  0
  6  7  2  0
  7  8  1  0
  8  9  2  0
  9 10  1  0
  9 11  1  0
 11 12  2  0
 12 13  1  0
 12 14  1  0
 14 15  2  0
 15 16  1  0
  2 17  1  0
 17 18  1  0
 18 19  2  0
 19 20  1  0
 20 21  1  0
 21 22  1  0
 22 23  1  0
 23 24  1  0
 23 25  2  0
 20 26  2  0
 26 27  1  0
 16  6  1  0
 27 17  2  0
 15  8  1  0
  1 28  1  0
  1 29  1  0
  1 30  1  0
  2 31  1  0
  3 32  1  0
  7 33  1  0
 11 34  1  0
 14 35  1  0
 16 36  1  0
 18 37  1  0
 19 38  1  0
 22 39  1  0
 22 40  1  0
 24 41  1  0
 24 42  1  0
 26 43  1  0
 27 44  1  0
M  END
$$$$
OCNT-2309448
     RDKit          3D

 47 50  0  0  0  0  0  0  0  0999 V2000
   -4.7051   -1.3617   -0.5101 O   0  0  0  0  0  0  0  0  0  0  0  0
   -4.3400   -0.0223   -0.1185 C   0  0  0  0  0  0  0  0  0  0  0  0
   -2.8426    0.0414   -0.0937 C   0  0  0  0  0  0  0  0  0  0  0  0
   -1.9758   -0.9426   -0.2035 N   0  0  0  0  0  0  0  0  0  0  0  0
   -0.7658   -0.2870   -0.0810 C   0  0  0  0  0  0  0  0  0  0  0  0
    0.5103   -0.9919   -0.1485 C   0  0  0  0  0  0  0  0  0  0  0  0
    0.5422   -2.3759   -0.3655 C   0  0  0  0  0  0  0  0  0  0  0  0
    1.7597   -3.0557   -0.4293 C   0  0  0  0  0  0  0  0  0  0  0  0
    2.9618   -2.3614   -0.2759 C   0  0  0  0  0  0  0  0  0  0  0  0
    2.9497   -0.9838   -0.0591 C   0  0  0  0  0  0  0  0  0  0  0  0
    4.0476   -0.1851    0.1040 O   0  0  0  0  0  0  0  0  0  0  0  0
    5.3240   -0.8237    0.1101 C   0  0  0  0  0  0  0  0  0  0  0  0
    6.3820    0.2256    0.3036 C   0  0  0  0  0  0  0  0  0  0  0  0
    6.5294    1.2872   -0.5978 C   0  0  0  0  0  0  0  0  0  0  0  0
    7.5323    2.2305   -0.3959 C   0  0  0  0  0  0  0  0  0  0  0  0
    8.3631    2.0783    0.7055 C   0  0  0  0  0  0  0  0  0  0  0  0
    8.2562    1.0666    1.5966 N   0  0  0  0  0  0  0  0  0  0  0  0
    7.2679    0.1690    1.3782 C   0  0  0  0  0  0  0  0  0  0  0  0
    1.7258   -0.3074    0.0016 C   0  0  0  0  0  0  0  0  0  0  0  0
   -0.8855    1.0385    0.1087 N   0  0  0  0  0  0  0  0  0  0  0  0
   -2.2597    1.2569    0.1043 O   0  0  0  0  0  0  0  0  0  0  0  0
   -4.9302    0.9431   -1.1579 C   0  0  0  0  0  0  0  0  0  0  0  0
   -6.4598    0.9454   -1.1429 C   0  0  0  0  0  0  0  0  0  0  0  0
   -7.0066    1.2253    0.2537 C   0  0  0  0  0  0  0  0  0  0  0  0
   -6.4484    0.2476    1.2838 C   0  0  0  0  0  0  0  0  0  0  0  0
   -4.9190    0.2358    1.2816 C   0  0  0  0  0  0  0  0  0  0  0  0
   -3.9303   -1.9312   -0.3336 H   0  0  0  0  0  0  0  0  0  0  0  0
   -0.3830   -2.9363   -0.4875 H   0  0  0  0  0  0  0  0  0  0  0  0
    1.7702   -4.1299   -0.5994 H   0  0  0  0  0  0  0  0  0  0  0  0
    3.8853   -2.9277   -0.3344 H   0  0  0  0  0  0  0  0  0  0  0  0
    5.3700   -1.5594    0.9241 H   0  0  0  0  0  0  0  0  0  0  0  0
    5.5111   -1.3280   -0.8464 H   0  0  0  0  0  0  0  0  0  0  0  0
    5.8599    1.3834   -1.4521 H   0  0  0  0  0  0  0  0  0  0  0  0
    7.6610    3.0647   -1.0791 H   0  0  0  0  0  0  0  0  0  0  0  0
    9.1600    2.7879    0.9070 H   0  0  0  0  0  0  0  0  0  0  0  0
    7.2114   -0.6235    2.1226 H   0  0  0  0  0  0  0  0  0  0  0  0
    1.7328    0.7683    0.1717 H   0  0  0  0  0  0  0  0  0  0  0  0
   -4.5958    0.6649   -2.1656 H   0  0  0  0  0  0  0  0  0  0  0  0
   -4.5755    1.9662   -0.9747 H   0  0  0  0  0  0  0  0  0  0  0  0
   -6.8314    1.7035   -1.8423 H   0  0  0  0  0  0  0  0  0  0  0  0
   -6.8358   -0.0227   -1.4966 H   0  0  0  0  0  0  0  0  0  0  0  0
   -6.7500    2.2516    0.5466 H   0  0  0  0  0  0  0  0  0  0  0  0
   -8.1002    1.1611    0.2400 H   0  0  0  0  0  0  0  0  0  0  0  0
   -6.8265   -0.7613    1.0745 H   0  0  0  0  0  0  0  0  0  0  0  0
   -6.8102    0.5190    2.2825 H   0  0  0  0  0  0  0  0  0  0  0  0
   -4.5797   -0.5398    1.9811 H   0  0  0  0  0  0  0  0  0  0  0  0
   -4.5567    1.1967    1.6710 H   0  0  0  0  0  0  0  0  0  0  0  0
  1  2  1  0
  2  3  1  0
  3  4  2  0
  4  5  1  0
  5  6  1  0
  6  7  2  0
  7  8  1  0
  8  9  2  0
  9 10  1  0
 10 11  1  0
 11 12  1  0
 12 13  1  0
 13 14  1  0
 14 15  2  0
 15 16  1  0
 16 17  2  0
 17 18  1  0
 10 19  2  0
  5 20  2  0
 20 21  1  0
  2 22  1  0
 22 23  1  0
 23 24  1  0
 24 25  1  0
 25 26  1  0
 26  2  1  0
 21  3  1  0
 19  6  1  0
 18 13  2  0
  1 27  1  0
  7 28  1  0
  8 29  1  0
  9 30  1  0
 12 31  1  0
 12 32  1  0
 14 33  1  0
 15 34  1  0
 16 35  1  0
 18 36  1  0
 19 37  1  0
 22 38  1  0
 22 39  1  0
 23 40  1  0
 23 41  1  0
 24 42  1  0
 24 43  1  0
 25 44  1  0
 25 45  1  0
 26 46  1  0
 26 47  1  0
M  END
$$$$
OCNT-2309461
     RDKit          3D

 38 40  0  0  0  0  0  0  0  0999 V2000
    4.1033    2.2947   -1.5633 C   0  0  0  0  0  0  0  0  0  0  0  0
    3.2816    1.2046   -0.8993 C   0  0  0  0  0  0  0  0  0  0  0  0
    3.7054   -0.4133   -1.6059 S   0  0  0  0  0  0  0  0  0  0  0  0
    2.8537   -1.5225   -0.5257 C   0  0  0  0  0  0  0  0  0  0  0  0
    1.3508   -1.4699   -0.6206 C   0  0  0  0  0  0  0  0  0  0  0  0
    0.7390   -2.1497   -1.4352 O   0  0  0  0  0  0  0  0  0  0  0  0
    0.7470   -0.6231    0.2769 N   0  0  0  0  0  0  0  0  0  0  0  0
   -0.7017   -0.5740    0.4378 C   0  0  0  0  0  0  0  0  0  0  0  0
   -1.4157    0.0574   -0.7562 C   0  0  0  0  0  0  0  0  0  0  0  0
   -2.8693    0.3060   -0.4467 C   0  0  0  0  0  0  0  0  0  0  0  0
   -3.8281    0.3155   -1.4665 C   0  0  0  0  0  0  0  0  0  0  0  0
   -5.1565    0.6307   -1.1758 C   0  0  0  0  0  0  0  0  0  0  0  0
   -5.5219    0.9541    0.1305 C   0  0  0  0  0  0  0  0  0  0  0  0
   -7.3200    1.3940    0.5168 Br  0  0  0  0  0  0  0  0  0  0  0  0
   -4.5751    0.9615    1.1541 C   0  0  0  0  0  0  0  0  0  0  0  0
   -3.2538    0.6268    0.8618 C   0  0  0  0  0  0  0  0  0  0  0  0
   -2.2962    0.6449    1.8815 N   0  0  0  0  0  0  0  0  0  0  0  0
   -1.0071    0.2078    1.7231 C   0  0  0  0  0  0  0  0  0  0  0  0
   -0.1691    0.3706    2.6121 O   0  0  0  0  0  0  0  0  0  0  0  0
    3.4892   -2.8869   -0.3044 C   0  0  0  0  0  0  0  0  0  0  0  0
    3.5037   -1.8777    0.8023 C   0  0  0  0  0  0  0  0  0  0  0  0
    5.1768    2.1389   -1.4111 H   0  0  0  0  0  0  0  0  0  0  0  0
    3.9070    2.3471   -2.6397 H   0  0  0  0  0  0  0  0  0  0  0  0
    3.8463    3.2684   -1.1329 H   0  0  0  0  0  0  0  0  0  0  0  0
    2.2168    1.4015   -1.0542 H   0  0  0  0  0  0  0  0  0  0  0  0
    3.4789    1.1958    0.1771 H   0  0  0  0  0  0  0  0  0  0  0  0
    1.3028   -0.2364    1.0342 H   0  0  0  0  0  0  0  0  0  0  0  0
   -1.0557   -1.6019    0.5926 H   0  0  0  0  0  0  0  0  0  0  0  0
   -0.9511    1.0173   -1.0167 H   0  0  0  0  0  0  0  0  0  0  0  0
   -1.3272   -0.5940   -1.6330 H   0  0  0  0  0  0  0  0  0  0  0  0
   -3.5451    0.0850   -2.4919 H   0  0  0  0  0  0  0  0  0  0  0  0
   -5.8939    0.6313   -1.9747 H   0  0  0  0  0  0  0  0  0  0  0  0
   -4.8708    1.2178    2.1670 H   0  0  0  0  0  0  0  0  0  0  0  0
   -2.5254    1.0370    2.7865 H   0  0  0  0  0  0  0  0  0  0  0  0
    2.8296   -3.7433   -0.2118 H   0  0  0  0  0  0  0  0  0  0  0  0
    4.4253   -3.1156   -0.8013 H   0  0  0  0  0  0  0  0  0  0  0  0
    4.4560   -1.4272    1.0588 H   0  0  0  0  0  0  0  0  0  0  0  0
    2.8704   -2.0732    1.6606 H   0  0  0  0  0  0  0  0  0  0  0  0
  1  2  1  0
  2  3  1  0
  3  4  1  0
  4  5  1  0
  5  6  2  0
  5  7  1  0
  7  8  1  0
  8  9  1  0
  9 10  1  0
 10 11  1  0
 11 12  2  0
 12 13  1  0
 13 14  1  0
 13 15  2  0
 15 16  1  0
 16 17  1  0
 17 18  1  0
 18 19  2  0
  4 20  1  0
 20 21  1  0
 21  4  1  0
 18  8  1  0
 16 10  2  0
  1 22  1  0
  1 23  1  0
  1 24  1  0
  2 25  1  0
  2 26  1  0
  7 27  1  0
  8 28  1  0
  9 29  1  0
  9 30  1  0
 11 31  1  0
 12 32  1  0
 15 33  1  0
 17 34  1  0
 20 35  1  0
 20 36  1  0
 21 37  1  0
 21 38  1  0
M  END
$$$$
OCNT-2309465
     RDKit          3D

 52 56  0  0  0  0  0  0  0  0999 V2000
    7.4774    0.4298    2.3479 C   0  0  0  0  0  0  0  0  0  0  0  0
    6.3367    0.3144    1.4106 C   0  0  0  0  0  0  0  0  0  0  0  0
    5.0986   -0.0168    1.7107 N   0  0  0  0  0  0  0  0  0  0  0  0
    4.4084    0.0032    0.5226 C   0  0  0  0  0  0  0  0  0  0  0  0
    3.0547   -0.2714    0.2619 C   0  0  0  0  0  0  0  0  0  0  0  0
    2.5519   -0.1837   -1.0510 C   0  0  0  0  0  0  0  0  0  0  0  0
    1.1533   -0.4236   -1.3310 N   0  0  0  0  0  0  0  0  0  0  0  0
    0.6692   -0.2128   -2.6942 C   0  0  0  0  0  0  0  0  0  0  0  0
    0.3081   -1.0535   -0.3943 C   0  0  0  0  0  0  0  0  0  0  0  0
    0.7105   -1.9062    0.3939 O   0  0  0  0  0  0  0  0  0  0  0  0
   -1.0853   -0.6436   -0.3969 C   0  0  0  0  0  0  0  0  0  0  0  0
   -1.6555    0.5816   -0.7026 C   0  0  0  0  0  0  0  0  0  0  0  0
   -3.0564    0.4365   -0.5331 C   0  0  0  0  0  0  0  0  0  0  0  0
   -4.1118    1.4355   -0.7420 C   0  0  0  0  0  0  0  0  0  0  0  0
   -5.4643    1.0548   -0.7141 C   0  0  0  0  0  0  0  0  0  0  0  0
   -6.4813    1.9938   -0.9143 C   0  0  0  0  0  0  0  0  0  0  0  0
   -6.1539    3.3266   -1.1427 C   0  0  0  0  0  0  0  0  0  0  0  0
   -7.4006    4.4856   -1.3903 Cl  0  0  0  0  0  0  0  0  0  0  0  0
   -4.8204    3.7272   -1.1707 C   0  0  0  0  0  0  0  0  0  0  0  0
   -3.8038    2.7857   -0.9706 C   0  0  0  0  0  0  0  0  0  0  0  0
   -3.3414   -0.8135   -0.1428 N   0  0  0  0  0  0  0  0  0  0  0  0
   -2.1433   -1.4183    0.0129 N   0  0  0  0  0  0  0  0  0  0  0  0
   -2.1147   -2.8043    0.4750 C   0  0  0  0  0  0  0  0  0  0  0  0
   -1.9857   -3.0039    1.9603 C   0  0  0  0  0  0  0  0  0  0  0  0
   -1.5139   -1.9437    2.9290 C   0  0  0  0  0  0  0  0  0  0  0  0
   -2.9566   -2.3691    2.9276 C   0  0  0  0  0  0  0  0  0  0  0  0
    3.4417    0.2129   -2.0709 C   0  0  0  0  0  0  0  0  0  0  0  0
    4.8004    0.4872   -1.8372 C   0  0  0  0  0  0  0  0  0  0  0  0
    5.2417    0.3681   -0.5238 C   0  0  0  0  0  0  0  0  0  0  0  0
    6.4656    0.5549    0.0649 N   0  0  0  0  0  0  0  0  0  0  0  0
    8.2766   -0.2640    2.0694 H   0  0  0  0  0  0  0  0  0  0  0  0
    7.8799    1.4474    2.3412 H   0  0  0  0  0  0  0  0  0  0  0  0
    7.1623    0.1945    3.3692 H   0  0  0  0  0  0  0  0  0  0  0  0
    2.4363   -0.5310    1.1123 H   0  0  0  0  0  0  0  0  0  0  0  0
    1.2641   -0.8134   -3.3903 H   0  0  0  0  0  0  0  0  0  0  0  0
   -0.3639   -0.5443   -2.8258 H   0  0  0  0  0  0  0  0  0  0  0  0
    0.7385    0.8498   -2.9458 H   0  0  0  0  0  0  0  0  0  0  0  0
   -1.1169    1.4668   -1.0092 H   0  0  0  0  0  0  0  0  0  0  0  0
   -5.7352    0.0154   -0.5343 H   0  0  0  0  0  0  0  0  0  0  0  0
   -7.5196    1.6747   -0.8880 H   0  0  0  0  0  0  0  0  0  0  0  0
   -4.5634    4.7689   -1.3435 H   0  0  0  0  0  0  0  0  0  0  0  0
   -2.7740    3.1315   -0.9876 H   0  0  0  0  0  0  0  0  0  0  0  0
   -1.2982   -3.3109   -0.0498 H   0  0  0  0  0  0  0  0  0  0  0  0
   -3.0413   -3.2765    0.1254 H   0  0  0  0  0  0  0  0  0  0  0  0
   -1.6918   -4.0276    2.1727 H   0  0  0  0  0  0  0  0  0  0  0  0
   -1.2819   -0.9468    2.5746 H   0  0  0  0  0  0  0  0  0  0  0  0
   -0.8866   -2.2629    3.7546 H   0  0  0  0  0  0  0  0  0  0  0  0
   -3.3097   -2.9674    3.7599 H   0  0  0  0  0  0  0  0  0  0  0  0
   -3.6903   -1.6645    2.5509 H   0  0  0  0  0  0  0  0  0  0  0  0
    3.1083    0.3202   -3.0993 H   0  0  0  0  0  0  0  0  0  0  0  0
    5.4619    0.7809   -2.6447 H   0  0  0  0  0  0  0  0  0  0  0  0
    7.3157    0.8258   -0.4067 H   0  0  0  0  0  0  0  0  0  0  0  0
  1  2  1  0
  2  3  2  0
  3  4  1  0
  4  5  2  0
  5  6  1  0
  6  7  1  0
  7  8  1  0
  7  9  1  0
  9 10  2  0
  9 11  1  0
 11 12  2  0
 12 13  1  0
 13 14  1  0
 14 15  1  0
 15 16  2  0
 16 17  1  0
 17 18  1  0
 17 19  2  0
 19 20  1  0
 13 21  2  0
 21 22  1  0
 22 23  1  0
 23 24  1  0
 24 25  1  0
 25 26  1  0
  6 27  2  0
 27 28  1  0
 28 29  2  0
 29 30  1  0
 30  2  1  0
 29  4  1  0
 22 11  1  0
 26 24  1  0
 20 14  2  0
  1 31  1  0
  1 32  1  0
  1 33  1  0
  5 34  1  0
  8 35  1  0
  8 36  1  0
  8 37  1  0
 12 38  1  0
 15 39  1  0
 16 40  1  0
 19 41  1  0
 20 42  1  0
 23 43  1  0
 23 44  1  0
 24 45  1  0
 25 46  1  0
 25 47  1  0
 26 48  1  0
 26 49  1  0
 27 50  1  0
 28 51  1  0
 30 52  1  0
M  END
$$$$
OCNT-2309466
     RDKit          3D

 45 47  0  0  0  0  0  0  0  0999 V2000
    4.1657    2.8885   -0.8225 C   0  0  0  0  0  0  0  0  0  0  0  0
    4.3179    1.5043   -0.1956 C   0  0  0  0  0  0  0  0  0  0  0  0
    5.6344    0.8728   -0.6382 C   0  0  0  0  0  0  0  0  0  0  0  0
    3.2176    0.7172   -0.6650 O   0  0  0  0  0  0  0  0  0  0  0  0
    2.7502   -0.2987    0.1148 C   0  0  0  0  0  0  0  0  0  0  0  0
    3.3006   -0.7816    1.2968 C   0  0  0  0  0  0  0  0  0  0  0  0
    2.7870   -1.8137    2.0142 N   0  0  0  0  0  0  0  0  0  0  0  0
    1.6655   -2.3937    1.5230 C   0  0  0  0  0  0  0  0  0  0  0  0
    1.0256   -1.9667    0.3696 C   0  0  0  0  0  0  0  0  0  0  0  0
   -0.1835   -2.6799   -0.0810 C   0  0  0  0  0  0  0  0  0  0  0  0
   -0.1547   -3.9090   -0.0707 O   0  0  0  0  0  0  0  0  0  0  0  0
   -1.2980   -1.9533   -0.4971 N   0  0  0  0  0  0  0  0  0  0  0  0
   -2.4076   -2.6988   -1.0869 C   0  0  0  0  0  0  0  0  0  0  0  0
   -3.3427   -1.7936   -1.8779 C   0  0  0  0  0  0  0  0  0  0  0  0
   -3.9294   -0.6735   -1.0149 C   0  0  0  0  0  0  0  0  0  0  0  0
   -3.0151   -0.2720    0.1560 C   0  0  0  0  0  0  0  0  0  0  0  0
   -3.2350    1.1571    0.5400 C   0  0  0  0  0  0  0  0  0  0  0  0
   -2.6764    2.2162   -0.0089 N   0  0  0  0  0  0  0  0  0  0  0  0
   -3.1816    3.2966    0.6655 C   0  0  0  0  0  0  0  0  0  0  0  0
   -4.0612    2.8921    1.6393 C   0  0  0  0  0  0  0  0  0  0  0  0
   -4.0892    1.5286    1.5501 N   0  0  0  0  0  0  0  0  0  0  0  0
   -1.5384   -0.5354   -0.1766 C   0  0  0  0  0  0  0  0  0  0  0  0
    1.5940   -0.9194   -0.3564 C   0  0  0  0  0  0  0  0  0  0  0  0
    3.2125    3.3382   -0.5238 H   0  0  0  0  0  0  0  0  0  0  0  0
    4.9768    3.5560   -0.5157 H   0  0  0  0  0  0  0  0  0  0  0  0
    4.1549    2.8272   -1.9166 H   0  0  0  0  0  0  0  0  0  0  0  0
    4.2887    1.6351    0.8921 H   0  0  0  0  0  0  0  0  0  0  0  0
    5.7602   -0.1250   -0.2066 H   0  0  0  0  0  0  0  0  0  0  0  0
    5.6609    0.7465   -1.7264 H   0  0  0  0  0  0  0  0  0  0  0  0
    6.4884    1.4870   -0.3363 H   0  0  0  0  0  0  0  0  0  0  0  0
    4.2053   -0.3694    1.7295 H   0  0  0  0  0  0  0  0  0  0  0  0
    1.2855   -3.2320    2.1013 H   0  0  0  0  0  0  0  0  0  0  0  0
   -2.9483   -3.1907   -0.2693 H   0  0  0  0  0  0  0  0  0  0  0  0
   -2.0075   -3.4860   -1.7361 H   0  0  0  0  0  0  0  0  0  0  0  0
   -4.1532   -2.3796   -2.3254 H   0  0  0  0  0  0  0  0  0  0  0  0
   -2.7839   -1.3435   -2.7086 H   0  0  0  0  0  0  0  0  0  0  0  0
   -4.1526    0.1831   -1.6642 H   0  0  0  0  0  0  0  0  0  0  0  0
   -4.8964   -0.9961   -0.6072 H   0  0  0  0  0  0  0  0  0  0  0  0
   -3.2746   -0.9062    1.0162 H   0  0  0  0  0  0  0  0  0  0  0  0
   -2.8853    4.3066    0.4132 H   0  0  0  0  0  0  0  0  0  0  0  0
   -4.6504    3.4376    2.3622 H   0  0  0  0  0  0  0  0  0  0  0  0
   -4.6393    0.9017    2.1214 H   0  0  0  0  0  0  0  0  0  0  0  0
   -0.9109   -0.2331    0.6686 H   0  0  0  0  0  0  0  0  0  0  0  0
   -1.2270    0.0485   -1.0517 H   0  0  0  0  0  0  0  0  0  0  0  0
    1.1504   -0.5904   -1.2918 H   0  0  0  0  0  0  0  0  0  0  0  0
  1  2  1  0
  2  3  1  0
  2  4  1  0
  4  5  1  0
  5  6  1  0
  6  7  2  0
  7  8  1  0
  8  9  2  0
  9 10  1  0
 10 11  2  0
 10 12  1  0
 12 13  1  0
 13 14  1  0
 14 15  1  0
 15 16  1  0
 16 17  1  0
 17 18  2  0
 18 19  1  0
 19 20  2  0
 20 21  1  0
 16 22  1  0
  9 23  1  0
 23  5  2  0
 22 12  1  0
 21 17  1  0
  1 24  1  0
  1 25  1  0
  1 26  1  0
  2 27  1  0
  3 28  1  0
  3 29  1  0
  3 30  1  0
  6 31  1  0
  8 32  1  0
 13 33  1  0
 13 34  1  0
 14 35  1  0
 14 36  1  0
 15 37  1  0
 15 38  1  0
 16 39  1  0
 19 40  1  0
 20 41  1  0
 21 42  1  0
 22 43  1  0
 22 44  1  0
 23 45  1  0
M  END
$$$$
OCNT-2309476
     RDKit          3D

 54 57  0  0  0  0  0  0  0  0999 V2000
    5.9727   -1.4216   -0.9003 C   0  0  0  0  0  0  0  0  0  0  0  0
    5.9686    0.0633   -0.5403 C   0  0  0  0  0  0  0  0  0  0  0  0
    6.5626    0.3224    0.8434 C   0  0  0  0  0  0  0  0  0  0  0  0
    4.6499    0.6709   -0.7021 N   0  0  0  0  0  0  0  0  0  0  0  0
    4.5125    1.6426   -1.6324 N   0  0  0  0  0  0  0  0  0  0  0  0
    3.2335    2.0023   -1.5353 C   0  0  0  0  0  0  0  0  0  0  0  0
    2.5323    1.2634   -0.5617 C   0  0  0  0  0  0  0  0  0  0  0  0
    1.2115    1.2427   -0.0832 C   0  0  0  0  0  0  0  0  0  0  0  0
    0.8863    0.3261    0.9267 C   0  0  0  0  0  0  0  0  0  0  0  0
   -0.7946    0.2826    1.5183 S   0  0  0  0  0  0  0  0  0  0  0  0
   -0.9017   -0.8137    2.4575 O   0  0  0  0  0  0  0  0  0  0  0  0
   -1.1261    1.6451    1.8740 O   0  0  0  0  0  0  0  0  0  0  0  0
   -1.6353   -0.1451    0.1276 N   0  0  0  0  0  0  0  0  0  0  0  0
   -1.3946   -1.4766   -0.4699 C   0  0  0  0  0  0  0  0  0  0  0  0
   -1.6635   -1.4168   -1.9917 C   0  0  0  0  0  0  0  0  0  0  0  0
   -2.8620   -0.6541   -2.4150 N   0  0  0  0  0  0  0  0  0  0  0  0
   -2.4813    0.5781   -3.1062 C   0  0  0  0  0  0  0  0  0  0  0  0
   -3.7323   -0.3648   -1.2514 C   0  0  0  0  0  0  0  0  0  0  0  0
   -3.0399    0.3463   -0.0374 C   0  0  0  0  0  0  0  0  0  0  0  0
   -3.9358    0.2702    1.1902 C   0  0  0  0  0  0  0  0  0  0  0  0
   -4.1930   -0.9404    1.8521 C   0  0  0  0  0  0  0  0  0  0  0  0
   -5.0315   -0.9807    2.9682 C   0  0  0  0  0  0  0  0  0  0  0  0
   -5.6252    0.1872    3.4395 C   0  0  0  0  0  0  0  0  0  0  0  0
   -5.3774    1.3977    2.7984 C   0  0  0  0  0  0  0  0  0  0  0  0
   -4.5389    1.4396    1.6827 C   0  0  0  0  0  0  0  0  0  0  0  0
    1.8401   -0.5387    1.4646 C   0  0  0  0  0  0  0  0  0  0  0  0
    3.1575   -0.5203    0.9945 C   0  0  0  0  0  0  0  0  0  0  0  0
    3.4802    0.3909   -0.0250 C   0  0  0  0  0  0  0  0  0  0  0  0
    6.9962   -1.8115   -0.9071 H   0  0  0  0  0  0  0  0  0  0  0  0
    5.3962   -2.0206   -0.1893 H   0  0  0  0  0  0  0  0  0  0  0  0
    5.5445   -1.5835   -1.8956 H   0  0  0  0  0  0  0  0  0  0  0  0
    6.6201    0.5691   -1.2666 H   0  0  0  0  0  0  0  0  0  0  0  0
    6.5516    1.3923    1.0791 H   0  0  0  0  0  0  0  0  0  0  0  0
    6.0124   -0.1974    1.6331 H   0  0  0  0  0  0  0  0  0  0  0  0
    7.6021   -0.0202    0.8845 H   0  0  0  0  0  0  0  0  0  0  0  0
    2.8604    2.7876   -2.1796 H   0  0  0  0  0  0  0  0  0  0  0  0
    0.4616    1.9189   -0.4842 H   0  0  0  0  0  0  0  0  0  0  0  0
   -2.0439   -2.2218    0.0012 H   0  0  0  0  0  0  0  0  0  0  0  0
   -0.3621   -1.8037   -0.3155 H   0  0  0  0  0  0  0  0  0  0  0  0
   -0.7641   -1.0287   -2.4883 H   0  0  0  0  0  0  0  0  0  0  0  0
   -1.7760   -2.4456   -2.3547 H   0  0  0  0  0  0  0  0  0  0  0  0
   -3.3713    1.1362   -3.4174 H   0  0  0  0  0  0  0  0  0  0  0  0
   -1.9271    0.3425   -4.0218 H   0  0  0  0  0  0  0  0  0  0  0  0
   -1.8585    1.2364   -2.4908 H   0  0  0  0  0  0  0  0  0  0  0  0
   -4.1560   -1.3266   -0.9312 H   0  0  0  0  0  0  0  0  0  0  0  0
   -4.6026    0.2241   -1.5717 H   0  0  0  0  0  0  0  0  0  0  0  0
   -2.9325    1.4032   -0.3210 H   0  0  0  0  0  0  0  0  0  0  0  0
   -3.7320   -1.8657    1.5182 H   0  0  0  0  0  0  0  0  0  0  0  0
   -5.2119   -1.9244    3.4764 H   0  0  0  0  0  0  0  0  0  0  0  0
   -6.2709    0.1556    4.3128 H   0  0  0  0  0  0  0  0  0  0  0  0
   -5.8281    2.3131    3.1728 H   0  0  0  0  0  0  0  0  0  0  0  0
   -4.3471    2.4009    1.2099 H   0  0  0  0  0  0  0  0  0  0  0  0
    1.5697   -1.2347    2.2571 H   0  0  0  0  0  0  0  0  0  0  0  0
    3.8943   -1.1941    1.4190 H   0  0  0  0  0  0  0  0  0  0  0  0
  1  2  1  0
  2  3  1  0
  2  4  1  0
  4  5  1  0
  5  6  2  0
  6  7  1  0
  7  8  2  0
  8  9  1  0
  9 10  1  0
 10 11  2  0
 10 12  2  0
 10 13  1  0
 13 14  1  0
 14 15  1  0
 15 16  1  0
 16 17  1  0
 16 18  1  0
 18 19  1  0
 19 20  1  0
 20 21  2  0
 21 22  1  0
 22 23  2  0
 23 24  1  0
 24 25  2  0
  9 26  2  0
 26 27  1  0
 27 28  2  0
 28  4  1  0
 28  7  1  0
 19 13  1  0
 25 20  1  0
  1 29  1  0
  1 30  1  0
  1 31  1  0
  2 32  1  0
  3 33  1  0
  3 34  1  0
  3 35  1  0
  6 36  1  0
  8 37  1  0
 14 38  1  0
 14 39  1  0
 15 40  1  0
 15 41  1  0
 17 42  1  0
 17 43  1  0
 17 44  1  0
 18 45  1  0
 18 46  1  0
 19 47  1  0
 21 48  1  0
 22 49  1  0
 23 50  1  0
 24 51  1  0
 25 52  1  0
 26 53  1  0
 27 54  1  0
M  END
$$$$
