OCNT-2309483
     RDKit          3D

 46 48  0  0  0  0  0  0  0  0999 V2000
    8.2037    1.0068   -0.1880 C   0  0  0  0  0  0  0  0  0  0  0  0
    7.3172    0.1399    0.5077 O   0  0  0  0  0  0  0  0  0  0  0  0
    5.9826    0.2504    0.2284 C   0  0  0  0  0  0  0  0  0  0  0  0
    5.4189    1.1201   -0.7017 C   0  0  0  0  0  0  0  0  0  0  0  0
    4.0358    1.1239   -0.8840 C   0  0  0  0  0  0  0  0  0  0  0  0
    3.5088    1.9662   -1.7881 F   0  0  0  0  0  0  0  0  0  0  0  0
    3.1844    0.2808   -0.1562 C   0  0  0  0  0  0  0  0  0  0  0  0
    1.8026    0.3693   -0.4339 N   0  0  0  0  0  0  0  0  0  0  0  0
    0.7687   -0.2261    0.2493 C   0  0  0  0  0  0  0  0  0  0  0  0
    0.9031   -0.8674    1.2875 O   0  0  0  0  0  0  0  0  0  0  0  0
   -0.4809   -0.0401   -0.3276 N   0  0  0  0  0  0  0  0  0  0  0  0
   -0.7214    0.4817   -1.6735 C   0  0  0  0  0  0  0  0  0  0  0  0
   -2.1437    0.1918   -2.1497 C   0  0  0  0  0  0  0  0  0  0  0  0
   -3.1012    0.7301   -1.2385 O   0  0  0  0  0  0  0  0  0  0  0  0
   -2.9489    0.2747    0.1320 C   0  0  0  0  0  0  0  0  0  0  0  0
   -2.8680    1.5657    0.9662 C   0  0  0  0  0  0  0  0  0  0  0  0
   -4.1946   -0.5224    0.5470 C   0  0  0  0  0  0  0  0  0  0  0  0
   -5.2623   -0.7340   -0.3426 C   0  0  0  0  0  0  0  0  0  0  0  0
   -6.3894   -1.4656    0.0418 C   0  0  0  0  0  0  0  0  0  0  0  0
   -6.4728   -1.9987    1.3244 C   0  0  0  0  0  0  0  0  0  0  0  0
   -5.4313   -1.7978    2.2249 C   0  0  0  0  0  0  0  0  0  0  0  0
   -4.3044   -1.0660    1.8414 C   0  0  0  0  0  0  0  0  0  0  0  0
   -1.6614   -0.5835    0.3531 C   0  0  0  0  0  0  0  0  0  0  0  0
    3.7508   -0.5929    0.7671 C   0  0  0  0  0  0  0  0  0  0  0  0
    5.1352   -0.5997    0.9514 C   0  0  0  0  0  0  0  0  0  0  0  0
    5.6542   -1.4532    1.8477 F   0  0  0  0  0  0  0  0  0  0  0  0
    7.9828    2.0566    0.0316 H   0  0  0  0  0  0  0  0  0  0  0  0
    9.2192    0.7995    0.1629 H   0  0  0  0  0  0  0  0  0  0  0  0
    8.1773    0.8142   -1.2656 H   0  0  0  0  0  0  0  0  0  0  0  0
    6.0113    1.8018   -1.2996 H   0  0  0  0  0  0  0  0  0  0  0  0
    1.5537    1.0761   -1.1108 H   0  0  0  0  0  0  0  0  0  0  0  0
    0.0080    0.0514   -2.3676 H   0  0  0  0  0  0  0  0  0  0  0  0
   -0.5610    1.5646   -1.6218 H   0  0  0  0  0  0  0  0  0  0  0  0
   -2.3118    0.6607   -3.1242 H   0  0  0  0  0  0  0  0  0  0  0  0
   -2.3225   -0.8832   -2.2680 H   0  0  0  0  0  0  0  0  0  0  0  0
   -3.7784    2.1659    0.8469 H   0  0  0  0  0  0  0  0  0  0  0  0
   -2.0374    2.1971    0.6306 H   0  0  0  0  0  0  0  0  0  0  0  0
   -2.7321    1.3657    2.0342 H   0  0  0  0  0  0  0  0  0  0  0  0
   -5.2330   -0.3241   -1.3500 H   0  0  0  0  0  0  0  0  0  0  0  0
   -7.2032   -1.6148   -0.6630 H   0  0  0  0  0  0  0  0  0  0  0  0
   -7.3500   -2.5664    1.6228 H   0  0  0  0  0  0  0  0  0  0  0  0
   -5.4950   -2.2090    3.2293 H   0  0  0  0  0  0  0  0  0  0  0  0
   -3.5125   -0.9237    2.5742 H   0  0  0  0  0  0  0  0  0  0  0  0
   -1.8029   -1.5928   -0.0571 H   0  0  0  0  0  0  0  0  0  0  0  0
   -1.4573   -0.7091    1.4227 H   0  0  0  0  0  0  0  0  0  0  0  0
    3.1589   -1.2849    1.3556 H   0  0  0  0  0  0  0  0  0  0  0  0
  1  2  1  0
  2  3  1  0
  3  4  1  0
  4  5  2  0
  5  6  1  0
  5  7  1  0
  7  8  1  0
  8  9  1  0
  9 10  2  0
  9 11  1  0
 11 12  1  0
 12 13  1  0
 13 14  1  0
 14 15  1  0
 15 16  1  0
 15 17  1  0
 17 18  2  0
 18 19  1  0
 19 20  2  0
 20 21  1  0
 21 22  2  0
 15 23  1  0
  7 24  2  0
 24 25  1  0
 25 26  1  0
 25  3  2  0
 23 11  1  0
 22 17  1  0
  1 27  1  0
  1 28  1  0
  1 29  1  0
  4 30  1  0
  8 31  1  0
 12 32  1  0
 12 33  1  0
 13 34  1  0
 13 35  1  0
 16 36  1  0
 16 37  1  0
 16 38  1  0
 18 39  1  0
 19 40  1  0
 20 41  1  0
 21 42  1  0
 22 43  1  0
 23 44  1  0
 23 45  1  0
 24 46  1  0
M  END
$$$$
OCNT-2309487
     RDKit          3D

 44 47  0  0  0  0  0  0  0  0999 V2000
   -5.8492    0.9501   -1.0777 C   0  0  0  0  0  0  0  0  0  0  0  0
   -6.0551    0.1731    0.5151 S   0  0  0  0  0  0  0  0  0  0  0  0
   -6.5863   -1.1548    0.2915 O   0  0  0  0  0  0  0  0  0  0  0  0
   -6.7596    1.1132    1.3645 O   0  0  0  0  0  0  0  0  0  0  0  0
   -4.4764    0.0665    1.0850 N   0  0  0  0  0  0  0  0  0  0  0  0
   -3.8280    1.3044    1.5913 C   0  0  0  0  0  0  0  0  0  0  0  0
   -2.3163    1.0306    1.5486 C   0  0  0  0  0  0  0  0  0  0  0  0
   -2.2121   -0.1749    0.6621 C   0  0  0  0  0  0  0  0  0  0  0  0
   -1.0616   -0.7824    0.1600 C   0  0  0  0  0  0  0  0  0  0  0  0
    0.1913   -0.1929    0.4241 N   0  0  0  0  0  0  0  0  0  0  0  0
    1.4386   -0.7081    0.1423 C   0  0  0  0  0  0  0  0  0  0  0  0
    1.6929   -1.8094   -0.3234 O   0  0  0  0  0  0  0  0  0  0  0  0
    2.4222    0.2059    0.4772 N   0  0  0  0  0  0  0  0  0  0  0  0
    3.8169   -0.1117    0.2200 C   0  0  0  0  0  0  0  0  0  0  0  0
    4.7842    0.8572    0.9317 C   0  0  0  0  0  0  0  0  0  0  0  0
    6.0059    0.9124    0.0589 C   0  0  0  0  0  0  0  0  0  0  0  0
    6.6815   -0.3339   -0.4539 C   0  0  0  0  0  0  0  0  0  0  0  0
    5.6482    0.3796   -1.2880 C   0  0  0  0  0  0  0  0  0  0  0  0
    4.1991   -0.0202   -1.2749 C   0  0  0  0  0  0  0  0  0  0  0  0
   -1.2246   -1.9503   -0.5913 C   0  0  0  0  0  0  0  0  0  0  0  0
   -2.4971   -2.5111   -0.7915 C   0  0  0  0  0  0  0  0  0  0  0  0
   -3.6357   -1.9023   -0.2650 C   0  0  0  0  0  0  0  0  0  0  0  0
   -3.4815   -0.7152    0.4252 C   0  0  0  0  0  0  0  0  0  0  0  0
   -6.8432    1.0788   -1.5130 H   0  0  0  0  0  0  0  0  0  0  0  0
   -5.2513    0.3051   -1.7230 H   0  0  0  0  0  0  0  0  0  0  0  0
   -5.3797    1.9261   -0.9507 H   0  0  0  0  0  0  0  0  0  0  0  0
   -4.0630    2.1589    0.9473 H   0  0  0  0  0  0  0  0  0  0  0  0
   -4.1580    1.5306    2.6098 H   0  0  0  0  0  0  0  0  0  0  0  0
   -1.9388    0.7922    2.5487 H   0  0  0  0  0  0  0  0  0  0  0  0
   -1.7749    1.8927    1.1479 H   0  0  0  0  0  0  0  0  0  0  0  0
    0.1990    0.6144    1.0269 H   0  0  0  0  0  0  0  0  0  0  0  0
    2.1603    1.1706    0.3411 H   0  0  0  0  0  0  0  0  0  0  0  0
    4.0097   -1.1334    0.5736 H   0  0  0  0  0  0  0  0  0  0  0  0
    4.3499    1.8608    1.0117 H   0  0  0  0  0  0  0  0  0  0  0  0
    5.0230    0.5110    1.9424 H   0  0  0  0  0  0  0  0  0  0  0  0
    6.5803    1.8235    0.1468 H   0  0  0  0  0  0  0  0  0  0  0  0
    7.7189   -0.2561   -0.7618 H   0  0  0  0  0  0  0  0  0  0  0  0
    6.4321   -1.2921   -0.0128 H   0  0  0  0  0  0  0  0  0  0  0  0
    5.9618    0.9009   -2.1809 H   0  0  0  0  0  0  0  0  0  0  0  0
    3.6048    0.7467   -1.7854 H   0  0  0  0  0  0  0  0  0  0  0  0
    4.0392   -0.9728   -1.7898 H   0  0  0  0  0  0  0  0  0  0  0  0
   -0.3743   -2.4703   -1.0243 H   0  0  0  0  0  0  0  0  0  0  0  0
   -2.5898   -3.4400   -1.3505 H   0  0  0  0  0  0  0  0  0  0  0  0
   -4.6032   -2.3734   -0.3988 H   0  0  0  0  0  0  0  0  0  0  0  0
  1  2  1  0
  2  3  2  0
  2  4  2  0
  2  5  1  0
  5  6  1  0
  6  7  1  0
  7  8  1  0
  8  9  2  0
  9 10  1  0
 10 11  1  0
 11 12  2  0
 11 13  1  0
 13 14  1  0
 14 15  1  0
 15 16  1  0
 16 17  1  0
 17 18  1  0
 18 19  1  0
  9 20  1  0
 20 21  2  0
 21 22  1  0
 22 23  2  0
 23  5  1  0
 23  8  1  0
 19 14  1  0
 18 16  1  0
  1 24  1  0
  1 25  1  0
  1 26  1  0
  6 27  1  0
  6 28  1  0
  7 29  1  0
  7 30  1  0
 10 31  1  0
 13 32  1  0
 14 33  1  0
 15 34  1  0
 15 35  1  0
 16 36  1  0
 17 37  1  0
 17 38  1  0
 18 39  1  0
 19 40  1  0
 19 41  1  0
 20 42  1  0
 21 43  1  0
 22 44  1  0
M  END
$$$$
OCNT-2309491
     RDKit          3D

 45 49  0  0  0  0  0  0  0  0999 V2000
   -2.8582   -2.2235   -2.5984 O   0  0  0  0  0  0  0  0  0  0  0  0
   -2.1220   -1.8943   -1.6691 C   0  0  0  0  0  0  0  0  0  0  0  0
   -1.1170   -2.8481   -1.0562 C   0  0  0  0  0  0  0  0  0  0  0  0
    0.2769   -2.4417   -1.3900 C   0  0  0  0  0  0  0  0  0  0  0  0
    0.9700   -2.7587   -2.5422 C   0  0  0  0  0  0  0  0  0  0  0  0
    2.5399   -2.0870   -2.4854 S   0  0  0  0  0  0  0  0  0  0  0  0
    2.2065   -1.4128   -0.9296 C   0  0  0  0  0  0  0  0  0  0  0  0
    3.2134   -0.6309   -0.1754 C   0  0  0  0  0  0  0  0  0  0  0  0
    2.8478   -0.0915    1.0880 C   0  0  0  0  0  0  0  0  0  0  0  0
    3.7494    0.6468    1.8669 C   0  0  0  0  0  0  0  0  0  0  0  0
    5.0180    0.8327    1.3674 C   0  0  0  0  0  0  0  0  0  0  0  0
    6.0274    1.5091    1.9789 O   0  0  0  0  0  0  0  0  0  0  0  0
    7.0947    1.3294    1.0209 C   0  0  0  0  0  0  0  0  0  0  0  0
    6.6880    0.6068   -0.1588 O   0  0  0  0  0  0  0  0  0  0  0  0
    5.3927    0.3201    0.1493 C   0  0  0  0  0  0  0  0  0  0  0  0
    4.5225   -0.4069   -0.6417 C   0  0  0  0  0  0  0  0  0  0  0  0
    0.9877   -1.6697   -0.4802 N   0  0  0  0  0  0  0  0  0  0  0  0
   -2.1405   -0.6423   -1.0931 N   0  0  0  0  0  0  0  0  0  0  0  0
   -3.1556    0.3566   -1.4271 C   0  0  0  0  0  0  0  0  0  0  0  0
   -2.6117    1.7901   -1.1850 C   0  0  0  0  0  0  0  0  0  0  0  0
   -2.3544    2.1206    0.3012 C   0  0  0  0  0  0  0  0  0  0  0  0
   -3.4445    1.5535    1.1309 C   0  0  0  0  0  0  0  0  0  0  0  0
   -4.3911    0.6350    0.7356 C   0  0  0  0  0  0  0  0  0  0  0  0
   -5.1619    0.4061    1.8885 C   0  0  0  0  0  0  0  0  0  0  0  0
   -4.7325    1.1237    2.9328 N   0  0  0  0  0  0  0  0  0  0  0  0
   -3.6883    1.8202    2.4442 N   0  0  0  0  0  0  0  0  0  0  0  0
   -4.4801    0.0972   -0.6502 C   0  0  0  0  0  0  0  0  0  0  0  0
   -1.3216   -3.8584   -1.4278 H   0  0  0  0  0  0  0  0  0  0  0  0
   -1.2659   -2.8748    0.0292 H   0  0  0  0  0  0  0  0  0  0  0  0
    0.6331   -3.3383   -3.3930 H   0  0  0  0  0  0  0  0  0  0  0  0
    1.8414   -0.2576    1.4740 H   0  0  0  0  0  0  0  0  0  0  0  0
    3.4603    1.0488    2.8326 H   0  0  0  0  0  0  0  0  0  0  0  0
    7.4657    2.3166    0.7200 H   0  0  0  0  0  0  0  0  0  0  0  0
    7.9117    0.7784    1.5021 H   0  0  0  0  0  0  0  0  0  0  0  0
    4.8786   -0.7898   -1.5922 H   0  0  0  0  0  0  0  0  0  0  0  0
   -1.5621   -0.4956   -0.2727 H   0  0  0  0  0  0  0  0  0  0  0  0
   -3.3718    0.2442   -2.4983 H   0  0  0  0  0  0  0  0  0  0  0  0
   -1.6838    1.9461   -1.7533 H   0  0  0  0  0  0  0  0  0  0  0  0
   -3.3493    2.5058   -1.5765 H   0  0  0  0  0  0  0  0  0  0  0  0
   -2.2836    3.2057    0.4330 H   0  0  0  0  0  0  0  0  0  0  0  0
   -1.3975    1.6873    0.6146 H   0  0  0  0  0  0  0  0  0  0  0  0
   -6.0155   -0.2469    2.0163 H   0  0  0  0  0  0  0  0  0  0  0  0
   -3.1955    2.4507    3.0684 H   0  0  0  0  0  0  0  0  0  0  0  0
   -4.7181   -0.9733   -0.6324 H   0  0  0  0  0  0  0  0  0  0  0  0
   -5.3032    0.6106   -1.1640 H   0  0  0  0  0  0  0  0  0  0  0  0
  1  2  2  0
  2  3  1  0
  3  4  1  0
  4  5  2  0
  5  6  1  0
  6  7  1  0
  7  8  1  0
  8  9  1  0
  9 10  2  0
 10 11  1  0
 11 12  1  0
 12 13  1  0
 13 14  1  0
 14 15  1  0
 15 16  1  0
  7 17  2  0
  2 18  1  0
 18 19  1  0
 19 20  1  0
 20 21  1  0
 21 22  1  0
 22 23  2  0
 23 24  1  0
 24 25  2  0
 25 26  1  0
 23 27  1  0
 17  4  1  0
 27 19  1  0
 16  8  2  0
 26 22  1  0
 15 11  2  0
  3 28  1  0
  3 29  1  0
  5 30  1  0
  9 31  1  0
 10 32  1  0
 13 33  1  0
 13 34  1  0
 16 35  1  0
 18 36  1  0
 19 37  1  0
 20 38  1  0
 20 39  1  0
 21 40  1  0
 21 41  1  0
 24 42  1  0
 26 43  1  0
 27 44  1  0
 27 45  1  0
M  END
$$$$
OCNT-2309502
     RDKit          3D

 38 41  0  0  0  0  0  0  0  0999 V2000
   -5.1670    0.5922   -0.3580 O   0  0  0  0  0  0  0  0  0  0  0  0
   -3.9408    0.6802   -0.4443 C   0  0  0  0  0  0  0  0  0  0  0  0
   -3.3132    1.8310   -1.1973 C   0  0  0  0  0  0  0  0  0  0  0  0
   -2.0181    1.4302   -1.8686 C   0  0  0  0  0  0  0  0  0  0  0  0
   -1.1067    0.7700   -0.8765 C   0  0  0  0  0  0  0  0  0  0  0  0
   -1.6554   -0.0552    0.1119 C   0  0  0  0  0  0  0  0  0  0  0  0
   -0.8041   -0.7739    0.9635 C   0  0  0  0  0  0  0  0  0  0  0  0
    0.5871   -0.6092    0.8567 C   0  0  0  0  0  0  0  0  0  0  0  0
    1.1555    0.2257   -0.1183 C   0  0  0  0  0  0  0  0  0  0  0  0
    2.6157    0.3859   -0.2296 C   0  0  0  0  0  0  0  0  0  0  0  0
    3.2011    1.6662   -0.2606 C   0  0  0  0  0  0  0  0  0  0  0  0
    4.5886    1.8299   -0.3665 C   0  0  0  0  0  0  0  0  0  0  0  0
    5.4220    0.7161   -0.4446 C   0  0  0  0  0  0  0  0  0  0  0  0
    4.8605   -0.5515   -0.4148 C   0  0  0  0  0  0  0  0  0  0  0  0
    5.6906   -1.6345   -0.4948 O   0  0  0  0  0  0  0  0  0  0  0  0
    3.4790   -0.7166   -0.3074 C   0  0  0  0  0  0  0  0  0  0  0  0
    2.9940   -1.9700   -0.2899 F   0  0  0  0  0  0  0  0  0  0  0  0
    0.2859    0.8992   -0.9907 C   0  0  0  0  0  0  0  0  0  0  0  0
   -1.3650   -1.6949    2.0125 C   0  0  0  0  0  0  0  0  0  0  0  0
   -2.6995   -2.2561    1.5492 C   0  0  0  0  0  0  0  0  0  0  0  0
   -3.6353   -1.1169    1.1787 C   0  0  0  0  0  0  0  0  0  0  0  0
   -3.0673   -0.1775    0.2179 N   0  0  0  0  0  0  0  0  0  0  0  0
   -4.0218    2.1866   -1.9535 H   0  0  0  0  0  0  0  0  0  0  0  0
   -3.1483    2.6442   -0.4800 H   0  0  0  0  0  0  0  0  0  0  0  0
   -2.2114    0.7252   -2.6864 H   0  0  0  0  0  0  0  0  0  0  0  0
   -1.5448    2.3203   -2.2988 H   0  0  0  0  0  0  0  0  0  0  0  0
    1.2373   -1.1500    1.5435 H   0  0  0  0  0  0  0  0  0  0  0  0
    2.5755    2.5546   -0.1885 H   0  0  0  0  0  0  0  0  0  0  0  0
    5.0170    2.8294   -0.3848 H   0  0  0  0  0  0  0  0  0  0  0  0
    6.4984    0.8358   -0.5273 H   0  0  0  0  0  0  0  0  0  0  0  0
    5.1221   -2.4275   -0.4743 H   0  0  0  0  0  0  0  0  0  0  0  0
    0.6971    1.5226   -1.7835 H   0  0  0  0  0  0  0  0  0  0  0  0
   -0.6757   -2.5263    2.2006 H   0  0  0  0  0  0  0  0  0  0  0  0
   -1.4846   -1.1378    2.9492 H   0  0  0  0  0  0  0  0  0  0  0  0
   -2.5480   -2.9048    0.6765 H   0  0  0  0  0  0  0  0  0  0  0  0
   -3.1464   -2.8713    2.3378 H   0  0  0  0  0  0  0  0  0  0  0  0
   -4.5645   -1.5312    0.7698 H   0  0  0  0  0  0  0  0  0  0  0  0
   -3.9095   -0.5400    2.0712 H   0  0  0  0  0  0  0  0  0  0  0  0
  1  2  2  0
  2  3  1  0
  3  4  1  0
  4  5  1  0
  5  6  2  0
  6  7  1  0
  7  8  2  0
  8  9  1  0
  9 10  1  0
 10 11  2  0
 11 12  1  0
 12 13  2  0
 13 14  1  0
 14 15  1  0
 14 16  2  0
 16 17  1  0
  9 18  2  0
  7 19  1  0
 19 20  1  0
 20 21  1  0
 21 22  1  0
 22  2  1  0
 18  5  1  0
 22  6  1  0
 16 10  1  0
  3 23  1  0
  3 24  1  0
  4 25  1  0
  4 26  1  0
  8 27  1  0
 11 28  1  0
 12 29  1  0
 13 30  1  0
 15 31  1  0
 18 32  1  0
 19 33  1  0
 19 34  1  0
 20 35  1  0
 20 36  1  0
 21 37  1  0
 21 38  1  0
M  END
$$$$
OCNT-2309505
     RDKit          3D

 48 51  0  0  0  0  0  0  0  0999 V2000
    1.3200   -2.5061    0.8729 O   0  0  0  0  0  0  0  0  0  0  0  0
    1.7359   -1.3713    1.0875 C   0  0  0  0  0  0  0  0  0  0  0  0
    3.1033   -1.1078    1.7263 C   0  0  0  0  0  0  0  0  0  0  0  0
    3.6915    0.1426    1.3846 O   0  0  0  0  0  0  0  0  0  0  0  0
    4.2005    0.2853    0.1255 C   0  0  0  0  0  0  0  0  0  0  0  0
    4.2603   -0.6892   -0.8667 C   0  0  0  0  0  0  0  0  0  0  0  0
    4.7945   -0.3680   -2.1154 C   0  0  0  0  0  0  0  0  0  0  0  0
    5.2522    0.9213   -2.3306 C   0  0  0  0  0  0  0  0  0  0  0  0
    5.2114    1.8917   -1.3956 N   0  0  0  0  0  0  0  0  0  0  0  0
    4.6925    1.5479   -0.1923 C   0  0  0  0  0  0  0  0  0  0  0  0
    1.0219   -0.2327    0.7982 N   0  0  0  0  0  0  0  0  0  0  0  0
   -0.3028   -0.2649    0.2020 C   0  0  0  0  0  0  0  0  0  0  0  0
   -1.3583   -0.4131    1.2970 C   0  0  0  0  0  0  0  0  0  0  0  0
   -2.7708   -0.1613    0.7395 C   0  0  0  0  0  0  0  0  0  0  0  0
   -3.8070   -0.2242    1.8880 C   0  0  0  0  0  0  0  0  0  0  0  0
   -4.4763   -1.5900    2.0111 C   0  0  0  0  0  0  0  0  0  0  0  0
   -3.5870   -2.6205    1.6029 O   0  0  0  0  0  0  0  0  0  0  0  0
   -3.3054   -2.5831    0.2033 C   0  0  0  0  0  0  0  0  0  0  0  0
   -3.2061   -1.1630   -0.3445 C   0  0  0  0  0  0  0  0  0  0  0  0
   -2.8554    1.1784    0.2104 O   0  0  0  0  0  0  0  0  0  0  0  0
   -1.8099    1.6097   -0.5587 C   0  0  0  0  0  0  0  0  0  0  0  0
   -2.0485    2.7681   -1.3008 C   0  0  0  0  0  0  0  0  0  0  0  0
   -1.0592    3.2860   -2.1353 C   0  0  0  0  0  0  0  0  0  0  0  0
    0.1713    2.6427   -2.2315 C   0  0  0  0  0  0  0  0  0  0  0  0
    0.4150    1.4907   -1.4826 C   0  0  0  0  0  0  0  0  0  0  0  0
   -0.5652    0.9749   -0.6157 C   0  0  0  0  0  0  0  0  0  0  0  0
    3.7873   -1.9376    1.5152 H   0  0  0  0  0  0  0  0  0  0  0  0
    2.9434   -1.0998    2.8106 H   0  0  0  0  0  0  0  0  0  0  0  0
    3.9030   -1.7021   -0.7129 H   0  0  0  0  0  0  0  0  0  0  0  0
    4.8514   -1.1110   -2.9039 H   0  0  0  0  0  0  0  0  0  0  0  0
    5.6757    1.2145   -3.2871 H   0  0  0  0  0  0  0  0  0  0  0  0
    4.6754    2.3493    0.5414 H   0  0  0  0  0  0  0  0  0  0  0  0
    1.4165    0.6646    1.0588 H   0  0  0  0  0  0  0  0  0  0  0  0
   -0.3511   -1.1308   -0.4701 H   0  0  0  0  0  0  0  0  0  0  0  0
   -1.2724   -1.3959    1.7745 H   0  0  0  0  0  0  0  0  0  0  0  0
   -1.1508    0.3284    2.0833 H   0  0  0  0  0  0  0  0  0  0  0  0
   -4.5861    0.5395    1.7665 H   0  0  0  0  0  0  0  0  0  0  0  0
   -3.3178    0.0211    2.8395 H   0  0  0  0  0  0  0  0  0  0  0  0
   -4.7648   -1.7733    3.0511 H   0  0  0  0  0  0  0  0  0  0  0  0
   -5.3922   -1.6389    1.4094 H   0  0  0  0  0  0  0  0  0  0  0  0
   -4.0783   -3.1470   -0.3304 H   0  0  0  0  0  0  0  0  0  0  0  0
   -2.3583   -3.1121    0.0539 H   0  0  0  0  0  0  0  0  0  0  0  0
   -4.1929   -0.8563   -0.7203 H   0  0  0  0  0  0  0  0  0  0  0  0
   -2.5658   -1.1420   -1.2331 H   0  0  0  0  0  0  0  0  0  0  0  0
   -3.0138    3.2633   -1.2342 H   0  0  0  0  0  0  0  0  0  0  0  0
   -1.2517    4.1854   -2.7140 H   0  0  0  0  0  0  0  0  0  0  0  0
    0.9436    3.0371   -2.8875 H   0  0  0  0  0  0  0  0  0  0  0  0
    1.3815    0.9991   -1.5776 H   0  0  0  0  0  0  0  0  0  0  0  0
  1  2  2  0
  2  3  1  0
  3  4  1  0
  4  5  1  0
  5  6  1  0
  6  7  2  0
  7  8  1  0
  8  9  2  0
  9 10  1  0
  2 11  1  0
 11 12  1  0
 12 13  1  0
 13 14  1  0
 14 15  1  0
 15 16  1  0
 16 17  1  0
 17 18  1  0
 18 19  1  0
 14 20  1  0
 20 21  1  0
 21 22  2  0
 22 23  1  0
 23 24  2  0
 24 25  1  0
 25 26  2  0
 10  5  2  0
 26 12  1  0
 19 14  1  0
 26 21  1  0
  3 27  1  0
  3 28  1  0
  6 29  1  0
  7 30  1  0
  8 31  1  0
 10 32  1  0
 11 33  1  0
 12 34  1  0
 13 35  1  0
 13 36  1  0
 15 37  1  0
 15 38  1  0
 16 39  1  0
 16 40  1  0
 18 41  1  0
 18 42  1  0
 19 43  1  0
 19 44  1  0
 22 45  1  0
 23 46  1  0
 24 47  1  0
 25 48  1  0
M  END
$$$$
OCNT-2309511
     RDKit          3D

 49 51  0  0  0  0  0  0  0  0999 V2000
    7.3775   -0.4917    0.0288 C   0  0  0  0  0  0  0  0  0  0  0  0
    5.9331   -0.4162   -0.2460 C   0  0  0  0  0  0  0  0  0  0  0  0
    4.8020   -0.6958    0.4790 C   0  0  0  0  0  0  0  0  0  0  0  0
    3.7355   -0.3943   -0.3954 C   0  0  0  0  0  0  0  0  0  0  0  0
    2.3831   -0.4882   -0.1815 N   0  0  0  0  0  0  0  0  0  0  0  0
    1.7718   -0.9828    0.9511 C   0  0  0  0  0  0  0  0  0  0  0  0
    2.3527   -1.4307    1.9390 O   0  0  0  0  0  0  0  0  0  0  0  0
    0.2161   -0.9005    0.8887 C   0  0  0  0  0  0  0  0  0  0  0  0
   -0.1933    0.4918    1.3729 C   0  0  0  0  0  0  0  0  0  0  0  0
   -0.5770    0.6710    2.7123 C   0  0  0  0  0  0  0  0  0  0  0  0
   -0.9445    1.9319    3.1851 C   0  0  0  0  0  0  0  0  0  0  0  0
   -0.9268    3.0311    2.3298 C   0  0  0  0  0  0  0  0  0  0  0  0
   -0.5356    2.8735    1.0026 C   0  0  0  0  0  0  0  0  0  0  0  0
   -0.1651    1.6147    0.5272 C   0  0  0  0  0  0  0  0  0  0  0  0
   -0.2902   -1.2602   -0.4908 N   0  0  0  0  0  0  0  0  0  0  0  0
    0.1030   -2.6493   -0.8132 C   0  0  0  0  0  0  0  0  0  0  0  0
   -1.7710   -1.1581   -0.5516 C   0  0  0  0  0  0  0  0  0  0  0  0
   -2.2708   -1.0652   -2.0021 C   0  0  0  0  0  0  0  0  0  0  0  0
   -3.7900   -0.9000   -2.0908 C   0  0  0  0  0  0  0  0  0  0  0  0
   -4.2809    0.3574   -1.5687 N   0  0  0  0  0  0  0  0  0  0  0  0
   -4.0994    1.5913   -2.1270 C   0  0  0  0  0  0  0  0  0  0  0  0
   -4.7619    2.4585   -1.2899 C   0  0  0  0  0  0  0  0  0  0  0  0
   -5.3506    1.7805   -0.2541 N   0  0  0  0  0  0  0  0  0  0  0  0
   -5.0456    0.5175   -0.4491 C   0  0  0  0  0  0  0  0  0  0  0  0
    4.1932    0.0397   -1.5753 N   0  0  0  0  0  0  0  0  0  0  0  0
    5.5725    0.0245   -1.4795 O   0  0  0  0  0  0  0  0  0  0  0  0
    7.8649   -1.1815   -0.6670 H   0  0  0  0  0  0  0  0  0  0  0  0
    7.8410    0.4936   -0.0798 H   0  0  0  0  0  0  0  0  0  0  0  0
    7.5659   -0.8458    1.0470 H   0  0  0  0  0  0  0  0  0  0  0  0
    4.7574   -1.0605    1.4942 H   0  0  0  0  0  0  0  0  0  0  0  0
    1.7931   -0.2301   -0.9634 H   0  0  0  0  0  0  0  0  0  0  0  0
   -0.1733   -1.6502    1.5923 H   0  0  0  0  0  0  0  0  0  0  0  0
   -0.5896   -0.1716    3.4008 H   0  0  0  0  0  0  0  0  0  0  0  0
   -1.2452    2.0571    4.2222 H   0  0  0  0  0  0  0  0  0  0  0  0
   -1.2190    4.0111    2.6976 H   0  0  0  0  0  0  0  0  0  0  0  0
   -0.5235    3.7314    0.3353 H   0  0  0  0  0  0  0  0  0  0  0  0
    0.1278    1.5157   -0.5153 H   0  0  0  0  0  0  0  0  0  0  0  0
   -0.3221   -3.3706   -0.1055 H   0  0  0  0  0  0  0  0  0  0  0  0
   -0.2194   -2.9272   -1.8212 H   0  0  0  0  0  0  0  0  0  0  0  0
    1.1893   -2.7792   -0.8153 H   0  0  0  0  0  0  0  0  0  0  0  0
   -2.1190   -0.2570   -0.0402 H   0  0  0  0  0  0  0  0  0  0  0  0
   -2.2452   -2.0021   -0.0337 H   0  0  0  0  0  0  0  0  0  0  0  0
   -2.0073   -1.9734   -2.5545 H   0  0  0  0  0  0  0  0  0  0  0  0
   -1.7738   -0.2279   -2.5082 H   0  0  0  0  0  0  0  0  0  0  0  0
   -4.1077   -0.9468   -3.1393 H   0  0  0  0  0  0  0  0  0  0  0  0
   -4.2977   -1.7132   -1.5593 H   0  0  0  0  0  0  0  0  0  0  0  0
   -3.5335    1.7500   -3.0339 H   0  0  0  0  0  0  0  0  0  0  0  0
   -4.8504    3.5333   -1.3801 H   0  0  0  0  0  0  0  0  0  0  0  0
   -5.3503   -0.3056    0.1839 H   0  0  0  0  0  0  0  0  0  0  0  0
  1  2  1  0
  2  3  2  0
  3  4  1  0
  4  5  1  0
  5  6  1  0
  6  7  2  0
  6  8  1  0
  8  9  1  0
  9 10  2  0
 10 11  1  0
 11 12  2  0
 12 13  1  0
 13 14  2  0
  8 15  1  0
 15 16  1  0
 15 17  1  0
 17 18  1  0
 18 19  1  0
 19 20  1  0
 20 21  1  0
 21 22  2  0
 22 23  1  0
 23 24  2  0
  4 25  2  0
 25 26  1  0
 26  2  1  0
 14  9  1  0
 24 20  1  0
  1 27  1  0
  1 28  1  0
  1 29  1  0
  3 30  1  0
  5 31  1  0
  8 32  1  0
 10 33  1  0
 11 34  1  0
 12 35  1  0
 13 36  1  0
 14 37  1  0
 16 38  1  0
 16 39  1  0
 16 40  1  0
 17 41  1  0
 17 42  1  0
 18 43  1  0
 18 44  1  0
 19 45  1  0
 19 46  1  0
 21 47  1  0
 22 48  1  0
 24 49  1  0
M  END
$$$$
OCNT-2309518
     RDKit          3D

 48 50  0  0  0  0  0  0  0  0999 V2000
   -6.3328    2.2605   -0.1722 C   0  0  0  0  0  0  0  0  0  0  0  0
   -4.8738    1.9146   -0.2894 C   0  0  0  0  0  0  0  0  0  0  0  0
   -3.9173    2.9370   -0.3095 C   0  0  0  0  0  0  0  0  0  0  0  0
   -2.5601    2.6335   -0.4248 C   0  0  0  0  0  0  0  0  0  0  0  0
   -2.1354    1.3055   -0.5241 C   0  0  0  0  0  0  0  0  0  0  0  0
   -0.7444    1.0801   -0.6274 N   0  0  0  0  0  0  0  0  0  0  0  0
   -0.1008   -0.1058   -0.9100 C   0  0  0  0  0  0  0  0  0  0  0  0
   -0.6698   -1.1475   -1.2285 O   0  0  0  0  0  0  0  0  0  0  0  0
    1.2864   -0.0478   -0.8091 N   0  0  0  0  0  0  0  0  0  0  0  0
    2.0592    1.1069   -0.3265 C   0  0  0  0  0  0  0  0  0  0  0  0
    3.5787    0.8589   -0.2692 C   0  0  0  0  0  0  0  0  0  0  0  0
    3.8627   -0.3753    0.4757 N   0  0  0  0  0  0  0  0  0  0  0  0
    5.1991   -0.5940    0.8061 C   0  0  0  0  0  0  0  0  0  0  0  0
    5.6012   -1.6668    1.6145 C   0  0  0  0  0  0  0  0  0  0  0  0
    6.8866   -1.9221    1.9763 N   0  0  0  0  0  0  0  0  0  0  0  0
    7.7893   -1.0398    1.5088 C   0  0  0  0  0  0  0  0  0  0  0  0
    7.4225    0.0354    0.7238 C   0  0  0  0  0  0  0  0  0  0  0  0
    6.1381    0.2767    0.3659 N   0  0  0  0  0  0  0  0  0  0  0  0
    3.0374   -1.5545    0.1410 C   0  0  0  0  0  0  0  0  0  0  0  0
    2.0605   -1.2755   -1.0186 C   0  0  0  0  0  0  0  0  0  0  0  0
   -3.0901    0.2846   -0.4904 C   0  0  0  0  0  0  0  0  0  0  0  0
   -4.4562    0.5759   -0.3914 C   0  0  0  0  0  0  0  0  0  0  0  0
   -5.4628   -0.3534   -0.3709 O   0  0  0  0  0  0  0  0  0  0  0  0
   -5.1562   -1.7281   -0.6292 C   0  0  0  0  0  0  0  0  0  0  0  0
   -4.9103   -2.5198    0.6491 C   0  0  0  0  0  0  0  0  0  0  0  0
   -5.9897   -2.4447    1.4691 F   0  0  0  0  0  0  0  0  0  0  0  0
   -3.8520   -2.0386    1.3425 F   0  0  0  0  0  0  0  0  0  0  0  0
   -6.8579    1.9974   -1.0957 H   0  0  0  0  0  0  0  0  0  0  0  0
   -6.7859    1.7271    0.6695 H   0  0  0  0  0  0  0  0  0  0  0  0
   -6.4784    3.3314    0.0043 H   0  0  0  0  0  0  0  0  0  0  0  0
   -4.2236    3.9774   -0.2323 H   0  0  0  0  0  0  0  0  0  0  0  0
   -1.8456    3.4517   -0.4358 H   0  0  0  0  0  0  0  0  0  0  0  0
   -0.1739    1.9071   -0.6099 H   0  0  0  0  0  0  0  0  0  0  0  0
    1.8533    1.9629   -0.9786 H   0  0  0  0  0  0  0  0  0  0  0  0
    1.6865    1.3467    0.6770 H   0  0  0  0  0  0  0  0  0  0  0  0
    4.0409    1.7279    0.2154 H   0  0  0  0  0  0  0  0  0  0  0  0
    3.9799    0.7839   -1.2882 H   0  0  0  0  0  0  0  0  0  0  0  0
    4.8757   -2.3629    2.0216 H   0  0  0  0  0  0  0  0  0  0  0  0
    8.8219   -1.2171    1.7854 H   0  0  0  0  0  0  0  0  0  0  0  0
    8.1562    0.7440    0.3566 H   0  0  0  0  0  0  0  0  0  0  0  0
    2.4667   -1.8326    1.0352 H   0  0  0  0  0  0  0  0  0  0  0  0
    3.6543   -2.4152   -0.1450 H   0  0  0  0  0  0  0  0  0  0  0  0
    1.4116   -2.1453   -1.1609 H   0  0  0  0  0  0  0  0  0  0  0  0
    2.6201   -1.1379   -1.9517 H   0  0  0  0  0  0  0  0  0  0  0  0
   -2.7568   -0.7439   -0.5089 H   0  0  0  0  0  0  0  0  0  0  0  0
   -6.0493   -2.1405   -1.1122 H   0  0  0  0  0  0  0  0  0  0  0  0
   -4.3414   -1.8436   -1.3509 H   0  0  0  0  0  0  0  0  0  0  0  0
   -4.7243   -3.5747    0.4278 H   0  0  0  0  0  0  0  0  0  0  0  0
  1  2  1  0
  2  3  1  0
  3  4  2  0
  4  5  1  0
  5  6  1  0
  6  7  1  0
  7  8  2  0
  7  9  1  0
  9 10  1  0
 10 11  1  0
 11 12  1  0
 12 13  1  0
 13 14  2  0
 14 15  1  0
 15 16  2  0
 16 17  1  0
 17 18  2  0
 12 19  1  0
 19 20  1  0
  5 21  2  0
 21 22  1  0
 22 23  1  0
 23 24  1  0
 24 25  1  0
 25 26  1  0
 25 27  1  0
 22  2  2  0
 20  9  1  0
 18 13  1  0
  1 28  1  0
  1 29  1  0
  1 30  1  0
  3 31  1  0
  4 32  1  0
  6 33  1  0
 10 34  1  0
 10 35  1  0
 11 36  1  0
 11 37  1  0
 14 38  1  0
 16 39  1  0
 17 40  1  0
 19 41  1  0
 19 42  1  0
 20 43  1  0
 20 44  1  0
 21 45  1  0
 24 46  1  0
 24 47  1  0
 25 48  1  0
M  END
$$$$
OCNT-2309520
     RDKit          3D

 47 49  0  0  0  0  0  0  0  0999 V2000
   -0.7071   -0.6730   -1.2921 O   0  0  0  0  0  0  0  0  0  0  0  0
   -0.7793    0.0450   -0.3003 C   0  0  0  0  0  0  0  0  0  0  0  0
    0.4305    0.5518    0.4521 C   0  0  0  0  0  0  0  0  0  0  0  0
    1.7297    0.0540   -0.1721 C   0  0  0  0  0  0  0  0  0  0  0  0
    2.9423    0.5728    0.5786 C   0  0  0  0  0  0  0  0  0  0  0  0
    2.8110    1.3330    1.5398 O   0  0  0  0  0  0  0  0  0  0  0  0
    4.1925    0.1330    0.1414 N   0  0  0  0  0  0  0  0  0  0  0  0
    4.4111   -0.4776   -1.1734 C   0  0  0  0  0  0  0  0  0  0  0  0
    5.6032   -1.4300   -1.1711 C   0  0  0  0  0  0  0  0  0  0  0  0
    6.8547   -0.7702   -0.6037 C   0  0  0  0  0  0  0  0  0  0  0  0
    7.2979    0.2421   -1.5041 O   0  0  0  0  0  0  0  0  0  0  0  0
    6.5736   -0.1697    0.7696 C   0  0  0  0  0  0  0  0  0  0  0  0
    5.3674    0.7638    0.7403 C   0  0  0  0  0  0  0  0  0  0  0  0
   -1.9676    0.4854    0.2513 N   0  0  0  0  0  0  0  0  0  0  0  0
   -3.2404    0.0751   -0.2547 C   0  0  2  0  0  0  0  0  0  0  0  0
   -3.8692    0.7790   -1.4172 C   0  0  0  0  0  0  0  0  0  0  0  0
   -4.4675    0.9449   -0.0403 C   0  0  1  0  0  0  0  0  0  0  0  0
   -5.8060    0.3146    0.2962 C   0  0  0  0  0  0  0  0  0  0  0  0
   -5.9092   -0.6623    1.3019 C   0  0  0  0  0  0  0  0  0  0  0  0
   -4.8077   -1.0398    1.9706 F   0  0  0  0  0  0  0  0  0  0  0  0
   -7.1191   -1.2633    1.6511 C   0  0  0  0  0  0  0  0  0  0  0  0
   -8.2883   -0.8885    1.0013 C   0  0  0  0  0  0  0  0  0  0  0  0
   -8.2359    0.0926    0.0145 C   0  0  0  0  0  0  0  0  0  0  0  0
   -7.0131    0.6887   -0.3264 C   0  0  0  0  0  0  0  0  0  0  0  0
   -7.0484    1.9333   -1.5296 Cl  0  0  0  0  0  0  0  0  0  0  0  0
    0.3583    0.2137    1.4928 H   0  0  0  0  0  0  0  0  0  0  0  0
    0.4037    1.6483    0.4488 H   0  0  0  0  0  0  0  0  0  0  0  0
    1.7465   -1.0419   -0.1544 H   0  0  0  0  0  0  0  0  0  0  0  0
    1.7868    0.3950   -1.2121 H   0  0  0  0  0  0  0  0  0  0  0  0
    4.5625    0.3384   -1.8903 H   0  0  0  0  0  0  0  0  0  0  0  0
    3.5278   -1.0317   -1.5002 H   0  0  0  0  0  0  0  0  0  0  0  0
    5.7860   -1.7707   -2.1968 H   0  0  0  0  0  0  0  0  0  0  0  0
    5.3567   -2.3115   -0.5662 H   0  0  0  0  0  0  0  0  0  0  0  0
    7.6558   -1.5142   -0.5296 H   0  0  0  0  0  0  0  0  0  0  0  0
    8.1483    0.5793   -1.1720 H   0  0  0  0  0  0  0  0  0  0  0  0
    7.4461    0.3892    1.1267 H   0  0  0  0  0  0  0  0  0  0  0  0
    6.3830   -0.9809    1.4833 H   0  0  0  0  0  0  0  0  0  0  0  0
    5.5877    1.6653    0.1551 H   0  0  0  0  0  0  0  0  0  0  0  0
    5.1479    1.0907    1.7627 H   0  0  0  0  0  0  0  0  0  0  0  0
   -1.9398    0.9719    1.1399 H   0  0  0  0  0  0  0  0  0  0  0  0
   -3.3676   -1.0056   -0.2270 H   0  0  0  0  0  0  0  0  0  0  0  0
   -4.3788    0.1636   -2.1501 H   0  0  0  0  0  0  0  0  0  0  0  0
   -3.3462    1.6238   -1.8504 H   0  0  0  0  0  0  0  0  0  0  0  0
   -4.2967    1.9121    0.4287 H   0  0  0  0  0  0  0  0  0  0  0  0
   -7.1344   -2.0185    2.4317 H   0  0  0  0  0  0  0  0  0  0  0  0
   -9.2363   -1.3495    1.2666 H   0  0  0  0  0  0  0  0  0  0  0  0
   -9.1524    0.3983   -0.4856 H   0  0  0  0  0  0  0  0  0  0  0  0
  1  2  2  0
  2  3  1  0
  3  4  1  0
  4  5  1  0
  5  6  2  0
  5  7  1  0
  7  8  1  0
  8  9  1  0
  9 10  1  0
 10 11  1  0
 10 12  1  0
 12 13  1  0
  2 14  1  0
 14 15  1  0
 15 16  1  0
 16 17  1  0
 17 18  1  0
 18 19  2  0
 19 20  1  0
 19 21  1  0
 21 22  2  0
 22 23  1  0
 23 24  2  0
 24 25  1  0
 13  7  1  0
 17 15  1  0
 24 18  1  0
  3 26  1  0
  3 27  1  0
  4 28  1  0
  4 29  1  0
  8 30  1  0
  8 31  1  0
  9 32  1  0
  9 33  1  0
 10 34  1  0
 11 35  1  0
 12 36  1  0
 12 37  1  0
 13 38  1  0
 13 39  1  0
 14 40  1  0
 15 41  1  6
 16 42  1  0
 16 43  1  0
 17 44  1  1
 21 45  1  0
 22 46  1  0
 23 47  1  0
M  END
$$$$
OCNT-2309527
     RDKit          3D

 39 40  0  0  0  0  0  0  0  0999 V2000
    4.7832    0.9110   -1.8672 C   0  0  0  0  0  0  0  0  0  0  0  0
    3.5299    0.7620   -1.0569 C   0  0  0  0  0  0  0  0  0  0  0  0
    3.5951    0.3811    0.2874 C   0  0  0  0  0  0  0  0  0  0  0  0
    2.4262    0.2075    1.0330 C   0  0  0  0  0  0  0  0  0  0  0  0
    1.1689    0.3991    0.4442 C   0  0  0  0  0  0  0  0  0  0  0  0
   -0.0934    0.2188    1.2570 C   0  0  0  0  0  0  0  0  0  0  0  0
   -0.9430   -0.8703    0.7602 N   0  0  0  0  0  0  0  0  0  0  0  0
   -2.1284   -0.6512    0.0316 C   0  0  0  0  0  0  0  0  0  0  0  0
   -2.7414   -1.5530   -0.5424 O   0  0  0  0  0  0  0  0  0  0  0  0
   -2.6993    0.7349   -0.0500 C   0  0  0  0  0  0  0  0  0  0  0  0
   -3.0106    1.3482    1.1185 N   0  0  0  0  0  0  0  0  0  0  0  0
   -3.5628    2.5753    1.0000 C   0  0  0  0  0  0  0  0  0  0  0  0
   -3.7960    3.1880   -0.2089 C   0  0  0  0  0  0  0  0  0  0  0  0
   -4.3422    4.4054   -0.2876 F   0  0  0  0  0  0  0  0  0  0  0  0
   -3.4336    2.4816   -1.3312 C   0  0  0  0  0  0  0  0  0  0  0  0
   -2.8786    1.2519   -1.2876 N   0  0  0  0  0  0  0  0  0  0  0  0
   -0.4340   -2.2444    0.9396 C   0  0  0  0  0  0  0  0  0  0  0  0
   -1.4069   -3.1175    1.7364 C   0  0  0  0  0  0  0  0  0  0  0  0
   -0.0302   -2.9157   -0.3748 C   0  0  0  0  0  0  0  0  0  0  0  0
    1.1073    0.7711   -0.9060 C   0  0  0  0  0  0  0  0  0  0  0  0
    2.2766    0.9432   -1.6506 C   0  0  0  0  0  0  0  0  0  0  0  0
    5.6163    1.2454   -1.2401 H   0  0  0  0  0  0  0  0  0  0  0  0
    4.6514    1.6584   -2.6567 H   0  0  0  0  0  0  0  0  0  0  0  0
    5.0478   -0.0463   -2.3265 H   0  0  0  0  0  0  0  0  0  0  0  0
    4.5589    0.2157    0.7639 H   0  0  0  0  0  0  0  0  0  0  0  0
    2.5073   -0.0854    2.0774 H   0  0  0  0  0  0  0  0  0  0  0  0
    0.1426   -0.0055    2.3046 H   0  0  0  0  0  0  0  0  0  0  0  0
   -0.6081    1.1805    1.2650 H   0  0  0  0  0  0  0  0  0  0  0  0
   -3.8228    3.0692    1.9306 H   0  0  0  0  0  0  0  0  0  0  0  0
   -3.5864    2.8960   -2.3224 H   0  0  0  0  0  0  0  0  0  0  0  0
    0.4747   -2.1727    1.5511 H   0  0  0  0  0  0  0  0  0  0  0  0
   -0.9459   -4.0805    1.9812 H   0  0  0  0  0  0  0  0  0  0  0  0
   -2.3283   -3.3246    1.1842 H   0  0  0  0  0  0  0  0  0  0  0  0
   -1.6844   -2.6277    2.6761 H   0  0  0  0  0  0  0  0  0  0  0  0
    0.4628   -3.8739   -0.1774 H   0  0  0  0  0  0  0  0  0  0  0  0
    0.6693   -2.2909   -0.9383 H   0  0  0  0  0  0  0  0  0  0  0  0
   -0.8892   -3.1176   -1.0209 H   0  0  0  0  0  0  0  0  0  0  0  0
    0.1470    0.9163   -1.3959 H   0  0  0  0  0  0  0  0  0  0  0  0
    2.2004    1.2166   -2.7008 H   0  0  0  0  0  0  0  0  0  0  0  0
  1  2  1  0
  2  3  1  0
  3  4  2  0
  4  5  1  0
  5  6  1  0
  6  7  1  0
  7  8  1  0
  8  9  2  0
  8 10  1  0
 10 11  2  0
 11 12  1  0
 12 13  2  0
 13 14  1  0
 13 15  1  0
 15 16  2  0
  7 17  1  0
 17 18  1  0
 17 19  1  0
  5 20  2  0
 20 21  1  0
 21  2  2  0
 16 10  1  0
  1 22  1  0
  1 23  1  0
  1 24  1  0
  3 25  1  0
  4 26  1  0
  6 27  1  0
  6 28  1  0
 12 29  1  0
 15 30  1  0
 17 31  1  0
 18 32  1  0
 18 33  1  0
 18 34  1  0
 19 35  1  0
 19 36  1  0
 19 37  1  0
 20 38  1  0
 21 39  1  0
M  END
$$$$
OCNT-2309539
     RDKit          3D

 48 51  0  0  0  0  0  0  0  0999 V2000
    7.0851   -0.4798    1.4267 C   0  0  0  0  0  0  0  0  0  0  0  0
    6.3065    0.0808    0.3775 O   0  0  0  0  0  0  0  0  0  0  0  0
    4.9507    0.1036    0.5577 C   0  0  0  0  0  0  0  0  0  0  0  0
    4.2637   -0.3627    1.6773 C   0  0  0  0  0  0  0  0  0  0  0  0
    2.8677   -0.2831    1.7302 C   0  0  0  0  0  0  0  0  0  0  0  0
    2.1375    0.2594    0.6628 C   0  0  0  0  0  0  0  0  0  0  0  0
    0.6260    0.3656    0.7665 C   0  0  0  0  0  0  0  0  0  0  0  0
    0.0115    0.5907   -0.5556 N   0  0  0  0  0  0  0  0  0  0  0  0
   -1.3815    0.7905   -0.3870 C   0  0  0  0  0  0  0  0  0  0  0  0
   -1.8158    2.0326   -0.1062 N   0  0  0  0  0  0  0  0  0  0  0  0
   -3.1277    2.1940    0.0993 C   0  0  0  0  0  0  0  0  0  0  0  0
   -3.6242    3.5785    0.3707 C   0  0  0  0  0  0  0  0  0  0  0  0
   -4.0318    1.2070    0.0478 N   0  0  0  0  0  0  0  0  0  0  0  0
   -3.5884   -0.0398   -0.2361 C   0  0  0  0  0  0  0  0  0  0  0  0
   -2.2474   -0.3058   -0.4965 C   0  0  0  0  0  0  0  0  0  0  0  0
   -1.6955   -1.6690   -0.8463 C   0  0  0  0  0  0  0  0  0  0  0  0
   -2.6530   -2.6370   -1.5481 C   0  0  0  0  0  0  0  0  0  0  0  0
   -3.6051   -3.3197   -0.6720 N   0  0  0  0  0  0  0  0  0  0  0  0
   -4.2752   -2.4439    0.2911 C   0  0  0  0  0  0  0  0  0  0  0  0
   -4.6824   -1.0780   -0.2614 C   0  0  0  0  0  0  0  0  0  0  0  0
    0.6449    1.7183   -1.2598 C   0  0  0  0  0  0  0  0  0  0  0  0
    2.0756    1.3175   -1.6350 C   0  0  0  0  0  0  0  0  0  0  0  0
    2.8318    0.7502   -0.4576 C   0  0  0  0  0  0  0  0  0  0  0  0
    4.2303    0.6550   -0.5048 C   0  0  0  0  0  0  0  0  0  0  0  0
    8.1364   -0.4276    1.1274 H   0  0  0  0  0  0  0  0  0  0  0  0
    6.8358   -1.5344    1.5837 H   0  0  0  0  0  0  0  0  0  0  0  0
    6.9736    0.0956    2.3517 H   0  0  0  0  0  0  0  0  0  0  0  0
    4.7817   -0.7941    2.5270 H   0  0  0  0  0  0  0  0  0  0  0  0
    2.3515   -0.6498    2.6150 H   0  0  0  0  0  0  0  0  0  0  0  0
    0.2428   -0.5680    1.1968 H   0  0  0  0  0  0  0  0  0  0  0  0
    0.3937    1.1879    1.4576 H   0  0  0  0  0  0  0  0  0  0  0  0
   -4.5154    3.5511    1.0052 H   0  0  0  0  0  0  0  0  0  0  0  0
   -2.8582    4.1695    0.8822 H   0  0  0  0  0  0  0  0  0  0  0  0
   -3.8776    4.0704   -0.5728 H   0  0  0  0  0  0  0  0  0  0  0  0
   -0.8520   -1.5399   -1.5367 H   0  0  0  0  0  0  0  0  0  0  0  0
   -1.2908   -2.1340    0.0615 H   0  0  0  0  0  0  0  0  0  0  0  0
   -3.1877   -2.1311   -2.3613 H   0  0  0  0  0  0  0  0  0  0  0  0
   -2.0567   -3.4194   -2.0339 H   0  0  0  0  0  0  0  0  0  0  0  0
   -3.1355   -4.0703   -0.1651 H   0  0  0  0  0  0  0  0  0  0  0  0
   -5.1810   -2.9710    0.6128 H   0  0  0  0  0  0  0  0  0  0  0  0
   -3.6532   -2.3274    1.1877 H   0  0  0  0  0  0  0  0  0  0  0  0
   -5.0820   -1.1613   -1.2794 H   0  0  0  0  0  0  0  0  0  0  0  0
   -5.5116   -0.7095    0.3579 H   0  0  0  0  0  0  0  0  0  0  0  0
    0.0991    1.9606   -2.1808 H   0  0  0  0  0  0  0  0  0  0  0  0
    0.6664    2.6198   -0.6314 H   0  0  0  0  0  0  0  0  0  0  0  0
    2.5992    2.1937   -2.0343 H   0  0  0  0  0  0  0  0  0  0  0  0
    2.0478    0.5517   -2.4204 H   0  0  0  0  0  0  0  0  0  0  0  0
    4.7702    1.0124   -1.3791 H   0  0  0  0  0  0  0  0  0  0  0  0
  1  2  1  0
  2  3  1  0
  3  4  1  0
  4  5  2  0
  5  6  1  0
  6  7  1  0
  7  8  1  0
  8  9  1  0
  9 10  1  0
 10 11  2  0
 11 12  1  0
 11 13  1  0
 13 14  2  0
 14 15  1  0
 15 16  1  0
 16 17  1  0
 17 18  1  0
 18 19  1  0
 19 20  1  0
  8 21  1  0
 21 22  1  0
 22 23  1  0
 23 24  1  0
 24  3  2  0
 23  6  2  0
 15  9  2  0
 20 14  1  0
  1 25  1  0
  1 26  1  0
  1 27  1  0
  4 28  1  0
  5 29  1  0
  7 30  1  0
  7 31  1  0
 12 32  1  0
 12 33  1  0
 12 34  1  0
 16 35  1  0
 16 36  1  0
 17 37  1  0
 17 38  1  0
 18 39  1  0
 19 40  1  0
 19 41  1  0
 20 42  1  0
 20 43  1  0
 21 44  1  0
 21 45  1  0
 22 46  1  0
 22 47  1  0
 24 48  1  0
M  END
$$$$
OCNT-2309546
     RDKit          3D

 55 59  0  0  0  0  0  0  0  0999 V2000
   -4.0101   -0.6245    1.3309 C   0  0  0  0  0  0  0  0  0  0  0  0
   -4.4314   -1.1756    0.0011 C   0  0  0  0  0  0  0  0  0  0  0  0
   -5.1519   -2.5886    0.0208 C   0  0  0  0  0  0  0  0  0  0  0  0
   -5.5361   -2.1098   -1.4148 C   0  0  0  0  0  0  0  0  0  0  0  0
   -4.2050   -1.9895   -2.1671 C   0  0  0  0  0  0  0  0  0  0  0  0
   -3.4481   -1.2960   -1.1163 N   0  0  0  0  0  0  0  0  0  0  0  0
   -2.3306   -0.5782   -1.4744 C   0  0  0  0  0  0  0  0  0  0  0  0
   -1.8465   -0.6383   -2.6034 O   0  0  0  0  0  0  0  0  0  0  0  0
   -1.8111    0.2310   -0.5078 N   0  0  0  0  0  0  0  0  0  0  0  0
   -0.6374    1.0327   -0.7929 C   0  0  0  0  0  0  0  0  0  0  0  0
   -0.4692    2.1674    0.1997 C   0  0  0  0  0  0  0  0  0  0  0  0
   -1.6071    2.9114    0.5779 C   0  0  0  0  0  0  0  0  0  0  0  0
   -1.5128    3.9742    1.4791 C   0  0  0  0  0  0  0  0  0  0  0  0
   -0.2782    4.3214    2.0092 C   0  0  0  0  0  0  0  0  0  0  0  0
    0.8632    3.6167    1.6257 C   0  0  0  0  0  0  0  0  0  0  0  0
    0.7965    2.5435    0.7121 C   0  0  0  0  0  0  0  0  0  0  0  0
    2.0482    1.8633    0.3361 C   0  0  0  0  0  0  0  0  0  0  0  0
    2.5398    1.9180   -0.9771 C   0  0  0  0  0  0  0  0  0  0  0  0
    3.7194    1.2558   -1.3342 C   0  0  0  0  0  0  0  0  0  0  0  0
    4.4418    0.5265   -0.3826 C   0  0  0  0  0  0  0  0  0  0  0  0
    5.7219   -0.1759   -0.7744 C   0  0  0  0  0  0  0  0  0  0  0  0
    5.7602   -1.5598   -0.3177 N   0  0  0  0  0  0  0  0  0  0  0  0
    5.0372   -2.6096   -0.8180 C   0  0  0  0  0  0  0  0  0  0  0  0
    5.3936   -3.7065   -0.0705 C   0  0  0  0  0  0  0  0  0  0  0  0
    6.3505   -3.2231    0.8410 C   0  0  0  0  0  0  0  0  0  0  0  0
    6.5852   -1.9175    0.6921 N   0  0  0  0  0  0  0  0  0  0  0  0
    3.9755    0.5035    0.9400 C   0  0  0  0  0  0  0  0  0  0  0  0
    2.7900    1.1549    1.2907 C   0  0  0  0  0  0  0  0  0  0  0  0
   -5.7686   -0.7239   -0.7065 C   0  0  0  0  0  0  0  0  0  0  0  0
   -4.8204   -0.7210    2.0642 H   0  0  0  0  0  0  0  0  0  0  0  0
   -3.1500   -1.1708    1.7390 H   0  0  0  0  0  0  0  0  0  0  0  0
   -3.7692    0.4441    1.2784 H   0  0  0  0  0  0  0  0  0  0  0  0
   -4.5026   -3.4672    0.0825 H   0  0  0  0  0  0  0  0  0  0  0  0
   -5.9797   -2.7086    0.7284 H   0  0  0  0  0  0  0  0  0  0  0  0
   -6.3825   -2.5839   -1.9154 H   0  0  0  0  0  0  0  0  0  0  0  0
   -4.2841   -1.3765   -3.0710 H   0  0  0  0  0  0  0  0  0  0  0  0
   -3.7413   -2.9571   -2.3842 H   0  0  0  0  0  0  0  0  0  0  0  0
   -1.8307   -0.1665    0.4151 H   0  0  0  0  0  0  0  0  0  0  0  0
    0.2065    0.3378   -0.7748 H   0  0  0  0  0  0  0  0  0  0  0  0
   -0.7127    1.4529   -1.8028 H   0  0  0  0  0  0  0  0  0  0  0  0
   -2.5841    2.6599    0.1630 H   0  0  0  0  0  0  0  0  0  0  0  0
   -2.4045    4.5278    1.7614 H   0  0  0  0  0  0  0  0  0  0  0  0
   -0.1975    5.1463    2.7140 H   0  0  0  0  0  0  0  0  0  0  0  0
    1.8267    3.9164    2.0424 H   0  0  0  0  0  0  0  0  0  0  0  0
    2.0005    2.4796   -1.7368 H   0  0  0  0  0  0  0  0  0  0  0  0
    4.0640    1.3175   -2.3649 H   0  0  0  0  0  0  0  0  0  0  0  0
    6.5840    0.3511   -0.3552 H   0  0  0  0  0  0  0  0  0  0  0  0
    5.8405   -0.2115   -1.8611 H   0  0  0  0  0  0  0  0  0  0  0  0
    4.3434   -2.4812   -1.6372 H   0  0  0  0  0  0  0  0  0  0  0  0
    5.0178   -4.7141   -0.1706 H   0  0  0  0  0  0  0  0  0  0  0  0
    6.8895   -3.7661    1.6042 H   0  0  0  0  0  0  0  0  0  0  0  0
    4.5279   -0.0318    1.7105 H   0  0  0  0  0  0  0  0  0  0  0  0
    2.4438    1.1014    2.3215 H   0  0  0  0  0  0  0  0  0  0  0  0
   -6.6570   -0.6446   -0.0706 H   0  0  0  0  0  0  0  0  0  0  0  0
   -5.7072    0.1625   -1.3462 H   0  0  0  0  0  0  0  0  0  0  0  0
  1  2  1  0
  2  3  1  0
  3  4  1  0
  4  5  1  0
  5  6  1  0
  6  7  1  0
  7  8  2  0
  7  9  1  0
  9 10  1  0
 10 11  1  0
 11 12  2  0
 12 13  1  0
 13 14  2  0
 14 15  1  0
 15 16  2  0
 16 17  1  0
 17 18  1  0
 18 19  2  0
 19 20  1  0
 20 21  1  0
 21 22  1  0
 22 23  1  0
 23 24  2  0
 24 25  1  0
 25 26  2  0
 20 27  2  0
 27 28  1  0
  4 29  1  0
  6  2  1  0
 16 11  1  0
 28 17  2  0
 29  2  1  0
 26 22  1  0
  1 30  1  0
  1 31  1  0
  1 32  1  0
  3 33  1  0
  3 34  1  0
  4 35  1  0
  5 36  1  0
  5 37  1  0
  9 38  1  0
 10 39  1  0
 10 40  1  0
 12 41  1  0
 13 42  1  0
 14 43  1  0
 15 44  1  0
 18 45  1  0
 19 46  1  0
 21 47  1  0
 21 48  1  0
 23 49  1  0
 24 50  1  0
 25 51  1  0
 27 52  1  0
 28 53  1  0
 29 54  1  0
 29 55  1  0
M  END
$$$$
OCNT-2309549
     RDKit          3D

 47 49  0  0  0  0  0  0  0  0999 V2000
    7.0512    2.5174    1.4943 C   0  0  0  0  0  0  0  0  0  0  0  0
    5.7299    1.8788    1.1800 C   0  0  0  0  0  0  0  0  0  0  0  0
    5.2079    1.9331   -0.1188 C   0  0  0  0  0  0  0  0  0  0  0  0
    3.9620    1.3688   -0.4070 C   0  0  0  0  0  0  0  0  0  0  0  0
    3.2257    0.7449    0.6075 C   0  0  0  0  0  0  0  0  0  0  0  0
    1.8930    0.1321    0.3441 C   0  0  0  0  0  0  0  0  0  0  0  0
    1.0334    0.2205    1.2127 O   0  0  0  0  0  0  0  0  0  0  0  0
    1.7866   -0.5148   -0.8745 N   0  0  0  0  0  0  0  0  0  0  0  0
    0.6468   -1.1513   -1.4131 C   0  0  0  0  0  0  0  0  0  0  0  0
    0.8013   -1.7897   -2.6481 C   0  0  0  0  0  0  0  0  0  0  0  0
   -0.2718   -2.4409   -3.2728 C   0  0  0  0  0  0  0  0  0  0  0  0
   -1.5309   -2.4528   -2.6467 C   0  0  0  0  0  0  0  0  0  0  0  0
   -2.7967   -3.0003   -2.9897 C   0  0  0  0  0  0  0  0  0  0  0  0
   -3.6758   -2.6921   -1.9769 C   0  0  0  0  0  0  0  0  0  0  0  0
   -2.9909   -1.9755   -1.0294 N   0  0  0  0  0  0  0  0  0  0  0  0
   -3.5741   -1.4745    0.2089 C   0  0  0  0  0  0  0  0  0  0  0  0
   -3.9591    0.0075    0.0970 C   0  0  0  0  0  0  0  0  0  0  0  0
   -4.6030    0.5430    1.3158 N   0  0  0  0  0  0  0  0  0  0  0  0
   -5.1786    1.8619    1.0332 C   0  0  0  0  0  0  0  0  0  0  0  0
   -3.6461    0.6573    2.4220 C   0  0  0  0  0  0  0  0  0  0  0  0
   -1.6743   -1.8146   -1.4139 C   0  0  0  0  0  0  0  0  0  0  0  0
   -0.6010   -1.1579   -0.7817 C   0  0  0  0  0  0  0  0  0  0  0  0
    3.7278    0.7186    1.9128 C   0  0  0  0  0  0  0  0  0  0  0  0
    4.9737    1.2823    2.1965 C   0  0  0  0  0  0  0  0  0  0  0  0
    7.5502    1.9966    2.3184 H   0  0  0  0  0  0  0  0  0  0  0  0
    6.9033    3.5647    1.7749 H   0  0  0  0  0  0  0  0  0  0  0  0
    7.7215    2.4733    0.6294 H   0  0  0  0  0  0  0  0  0  0  0  0
    5.7660    2.4263   -0.9123 H   0  0  0  0  0  0  0  0  0  0  0  0
    3.5673    1.4543   -1.4157 H   0  0  0  0  0  0  0  0  0  0  0  0
    2.6318   -0.5991   -1.4232 H   0  0  0  0  0  0  0  0  0  0  0  0
    1.7636   -1.7948   -3.1536 H   0  0  0  0  0  0  0  0  0  0  0  0
   -0.1312   -2.9309   -4.2316 H   0  0  0  0  0  0  0  0  0  0  0  0
   -3.0373   -3.5614   -3.8828 H   0  0  0  0  0  0  0  0  0  0  0  0
   -4.7258   -2.9248   -1.8556 H   0  0  0  0  0  0  0  0  0  0  0  0
   -2.8418   -1.6572    1.0019 H   0  0  0  0  0  0  0  0  0  0  0  0
   -4.4562   -2.0872    0.4301 H   0  0  0  0  0  0  0  0  0  0  0  0
   -4.6620    0.0978   -0.7426 H   0  0  0  0  0  0  0  0  0  0  0  0
   -3.0836    0.6133   -0.1722 H   0  0  0  0  0  0  0  0  0  0  0  0
   -5.9356    1.7907    0.2441 H   0  0  0  0  0  0  0  0  0  0  0  0
   -4.4186    2.5869    0.7194 H   0  0  0  0  0  0  0  0  0  0  0  0
   -5.6893    2.2572    1.9185 H   0  0  0  0  0  0  0  0  0  0  0  0
   -4.1318    1.0873    3.3056 H   0  0  0  0  0  0  0  0  0  0  0  0
   -2.7869    1.2867    2.1631 H   0  0  0  0  0  0  0  0  0  0  0  0
   -3.2772   -0.3258    2.7299 H   0  0  0  0  0  0  0  0  0  0  0  0
   -0.7596   -0.6711    0.1724 H   0  0  0  0  0  0  0  0  0  0  0  0
    3.1485    0.2594    2.7115 H   0  0  0  0  0  0  0  0  0  0  0  0
    5.3477    1.2558    3.2180 H   0  0  0  0  0  0  0  0  0  0  0  0
  1  2  1  0
  2  3  1  0
  3  4  2  0
  4  5  1  0
  5  6  1  0
  6  7  2  0
  6  8  1  0
  8  9  1  0
  9 10  2  0
 10 11  1  0
 11 12  2  0
 12 13  1  0
 13 14  2  0
 14 15  1  0
 15 16  1  0
 16 17  1  0
 17 18  1  0
 18 19  1  0
 18 20  1  0
 15 21  1  0
 21 22  2  0
  5 23  2  0
 23 24  1  0
 24  2  2  0
 22  9  1  0
 21 12  1  0
  1 25  1  0
  1 26  1  0
  1 27  1  0
  3 28  1  0
  4 29  1  0
  8 30  1  0
 10 31  1  0
 11 32  1  0
 13 33  1  0
 14 34  1  0
 16 35  1  0
 16 36  1  0
 17 37  1  0
 17 38  1  0
 19 39  1  0
 19 40  1  0
 19 41  1  0
 20 42  1  0
 20 43  1  0
 20 44  1  0
 22 45  1  0
 23 46  1  0
 24 47  1  0
M  END
$$$$
OCNT-2309554
     RDKit          3D

 45 47  0  0  0  0  0  0  0  0999 V2000
   -2.6921    0.1868   -2.5160 C   0  0  0  0  0  0  0  0  0  0  0  0
   -1.8198   -0.3089   -1.5082 O   0  0  0  0  0  0  0  0  0  0  0  0
   -2.3475   -0.5524   -0.2669 C   0  0  0  0  0  0  0  0  0  0  0  0
   -3.6464   -0.1861    0.1247 C   0  0  0  0  0  0  0  0  0  0  0  0
   -4.1074   -0.4608    1.4165 C   0  0  0  0  0  0  0  0  0  0  0  0
   -5.3478   -0.1496    1.9047 O   0  0  0  0  0  0  0  0  0  0  0  0
   -6.2655    0.4763    1.0187 C   0  0  0  0  0  0  0  0  0  0  0  0
   -3.2519   -1.1033    2.3121 C   0  0  0  0  0  0  0  0  0  0  0  0
   -3.6625   -1.3800    3.5590 F   0  0  0  0  0  0  0  0  0  0  0  0
   -1.9628   -1.4696    1.9423 C   0  0  0  0  0  0  0  0  0  0  0  0
   -1.4919   -1.1982    0.6475 C   0  0  0  0  0  0  0  0  0  0  0  0
   -0.0783   -1.6055    0.2871 C   0  0  0  0  0  0  0  0  0  0  0  0
    0.9492   -0.7504    0.8984 N   0  0  0  0  0  0  0  0  0  0  0  0
    1.0644    0.5715    0.2564 C   0  0  0  0  0  0  0  0  0  0  0  0
    1.5730    0.5469   -1.2096 C   0  0  1  0  0  0  0  0  0  0  0  0
    2.1261    1.8890   -1.6561 C   0  0  0  0  0  0  0  0  0  0  0  0
    3.5505    1.8489   -1.1463 C   0  0  0  0  0  0  0  0  0  0  0  0
    3.9116    0.3709   -1.2253 C   0  0  1  0  0  0  0  0  0  0  0  0
    4.6170   -0.1247   -0.0144 C   0  0  0  0  0  0  0  0  0  0  0  0
    5.8463    0.1329    0.3861 N   0  0  0  0  0  0  0  0  0  0  0  0
    5.9450   -0.5718    1.5527 C   0  0  0  0  0  0  0  0  0  0  0  0
    4.8496   -1.2439    1.9119 N   0  0  0  0  0  0  0  0  0  0  0  0
    4.0185   -0.9547    0.8949 N   0  0  0  0  0  0  0  0  0  0  0  0
    2.6790   -0.3649   -1.3502 O   0  0  0  0  0  0  0  0  0  0  0  0
   -3.0292    1.2007   -2.2775 H   0  0  0  0  0  0  0  0  0  0  0  0
   -2.1262    0.2368   -3.4513 H   0  0  0  0  0  0  0  0  0  0  0  0
   -3.5400   -0.4875   -2.6753 H   0  0  0  0  0  0  0  0  0  0  0  0
   -4.2969    0.3206   -0.5761 H   0  0  0  0  0  0  0  0  0  0  0  0
   -7.2016    0.6344    1.5628 H   0  0  0  0  0  0  0  0  0  0  0  0
   -5.8972    1.4564    0.6981 H   0  0  0  0  0  0  0  0  0  0  0  0
   -6.4844   -0.1650    0.1586 H   0  0  0  0  0  0  0  0  0  0  0  0
   -1.3342   -1.9716    2.6729 H   0  0  0  0  0  0  0  0  0  0  0  0
    0.0619   -1.6990   -0.7947 H   0  0  0  0  0  0  0  0  0  0  0  0
    0.0770   -2.6247    0.6650 H   0  0  0  0  0  0  0  0  0  0  0  0
    0.7080   -0.6146    1.8814 H   0  0  0  0  0  0  0  0  0  0  0  0
    1.7757    1.1334    0.8725 H   0  0  0  0  0  0  0  0  0  0  0  0
    0.1224    1.1290    0.3149 H   0  0  0  0  0  0  0  0  0  0  0  0
    0.7735    0.2158   -1.8782 H   0  0  0  0  0  0  0  0  0  0  0  0
    1.5560    2.7468   -1.2891 H   0  0  0  0  0  0  0  0  0  0  0  0
    2.1416    1.9331   -2.7520 H   0  0  0  0  0  0  0  0  0  0  0  0
    4.2259    2.4698   -1.7439 H   0  0  0  0  0  0  0  0  0  0  0  0
    3.5973    2.2287   -0.1184 H   0  0  0  0  0  0  0  0  0  0  0  0
    4.5100    0.1594   -2.1180 H   0  0  0  0  0  0  0  0  0  0  0  0
    6.8412   -0.5915    2.1592 H   0  0  0  0  0  0  0  0  0  0  0  0
    3.0627   -1.3094    0.8764 H   0  0  0  0  0  0  0  0  0  0  0  0
  1  2  1  0
  2  3  1  0
  3  4  1  0
  4  5  2  0
  5  6  1  0
  6  7  1  0
  5  8  1  0
  8  9  1  0
  8 10  2  0
 10 11  1  0
 11 12  1  0
 12 13  1  0
 13 14  1  0
 14 15  1  0
 15 16  1  0
 16 17  1  0
 17 18  1  0
 18 19  1  0
 19 20  2  0
 20 21  1  0
 21 22  2  0
 22 23  1  0
 18 24  1  0
 11  3  2  0
 24 15  1  0
 23 19  1  0
  1 25  1  0
  1 26  1  0
  1 27  1  0
  4 28  1  0
  7 29  1  0
  7 30  1  0
  7 31  1  0
 10 32  1  0
 12 33  1  0
 12 34  1  0
 13 35  1  0
 14 36  1  0
 14 37  1  0
 15 38  1  6
 16 39  1  0
 16 40  1  0
 17 41  1  0
 17 42  1  0
 18 43  1  6
 21 44  1  0
 23 45  1  0
M  END
$$$$
OCNT-2309565
     RDKit          3D

 45 47  0  0  0  0  0  0  0  0999 V2000
   -7.6083    0.5576    2.7132 C   0  0  0  0  0  0  0  0  0  0  0  0
   -6.3233    0.3831    2.0353 C   0  0  0  0  0  0  0  0  0  0  0  0
   -5.2681    0.2396    1.4796 C   0  0  0  0  0  0  0  0  0  0  0  0
   -3.9728    0.0678    0.7998 C   0  0  0  0  0  0  0  0  0  0  0  0
   -3.8753   -1.3190    0.1396 C   0  0  0  0  0  0  0  0  0  0  0  0
   -2.6171   -1.6282   -0.5547 N   0  0  0  0  0  0  0  0  0  0  0  0
   -1.4452   -1.7035    0.3199 C   0  0  0  0  0  0  0  0  0  0  0  0
   -0.4070   -0.6203    0.0329 C   0  0  0  0  0  0  0  0  0  0  0  0
    0.0873   -0.6776   -1.4264 C   0  0  0  0  0  0  0  0  0  0  0  0
    0.6829    0.6700   -1.8741 C   0  0  0  0  0  0  0  0  0  0  0  0
    1.8911    1.0384   -1.0965 C   0  0  0  0  0  0  0  0  0  0  0  0
    3.1175    0.5801   -1.1878 N   0  0  0  0  0  0  0  0  0  0  0  0
    3.7779    1.2934   -0.1997 C   0  0  0  0  0  0  0  0  0  0  0  0
    5.2070    1.1083    0.0752 C   0  0  0  0  0  0  0  0  0  0  0  0
    5.9527    0.1904   -0.6693 C   0  0  0  0  0  0  0  0  0  0  0  0
    7.3102    0.0315   -0.3888 C   0  0  0  0  0  0  0  0  0  0  0  0
    7.8781    0.7901    0.6216 C   0  0  0  0  0  0  0  0  0  0  0  0
    9.1774    0.6612    0.9151 F   0  0  0  0  0  0  0  0  0  0  0  0
    7.0807    1.6793    1.3180 C   0  0  0  0  0  0  0  0  0  0  0  0
    5.7609    1.8562    1.0696 N   0  0  0  0  0  0  0  0  0  0  0  0
    2.9826    2.1513    0.4645 N   0  0  0  0  0  0  0  0  0  0  0  0
    1.7361    1.9838   -0.1295 O   0  0  0  0  0  0  0  0  0  0  0  0
   -1.0391   -1.1251   -2.3799 C   0  0  0  0  0  0  0  0  0  0  0  0
   -2.4257   -0.8691   -1.7897 C   0  0  0  0  0  0  0  0  0  0  0  0
   -7.5303    1.3053    3.5082 H   0  0  0  0  0  0  0  0  0  0  0  0
   -8.3774    0.8892    2.0091 H   0  0  0  0  0  0  0  0  0  0  0  0
   -7.9417   -0.3826    3.1626 H   0  0  0  0  0  0  0  0  0  0  0  0
   -3.8611    0.8579    0.0497 H   0  0  0  0  0  0  0  0  0  0  0  0
   -3.1676    0.2014    1.5305 H   0  0  0  0  0  0  0  0  0  0  0  0
   -4.7054   -1.4408   -0.5698 H   0  0  0  0  0  0  0  0  0  0  0  0
   -4.0459   -2.0929    0.9008 H   0  0  0  0  0  0  0  0  0  0  0  0
   -0.9779   -2.6844    0.1659 H   0  0  0  0  0  0  0  0  0  0  0  0
   -1.7215   -1.6753    1.3808 H   0  0  0  0  0  0  0  0  0  0  0  0
    0.4434   -0.7419    0.7148 H   0  0  0  0  0  0  0  0  0  0  0  0
   -0.8437    0.3626    0.2530 H   0  0  0  0  0  0  0  0  0  0  0  0
    0.8811   -1.4357   -1.4881 H   0  0  0  0  0  0  0  0  0  0  0  0
   -0.0714    1.4627   -1.7990 H   0  0  0  0  0  0  0  0  0  0  0  0
    0.9704    0.6114   -2.9313 H   0  0  0  0  0  0  0  0  0  0  0  0
    5.4879   -0.3949   -1.4576 H   0  0  0  0  0  0  0  0  0  0  0  0
    7.9176   -0.6723   -0.9478 H   0  0  0  0  0  0  0  0  0  0  0  0
    7.4952    2.2881    2.1148 H   0  0  0  0  0  0  0  0  0  0  0  0
   -0.9314   -2.2007   -2.5762 H   0  0  0  0  0  0  0  0  0  0  0  0
   -0.9532   -0.6325   -3.3555 H   0  0  0  0  0  0  0  0  0  0  0  0
   -3.1833   -1.1728   -2.5216 H   0  0  0  0  0  0  0  0  0  0  0  0
   -2.5443    0.2087   -1.6292 H   0  0  0  0  0  0  0  0  0  0  0  0
  1  2  1  0
  2  3  3  0
  3  4  1  0
  4  5  1  0
  5  6  1  0
  6  7  1  0
  7  8  1  0
  8  9  1  0
  9 10  1  0
 10 11  1  0
 11 12  2  0
 12 13  1  0
 13 14  1  0
 14 15  2  0
 15 16  1  0
 16 17  2  0
 17 18  1  0
 17 19  1  0
 19 20  2  0
 13 21  2  0
 21 22  1  0
  9 23  1  0
 23 24  1  0
 24  6  1  0
 22 11  1  0
 20 14  1  0
  1 25  1  0
  1 26  1  0
  1 27  1  0
  4 28  1  0
  4 29  1  0
  5 30  1  0
  5 31  1  0
  7 32  1  0
  7 33  1  0
  8 34  1  0
  8 35  1  0
  9 36  1  0
 10 37  1  0
 10 38  1  0
 15 39  1  0
 16 40  1  0
 19 41  1  0
 23 42  1  0
 23 43  1  0
 24 44  1  0
 24 45  1  0
M  END
$$$$
OCNT-2309567
     RDKit          3D

 46 50  0  0  0  0  0  0  0  0999 V2000
    5.1375    3.0264   -0.4234 C   0  0  0  0  0  0  0  0  0  0  0  0
    3.9048    2.3371   -0.2611 O   0  0  0  0  0  0  0  0  0  0  0  0
    3.9616    0.9699   -0.1982 C   0  0  0  0  0  0  0  0  0  0  0  0
    5.1172    0.1960   -0.2806 C   0  0  0  0  0  0  0  0  0  0  0  0
    5.0587   -1.2014   -0.2028 C   0  0  0  0  0  0  0  0  0  0  0  0
    3.8025   -1.7958   -0.0402 C   0  0  0  0  0  0  0  0  0  0  0  0
    3.4599   -3.1221    0.0661 N   0  0  0  0  0  0  0  0  0  0  0  0
    2.1066   -3.2504    0.2145 C   0  0  0  0  0  0  0  0  0  0  0  0
    1.5408   -1.9885    0.2073 C   0  0  0  0  0  0  0  0  0  0  0  0
    0.0669   -1.6943    0.3434 C   0  0  0  0  0  0  0  0  0  0  0  0
   -0.5165   -1.0765   -0.9321 C   0  0  0  0  0  0  0  0  0  0  0  0
   -2.0078   -0.7879   -0.7694 C   0  0  0  0  0  0  0  0  0  0  0  0
   -2.3066   -0.1017    0.4951 N   0  0  0  0  0  0  0  0  0  0  0  0
   -3.3492    0.8338    0.4153 C   0  0  0  0  0  0  0  0  0  0  0  0
   -3.1615    2.0992    0.8881 N   0  0  0  0  0  0  0  0  0  0  0  0
   -4.1620    2.9999    0.8061 C   0  0  0  0  0  0  0  0  0  0  0  0
   -5.3953    2.8243    0.3052 N   0  0  0  0  0  0  0  0  0  0  0  0
   -5.5572    1.5650   -0.1252 C   0  0  0  0  0  0  0  0  0  0  0  0
   -4.6251    0.5439   -0.1048 C   0  0  0  0  0  0  0  0  0  0  0  0
   -5.3258   -0.5612   -0.6379 C   0  0  0  0  0  0  0  0  0  0  0  0
   -6.5810   -0.2661   -1.0000 N   0  0  0  0  0  0  0  0  0  0  0  0
   -6.6916    1.0374   -0.6692 N   0  0  0  0  0  0  0  0  0  0  0  0
   -1.1614    0.3329    1.2990 C   0  0  0  0  0  0  0  0  0  0  0  0
   -0.2626   -0.8661    1.5982 C   0  0  0  0  0  0  0  0  0  0  0  0
    2.6226   -1.0573    0.0449 C   0  0  0  0  0  0  0  0  0  0  0  0
    2.7154    0.3486   -0.0356 C   0  0  0  0  0  0  0  0  0  0  0  0
    4.9194    4.0983   -0.4538 H   0  0  0  0  0  0  0  0  0  0  0  0
    5.6185    2.7579   -1.3697 H   0  0  0  0  0  0  0  0  0  0  0  0
    5.8052    2.8469    0.4257 H   0  0  0  0  0  0  0  0  0  0  0  0
    6.0953    0.6490   -0.4064 H   0  0  0  0  0  0  0  0  0  0  0  0
    5.9634   -1.7974   -0.2665 H   0  0  0  0  0  0  0  0  0  0  0  0
    4.1183   -3.8881    0.0390 H   0  0  0  0  0  0  0  0  0  0  0  0
    1.6564   -4.2293    0.3141 H   0  0  0  0  0  0  0  0  0  0  0  0
   -0.4359   -2.6650    0.4742 H   0  0  0  0  0  0  0  0  0  0  0  0
    0.0048   -0.1453   -1.1860 H   0  0  0  0  0  0  0  0  0  0  0  0
   -0.3664   -1.7489   -1.7861 H   0  0  0  0  0  0  0  0  0  0  0  0
   -2.3333   -0.2033   -1.6399 H   0  0  0  0  0  0  0  0  0  0  0  0
   -2.5547   -1.7378   -0.7861 H   0  0  0  0  0  0  0  0  0  0  0  0
   -3.9394    3.9897    1.1936 H   0  0  0  0  0  0  0  0  0  0  0  0
   -4.9716   -1.5740   -0.7755 H   0  0  0  0  0  0  0  0  0  0  0  0
   -7.5684    1.5168   -0.8311 H   0  0  0  0  0  0  0  0  0  0  0  0
   -1.4906    0.7452    2.2616 H   0  0  0  0  0  0  0  0  0  0  0  0
   -0.5948    1.1160    0.7792 H   0  0  0  0  0  0  0  0  0  0  0  0
   -0.7778   -1.5212    2.3143 H   0  0  0  0  0  0  0  0  0  0  0  0
    0.6387   -0.5169    2.1157 H   0  0  0  0  0  0  0  0  0  0  0  0
    1.8224    0.9622    0.0289 H   0  0  0  0  0  0  0  0  0  0  0  0
  1  2  1  0
  2  3  1  0
  3  4  2  0
  4  5  1  0
  5  6  2  0
  6  7  1  0
  7  8  1  0
  8  9  2  0
  9 10  1  0
 10 11  1  0
 11 12  1  0
 12 13  1  0
 13 14  1  0
 14 15  1  0
 15 16  2  0
 16 17  1  0
 17 18  2  0
 18 19  1  0
 19 20  1  0
 20 21  2  0
 21 22  1  0
 13 23  1  0
 23 24  1  0
  9 25  1  0
 25 26  2  0
 26  3  1  0
 25  6  1  0
 24 10  1  0
 19 14  2  0
 22 18  1  0
  1 27  1  0
  1 28  1  0
  1 29  1  0
  4 30  1  0
  5 31  1  0
  7 32  1  0
  8 33  1  0
 10 34  1  0
 11 35  1  0
 11 36  1  0
 12 37  1  0
 12 38  1  0
 16 39  1  0
 20 40  1  0
 22 41  1  0
 23 42  1  0
 23 43  1  0
 24 44  1  0
 24 45  1  0
 26 46  1  0
M  END
$$$$
OCNT-2309576
     RDKit          3D

 45 48  0  0  0  0  0  0  0  0999 V2000
   -0.7238   -2.0294   -2.4571 O   0  0  0  0  0  0  0  0  0  0  0  0
   -0.8413   -1.8004   -1.2469 C   0  0  0  0  0  0  0  0  0  0  0  0
   -2.2516   -1.5375   -0.6928 C   0  0  0  0  0  0  0  0  0  0  0  0
   -2.6474   -2.6526    0.2865 C   0  0  0  0  0  0  0  0  0  0  0  0
   -3.9882   -2.3851    0.9405 C   0  0  0  0  0  0  0  0  0  0  0  0
   -3.8528   -0.9581    2.0479 S   0  0  0  0  0  0  0  0  0  0  0  0
   -3.1674    0.2433    0.9203 C   0  0  0  0  0  0  0  0  0  0  0  0
   -3.3328    1.5939    1.2622 C   0  0  0  0  0  0  0  0  0  0  0  0
   -2.8633    2.6077    0.4277 C   0  0  0  0  0  0  0  0  0  0  0  0
   -2.2291    2.2810   -0.7638 C   0  0  0  0  0  0  0  0  0  0  0  0
   -2.0473    0.9417   -1.1074 C   0  0  0  0  0  0  0  0  0  0  0  0
   -2.4841   -0.0978   -0.2589 C   0  0  0  0  0  0  0  0  0  0  0  0
    0.2676   -1.8064   -0.4078 N   0  0  0  0  0  0  0  0  0  0  0  0
    0.3354   -1.2319    0.9368 C   0  0  0  0  0  0  0  0  0  0  0  0
    1.1126    0.0837    0.9142 C   0  0  0  0  0  0  0  0  0  0  0  0
    2.4960   -0.1061    0.2658 C   0  0  0  0  0  0  0  0  0  0  0  0
    3.2682    1.1941    0.1925 C   0  0  0  0  0  0  0  0  0  0  0  0
    2.8253    2.2692   -0.5586 C   0  0  0  0  0  0  0  0  0  0  0  0
    3.6157    3.3970   -0.5428 C   0  0  0  0  0  0  0  0  0  0  0  0
    4.7626    3.4918    0.1511 N   0  0  0  0  0  0  0  0  0  0  0  0
    5.1057    2.3988    0.8463 C   0  0  0  0  0  0  0  0  0  0  0  0
    4.4150    1.2485    0.9043 N   0  0  0  0  0  0  0  0  0  0  0  0
    2.3825   -0.7897   -1.1092 C   0  0  0  0  0  0  0  0  0  0  0  0
    1.5789   -2.0821   -0.9934 C   0  0  0  0  0  0  0  0  0  0  0  0
   -2.9274   -1.6625   -1.5547 H   0  0  0  0  0  0  0  0  0  0  0  0
   -2.7067   -3.5970   -0.2712 H   0  0  0  0  0  0  0  0  0  0  0  0
   -1.8861   -2.8280    1.0547 H   0  0  0  0  0  0  0  0  0  0  0  0
   -4.7685   -2.2032    0.1937 H   0  0  0  0  0  0  0  0  0  0  0  0
   -4.2949   -3.2509    1.5357 H   0  0  0  0  0  0  0  0  0  0  0  0
   -3.8461    1.8687    2.1819 H   0  0  0  0  0  0  0  0  0  0  0  0
   -3.0092    3.6490    0.7029 H   0  0  0  0  0  0  0  0  0  0  0  0
   -1.8813    3.0664   -1.4299 H   0  0  0  0  0  0  0  0  0  0  0  0
   -1.5585    0.7112   -2.0540 H   0  0  0  0  0  0  0  0  0  0  0  0
   -0.6490   -1.0620    1.3647 H   0  0  0  0  0  0  0  0  0  0  0  0
    0.8425   -1.9611    1.5799 H   0  0  0  0  0  0  0  0  0  0  0  0
    0.5358    0.8330    0.3603 H   0  0  0  0  0  0  0  0  0  0  0  0
    1.2223    0.4639    1.9371 H   0  0  0  0  0  0  0  0  0  0  0  0
    3.0653   -0.7860    0.9169 H   0  0  0  0  0  0  0  0  0  0  0  0
    1.9087    2.2406   -1.1325 H   0  0  0  0  0  0  0  0  0  0  0  0
    3.3390    4.2834   -1.1060 H   0  0  0  0  0  0  0  0  0  0  0  0
    6.0273    2.4471    1.4156 H   0  0  0  0  0  0  0  0  0  0  0  0
    1.8895   -0.1246   -1.8296 H   0  0  0  0  0  0  0  0  0  0  0  0
    3.3805   -1.0087   -1.5075 H   0  0  0  0  0  0  0  0  0  0  0  0
    1.4882   -2.5556   -1.9760 H   0  0  0  0  0  0  0  0  0  0  0  0
    2.0923   -2.7970   -0.3392 H   0  0  0  0  0  0  0  0  0  0  0  0
  1  2  2  0
  2  3  1  0
  3  4  1  0
  4  5  1  0
  5  6  1  0
  6  7  1  0
  7  8  2  0
  8  9  1  0
  9 10  2  0
 10 11  1  0
 11 12  2  0
  2 13  1  0
 13 14  1  0
 14 15  1  0
 15 16  1  0
 16 17  1  0
 17 18  1  0
 18 19  2  0
 19 20  1  0
 20 21  2  0
 21 22  1  0
 16 23  1  0
 23 24  1  0
 12  3  1  0
 24 13  1  0
 12  7  1  0
 22 17  2  0
  3 25  1  0
  4 26  1  0
  4 27  1  0
  5 28  1  0
  5 29  1  0
  8 30  1  0
  9 31  1  0
 10 32  1  0
 11 33  1  0
 14 34  1  0
 14 35  1  0
 15 36  1  0
 15 37  1  0
 16 38  1  0
 18 39  1  0
 19 40  1  0
 21 41  1  0
 23 42  1  0
 23 43  1  0
 24 44  1  0
 24 45  1  0
M  END
$$$$
OCNT-2309577
     RDKit          3D

 48 50  0  0  0  0  0  0  0  0999 V2000
    0.2452    1.6526    0.7934 C   0  0  0  0  0  0  0  0  0  0  0  0
    0.2002    0.1149    0.7746 C   0  0  0  0  0  0  0  0  0  0  0  0
    1.5807   -0.4628    1.1706 C   0  0  0  0  0  0  0  0  0  0  0  0
    1.7253   -1.1374    2.1944 O   0  0  0  0  0  0  0  0  0  0  0  0
    2.6583   -0.2402    0.3541 N   0  0  0  0  0  0  0  0  0  0  0  0
    4.0522   -0.5260    0.6887 C   0  0  0  0  0  0  0  0  0  0  0  0
    4.3955    0.1406   -0.6518 C   0  0  0  0  0  0  0  0  0  0  0  0
    5.5776    1.0735   -0.6687 C   0  0  0  0  0  0  0  0  0  0  0  0
    6.8970    0.3426   -0.5736 C   0  0  0  0  0  0  0  0  0  0  0  0
    5.4794    1.9662    0.3476 F   0  0  0  0  0  0  0  0  0  0  0  0
    5.5432    1.7890   -1.8218 F   0  0  0  0  0  0  0  0  0  0  0  0
    3.0170    0.8205   -0.5733 C   0  0  0  0  0  0  0  0  0  0  0  0
   -0.8396   -0.3835    1.8220 C   0  0  0  0  0  0  0  0  0  0  0  0
   -2.2926   -0.1212    1.4264 C   0  0  0  0  0  0  0  0  0  0  0  0
   -2.5335   -0.6729    0.0868 N   0  0  0  0  0  0  0  0  0  0  0  0
   -3.8926   -0.7783   -0.2575 C   0  0  0  0  0  0  0  0  0  0  0  0
   -4.4071   -2.0870   -0.3235 C   0  0  0  0  0  0  0  0  0  0  0  0
   -5.7412   -2.3335   -0.6532 C   0  0  0  0  0  0  0  0  0  0  0  0
   -6.5883   -1.2664   -0.9224 C   0  0  0  0  0  0  0  0  0  0  0  0
   -8.2329   -1.5601   -1.3298 Cl  0  0  0  0  0  0  0  0  0  0  0  0
   -6.1129    0.0408   -0.8631 C   0  0  0  0  0  0  0  0  0  0  0  0
   -4.7703    0.2922   -0.5312 C   0  0  0  0  0  0  0  0  0  0  0  0
   -4.3502    1.6624   -0.4817 C   0  0  0  0  0  0  0  0  0  0  0  0
   -4.0206    2.7755   -0.4480 N   0  0  0  0  0  0  0  0  0  0  0  0
   -1.6675   -0.1294   -0.9642 C   0  0  0  0  0  0  0  0  0  0  0  0
   -0.2097   -0.4288   -0.6139 C   0  0  0  0  0  0  0  0  0  0  0  0
    0.7440    2.0575   -0.0912 H   0  0  0  0  0  0  0  0  0  0  0  0
    0.7832    2.0185    1.6753 H   0  0  0  0  0  0  0  0  0  0  0  0
   -0.7520    2.1015    0.8083 H   0  0  0  0  0  0  0  0  0  0  0  0
    4.3841   -0.0085    1.5942 H   0  0  0  0  0  0  0  0  0  0  0  0
    4.2834   -1.5923    0.7499 H   0  0  0  0  0  0  0  0  0  0  0  0
    4.4434   -0.5855   -1.4773 H   0  0  0  0  0  0  0  0  0  0  0  0
    7.7259    1.0566   -0.6128 H   0  0  0  0  0  0  0  0  0  0  0  0
    6.9784   -0.2104    0.3673 H   0  0  0  0  0  0  0  0  0  0  0  0
    7.0211   -0.3587   -1.4047 H   0  0  0  0  0  0  0  0  0  0  0  0
    3.0063    1.8137   -0.1149 H   0  0  0  0  0  0  0  0  0  0  0  0
    2.4657    0.8248   -1.5146 H   0  0  0  0  0  0  0  0  0  0  0  0
   -0.7257   -1.4683    1.9590 H   0  0  0  0  0  0  0  0  0  0  0  0
   -0.6421    0.0718    2.8011 H   0  0  0  0  0  0  0  0  0  0  0  0
   -2.5129    0.9502    1.4662 H   0  0  0  0  0  0  0  0  0  0  0  0
   -2.9436   -0.6117    2.1615 H   0  0  0  0  0  0  0  0  0  0  0  0
   -3.7477   -2.9278   -0.1126 H   0  0  0  0  0  0  0  0  0  0  0  0
   -6.1051   -3.3567   -0.6957 H   0  0  0  0  0  0  0  0  0  0  0  0
   -6.7881    0.8683   -1.0738 H   0  0  0  0  0  0  0  0  0  0  0  0
   -1.8048    0.9499   -1.0866 H   0  0  0  0  0  0  0  0  0  0  0  0
   -1.8964   -0.6020   -1.9278 H   0  0  0  0  0  0  0  0  0  0  0  0
    0.4257   -0.0175   -1.4042 H   0  0  0  0  0  0  0  0  0  0  0  0
   -0.0549   -1.5166   -0.6351 H   0  0  0  0  0  0  0  0  0  0  0  0
  1  2  1  0
  2  3  1  0
  3  4  2  0
  3  5  1  0
  5  6  1  0
  6  7  1  0
  7  8  1  0
  8  9  1  0
  8 10  1  0
  8 11  1  0
  7 12  1  0
  2 13  1  0
 13 14  1  0
 14 15  1  0
 15 16  1  0
 16 17  1  0
 17 18  2  0
 18 19  1  0
 19 20  1  0
 19 21  2  0
 21 22  1  0
 22 23  1  0
 23 24  3  0
 15 25  1  0
 25 26  1  0
 26  2  1  0
 12  5  1  0
 22 16  2  0
  1 27  1  0
  1 28  1  0
  1 29  1  0
  6 30  1  0
  6 31  1  0
  7 32  1  0
  9 33  1  0
  9 34  1  0
  9 35  1  0
 12 36  1  0
 12 37  1  0
 13 38  1  0
 13 39  1  0
 14 40  1  0
 14 41  1  0
 17 42  1  0
 18 43  1  0
 21 44  1  0
 25 45  1  0
 25 46  1  0
 26 47  1  0
 26 48  1  0
M  END
$$$$
OCNT-2309578
     RDKit          3D

 49 52  0  0  0  0  0  0  0  0999 V2000
   -3.9693    0.9047   -1.4020 C   0  0  0  0  0  0  0  0  0  0  0  0
   -3.1124    0.1945   -0.5169 O   0  0  0  0  0  0  0  0  0  0  0  0
   -2.5917    0.8814    0.5467 C   0  0  0  0  0  0  0  0  0  0  0  0
   -2.7632    2.2523    0.7653 C   0  0  0  0  0  0  0  0  0  0  0  0
   -2.2087    2.8689    1.8879 C   0  0  0  0  0  0  0  0  0  0  0  0
   -1.4873    2.1200    2.8075 C   0  0  0  0  0  0  0  0  0  0  0  0
   -1.3096    0.7548    2.5993 C   0  0  0  0  0  0  0  0  0  0  0  0
   -1.8375    0.1227    1.4591 C   0  0  0  0  0  0  0  0  0  0  0  0
   -1.5998   -1.3651    1.2646 C   0  0  0  0  0  0  0  0  0  0  0  0
   -0.8618   -1.7382   -0.0463 C   0  0  0  0  0  0  0  0  0  0  0  0
   -1.7502   -2.6402   -0.9337 C   0  0  0  0  0  0  0  0  0  0  0  0
   -0.7553   -3.5313   -1.6594 C   0  0  0  0  0  0  0  0  0  0  0  0
    0.2800   -3.8037   -0.5838 C   0  0  0  0  0  0  0  0  0  0  0  0
    0.3536   -2.5578    0.1611 N   0  0  0  0  0  0  0  0  0  0  0  0
    1.5569   -2.1977    0.7357 C   0  0  0  0  0  0  0  0  0  0  0  0
    2.4827   -3.0078    0.8365 O   0  0  0  0  0  0  0  0  0  0  0  0
    1.7335   -0.7715    1.2320 C   0  0  0  0  0  0  0  0  0  0  0  0
    2.7937   -0.0323    0.4909 C   0  0  0  0  0  0  0  0  0  0  0  0
    2.6898    1.1572   -0.2036 C   0  0  0  0  0  0  0  0  0  0  0  0
    1.6304    2.0680   -0.4936 C   0  0  0  0  0  0  0  0  0  0  0  0
    1.8851    3.1726   -1.2177 C   0  0  0  0  0  0  0  0  0  0  0  0
    3.2142    3.4706   -1.7131 C   0  0  0  0  0  0  0  0  0  0  0  0
    4.2103    2.6146   -1.4404 C   0  0  0  0  0  0  0  0  0  0  0  0
    3.9631    1.4627   -0.6924 N   0  0  0  0  0  0  0  0  0  0  0  0
    4.8635    0.5108   -0.3352 N   0  0  0  0  0  0  0  0  0  0  0  0
    4.1560   -0.3784    0.3614 C   0  0  0  0  0  0  0  0  0  0  0  0
   -4.3401    0.1952   -2.1494 H   0  0  0  0  0  0  0  0  0  0  0  0
   -3.4224    1.6912   -1.9313 H   0  0  0  0  0  0  0  0  0  0  0  0
   -4.8370    1.3106   -0.8709 H   0  0  0  0  0  0  0  0  0  0  0  0
   -3.3265    2.8739    0.0786 H   0  0  0  0  0  0  0  0  0  0  0  0
   -2.3487    3.9347    2.0469 H   0  0  0  0  0  0  0  0  0  0  0  0
   -1.0629    2.5985    3.6852 H   0  0  0  0  0  0  0  0  0  0  0  0
   -0.7445    0.1858    3.3326 H   0  0  0  0  0  0  0  0  0  0  0  0
   -1.0391   -1.7525    2.1208 H   0  0  0  0  0  0  0  0  0  0  0  0
   -2.5797   -1.8498    1.3226 H   0  0  0  0  0  0  0  0  0  0  0  0
   -0.5392   -0.8536   -0.6092 H   0  0  0  0  0  0  0  0  0  0  0  0
   -2.3784   -2.0692   -1.6252 H   0  0  0  0  0  0  0  0  0  0  0  0
   -2.4114   -3.2753   -0.3247 H   0  0  0  0  0  0  0  0  0  0  0  0
   -1.2058   -4.4505   -2.0482 H   0  0  0  0  0  0  0  0  0  0  0  0
   -0.3059   -2.9802   -2.4984 H   0  0  0  0  0  0  0  0  0  0  0  0
   -0.0561   -4.5855    0.1068 H   0  0  0  0  0  0  0  0  0  0  0  0
    1.2505   -4.0902   -1.0102 H   0  0  0  0  0  0  0  0  0  0  0  0
    0.8069   -0.2115    1.1616 H   0  0  0  0  0  0  0  0  0  0  0  0
    1.9892   -0.8209    2.2944 H   0  0  0  0  0  0  0  0  0  0  0  0
    0.6274    1.8666   -0.1286 H   0  0  0  0  0  0  0  0  0  0  0  0
    1.0922    3.8745   -1.4518 H   0  0  0  0  0  0  0  0  0  0  0  0
    3.3754    4.3721   -2.2911 H   0  0  0  0  0  0  0  0  0  0  0  0
    5.2296    2.7549   -1.7705 H   0  0  0  0  0  0  0  0  0  0  0  0
    4.6605   -1.2509    0.7577 H   0  0  0  0  0  0  0  0  0  0  0  0
  1  2  1  0
  2  3  1  0
  3  4  2  0
  4  5  1  0
  5  6  2  0
  6  7  1  0
  7  8  2  0
  8  9  1  0
  9 10  1  0
 10 11  1  0
 11 12  1  0
 12 13  1  0
 13 14  1  0
 14 15  1  0
 15 16  2  0
 15 17  1  0
 17 18  1  0
 18 19  2  0
 19 20  1  0
 20 21  2  0
 21 22  1  0
 22 23  2  0
 23 24  1  0
 24 25  1  0
 25 26  2  0
  8  3  1  0
 14 10  1  0
 26 18  1  0
 24 19  1  0
  1 27  1  0
  1 28  1  0
  1 29  1  0
  4 30  1  0
  5 31  1  0
  6 32  1  0
  7 33  1  0
  9 34  1  0
  9 35  1  0
 10 36  1  0
 11 37  1  0
 11 38  1  0
 12 39  1  0
 12 40  1  0
 13 41  1  0
 13 42  1  0
 17 43  1  0
 17 44  1  0
 20 45  1  0
 21 46  1  0
 22 47  1  0
 23 48  1  0
 26 49  1  0
M  END
$$$$
OCNT-2309581
     RDKit          3D

 38 40  0  0  0  0  0  0  0  0999 V2000
   -4.9880    0.1892    3.1033 N   0  0  0  0  0  0  0  0  0  0  0  0
   -4.3265   -0.2855    2.2750 C   0  0  0  0  0  0  0  0  0  0  0  0
   -3.5422   -0.9311    1.2102 C   0  0  0  0  0  0  0  0  0  0  0  0
   -3.1659    0.0215    0.0960 C   0  0  0  0  0  0  0  0  0  0  0  0
   -4.1323    0.3663   -0.8670 C   0  0  0  0  0  0  0  0  0  0  0  0
   -3.8343    1.2697   -1.8898 C   0  0  0  0  0  0  0  0  0  0  0  0
   -2.5729    1.8552   -1.9627 C   0  0  0  0  0  0  0  0  0  0  0  0
   -1.6020    1.5310   -1.0172 C   0  0  0  0  0  0  0  0  0  0  0  0
   -1.8879    0.6041   -0.0044 C   0  0  0  0  0  0  0  0  0  0  0  0
   -0.8317    0.3000    0.9893 C   0  0  0  0  0  0  0  0  0  0  0  0
   -1.0658    0.5528    2.1673 O   0  0  0  0  0  0  0  0  0  0  0  0
    0.3562   -0.2781    0.5498 N   0  0  0  0  0  0  0  0  0  0  0  0
    0.5244   -0.8825   -0.7915 C   0  0  0  0  0  0  0  0  0  0  0  0
    1.7661   -1.7812   -0.8997 C   0  0  0  0  0  0  0  0  0  0  0  0
    2.9164   -1.0825   -0.3551 N   0  0  0  0  0  0  0  0  0  0  0  0
    3.7510   -0.3167   -1.1640 C   0  0  0  0  0  0  0  0  0  0  0  0
    3.8975   -0.4268   -2.3692 O   0  0  0  0  0  0  0  0  0  0  0  0
    4.4244    0.7036   -0.2835 C   0  0  0  0  0  0  0  0  0  0  0  0
    3.3952    0.8723    0.8293 C   0  0  0  0  0  0  0  0  0  0  0  0
    2.8226   -0.5313    0.9859 C   0  0  0  0  0  0  0  0  0  0  0  0
    1.3925   -0.5642    1.5550 C   0  0  0  0  0  0  0  0  0  0  0  0
   -4.1318   -1.7494    0.7760 H   0  0  0  0  0  0  0  0  0  0  0  0
   -2.6588   -1.4218    1.6318 H   0  0  0  0  0  0  0  0  0  0  0  0
   -5.1349   -0.0571   -0.8194 H   0  0  0  0  0  0  0  0  0  0  0  0
   -4.5962    1.5309   -2.6213 H   0  0  0  0  0  0  0  0  0  0  0  0
   -2.3509    2.5742   -2.7478 H   0  0  0  0  0  0  0  0  0  0  0  0
   -0.6279    2.0128   -1.0626 H   0  0  0  0  0  0  0  0  0  0  0  0
   -0.3762   -1.4507   -1.0470 H   0  0  0  0  0  0  0  0  0  0  0  0
    0.6203   -0.0549   -1.5025 H   0  0  0  0  0  0  0  0  0  0  0  0
    1.6295   -2.6966   -0.3132 H   0  0  0  0  0  0  0  0  0  0  0  0
    1.9472   -2.0618   -1.9421 H   0  0  0  0  0  0  0  0  0  0  0  0
    4.5927    1.6399   -0.8206 H   0  0  0  0  0  0  0  0  0  0  0  0
    5.3711    0.2975    0.0848 H   0  0  0  0  0  0  0  0  0  0  0  0
    3.8359    1.2537    1.7549 H   0  0  0  0  0  0  0  0  0  0  0  0
    2.6197    1.5790    0.5071 H   0  0  0  0  0  0  0  0  0  0  0  0
    3.4845   -1.1248    1.6289 H   0  0  0  0  0  0  0  0  0  0  0  0
    1.1735   -1.5733    1.9271 H   0  0  0  0  0  0  0  0  0  0  0  0
    1.3055    0.1167    2.4090 H   0  0  0  0  0  0  0  0  0  0  0  0
  1  2  3  0
  2  3  1  0
  3  4  1  0
  4  5  2  0
  5  6  1  0
  6  7  2  0
  7  8  1  0
  8  9  2  0
  9 10  1  0
 10 11  2  0
 10 12  1  0
 12 13  1  0
 13 14  1  0
 14 15  1  0
 15 16  1  0
 16 17  2  0
 16 18  1  0
 18 19  1  0
 19 20  1  0
 20 21  1  0
  9  4  1  0
 21 12  1  0
 20 15  1  0
  3 22  1  0
  3 23  1  0
  5 24  1  0
  6 25  1  0
  7 26  1  0
  8 27  1  0
 13 28  1  0
 13 29  1  0
 14 30  1  0
 14 31  1  0
 18 32  1  0
 18 33  1  0
 19 34  1  0
 19 35  1  0
 20 36  1  0
 21 37  1  0
 21 38  1  0
M  END
$$$$
OCNT-2309582
     RDKit          3D

 50 51  0  0  0  0  0  0  0  0999 V2000
    6.2987    1.3889   -0.2851 C   0  0  0  0  0  0  0  0  0  0  0  0
    5.3718    1.1670    0.7705 O   0  0  0  0  0  0  0  0  0  0  0  0
    4.0308    0.9286    0.3070 C   0  0  0  0  0  0  0  0  0  0  0  0
    3.8658   -0.5718    0.0520 C   0  0  0  0  0  0  0  0  0  0  0  0
    2.6296   -0.9968   -0.7375 C   0  0  0  0  0  0  0  0  0  0  0  0
    1.4107   -0.0736   -0.7210 C   0  0  0  0  0  0  0  0  0  0  0  0
    0.9152    0.4223    0.5671 N   0  0  0  0  0  0  0  0  0  0  0  0
    0.7560   -0.6164    1.6122 C   0  0  0  0  0  0  0  0  0  0  0  0
   -0.4084   -1.5681    1.2900 C   0  0  0  0  0  0  0  0  0  0  0  0
   -0.3776   -2.7431    1.6416 O   0  0  0  0  0  0  0  0  0  0  0  0
   -1.4411   -0.9132    0.6406 N   0  0  0  0  0  0  0  0  0  0  0  0
   -2.6982   -1.4064    0.2338 C   0  0  0  0  0  0  0  0  0  0  0  0
   -3.1221   -2.6946    0.5889 C   0  0  0  0  0  0  0  0  0  0  0  0
   -4.3824   -3.1681    0.2224 C   0  0  0  0  0  0  0  0  0  0  0  0
   -5.2431   -2.3555   -0.4993 C   0  0  0  0  0  0  0  0  0  0  0  0
   -4.8393   -1.0723   -0.8655 C   0  0  0  0  0  0  0  0  0  0  0  0
   -3.5624   -0.5760   -0.5277 C   0  0  0  0  0  0  0  0  0  0  0  0
   -3.1612    0.8344   -0.9618 C   0  0  0  0  0  0  0  0  0  0  0  0
   -3.7975    1.3156   -2.2742 C   0  0  0  0  0  0  0  0  0  0  0  0
   -3.4568    1.8376    0.1566 C   0  0  0  0  0  0  0  0  0  0  0  0
    1.6510    1.5959    1.0407 C   0  0  0  0  0  0  0  0  0  0  0  0
    3.1138    1.4152    1.4343 C   0  0  0  0  0  0  0  0  0  0  0  0
    6.3434    0.5315   -0.9617 H   0  0  0  0  0  0  0  0  0  0  0  0
    7.2888    1.5357    0.1548 H   0  0  0  0  0  0  0  0  0  0  0  0
    6.0301    2.2922   -0.8413 H   0  0  0  0  0  0  0  0  0  0  0  0
    3.8521    1.5145   -0.6029 H   0  0  0  0  0  0  0  0  0  0  0  0
    4.7466   -0.9682   -0.4682 H   0  0  0  0  0  0  0  0  0  0  0  0
    3.8785   -1.0989    1.0155 H   0  0  0  0  0  0  0  0  0  0  0  0
    2.3363   -2.0024   -0.4096 H   0  0  0  0  0  0  0  0  0  0  0  0
    2.9266   -1.1153   -1.7884 H   0  0  0  0  0  0  0  0  0  0  0  0
    1.6005    0.7788   -1.3874 H   0  0  0  0  0  0  0  0  0  0  0  0
    0.5932   -0.6116   -1.2180 H   0  0  0  0  0  0  0  0  0  0  0  0
    0.4932   -0.1482    2.5694 H   0  0  0  0  0  0  0  0  0  0  0  0
    1.6658   -1.2018    1.7692 H   0  0  0  0  0  0  0  0  0  0  0  0
   -1.1922    0.0386    0.3932 H   0  0  0  0  0  0  0  0  0  0  0  0
   -2.4925   -3.3601    1.1710 H   0  0  0  0  0  0  0  0  0  0  0  0
   -4.6885   -4.1693    0.5136 H   0  0  0  0  0  0  0  0  0  0  0  0
   -6.2300   -2.7166   -0.7762 H   0  0  0  0  0  0  0  0  0  0  0  0
   -5.5484   -0.4637   -1.4203 H   0  0  0  0  0  0  0  0  0  0  0  0
   -2.0839    0.8404   -1.1657 H   0  0  0  0  0  0  0  0  0  0  0  0
   -3.3363    2.2562   -2.5962 H   0  0  0  0  0  0  0  0  0  0  0  0
   -3.6522    0.5828   -3.0755 H   0  0  0  0  0  0  0  0  0  0  0  0
   -4.8711    1.5042   -2.1698 H   0  0  0  0  0  0  0  0  0  0  0  0
   -2.9423    1.5687    1.0852 H   0  0  0  0  0  0  0  0  0  0  0  0
   -3.1258    2.8428   -0.1262 H   0  0  0  0  0  0  0  0  0  0  0  0
   -4.5297    1.8850    0.3756 H   0  0  0  0  0  0  0  0  0  0  0  0
    1.1147    2.0132    1.9033 H   0  0  0  0  0  0  0  0  0  0  0  0
    1.5867    2.3825    0.2769 H   0  0  0  0  0  0  0  0  0  0  0  0
    3.1984    0.7525    2.3052 H   0  0  0  0  0  0  0  0  0  0  0  0
    3.4844    2.3871    1.7888 H   0  0  0  0  0  0  0  0  0  0  0  0
  1  2  1  0
  2  3  1  0
  3  4  1  0
  4  5  1  0
  5  6  1  0
  6  7  1  0
  7  8  1  0
  8  9  1  0
  9 10  2  0
  9 11  1  0
 11 12  1  0
 12 13  2  0
 13 14  1  0
 14 15  2  0
 15 16  1  0
 16 17  2  0
 17 18  1  0
 18 19  1  0
 18 20  1  0
  7 21  1  0
 21 22  1  0
 22  3  1  0
 17 12  1  0
  1 23  1  0
  1 24  1  0
  1 25  1  0
  3 26  1  0
  4 27  1  0
  4 28  1  0
  5 29  1  0
  5 30  1  0
  6 31  1  0
  6 32  1  0
  8 33  1  0
  8 34  1  0
 11 35  1  0
 13 36  1  0
 14 37  1  0
 15 38  1  0
 16 39  1  0
 18 40  1  0
 19 41  1  0
 19 42  1  0
 19 43  1  0
 20 44  1  0
 20 45  1  0
 20 46  1  0
 21 47  1  0
 21 48  1  0
 22 49  1  0
 22 50  1  0
M  END
$$$$
OCNT-2309589
     RDKit          3D

 52 53  0  0  0  0  0  0  0  0999 V2000
    2.3729    1.0869   -1.3524 C   0  0  0  0  0  0  0  0  0  0  0  0
    3.2396    0.7545   -0.2192 N   0  0  0  0  0  0  0  0  0  0  0  0
    2.5782    0.4770    1.0602 C   0  0  0  0  0  0  0  0  0  0  0  0
    2.4729   -1.0214    1.3657 C   0  0  0  0  0  0  0  0  0  0  0  0
    1.5015   -1.7747    0.4611 C   0  0  0  0  0  0  0  0  0  0  0  0
    0.1174   -1.4117    0.7299 N   0  0  0  0  0  0  0  0  0  0  0  0
   -0.7265   -0.9204   -0.2572 C   0  0  0  0  0  0  0  0  0  0  0  0
   -0.3244   -0.7560   -1.4035 O   0  0  0  0  0  0  0  0  0  0  0  0
   -2.1577   -0.6139    0.2056 C   0  0  0  0  0  0  0  0  0  0  0  0
   -2.1159    0.3831    1.3749 C   0  0  0  0  0  0  0  0  0  0  0  0
   -2.8385   -1.9193    0.6406 C   0  0  0  0  0  0  0  0  0  0  0  0
   -3.0361    0.1198   -1.2127 S   0  0  0  0  0  0  0  0  0  0  0  0
   -3.2551   -0.8894   -2.2337 O   0  0  0  0  0  0  0  0  0  0  0  0
   -2.4436    1.4040   -1.5433 O   0  0  0  0  0  0  0  0  0  0  0  0
   -4.6772    0.5131   -0.5963 C   0  0  0  0  0  0  0  0  0  0  0  0
   -4.9392    1.7927   -0.0932 C   0  0  0  0  0  0  0  0  0  0  0  0
   -6.2248    2.1080    0.3516 C   0  0  0  0  0  0  0  0  0  0  0  0
   -7.2412    1.1549    0.2711 C   0  0  0  0  0  0  0  0  0  0  0  0
   -8.8228    1.5460    0.8227 Cl  0  0  0  0  0  0  0  0  0  0  0  0
   -6.9877   -0.1094   -0.2625 C   0  0  0  0  0  0  0  0  0  0  0  0
   -5.7043   -0.4313   -0.7093 C   0  0  0  0  0  0  0  0  0  0  0  0
    4.6011    0.5435   -0.4195 C   0  0  0  0  0  0  0  0  0  0  0  0
    5.1648    0.4784   -1.7068 C   0  0  0  0  0  0  0  0  0  0  0  0
    6.5350    0.2699   -1.9177 C   0  0  0  0  0  0  0  0  0  0  0  0
    7.3924    0.1247   -0.8363 C   0  0  0  0  0  0  0  0  0  0  0  0
    6.8756    0.1887    0.4505 C   0  0  0  0  0  0  0  0  0  0  0  0
    5.5032    0.3956    0.6493 C   0  0  0  0  0  0  0  0  0  0  0  0
    2.2712    0.2351   -2.0331 H   0  0  0  0  0  0  0  0  0  0  0  0
    1.3688    1.3733   -1.0221 H   0  0  0  0  0  0  0  0  0  0  0  0
    2.7679    1.9464   -1.9063 H   0  0  0  0  0  0  0  0  0  0  0  0
    1.5763    0.9238    1.0788 H   0  0  0  0  0  0  0  0  0  0  0  0
    3.1097    0.9822    1.8751 H   0  0  0  0  0  0  0  0  0  0  0  0
    3.4575   -1.4960    1.2886 H   0  0  0  0  0  0  0  0  0  0  0  0
    2.1512   -1.1377    2.4083 H   0  0  0  0  0  0  0  0  0  0  0  0
    1.7500   -1.6401   -0.5948 H   0  0  0  0  0  0  0  0  0  0  0  0
    1.5745   -2.8474    0.6741 H   0  0  0  0  0  0  0  0  0  0  0  0
   -0.2532   -1.6751    1.6327 H   0  0  0  0  0  0  0  0  0  0  0  0
   -1.6303    1.3204    1.0797 H   0  0  0  0  0  0  0  0  0  0  0  0
   -1.5596   -0.0111    2.2323 H   0  0  0  0  0  0  0  0  0  0  0  0
   -3.1183    0.6237    1.7402 H   0  0  0  0  0  0  0  0  0  0  0  0
   -2.8738   -2.6419   -0.1822 H   0  0  0  0  0  0  0  0  0  0  0  0
   -3.8636   -1.7493    0.9816 H   0  0  0  0  0  0  0  0  0  0  0  0
   -2.3075   -2.4016    1.4683 H   0  0  0  0  0  0  0  0  0  0  0  0
   -4.1582    2.5503   -0.0550 H   0  0  0  0  0  0  0  0  0  0  0  0
   -6.4313    3.0999    0.7462 H   0  0  0  0  0  0  0  0  0  0  0  0
   -7.7875   -0.8413   -0.3459 H   0  0  0  0  0  0  0  0  0  0  0  0
   -5.5204   -1.4082   -1.1523 H   0  0  0  0  0  0  0  0  0  0  0  0
    4.5426    0.5770   -2.5918 H   0  0  0  0  0  0  0  0  0  0  0  0
    6.9224    0.2230   -2.9317 H   0  0  0  0  0  0  0  0  0  0  0  0
    8.4551   -0.0337   -0.9952 H   0  0  0  0  0  0  0  0  0  0  0  0
    7.5350    0.0838    1.3072 H   0  0  0  0  0  0  0  0  0  0  0  0
    5.1623    0.4513    1.6777 H   0  0  0  0  0  0  0  0  0  0  0  0
  1  2  1  0
  2  3  1  0
  3  4  1  0
  4  5  1  0
  5  6  1  0
  6  7  1  0
  7  8  2  0
  7  9  1  0
  9 10  1  0
  9 11  1  0
  9 12  1  0
 12 13  2  0
 12 14  2  0
 12 15  1  0
 15 16  1  0
 16 17  2  0
 17 18  1  0
 18 19  1  0
 18 20  2  0
 20 21  1  0
  2 22  1  0
 22 23  2  0
 23 24  1  0
 24 25  2  0
 25 26  1  0
 26 27  2  0
 21 15  2  0
 27 22  1  0
  1 28  1  0
  1 29  1  0
  1 30  1  0
  3 31  1  0
  3 32  1  0
  4 33  1  0
  4 34  1  0
  5 35  1  0
  5 36  1  0
  6 37  1  0
 10 38  1  0
 10 39  1  0
 10 40  1  0
 11 41  1  0
 11 42  1  0
 11 43  1  0
 16 44  1  0
 17 45  1  0
 20 46  1  0
 21 47  1  0
 23 48  1  0
 24 49  1  0
 25 50  1  0
 26 51  1  0
 27 52  1  0
M  END
$$$$
OCNT-2309593
     RDKit          3D

 49 52  0  0  0  0  0  0  0  0999 V2000
    8.1856    0.1455   -0.0835 C   0  0  0  0  0  0  0  0  0  0  0  0
    6.8633   -0.2600   -0.4762 N   0  0  0  0  0  0  0  0  0  0  0  0
    6.4828   -1.4285   -1.0537 C   0  0  0  0  0  0  0  0  0  0  0  0
    5.1855   -1.4143   -1.2568 N   0  0  0  0  0  0  0  0  0  0  0  0
    4.8093   -0.1868   -0.7737 C   0  0  0  0  0  0  0  0  0  0  0  0
    3.3981    0.2744   -0.7950 C   0  0  0  0  0  0  0  0  0  0  0  0
    2.6107   -0.2661    0.4049 C   0  0  0  0  0  0  0  0  0  0  0  0
    1.2229    0.2108    0.4920 N   0  0  0  0  0  0  0  0  0  0  0  0
    0.3583   -0.3849   -0.5248 C   0  0  0  0  0  0  0  0  0  0  0  0
   -1.0369    0.0939   -0.2986 C   0  0  0  0  0  0  0  0  0  0  0  0
   -1.4896    1.4009   -0.3163 C   0  0  0  0  0  0  0  0  0  0  0  0
   -2.8332    1.3801   -0.0261 N   0  0  0  0  0  0  0  0  0  0  0  0
   -3.7227    2.4867    0.0907 C   0  0  0  0  0  0  0  0  0  0  0  0
   -3.2745    3.8045   -0.0773 C   0  0  0  0  0  0  0  0  0  0  0  0
   -4.1721    4.8701    0.0432 C   0  0  0  0  0  0  0  0  0  0  0  0
   -5.5148    4.6299    0.3302 C   0  0  0  0  0  0  0  0  0  0  0  0
   -5.9671    3.3233    0.4988 C   0  0  0  0  0  0  0  0  0  0  0  0
   -5.0767    2.2541    0.3804 C   0  0  0  0  0  0  0  0  0  0  0  0
   -3.2776    0.1143    0.1459 N   0  0  0  0  0  0  0  0  0  0  0  0
   -2.2078   -0.6735   -0.0283 C   0  0  0  0  0  0  0  0  0  0  0  0
   -2.3456   -2.1239    0.0725 C   0  0  0  0  0  0  0  0  0  0  0  0
   -1.9201   -2.9598   -0.9682 C   0  0  0  0  0  0  0  0  0  0  0  0
   -2.0568   -4.3459   -0.8598 C   0  0  0  0  0  0  0  0  0  0  0  0
   -2.6257   -4.9040    0.2845 C   0  0  0  0  0  0  0  0  0  0  0  0
   -3.0645   -4.0788    1.3190 C   0  0  0  0  0  0  0  0  0  0  0  0
   -2.9286   -2.6932    1.2120 C   0  0  0  0  0  0  0  0  0  0  0  0
    5.8120    0.5567   -0.2879 N   0  0  0  0  0  0  0  0  0  0  0  0
    8.4610    1.0323   -0.6598 H   0  0  0  0  0  0  0  0  0  0  0  0
    8.8903   -0.6647   -0.2863 H   0  0  0  0  0  0  0  0  0  0  0  0
    8.1764    0.3712    0.9858 H   0  0  0  0  0  0  0  0  0  0  0  0
    7.1641   -2.2312   -1.2979 H   0  0  0  0  0  0  0  0  0  0  0  0
    3.3671    1.3711   -0.7976 H   0  0  0  0  0  0  0  0  0  0  0  0
    2.9404   -0.0568   -1.7341 H   0  0  0  0  0  0  0  0  0  0  0  0
    3.1150    0.0479    1.3275 H   0  0  0  0  0  0  0  0  0  0  0  0
    2.6312   -1.3635    0.4180 H   0  0  0  0  0  0  0  0  0  0  0  0
    1.1995    1.2252    0.4128 H   0  0  0  0  0  0  0  0  0  0  0  0
    0.4106   -1.4756   -0.4584 H   0  0  0  0  0  0  0  0  0  0  0  0
    0.6692   -0.0926   -1.5338 H   0  0  0  0  0  0  0  0  0  0  0  0
   -0.9545    2.3202   -0.4921 H   0  0  0  0  0  0  0  0  0  0  0  0
   -2.2389    4.0396   -0.2991 H   0  0  0  0  0  0  0  0  0  0  0  0
   -3.8221    5.8913   -0.0869 H   0  0  0  0  0  0  0  0  0  0  0  0
   -6.2090    5.4610    0.4232 H   0  0  0  0  0  0  0  0  0  0  0  0
   -7.0135    3.1326    0.7228 H   0  0  0  0  0  0  0  0  0  0  0  0
   -5.4531    1.2414    0.5160 H   0  0  0  0  0  0  0  0  0  0  0  0
   -1.4934   -2.5385   -1.8746 H   0  0  0  0  0  0  0  0  0  0  0  0
   -1.7256   -4.9893   -1.6707 H   0  0  0  0  0  0  0  0  0  0  0  0
   -2.7341   -5.9823    0.3674 H   0  0  0  0  0  0  0  0  0  0  0  0
   -3.5159   -4.5110    2.2080 H   0  0  0  0  0  0  0  0  0  0  0  0
   -3.2788   -2.0538    2.0197 H   0  0  0  0  0  0  0  0  0  0  0  0
  1  2  1  0
  2  3  1  0
  3  4  2  0
  4  5  1  0
  5  6  1  0
  6  7  1  0
  7  8  1  0
  8  9  1  0
  9 10  1  0
 10 11  2  0
 11 12  1  0
 12 13  1  0
 13 14  2  0
 14 15  1  0
 15 16  2  0
 16 17  1  0
 17 18  2  0
 12 19  1  0
 19 20  2  0
 20 21  1  0
 21 22  2  0
 22 23  1  0
 23 24  2  0
 24 25  1  0
 25 26  2  0
  5 27  2  0
 27  2  1  0
 20 10  1  0
 26 21  1  0
 18 13  1  0
  1 28  1  0
  1 29  1  0
  1 30  1  0
  3 31  1  0
  6 32  1  0
  6 33  1  0
  7 34  1  0
  7 35  1  0
  8 36  1  0
  9 37  1  0
  9 38  1  0
 11 39  1  0
 14 40  1  0
 15 41  1  0
 16 42  1  0
 17 43  1  0
 18 44  1  0
 22 45  1  0
 23 46  1  0
 24 47  1  0
 25 48  1  0
 26 49  1  0
M  END
$$$$
OCNT-2309595
     RDKit          3D

 48 51  0  0  0  0  0  0  0  0999 V2000
    8.7959   -0.8105    2.4633 N   0  0  0  0  0  0  0  0  0  0  0  0
    7.8045   -0.5276    1.9306 C   0  0  0  0  0  0  0  0  0  0  0  0
    6.5845   -0.1756    1.2793 C   0  0  0  0  0  0  0  0  0  0  0  0
    6.0715    1.1132    1.3387 C   0  0  0  0  0  0  0  0  0  0  0  0
    4.8719    1.4017    0.6813 C   0  0  0  0  0  0  0  0  0  0  0  0
    4.1910    0.4037   -0.0203 C   0  0  0  0  0  0  0  0  0  0  0  0
    3.0062    0.6742   -0.6940 N   0  0  0  0  0  0  0  0  0  0  0  0
    2.5113   -0.3857   -1.5793 C   0  0  0  0  0  0  0  0  0  0  0  0
    1.3419    0.1539   -2.3988 C   0  0  0  0  0  0  0  0  0  0  0  0
    0.1641    0.5388   -1.4910 C   0  0  0  0  0  0  0  0  0  0  0  0
   -0.8197   -0.6233   -1.3314 C   0  0  0  0  0  0  0  0  0  0  0  0
   -0.5539   -1.7636   -1.6941 O   0  0  0  0  0  0  0  0  0  0  0  0
   -2.0063   -0.2367   -0.7313 N   0  0  0  0  0  0  0  0  0  0  0  0
   -3.1402   -1.0738   -0.4169 C   0  0  0  0  0  0  0  0  0  0  0  0
   -4.2473   -0.2837    0.2813 C   0  0  0  0  0  0  0  0  0  0  0  0
   -4.2762   -0.1508    1.6833 C   0  0  0  0  0  0  0  0  0  0  0  0
   -5.2741    0.5874    2.3248 C   0  0  0  0  0  0  0  0  0  0  0  0
   -6.2582    1.2130    1.5692 C   0  0  0  0  0  0  0  0  0  0  0  0
   -7.2049    1.9208    2.2022 F   0  0  0  0  0  0  0  0  0  0  0  0
   -6.2525    1.1094    0.1822 C   0  0  0  0  0  0  0  0  0  0  0  0
   -7.4602    1.8906   -0.7633 Cl  0  0  0  0  0  0  0  0  0  0  0  0
   -5.2536    0.3700   -0.4558 C   0  0  0  0  0  0  0  0  0  0  0  0
   -2.9631   -2.5253   -0.0107 C   0  0  0  0  0  0  0  0  0  0  0  0
   -3.5622   -2.1979   -1.3449 C   0  0  0  0  0  0  0  0  0  0  0  0
    0.6333    1.0035   -0.1022 C   0  0  0  0  0  0  0  0  0  0  0  0
    2.0365    1.6056   -0.1199 C   0  0  0  0  0  0  0  0  0  0  0  0
    4.7084   -0.8442   -0.0872 N   0  0  0  0  0  0  0  0  0  0  0  0
    5.8717   -1.1118    0.5557 C   0  0  0  0  0  0  0  0  0  0  0  0
    6.5928    1.8996    1.8788 H   0  0  0  0  0  0  0  0  0  0  0  0
    4.4952    2.4189    0.7018 H   0  0  0  0  0  0  0  0  0  0  0  0
    3.2998   -0.6961   -2.2765 H   0  0  0  0  0  0  0  0  0  0  0  0
    2.2006   -1.2652   -1.0014 H   0  0  0  0  0  0  0  0  0  0  0  0
    1.6736    1.0478   -2.9444 H   0  0  0  0  0  0  0  0  0  0  0  0
    1.0460   -0.5764   -3.1603 H   0  0  0  0  0  0  0  0  0  0  0  0
   -0.3806    1.3529   -1.9880 H   0  0  0  0  0  0  0  0  0  0  0  0
   -2.1145    0.7476   -0.5169 H   0  0  0  0  0  0  0  0  0  0  0  0
   -3.5069   -0.6360    2.2829 H   0  0  0  0  0  0  0  0  0  0  0  0
   -5.2889    0.6771    3.4068 H   0  0  0  0  0  0  0  0  0  0  0  0
   -5.2511    0.2939   -1.5417 H   0  0  0  0  0  0  0  0  0  0  0  0
   -1.9665   -2.9512    0.0058 H   0  0  0  0  0  0  0  0  0  0  0  0
   -3.6203   -2.9521    0.7384 H   0  0  0  0  0  0  0  0  0  0  0  0
   -4.6170   -2.4075   -1.4819 H   0  0  0  0  0  0  0  0  0  0  0  0
   -2.9679   -2.4026   -2.2281 H   0  0  0  0  0  0  0  0  0  0  0  0
    0.6228    0.1601    0.6021 H   0  0  0  0  0  0  0  0  0  0  0  0
   -0.0741    1.7405    0.2976 H   0  0  0  0  0  0  0  0  0  0  0  0
    2.2851    1.8854    0.9107 H   0  0  0  0  0  0  0  0  0  0  0  0
    2.0382    2.5272   -0.7141 H   0  0  0  0  0  0  0  0  0  0  0  0
    6.2135   -2.1394    0.4579 H   0  0  0  0  0  0  0  0  0  0  0  0
  1  2  3  0
  2  3  1  0
  3  4  2  0
  4  5  1  0
  5  6  2  0
  6  7  1  0
  7  8  1  0
  8  9  1  0
  9 10  1  0
 10 11  1  0
 11 12  2  0
 11 13  1  0
 13 14  1  0
 14 15  1  0
 15 16  1  0
 16 17  2  0
 17 18  1  0
 18 19  1  0
 18 20  2  0
 20 21  1  0
 20 22  1  0
 14 23  1  0
 23 24  1  0
 10 25  1  0
 25 26  1  0
  6 27  1  0
 27 28  2  0
 28  3  1  0
 26  7  1  0
 24 14  1  0
 22 15  2  0
  4 29  1  0
  5 30  1  0
  8 31  1  0
  8 32  1  0
  9 33  1  0
  9 34  1  0
 10 35  1  0
 13 36  1  0
 16 37  1  0
 17 38  1  0
 22 39  1  0
 23 40  1  0
 23 41  1  0
 24 42  1  0
 24 43  1  0
 25 44  1  0
 25 45  1  0
 26 46  1  0
 26 47  1  0
 28 48  1  0
M  END
$$$$
OCNT-2309599
     RDKit          3D

 49 53  0  0  0  0  0  0  0  0999 V2000
   -4.0958   -3.9643   -0.1640 C   0  0  0  0  0  0  0  0  0  0  0  0
   -2.6947   -3.4858   -0.0608 C   0  0  0  0  0  0  0  0  0  0  0  0
   -1.7015   -4.3600    0.1493 N   0  0  0  0  0  0  0  0  0  0  0  0
   -0.5972   -3.5932    0.1851 N   0  0  0  0  0  0  0  0  0  0  0  0
   -0.8472   -2.2546    0.0182 C   0  0  0  0  0  0  0  0  0  0  0  0
    0.1276   -1.2708    0.0522 N   0  0  0  0  0  0  0  0  0  0  0  0
    1.4730   -1.5660    0.2421 C   0  0  0  0  0  0  0  0  0  0  0  0
    1.8859   -2.7194    0.3723 O   0  0  0  0  0  0  0  0  0  0  0  0
    2.3649   -0.3839    0.2680 C   0  0  0  0  0  0  0  0  0  0  0  0
    3.6999   -0.5268    0.2980 N   0  0  0  0  0  0  0  0  0  0  0  0
    4.2306    0.7176    0.3099 N   0  0  0  0  0  0  0  0  0  0  0  0
    5.6369    0.9175    0.3289 C   0  0  0  0  0  0  0  0  0  0  0  0
    6.5150   -0.1728    0.3891 C   0  0  0  0  0  0  0  0  0  0  0  0
    6.0830   -1.4405    0.4425 F   0  0  0  0  0  0  0  0  0  0  0  0
    7.9011    0.0104    0.4048 C   0  0  0  0  0  0  0  0  0  0  0  0
    8.4407    1.2914    0.3601 C   0  0  0  0  0  0  0  0  0  0  0  0
    7.5849    2.3860    0.3010 C   0  0  0  0  0  0  0  0  0  0  0  0
    6.1994    2.1978    0.2849 C   0  0  0  0  0  0  0  0  0  0  0  0
    5.4493    3.3056    0.2132 F   0  0  0  0  0  0  0  0  0  0  0  0
    3.2255    1.6620    0.2973 C   0  0  0  0  0  0  0  0  0  0  0  0
    2.0270    0.9908    0.2699 C   0  0  0  0  0  0  0  0  0  0  0  0
   -2.2120   -2.1520   -0.1608 C   0  0  0  0  0  0  0  0  0  0  0  0
   -2.9239   -0.9096   -0.3719 C   0  0  0  0  0  0  0  0  0  0  0  0
   -2.6982   -0.1551   -1.5317 C   0  0  0  0  0  0  0  0  0  0  0  0
   -3.3850    1.0439   -1.7352 C   0  0  0  0  0  0  0  0  0  0  0  0
   -4.3018    1.4871   -0.7844 C   0  0  0  0  0  0  0  0  0  0  0  0
   -4.9547    2.6616   -1.0587 O   0  0  0  0  0  0  0  0  0  0  0  0
   -6.1012    2.8286   -0.2156 C   0  0  0  0  0  0  0  0  0  0  0  0
   -5.7512    2.5160    1.2299 C   0  0  0  0  0  0  0  0  0  0  0  0
   -5.3769    1.1410    1.3748 O   0  0  0  0  0  0  0  0  0  0  0  0
   -4.5140    0.7476    0.3836 C   0  0  0  0  0  0  0  0  0  0  0  0
   -3.8397   -0.4564    0.5836 C   0  0  0  0  0  0  0  0  0  0  0  0
   -4.1366   -5.0385   -0.3717 H   0  0  0  0  0  0  0  0  0  0  0  0
   -4.6288   -3.7794    0.7741 H   0  0  0  0  0  0  0  0  0  0  0  0
   -4.6252   -3.4483   -0.9709 H   0  0  0  0  0  0  0  0  0  0  0  0
    0.3120   -4.0253    0.3362 H   0  0  0  0  0  0  0  0  0  0  0  0
   -0.1779   -0.3153   -0.0676 H   0  0  0  0  0  0  0  0  0  0  0  0
    8.5479   -0.8617    0.4515 H   0  0  0  0  0  0  0  0  0  0  0  0
    9.5181    1.4339    0.3700 H   0  0  0  0  0  0  0  0  0  0  0  0
    7.9854    3.3958    0.2623 H   0  0  0  0  0  0  0  0  0  0  0  0
    3.4217    2.7218    0.3149 H   0  0  0  0  0  0  0  0  0  0  0  0
    1.0505    1.4517    0.2618 H   0  0  0  0  0  0  0  0  0  0  0  0
   -2.0012   -0.5057   -2.2907 H   0  0  0  0  0  0  0  0  0  0  0  0
   -3.2196    1.6209   -2.6409 H   0  0  0  0  0  0  0  0  0  0  0  0
   -6.4329    3.8675   -0.3089 H   0  0  0  0  0  0  0  0  0  0  0  0
   -6.9039    2.1785   -0.5850 H   0  0  0  0  0  0  0  0  0  0  0  0
   -4.9231    3.1410    1.5863 H   0  0  0  0  0  0  0  0  0  0  0  0
   -6.6163    2.6943    1.8769 H   0  0  0  0  0  0  0  0  0  0  0  0
   -4.0197   -1.0248    1.4926 H   0  0  0  0  0  0  0  0  0  0  0  0
  1  2  1  0
  2  3  2  0
  3  4  1  0
  4  5  1  0
  5  6  1  0
  6  7  1  0
  7  8  2  0
  7  9  1  0
  9 10  2  0
 10 11  1  0
 11 12  1  0
 12 13  2  0
 13 14  1  0
 13 15  1  0
 15 16  2  0
 16 17  1  0
 17 18  2  0
 18 19  1  0
 11 20  1  0
 20 21  2  0
  5 22  2  0
 22 23  1  0
 23 24  1  0
 24 25  2  0
 25 26  1  0
 26 27  1  0
 27 28  1  0
 28 29  1  0
 29 30  1  0
 30 31  1  0
 31 32  1  0
 22  2  1  0
 32 23  2  0
 21  9  1  0
 31 26  2  0
 18 12  1  0
  1 33  1  0
  1 34  1  0
  1 35  1  0
  4 36  1  0
  6 37  1  0
 15 38  1  0
 16 39  1  0
 17 40  1  0
 20 41  1  0
 21 42  1  0
 24 43  1  0
 25 44  1  0
 28 45  1  0
 28 46  1  0
 29 47  1  0
 29 48  1  0
 32 49  1  0
M  END
$$$$
OCNT-2309602
     RDKit          3D

 37 39  0  0  0  0  0  0  0  0999 V2000
    1.4119    2.1808   -3.7568 O   0  0  0  0  0  0  0  0  0  0  0  0
    0.4735    1.4514   -2.9226 S   0  0  0  0  0  0  0  0  0  0  0  0
   -0.6300    0.7410   -3.5316 O   0  0  0  0  0  0  0  0  0  0  0  0
   -0.0910    2.5736   -1.8267 N   0  0  0  0  0  0  0  0  0  0  0  0
   -0.9566    2.3101   -0.7868 C   0  0  0  0  0  0  0  0  0  0  0  0
   -1.3381    1.0928   -0.4314 N   0  0  0  0  0  0  0  0  0  0  0  0
   -2.1715    1.2583    0.6322 N   0  0  0  0  0  0  0  0  0  0  0  0
   -2.7635    0.1171    1.2637 C   0  0  0  0  0  0  0  0  0  0  0  0
   -2.4383   -1.1185    0.7721 N   0  0  0  0  0  0  0  0  0  0  0  0
   -2.9922   -2.2017    1.3578 C   0  0  0  0  0  0  0  0  0  0  0  0
   -3.8648   -2.1293    2.4283 C   0  0  0  0  0  0  0  0  0  0  0  0
   -4.1881   -0.8718    2.9250 C   0  0  0  0  0  0  0  0  0  0  0  0
   -3.6342    0.2641    2.3390 C   0  0  0  0  0  0  0  0  0  0  0  0
   -3.9775    1.4537    2.8487 F   0  0  0  0  0  0  0  0  0  0  0  0
   -2.2944    2.5991    0.9415 C   0  0  0  0  0  0  0  0  0  0  0  0
   -1.5156    3.2932    0.0453 C   0  0  0  0  0  0  0  0  0  0  0  0
    1.4348    0.3232   -1.9419 C   0  0  0  0  0  0  0  0  0  0  0  0
    2.7680    0.6235   -1.6493 C   0  0  0  0  0  0  0  0  0  0  0  0
    3.5395   -0.2788   -0.9074 C   0  0  0  0  0  0  0  0  0  0  0  0
    2.9845   -1.4829   -0.4655 C   0  0  0  0  0  0  0  0  0  0  0  0
    3.6160   -2.4477    0.2661 O   0  0  0  0  0  0  0  0  0  0  0  0
    4.9588   -2.2134    0.6508 C   0  0  0  0  0  0  0  0  0  0  0  0
    5.0616   -1.1066    1.4180 F   0  0  0  0  0  0  0  0  0  0  0  0
    5.3918   -3.2677    1.3776 F   0  0  0  0  0  0  0  0  0  0  0  0
    5.7618   -2.0902   -0.4275 F   0  0  0  0  0  0  0  0  0  0  0  0
    1.6533   -1.7787   -0.7817 C   0  0  0  0  0  0  0  0  0  0  0  0
    0.8791   -0.8864   -1.5257 C   0  0  0  0  0  0  0  0  0  0  0  0
    0.2337    3.5183   -2.0013 H   0  0  0  0  0  0  0  0  0  0  0  0
   -2.7060   -3.1578    0.9276 H   0  0  0  0  0  0  0  0  0  0  0  0
   -4.2836   -3.0300    2.8639 H   0  0  0  0  0  0  0  0  0  0  0  0
   -4.8696   -0.7659    3.7634 H   0  0  0  0  0  0  0  0  0  0  0  0
   -2.9057    2.9557    1.7554 H   0  0  0  0  0  0  0  0  0  0  0  0
   -1.3814    4.3642    0.0029 H   0  0  0  0  0  0  0  0  0  0  0  0
    3.2156    1.5519   -1.9972 H   0  0  0  0  0  0  0  0  0  0  0  0
    4.5702   -0.0049   -0.7004 H   0  0  0  0  0  0  0  0  0  0  0  0
    1.2061   -2.7111   -0.4436 H   0  0  0  0  0  0  0  0  0  0  0  0
   -0.1581   -1.1287   -1.7524 H   0  0  0  0  0  0  0  0  0  0  0  0
  1  2  2  0
  2  3  2  0
  2  4  1  0
  4  5  1  0
  5  6  2  0
  6  7  1  0
  7  8  1  0
  8  9  1  0
  9 10  2  0
 10 11  1  0
 11 12  2  0
 12 13  1  0
 13 14  1  0
  7 15  1  0
 15 16  2  0
  2 17  1  0
 17 18  1  0
 18 19  2  0
 19 20  1  0
 20 21  1  0
 21 22  1  0
 22 23  1  0
 22 24  1  0
 22 25  1  0
 20 26  2  0
 26 27  1  0
 16  5  1  0
 27 17  2  0
 13  8  2  0
  4 28  1  0
 10 29  1  0
 11 30  1  0
 12 31  1  0
 15 32  1  0
 16 33  1  0
 18 34  1  0
 19 35  1  0
 26 36  1  0
 27 37  1  0
M  END
$$$$
OCNT-2309614
     RDKit          3D

 43 45  0  0  0  0  0  0  0  0999 V2000
    6.3172    1.3212   -0.0199 C   0  0  0  0  0  0  0  0  0  0  0  0
    5.6916    0.1919   -0.8186 C   0  0  0  0  0  0  0  0  0  0  0  0
    4.2494    0.2211   -0.7668 N   0  0  0  0  0  0  0  0  0  0  0  0
    3.5430    0.9500   -1.6576 N   0  0  0  0  0  0  0  0  0  0  0  0
    2.2537    0.7863   -1.3709 N   0  0  0  0  0  0  0  0  0  0  0  0
    2.1627   -0.0548   -0.2893 C   0  0  0  0  0  0  0  0  0  0  0  0
    1.0785   -0.5748    0.4377 C   0  0  0  0  0  0  0  0  0  0  0  0
   -0.2452   -0.2527    0.1327 N   0  0  0  0  0  0  0  0  0  0  0  0
   -1.2446   -1.2541    0.4997 C   0  0  0  0  0  0  0  0  0  0  0  0
   -2.6928   -0.8625    0.0375 C   0  0  2  0  0  0  0  0  0  0  0  0
   -3.6638   -1.9518    0.5766 C   0  0  0  0  0  0  0  0  0  0  0  0
   -3.3460   -3.2462    0.0730 O   0  0  0  0  0  0  0  0  0  0  0  0
   -2.7678   -0.8743   -1.5139 C   0  0  0  0  0  0  0  0  0  0  0  0
   -2.1136    0.2668   -2.0911 O   0  0  0  0  0  0  0  0  0  0  0  0
   -2.7779    1.4615   -1.6593 C   0  0  0  0  0  0  0  0  0  0  0  0
   -2.6864    1.6200   -0.1310 C   0  0  1  0  0  0  0  0  0  0  0  0
   -3.4863    2.8384    0.3263 C   0  0  0  0  0  0  0  0  0  0  0  0
   -3.1713    0.4381    0.6105 N   0  0  0  0  0  0  0  0  0  0  0  0
    1.3667   -1.3999    1.4828 N   0  0  0  0  0  0  0  0  0  0  0  0
    2.6587   -1.6784    1.7639 C   0  0  0  0  0  0  0  0  0  0  0  0
    3.7640   -1.2400    1.1310 N   0  0  0  0  0  0  0  0  0  0  0  0
    3.4321   -0.4294    0.1116 C   0  0  0  0  0  0  0  0  0  0  0  0
    6.0301    1.2643    1.0354 H   0  0  0  0  0  0  0  0  0  0  0  0
    5.9986    2.2976   -0.4001 H   0  0  0  0  0  0  0  0  0  0  0  0
    7.4087    1.2705   -0.0805 H   0  0  0  0  0  0  0  0  0  0  0  0
    5.9896    0.2529   -1.8711 H   0  0  0  0  0  0  0  0  0  0  0  0
    6.0250   -0.7787   -0.4358 H   0  0  0  0  0  0  0  0  0  0  0  0
   -0.3330    0.0775   -0.8323 H   0  0  0  0  0  0  0  0  0  0  0  0
   -1.2491   -1.3762    1.5912 H   0  0  0  0  0  0  0  0  0  0  0  0
   -0.9682   -2.2217    0.0606 H   0  0  0  0  0  0  0  0  0  0  0  0
   -3.6258   -1.9984    1.6715 H   0  0  0  0  0  0  0  0  0  0  0  0
   -4.6966   -1.7257    0.2850 H   0  0  0  0  0  0  0  0  0  0  0  0
   -4.0066   -3.8617    0.4382 H   0  0  0  0  0  0  0  0  0  0  0  0
   -3.8080   -0.8930   -1.8644 H   0  0  0  0  0  0  0  0  0  0  0  0
   -2.2780   -1.7652   -1.9226 H   0  0  0  0  0  0  0  0  0  0  0  0
   -2.2838    2.3054   -2.1528 H   0  0  0  0  0  0  0  0  0  0  0  0
   -3.8189    1.4428   -2.0057 H   0  0  0  0  0  0  0  0  0  0  0  0
   -1.6397    1.7970    0.1363 H   0  0  0  0  0  0  0  0  0  0  0  0
   -4.5527    2.7264    0.1002 H   0  0  0  0  0  0  0  0  0  0  0  0
   -3.1294    3.7450   -0.1744 H   0  0  0  0  0  0  0  0  0  0  0  0
   -3.3836    2.9944    1.4060 H   0  0  0  0  0  0  0  0  0  0  0  0
   -2.8246    0.5121    1.5692 H   0  0  0  0  0  0  0  0  0  0  0  0
    2.8246   -2.3412    2.6087 H   0  0  0  0  0  0  0  0  0  0  0  0
  1  2  1  0
  2  3  1  0
  3  4  1  0
  4  5  2  0
  5  6  1  0
  6  7  2  0
  7  8  1  0
  8  9  1  0
 10  9  1  6
 10 11  1  0
 11 12  1  0
 10 13  1  0
 13 14  1  0
 14 15  1  0
 15 16  1  0
 16 17  1  0
 16 18  1  0
  7 19  1  0
 19 20  2  0
 20 21  1  0
 21 22  2  0
 22  3  1  0
 22  6  1  0
 18 10  1  0
  1 23  1  0
  1 24  1  0
  1 25  1  0
  2 26  1  0
  2 27  1  0
  8 28  1  0
  9 29  1  0
  9 30  1  0
 11 31  1  0
 11 32  1  0
 12 33  1  0
 13 34  1  0
 13 35  1  0
 15 36  1  0
 15 37  1  0
 16 38  1  6
 17 39  1  0
 17 40  1  0
 17 41  1  0
 18 42  1  0
 20 43  1  0
M  END
$$$$
OCNT-2309634
     RDKit          3D

 52 56  0  0  0  0  0  0  0  0999 V2000
   -7.0381   -0.0051    1.1067 C   0  0  0  0  0  0  0  0  0  0  0  0
   -6.0607    0.3820    0.0325 C   0  0  0  0  0  0  0  0  0  0  0  0
   -6.4376    0.8915   -1.2276 C   0  0  0  0  0  0  0  0  0  0  0  0
   -7.6535    1.1964   -1.8852 C   0  0  0  0  0  0  0  0  0  0  0  0
   -7.4734    1.6733   -3.1195 N   0  0  0  0  0  0  0  0  0  0  0  0
   -6.1367    1.6782   -3.2557 N   0  0  0  0  0  0  0  0  0  0  0  0
   -5.4576    1.2165   -2.1580 C   0  0  0  0  0  0  0  0  0  0  0  0
   -4.0882    1.0645   -1.9126 C   0  0  0  0  0  0  0  0  0  0  0  0
   -3.7036    0.5714   -0.6576 C   0  0  0  0  0  0  0  0  0  0  0  0
   -2.3200    0.4114   -0.4323 N   0  0  0  0  0  0  0  0  0  0  0  0
   -1.6871    0.2156    0.7775 C   0  0  0  0  0  0  0  0  0  0  0  0
   -2.2244    0.3285    1.8758 O   0  0  0  0  0  0  0  0  0  0  0  0
   -0.3247   -0.0941    0.6464 N   0  0  0  0  0  0  0  0  0  0  0  0
    0.1250   -0.9703   -0.4369 C   0  0  0  0  0  0  0  0  0  0  0  0
    1.6155   -1.0992   -0.4785 C   0  0  0  0  0  0  0  0  0  0  0  0
    2.4451   -0.6239    0.4648 C   0  0  0  0  0  0  0  0  0  0  0  0
    3.8651   -0.7303    0.3926 C   0  0  0  0  0  0  0  0  0  0  0  0
    4.6242   -1.6783    1.0524 C   0  0  0  0  0  0  0  0  0  0  0  0
    4.2460   -2.7860    1.9661 C   0  0  0  0  0  0  0  0  0  0  0  0
    5.9377   -1.4371    0.7244 N   0  0  0  0  0  0  0  0  0  0  0  0
    6.0386   -0.3678   -0.1361 C   0  0  0  0  0  0  0  0  0  0  0  0
    7.1689    0.2158   -0.7216 C   0  0  0  0  0  0  0  0  0  0  0  0
    6.9680    1.3105   -1.5684 C   0  0  0  0  0  0  0  0  0  0  0  0
    5.6880    1.8004   -1.8176 C   0  0  0  0  0  0  0  0  0  0  0  0
    4.5693    1.2043   -1.2245 C   0  0  0  0  0  0  0  0  0  0  0  0
    4.7445    0.0982   -0.3665 C   0  0  0  0  0  0  0  0  0  0  0  0
    1.9209    0.0787    1.6865 C   0  0  0  0  0  0  0  0  0  0  0  0
    0.4319   -0.2005    1.8945 C   0  0  0  0  0  0  0  0  0  0  0  0
   -4.6775    0.2308    0.2864 C   0  0  0  0  0  0  0  0  0  0  0  0
   -6.8678    0.5962    2.0059 H   0  0  0  0  0  0  0  0  0  0  0  0
   -8.0718    0.1532    0.7853 H   0  0  0  0  0  0  0  0  0  0  0  0
   -6.9212   -1.0642    1.3577 H   0  0  0  0  0  0  0  0  0  0  0  0
   -8.6628    1.0864   -1.5102 H   0  0  0  0  0  0  0  0  0  0  0  0
   -5.7464    2.0126   -4.1292 H   0  0  0  0  0  0  0  0  0  0  0  0
   -3.3584    1.3296   -2.6697 H   0  0  0  0  0  0  0  0  0  0  0  0
   -1.7109    0.7281   -1.1704 H   0  0  0  0  0  0  0  0  0  0  0  0
   -0.3314   -1.9555   -0.2884 H   0  0  0  0  0  0  0  0  0  0  0  0
   -0.2190   -0.5862   -1.4007 H   0  0  0  0  0  0  0  0  0  0  0  0
    2.0304   -1.6113   -1.3439 H   0  0  0  0  0  0  0  0  0  0  0  0
    3.2850   -3.2229    1.6773 H   0  0  0  0  0  0  0  0  0  0  0  0
    4.1620   -2.4164    2.9929 H   0  0  0  0  0  0  0  0  0  0  0  0
    4.9925   -3.5865    1.9493 H   0  0  0  0  0  0  0  0  0  0  0  0
    6.7274   -1.9683    1.0635 H   0  0  0  0  0  0  0  0  0  0  0  0
    8.1675   -0.1614   -0.5282 H   0  0  0  0  0  0  0  0  0  0  0  0
    7.8250    1.7888   -2.0364 H   0  0  0  0  0  0  0  0  0  0  0  0
    5.5545    2.6551   -2.4754 H   0  0  0  0  0  0  0  0  0  0  0  0
    3.5746    1.5932   -1.4193 H   0  0  0  0  0  0  0  0  0  0  0  0
    2.0745    1.1585    1.5616 H   0  0  0  0  0  0  0  0  0  0  0  0
    2.4606   -0.2252    2.5910 H   0  0  0  0  0  0  0  0  0  0  0  0
    0.2750   -1.2113    2.2933 H   0  0  0  0  0  0  0  0  0  0  0  0
    0.0407    0.5046    2.6370 H   0  0  0  0  0  0  0  0  0  0  0  0
   -4.3855   -0.1727    1.2538 H   0  0  0  0  0  0  0  0  0  0  0  0
  1  2  1  0
  2  3  2  0
  3  4  1  0
  4  5  2  0
  5  6  1  0
  6  7  1  0
  7  8  2  0
  8  9  1  0
  9 10  1  0
 10 11  1  0
 11 12  2  0
 11 13  1  0
 13 14  1  0
 14 15  1  0
 15 16  2  0
 16 17  1  0
 17 18  2  0
 18 19  1  0
 18 20  1  0
 20 21  1  0
 21 22  2  0
 22 23  1  0
 23 24  2  0
 24 25  1  0
 25 26  2  0
 16 27  1  0
 27 28  1  0
  9 29  2  0
 29  2  1  0
  7  3  1  0
 28 13  1  0
 26 17  1  0
 26 21  1  0
  1 30  1  0
  1 31  1  0
  1 32  1  0
  4 33  1  0
  6 34  1  0
  8 35  1  0
 10 36  1  0
 14 37  1  0
 14 38  1  0
 15 39  1  0
 19 40  1  0
 19 41  1  0
 19 42  1  0
 20 43  1  0
 22 44  1  0
 23 45  1  0
 24 46  1  0
 25 47  1  0
 27 48  1  0
 27 49  1  0
 28 50  1  0
 28 51  1  0
 29 52  1  0
M  END
$$$$
OCNT-2309641
     RDKit          3D

 50 53  0  0  0  0  0  0  0  0999 V2000
    1.1910   -2.8476    0.7787 C   0  0  0  0  0  0  0  0  0  0  0  0
    1.8914   -1.5705    0.4906 C   0  0  0  0  0  0  0  0  0  0  0  0
    3.2220   -1.5595    0.3865 N   0  0  0  0  0  0  0  0  0  0  0  0
    3.5331   -0.3038   -0.0240 N   0  0  0  0  0  0  0  0  0  0  0  0
    4.8733   -0.0233   -0.4015 C   0  0  0  0  0  0  0  0  0  0  0  0
    5.8957   -0.6696    0.3211 C   0  0  0  0  0  0  0  0  0  0  0  0
    7.2381   -0.4153    0.0355 C   0  0  0  0  0  0  0  0  0  0  0  0
    7.5671    0.4653   -0.9889 C   0  0  0  0  0  0  0  0  0  0  0  0
    9.2200    0.7831   -1.3439 Cl  0  0  0  0  0  0  0  0  0  0  0  0
    6.5677    1.0725   -1.7461 C   0  0  0  0  0  0  0  0  0  0  0  0
    5.2174    0.8194   -1.4677 C   0  0  0  0  0  0  0  0  0  0  0  0
    4.0828    1.4502   -2.6104 Cl  0  0  0  0  0  0  0  0  0  0  0  0
    2.4441    0.5460    0.1216 C   0  0  0  0  0  0  0  0  0  0  0  0
    2.5131    2.0327    0.1212 C   0  0  0  0  0  0  0  0  0  0  0  0
    1.3421   -0.2716    0.3408 C   0  0  0  0  0  0  0  0  0  0  0  0
   -0.0934    0.1363    0.4938 C   0  0  0  0  0  0  0  0  0  0  0  0
   -1.0232   -0.4590   -0.5509 C   0  0  0  0  0  0  0  0  0  0  0  0
   -0.5815   -1.0768   -1.5269 O   0  0  0  0  0  0  0  0  0  0  0  0
   -2.3918   -0.3183   -0.3893 N   0  0  0  0  0  0  0  0  0  0  0  0
   -3.2845   -0.9345   -1.3819 C   0  0  0  0  0  0  0  0  0  0  0  0
   -4.7197   -0.8271   -0.8539 C   0  0  0  0  0  0  0  0  0  0  0  0
   -5.6933   -0.3904   -1.9461 C   0  0  0  0  0  0  0  0  0  0  0  0
   -7.0461   -0.5583   -1.5286 O   0  0  0  0  0  0  0  0  0  0  0  0
   -4.5371    0.1592    0.2704 C   0  0  0  0  0  0  0  0  0  0  0  0
   -5.5408    0.7487    1.0311 C   0  0  0  0  0  0  0  0  0  0  0  0
   -5.1778    1.6062    2.0656 C   0  0  0  0  0  0  0  0  0  0  0  0
   -3.8273    1.8577    2.3277 C   0  0  0  0  0  0  0  0  0  0  0  0
   -2.8216    1.2548    1.5606 C   0  0  0  0  0  0  0  0  0  0  0  0
   -3.1804    0.3986    0.5314 C   0  0  0  0  0  0  0  0  0  0  0  0
    1.7609   -3.4550    1.4891 H   0  0  0  0  0  0  0  0  0  0  0  0
    0.2032   -2.6730    1.2147 H   0  0  0  0  0  0  0  0  0  0  0  0
    1.0614   -3.4234   -0.1423 H   0  0  0  0  0  0  0  0  0  0  0  0
    5.6516   -1.3581    1.1301 H   0  0  0  0  0  0  0  0  0  0  0  0
    8.0152   -0.9077    0.6147 H   0  0  0  0  0  0  0  0  0  0  0  0
    6.8413    1.7197   -2.5761 H   0  0  0  0  0  0  0  0  0  0  0  0
    3.5341    2.4113    0.2165 H   0  0  0  0  0  0  0  0  0  0  0  0
    2.0576    2.4433   -0.7845 H   0  0  0  0  0  0  0  0  0  0  0  0
    1.9553    2.4293    0.9770 H   0  0  0  0  0  0  0  0  0  0  0  0
   -0.4217   -0.1866    1.4874 H   0  0  0  0  0  0  0  0  0  0  0  0
   -0.1668    1.2257    0.4171 H   0  0  0  0  0  0  0  0  0  0  0  0
   -2.9983   -1.9799   -1.5462 H   0  0  0  0  0  0  0  0  0  0  0  0
   -3.1444   -0.3976   -2.3287 H   0  0  0  0  0  0  0  0  0  0  0  0
   -5.0324   -1.7830   -0.4155 H   0  0  0  0  0  0  0  0  0  0  0  0
   -5.5525    0.6616   -2.2154 H   0  0  0  0  0  0  0  0  0  0  0  0
   -5.5573   -0.9926   -2.8509 H   0  0  0  0  0  0  0  0  0  0  0  0
   -7.1959   -1.5079   -1.3799 H   0  0  0  0  0  0  0  0  0  0  0  0
   -6.5897    0.5492    0.8287 H   0  0  0  0  0  0  0  0  0  0  0  0
   -5.9461    2.0818    2.6705 H   0  0  0  0  0  0  0  0  0  0  0  0
   -3.5561    2.5335    3.1362 H   0  0  0  0  0  0  0  0  0  0  0  0
   -1.7998    1.5042    1.8049 H   0  0  0  0  0  0  0  0  0  0  0  0
  1  2  1  0
  2  3  2  0
  3  4  1  0
  4  5  1  0
  5  6  1  0
  6  7  2  0
  7  8  1  0
  8  9  1  0
  8 10  2  0
 10 11  1  0
 11 12  1  0
  4 13  1  0
 13 14  1  0
 13 15  2  0
 15 16  1  0
 16 17  1  0
 17 18  2  0
 17 19  1  0
 19 20  1  0
 20 21  1  0
 21 22  1  0
 22 23  1  0
 21 24  1  0
 24 25  2  0
 25 26  1  0
 26 27  2  0
 27 28  1  0
 28 29  2  0
 15  2  1  0
 29 19  1  0
 11  5  2  0
 29 24  1  0
  1 30  1  0
  1 31  1  0
  1 32  1  0
  6 33  1  0
  7 34  1  0
 10 35  1  0
 14 36  1  0
 14 37  1  0
 14 38  1  0
 16 39  1  0
 16 40  1  0
 20 41  1  0
 20 42  1  0
 21 43  1  0
 22 44  1  0
 22 45  1  0
 23 46  1  0
 25 47  1  0
 26 48  1  0
 27 49  1  0
 28 50  1  0
M  END
$$$$
OCNT-2309646
     RDKit          3D

 44 45  0  0  0  0  0  0  0  0999 V2000
   -6.4188    2.5297    0.3668 C   0  0  0  0  0  0  0  0  0  0  0  0
   -5.7922    1.3811    0.9233 O   0  0  0  0  0  0  0  0  0  0  0  0
   -4.5378    1.0810    0.4696 C   0  0  0  0  0  0  0  0  0  0  0  0
   -3.8165    1.7940   -0.4856 C   0  0  0  0  0  0  0  0  0  0  0  0
   -2.5342    1.3732   -0.8598 C   0  0  0  0  0  0  0  0  0  0  0  0
   -1.9511    0.2334   -0.2879 C   0  0  0  0  0  0  0  0  0  0  0  0
   -0.5624   -0.1911   -0.7070 C   0  0  0  0  0  0  0  0  0  0  0  0
   -0.4549   -1.6293   -1.2385 C   0  0  0  0  0  0  0  0  0  0  0  0
    0.7778   -2.2362   -0.5500 C   0  0  0  0  0  0  0  0  0  0  0  0
    0.3620   -3.2680    0.5058 C   0  0  0  0  0  0  0  0  0  0  0  0
    1.5098   -1.0557   -0.0559 N   0  0  0  0  0  0  0  0  0  0  0  0
    2.5220   -1.3513    0.9793 C   0  0  0  0  0  0  0  0  0  0  0  0
    3.5210   -0.1964    1.1394 C   0  0  0  0  0  0  0  0  0  0  0  0
    4.2125   -0.0541    2.1434 O   0  0  0  0  0  0  0  0  0  0  0  0
    3.6210    0.6294    0.0425 N   0  0  0  0  0  0  0  0  0  0  0  0
    4.6661    1.6394   -0.0698 C   0  0  0  0  0  0  0  0  0  0  0  0
    6.0078    1.1250   -0.5959 C   0  0  0  0  0  0  0  0  0  0  0  0
    6.5535    0.1786    0.1938 F   0  0  0  0  0  0  0  0  0  0  0  0
    5.8618    0.5941   -1.8344 F   0  0  0  0  0  0  0  0  0  0  0  0
    6.8981    2.1396   -0.6993 F   0  0  0  0  0  0  0  0  0  0  0  0
    0.4742   -0.1238    0.4180 C   0  0  0  0  0  0  0  0  0  0  0  0
   -2.6848   -0.4750    0.6724 C   0  0  0  0  0  0  0  0  0  0  0  0
   -3.9642   -0.0535    1.0445 C   0  0  0  0  0  0  0  0  0  0  0  0
   -6.5679    2.4145   -0.7119 H   0  0  0  0  0  0  0  0  0  0  0  0
   -7.4051    2.6299    0.8300 H   0  0  0  0  0  0  0  0  0  0  0  0
   -5.8509    3.4381    0.5934 H   0  0  0  0  0  0  0  0  0  0  0  0
   -4.2192    2.6820   -0.9609 H   0  0  0  0  0  0  0  0  0  0  0  0
   -1.9944    1.9502   -1.6083 H   0  0  0  0  0  0  0  0  0  0  0  0
   -0.2214    0.4731   -1.5152 H   0  0  0  0  0  0  0  0  0  0  0  0
   -0.2959   -1.5936   -2.3241 H   0  0  0  0  0  0  0  0  0  0  0  0
   -1.3592   -2.2249   -1.0729 H   0  0  0  0  0  0  0  0  0  0  0  0
    1.3929   -2.7517   -1.2974 H   0  0  0  0  0  0  0  0  0  0  0  0
   -0.2331   -2.8209    1.3081 H   0  0  0  0  0  0  0  0  0  0  0  0
    1.2347   -3.7498    0.9582 H   0  0  0  0  0  0  0  0  0  0  0  0
   -0.2413   -4.0592    0.0468 H   0  0  0  0  0  0  0  0  0  0  0  0
    2.0650   -1.5587    1.9534 H   0  0  0  0  0  0  0  0  0  0  0  0
    3.1220   -2.2179    0.6765 H   0  0  0  0  0  0  0  0  0  0  0  0
    3.0847    0.3385   -0.7725 H   0  0  0  0  0  0  0  0  0  0  0  0
    4.2827    2.4100   -0.7461 H   0  0  0  0  0  0  0  0  0  0  0  0
    4.8161    2.0993    0.9128 H   0  0  0  0  0  0  0  0  0  0  0  0
    0.8543    0.8967    0.5351 H   0  0  0  0  0  0  0  0  0  0  0  0
    0.0582   -0.4398    1.3825 H   0  0  0  0  0  0  0  0  0  0  0  0
   -2.2732   -1.3639    1.1438 H   0  0  0  0  0  0  0  0  0  0  0  0
   -4.5197   -0.6161    1.7911 H   0  0  0  0  0  0  0  0  0  0  0  0
  1  2  1  0
  2  3  1  0
  3  4  1  0
  4  5  2  0
  5  6  1  0
  6  7  1  0
  7  8  1  0
  8  9  1  0
  9 10  1  0
  9 11  1  0
 11 12  1  0
 12 13  1  0
 13 14  2  0
 13 15  1  0
 15 16  1  0
 16 17  1  0
 17 18  1  0
 17 19  1  0
 17 20  1  0
 11 21  1  0
  6 22  2  0
 22 23  1  0
 23  3  2  0
 21  7  1  0
  1 24  1  0
  1 25  1  0
  1 26  1  0
  4 27  1  0
  5 28  1  0
  7 29  1  0
  8 30  1  0
  8 31  1  0
  9 32  1  0
 10 33  1  0
 10 34  1  0
 10 35  1  0
 12 36  1  0
 12 37  1  0
 15 38  1  0
 16 39  1  0
 16 40  1  0
 21 41  1  0
 21 42  1  0
 22 43  1  0
 23 44  1  0
M  END
$$$$
OCNT-2309655
     RDKit          3D

 58 60  0  0  0  0  0  0  0  0999 V2000
    9.7096    0.4989    1.0191 C   0  0  0  0  0  0  0  0  0  0  0  0
    9.0890   -0.7498    1.2979 O   0  0  0  0  0  0  0  0  0  0  0  0
    7.8124   -0.9231    0.8407 C   0  0  0  0  0  0  0  0  0  0  0  0
    7.0559    0.0161    0.1403 C   0  0  0  0  0  0  0  0  0  0  0  0
    5.7515   -0.2888   -0.2740 C   0  0  0  0  0  0  0  0  0  0  0  0
    5.1946   -1.5422    0.0131 C   0  0  0  0  0  0  0  0  0  0  0  0
    3.8777   -1.8704   -0.4000 N   0  0  0  0  0  0  0  0  0  0  0  0
    2.9769   -1.1042   -1.0991 C   0  0  0  0  0  0  0  0  0  0  0  0
    1.8573   -1.8959   -1.2306 C   0  0  0  0  0  0  0  0  0  0  0  0
    0.5537   -1.5952   -1.8722 C   0  0  0  0  0  0  0  0  0  0  0  0
   -0.3144   -0.9481   -0.9111 N   0  0  0  0  0  0  0  0  0  0  0  0
   -0.2695    0.4095   -0.7352 C   0  0  0  0  0  0  0  0  0  0  0  0
    0.4593    1.1280   -1.4161 O   0  0  0  0  0  0  0  0  0  0  0  0
   -1.1168    0.9061    0.2457 N   0  0  0  0  0  0  0  0  0  0  0  0
   -1.0800    2.3382    0.4932 C   0  0  0  0  0  0  0  0  0  0  0  0
   -2.2168    0.1526    0.8674 C   0  0  0  0  0  0  0  0  0  0  0  0
   -3.3725   -0.1801   -0.0859 C   0  0  0  0  0  0  0  0  0  0  0  0
   -4.3619    0.9796   -0.3433 C   0  0  0  0  0  0  0  0  0  0  0  0
   -5.3148    0.6239   -1.5016 C   0  0  0  0  0  0  0  0  0  0  0  0
   -6.2866   -0.5002   -1.1507 C   0  0  0  0  0  0  0  0  0  0  0  0
   -6.7715   -0.4137    0.2940 C   0  0  0  0  0  0  0  0  0  0  0  0
   -6.5126    0.9631    0.8983 C   0  0  0  0  0  0  0  0  0  0  0  0
   -5.0804    1.3017    0.9106 N   0  0  0  0  0  0  0  0  0  0  0  0
   -4.9103    2.7048    1.2921 C   0  0  0  0  0  0  0  0  0  0  0  0
    2.0904   -3.0990   -0.6261 N   0  0  0  0  0  0  0  0  0  0  0  0
    3.3192   -3.0780   -0.1280 N   0  0  0  0  0  0  0  0  0  0  0  0
    5.9546   -2.4843    0.7187 C   0  0  0  0  0  0  0  0  0  0  0  0
    7.2542   -2.1708    1.1270 C   0  0  0  0  0  0  0  0  0  0  0  0
    9.8133    0.6549   -0.0599 H   0  0  0  0  0  0  0  0  0  0  0  0
   10.7151    0.4763    1.4506 H   0  0  0  0  0  0  0  0  0  0  0  0
    9.1648    1.3251    1.4881 H   0  0  0  0  0  0  0  0  0  0  0  0
    7.4486    0.9986   -0.1009 H   0  0  0  0  0  0  0  0  0  0  0  0
    5.2015    0.4762   -0.8148 H   0  0  0  0  0  0  0  0  0  0  0  0
    3.1715   -0.0942   -1.4242 H   0  0  0  0  0  0  0  0  0  0  0  0
    0.6846   -0.9618   -2.7557 H   0  0  0  0  0  0  0  0  0  0  0  0
    0.0599   -2.5214   -2.1827 H   0  0  0  0  0  0  0  0  0  0  0  0
   -0.4980   -1.4896   -0.0819 H   0  0  0  0  0  0  0  0  0  0  0  0
   -1.2619    2.5320    1.5543 H   0  0  0  0  0  0  0  0  0  0  0  0
   -0.1058    2.7624    0.2321 H   0  0  0  0  0  0  0  0  0  0  0  0
   -1.8451    2.8286   -0.1130 H   0  0  0  0  0  0  0  0  0  0  0  0
   -2.5652    0.6893    1.7563 H   0  0  0  0  0  0  0  0  0  0  0  0
   -1.7986   -0.7879    1.2424 H   0  0  0  0  0  0  0  0  0  0  0  0
   -3.9162   -1.0317    0.3425 H   0  0  0  0  0  0  0  0  0  0  0  0
   -2.9740   -0.5304   -1.0455 H   0  0  0  0  0  0  0  0  0  0  0  0
   -3.7784    1.8427   -0.6850 H   0  0  0  0  0  0  0  0  0  0  0  0
   -4.7460    0.3496   -2.3984 H   0  0  0  0  0  0  0  0  0  0  0  0
   -5.8896    1.5197   -1.7736 H   0  0  0  0  0  0  0  0  0  0  0  0
   -5.8141   -1.4758   -1.3150 H   0  0  0  0  0  0  0  0  0  0  0  0
   -7.1417   -0.4571   -1.8355 H   0  0  0  0  0  0  0  0  0  0  0  0
   -6.2673   -1.1785    0.8978 H   0  0  0  0  0  0  0  0  0  0  0  0
   -7.8414   -0.6482    0.3382 H   0  0  0  0  0  0  0  0  0  0  0  0
   -7.0914    1.7129    0.3425 H   0  0  0  0  0  0  0  0  0  0  0  0
   -6.8891    0.9682    1.9283 H   0  0  0  0  0  0  0  0  0  0  0  0
   -5.4059    2.9083    2.2481 H   0  0  0  0  0  0  0  0  0  0  0  0
   -5.3191    3.3871    0.5381 H   0  0  0  0  0  0  0  0  0  0  0  0
   -3.8521    2.9423    1.4367 H   0  0  0  0  0  0  0  0  0  0  0  0
    5.5560   -3.4679    0.9614 H   0  0  0  0  0  0  0  0  0  0  0  0
    7.8371   -2.9087    1.6735 H   0  0  0  0  0  0  0  0  0  0  0  0
  1  2  1  0
  2  3  1  0
  3  4  1  0
  4  5  2  0
  5  6  1  0
  6  7  1  0
  7  8  1  0
  8  9  2  0
  9 10  1  0
 10 11  1  0
 11 12  1  0
 12 13  2  0
 12 14  1  0
 14 15  1  0
 14 16  1  0
 16 17  1  0
 17 18  1  0
 18 19  1  0
 19 20  1  0
 20 21  1  0
 21 22  1  0
 22 23  1  0
 23 24  1  0
  9 25  1  0
 25 26  2  0
  6 27  2  0
 27 28  1  0
 28  3  2  0
 26  7  1  0
 23 18  1  0
  1 29  1  0
  1 30  1  0
  1 31  1  0
  4 32  1  0
  5 33  1  0
  8 34  1  0
 10 35  1  0
 10 36  1  0
 11 37  1  0
 15 38  1  0
 15 39  1  0
 15 40  1  0
 16 41  1  0
 16 42  1  0
 17 43  1  0
 17 44  1  0
 18 45  1  0
 19 46  1  0
 19 47  1  0
 20 48  1  0
 20 49  1  0
 21 50  1  0
 21 51  1  0
 22 52  1  0
 22 53  1  0
 24 54  1  0
 24 55  1  0
 24 56  1  0
 27 57  1  0
 28 58  1  0
M  END
$$$$
OCNT-2309661
     RDKit          3D

 40 42  0  0  0  0  0  0  0  0999 V2000
    5.7146    4.2861    0.7131 N   0  0  0  0  0  0  0  0  0  0  0  0
    5.4034    3.1653    0.7081 C   0  0  0  0  0  0  0  0  0  0  0  0
    5.0251    1.7813    0.6964 C   0  0  0  0  0  0  0  0  0  0  0  0
    6.0066    0.7867    0.6416 C   0  0  0  0  0  0  0  0  0  0  0  0
    5.6394   -0.5605    0.6209 C   0  0  0  0  0  0  0  0  0  0  0  0
    4.2912   -0.9183    0.6551 C   0  0  0  0  0  0  0  0  0  0  0  0
    3.2942    0.0686    0.7194 C   0  0  0  0  0  0  0  0  0  0  0  0
    1.8361   -0.3131    0.7220 C   0  0  0  0  0  0  0  0  0  0  0  0
    1.3114   -0.3107   -0.6217 N   0  0  0  0  0  0  0  0  0  0  0  0
    0.5591    0.7285   -1.1242 C   0  0  0  0  0  0  0  0  0  0  0  0
    0.2915    1.7353   -0.4669 O   0  0  0  0  0  0  0  0  0  0  0  0
    0.1387    0.6030   -2.5825 C   0  0  0  0  0  0  0  0  0  0  0  0
   -0.1743   -1.1068   -3.1139 S   0  0  0  0  0  0  0  0  0  0  0  0
   -1.4490   -1.5517   -2.0159 C   0  0  0  0  0  0  0  0  0  0  0  0
   -1.7953   -2.8051   -1.7993 N   0  0  0  0  0  0  0  0  0  0  0  0
   -2.7822   -2.7152   -0.8491 C   0  0  0  0  0  0  0  0  0  0  0  0
   -3.0012   -1.3982   -0.5105 C   0  0  0  0  0  0  0  0  0  0  0  0
   -3.8745   -0.6864    0.4112 C   0  0  0  0  0  0  0  0  0  0  0  0
   -4.8350   -1.3829    1.1623 C   0  0  0  0  0  0  0  0  0  0  0  0
   -5.6876   -0.7056    2.0408 C   0  0  0  0  0  0  0  0  0  0  0  0
   -5.5918    0.6778    2.1810 C   0  0  0  0  0  0  0  0  0  0  0  0
   -4.6383    1.3827    1.4505 C   0  0  0  0  0  0  0  0  0  0  0  0
   -3.7842    0.7063    0.5740 C   0  0  0  0  0  0  0  0  0  0  0  0
   -2.1543   -0.6419   -1.2788 O   0  0  0  0  0  0  0  0  0  0  0  0
    3.6727    1.4216    0.7327 C   0  0  0  0  0  0  0  0  0  0  0  0
    7.0616    1.0543    0.6113 H   0  0  0  0  0  0  0  0  0  0  0  0
    6.4050   -1.3329    0.5756 H   0  0  0  0  0  0  0  0  0  0  0  0
    4.0228   -1.9737    0.6305 H   0  0  0  0  0  0  0  0  0  0  0  0
    1.2629    0.3659    1.3641 H   0  0  0  0  0  0  0  0  0  0  0  0
    1.7053   -1.3248    1.1229 H   0  0  0  0  0  0  0  0  0  0  0  0
    1.5456   -1.0854   -1.2331 H   0  0  0  0  0  0  0  0  0  0  0  0
    0.9403    1.0205   -3.1976 H   0  0  0  0  0  0  0  0  0  0  0  0
   -0.7640    1.2001   -2.7473 H   0  0  0  0  0  0  0  0  0  0  0  0
   -3.2693   -3.5993   -0.4587 H   0  0  0  0  0  0  0  0  0  0  0  0
   -4.9432   -2.4617    1.0680 H   0  0  0  0  0  0  0  0  0  0  0  0
   -6.4298   -1.2580    2.6123 H   0  0  0  0  0  0  0  0  0  0  0  0
   -6.2582    1.2055    2.8607 H   0  0  0  0  0  0  0  0  0  0  0  0
   -4.5521    2.4627    1.5647 H   0  0  0  0  0  0  0  0  0  0  0  0
   -3.0448    1.2838    0.0201 H   0  0  0  0  0  0  0  0  0  0  0  0
    2.9017    2.1960    0.7629 H   0  0  0  0  0  0  0  0  0  0  0  0
  1  2  3  0
  2  3  1  0
  3  4  1  0
  4  5  2  0
  5  6  1  0
  6  7  2  0
  7  8  1  0
  8  9  1  0
  9 10  1  0
 10 11  2  0
 10 12  1  0
 12 13  1  0
 13 14  1  0
 14 15  2  0
 15 16  1  0
 16 17  2  0
 17 18  1  0
 18 19  2  0
 19 20  1  0
 20 21  2  0
 21 22  1  0
 22 23  2  0
 17 24  1  0
  7 25  1  0
 25  3  2  0
 24 14  1  0
 23 18  1  0
  4 26  1  0
  5 27  1  0
  6 28  1  0
  8 29  1  0
  8 30  1  0
  9 31  1  0
 12 32  1  0
 12 33  1  0
 16 34  1  0
 19 35  1  0
 20 36  1  0
 21 37  1  0
 22 38  1  0
 23 39  1  0
 25 40  1  0
M  END
$$$$
OCNT-2309665
     RDKit          3D

 41 44  0  0  0  0  0  0  0  0999 V2000
    7.6637    1.5293   -0.6063 C   0  0  0  0  0  0  0  0  0  0  0  0
    6.2046    1.2531   -0.3762 C   0  0  0  0  0  0  0  0  0  0  0  0
    5.5465    1.8309    0.7126 C   0  0  0  0  0  0  0  0  0  0  0  0
    4.1804    1.6131    0.9252 C   0  0  0  0  0  0  0  0  0  0  0  0
    3.4509    0.8078    0.0299 C   0  0  0  0  0  0  0  0  0  0  0  0
    2.1009    0.5127    0.1159 N   0  0  0  0  0  0  0  0  0  0  0  0
    1.7616   -0.2619   -0.8786 C   0  0  0  0  0  0  0  0  0  0  0  0
    0.5455   -0.8030   -1.1844 N   0  0  0  0  0  0  0  0  0  0  0  0
   -0.6009   -0.5093   -0.4835 C   0  0  0  0  0  0  0  0  0  0  0  0
   -0.6773    0.2830    0.4471 O   0  0  0  0  0  0  0  0  0  0  0  0
   -1.7725   -1.2234   -0.9875 C   0  0  0  0  0  0  0  0  0  0  0  0
   -1.8250   -2.4485   -1.6479 C   0  0  0  0  0  0  0  0  0  0  0  0
   -3.1716   -2.7445   -1.9527 C   0  0  0  0  0  0  0  0  0  0  0  0
   -3.9277   -1.7039   -1.4754 C   0  0  0  0  0  0  0  0  0  0  0  0
   -3.0883   -0.7991   -0.8614 N   0  0  0  0  0  0  0  0  0  0  0  0
   -3.5652    0.4589   -0.2851 C   0  0  0  0  0  0  0  0  0  0  0  0
   -4.2621    0.2475    1.0349 C   0  0  0  0  0  0  0  0  0  0  0  0
   -5.6562    0.3219    1.1293 C   0  0  0  0  0  0  0  0  0  0  0  0
   -6.2545    0.1176    2.3639 C   0  0  0  0  0  0  0  0  0  0  0  0
   -5.5715   -0.1546    3.4946 N   0  0  0  0  0  0  0  0  0  0  0  0
   -4.2275   -0.2236    3.3849 C   0  0  0  0  0  0  0  0  0  0  0  0
   -3.5380   -0.0319    2.1975 C   0  0  0  0  0  0  0  0  0  0  0  0
    2.9961   -0.6929   -1.9735 S   0  0  0  0  0  0  0  0  0  0  0  0
    4.1191    0.2415   -1.0582 C   0  0  0  0  0  0  0  0  0  0  0  0
    5.4894    0.4571   -1.2856 C   0  0  0  0  0  0  0  0  0  0  0  0
    8.1331    0.7166   -1.1712 H   0  0  0  0  0  0  0  0  0  0  0  0
    8.1982    1.6135    0.3457 H   0  0  0  0  0  0  0  0  0  0  0  0
    7.7833    2.4626   -1.1657 H   0  0  0  0  0  0  0  0  0  0  0  0
    6.0917    2.4626    1.4123 H   0  0  0  0  0  0  0  0  0  0  0  0
    3.6728    2.0636    1.7723 H   0  0  0  0  0  0  0  0  0  0  0  0
    0.5039   -1.3821   -2.0066 H   0  0  0  0  0  0  0  0  0  0  0  0
   -0.9799   -3.0858   -1.8761 H   0  0  0  0  0  0  0  0  0  0  0  0
   -3.5508   -3.6212   -2.4610 H   0  0  0  0  0  0  0  0  0  0  0  0
   -4.9973   -1.5391   -1.5032 H   0  0  0  0  0  0  0  0  0  0  0  0
   -4.2535    0.8933   -1.0222 H   0  0  0  0  0  0  0  0  0  0  0  0
   -2.7430    1.1720   -0.1913 H   0  0  0  0  0  0  0  0  0  0  0  0
   -6.2734    0.5335    0.2628 H   0  0  0  0  0  0  0  0  0  0  0  0
   -7.3336    0.1680    2.4780 H   0  0  0  0  0  0  0  0  0  0  0  0
   -3.6979   -0.4481    4.3060 H   0  0  0  0  0  0  0  0  0  0  0  0
   -2.4544   -0.0998    2.1882 H   0  0  0  0  0  0  0  0  0  0  0  0
    5.9804    0.0126   -2.1472 H   0  0  0  0  0  0  0  0  0  0  0  0
  1  2  1  0
  2  3  2  0
  3  4  1  0
  4  5  2  0
  5  6  1  0
  6  7  2  0
  7  8  1  0
  8  9  1  0
  9 10  2  0
  9 11  1  0
 11 12  2  0
 12 13  1  0
 13 14  2  0
 14 15  1  0
 15 16  1  0
 16 17  1  0
 17 18  2  0
 18 19  1  0
 19 20  2  0
 20 21  1  0
 21 22  2  0
  7 23  1  0
 23 24  1  0
 24 25  2  0
 25  2  1  0
 24  5  1  0
 15 11  1  0
 22 17  1  0
  1 26  1  0
  1 27  1  0
  1 28  1  0
  3 29  1  0
  4 30  1  0
  8 31  1  0
 12 32  1  0
 13 33  1  0
 14 34  1  0
 16 35  1  0
 16 36  1  0
 18 37  1  0
 19 38  1  0
 21 39  1  0
 22 40  1  0
 25 41  1  0
M  END
$$$$
OCNT-2309670
     RDKit          3D

 54 58  0  0  0  0  0  0  0  0999 V2000
    1.6148    0.2079   -2.6355 O   0  0  0  0  0  0  0  0  0  0  0  0
    1.0660   -0.4120   -1.7283 C   0  0  0  0  0  0  0  0  0  0  0  0
    1.8999   -1.2992   -0.8898 C   0  0  0  0  0  0  0  0  0  0  0  0
    1.6050   -2.6605   -0.7848 C   0  0  0  0  0  0  0  0  0  0  0  0
    2.4158   -3.4742    0.0007 C   0  0  0  0  0  0  0  0  0  0  0  0
    3.5197   -2.9266    0.6629 C   0  0  0  0  0  0  0  0  0  0  0  0
    3.8381   -1.5630    0.5509 C   0  0  0  0  0  0  0  0  0  0  0  0
    4.9853   -1.0772    1.2011 N   0  0  0  0  0  0  0  0  0  0  0  0
    5.8530   -0.0086    0.9091 C   0  0  0  0  0  0  0  0  0  0  0  0
    6.5954    0.5611    1.9549 C   0  0  0  0  0  0  0  0  0  0  0  0
    7.4417    1.6511    1.7313 C   0  0  0  0  0  0  0  0  0  0  0  0
    7.5537    2.1938    0.4547 C   0  0  0  0  0  0  0  0  0  0  0  0
    6.8200    1.6463   -0.5938 C   0  0  0  0  0  0  0  0  0  0  0  0
    5.9739    0.5564   -0.3651 C   0  0  0  0  0  0  0  0  0  0  0  0
    3.0170   -0.7576   -0.2437 C   0  0  0  0  0  0  0  0  0  0  0  0
   -0.2941   -0.3227   -1.4593 N   0  0  0  0  0  0  0  0  0  0  0  0
   -1.1269    0.4674   -2.3686 C   0  0  0  0  0  0  0  0  0  0  0  0
   -2.6204    0.1475   -2.2134 C   0  0  0  0  0  0  0  0  0  0  0  0
   -3.0844    0.3915   -0.8272 N   0  0  0  0  0  0  0  0  0  0  0  0
   -4.4145    0.1908   -0.5537 C   0  0  0  0  0  0  0  0  0  0  0  0
   -5.2263   -0.5345   -1.3436 N   0  0  0  0  0  0  0  0  0  0  0  0
   -6.5756   -0.5040   -0.5701 S   0  0  0  0  0  0  0  0  0  0  0  0
   -6.8894   -2.0130   -0.0810 O   0  0  0  0  0  0  0  0  0  0  0  0
   -7.8351   -0.2111   -1.5235 O   0  0  0  0  0  0  0  0  0  0  0  0
   -6.4552    0.4558    0.7167 C   0  0  0  0  0  0  0  0  0  0  0  0
   -7.3239    0.9137    1.7154 C   0  0  0  0  0  0  0  0  0  0  0  0
   -6.8131    1.7842    2.6804 C   0  0  0  0  0  0  0  0  0  0  0  0
   -5.4837    2.1915    2.6410 C   0  0  0  0  0  0  0  0  0  0  0  0
   -4.6224    1.7329    1.6362 C   0  0  0  0  0  0  0  0  0  0  0  0
   -5.0919    0.8323    0.6446 C   0  0  0  0  0  0  0  0  0  0  0  0
   -2.0811    0.1449    0.2317 C   0  0  0  0  0  0  0  0  0  0  0  0
   -0.9455   -0.7904   -0.2291 C   0  0  0  0  0  0  0  0  0  0  0  0
    0.7623   -3.0870   -1.3221 H   0  0  0  0  0  0  0  0  0  0  0  0
    2.2033   -4.5368    0.0874 H   0  0  0  0  0  0  0  0  0  0  0  0
    4.1509   -3.5857    1.2551 H   0  0  0  0  0  0  0  0  0  0  0  0
    5.3005   -1.6492    1.9763 H   0  0  0  0  0  0  0  0  0  0  0  0
    6.5109    0.1648    2.9635 H   0  0  0  0  0  0  0  0  0  0  0  0
    8.0074    2.0775    2.5553 H   0  0  0  0  0  0  0  0  0  0  0  0
    8.2100    3.0413    0.2764 H   0  0  0  0  0  0  0  0  0  0  0  0
    6.9047    2.0621   -1.5946 H   0  0  0  0  0  0  0  0  0  0  0  0
    5.4358    0.1363   -1.2107 H   0  0  0  0  0  0  0  0  0  0  0  0
    3.2189    0.3053   -0.3481 H   0  0  0  0  0  0  0  0  0  0  0  0
   -0.8065    0.2871   -3.4009 H   0  0  0  0  0  0  0  0  0  0  0  0
   -0.9392    1.5240   -2.1413 H   0  0  0  0  0  0  0  0  0  0  0  0
   -3.1916    0.7747   -2.9083 H   0  0  0  0  0  0  0  0  0  0  0  0
   -2.7904   -0.9032   -2.4826 H   0  0  0  0  0  0  0  0  0  0  0  0
   -8.3648    0.6012    1.7363 H   0  0  0  0  0  0  0  0  0  0  0  0
   -7.4677    2.1553    3.4673 H   0  0  0  0  0  0  0  0  0  0  0  0
   -5.1096    2.8829    3.3941 H   0  0  0  0  0  0  0  0  0  0  0  0
   -3.5968    2.0913    1.6121 H   0  0  0  0  0  0  0  0  0  0  0  0
   -2.5387   -0.2942    1.1263 H   0  0  0  0  0  0  0  0  0  0  0  0
   -1.6503    1.1114    0.5195 H   0  0  0  0  0  0  0  0  0  0  0  0
   -0.2129   -0.8880    0.5774 H   0  0  0  0  0  0  0  0  0  0  0  0
   -1.3519   -1.7856   -0.4448 H   0  0  0  0  0  0  0  0  0  0  0  0
  1  2  2  0
  2  3  1  0
  3  4  1  0
  4  5  2  0
  5  6  1  0
  6  7  2  0
  7  8  1  0
  8  9  1  0
  9 10  2  0
 10 11  1  0
 11 12  2  0
 12 13  1  0
 13 14  2  0
  7 15  1  0
  2 16  1  0
 16 17  1  0
 17 18  1  0
 18 19  1  0
 19 20  1  0
 20 21  2  0
 21 22  1  0
 22 23  2  0
 22 24  2  0
 22 25  1  0
 25 26  2  0
 26 27  1  0
 27 28  2  0
 28 29  1  0
 29 30  2  0
 19 31  1  0
 31 32  1  0
 15  3  2  0
 32 16  1  0
 14  9  1  0
 30 20  1  0
 30 25  1  0
  4 33  1  0
  5 34  1  0
  6 35  1  0
  8 36  1  0
 10 37  1  0
 11 38  1  0
 12 39  1  0
 13 40  1  0
 14 41  1  0
 15 42  1  0
 17 43  1  0
 17 44  1  0
 18 45  1  0
 18 46  1  0
 26 47  1  0
 27 48  1  0
 28 49  1  0
 29 50  1  0
 31 51  1  0
 31 52  1  0
 32 53  1  0
 32 54  1  0
M  END
$$$$
OCNT-2309676
     RDKit          3D

 45 47  0  0  0  0  0  0  0  0999 V2000
    5.3257   -2.5289    1.7344 C   0  0  0  0  0  0  0  0  0  0  0  0
    4.0373   -1.7857    1.4896 C   0  0  0  0  0  0  0  0  0  0  0  0
    2.9340   -2.1556    2.2812 C   0  0  0  0  0  0  0  0  0  0  0  0
    1.6932   -1.5329    2.1400 C   0  0  0  0  0  0  0  0  0  0  0  0
    1.5147   -0.5191    1.2017 C   0  0  0  0  0  0  0  0  0  0  0  0
    0.2307    0.0604    1.1169 N   0  0  0  0  0  0  0  0  0  0  0  0
   -0.1846    1.0875    0.2821 C   0  0  0  0  0  0  0  0  0  0  0  0
    0.5181    1.6797   -0.5308 O   0  0  0  0  0  0  0  0  0  0  0  0
   -1.6671    1.4172    0.4559 C   0  0  0  0  0  0  0  0  0  0  0  0
   -2.0217    2.7699   -0.1684 C   0  0  0  0  0  0  0  0  0  0  0  0
   -3.5217    3.0199   -0.0696 C   0  0  0  0  0  0  0  0  0  0  0  0
   -4.3149    1.8597   -0.6698 C   0  0  0  0  0  0  0  0  0  0  0  0
   -3.9611    0.5791   -0.0330 N   0  0  0  0  0  0  0  0  0  0  0  0
   -4.7965   -0.5161   -0.6096 C   0  0  0  0  0  0  0  0  0  0  0  0
   -4.6348   -1.9450   -0.0509 C   0  0  0  0  0  0  0  0  0  0  0  0
   -3.4525   -2.4918   -0.4168 F   0  0  0  0  0  0  0  0  0  0  0  0
   -4.7046   -1.9738    1.2980 F   0  0  0  0  0  0  0  0  0  0  0  0
   -5.6121   -2.7516   -0.5277 F   0  0  0  0  0  0  0  0  0  0  0  0
   -2.5204    0.3003   -0.1673 C   0  0  0  0  0  0  0  0  0  0  0  0
    2.5997   -0.1411    0.4062 C   0  0  0  0  0  0  0  0  0  0  0  0
    3.8658   -0.7576    0.5332 C   0  0  0  0  0  0  0  0  0  0  0  0
    4.9206   -0.3091   -0.3185 N   0  0  0  0  0  0  0  0  0  0  0  0
    4.9051    0.6778   -1.2806 C   0  0  0  0  0  0  0  0  0  0  0  0
    6.0898    0.7724   -1.8396 N   0  0  0  0  0  0  0  0  0  0  0  0
    6.8640   -0.1667   -1.2213 N   0  0  0  0  0  0  0  0  0  0  0  0
    6.1715   -0.8236   -0.3036 N   0  0  0  0  0  0  0  0  0  0  0  0
    5.2139   -3.2766    2.5281 H   0  0  0  0  0  0  0  0  0  0  0  0
    6.1113   -1.8420    2.0638 H   0  0  0  0  0  0  0  0  0  0  0  0
    5.6345   -3.0727    0.8365 H   0  0  0  0  0  0  0  0  0  0  0  0
    3.0341   -2.9445    3.0260 H   0  0  0  0  0  0  0  0  0  0  0  0
    0.8751   -1.8593    2.7775 H   0  0  0  0  0  0  0  0  0  0  0  0
   -0.4575   -0.3054    1.7654 H   0  0  0  0  0  0  0  0  0  0  0  0
   -1.8716    1.4747    1.5344 H   0  0  0  0  0  0  0  0  0  0  0  0
   -1.7197    2.7968   -1.2234 H   0  0  0  0  0  0  0  0  0  0  0  0
   -1.4744    3.5755    0.3354 H   0  0  0  0  0  0  0  0  0  0  0  0
   -3.8034    3.1553    0.9823 H   0  0  0  0  0  0  0  0  0  0  0  0
   -3.7759    3.9499   -0.5907 H   0  0  0  0  0  0  0  0  0  0  0  0
   -4.1383    1.8165   -1.7526 H   0  0  0  0  0  0  0  0  0  0  0  0
   -5.3819    2.0650   -0.5212 H   0  0  0  0  0  0  0  0  0  0  0  0
   -5.8477   -0.2439   -0.4507 H   0  0  0  0  0  0  0  0  0  0  0  0
   -4.6438   -0.5625   -1.6958 H   0  0  0  0  0  0  0  0  0  0  0  0
   -2.2836   -0.6350    0.3508 H   0  0  0  0  0  0  0  0  0  0  0  0
   -2.2480    0.1585   -1.2221 H   0  0  0  0  0  0  0  0  0  0  0  0
    2.4520    0.6446   -0.3231 H   0  0  0  0  0  0  0  0  0  0  0  0
    4.0468    1.2799   -1.5321 H   0  0  0  0  0  0  0  0  0  0  0  0
  1  2  1  0
  2  3  1  0
  3  4  2  0
  4  5  1  0
  5  6  1  0
  6  7  1  0
  7  8  2  0
  7  9  1  0
  9 10  1  0
 10 11  1  0
 11 12  1  0
 12 13  1  0
 13 14  1  0
 14 15  1  0
 15 16  1  0
 15 17  1  0
 15 18  1  0
 13 19  1  0
  5 20  2  0
 20 21  1  0
 21 22  1  0
 22 23  1  0
 23 24  2  0
 24 25  1  0
 25 26  2  0
 21  2  2  0
 26 22  1  0
 19  9  1  0
  1 27  1  0
  1 28  1  0
  1 29  1  0
  3 30  1  0
  4 31  1  0
  6 32  1  0
  9 33  1  0
 10 34  1  0
 10 35  1  0
 11 36  1  0
 11 37  1  0
 12 38  1  0
 12 39  1  0
 14 40  1  0
 14 41  1  0
 19 42  1  0
 19 43  1  0
 20 44  1  0
 23 45  1  0
M  END
$$$$
OCNT-2309692
     RDKit          3D

 57 60  0  0  0  0  0  0  0  0999 V2000
    7.5851   -3.6690   -0.3800 C   0  0  0  0  0  0  0  0  0  0  0  0
    6.9368   -2.4408   -0.7140 O   0  0  0  0  0  0  0  0  0  0  0  0
    5.9022   -2.1241    0.1037 C   0  0  0  0  0  0  0  0  0  0  0  0
    5.5091   -2.7914    1.0476 O   0  0  0  0  0  0  0  0  0  0  0  0
    5.2890   -0.8291   -0.2983 C   0  0  0  0  0  0  0  0  0  0  0  0
    5.7543   -0.0848   -1.3875 C   0  0  0  0  0  0  0  0  0  0  0  0
    5.1399    1.1228   -1.7156 C   0  0  0  0  0  0  0  0  0  0  0  0
    4.0608    1.5938   -0.9614 C   0  0  0  0  0  0  0  0  0  0  0  0
    3.5854    0.8639    0.1288 C   0  0  0  0  0  0  0  0  0  0  0  0
    2.5015    1.2649    0.9358 N   0  0  0  0  0  0  0  0  0  0  0  0
    1.7375    2.4175    0.8232 C   0  0  0  0  0  0  0  0  0  0  0  0
    1.9299    3.3364    0.0320 O   0  0  0  0  0  0  0  0  0  0  0  0
    0.6218    2.5088    1.8683 C   0  0  0  0  0  0  0  0  0  0  0  0
   -0.3160    1.4148    1.7167 N   0  0  0  0  0  0  0  0  0  0  0  0
   -0.1184    0.1666    2.1926 C   0  0  0  0  0  0  0  0  0  0  0  0
    0.8873   -0.2351    2.7559 O   0  0  0  0  0  0  0  0  0  0  0  0
   -1.2026   -0.6061    1.8898 N   0  0  0  0  0  0  0  0  0  0  0  0
   -2.1512    0.0651    0.9955 C   0  0  0  0  0  0  0  0  0  0  0  0
   -3.5413    0.1182    1.6751 C   0  0  0  0  0  0  0  0  0  0  0  0
   -4.6773    0.6999    0.8627 C   0  0  0  0  0  0  0  0  0  0  0  0
   -5.4694   -0.1247    0.0507 C   0  0  0  0  0  0  0  0  0  0  0  0
   -6.5167    0.4111   -0.7009 C   0  0  0  0  0  0  0  0  0  0  0  0
   -6.7880    1.7756   -0.6468 C   0  0  0  0  0  0  0  0  0  0  0  0
   -6.0118    2.6049    0.1590 C   0  0  0  0  0  0  0  0  0  0  0  0
   -4.9639    2.0705    0.9110 C   0  0  0  0  0  0  0  0  0  0  0  0
   -2.1396   -0.6495   -0.3576 C   0  0  0  0  0  0  0  0  0  0  0  0
   -1.9466    0.0353   -1.5685 C   0  0  0  0  0  0  0  0  0  0  0  0
   -1.9504   -0.6451   -2.7897 C   0  0  0  0  0  0  0  0  0  0  0  0
   -2.1545   -2.0208   -2.8269 C   0  0  0  0  0  0  0  0  0  0  0  0
   -2.3625   -2.7195   -1.6431 C   0  0  0  0  0  0  0  0  0  0  0  0
   -2.3592   -2.0416   -0.4220 C   0  0  0  0  0  0  0  0  0  0  0  0
   -1.4794    1.4712    1.0001 C   0  0  0  0  0  0  0  0  0  0  0  0
   -1.8981    2.4821    0.4503 O   0  0  0  0  0  0  0  0  0  0  0  0
    4.2049   -0.3499    0.4537 C   0  0  0  0  0  0  0  0  0  0  0  0
    7.9972   -3.6221    0.6334 H   0  0  0  0  0  0  0  0  0  0  0  0
    8.4099   -3.8190   -1.0829 H   0  0  0  0  0  0  0  0  0  0  0  0
    6.8885   -4.5081   -0.4777 H   0  0  0  0  0  0  0  0  0  0  0  0
    6.5912   -0.4305   -1.9888 H   0  0  0  0  0  0  0  0  0  0  0  0
    5.4978    1.7039   -2.5625 H   0  0  0  0  0  0  0  0  0  0  0  0
    3.6129    2.5378   -1.2563 H   0  0  0  0  0  0  0  0  0  0  0  0
    2.2529    0.6236    1.6909 H   0  0  0  0  0  0  0  0  0  0  0  0
    1.0727    2.4711    2.8659 H   0  0  0  0  0  0  0  0  0  0  0  0
    0.0995    3.4630    1.7466 H   0  0  0  0  0  0  0  0  0  0  0  0
   -1.1464   -1.6069    2.0205 H   0  0  0  0  0  0  0  0  0  0  0  0
   -3.4704    0.6835    2.6159 H   0  0  0  0  0  0  0  0  0  0  0  0
   -3.8352   -0.8941    1.9886 H   0  0  0  0  0  0  0  0  0  0  0  0
   -5.2759   -1.1930   -0.0106 H   0  0  0  0  0  0  0  0  0  0  0  0
   -7.1185   -0.2374   -1.3321 H   0  0  0  0  0  0  0  0  0  0  0  0
   -7.6005    2.1939   -1.2348 H   0  0  0  0  0  0  0  0  0  0  0  0
   -6.2170    3.6715    0.1983 H   0  0  0  0  0  0  0  0  0  0  0  0
   -4.3676    2.7411    1.5261 H   0  0  0  0  0  0  0  0  0  0  0  0
   -1.8048    1.1140   -1.5977 H   0  0  0  0  0  0  0  0  0  0  0  0
   -1.8001   -0.0927   -3.7144 H   0  0  0  0  0  0  0  0  0  0  0  0
   -2.1589   -2.5445   -3.7791 H   0  0  0  0  0  0  0  0  0  0  0  0
   -2.5315   -3.7930   -1.6705 H   0  0  0  0  0  0  0  0  0  0  0  0
   -2.5422   -2.6176    0.4820 H   0  0  0  0  0  0  0  0  0  0  0  0
    3.8479   -0.9366    1.2990 H   0  0  0  0  0  0  0  0  0  0  0  0
  1  2  1  0
  2  3  1  0
  3  4  2  0
  3  5  1  0
  5  6  1  0
  6  7  2  0
  7  8  1  0
  8  9  2  0
  9 10  1  0
 10 11  1  0
 11 12  2  0
 11 13  1  0
 13 14  1  0
 14 15  1  0
 15 16  2  0
 15 17  1  0
 17 18  1  0
 18 19  1  0
 19 20  1  0
 20 21  2  0
 21 22  1  0
 22 23  2  0
 23 24  1  0
 24 25  2  0
 18 26  1  0
 26 27  2  0
 27 28  1  0
 28 29  2  0
 29 30  1  0
 30 31  2  0
 18 32  1  0
 32 33  2  0
  9 34  1  0
 34  5  2  0
 32 14  1  0
 25 20  1  0
 31 26  1  0
  1 35  1  0
  1 36  1  0
  1 37  1  0
  6 38  1  0
  7 39  1  0
  8 40  1  0
 10 41  1  0
 13 42  1  0
 13 43  1  0
 17 44  1  0
 19 45  1  0
 19 46  1  0
 21 47  1  0
 22 48  1  0
 23 49  1  0
 24 50  1  0
 25 51  1  0
 27 52  1  0
 28 53  1  0
 29 54  1  0
 30 55  1  0
 31 56  1  0
 34 57  1  0
M  END
$$$$
OCNT-2309697
     RDKit          3D

 44 46  0  0  0  0  0  0  0  0999 V2000
   -1.6008   -2.1365   -1.7730 O   0  0  0  0  0  0  0  0  0  0  0  0
   -1.4433   -0.9965   -1.3498 C   0  0  0  0  0  0  0  0  0  0  0  0
   -2.4119   -0.3246   -0.6365 N   0  0  0  0  0  0  0  0  0  0  0  0
   -3.7188   -0.9087   -0.4437 C   0  0  0  0  0  0  0  0  0  0  0  0
   -4.5399   -0.0682    0.4957 C   0  0  0  0  0  0  0  0  0  0  0  0
   -5.4501    0.8758   -0.0000 C   0  0  0  0  0  0  0  0  0  0  0  0
   -6.1882    1.6738    0.8758 C   0  0  0  0  0  0  0  0  0  0  0  0
   -6.0185    1.5411    2.2528 C   0  0  0  0  0  0  0  0  0  0  0  0
   -5.1095    0.6126    2.7564 C   0  0  0  0  0  0  0  0  0  0  0  0
   -4.3707   -0.1863    1.8827 C   0  0  0  0  0  0  0  0  0  0  0  0
   -0.1675   -0.1942   -1.5371 C   0  0  0  0  0  0  0  0  0  0  0  0
    0.8546   -0.8513   -2.4678 C   0  0  0  0  0  0  0  0  0  0  0  0
    2.0359   -1.1882   -1.5713 C   0  0  0  0  0  0  0  0  0  0  0  0
    1.9832   -0.1232   -0.5635 N   0  0  0  0  0  0  0  0  0  0  0  0
    2.8271   -0.3853    0.6055 C   0  0  0  0  0  0  0  0  0  0  0  0
    4.3062   -0.2563    0.2561 C   0  0  0  0  0  0  0  0  0  0  0  0
    4.8155    1.1482   -0.1572 C   0  0  0  0  0  0  0  0  0  0  0  0
    6.1070    0.8442    0.6335 C   0  0  0  0  0  0  0  0  0  0  0  0
    7.1166    0.3045   -0.0877 F   0  0  0  0  0  0  0  0  0  0  0  0
    6.6302    1.8787    1.3276 F   0  0  0  0  0  0  0  0  0  0  0  0
    5.2753   -0.1641    1.4602 C   0  0  0  0  0  0  0  0  0  0  0  0
    0.5615   -0.0453   -0.2021 C   0  0  0  0  0  0  0  0  0  0  0  0
   -2.3253    0.6758   -0.5110 H   0  0  0  0  0  0  0  0  0  0  0  0
   -4.2052   -0.9921   -1.4229 H   0  0  0  0  0  0  0  0  0  0  0  0
   -3.6072   -1.9279   -0.0548 H   0  0  0  0  0  0  0  0  0  0  0  0
   -5.5921    0.9936   -1.0722 H   0  0  0  0  0  0  0  0  0  0  0  0
   -6.8965    2.3993    0.4839 H   0  0  0  0  0  0  0  0  0  0  0  0
   -6.5947    2.1621    2.9339 H   0  0  0  0  0  0  0  0  0  0  0  0
   -4.9757    0.5107    3.8304 H   0  0  0  0  0  0  0  0  0  0  0  0
   -3.6600   -0.9041    2.2877 H   0  0  0  0  0  0  0  0  0  0  0  0
   -0.4372    0.7870   -1.9490 H   0  0  0  0  0  0  0  0  0  0  0  0
    1.1671   -0.1230   -3.2275 H   0  0  0  0  0  0  0  0  0  0  0  0
    0.4877   -1.7349   -2.9979 H   0  0  0  0  0  0  0  0  0  0  0  0
    2.9715   -1.1828   -2.1387 H   0  0  0  0  0  0  0  0  0  0  0  0
    1.8982   -2.1805   -1.1232 H   0  0  0  0  0  0  0  0  0  0  0  0
    2.5822    0.3467    1.3861 H   0  0  0  0  0  0  0  0  0  0  0  0
    2.6270   -1.3779    1.0285 H   0  0  0  0  0  0  0  0  0  0  0  0
    4.6314   -1.0362   -0.4480 H   0  0  0  0  0  0  0  0  0  0  0  0
    4.9483    1.2980   -1.2320 H   0  0  0  0  0  0  0  0  0  0  0  0
    4.2421    1.9880    0.2517 H   0  0  0  0  0  0  0  0  0  0  0  0
    5.7882   -1.0945    1.7182 H   0  0  0  0  0  0  0  0  0  0  0  0
    4.8468    0.2696    2.3709 H   0  0  0  0  0  0  0  0  0  0  0  0
    0.2801   -0.8436    0.4979 H   0  0  0  0  0  0  0  0  0  0  0  0
    0.3293    0.9163    0.2686 H   0  0  0  0  0  0  0  0  0  0  0  0
  1  2  2  0
  2  3  1  0
  3  4  1  0
  4  5  1  0
  5  6  2  0
  6  7  1  0
  7  8  2  0
  8  9  1  0
  9 10  2  0
  2 11  1  0
 11 12  1  0
 12 13  1  0
 13 14  1  0
 14 15  1  0
 15 16  1  0
 16 17  1  0
 17 18  1  0
 18 19  1  0
 18 20  1  0
 18 21  1  0
 14 22  1  0
 10  5  1  0
 22 11  1  0
 21 16  1  0
  3 23  1  0
  4 24  1  0
  4 25  1  0
  6 26  1  0
  7 27  1  0
  8 28  1  0
  9 29  1  0
 10 30  1  0
 11 31  1  0
 12 32  1  0
 12 33  1  0
 13 34  1  0
 13 35  1  0
 15 36  1  0
 15 37  1  0
 16 38  1  0
 17 39  1  0
 17 40  1  0
 21 41  1  0
 21 42  1  0
 22 43  1  0
 22 44  1  0
M  END
$$$$
OCNT-2309699
     RDKit          3D

 44 47  0  0  0  0  0  0  0  0999 V2000
    0.1364    2.4764   -2.8957 O   0  0  0  0  0  0  0  0  0  0  0  0
    0.3284    1.3987   -2.3440 C   0  0  0  0  0  0  0  0  0  0  0  0
   -0.3302    0.1224   -2.8522 C   0  0  0  0  0  0  0  0  0  0  0  0
   -1.2237   -0.5317   -1.8224 C   0  0  0  0  0  0  0  0  0  0  0  0
   -0.8387   -1.7239   -1.1914 C   0  0  0  0  0  0  0  0  0  0  0  0
   -1.6509   -2.3032   -0.2115 C   0  0  0  0  0  0  0  0  0  0  0  0
   -1.1080   -3.7633    0.5407 Cl  0  0  0  0  0  0  0  0  0  0  0  0
   -2.8579   -1.7000    0.1518 C   0  0  0  0  0  0  0  0  0  0  0  0
   -3.6170   -2.2896    1.1328 O   0  0  0  0  0  0  0  0  0  0  0  0
   -4.6152   -1.4037    1.6428 C   0  0  0  0  0  0  0  0  0  0  0  0
   -5.3379   -0.7089    0.5062 C   0  0  0  0  0  0  0  0  0  0  0  0
   -4.4333    0.1190   -0.2330 O   0  0  0  0  0  0  0  0  0  0  0  0
   -3.2571   -0.5269   -0.4988 C   0  0  0  0  0  0  0  0  0  0  0  0
   -2.4420    0.0608   -1.4668 C   0  0  0  0  0  0  0  0  0  0  0  0
    1.1509    1.1760   -1.2573 N   0  0  0  0  0  0  0  0  0  0  0  0
    1.9188    2.1226   -0.5369 C   0  0  0  0  0  0  0  0  0  0  0  0
    1.9968    3.4747   -0.8631 C   0  0  0  0  0  0  0  0  0  0  0  0
    2.7350    4.3856   -0.1796 N   0  0  0  0  0  0  0  0  0  0  0  0
    3.4329    3.9336    0.8790 C   0  0  0  0  0  0  0  0  0  0  0  0
    3.4273    2.6128    1.2924 C   0  0  0  0  0  0  0  0  0  0  0  0
    2.6562    1.6828    0.5831 C   0  0  0  0  0  0  0  0  0  0  0  0
    2.6198    0.2876    1.0371 C   0  0  0  0  0  0  0  0  0  0  0  0
    3.5359   -0.6508    0.5446 C   0  0  0  0  0  0  0  0  0  0  0  0
    3.4528   -1.9906    0.9272 C   0  0  0  0  0  0  0  0  0  0  0  0
    2.4572   -2.4044    1.8085 C   0  0  0  0  0  0  0  0  0  0  0  0
    1.5464   -1.4810    2.3137 C   0  0  0  0  0  0  0  0  0  0  0  0
    1.6261   -0.1432    1.9295 C   0  0  0  0  0  0  0  0  0  0  0  0
    0.4630   -0.5672   -3.1672 H   0  0  0  0  0  0  0  0  0  0  0  0
   -0.9147    0.3509   -3.7533 H   0  0  0  0  0  0  0  0  0  0  0  0
    0.1001   -2.2045   -1.4536 H   0  0  0  0  0  0  0  0  0  0  0  0
   -5.3201   -2.0000    2.2298 H   0  0  0  0  0  0  0  0  0  0  0  0
   -4.1329   -0.6838    2.3147 H   0  0  0  0  0  0  0  0  0  0  0  0
   -5.7902   -1.4327   -0.1821 H   0  0  0  0  0  0  0  0  0  0  0  0
   -6.1311   -0.0631    0.8906 H   0  0  0  0  0  0  0  0  0  0  0  0
   -2.7665    0.9822   -1.9493 H   0  0  0  0  0  0  0  0  0  0  0  0
    1.1775    0.2277   -0.8955 H   0  0  0  0  0  0  0  0  0  0  0  0
    1.4625    3.9029   -1.7022 H   0  0  0  0  0  0  0  0  0  0  0  0
    4.0146    4.6846    1.4053 H   0  0  0  0  0  0  0  0  0  0  0  0
    4.0051    2.3136    2.1615 H   0  0  0  0  0  0  0  0  0  0  0  0
    4.3104   -0.3413   -0.1556 H   0  0  0  0  0  0  0  0  0  0  0  0
    4.1641   -2.7123    0.5360 H   0  0  0  0  0  0  0  0  0  0  0  0
    2.3857   -3.4492    2.1030 H   0  0  0  0  0  0  0  0  0  0  0  0
    0.7660   -1.8048    2.9975 H   0  0  0  0  0  0  0  0  0  0  0  0
    0.8976    0.5652    2.3205 H   0  0  0  0  0  0  0  0  0  0  0  0
  1  2  2  0
  2  3  1  0
  3  4  1  0
  4  5  1  0
  5  6  2  0
  6  7  1  0
  6  8  1  0
  8  9  1  0
  9 10  1  0
 10 11  1  0
 11 12  1  0
 12 13  1  0
 13 14  1  0
  2 15  1  0
 15 16  1  0
 16 17  2  0
 17 18  1  0
 18 19  2  0
 19 20  1  0
 20 21  2  0
 21 22  1  0
 22 23  2  0
 23 24  1  0
 24 25  2  0
 25 26  1  0
 26 27  2  0
 14  4  2  0
 21 16  1  0
 27 22  1  0
 13  8  2  0
  3 28  1  0
  3 29  1  0
  5 30  1  0
 10 31  1  0
 10 32  1  0
 11 33  1  0
 11 34  1  0
 14 35  1  0
 15 36  1  0
 17 37  1  0
 19 38  1  0
 20 39  1  0
 23 40  1  0
 24 41  1  0
 25 42  1  0
 26 43  1  0
 27 44  1  0
M  END
$$$$
OCNT-2309702
     RDKit          3D

 50 53  0  0  0  0  0  0  0  0999 V2000
   -1.4742   -2.2786    2.2015 O   0  0  0  0  0  0  0  0  0  0  0  0
   -0.9455   -1.5680    1.3473 C   0  0  0  0  0  0  0  0  0  0  0  0
   -1.5075   -0.3610    0.9899 N   0  0  0  0  0  0  0  0  0  0  0  0
   -2.8096    0.0459    1.4854 C   0  0  0  0  0  0  0  0  0  0  0  0
   -3.9579   -0.5132    0.6079 C   0  0  1  0  0  0  0  0  0  0  0  0
   -5.3316   -0.1237    1.1925 C   0  0  0  0  0  0  0  0  0  0  0  0
   -5.8253    1.2071    0.6375 C   0  0  0  0  0  0  0  0  0  0  0  0
   -5.8778    1.1861   -0.8921 C   0  0  0  0  0  0  0  0  0  0  0  0
   -5.0497    0.0531   -1.5004 C   0  0  0  0  0  0  0  0  0  0  0  0
   -3.7741   -0.0971   -0.8067 N   0  0  0  0  0  0  0  0  0  0  0  0
    0.2581   -1.9551    0.6188 C   0  0  0  0  0  0  0  0  0  0  0  0
    1.3000   -1.2117    0.0802 C   0  0  0  0  0  0  0  0  0  0  0  0
    1.4165    0.5189    0.2089 S   0  0  0  0  0  0  0  0  0  0  0  0
    0.2831    0.9672   -0.5799 O   0  0  0  0  0  0  0  0  0  0  0  0
    1.4723    0.7439    1.6362 O   0  0  0  0  0  0  0  0  0  0  0  0
    2.8090    1.1103   -0.5208 N   0  0  0  0  0  0  0  0  0  0  0  0
    2.8484    1.1847   -2.0076 C   0  0  0  0  0  0  0  0  0  0  0  0
    4.3392    1.2538   -2.3847 C   0  0  0  0  0  0  0  0  0  0  0  0
    5.0160    0.8304   -1.1195 C   0  0  0  0  0  0  0  0  0  0  0  0
    6.3651    0.5734   -0.9306 C   0  0  0  0  0  0  0  0  0  0  0  0
    6.8034    0.2585    0.3563 C   0  0  0  0  0  0  0  0  0  0  0  0
    5.8998    0.2278    1.4290 C   0  0  0  0  0  0  0  0  0  0  0  0
    4.5429    0.4986    1.2276 C   0  0  0  0  0  0  0  0  0  0  0  0
    4.1117    0.7662   -0.0586 C   0  0  0  0  0  0  0  0  0  0  0  0
    2.2800   -2.0346   -0.5618 C   0  0  0  0  0  0  0  0  0  0  0  0
    1.9698   -3.3721   -0.4831 C   0  0  0  0  0  0  0  0  0  0  0  0
    0.5162   -3.6405    0.3634 S   0  0  0  0  0  0  0  0  0  0  0  0
   -1.1978    0.0875    0.1320 H   0  0  0  0  0  0  0  0  0  0  0  0
   -2.9225   -0.2928    2.5214 H   0  0  0  0  0  0  0  0  0  0  0  0
   -2.8197    1.1416    1.4866 H   0  0  0  0  0  0  0  0  0  0  0  0
   -3.8893   -1.6086    0.6310 H   0  0  0  0  0  0  0  0  0  0  0  0
   -6.0644   -0.9014    0.9395 H   0  0  0  0  0  0  0  0  0  0  0  0
   -5.2932   -0.0813    2.2871 H   0  0  0  0  0  0  0  0  0  0  0  0
   -6.8153    1.4460    1.0420 H   0  0  0  0  0  0  0  0  0  0  0  0
   -5.1536    2.0098    0.9659 H   0  0  0  0  0  0  0  0  0  0  0  0
   -6.9175    1.0793   -1.2239 H   0  0  0  0  0  0  0  0  0  0  0  0
   -5.5291    2.1544   -1.2718 H   0  0  0  0  0  0  0  0  0  0  0  0
   -5.6056   -0.8923   -1.4758 H   0  0  0  0  0  0  0  0  0  0  0  0
   -4.8631    0.2689   -2.5583 H   0  0  0  0  0  0  0  0  0  0  0  0
   -3.2805    0.7957   -0.8345 H   0  0  0  0  0  0  0  0  0  0  0  0
    2.3119    2.0681   -2.3674 H   0  0  0  0  0  0  0  0  0  0  0  0
    2.3950    0.2928   -2.4543 H   0  0  0  0  0  0  0  0  0  0  0  0
    4.5684    0.5880   -3.2218 H   0  0  0  0  0  0  0  0  0  0  0  0
    4.6275    2.2789   -2.6400 H   0  0  0  0  0  0  0  0  0  0  0  0
    7.0699    0.6286   -1.7545 H   0  0  0  0  0  0  0  0  0  0  0  0
    7.8571    0.0552    0.5355 H   0  0  0  0  0  0  0  0  0  0  0  0
    6.2603    0.0050    2.4312 H   0  0  0  0  0  0  0  0  0  0  0  0
    3.8680    0.4998    2.0766 H   0  0  0  0  0  0  0  0  0  0  0  0
    3.1807   -1.6845   -1.0478 H   0  0  0  0  0  0  0  0  0  0  0  0
    2.5345   -4.2092   -0.8718 H   0  0  0  0  0  0  0  0  0  0  0  0
  1  2  2  0
  2  3  1  0
  3  4  1  0
  4  5  1  0
  5  6  1  0
  6  7  1  0
  7  8  1  0
  8  9  1  0
  9 10  1  0
  2 11  1  0
 11 12  2  0
 12 13  1  0
 13 14  2  0
 13 15  2  0
 13 16  1  0
 16 17  1  0
 17 18  1  0
 18 19  1  0
 19 20  2  0
 20 21  1  0
 21 22  2  0
 22 23  1  0
 23 24  2  0
 12 25  1  0
 25 26  2  0
 26 27  1  0
 10  5  1  0
 27 11  1  0
 24 16  1  0
 24 19  1  0
  3 28  1  0
  4 29  1  0
  4 30  1  0
  5 31  1  6
  6 32  1  0
  6 33  1  0
  7 34  1  0
  7 35  1  0
  8 36  1  0
  8 37  1  0
  9 38  1  0
  9 39  1  0
 10 40  1  0
 17 41  1  0
 17 42  1  0
 18 43  1  0
 18 44  1  0
 20 45  1  0
 21 46  1  0
 22 47  1  0
 23 48  1  0
 25 49  1  0
 26 50  1  0
M  END
$$$$
OCNT-2309728
     RDKit          3D

 42 45  0  0  0  0  0  0  0  0999 V2000
    7.4691   -1.8409    0.9034 O   0  0  0  0  0  0  0  0  0  0  0  0
    6.3637   -1.4340    0.5880 C   0  0  0  0  0  0  0  0  0  0  0  0
    6.0220   -0.0482    0.0268 C   0  0  0  0  0  0  0  0  0  0  0  0
    4.5381   -0.1453   -0.1678 C   0  0  0  0  0  0  0  0  0  0  0  0
    3.6438    0.7942   -0.6468 C   0  0  0  0  0  0  0  0  0  0  0  0
    2.2953    0.4309   -0.7146 C   0  0  0  0  0  0  0  0  0  0  0  0
    1.3338    1.3778   -1.1596 N   0  0  0  0  0  0  0  0  0  0  0  0
    0.6460    2.4061   -0.0046 S   0  0  0  0  0  0  0  0  0  0  0  0
   -0.0376    3.4430   -0.7492 O   0  0  0  0  0  0  0  0  0  0  0  0
    1.6402    2.7386    0.9928 O   0  0  0  0  0  0  0  0  0  0  0  0
   -0.5972    1.3815    0.7354 C   0  0  0  0  0  0  0  0  0  0  0  0
   -0.4159    0.8905    2.0291 C   0  0  0  0  0  0  0  0  0  0  0  0
   -1.4038    0.0909    2.5967 C   0  0  0  0  0  0  0  0  0  0  0  0
   -2.5644   -0.2067    1.8746 C   0  0  0  0  0  0  0  0  0  0  0  0
   -2.7658    0.2901    0.5739 C   0  0  0  0  0  0  0  0  0  0  0  0
   -3.9933   -0.0227   -0.1771 C   0  0  0  0  0  0  0  0  0  0  0  0
   -4.4268   -1.3497   -0.3379 C   0  0  0  0  0  0  0  0  0  0  0  0
   -5.5904   -1.6470   -1.0529 C   0  0  0  0  0  0  0  0  0  0  0  0
   -6.3421   -0.6210   -1.6193 C   0  0  0  0  0  0  0  0  0  0  0  0
   -5.9314    0.7011   -1.4717 C   0  0  0  0  0  0  0  0  0  0  0  0
   -4.7672    0.9968   -0.7572 C   0  0  0  0  0  0  0  0  0  0  0  0
   -1.7624    1.0959    0.0136 C   0  0  0  0  0  0  0  0  0  0  0  0
    1.8621   -0.8418   -0.2977 C   0  0  0  0  0  0  0  0  0  0  0  0
    2.7763   -1.7835    0.1829 C   0  0  0  0  0  0  0  0  0  0  0  0
    4.1003   -1.4056    0.2351 C   0  0  0  0  0  0  0  0  0  0  0  0
    5.1784   -2.1552    0.6742 N   0  0  0  0  0  0  0  0  0  0  0  0
    6.2782    0.7192    0.7612 H   0  0  0  0  0  0  0  0  0  0  0  0
    6.5393    0.1014   -0.9240 H   0  0  0  0  0  0  0  0  0  0  0  0
    3.9782    1.7840   -0.9388 H   0  0  0  0  0  0  0  0  0  0  0  0
    1.5376    1.8902   -2.0172 H   0  0  0  0  0  0  0  0  0  0  0  0
    0.4836    1.1233    2.5950 H   0  0  0  0  0  0  0  0  0  0  0  0
   -1.2785   -0.2966    3.6051 H   0  0  0  0  0  0  0  0  0  0  0  0
   -3.3300   -0.8212    2.3461 H   0  0  0  0  0  0  0  0  0  0  0  0
   -3.8502   -2.1690    0.0864 H   0  0  0  0  0  0  0  0  0  0  0  0
   -5.9072   -2.6803   -1.1682 H   0  0  0  0  0  0  0  0  0  0  0  0
   -7.2475   -0.8511   -2.1748 H   0  0  0  0  0  0  0  0  0  0  0  0
   -6.5172    1.5053   -1.9095 H   0  0  0  0  0  0  0  0  0  0  0  0
   -4.4729    2.0389   -0.6456 H   0  0  0  0  0  0  0  0  0  0  0  0
   -1.8825    1.4940   -0.9929 H   0  0  0  0  0  0  0  0  0  0  0  0
    0.8089   -1.1060   -0.3572 H   0  0  0  0  0  0  0  0  0  0  0  0
    2.4481   -2.7661    0.5011 H   0  0  0  0  0  0  0  0  0  0  0  0
    5.1412   -3.1017    1.0214 H   0  0  0  0  0  0  0  0  0  0  0  0
  1  2  2  0
  2  3  1  0
  3  4  1  0
  4  5  1  0
  5  6  2  0
  6  7  1  0
  7  8  1  0
  8  9  2  0
  8 10  2  0
  8 11  1  0
 11 12  2  0
 12 13  1  0
 13 14  2  0
 14 15  1  0
 15 16  1  0
 16 17  2  0
 17 18  1  0
 18 19  2  0
 19 20  1  0
 20 21  2  0
 15 22  2  0
  6 23  1  0
 23 24  2  0
 24 25  1  0
 25 26  1  0
 26  2  1  0
 25  4  2  0
 22 11  1  0
 21 16  1  0
  3 27  1  0
  3 28  1  0
  5 29  1  0
  7 30  1  0
 12 31  1  0
 13 32  1  0
 14 33  1  0
 17 34  1  0
 18 35  1  0
 19 36  1  0
 20 37  1  0
 21 38  1  0
 22 39  1  0
 23 40  1  0
 24 41  1  0
 26 42  1  0
M  END
$$$$
OCNT-2309730
     RDKit          3D

 59 64  0  0  0  0  0  0  0  0999 V2000
   -3.9595   -4.2674   -1.6933 C   0  0  0  0  0  0  0  0  0  0  0  0
   -3.2700   -2.9973   -1.2889 C   0  0  0  0  0  0  0  0  0  0  0  0
   -1.8977   -3.0032   -0.9848 C   0  0  0  0  0  0  0  0  0  0  0  0
   -1.2389   -1.8357   -0.5769 C   0  0  0  0  0  0  0  0  0  0  0  0
   -1.9684   -0.6662   -0.4408 C   0  0  0  0  0  0  0  0  0  0  0  0
   -3.3287   -0.6552   -0.7592 C   0  0  0  0  0  0  0  0  0  0  0  0
   -3.9928   -1.8062   -1.1697 C   0  0  0  0  0  0  0  0  0  0  0  0
   -3.9186    0.7195   -0.6220 C   0  0  0  0  0  0  0  0  0  0  0  0
   -4.9405    0.8103    0.5158 C   0  0  0  0  0  0  0  0  0  0  0  0
   -5.3504    2.1826    0.8414 N   0  0  0  0  0  0  0  0  0  0  0  0
   -6.5613    2.5873    0.1329 C   0  0  0  0  0  0  0  0  0  0  0  0
   -4.2835    3.1797    0.6822 C   0  0  0  0  0  0  0  0  0  0  0  0
   -2.8878    2.5733    0.8008 C   0  0  0  0  0  0  0  0  0  0  0  0
   -2.6595    1.5742   -0.3411 C   0  0  0  0  0  0  0  0  0  0  0  0
   -1.5488    0.6309   -0.0727 N   0  0  0  0  0  0  0  0  0  0  0  0
   -0.2687    1.0980    0.1827 C   0  0  0  0  0  0  0  0  0  0  0  0
    0.0749    2.2605   -0.0342 O   0  0  0  0  0  0  0  0  0  0  0  0
    0.7237    0.2251    0.8290 C   0  0  0  0  0  0  0  0  0  0  0  0
    0.3989   -0.5193    1.9531 C   0  0  0  0  0  0  0  0  0  0  0  0
    1.2841   -1.3099    2.6025 N   0  0  0  0  0  0  0  0  0  0  0  0
    2.5529   -1.3232    2.1200 C   0  0  0  0  0  0  0  0  0  0  0  0
    2.9990   -0.5921    1.0149 C   0  0  0  0  0  0  0  0  0  0  0  0
    4.3957   -0.6481    0.5572 C   0  0  0  0  0  0  0  0  0  0  0  0
    5.0396   -1.8918    0.3437 C   0  0  0  0  0  0  0  0  0  0  0  0
    6.3692   -1.9640   -0.0864 C   0  0  0  0  0  0  0  0  0  0  0  0
    7.0391   -0.7820   -0.3094 C   0  0  0  0  0  0  0  0  0  0  0  0
    8.3424   -0.6965   -0.7228 O   0  0  0  0  0  0  0  0  0  0  0  0
    8.4963    0.6992   -1.0749 C   0  0  0  0  0  0  0  0  0  0  0  0
    7.4249    1.5203   -0.3555 C   0  0  0  0  0  0  0  0  0  0  0  0
    6.4368    0.4473   -0.1082 C   0  0  0  0  0  0  0  0  0  0  0  0
    5.1246    0.5354    0.3275 C   0  0  0  0  0  0  0  0  0  0  0  0
    2.0434    0.2048    0.3706 C   0  0  0  0  0  0  0  0  0  0  0  0
   -3.2781   -4.9221   -2.2466 H   0  0  0  0  0  0  0  0  0  0  0  0
   -4.8118   -4.0584   -2.3483 H   0  0  0  0  0  0  0  0  0  0  0  0
   -4.3175   -4.7971   -0.8052 H   0  0  0  0  0  0  0  0  0  0  0  0
   -1.3255   -3.9252   -1.0744 H   0  0  0  0  0  0  0  0  0  0  0  0
   -0.1731   -1.8925   -0.3984 H   0  0  0  0  0  0  0  0  0  0  0  0
   -5.0535   -1.7764   -1.4034 H   0  0  0  0  0  0  0  0  0  0  0  0
   -4.3719    1.0321   -1.5710 H   0  0  0  0  0  0  0  0  0  0  0  0
   -5.8135    0.1807    0.2983 H   0  0  0  0  0  0  0  0  0  0  0  0
   -4.5104    0.3736    1.4283 H   0  0  0  0  0  0  0  0  0  0  0  0
   -6.8749    3.5894    0.4465 H   0  0  0  0  0  0  0  0  0  0  0  0
   -7.3910    1.9121    0.3694 H   0  0  0  0  0  0  0  0  0  0  0  0
   -6.4198    2.5928   -0.9536 H   0  0  0  0  0  0  0  0  0  0  0  0
   -4.4109    3.9539    1.4474 H   0  0  0  0  0  0  0  0  0  0  0  0
   -4.3546    3.6799   -0.2934 H   0  0  0  0  0  0  0  0  0  0  0  0
   -2.7661    2.0881    1.7781 H   0  0  0  0  0  0  0  0  0  0  0  0
   -2.1383    3.3718    0.7594 H   0  0  0  0  0  0  0  0  0  0  0  0
   -2.3885    2.1286   -1.2512 H   0  0  0  0  0  0  0  0  0  0  0  0
   -0.6016   -0.5052    2.3766 H   0  0  0  0  0  0  0  0  0  0  0  0
    3.2352   -1.9556    2.6846 H   0  0  0  0  0  0  0  0  0  0  0  0
    4.4983   -2.8227    0.5044 H   0  0  0  0  0  0  0  0  0  0  0  0
    6.8577   -2.9186   -0.2461 H   0  0  0  0  0  0  0  0  0  0  0  0
    9.5049    1.0308   -0.8073 H   0  0  0  0  0  0  0  0  0  0  0  0
    8.3915    0.7817   -2.1644 H   0  0  0  0  0  0  0  0  0  0  0  0
    7.8012    1.9155    0.5935 H   0  0  0  0  0  0  0  0  0  0  0  0
    7.0485    2.3349   -0.9793 H   0  0  0  0  0  0  0  0  0  0  0  0
    4.6770    1.5101    0.5049 H   0  0  0  0  0  0  0  0  0  0  0  0
    2.3159    0.8075   -0.4935 H   0  0  0  0  0  0  0  0  0  0  0  0
  1  2  1  0
  2  3  1  0
  3  4  2  0
  4  5  1  0
  5  6  2  0
  6  7  1  0
  6  8  1  0
  8  9  1  0
  9 10  1  0
 10 11  1  0
 10 12  1  0
 12 13  1  0
 13 14  1  0
 14 15  1  0
 15 16  1  0
 16 17  2  0
 16 18  1  0
 18 19  1  0
 19 20  2  0
 20 21  1  0
 21 22  2  0
 22 23  1  0
 23 24  1  0
 24 25  2  0
 25 26  1  0
 26 27  1  0
 27 28  1  0
 28 29  1  0
 29 30  1  0
 30 31  1  0
 22 32  1  0
  7  2  2  0
 14  8  1  0
 32 18  2  0
 15  5  1  0
 31 23  2  0
 30 26  2  0
  1 33  1  0
  1 34  1  0
  1 35  1  0
  3 36  1  0
  4 37  1  0
  7 38  1  0
  8 39  1  0
  9 40  1  0
  9 41  1  0
 11 42  1  0
 11 43  1  0
 11 44  1  0
 12 45  1  0
 12 46  1  0
 13 47  1  0
 13 48  1  0
 14 49  1  0
 19 50  1  0
 21 51  1  0
 24 52  1  0
 25 53  1  0
 28 54  1  0
 28 55  1  0
 29 56  1  0
 29 57  1  0
 31 58  1  0
 32 59  1  0
M  END
$$$$
OCNT-2309752
     RDKit          3D

 56 61  0  0  0  0  0  0  0  0999 V2000
    0.2246   -3.1660   -4.5288 N   0  0  0  0  0  0  0  0  0  0  0  0
   -0.5135   -2.4771   -3.6267 C   0  0  0  0  0  0  0  0  0  0  0  0
   -1.5795   -1.8420   -3.9820 N   0  0  0  0  0  0  0  0  0  0  0  0
   -2.2546   -1.1813   -3.0067 C   0  0  0  0  0  0  0  0  0  0  0  0
   -3.4152   -0.5619   -3.0872 N   0  0  0  0  0  0  0  0  0  0  0  0
   -3.6738   -0.0638   -1.8340 C   0  0  0  0  0  0  0  0  0  0  0  0
   -4.7733    0.6792   -1.3811 C   0  0  0  0  0  0  0  0  0  0  0  0
   -4.8215    1.0529   -0.0335 C   0  0  0  0  0  0  0  0  0  0  0  0
   -3.7820    0.7174    0.8414 C   0  0  0  0  0  0  0  0  0  0  0  0
   -2.6600    0.0071    0.3971 C   0  0  0  0  0  0  0  0  0  0  0  0
   -2.6482   -0.3791   -0.9477 C   0  0  0  0  0  0  0  0  0  0  0  0
   -1.7564   -1.0624   -1.7288 N   0  0  0  0  0  0  0  0  0  0  0  0
   -0.4858   -1.6667   -1.3622 C   0  0  0  0  0  0  0  0  0  0  0  0
    0.5657   -0.6162   -1.0405 C   0  0  0  0  0  0  0  0  0  0  0  0
    0.9099    0.3883   -1.9584 C   0  0  0  0  0  0  0  0  0  0  0  0
    1.8891    1.3291   -1.6419 C   0  0  0  0  0  0  0  0  0  0  0  0
    2.5436    1.2809   -0.4090 C   0  0  0  0  0  0  0  0  0  0  0  0
    2.2217    0.2892    0.5149 C   0  0  0  0  0  0  0  0  0  0  0  0
    2.7862    0.1144    1.7481 O   0  0  0  0  0  0  0  0  0  0  0  0
    3.6634    1.1302    2.2463 C   0  0  0  0  0  0  0  0  0  0  0  0
    5.0896    0.9322    1.7958 C   0  0  0  0  0  0  0  0  0  0  0  0
    5.6527   -0.3485    1.6805 C   0  0  0  0  0  0  0  0  0  0  0  0
    6.9846   -0.4989    1.2890 C   0  0  0  0  0  0  0  0  0  0  0  0
    7.7560    0.6281    1.0240 C   0  0  0  0  0  0  0  0  0  0  0  0
    9.0332    0.4782    0.6502 F   0  0  0  0  0  0  0  0  0  0  0  0
    7.2250    1.9037    1.1454 C   0  0  0  0  0  0  0  0  0  0  0  0
    5.8984    2.0440    1.5351 C   0  0  0  0  0  0  0  0  0  0  0  0
    5.3900    3.2785    1.6562 F   0  0  0  0  0  0  0  0  0  0  0  0
    1.2438   -0.6574    0.1903 C   0  0  0  0  0  0  0  0  0  0  0  0
    0.0249   -2.5716   -2.3834 N   0  0  0  0  0  0  0  0  0  0  0  0
   -3.7442    1.1400    2.1453 O   0  0  0  0  0  0  0  0  0  0  0  0
   -4.8250    0.6104    2.9137 C   0  0  0  0  0  0  0  0  0  0  0  0
   -6.1023    1.4157    2.7347 C   0  0  0  0  0  0  0  0  0  0  0  0
   -6.6830    1.2188    1.3432 C   0  0  0  0  0  0  0  0  0  0  0  0
   -5.8797    1.8396    0.3403 O   0  0  0  0  0  0  0  0  0  0  0  0
   -0.2640   -3.1982   -5.4208 H   0  0  0  0  0  0  0  0  0  0  0  0
    0.4448   -4.1056   -4.2210 H   0  0  0  0  0  0  0  0  0  0  0  0
   -5.5634    0.9563   -2.0694 H   0  0  0  0  0  0  0  0  0  0  0  0
   -1.8418   -0.2137    1.0729 H   0  0  0  0  0  0  0  0  0  0  0  0
   -0.6962   -2.2656   -0.4672 H   0  0  0  0  0  0  0  0  0  0  0  0
    0.4170    0.4485   -2.9288 H   0  0  0  0  0  0  0  0  0  0  0  0
    2.1446    2.1049   -2.3606 H   0  0  0  0  0  0  0  0  0  0  0  0
    3.3028    2.0306   -0.2127 H   0  0  0  0  0  0  0  0  0  0  0  0
    3.2769    2.1315    2.0211 H   0  0  0  0  0  0  0  0  0  0  0  0
    3.6509    1.0438    3.3397 H   0  0  0  0  0  0  0  0  0  0  0  0
    5.0539   -1.2327    1.8908 H   0  0  0  0  0  0  0  0  0  0  0  0
    7.4254   -1.4864    1.1908 H   0  0  0  0  0  0  0  0  0  0  0  0
    7.8352    2.7755    0.9418 H   0  0  0  0  0  0  0  0  0  0  0  0
    1.0103   -1.4308    0.9202 H   0  0  0  0  0  0  0  0  0  0  0  0
    1.0355   -2.6434   -2.3892 H   0  0  0  0  0  0  0  0  0  0  0  0
   -4.5159    0.6756    3.9632 H   0  0  0  0  0  0  0  0  0  0  0  0
   -4.9785   -0.4564    2.7016 H   0  0  0  0  0  0  0  0  0  0  0  0
   -6.8378    1.0964    3.4809 H   0  0  0  0  0  0  0  0  0  0  0  0
   -5.8857    2.4790    2.8907 H   0  0  0  0  0  0  0  0  0  0  0  0
   -6.8561    0.1582    1.1159 H   0  0  0  0  0  0  0  0  0  0  0  0
   -7.6623    1.7088    1.3006 H   0  0  0  0  0  0  0  0  0  0  0  0
  1  2  1  0
  2  3  2  0
  3  4  1  0
  4  5  2  0
  5  6  1  0
  6  7  2  0
  7  8  1  0
  8  9  2  0
  9 10  1  0
 10 11  2  0
 11 12  1  0
 12 13  1  0
 13 14  1  0
 14 15  2  0
 15 16  1  0
 16 17  2  0
 17 18  1  0
 18 19  1  0
 19 20  1  0
 20 21  1  0
 21 22  1  0
 22 23  2  0
 23 24  1  0
 24 25  1  0
 24 26  2  0
 26 27  1  0
 27 28  1  0
 18 29  2  0
 13 30  1  0
  9 31  1  0
 31 32  1  0
 32 33  1  0
 33 34  1  0
 34 35  1  0
 30  2  1  0
 12  4  1  0
 29 14  1  0
 11  6  1  0
 27 21  2  0
 35  8  1  0
  1 36  1  0
  1 37  1  0
  7 38  1  0
 10 39  1  0
 13 40  1  0
 15 41  1  0
 16 42  1  0
 17 43  1  0
 20 44  1  0
 20 45  1  0
 22 46  1  0
 23 47  1  0
 26 48  1  0
 29 49  1  0
 30 50  1  0
 32 51  1  0
 32 52  1  0
 33 53  1  0
 33 54  1  0
 34 55  1  0
 34 56  1  0
M  END
$$$$
OCNT-2309755
     RDKit          3D

 42 45  0  0  0  0  0  0  0  0999 V2000
   -5.6216    0.7889   -0.5894 C   0  0  0  0  0  0  0  0  0  0  0  0
   -4.2690    0.6179   -1.0588 N   0  0  0  0  0  0  0  0  0  0  0  0
   -3.9778    0.9003   -2.3433 N   0  0  0  0  0  0  0  0  0  0  0  0
   -2.6596    0.7030   -2.4149 C   0  0  0  0  0  0  0  0  0  0  0  0
   -2.0973    0.2644   -1.1914 C   0  0  0  0  0  0  0  0  0  0  0  0
   -0.6626   -0.0357   -0.9294 C   0  0  0  0  0  0  0  0  0  0  0  0
   -0.1098    1.0583   -0.1293 N   0  0  0  0  0  0  0  0  0  0  0  0
    1.3600    0.9874    0.0570 C   0  0  0  0  0  0  0  0  0  0  0  0
    1.8628   -0.3029    0.7114 C   0  0  0  0  0  0  0  0  0  0  0  0
    3.3678   -0.3226    0.7730 C   0  0  0  0  0  0  0  0  0  0  0  0
    4.0390   -1.0253    1.7800 C   0  0  0  0  0  0  0  0  0  0  0  0
    5.4318   -1.1124    1.7635 C   0  0  0  0  0  0  0  0  0  0  0  0
    6.1587   -0.5163    0.7330 C   0  0  0  0  0  0  0  0  0  0  0  0
    5.4960    0.1744   -0.2822 C   0  0  0  0  0  0  0  0  0  0  0  0
    4.1058    0.2782   -0.2535 C   0  0  0  0  0  0  0  0  0  0  0  0
    3.4463    0.9696   -1.2741 N   0  0  0  0  0  0  0  0  0  0  0  0
    2.1113    1.2826   -1.2556 C   0  0  0  0  0  0  0  0  0  0  0  0
    1.5919    1.8497   -2.2176 O   0  0  0  0  0  0  0  0  0  0  0  0
   -3.1862    0.1901   -0.3433 C   0  0  0  0  0  0  0  0  0  0  0  0
   -3.1519   -0.2224    1.1518 C   0  0  0  0  0  0  0  0  0  0  0  0
   -2.6807   -1.6058    1.5188 C   0  0  0  0  0  0  0  0  0  0  0  0
   -4.1279   -1.2477    1.6672 C   0  0  0  0  0  0  0  0  0  0  0  0
   -5.6058    1.0799    0.4635 H   0  0  0  0  0  0  0  0  0  0  0  0
   -6.1499   -0.1583   -0.7201 H   0  0  0  0  0  0  0  0  0  0  0  0
   -6.1065    1.5762   -1.1729 H   0  0  0  0  0  0  0  0  0  0  0  0
   -2.1537    0.8895   -3.3540 H   0  0  0  0  0  0  0  0  0  0  0  0
   -0.5895   -0.9876   -0.3947 H   0  0  0  0  0  0  0  0  0  0  0  0
   -0.1343   -0.1495   -1.8825 H   0  0  0  0  0  0  0  0  0  0  0  0
   -0.3021    1.9281   -0.6358 H   0  0  0  0  0  0  0  0  0  0  0  0
    1.6179    1.8249    0.7210 H   0  0  0  0  0  0  0  0  0  0  0  0
    1.4397   -0.3892    1.7196 H   0  0  0  0  0  0  0  0  0  0  0  0
    1.5582   -1.1887    0.1418 H   0  0  0  0  0  0  0  0  0  0  0  0
    3.4826   -1.5168    2.5750 H   0  0  0  0  0  0  0  0  0  0  0  0
    5.9506   -1.6563    2.5494 H   0  0  0  0  0  0  0  0  0  0  0  0
    7.2432   -0.5933    0.7196 H   0  0  0  0  0  0  0  0  0  0  0  0
    6.0749    0.6321   -1.0793 H   0  0  0  0  0  0  0  0  0  0  0  0
    3.9603    1.2871   -2.0859 H   0  0  0  0  0  0  0  0  0  0  0  0
   -2.8721    0.5827    1.8256 H   0  0  0  0  0  0  0  0  0  0  0  0
   -2.4153   -2.2974    0.7278 H   0  0  0  0  0  0  0  0  0  0  0  0
   -2.0836   -1.7095    2.4171 H   0  0  0  0  0  0  0  0  0  0  0  0
   -4.5171   -1.1145    2.6699 H   0  0  0  0  0  0  0  0  0  0  0  0
   -4.8245   -1.7131    0.9799 H   0  0  0  0  0  0  0  0  0  0  0  0
  1  2  1  0
  2  3  1  0
  3  4  2  0
  4  5  1  0
  5  6  1  0
  6  7  1  0
  7  8  1  0
  8  9  1  0
  9 10  1  0
 10 11  2  0
 11 12  1  0
 12 13  2  0
 13 14  1  0
 14 15  2  0
 15 16  1  0
 16 17  1  0
 17 18  2  0
  5 19  2  0
 19 20  1  0
 20 21  1  0
 21 22  1  0
 19  2  1  0
 22 20  1  0
 17  8  1  0
 15 10  1  0
  1 23  1  0
  1 24  1  0
  1 25  1  0
  4 26  1  0
  6 27  1  0
  6 28  1  0
  7 29  1  0
  8 30  1  0
  9 31  1  0
  9 32  1  0
 11 33  1  0
 12 34  1  0
 13 35  1  0
 14 36  1  0
 16 37  1  0
 20 38  1  0
 21 39  1  0
 21 40  1  0
 22 41  1  0
 22 42  1  0
M  END
$$$$
OCNT-2309757
     RDKit          3D

 39 41  0  0  0  0  0  0  0  0999 V2000
    4.3660    0.0390   -0.8883 C   0  0  0  0  0  0  0  0  0  0  0  0
    4.1496   -0.0189    0.5965 C   0  0  0  0  0  0  0  0  0  0  0  0
    5.2544   -0.0742    1.4566 C   0  0  0  0  0  0  0  0  0  0  0  0
    5.0589   -0.1406    2.8282 C   0  0  0  0  0  0  0  0  0  0  0  0
    3.7596   -0.1508    3.2927 C   0  0  0  0  0  0  0  0  0  0  0  0
    2.6728   -0.0924    2.4931 N   0  0  0  0  0  0  0  0  0  0  0  0
    2.8625   -0.0080    1.1572 C   0  0  0  0  0  0  0  0  0  0  0  0
    1.7472    0.0271    0.3091 N   0  0  0  0  0  0  0  0  0  0  0  0
    0.4617    0.1755    0.9904 C   0  0  0  0  0  0  0  0  0  0  0  0
   -0.6880    0.4261    0.0501 C   0  0  0  0  0  0  0  0  0  0  0  0
   -1.8930   -0.2369   -0.0713 C   0  0  0  0  0  0  0  0  0  0  0  0
   -2.4868   -1.3849    0.6690 C   0  0  0  0  0  0  0  0  0  0  0  0
   -3.6585   -2.0072   -0.0944 C   0  0  0  0  0  0  0  0  0  0  0  0
   -4.5969   -0.9245   -0.6286 C   0  0  0  0  0  0  0  0  0  0  0  0
   -3.8590    0.0092   -1.5891 C   0  0  0  0  0  0  0  0  0  0  0  0
   -2.5569    0.4102   -1.0849 N   0  0  0  0  0  0  0  0  0  0  0  0
   -1.7529    1.4186   -1.5628 C   0  0  0  0  0  0  0  0  0  0  0  0
   -2.1721    2.3019   -2.6933 C   0  0  0  0  0  0  0  0  0  0  0  0
   -2.5490    1.5774   -3.7828 F   0  0  0  0  0  0  0  0  0  0  0  0
   -1.1973    3.1505   -3.1074 F   0  0  0  0  0  0  0  0  0  0  0  0
   -3.2460    3.0679   -2.3595 F   0  0  0  0  0  0  0  0  0  0  0  0
   -0.6166    1.4479   -0.8799 N   0  0  0  0  0  0  0  0  0  0  0  0
    5.4217   -0.1006   -1.1448 H   0  0  0  0  0  0  0  0  0  0  0  0
    4.0537    1.0131   -1.2780 H   0  0  0  0  0  0  0  0  0  0  0  0
    3.8029   -0.7536   -1.3916 H   0  0  0  0  0  0  0  0  0  0  0  0
    6.2659   -0.0733    1.0590 H   0  0  0  0  0  0  0  0  0  0  0  0
    5.8962   -0.1893    3.5143 H   0  0  0  0  0  0  0  0  0  0  0  0
    3.5461   -0.2087    4.3558 H   0  0  0  0  0  0  0  0  0  0  0  0
    1.8422    0.7790   -0.3690 H   0  0  0  0  0  0  0  0  0  0  0  0
    0.4903    1.0298    1.6803 H   0  0  0  0  0  0  0  0  0  0  0  0
    0.2518   -0.7257    1.5796 H   0  0  0  0  0  0  0  0  0  0  0  0
   -2.8364   -1.0276    1.6454 H   0  0  0  0  0  0  0  0  0  0  0  0
   -1.7275   -2.1521    0.8571 H   0  0  0  0  0  0  0  0  0  0  0  0
   -4.2062   -2.6904    0.5643 H   0  0  0  0  0  0  0  0  0  0  0  0
   -3.2790   -2.6042   -0.9334 H   0  0  0  0  0  0  0  0  0  0  0  0
   -5.4508   -1.3811   -1.1410 H   0  0  0  0  0  0  0  0  0  0  0  0
   -4.9976   -0.3459    0.2135 H   0  0  0  0  0  0  0  0  0  0  0  0
   -4.4534    0.9108   -1.7659 H   0  0  0  0  0  0  0  0  0  0  0  0
   -3.6795   -0.4933   -2.5463 H   0  0  0  0  0  0  0  0  0  0  0  0
  1  2  1  0
  2  3  1  0
  3  4  2  0
  4  5  1  0
  5  6  2  0
  6  7  1  0
  7  8  1  0
  8  9  1  0
  9 10  1  0
 10 11  2  0
 11 12  1  0
 12 13  1  0
 13 14  1  0
 14 15  1  0
 15 16  1  0
 16 17  1  0
 17 18  1  0
 18 19  1  0
 18 20  1  0
 18 21  1  0
 17 22  2  0
  7  2  2  0
 22 10  1  0
 16 11  1  0
  1 23  1  0
  1 24  1  0
  1 25  1  0
  3 26  1  0
  4 27  1  0
  5 28  1  0
  8 29  1  0
  9 30  1  0
  9 31  1  0
 12 32  1  0
 12 33  1  0
 13 34  1  0
 13 35  1  0
 14 36  1  0
 14 37  1  0
 15 38  1  0
 15 39  1  0
M  END
$$$$
OCNT-2309758
     RDKit          3D

 39 42  0  0  0  0  0  0  0  0999 V2000
   -3.3712   -1.6202   -3.5185 C   0  0  0  0  0  0  0  0  0  0  0  0
   -3.0774   -0.6122   -2.4460 C   0  0  0  0  0  0  0  0  0  0  0  0
   -3.7713    0.6019   -2.4111 C   0  0  0  0  0  0  0  0  0  0  0  0
   -3.5391    1.5482   -1.4068 C   0  0  0  0  0  0  0  0  0  0  0  0
   -2.5923    1.2353   -0.4254 C   0  0  0  0  0  0  0  0  0  0  0  0
   -2.1697    1.9667    0.6641 N   0  0  0  0  0  0  0  0  0  0  0  0
   -1.2297    1.2590    1.3589 C   0  0  0  0  0  0  0  0  0  0  0  0
   -1.0292    0.0557    0.7156 C   0  0  0  0  0  0  0  0  0  0  0  0
   -0.0726   -0.9764    1.2174 C   0  0  0  0  0  0  0  0  0  0  0  0
    0.9199   -0.3833    2.2559 C   0  0  0  0  0  0  0  0  0  0  0  0
    2.0078    0.3494    1.5958 N   0  0  0  0  0  0  0  0  0  0  0  0
    3.0685   -0.2963    1.0484 C   0  0  0  0  0  0  0  0  0  0  0  0
    3.6718    0.1435   -0.0326 N   0  0  0  0  0  0  0  0  0  0  0  0
    4.7190   -0.7109   -0.3507 C   0  0  0  0  0  0  0  0  0  0  0  0
    5.5598   -0.4397   -1.5395 C   0  0  0  0  0  0  0  0  0  0  0  0
    4.9628   -1.7739    0.4178 N   0  0  0  0  0  0  0  0  0  0  0  0
    3.8335   -1.7297    1.6444 S   0  0  0  0  0  0  0  0  0  0  0  0
    0.2079    0.5675    3.2526 C   0  0  0  0  0  0  0  0  0  0  0  0
   -0.5286    1.7390    2.5778 C   0  0  0  0  0  0  0  0  0  0  0  0
   -1.8887    0.0288   -0.4178 C   0  0  0  0  0  0  0  0  0  0  0  0
   -2.1422   -0.9085   -1.4397 C   0  0  0  0  0  0  0  0  0  0  0  0
   -2.4907   -2.2370   -3.7277 H   0  0  0  0  0  0  0  0  0  0  0  0
   -3.6489   -1.1240   -4.4546 H   0  0  0  0  0  0  0  0  0  0  0  0
   -4.1928   -2.2714   -3.2044 H   0  0  0  0  0  0  0  0  0  0  0  0
   -4.5088    0.8269   -3.1792 H   0  0  0  0  0  0  0  0  0  0  0  0
   -4.0800    2.4885   -1.3950 H   0  0  0  0  0  0  0  0  0  0  0  0
   -2.5108    2.8880    0.9013 H   0  0  0  0  0  0  0  0  0  0  0  0
    0.4661   -1.4341    0.3799 H   0  0  0  0  0  0  0  0  0  0  0  0
   -0.6565   -1.7691    1.7024 H   0  0  0  0  0  0  0  0  0  0  0  0
    1.3324   -1.2093    2.8475 H   0  0  0  0  0  0  0  0  0  0  0  0
    1.6619    1.0847    0.9805 H   0  0  0  0  0  0  0  0  0  0  0  0
    5.2020    0.4434   -2.0787 H   0  0  0  0  0  0  0  0  0  0  0  0
    6.5975   -0.2588   -1.2419 H   0  0  0  0  0  0  0  0  0  0  0  0
    5.5377   -1.2899   -2.2289 H   0  0  0  0  0  0  0  0  0  0  0  0
    0.9272    0.9665    3.9783 H   0  0  0  0  0  0  0  0  0  0  0  0
   -0.5212   -0.0223    3.8246 H   0  0  0  0  0  0  0  0  0  0  0  0
    0.1911    2.5167    2.2967 H   0  0  0  0  0  0  0  0  0  0  0  0
   -1.2362    2.1864    3.2846 H   0  0  0  0  0  0  0  0  0  0  0  0
   -1.6088   -1.8547   -1.4460 H   0  0  0  0  0  0  0  0  0  0  0  0
  1  2  1  0
  2  3  2  0
  3  4  1  0
  4  5  2  0
  5  6  1  0
  6  7  1  0
  7  8  2  0
  8  9  1  0
  9 10  1  0
 10 11  1  0
 11 12  1  0
 12 13  2  0
 13 14  1  0
 14 15  1  0
 14 16  2  0
 16 17  1  0
 10 18  1  0
 18 19  1  0
  8 20  1  0
 20 21  2  0
 21  2  1  0
 20  5  1  0
 19  7  1  0
 17 12  1  0
  1 22  1  0
  1 23  1  0
  1 24  1  0
  3 25  1  0
  4 26  1  0
  6 27  1  0
  9 28  1  0
  9 29  1  0
 10 30  1  0
 11 31  1  0
 15 32  1  0
 15 33  1  0
 15 34  1  0
 18 35  1  0
 18 36  1  0
 19 37  1  0
 19 38  1  0
 21 39  1  0
M  END
$$$$
OCNT-2309776
     RDKit          3D

 50 53  0  0  0  0  0  0  0  0999 V2000
    2.9340    4.9404    1.4104 Br  0  0  0  0  0  0  0  0  0  0  0  0
    3.1419    3.0941    1.0599 C   0  0  0  0  0  0  0  0  0  0  0  0
    2.6985    2.1591    1.9941 C   0  0  0  0  0  0  0  0  0  0  0  0
    2.8513    0.7939    1.7347 C   0  0  0  0  0  0  0  0  0  0  0  0
    3.4385    0.3612    0.5382 C   0  0  0  0  0  0  0  0  0  0  0  0
    3.5903   -1.0626    0.2477 C   0  0  0  0  0  0  0  0  0  0  0  0
    4.7818   -1.5533   -0.1329 N   0  0  0  0  0  0  0  0  0  0  0  0
    4.5647   -2.8627   -0.3091 N   0  0  0  0  0  0  0  0  0  0  0  0
    3.2833   -3.2407   -0.0667 C   0  0  0  0  0  0  0  0  0  0  0  0
    2.5960   -2.0932    0.2806 C   0  0  0  0  0  0  0  0  0  0  0  0
    1.1385   -1.9752    0.6042 C   0  0  0  0  0  0  0  0  0  0  0  0
    0.3302   -2.4707   -0.5262 N   0  0  0  0  0  0  0  0  0  0  0  0
    0.2836   -1.4814   -1.6307 C   0  0  0  0  0  0  0  0  0  0  0  0
   -0.8853   -0.4562   -1.5926 C   0  0  0  0  0  0  0  0  0  0  0  0
   -1.4127   -0.2335   -0.2385 N   0  0  0  0  0  0  0  0  0  0  0  0
   -2.3464    0.9034   -0.1542 C   0  0  0  0  0  0  0  0  0  0  0  0
   -2.5607    1.3626    1.3013 C   0  0  0  0  0  0  0  0  0  0  0  0
   -3.7935    2.2531    1.4416 C   0  0  0  0  0  0  0  0  0  0  0  0
   -4.0733    2.9259    0.2202 O   0  0  0  0  0  0  0  0  0  0  0  0
   -4.4941    2.0334   -0.8124 C   0  0  0  0  0  0  0  0  0  0  0  0
   -3.7066    0.7212   -0.8379 C   0  0  0  0  0  0  0  0  0  0  0  0
   -1.8707   -1.5003    0.3572 C   0  0  0  0  0  0  0  0  0  0  0  0
   -1.0517   -2.7448   -0.0884 C   0  0  0  0  0  0  0  0  0  0  0  0
    3.8931    1.3140   -0.3847 C   0  0  0  0  0  0  0  0  0  0  0  0
    3.7423    2.6791   -0.1272 C   0  0  0  0  0  0  0  0  0  0  0  0
    2.2387    2.4795    2.9249 H   0  0  0  0  0  0  0  0  0  0  0  0
    2.5191    0.0733    2.4779 H   0  0  0  0  0  0  0  0  0  0  0  0
    5.3437   -3.4423   -0.6025 H   0  0  0  0  0  0  0  0  0  0  0  0
    2.9570   -4.2643   -0.1835 H   0  0  0  0  0  0  0  0  0  0  0  0
    0.8713   -0.9529    0.8853 H   0  0  0  0  0  0  0  0  0  0  0  0
    0.9628   -2.6008    1.4898 H   0  0  0  0  0  0  0  0  0  0  0  0
    1.2325   -0.9381   -1.7136 H   0  0  0  0  0  0  0  0  0  0  0  0
    0.1970   -2.0450   -2.5687 H   0  0  0  0  0  0  0  0  0  0  0  0
   -1.6860   -0.8177   -2.2504 H   0  0  0  0  0  0  0  0  0  0  0  0
   -0.5177    0.4850   -2.0195 H   0  0  0  0  0  0  0  0  0  0  0  0
   -1.8493    1.7477   -0.6554 H   0  0  0  0  0  0  0  0  0  0  0  0
   -2.6681    0.5281    2.0023 H   0  0  0  0  0  0  0  0  0  0  0  0
   -1.6698    1.9164    1.6256 H   0  0  0  0  0  0  0  0  0  0  0  0
   -4.6710    1.6673    1.7413 H   0  0  0  0  0  0  0  0  0  0  0  0
   -3.6257    3.0038    2.2204 H   0  0  0  0  0  0  0  0  0  0  0  0
   -5.5662    1.8365   -0.7012 H   0  0  0  0  0  0  0  0  0  0  0  0
   -4.3619    2.5638   -1.7614 H   0  0  0  0  0  0  0  0  0  0  0  0
   -4.2939   -0.0412   -0.3113 H   0  0  0  0  0  0  0  0  0  0  0  0
   -3.6140    0.3781   -1.8735 H   0  0  0  0  0  0  0  0  0  0  0  0
   -2.9213   -1.7038    0.1249 H   0  0  0  0  0  0  0  0  0  0  0  0
   -1.7847   -1.4193    1.4466 H   0  0  0  0  0  0  0  0  0  0  0  0
   -1.0555   -3.4938    0.7134 H   0  0  0  0  0  0  0  0  0  0  0  0
   -1.5759   -3.2204   -0.9289 H   0  0  0  0  0  0  0  0  0  0  0  0
    4.3676    0.9898   -1.3089 H   0  0  0  0  0  0  0  0  0  0  0  0
    4.0982    3.4035   -0.8544 H   0  0  0  0  0  0  0  0  0  0  0  0
  1  2  1  0
  2  3  1  0
  3  4  2  0
  4  5  1  0
  5  6  1  0
  6  7  2  0
  7  8  1  0
  8  9  1  0
  9 10  2  0
 10 11  1  0
 11 12  1  0
 12 13  1  0
 13 14  1  0
 14 15  1  0
 15 16  1  0
 16 17  1  0
 17 18  1  0
 18 19  1  0
 19 20  1  0
 20 21  1  0
 15 22  1  0
 22 23  1  0
  5 24  2  0
 24 25  1  0
 25  2  2  0
 10  6  1  0
 23 12  1  0
 21 16  1  0
  3 26  1  0
  4 27  1  0
  8 28  1  0
  9 29  1  0
 11 30  1  0
 11 31  1  0
 13 32  1  0
 13 33  1  0
 14 34  1  0
 14 35  1  0
 16 36  1  0
 17 37  1  0
 17 38  1  0
 18 39  1  0
 18 40  1  0
 20 41  1  0
 20 42  1  0
 21 43  1  0
 21 44  1  0
 22 45  1  0
 22 46  1  0
 23 47  1  0
 23 48  1  0
 24 49  1  0
 25 50  1  0
M  END
$$$$
OCNT-2309787
     RDKit          3D

 35 37  0  0  0  0  0  0  0  0999 V2000
    6.3994   -0.7104   -1.4310 F   0  0  0  0  0  0  0  0  0  0  0  0
    5.1231   -0.3945   -1.1743 C   0  0  0  0  0  0  0  0  0  0  0  0
    4.1094   -1.2451   -1.5993 C   0  0  0  0  0  0  0  0  0  0  0  0
    2.7785   -0.9194   -1.3322 C   0  0  0  0  0  0  0  0  0  0  0  0
    2.4626    0.2627   -0.6437 C   0  0  0  0  0  0  0  0  0  0  0  0
    1.0249    0.6180   -0.3404 C   0  0  0  0  0  0  0  0  0  0  0  0
    0.7328    0.4114    1.0779 N   0  0  0  0  0  0  0  0  0  0  0  0
   -0.6807    0.7389    1.4234 C   0  0  0  0  0  0  0  0  0  0  0  0
   -1.7566   -0.2216    0.8726 C   0  0  0  0  0  0  0  0  0  0  0  0
   -1.8455   -1.4579    1.4089 N   0  0  0  0  0  0  0  0  0  0  0  0
   -2.7724   -2.2900    0.9057 C   0  0  0  0  0  0  0  0  0  0  0  0
   -3.6125   -1.9520   -0.1249 C   0  0  0  0  0  0  0  0  0  0  0  0
   -3.4576   -0.6815   -0.6474 C   0  0  0  0  0  0  0  0  0  0  0  0
   -4.3670   -0.2349   -1.7806 C   0  0  0  0  0  0  0  0  0  0  0  0
   -5.6101    0.1162   -1.3424 F   0  0  0  0  0  0  0  0  0  0  0  0
   -4.5719   -1.2214   -2.7036 F   0  0  0  0  0  0  0  0  0  0  0  0
   -3.8989    0.8334   -2.4844 F   0  0  0  0  0  0  0  0  0  0  0  0
   -2.5353    0.1860   -0.1530 N   0  0  0  0  0  0  0  0  0  0  0  0
   -0.9060    1.2942    2.8204 C   0  0  0  0  0  0  0  0  0  0  0  0
   -1.0333    2.1993    1.6348 C   0  0  0  0  0  0  0  0  0  0  0  0
    3.5036    1.1041   -0.2167 C   0  0  0  0  0  0  0  0  0  0  0  0
    4.8331    0.7760   -0.4844 C   0  0  0  0  0  0  0  0  0  0  0  0
    4.3619   -2.1556   -2.1328 H   0  0  0  0  0  0  0  0  0  0  0  0
    1.9903   -1.5918   -1.6632 H   0  0  0  0  0  0  0  0  0  0  0  0
    0.3611    0.0133   -0.9700 H   0  0  0  0  0  0  0  0  0  0  0  0
    0.8586    1.6656   -0.6203 H   0  0  0  0  0  0  0  0  0  0  0  0
    0.9016   -0.5698    1.3051 H   0  0  0  0  0  0  0  0  0  0  0  0
   -2.8194   -3.2696    1.3737 H   0  0  0  0  0  0  0  0  0  0  0  0
   -4.3506   -2.6484   -0.5039 H   0  0  0  0  0  0  0  0  0  0  0  0
   -0.0438    1.4189    3.4652 H   0  0  0  0  0  0  0  0  0  0  0  0
   -1.8108    1.0126    3.3465 H   0  0  0  0  0  0  0  0  0  0  0  0
   -0.2593    2.9416    1.4799 H   0  0  0  0  0  0  0  0  0  0  0  0
   -2.0250    2.5355    1.3543 H   0  0  0  0  0  0  0  0  0  0  0  0
    3.2750    2.0142    0.3346 H   0  0  0  0  0  0  0  0  0  0  0  0
    5.6406    1.4220   -0.1559 H   0  0  0  0  0  0  0  0  0  0  0  0
  1  2  1  0
  2  3  1  0
  3  4  2  0
  4  5  1  0
  5  6  1  0
  6  7  1  0
  7  8  1  0
  8  9  1  0
  9 10  2  0
 10 11  1  0
 11 12  2  0
 12 13  1  0
 13 14  1  0
 14 15  1  0
 14 16  1  0
 14 17  1  0
 13 18  2  0
  8 19  1  0
 19 20  1  0
  5 21  2  0
 21 22  1  0
 22  2  2  0
 20  8  1  0
 18  9  1  0
  3 23  1  0
  4 24  1  0
  6 25  1  0
  6 26  1  0
  7 27  1  0
 11 28  1  0
 12 29  1  0
 19 30  1  0
 19 31  1  0
 20 32  1  0
 20 33  1  0
 21 34  1  0
 22 35  1  0
M  END
$$$$
OCNT-2309801
     RDKit          3D

 37 39  0  0  0  0  0  0  0  0999 V2000
    3.7684    0.3994   -3.5202 C   0  0  0  0  0  0  0  0  0  0  0  0
    3.1940    0.4475   -2.1138 C   0  0  0  0  0  0  0  0  0  0  0  0
    3.2169    1.8120   -1.6222 N   0  0  0  0  0  0  0  0  0  0  0  0
    2.6309    2.0864   -0.4351 C   0  0  0  0  0  0  0  0  0  0  0  0
    1.7548    1.3194    0.1693 N   0  0  0  0  0  0  0  0  0  0  0  0
    1.3246    1.8951    1.3659 C   0  0  0  0  0  0  0  0  0  0  0  0
    0.3531    1.2696    2.2848 C   0  0  0  0  0  0  0  0  0  0  0  0
    0.2988    1.6481    3.4568 O   0  0  0  0  0  0  0  0  0  0  0  0
   -0.4974    0.2627    1.8125 N   0  0  0  0  0  0  0  0  0  0  0  0
   -1.2140   -0.5553    2.7848 C   0  0  0  0  0  0  0  0  0  0  0  0
   -2.6740   -0.7435    2.3853 C   0  0  0  0  0  0  0  0  0  0  0  0
   -2.7822   -1.2690    0.9780 C   0  0  0  0  0  0  0  0  0  0  0  0
   -3.9169   -1.9889    0.5786 C   0  0  0  0  0  0  0  0  0  0  0  0
   -4.0276   -2.4465   -0.7331 C   0  0  0  0  0  0  0  0  0  0  0  0
   -5.4247   -3.3284   -1.2153 Cl  0  0  0  0  0  0  0  0  0  0  0  0
   -3.0203   -2.1879   -1.6585 C   0  0  0  0  0  0  0  0  0  0  0  0
   -1.8926   -1.4627   -1.2698 C   0  0  0  0  0  0  0  0  0  0  0  0
   -1.7640   -0.9924    0.0474 C   0  0  0  0  0  0  0  0  0  0  0  0
   -0.5337   -0.1902    0.4229 C   0  0  0  0  0  0  0  0  0  0  0  0
    1.9413    3.1021    1.6521 C   0  0  0  0  0  0  0  0  0  0  0  0
    3.0217    3.5372    0.4019 S   0  0  0  0  0  0  0  0  0  0  0  0
    3.7309   -0.6215   -3.9130 H   0  0  0  0  0  0  0  0  0  0  0  0
    3.2053    1.0504   -4.1969 H   0  0  0  0  0  0  0  0  0  0  0  0
    4.8121    0.7305   -3.5293 H   0  0  0  0  0  0  0  0  0  0  0  0
    3.7863   -0.1998   -1.4567 H   0  0  0  0  0  0  0  0  0  0  0  0
    2.1674    0.0612   -2.1381 H   0  0  0  0  0  0  0  0  0  0  0  0
    4.0536    2.3441   -1.8382 H   0  0  0  0  0  0  0  0  0  0  0  0
   -1.1671   -0.1201    3.7883 H   0  0  0  0  0  0  0  0  0  0  0  0
   -0.6972   -1.5228    2.8316 H   0  0  0  0  0  0  0  0  0  0  0  0
   -3.1499   -1.4373    3.0883 H   0  0  0  0  0  0  0  0  0  0  0  0
   -3.2057    0.2141    2.4382 H   0  0  0  0  0  0  0  0  0  0  0  0
   -4.7145   -2.1902    1.2903 H   0  0  0  0  0  0  0  0  0  0  0  0
   -3.1109   -2.5376   -2.6840 H   0  0  0  0  0  0  0  0  0  0  0  0
   -1.1145   -1.2567   -2.0024 H   0  0  0  0  0  0  0  0  0  0  0  0
    0.3516   -0.8155    0.2617 H   0  0  0  0  0  0  0  0  0  0  0  0
   -0.5017    0.6858   -0.2328 H   0  0  0  0  0  0  0  0  0  0  0  0
    1.7977    3.7305    2.5205 H   0  0  0  0  0  0  0  0  0  0  0  0
  1  2  1  0
  2  3  1  0
  3  4  1  0
  4  5  2  0
  5  6  1  0
  6  7  1  0
  7  8  2  0
  7  9  1  0
  9 10  1  0
 10 11  1  0
 11 12  1  0
 12 13  1  0
 13 14  2  0
 14 15  1  0
 14 16  1  0
 16 17  2  0
 17 18  1  0
 18 19  1  0
  6 20  2  0
 20 21  1  0
 21  4  1  0
 19  9  1  0
 18 12  2  0
  1 22  1  0
  1 23  1  0
  1 24  1  0
  2 25  1  0
  2 26  1  0
  3 27  1  0
 10 28  1  0
 10 29  1  0
 11 30  1  0
 11 31  1  0
 13 32  1  0
 16 33  1  0
 17 34  1  0
 19 35  1  0
 19 36  1  0
 20 37  1  0
M  END
$$$$
OCNT-2309804
     RDKit          3D

 44 46  0  0  0  0  0  0  0  0999 V2000
   -6.0201    2.7051   -0.6202 C   0  0  0  0  0  0  0  0  0  0  0  0
   -5.6691    1.3390   -0.4454 O   0  0  0  0  0  0  0  0  0  0  0  0
   -5.2310    1.0737    0.8869 C   0  0  0  0  0  0  0  0  0  0  0  0
   -4.8547   -0.4030    1.0180 C   0  0  0  0  0  0  0  0  0  0  0  0
   -3.6353   -0.8082    0.1895 C   0  0  0  0  0  0  0  0  0  0  0  0
   -2.3679   -0.0498    0.5511 C   0  0  0  0  0  0  0  0  0  0  0  0
   -1.1596   -0.6631    0.0440 N   0  0  0  0  0  0  0  0  0  0  0  0
    0.0646   -0.1692    0.4539 C   0  0  0  0  0  0  0  0  0  0  0  0
    0.1723    0.7272    1.2795 O   0  0  0  0  0  0  0  0  0  0  0  0
    1.0880   -0.8381   -0.1819 N   0  0  0  0  0  0  0  0  0  0  0  0
    2.4694   -0.5815   -0.0935 C   0  0  0  0  0  0  0  0  0  0  0  0
    3.3328   -1.4927   -0.7114 C   0  0  0  0  0  0  0  0  0  0  0  0
    4.7188   -1.3035   -0.6748 C   0  0  0  0  0  0  0  0  0  0  0  0
    5.2615   -0.1912   -0.0179 C   0  0  0  0  0  0  0  0  0  0  0  0
    6.6682   -0.0120    0.0130 N   0  0  0  0  0  0  0  0  0  0  0  0
    7.4009    0.9958    0.5987 C   0  0  0  0  0  0  0  0  0  0  0  0
    8.7092    0.6815    0.3264 C   0  0  0  0  0  0  0  0  0  0  0  0
    8.7597   -0.4703   -0.3953 N   0  0  0  0  0  0  0  0  0  0  0  0
    7.5155   -0.8888   -0.5834 N   0  0  0  0  0  0  0  0  0  0  0  0
    4.4012    0.7259    0.5962 C   0  0  0  0  0  0  0  0  0  0  0  0
    3.0139    0.5288    0.5537 C   0  0  0  0  0  0  0  0  0  0  0  0
   -3.5652   -2.2696   -0.2310 C   0  0  0  0  0  0  0  0  0  0  0  0
   -3.8761   -1.2151   -1.2545 C   0  0  0  0  0  0  0  0  0  0  0  0
   -5.1537    3.3489   -0.4403 H   0  0  0  0  0  0  0  0  0  0  0  0
   -6.3513    2.8461   -1.6525 H   0  0  0  0  0  0  0  0  0  0  0  0
   -6.8399    2.9792    0.0507 H   0  0  0  0  0  0  0  0  0  0  0  0
   -4.3854    1.7231    1.1369 H   0  0  0  0  0  0  0  0  0  0  0  0
   -6.0517    1.2943    1.5794 H   0  0  0  0  0  0  0  0  0  0  0  0
   -5.7188   -1.0125    0.7239 H   0  0  0  0  0  0  0  0  0  0  0  0
   -4.6471   -0.6286    2.0709 H   0  0  0  0  0  0  0  0  0  0  0  0
   -2.2781    0.0265    1.6412 H   0  0  0  0  0  0  0  0  0  0  0  0
   -2.4112    0.9670    0.1441 H   0  0  0  0  0  0  0  0  0  0  0  0
   -1.1884   -0.9346   -0.9257 H   0  0  0  0  0  0  0  0  0  0  0  0
    0.8135   -1.6915   -0.6448 H   0  0  0  0  0  0  0  0  0  0  0  0
    2.9439   -2.3662   -1.2288 H   0  0  0  0  0  0  0  0  0  0  0  0
    5.3577   -2.0368   -1.1647 H   0  0  0  0  0  0  0  0  0  0  0  0
    6.9573    1.8167    1.1377 H   0  0  0  0  0  0  0  0  0  0  0  0
    9.6054    1.2155    0.6078 H   0  0  0  0  0  0  0  0  0  0  0  0
    4.7661    1.6064    1.1166 H   0  0  0  0  0  0  0  0  0  0  0  0
    2.3813    1.2684    1.0364 H   0  0  0  0  0  0  0  0  0  0  0  0
   -2.6058   -2.7702   -0.2775 H   0  0  0  0  0  0  0  0  0  0  0  0
   -4.3697   -2.9349    0.0668 H   0  0  0  0  0  0  0  0  0  0  0  0
   -4.8903   -1.1599   -1.6392 H   0  0  0  0  0  0  0  0  0  0  0  0
   -3.1309   -0.9778   -2.0034 H   0  0  0  0  0  0  0  0  0  0  0  0
  1  2  1  0
  2  3  1  0
  3  4  1  0
  4  5  1  0
  5  6  1  0
  6  7  1  0
  7  8  1  0
  8  9  2  0
  8 10  1  0
 10 11  1  0
 11 12  1  0
 12 13  2  0
 13 14  1  0
 14 15  1  0
 15 16  1  0
 16 17  2  0
 17 18  1  0
 18 19  2  0
 14 20  2  0
 20 21  1  0
  5 22  1  0
 22 23  1  0
 23  5  1  0
 21 11  2  0
 19 15  1  0
  1 24  1  0
  1 25  1  0
  1 26  1  0
  3 27  1  0
  3 28  1  0
  4 29  1  0
  4 30  1  0
  6 31  1  0
  6 32  1  0
  7 33  1  0
 10 34  1  0
 12 35  1  0
 13 36  1  0
 16 37  1  0
 17 38  1  0
 20 39  1  0
 21 40  1  0
 22 41  1  0
 22 42  1  0
 23 43  1  0
 23 44  1  0
M  END
$$$$
OCNT-2309817
     RDKit          3D

 42 45  0  0  0  0  0  0  0  0999 V2000
    5.9875   -0.4874    1.3381 C   0  0  0  0  0  0  0  0  0  0  0  0
    4.6483   -0.1813    0.7680 C   0  0  0  0  0  0  0  0  0  0  0  0
    4.3726    0.9842    0.0956 C   0  0  0  0  0  0  0  0  0  0  0  0
    3.1781    1.2662   -0.4607 N   0  0  0  0  0  0  0  0  0  0  0  0
    2.2016    0.3477   -0.3636 C   0  0  0  0  0  0  0  0  0  0  0  0
    0.9652    0.6047   -0.9493 N   0  0  0  0  0  0  0  0  0  0  0  0
    0.7375    1.9737   -1.3990 C   0  0  0  0  0  0  0  0  0  0  0  0
   -0.4012    2.0084   -2.4149 C   0  0  0  0  0  0  0  0  0  0  0  0
   -1.6672    1.3704   -1.8612 C   0  0  0  0  0  0  0  0  0  0  0  0
   -1.4010   -0.0718   -1.4055 C   0  0  0  0  0  0  0  0  0  0  0  0
   -2.6105   -0.6451   -0.7431 C   0  0  0  0  0  0  0  0  0  0  0  0
   -2.7221   -0.8475    0.6143 C   0  0  0  0  0  0  0  0  0  0  0  0
   -1.6751   -0.5830    1.6293 C   0  0  0  0  0  0  0  0  0  0  0  0
   -0.5718    0.3027    1.0162 C   0  0  0  0  0  0  0  0  0  0  0  0
   -0.1838   -0.1577   -0.4219 C   0  0  0  0  0  0  0  0  0  0  0  0
   -3.9709   -1.3672    0.7957 N   0  0  0  0  0  0  0  0  0  0  0  0
   -4.5681   -1.7683    2.0429 C   0  0  0  0  0  0  0  0  0  0  0  0
   -4.5575   -1.4470   -0.4385 C   0  0  0  0  0  0  0  0  0  0  0  0
   -3.7570   -1.0142   -1.3903 N   0  0  0  0  0  0  0  0  0  0  0  0
    2.3897   -0.8246    0.2679 N   0  0  0  0  0  0  0  0  0  0  0  0
    3.5998   -1.0673    0.8087 C   0  0  0  0  0  0  0  0  0  0  0  0
    6.4912    0.4277    1.6669 H   0  0  0  0  0  0  0  0  0  0  0  0
    6.6128   -0.9830    0.5890 H   0  0  0  0  0  0  0  0  0  0  0  0
    5.9004   -1.1417    2.2119 H   0  0  0  0  0  0  0  0  0  0  0  0
    5.1234    1.7593   -0.0290 H   0  0  0  0  0  0  0  0  0  0  0  0
    1.6186    2.3918   -1.9014 H   0  0  0  0  0  0  0  0  0  0  0  0
    0.5053    2.6223   -0.5454 H   0  0  0  0  0  0  0  0  0  0  0  0
   -0.6055    3.0457   -2.7035 H   0  0  0  0  0  0  0  0  0  0  0  0
   -0.0968    1.4762   -3.3251 H   0  0  0  0  0  0  0  0  0  0  0  0
   -2.0490    1.9772   -1.0301 H   0  0  0  0  0  0  0  0  0  0  0  0
   -2.4478    1.3811   -2.6323 H   0  0  0  0  0  0  0  0  0  0  0  0
   -1.1646   -0.6747   -2.2928 H   0  0  0  0  0  0  0  0  0  0  0  0
   -2.0949   -0.0896    2.5123 H   0  0  0  0  0  0  0  0  0  0  0  0
   -1.2395   -1.5354    1.9537 H   0  0  0  0  0  0  0  0  0  0  0  0
    0.2961    0.2899    1.6854 H   0  0  0  0  0  0  0  0  0  0  0  0
   -0.9184    1.3437    0.9905 H   0  0  0  0  0  0  0  0  0  0  0  0
    0.0819   -1.2243   -0.3706 H   0  0  0  0  0  0  0  0  0  0  0  0
   -3.9086   -2.4919    2.5286 H   0  0  0  0  0  0  0  0  0  0  0  0
   -5.5420   -2.2265    1.8530 H   0  0  0  0  0  0  0  0  0  0  0  0
   -4.6905   -0.8805    2.6683 H   0  0  0  0  0  0  0  0  0  0  0  0
   -5.5601   -1.8253   -0.5893 H   0  0  0  0  0  0  0  0  0  0  0  0
    3.6938   -2.0369    1.2894 H   0  0  0  0  0  0  0  0  0  0  0  0
  1  2  1  0
  2  3  2  0
  3  4  1  0
  4  5  2  0
  5  6  1  0
  6  7  1  0
  7  8  1  0
  8  9  1  0
  9 10  1  0
 10 11  1  0
 11 12  2  0
 12 13  1  0
 13 14  1  0
 14 15  1  0
 12 16  1  0
 16 17  1  0
 16 18  1  0
 18 19  2  0
  5 20  1  0
 20 21  2  0
 21  2  1  0
 15  6  1  0
 15 10  1  0
 19 11  1  0
  1 22  1  0
  1 23  1  0
  1 24  1  0
  3 25  1  0
  7 26  1  0
  7 27  1  0
  8 28  1  0
  8 29  1  0
  9 30  1  0
  9 31  1  0
 10 32  1  0
 13 33  1  0
 13 34  1  0
 14 35  1  0
 14 36  1  0
 15 37  1  0
 17 38  1  0
 17 39  1  0
 17 40  1  0
 18 41  1  0
 21 42  1  0
M  END
$$$$
OCNT-2309819
     RDKit          3D

 41 43  0  0  0  0  0  0  0  0999 V2000
   -0.3337   -0.7018   -2.7317 C   0  0  0  0  0  0  0  0  0  0  0  0
   -0.4713   -0.4432   -1.2261 C   0  0  0  0  0  0  0  0  0  0  0  0
   -1.7865    0.3033   -0.8916 C   0  0  0  0  0  0  0  0  0  0  0  0
   -3.0482   -0.4687   -1.3237 C   0  0  0  0  0  0  0  0  0  0  0  0
   -3.9590   -0.0699   -0.2277 C   0  0  0  0  0  0  0  0  0  0  0  0
   -5.3288   -0.2250   -0.1148 C   0  0  0  0  0  0  0  0  0  0  0  0
   -5.9412    0.1832    1.0735 C   0  0  0  0  0  0  0  0  0  0  0  0
   -5.1791    0.7209    2.1247 C   0  0  0  0  0  0  0  0  0  0  0  0
   -3.7954    0.8600    1.9979 C   0  0  0  0  0  0  0  0  0  0  0  0
   -3.2147    0.4645    0.8113 C   0  0  0  0  0  0  0  0  0  0  0  0
   -1.8727    0.5339    0.5466 O   0  0  0  0  0  0  0  0  0  0  0  0
    0.7483    0.2318   -0.7128 N   0  0  0  0  0  0  0  0  0  0  0  0
    0.8502    1.6812   -0.8593 C   0  0  0  0  0  0  0  0  0  0  0  0
    1.8074   -0.5820   -0.2968 C   0  0  0  0  0  0  0  0  0  0  0  0
    1.8224   -1.7880   -0.5293 O   0  0  0  0  0  0  0  0  0  0  0  0
    2.7844    0.0893    0.4062 N   0  0  0  0  0  0  0  0  0  0  0  0
    4.0335   -0.4149    0.8258 C   0  0  0  0  0  0  0  0  0  0  0  0
    4.5810   -1.6066    0.3616 C   0  0  0  0  0  0  0  0  0  0  0  0
    5.8258   -1.9898    0.8356 C   0  0  0  0  0  0  0  0  0  0  0  0
    6.5512   -1.2717    1.7192 N   0  0  0  0  0  0  0  0  0  0  0  0
    6.0032   -0.1176    2.1486 C   0  0  0  0  0  0  0  0  0  0  0  0
    4.7657    0.3495    1.7347 C   0  0  0  0  0  0  0  0  0  0  0  0
   -0.3319    0.2362   -3.2969 H   0  0  0  0  0  0  0  0  0  0  0  0
    0.6023   -1.2233   -2.9588 H   0  0  0  0  0  0  0  0  0  0  0  0
   -1.1538   -1.3211   -3.1076 H   0  0  0  0  0  0  0  0  0  0  0  0
   -0.5216   -1.4187   -0.7242 H   0  0  0  0  0  0  0  0  0  0  0  0
   -1.7909    1.2948   -1.3663 H   0  0  0  0  0  0  0  0  0  0  0  0
   -2.9000   -1.5535   -1.3039 H   0  0  0  0  0  0  0  0  0  0  0  0
   -3.3954   -0.1550   -2.3120 H   0  0  0  0  0  0  0  0  0  0  0  0
   -5.9152   -0.6595   -0.9177 H   0  0  0  0  0  0  0  0  0  0  0  0
   -7.0169    0.0741    1.1919 H   0  0  0  0  0  0  0  0  0  0  0  0
   -5.6702    1.0248    3.0458 H   0  0  0  0  0  0  0  0  0  0  0  0
   -3.1949    1.2655    2.8038 H   0  0  0  0  0  0  0  0  0  0  0  0
    0.4397    1.9823   -1.8272 H   0  0  0  0  0  0  0  0  0  0  0  0
    0.2855    2.1577   -0.0538 H   0  0  0  0  0  0  0  0  0  0  0  0
    1.8870    2.0246   -0.8246 H   0  0  0  0  0  0  0  0  0  0  0  0
    2.4728    0.9376    0.8528 H   0  0  0  0  0  0  0  0  0  0  0  0
    4.0769   -2.2407   -0.3572 H   0  0  0  0  0  0  0  0  0  0  0  0
    6.2861   -2.9152    0.5010 H   0  0  0  0  0  0  0  0  0  0  0  0
    6.6044    0.4433    2.8583 H   0  0  0  0  0  0  0  0  0  0  0  0
    4.3933    1.2893    2.1248 H   0  0  0  0  0  0  0  0  0  0  0  0
  1  2  1  0
  2  3  1  0
  3  4  1  0
  4  5  1  0
  5  6  2  0
  6  7  1  0
  7  8  2  0
  8  9  1  0
  9 10  2  0
 10 11  1  0
  2 12  1  0
 12 13  1  0
 12 14  1  0
 14 15  2  0
 14 16  1  0
 16 17  1  0
 17 18  2  0
 18 19  1  0
 19 20  2  0
 20 21  1  0
 21 22  2  0
 11  3  1  0
 22 17  1  0
 10  5  1  0
  1 23  1  0
  1 24  1  0
  1 25  1  0
  2 26  1  0
  3 27  1  0
  4 28  1  0
  4 29  1  0
  6 30  1  0
  7 31  1  0
  8 32  1  0
  9 33  1  0
 13 34  1  0
 13 35  1  0
 13 36  1  0
 16 37  1  0
 18 38  1  0
 19 39  1  0
 21 40  1  0
 22 41  1  0
M  END
$$$$
OCNT-2309836
     RDKit          3D

 58 61  0  0  0  0  0  0  0  0999 V2000
   -2.5611   -3.0224   -0.9656 O   0  0  0  0  0  0  0  0  0  0  0  0
   -3.0823   -1.9688   -0.6216 C   0  0  0  0  0  0  0  0  0  0  0  0
   -2.4442   -0.7814   -0.3114 N   0  0  0  0  0  0  0  0  0  0  0  0
   -1.0645   -0.5033   -0.4030 C   0  0  0  0  0  0  0  0  0  0  0  0
   -0.6347    0.7554    0.0319 C   0  0  0  0  0  0  0  0  0  0  0  0
    0.7165    1.1078   -0.0403 C   0  0  0  0  0  0  0  0  0  0  0  0
    1.6592    0.2129   -0.5456 C   0  0  0  0  0  0  0  0  0  0  0  0
    2.9401    0.6869   -0.5674 O   0  0  0  0  0  0  0  0  0  0  0  0
    3.9555   -0.1926   -1.0560 C   0  0  0  0  0  0  0  0  0  0  0  0
    5.3155    0.5333   -1.0490 C   0  0  0  0  0  0  0  0  0  0  0  0
    5.7878    1.0398    0.2545 N   0  0  0  0  0  0  0  0  0  0  0  0
    7.0403    1.8044    0.1107 C   0  0  0  0  0  0  0  0  0  0  0  0
    8.2548    1.2048    0.8306 C   0  0  0  0  0  0  0  0  0  0  0  0
    8.3108   -0.3062    0.6545 C   0  0  0  0  0  0  0  0  0  0  0  0
    7.0085   -0.9722    1.1030 C   0  0  0  0  0  0  0  0  0  0  0  0
    5.8721    0.0318    1.3101 C   0  0  0  0  0  0  0  0  0  0  0  0
    1.2364   -1.0419   -0.9795 C   0  0  0  0  0  0  0  0  0  0  0  0
   -0.1192   -1.3961   -0.9097 C   0  0  0  0  0  0  0  0  0  0  0  0
   -4.5642   -1.9343   -0.4799 C   0  0  0  0  0  0  0  0  0  0  0  0
   -5.2175   -3.0694    0.0107 C   0  0  0  0  0  0  0  0  0  0  0  0
   -6.6047   -3.0685    0.1550 C   0  0  0  0  0  0  0  0  0  0  0  0
   -7.3453   -1.9384   -0.1991 C   0  0  0  0  0  0  0  0  0  0  0  0
   -6.7083   -0.7967   -0.7100 C   0  0  0  0  0  0  0  0  0  0  0  0
   -7.5130    0.4178   -1.1025 C   0  0  0  0  0  0  0  0  0  0  0  0
   -7.2130    1.5520   -0.2470 N   0  0  0  0  0  0  0  0  0  0  0  0
   -6.4748    2.6538   -0.5824 C   0  0  0  0  0  0  0  0  0  0  0  0
   -6.4860    3.4424    0.5464 C   0  0  0  0  0  0  0  0  0  0  0  0
   -7.2149    2.8515    1.5469 N   0  0  0  0  0  0  0  0  0  0  0  0
   -7.6445    1.7174    1.0415 C   0  0  0  0  0  0  0  0  0  0  0  0
   -5.3098   -0.8072   -0.8562 C   0  0  0  0  0  0  0  0  0  0  0  0
   -3.0128   -0.0429    0.0862 H   0  0  0  0  0  0  0  0  0  0  0  0
   -1.3368    1.4816    0.4327 H   0  0  0  0  0  0  0  0  0  0  0  0
    1.0381    2.0887    0.3024 H   0  0  0  0  0  0  0  0  0  0  0  0
    4.0021   -1.1078   -0.4539 H   0  0  0  0  0  0  0  0  0  0  0  0
    3.7313   -0.4649   -2.0964 H   0  0  0  0  0  0  0  0  0  0  0  0
    6.0653   -0.1297   -1.4990 H   0  0  0  0  0  0  0  0  0  0  0  0
    5.2083    1.4007   -1.7154 H   0  0  0  0  0  0  0  0  0  0  0  0
    7.3010    1.9504   -0.9464 H   0  0  0  0  0  0  0  0  0  0  0  0
    6.8691    2.8116    0.5112 H   0  0  0  0  0  0  0  0  0  0  0  0
    8.2098    1.4466    1.8997 H   0  0  0  0  0  0  0  0  0  0  0  0
    9.1739    1.6610    0.4455 H   0  0  0  0  0  0  0  0  0  0  0  0
    8.4902   -0.5407   -0.4016 H   0  0  0  0  0  0  0  0  0  0  0  0
    9.1568   -0.7213    1.2124 H   0  0  0  0  0  0  0  0  0  0  0  0
    7.1793   -1.5065    2.0456 H   0  0  0  0  0  0  0  0  0  0  0  0
    6.7184   -1.7320    0.3673 H   0  0  0  0  0  0  0  0  0  0  0  0
    6.0216    0.5510    2.2658 H   0  0  0  0  0  0  0  0  0  0  0  0
    4.9230   -0.4981    1.4411 H   0  0  0  0  0  0  0  0  0  0  0  0
    1.9287   -1.7749   -1.3785 H   0  0  0  0  0  0  0  0  0  0  0  0
   -0.4014   -2.3826   -1.2662 H   0  0  0  0  0  0  0  0  0  0  0  0
   -4.6452   -3.9555    0.2823 H   0  0  0  0  0  0  0  0  0  0  0  0
   -7.1083   -3.9520    0.5430 H   0  0  0  0  0  0  0  0  0  0  0  0
   -8.4273   -1.9638   -0.0759 H   0  0  0  0  0  0  0  0  0  0  0  0
   -8.5897    0.2327   -1.0277 H   0  0  0  0  0  0  0  0  0  0  0  0
   -7.2972    0.6970   -2.1396 H   0  0  0  0  0  0  0  0  0  0  0  0
   -6.0174    2.7868   -1.5528 H   0  0  0  0  0  0  0  0  0  0  0  0
   -6.0109    4.4039    0.6916 H   0  0  0  0  0  0  0  0  0  0  0  0
   -8.2573    0.9890    1.5615 H   0  0  0  0  0  0  0  0  0  0  0  0
   -4.8082    0.0596   -1.2836 H   0  0  0  0  0  0  0  0  0  0  0  0
  1  2  2  0
  2  3  1  0
  3  4  1  0
  4  5  1  0
  5  6  2  0
  6  7  1  0
  7  8  1  0
  8  9  1  0
  9 10  1  0
 10 11  1  0
 11 12  1  0
 12 13  1  0
 13 14  1  0
 14 15  1  0
 15 16  1  0
  7 17  2  0
 17 18  1  0
  2 19  1  0
 19 20  1  0
 20 21  2  0
 21 22  1  0
 22 23  2  0
 23 24  1  0
 24 25  1  0
 25 26  1  0
 26 27  2  0
 27 28  1  0
 28 29  2  0
 23 30  1  0
 18  4  2  0
 30 19  2  0
 16 11  1  0
 29 25  1  0
  3 31  1  0
  5 32  1  0
  6 33  1  0
  9 34  1  0
  9 35  1  0
 10 36  1  0
 10 37  1  0
 12 38  1  0
 12 39  1  0
 13 40  1  0
 13 41  1  0
 14 42  1  0
 14 43  1  0
 15 44  1  0
 15 45  1  0
 16 46  1  0
 16 47  1  0
 17 48  1  0
 18 49  1  0
 20 50  1  0
 21 51  1  0
 22 52  1  0
 24 53  1  0
 24 54  1  0
 26 55  1  0
 27 56  1  0
 29 57  1  0
 30 58  1  0
M  END
$$$$
OCNT-2309844
     RDKit          3D

 48 50  0  0  0  0  0  0  0  0999 V2000
    7.0631   -1.4795   -0.1308 C   0  0  0  0  0  0  0  0  0  0  0  0
    5.7050   -1.4838    0.2896 O   0  0  0  0  0  0  0  0  0  0  0  0
    4.8993   -0.4603   -0.1444 C   0  0  0  0  0  0  0  0  0  0  0  0
    5.3611    0.6397   -0.8719 C   0  0  0  0  0  0  0  0  0  0  0  0
    4.4771    1.6386   -1.2684 C   0  0  0  0  0  0  0  0  0  0  0  0
    3.1219    1.5435   -0.9541 C   0  0  0  0  0  0  0  0  0  0  0  0
    2.6255    0.4477   -0.2401 C   0  0  0  0  0  0  0  0  0  0  0  0
    1.2498    0.3222    0.0837 N   0  0  0  0  0  0  0  0  0  0  0  0
    0.1945    1.0949   -0.3521 C   0  0  0  0  0  0  0  0  0  0  0  0
    0.2717    1.9842   -1.1934 O   0  0  0  0  0  0  0  0  0  0  0  0
   -1.0324    0.7789    0.2500 N   0  0  0  0  0  0  0  0  0  0  0  0
   -1.1515   -0.0171    1.4735 C   0  0  0  0  0  0  0  0  0  0  0  0
   -2.5433    0.0310    2.0996 C   0  0  0  0  0  0  0  0  0  0  0  0
   -3.6166   -0.2401    1.0395 C   0  0  0  0  0  0  0  0  0  0  0  0
   -5.0103   -0.2380    1.6737 C   0  0  0  0  0  0  0  0  0  0  0  0
   -3.5263    0.7854   -0.1221 C   0  0  0  0  0  0  0  0  0  0  0  0
   -3.8097    0.1472   -1.4090 N   0  0  0  0  0  0  0  0  0  0  0  0
   -4.9623    0.2869   -2.1343 C   0  0  0  0  0  0  0  0  0  0  0  0
   -4.7822   -0.5034   -3.2460 C   0  0  0  0  0  0  0  0  0  0  0  0
   -3.5598   -1.1229   -3.2088 N   0  0  0  0  0  0  0  0  0  0  0  0
   -2.9922   -0.7060   -2.0998 C   0  0  0  0  0  0  0  0  0  0  0  0
   -2.1997    1.5732   -0.1463 C   0  0  0  0  0  0  0  0  0  0  0  0
    3.5280   -0.5588    0.1926 C   0  0  0  0  0  0  0  0  0  0  0  0
    3.0371   -1.7387    0.9999 C   0  0  0  0  0  0  0  0  0  0  0  0
    7.1402   -1.5061   -1.2236 H   0  0  0  0  0  0  0  0  0  0  0  0
    7.5349   -2.3885    0.2575 H   0  0  0  0  0  0  0  0  0  0  0  0
    7.6026   -0.6211    0.2859 H   0  0  0  0  0  0  0  0  0  0  0  0
    6.4055    0.7554   -1.1407 H   0  0  0  0  0  0  0  0  0  0  0  0
    4.8392    2.4971   -1.8276 H   0  0  0  0  0  0  0  0  0  0  0  0
    2.4768    2.3516   -1.2817 H   0  0  0  0  0  0  0  0  0  0  0  0
    0.9926   -0.5250    0.5539 H   0  0  0  0  0  0  0  0  0  0  0  0
   -0.9059   -1.0538    1.2125 H   0  0  0  0  0  0  0  0  0  0  0  0
   -0.4076    0.3350    2.1977 H   0  0  0  0  0  0  0  0  0  0  0  0
   -2.6032   -0.7103    2.9071 H   0  0  0  0  0  0  0  0  0  0  0  0
   -2.7104    1.0144    2.5612 H   0  0  0  0  0  0  0  0  0  0  0  0
   -3.4464   -1.2558    0.6523 H   0  0  0  0  0  0  0  0  0  0  0  0
   -5.7816   -0.4549    0.9283 H   0  0  0  0  0  0  0  0  0  0  0  0
   -5.2386    0.7324    2.1276 H   0  0  0  0  0  0  0  0  0  0  0  0
   -5.0798   -0.9996    2.4566 H   0  0  0  0  0  0  0  0  0  0  0  0
   -4.3184    1.5395   -0.0041 H   0  0  0  0  0  0  0  0  0  0  0  0
   -5.7862    0.9134   -1.8188 H   0  0  0  0  0  0  0  0  0  0  0  0
   -5.4674   -0.6625   -4.0691 H   0  0  0  0  0  0  0  0  0  0  0  0
   -2.0051   -0.9899   -1.7581 H   0  0  0  0  0  0  0  0  0  0  0  0
   -2.0486    2.0319   -1.1332 H   0  0  0  0  0  0  0  0  0  0  0  0
   -2.2556    2.4040    0.5736 H   0  0  0  0  0  0  0  0  0  0  0  0
    2.5088   -1.3879    1.8935 H   0  0  0  0  0  0  0  0  0  0  0  0
    2.3638   -2.3555    0.3937 H   0  0  0  0  0  0  0  0  0  0  0  0
    3.8426   -2.3884    1.3558 H   0  0  0  0  0  0  0  0  0  0  0  0
  1  2  1  0
  2  3  1  0
  3  4  1  0
  4  5  2  0
  5  6  1  0
  6  7  2  0
  7  8  1  0
  8  9  1  0
  9 10  2  0
  9 11  1  0
 11 12  1  0
 12 13  1  0
 13 14  1  0
 14 15  1  0
 14 16  1  0
 16 17  1  0
 17 18  1  0
 18 19  2  0
 19 20  1  0
 20 21  2  0
 16 22  1  0
  7 23  1  0
 23 24  1  0
 23  3  2  0
 22 11  1  0
 21 17  1  0
  1 25  1  0
  1 26  1  0
  1 27  1  0
  4 28  1  0
  5 29  1  0
  6 30  1  0
  8 31  1  0
 12 32  1  0
 12 33  1  0
 13 34  1  0
 13 35  1  0
 14 36  1  0
 15 37  1  0
 15 38  1  0
 15 39  1  0
 16 40  1  0
 18 41  1  0
 19 42  1  0
 21 43  1  0
 22 44  1  0
 22 45  1  0
 24 46  1  0
 24 47  1  0
 24 48  1  0
M  END
$$$$
OCNT-2309846
     RDKit          3D

 49 51  0  0  0  0  0  0  0  0999 V2000
   -7.1194    1.3611    0.3633 C   0  0  0  0  0  0  0  0  0  0  0  0
   -5.8907    0.5346    0.1184 C   0  0  0  0  0  0  0  0  0  0  0  0
   -5.8758   -0.8245    0.4610 C   0  0  0  0  0  0  0  0  0  0  0  0
   -4.7525   -1.6212    0.2027 C   0  0  0  0  0  0  0  0  0  0  0  0
   -4.7638   -3.0832    0.5398 C   0  0  0  0  0  0  0  0  0  0  0  0
   -3.6428   -1.0494   -0.4313 C   0  0  0  0  0  0  0  0  0  0  0  0
   -3.6424    0.3076   -0.7769 C   0  0  0  0  0  0  0  0  0  0  0  0
   -2.4363    0.8672   -1.4455 C   0  0  0  0  0  0  0  0  0  0  0  0
   -1.6578    0.1424   -2.0592 O   0  0  0  0  0  0  0  0  0  0  0  0
   -2.2032    2.2150   -1.2769 N   0  0  0  0  0  0  0  0  0  0  0  0
   -1.0249    2.8498   -1.8450 C   0  0  0  0  0  0  0  0  0  0  0  0
    0.2119    2.6353   -0.9646 C   0  0  0  0  0  0  0  0  0  0  0  0
    0.6959    3.5647   -0.3244 O   0  0  0  0  0  0  0  0  0  0  0  0
    0.6579    1.3254   -0.9943 N   0  0  0  0  0  0  0  0  0  0  0  0
    1.7662    0.7698   -0.3310 C   0  0  0  0  0  0  0  0  0  0  0  0
    1.9678   -0.6077   -0.4720 C   0  0  0  0  0  0  0  0  0  0  0  0
    3.0476   -1.2405    0.1514 C   0  0  0  0  0  0  0  0  0  0  0  0
    3.9479   -0.5041    0.9314 C   0  0  0  0  0  0  0  0  0  0  0  0
    5.1208   -1.1756    1.5976 C   0  0  0  0  0  0  0  0  0  0  0  0
    6.2352   -1.3377    0.6820 N   0  0  0  0  0  0  0  0  0  0  0  0
    7.2033   -0.4120    0.4046 C   0  0  0  0  0  0  0  0  0  0  0  0
    8.0570   -1.0440   -0.4693 C   0  0  0  0  0  0  0  0  0  0  0  0
    7.6416   -2.3275   -0.7136 N   0  0  0  0  0  0  0  0  0  0  0  0
    6.5433   -2.4759   -0.0076 C   0  0  0  0  0  0  0  0  0  0  0  0
    3.7471    0.8761    1.0641 C   0  0  0  0  0  0  0  0  0  0  0  0
    2.6646    1.5064    0.4394 C   0  0  0  0  0  0  0  0  0  0  0  0
   -4.7726    1.0930   -0.5150 C   0  0  0  0  0  0  0  0  0  0  0  0
   -7.6260    1.0427    1.2806 H   0  0  0  0  0  0  0  0  0  0  0  0
   -6.8622    2.4187    0.4852 H   0  0  0  0  0  0  0  0  0  0  0  0
   -7.8114    1.2611   -0.4786 H   0  0  0  0  0  0  0  0  0  0  0  0
   -6.7531   -1.2697    0.9289 H   0  0  0  0  0  0  0  0  0  0  0  0
   -3.7543   -3.4381    0.7732 H   0  0  0  0  0  0  0  0  0  0  0  0
   -5.1553   -3.6587   -0.3046 H   0  0  0  0  0  0  0  0  0  0  0  0
   -5.3868   -3.2762    1.4195 H   0  0  0  0  0  0  0  0  0  0  0  0
   -2.7723   -1.6629   -0.6580 H   0  0  0  0  0  0  0  0  0  0  0  0
   -2.6743    2.7038   -0.5261 H   0  0  0  0  0  0  0  0  0  0  0  0
   -1.2283    3.9222   -1.9223 H   0  0  0  0  0  0  0  0  0  0  0  0
   -0.8319    2.4575   -2.8494 H   0  0  0  0  0  0  0  0  0  0  0  0
    0.0712    0.6752   -1.5227 H   0  0  0  0  0  0  0  0  0  0  0  0
    1.2867   -1.2065   -1.0731 H   0  0  0  0  0  0  0  0  0  0  0  0
    3.1788   -2.3119    0.0155 H   0  0  0  0  0  0  0  0  0  0  0  0
    5.4767   -0.5946    2.4568 H   0  0  0  0  0  0  0  0  0  0  0  0
    4.8375   -2.1651    1.9755 H   0  0  0  0  0  0  0  0  0  0  0  0
    7.2026    0.5830    0.8262 H   0  0  0  0  0  0  0  0  0  0  0  0
    8.9497   -0.6444   -0.9326 H   0  0  0  0  0  0  0  0  0  0  0  0
    5.9435   -3.3754    0.0384 H   0  0  0  0  0  0  0  0  0  0  0  0
    4.4333    1.4819    1.6528 H   0  0  0  0  0  0  0  0  0  0  0  0
    2.5559    2.5786    0.5698 H   0  0  0  0  0  0  0  0  0  0  0  0
   -4.8058    2.1338   -0.8261 H   0  0  0  0  0  0  0  0  0  0  0  0
  1  2  1  0
  2  3  1  0
  3  4  2  0
  4  5  1  0
  4  6  1  0
  6  7  2  0
  7  8  1  0
  8  9  2  0
  8 10  1  0
 10 11  1  0
 11 12  1  0
 12 13  2  0
 12 14  1  0
 14 15  1  0
 15 16  1  0
 16 17  2  0
 17 18  1  0
 18 19  1  0
 19 20  1  0
 20 21  1  0
 21 22  2  0
 22 23  1  0
 23 24  2  0
 18 25  2  0
 25 26  1  0
  7 27  1  0
 27  2  2  0
 26 15  2  0
 24 20  1  0
  1 28  1  0
  1 29  1  0
  1 30  1  0
  3 31  1  0
  5 32  1  0
  5 33  1  0
  5 34  1  0
  6 35  1  0
 10 36  1  0
 11 37  1  0
 11 38  1  0
 14 39  1  0
 16 40  1  0
 17 41  1  0
 19 42  1  0
 19 43  1  0
 21 44  1  0
 22 45  1  0
 24 46  1  0
 25 47  1  0
 26 48  1  0
 27 49  1  0
M  END
$$$$
OCNT-2309864
     RDKit          3D

 55 58  0  0  0  0  0  0  0  0999 V2000
   -5.7875   -2.1315   -1.1192 C   0  0  0  0  0  0  0  0  0  0  0  0
   -5.3564   -1.9216    0.3259 C   0  0  0  0  0  0  0  0  0  0  0  0
   -6.1647   -2.8075    1.2675 C   0  0  0  0  0  0  0  0  0  0  0  0
   -5.5594   -0.5488    0.6782 O   0  0  0  0  0  0  0  0  0  0  0  0
   -4.3973   -0.1894    1.4255 C   0  0  0  0  0  0  0  0  0  0  0  0
   -3.3016   -1.0428    0.8287 C   0  0  0  0  0  0  0  0  0  0  0  0
   -2.6628   -0.3988   -0.4080 C   0  0  0  0  0  0  0  0  0  0  0  0
   -1.6618    0.5927   -0.0465 N   0  0  0  0  0  0  0  0  0  0  0  0
   -1.5486    1.7865   -0.7282 C   0  0  0  0  0  0  0  0  0  0  0  0
   -2.3158    2.1764   -1.5957 O   0  0  0  0  0  0  0  0  0  0  0  0
   -0.3815    2.6026   -0.3318 C   0  0  0  0  0  0  0  0  0  0  0  0
   -0.3698    3.0797    0.9897 C   0  0  0  0  0  0  0  0  0  0  0  0
    0.6699    3.8930    1.4324 C   0  0  0  0  0  0  0  0  0  0  0  0
    1.6938    4.2402    0.5562 C   0  0  0  0  0  0  0  0  0  0  0  0
    1.6849    3.7637   -0.7577 C   0  0  0  0  0  0  0  0  0  0  0  0
    0.6562    2.9247   -1.2203 C   0  0  0  0  0  0  0  0  0  0  0  0
    0.8264    2.3557   -2.9134 S   0  0  0  0  0  0  0  0  0  0  0  0
    0.6563    0.5475   -2.7339 C   0  0  0  0  0  0  0  0  0  0  0  0
    1.5276    0.0083   -1.6073 C   0  0  0  0  0  0  0  0  0  0  0  0
    1.0240   -0.4547   -0.5856 O   0  0  0  0  0  0  0  0  0  0  0  0
    2.8818    0.1078   -1.8856 N   0  0  0  0  0  0  0  0  0  0  0  0
    3.9605   -0.3194   -1.0857 C   0  0  0  0  0  0  0  0  0  0  0  0
    5.2589   -0.0235   -1.5598 C   0  0  0  0  0  0  0  0  0  0  0  0
    6.3983   -0.4090   -0.8438 C   0  0  0  0  0  0  0  0  0  0  0  0
    6.2094   -1.0895    0.3359 C   0  0  0  0  0  0  0  0  0  0  0  0
    7.1909   -1.5444    1.1599 O   0  0  0  0  0  0  0  0  0  0  0  0
    6.4068   -2.1830    2.1881 C   0  0  0  0  0  0  0  0  0  0  0  0
    4.9845   -2.0620    1.9825 O   0  0  0  0  0  0  0  0  0  0  0  0
    4.9514   -1.3849    0.8029 C   0  0  0  0  0  0  0  0  0  0  0  0
    3.8091   -1.0144    0.1176 C   0  0  0  0  0  0  0  0  0  0  0  0
   -3.9685   -2.2593    0.4641 O   0  0  0  0  0  0  0  0  0  0  0  0
   -5.2046   -1.4960   -1.7953 H   0  0  0  0  0  0  0  0  0  0  0  0
   -6.8398   -1.8677   -1.2597 H   0  0  0  0  0  0  0  0  0  0  0  0
   -5.6291   -3.1670   -1.4355 H   0  0  0  0  0  0  0  0  0  0  0  0
   -7.2310   -2.5630    1.2251 H   0  0  0  0  0  0  0  0  0  0  0  0
   -6.0282   -3.8686    1.0294 H   0  0  0  0  0  0  0  0  0  0  0  0
   -5.8417   -2.6678    2.3052 H   0  0  0  0  0  0  0  0  0  0  0  0
   -4.2179    0.8872    1.3624 H   0  0  0  0  0  0  0  0  0  0  0  0
   -4.5772   -0.4536    2.4734 H   0  0  0  0  0  0  0  0  0  0  0  0
   -2.5277   -1.2725    1.5697 H   0  0  0  0  0  0  0  0  0  0  0  0
   -3.4210    0.0421   -1.0633 H   0  0  0  0  0  0  0  0  0  0  0  0
   -2.1482   -1.1632   -1.0014 H   0  0  0  0  0  0  0  0  0  0  0  0
   -0.8060    0.2399    0.3798 H   0  0  0  0  0  0  0  0  0  0  0  0
   -1.1834    2.8328    1.6677 H   0  0  0  0  0  0  0  0  0  0  0  0
    0.6745    4.2672    2.4531 H   0  0  0  0  0  0  0  0  0  0  0  0
    2.5019    4.8861    0.8913 H   0  0  0  0  0  0  0  0  0  0  0  0
    2.4996    4.0551   -1.4192 H   0  0  0  0  0  0  0  0  0  0  0  0
   -0.3872    0.2644   -2.5727 H   0  0  0  0  0  0  0  0  0  0  0  0
    0.9659    0.0769   -3.6740 H   0  0  0  0  0  0  0  0  0  0  0  0
    3.1235    0.6076   -2.7335 H   0  0  0  0  0  0  0  0  0  0  0  0
    5.3953    0.5084   -2.4985 H   0  0  0  0  0  0  0  0  0  0  0  0
    7.3938   -0.1828   -1.2049 H   0  0  0  0  0  0  0  0  0  0  0  0
    6.6617   -1.7332    3.1554 H   0  0  0  0  0  0  0  0  0  0  0  0
    6.6676   -3.2468    2.2167 H   0  0  0  0  0  0  0  0  0  0  0  0
    2.8441   -1.2798    0.5290 H   0  0  0  0  0  0  0  0  0  0  0  0
  1  2  1  0
  2  3  1  0
  2  4  1  0
  4  5  1  0
  5  6  1  0
  6  7  1  0
  7  8  1  0
  8  9  1  0
  9 10  2  0
  9 11  1  0
 11 12  2  0
 12 13  1  0
 13 14  2  0
 14 15  1  0
 15 16  2  0
 16 17  1  0
 17 18  1  0
 18 19  1  0
 19 20  2  0
 19 21  1  0
 21 22  1  0
 22 23  1  0
 23 24  2  0
 24 25  1  0
 25 26  1  0
 26 27  1  0
 27 28  1  0
 28 29  1  0
 29 30  1  0
  6 31  1  0
 31  2  1  0
 16 11  1  0
 30 22  2  0
 29 25  2  0
  1 32  1  0
  1 33  1  0
  1 34  1  0
  3 35  1  0
  3 36  1  0
  3 37  1  0
  5 38  1  0
  5 39  1  0
  6 40  1  0
  7 41  1  0
  7 42  1  0
  8 43  1  0
 12 44  1  0
 13 45  1  0
 14 46  1  0
 15 47  1  0
 18 48  1  0
 18 49  1  0
 21 50  1  0
 23 51  1  0
 24 52  1  0
 27 53  1  0
 27 54  1  0
 30 55  1  0
M  END
$$$$
OCNT-2309866
     RDKit          3D

 55 58  0  0  0  0  0  0  0  0999 V2000
    2.0624    1.2192    1.3403 O   0  0  0  0  0  0  0  0  0  0  0  0
    2.0290    0.0395    1.0116 C   0  0  0  0  0  0  0  0  0  0  0  0
    0.9707   -0.8373    1.1707 N   0  0  0  0  0  0  0  0  0  0  0  0
   -0.3149   -0.5432    1.6717 C   0  0  0  0  0  0  0  0  0  0  0  0
   -0.7416    0.7368    2.0266 C   0  0  0  0  0  0  0  0  0  0  0  0
   -2.0392    0.9454    2.5108 C   0  0  0  0  0  0  0  0  0  0  0  0
   -2.9316   -0.1205    2.6324 C   0  0  0  0  0  0  0  0  0  0  0  0
   -4.5770    0.1777    3.2471 S   0  0  0  0  0  0  0  0  0  0  0  0
   -5.5653   -0.2961    1.7786 C   0  0  0  0  0  0  0  0  0  0  0  0
   -5.4184    0.7207    0.6362 C   0  0  0  0  0  0  0  0  0  0  0  0
   -6.2692    0.3932   -0.5183 N   0  0  0  0  0  0  0  0  0  0  0  0
   -6.2490    1.4603   -1.5234 C   0  0  0  0  0  0  0  0  0  0  0  0
   -6.8585    0.7927   -2.7456 C   0  0  0  0  0  0  0  0  0  0  0  0
   -6.5637   -0.6927   -2.5734 C   0  0  0  0  0  0  0  0  0  0  0  0
   -5.8350   -0.8045   -1.2417 C   0  0  0  0  0  0  0  0  0  0  0  0
   -2.5060   -1.4044    2.2892 C   0  0  0  0  0  0  0  0  0  0  0  0
   -1.2085   -1.6129    1.8083 C   0  0  0  0  0  0  0  0  0  0  0  0
    3.2584   -0.5566    0.4127 C   0  0  0  0  0  0  0  0  0  0  0  0
    3.1973   -1.5553   -0.5664 C   0  0  0  0  0  0  0  0  0  0  0  0
    4.3758   -2.0761   -1.1026 C   0  0  0  0  0  0  0  0  0  0  0  0
    5.6153   -1.5974   -0.6732 C   0  0  0  0  0  0  0  0  0  0  0  0
    5.6942   -0.5835    0.2931 C   0  0  0  0  0  0  0  0  0  0  0  0
    7.0294   -0.0372    0.7334 C   0  0  0  0  0  0  0  0  0  0  0  0
    7.5946    0.8561   -0.2616 N   0  0  0  0  0  0  0  0  0  0  0  0
    7.2366    2.1572   -0.4861 C   0  0  0  0  0  0  0  0  0  0  0  0
    8.0734    2.5860   -1.4900 C   0  0  0  0  0  0  0  0  0  0  0  0
    8.9343    1.5867   -1.8666 N   0  0  0  0  0  0  0  0  0  0  0  0
    8.6255    0.5596   -1.1075 C   0  0  0  0  0  0  0  0  0  0  0  0
    4.5045   -0.0652    0.8275 C   0  0  0  0  0  0  0  0  0  0  0  0
    1.1475   -1.8123    0.9698 H   0  0  0  0  0  0  0  0  0  0  0  0
   -0.0902    1.6010    1.9411 H   0  0  0  0  0  0  0  0  0  0  0  0
   -2.3417    1.9537    2.7857 H   0  0  0  0  0  0  0  0  0  0  0  0
   -6.6125   -0.3412    2.0977 H   0  0  0  0  0  0  0  0  0  0  0  0
   -5.2806   -1.3042    1.4628 H   0  0  0  0  0  0  0  0  0  0  0  0
   -5.7187    1.7064    1.0156 H   0  0  0  0  0  0  0  0  0  0  0  0
   -4.3706    0.8026    0.3213 H   0  0  0  0  0  0  0  0  0  0  0  0
   -6.8305    2.3332   -1.2102 H   0  0  0  0  0  0  0  0  0  0  0  0
   -5.2248    1.7843   -1.7495 H   0  0  0  0  0  0  0  0  0  0  0  0
   -7.9427    0.9540   -2.7763 H   0  0  0  0  0  0  0  0  0  0  0  0
   -6.4347    1.1873   -3.6744 H   0  0  0  0  0  0  0  0  0  0  0  0
   -5.9559   -1.0839   -3.3962 H   0  0  0  0  0  0  0  0  0  0  0  0
   -7.5036   -1.2572   -2.5522 H   0  0  0  0  0  0  0  0  0  0  0  0
   -6.1062   -1.7285   -0.7219 H   0  0  0  0  0  0  0  0  0  0  0  0
   -4.7508   -0.8041   -1.4123 H   0  0  0  0  0  0  0  0  0  0  0  0
   -3.1731   -2.2556    2.4010 H   0  0  0  0  0  0  0  0  0  0  0  0
   -0.9100   -2.6256    1.5504 H   0  0  0  0  0  0  0  0  0  0  0  0
    2.2454   -1.9124   -0.9496 H   0  0  0  0  0  0  0  0  0  0  0  0
    4.3306   -2.8443   -1.8717 H   0  0  0  0  0  0  0  0  0  0  0  0
    6.5208   -2.0087   -1.1165 H   0  0  0  0  0  0  0  0  0  0  0  0
    7.7373   -0.8557    0.9097 H   0  0  0  0  0  0  0  0  0  0  0  0
    6.9451    0.5258    1.6705 H   0  0  0  0  0  0  0  0  0  0  0  0
    6.4422    2.6507    0.0568 H   0  0  0  0  0  0  0  0  0  0  0  0
    8.1030    3.5609   -1.9595 H   0  0  0  0  0  0  0  0  0  0  0  0
    9.1120   -0.4068   -1.1318 H   0  0  0  0  0  0  0  0  0  0  0  0
    4.5392    0.7326    1.5691 H   0  0  0  0  0  0  0  0  0  0  0  0
  1  2  2  0
  2  3  1  0
  3  4  1  0
  4  5  1  0
  5  6  2  0
  6  7  1  0
  7  8  1  0
  8  9  1  0
  9 10  1  0
 10 11  1  0
 11 12  1  0
 12 13  1  0
 13 14  1  0
 14 15  1  0
  7 16  2  0
 16 17  1  0
  2 18  1  0
 18 19  1  0
 19 20  2  0
 20 21  1  0
 21 22  2  0
 22 23  1  0
 23 24  1  0
 24 25  1  0
 25 26  2  0
 26 27  1  0
 27 28  2  0
 22 29  1  0
 17  4  2  0
 29 18  2  0
 15 11  1  0
 28 24  1  0
  3 30  1  0
  5 31  1  0
  6 32  1  0
  9 33  1  0
  9 34  1  0
 10 35  1  0
 10 36  1  0
 12 37  1  0
 12 38  1  0
 13 39  1  0
 13 40  1  0
 14 41  1  0
 14 42  1  0
 15 43  1  0
 15 44  1  0
 16 45  1  0
 17 46  1  0
 19 47  1  0
 20 48  1  0
 21 49  1  0
 23 50  1  0
 23 51  1  0
 25 52  1  0
 26 53  1  0
 28 54  1  0
 29 55  1  0
M  END
$$$$
OCNT-2309867
     RDKit          3D

 49 52  0  0  0  0  0  0  0  0999 V2000
   -0.6010    1.8318   -3.4906 C   0  0  0  0  0  0  0  0  0  0  0  0
   -0.3923    0.5203   -2.7490 C   0  0  0  0  0  0  0  0  0  0  0  0
   -0.6418    0.6556   -1.3118 N   0  0  0  0  0  0  0  0  0  0  0  0
    0.4974    1.0464   -0.4786 C   0  0  0  0  0  0  0  0  0  0  0  0
    1.4309   -0.0922   -0.1319 C   0  0  0  0  0  0  0  0  0  0  0  0
    0.9854   -1.4105    0.0292 C   0  0  0  0  0  0  0  0  0  0  0  0
    1.8760   -2.4211    0.3894 C   0  0  0  0  0  0  0  0  0  0  0  0
    3.2227   -2.1275    0.6018 C   0  0  0  0  0  0  0  0  0  0  0  0
    3.7043   -0.8185    0.4609 C   0  0  0  0  0  0  0  0  0  0  0  0
    5.1239   -0.5061    0.6864 C   0  0  0  0  0  0  0  0  0  0  0  0
    5.8909    0.1266   -0.2988 C   0  0  0  0  0  0  0  0  0  0  0  0
    7.2259    0.3986   -0.0416 C   0  0  0  0  0  0  0  0  0  0  0  0
    7.8443    0.0928    1.1171 N   0  0  0  0  0  0  0  0  0  0  0  0
    7.0948   -0.5177    2.0578 C   0  0  0  0  0  0  0  0  0  0  0  0
    5.7550   -0.8336    1.8921 C   0  0  0  0  0  0  0  0  0  0  0  0
    2.7905    0.1877    0.0984 C   0  0  0  0  0  0  0  0  0  0  0  0
   -1.9490    0.4924   -0.8518 C   0  0  0  0  0  0  0  0  0  0  0  0
   -2.8823    0.3332   -1.6424 O   0  0  0  0  0  0  0  0  0  0  0  0
   -2.1924    0.5591    0.6434 C   0  0  0  0  0  0  0  0  0  0  0  0
   -3.3147   -0.2631    1.0459 N   0  0  0  0  0  0  0  0  0  0  0  0
   -3.0843   -1.4739    1.5966 N   0  0  0  0  0  0  0  0  0  0  0  0
   -4.2552   -1.9696    1.9745 N   0  0  0  0  0  0  0  0  0  0  0  0
   -5.2246   -1.0515    1.6698 C   0  0  0  0  0  0  0  0  0  0  0  0
   -6.6115   -1.0854    1.8715 C   0  0  0  0  0  0  0  0  0  0  0  0
   -7.3742    0.0150    1.4597 C   0  0  0  0  0  0  0  0  0  0  0  0
   -6.7684    1.1220    0.8595 C   0  0  0  0  0  0  0  0  0  0  0  0
   -5.3844    1.1728    0.6526 C   0  0  0  0  0  0  0  0  0  0  0  0
   -4.6449    0.0633    1.0750 C   0  0  0  0  0  0  0  0  0  0  0  0
    0.0773    2.6074   -3.1215 H   0  0  0  0  0  0  0  0  0  0  0  0
   -1.6251    2.1987   -3.3666 H   0  0  0  0  0  0  0  0  0  0  0  0
   -0.4142    1.6959   -4.5600 H   0  0  0  0  0  0  0  0  0  0  0  0
    0.6295    0.1556   -2.9025 H   0  0  0  0  0  0  0  0  0  0  0  0
   -1.0672   -0.2383   -3.1624 H   0  0  0  0  0  0  0  0  0  0  0  0
    1.0462    1.8208   -1.0287 H   0  0  0  0  0  0  0  0  0  0  0  0
    0.1534    1.5154    0.4480 H   0  0  0  0  0  0  0  0  0  0  0  0
   -0.0579   -1.6759   -0.1265 H   0  0  0  0  0  0  0  0  0  0  0  0
    1.5182   -3.4417    0.5044 H   0  0  0  0  0  0  0  0  0  0  0  0
    3.8996   -2.9363    0.8707 H   0  0  0  0  0  0  0  0  0  0  0  0
    5.4638    0.3921   -1.2605 H   0  0  0  0  0  0  0  0  0  0  0  0
    7.8515    0.8825   -0.7864 H   0  0  0  0  0  0  0  0  0  0  0  0
    7.6146   -0.7544    2.9819 H   0  0  0  0  0  0  0  0  0  0  0  0
    5.2130   -1.3195    2.6970 H   0  0  0  0  0  0  0  0  0  0  0  0
    3.1468    1.2133    0.0043 H   0  0  0  0  0  0  0  0  0  0  0  0
   -2.4044    1.5943    0.9276 H   0  0  0  0  0  0  0  0  0  0  0  0
   -1.3317    0.2049    1.2155 H   0  0  0  0  0  0  0  0  0  0  0  0
   -7.0757   -1.9484    2.3356 H   0  0  0  0  0  0  0  0  0  0  0  0
   -8.4522    0.0028    1.6051 H   0  0  0  0  0  0  0  0  0  0  0  0
   -7.3858    1.9590    0.5384 H   0  0  0  0  0  0  0  0  0  0  0  0
   -4.9207    2.0250    0.1681 H   0  0  0  0  0  0  0  0  0  0  0  0
  1  2  1  0
  2  3  1  0
  3  4  1  0
  4  5  1  0
  5  6  2  0
  6  7  1  0
  7  8  2  0
  8  9  1  0
  9 10  1  0
 10 11  2  0
 11 12  1  0
 12 13  2  0
 13 14  1  0
 14 15  2  0
  9 16  2  0
  3 17  1  0
 17 18  2  0
 17 19  1  0
 19 20  1  0
 20 21  1  0
 21 22  2  0
 22 23  1  0
 23 24  2  0
 24 25  1  0
 25 26  2  0
 26 27  1  0
 27 28  2  0
 16  5  1  0
 28 20  1  0
 15 10  1  0
 28 23  1  0
  1 29  1  0
  1 30  1  0
  1 31  1  0
  2 32  1  0
  2 33  1  0
  4 34  1  0
  4 35  1  0
  6 36  1  0
  7 37  1  0
  8 38  1  0
 11 39  1  0
 12 40  1  0
 14 41  1  0
 15 42  1  0
 16 43  1  0
 19 44  1  0
 19 45  1  0
 24 46  1  0
 25 47  1  0
 26 48  1  0
 27 49  1  0
M  END
$$$$
OCNT-2309871
     RDKit          3D

 43 45  0  0  0  0  0  0  0  0999 V2000
    3.7062    2.1478   -0.5412 C   0  0  0  0  0  0  0  0  0  0  0  0
    3.6863    0.7128   -0.8227 N   0  0  0  0  0  0  0  0  0  0  0  0
    4.3567    0.3261   -1.9835 C   0  0  0  0  0  0  0  0  0  0  0  0
    4.7278    1.1347   -2.8342 O   0  0  0  0  0  0  0  0  0  0  0  0
    4.5251   -1.1561   -2.2304 C   0  0  0  0  0  0  0  0  0  0  0  0
    4.7815   -1.9325   -0.9566 C   0  0  0  0  0  0  0  0  0  0  0  0
    3.6417   -1.6716    0.0052 C   0  0  0  0  0  0  0  0  0  0  0  0
    3.5663   -0.1828    0.3529 C   0  0  0  0  0  0  0  0  0  0  0  0
    2.2339    0.0307    1.1105 C   0  0  0  0  0  0  0  0  0  0  0  0
    2.1574   -0.1789    2.3172 O   0  0  0  0  0  0  0  0  0  0  0  0
    1.1768    0.3170    0.2591 N   0  0  0  0  0  0  0  0  0  0  0  0
   -0.1801    0.4935    0.5872 C   0  0  0  0  0  0  0  0  0  0  0  0
   -1.0476    0.8286   -0.4611 C   0  0  0  0  0  0  0  0  0  0  0  0
   -2.4117    1.0187   -0.2263 C   0  0  0  0  0  0  0  0  0  0  0  0
   -2.9241    0.8579    1.0631 C   0  0  0  0  0  0  0  0  0  0  0  0
   -4.2588    1.0774    1.3212 O   0  0  0  0  0  0  0  0  0  0  0  0
   -5.1654    0.3284    0.6055 C   0  0  0  0  0  0  0  0  0  0  0  0
   -6.2985    0.9885    0.1443 C   0  0  0  0  0  0  0  0  0  0  0  0
   -7.2355    0.2515   -0.5567 C   0  0  0  0  0  0  0  0  0  0  0  0
   -7.1155   -1.0706   -0.8070 N   0  0  0  0  0  0  0  0  0  0  0  0
   -6.0177   -1.6876   -0.3178 C   0  0  0  0  0  0  0  0  0  0  0  0
   -5.0228   -1.0401    0.3932 C   0  0  0  0  0  0  0  0  0  0  0  0
   -2.0617    0.5454    2.1168 C   0  0  0  0  0  0  0  0  0  0  0  0
   -2.6528    0.3641    3.7292 Cl  0  0  0  0  0  0  0  0  0  0  0  0
   -0.6959    0.3561    1.8782 C   0  0  0  0  0  0  0  0  0  0  0  0
    4.6812    2.4064   -0.1158 H   0  0  0  0  0  0  0  0  0  0  0  0
    3.5570    2.7238   -1.4598 H   0  0  0  0  0  0  0  0  0  0  0  0
    2.9171    2.4174    0.1646 H   0  0  0  0  0  0  0  0  0  0  0  0
    3.6223   -1.5178   -2.7360 H   0  0  0  0  0  0  0  0  0  0  0  0
    5.3713   -1.2978   -2.9123 H   0  0  0  0  0  0  0  0  0  0  0  0
    5.7332   -1.6266   -0.5056 H   0  0  0  0  0  0  0  0  0  0  0  0
    4.8506   -3.0030   -1.1782 H   0  0  0  0  0  0  0  0  0  0  0  0
    2.7002   -2.0150   -0.4440 H   0  0  0  0  0  0  0  0  0  0  0  0
    3.7791   -2.2606    0.9201 H   0  0  0  0  0  0  0  0  0  0  0  0
    4.3914    0.0819    1.0264 H   0  0  0  0  0  0  0  0  0  0  0  0
    1.4409    0.4670   -0.7107 H   0  0  0  0  0  0  0  0  0  0  0  0
   -0.6748    0.9533   -1.4754 H   0  0  0  0  0  0  0  0  0  0  0  0
   -3.0659    1.2959   -1.0491 H   0  0  0  0  0  0  0  0  0  0  0  0
   -6.4447    2.0468    0.3240 H   0  0  0  0  0  0  0  0  0  0  0  0
   -8.1362    0.7166   -0.9466 H   0  0  0  0  0  0  0  0  0  0  0  0
   -5.9602   -2.7542   -0.5156 H   0  0  0  0  0  0  0  0  0  0  0  0
   -4.1762   -1.5965    0.7765 H   0  0  0  0  0  0  0  0  0  0  0  0
   -0.0579    0.1035    2.7190 H   0  0  0  0  0  0  0  0  0  0  0  0
  1  2  1  0
  2  3  1  0
  3  4  2  0
  3  5  1  0
  5  6  1  0
  6  7  1  0
  7  8  1  0
  8  9  1  0
  9 10  2  0
  9 11  1  0
 11 12  1  0
 12 13  1  0
 13 14  2  0
 14 15  1  0
 15 16  1  0
 16 17  1  0
 17 18  2  0
 18 19  1  0
 19 20  2  0
 20 21  1  0
 21 22  2  0
 15 23  2  0
 23 24  1  0
 23 25  1  0
  8  2  1  0
 25 12  2  0
 22 17  1  0
  1 26  1  0
  1 27  1  0
  1 28  1  0
  5 29  1  0
  5 30  1  0
  6 31  1  0
  6 32  1  0
  7 33  1  0
  7 34  1  0
  8 35  1  0
 11 36  1  0
 13 37  1  0
 14 38  1  0
 18 39  1  0
 19 40  1  0
 21 41  1  0
 22 42  1  0
 25 43  1  0
M  END
$$$$
OCNT-2309879
     RDKit          3D

 40 43  0  0  0  0  0  0  0  0999 V2000
    4.2338   -2.8840   -0.1692 C   0  0  0  0  0  0  0  0  0  0  0  0
    3.3182   -1.6905   -0.4083 C   0  0  0  0  0  0  0  0  0  0  0  0
    2.0077   -1.8439    0.3604 C   0  0  0  0  0  0  0  0  0  0  0  0
    1.1522   -0.6877    0.0812 N   0  0  0  0  0  0  0  0  0  0  0  0
   -0.1853   -0.9257   -0.2242 C   0  0  0  0  0  0  0  0  0  0  0  0
   -0.7089   -2.0098    0.0623 O   0  0  0  0  0  0  0  0  0  0  0  0
   -0.9451    0.0754   -1.0956 C   0  0  0  0  0  0  0  0  0  0  0  0
   -2.1638    0.6820   -0.4631 C   0  0  0  0  0  0  0  0  0  0  0  0
   -2.4032    2.0410   -0.3084 C   0  0  0  0  0  0  0  0  0  0  0  0
   -3.6278    2.2058    0.2831 N   0  0  0  0  0  0  0  0  0  0  0  0
   -4.2130    0.9897    0.4811 C   0  0  0  0  0  0  0  0  0  0  0  0
   -5.4335    0.8208    1.0222 N   0  0  0  0  0  0  0  0  0  0  0  0
   -5.7982   -0.4789    1.0959 C   0  0  0  0  0  0  0  0  0  0  0  0
   -5.0379   -1.5579    0.6678 C   0  0  0  0  0  0  0  0  0  0  0  0
   -3.7799   -1.3207    0.1118 C   0  0  0  0  0  0  0  0  0  0  0  0
   -3.3379    0.0109    0.0190 C   0  0  0  0  0  0  0  0  0  0  0  0
    1.8240    0.5593    0.2358 C   0  0  0  0  0  0  0  0  0  0  0  0
    1.1534    1.7466    0.5406 C   0  0  0  0  0  0  0  0  0  0  0  0
    1.8523    2.9458    0.7181 C   0  0  0  0  0  0  0  0  0  0  0  0
    3.2399    2.9686    0.6227 C   0  0  0  0  0  0  0  0  0  0  0  0
    3.9310    1.7868    0.3725 C   0  0  0  0  0  0  0  0  0  0  0  0
    3.2327    0.5899    0.1885 C   0  0  0  0  0  0  0  0  0  0  0  0
    4.0296   -0.5144   -0.0001 O   0  0  0  0  0  0  0  0  0  0  0  0
    4.4964   -2.9702    0.8910 H   0  0  0  0  0  0  0  0  0  0  0  0
    3.7638   -3.8179   -0.4920 H   0  0  0  0  0  0  0  0  0  0  0  0
    5.1744   -2.7594   -0.7167 H   0  0  0  0  0  0  0  0  0  0  0  0
    3.1219   -1.6077   -1.4857 H   0  0  0  0  0  0  0  0  0  0  0  0
    1.5124   -2.7760    0.0678 H   0  0  0  0  0  0  0  0  0  0  0  0
    2.1747   -1.8727    1.4448 H   0  0  0  0  0  0  0  0  0  0  0  0
   -1.2656   -0.4823   -1.9867 H   0  0  0  0  0  0  0  0  0  0  0  0
   -0.2786    0.8491   -1.4873 H   0  0  0  0  0  0  0  0  0  0  0  0
   -1.8066    2.9046   -0.5720 H   0  0  0  0  0  0  0  0  0  0  0  0
   -4.0707    3.0803    0.5230 H   0  0  0  0  0  0  0  0  0  0  0  0
   -6.7798   -0.6459    1.5332 H   0  0  0  0  0  0  0  0  0  0  0  0
   -5.4141   -2.5702    0.7657 H   0  0  0  0  0  0  0  0  0  0  0  0
   -3.1658   -2.1471   -0.2307 H   0  0  0  0  0  0  0  0  0  0  0  0
    0.0859    1.7591    0.7179 H   0  0  0  0  0  0  0  0  0  0  0  0
    1.3102    3.8575    0.9579 H   0  0  0  0  0  0  0  0  0  0  0  0
    3.7843    3.8976    0.7698 H   0  0  0  0  0  0  0  0  0  0  0  0
    5.0170    1.7916    0.3280 H   0  0  0  0  0  0  0  0  0  0  0  0
  1  2  1  0
  2  3  1  0
  3  4  1  0
  4  5  1  0
  5  6  2  0
  5  7  1  0
  7  8  1  0
  8  9  2  0
  9 10  1  0
 10 11  1  0
 11 12  1  0
 12 13  2  0
 13 14  1  0
 14 15  2  0
 15 16  1  0
  4 17  1  0
 17 18  2  0
 18 19  1  0
 19 20  2  0
 20 21  1  0
 21 22  2  0
 22 23  1  0
 23  2  1  0
 16  8  1  0
 22 17  1  0
 16 11  2  0
  1 24  1  0
  1 25  1  0
  1 26  1  0
  2 27  1  0
  3 28  1  0
  3 29  1  0
  7 30  1  0
  7 31  1  0
  9 32  1  0
 10 33  1  0
 13 34  1  0
 14 35  1  0
 15 36  1  0
 18 37  1  0
 19 38  1  0
 20 39  1  0
 21 40  1  0
M  END
$$$$
OCNT-2309880
     RDKit          3D

 36 38  0  0  0  0  0  0  0  0999 V2000
   -5.4898   -0.0995   -1.9958 C   0  0  0  0  0  0  0  0  0  0  0  0
   -4.3230    0.1097   -1.0723 C   0  0  0  0  0  0  0  0  0  0  0  0
   -4.3815    1.1156   -0.0835 C   0  0  0  0  0  0  0  0  0  0  0  0
   -3.3222    1.3123    0.8018 C   0  0  0  0  0  0  0  0  0  0  0  0
   -2.2265    0.4819    0.6694 C   0  0  0  0  0  0  0  0  0  0  0  0
   -2.1488   -0.5477   -0.2696 C   0  0  0  0  0  0  0  0  0  0  0  0
   -3.1998   -0.7320   -1.1562 C   0  0  0  0  0  0  0  0  0  0  0  0
   -0.8633   -1.3299   -0.2418 C   0  0  0  0  0  0  0  0  0  0  0  0
   -0.2531   -1.1115    1.1499 C   0  0  0  0  0  0  0  0  0  0  0  0
    1.2481   -1.2356    1.1672 C   0  0  0  0  0  0  0  0  0  0  0  0
    1.7483   -2.2426    1.6644 O   0  0  0  0  0  0  0  0  0  0  0  0
    1.9381   -0.2134    0.5531 N   0  0  0  0  0  0  0  0  0  0  0  0
    3.3266   -0.1380    0.3824 C   0  0  0  0  0  0  0  0  0  0  0  0
    4.0938   -1.2321    0.5341 N   0  0  0  0  0  0  0  0  0  0  0  0
    5.4198   -1.1052    0.2779 C   0  0  0  0  0  0  0  0  0  0  0  0
    6.0192    0.0749   -0.1353 C   0  0  0  0  0  0  0  0  0  0  0  0
    7.7043    0.1458   -0.4495 Cl  0  0  0  0  0  0  0  0  0  0  0  0
    5.2233    1.2020   -0.2818 C   0  0  0  0  0  0  0  0  0  0  0  0
    3.8651    1.0975   -0.0041 C   0  0  0  0  0  0  0  0  0  0  0  0
    3.1141    2.2380   -0.1104 O   0  0  0  0  0  0  0  0  0  0  0  0
   -0.8010    0.5069    1.6851 S   0  0  0  0  0  0  0  0  0  0  0  0
    0.0778    1.5352    1.1516 O   0  0  0  0  0  0  0  0  0  0  0  0
   -1.2227    0.4715    3.0671 O   0  0  0  0  0  0  0  0  0  0  0  0
   -5.1581   -0.4997   -2.9596 H   0  0  0  0  0  0  0  0  0  0  0  0
   -6.2002   -0.8002   -1.5466 H   0  0  0  0  0  0  0  0  0  0  0  0
   -6.0028    0.8469   -2.1966 H   0  0  0  0  0  0  0  0  0  0  0  0
   -5.2631    1.7499   -0.0049 H   0  0  0  0  0  0  0  0  0  0  0  0
   -3.3616    2.0821    1.5659 H   0  0  0  0  0  0  0  0  0  0  0  0
   -3.1579   -1.5187   -1.9063 H   0  0  0  0  0  0  0  0  0  0  0  0
   -1.0453   -2.3967   -0.4108 H   0  0  0  0  0  0  0  0  0  0  0  0
   -0.2072   -0.9652   -1.0405 H   0  0  0  0  0  0  0  0  0  0  0  0
   -0.6855   -1.8223    1.8658 H   0  0  0  0  0  0  0  0  0  0  0  0
    1.4277    0.6246    0.2887 H   0  0  0  0  0  0  0  0  0  0  0  0
    5.9982   -2.0146    0.4163 H   0  0  0  0  0  0  0  0  0  0  0  0
    5.6473    2.1517   -0.5917 H   0  0  0  0  0  0  0  0  0  0  0  0
    2.4620    2.2586    0.6164 H   0  0  0  0  0  0  0  0  0  0  0  0
  1  2  1  0
  2  3  1  0
  3  4  2  0
  4  5  1  0
  5  6  2  0
  6  7  1  0
  6  8  1  0
  8  9  1  0
  9 10  1  0
 10 11  2  0
 10 12  1  0
 12 13  1  0
 13 14  1  0
 14 15  2  0
 15 16  1  0
 16 17  1  0
 16 18  2  0
 18 19  1  0
 19 20  1  0
  9 21  1  0
 21 22  2  0
 21 23  2  0
  7  2  2  0
 19 13  2  0
 21  5  1  0
  1 24  1  0
  1 25  1  0
  1 26  1  0
  3 27  1  0
  4 28  1  0
  7 29  1  0
  8 30  1  0
  8 31  1  0
  9 32  1  0
 12 33  1  0
 15 34  1  0
 18 35  1  0
 20 36  1  0
M  END
$$$$
OCNT-2309885
     RDKit          3D

 38 40  0  0  0  0  0  0  0  0999 V2000
   -3.8162   -2.8164    2.0398 N   0  0  0  0  0  0  0  0  0  0  0  0
   -4.0378   -1.9748    1.2715 C   0  0  0  0  0  0  0  0  0  0  0  0
   -4.3434   -0.9565    0.3049 C   0  0  0  0  0  0  0  0  0  0  0  0
   -5.6639   -0.8682   -0.1658 C   0  0  0  0  0  0  0  0  0  0  0  0
   -6.0206    0.1068   -1.0965 C   0  0  0  0  0  0  0  0  0  0  0  0
   -5.0622    1.0004   -1.5627 C   0  0  0  0  0  0  0  0  0  0  0  0
   -3.7470    0.9193   -1.0996 C   0  0  0  0  0  0  0  0  0  0  0  0
   -3.3608   -0.0580   -0.1615 C   0  0  0  0  0  0  0  0  0  0  0  0
   -1.9604   -0.0968    0.2932 C   0  0  0  0  0  0  0  0  0  0  0  0
   -1.1153   -1.1656   -0.0523 C   0  0  0  0  0  0  0  0  0  0  0  0
    0.2146   -1.1958    0.3775 C   0  0  0  0  0  0  0  0  0  0  0  0
    0.7205   -0.1411    1.1406 C   0  0  0  0  0  0  0  0  0  0  0  0
    2.1203   -0.1538    1.6228 C   0  0  0  0  0  0  0  0  0  0  0  0
    2.3053   -0.0608    2.8336 O   0  0  0  0  0  0  0  0  0  0  0  0
    3.1554   -0.2521    0.6874 N   0  0  0  0  0  0  0  0  0  0  0  0
    4.5304   -0.2529    1.1936 C   0  0  0  0  0  0  0  0  0  0  0  0
    5.2207    1.0906    0.9695 C   0  0  0  0  0  0  0  0  0  0  0  0
    5.3584    1.5456   -0.8015 S   0  0  0  0  0  0  0  0  0  0  0  0
    4.2568    0.2835   -1.5290 C   0  0  0  0  0  0  0  0  0  0  0  0
    2.9660    0.0950   -0.7290 C   0  0  0  0  0  0  0  0  0  0  0  0
   -0.1091    0.9187    1.5122 C   0  0  0  0  0  0  0  0  0  0  0  0
   -1.4387    0.9425    1.0831 C   0  0  0  0  0  0  0  0  0  0  0  0
   -6.4235   -1.5604    0.1950 H   0  0  0  0  0  0  0  0  0  0  0  0
   -7.0452    0.1694   -1.4555 H   0  0  0  0  0  0  0  0  0  0  0  0
   -5.3359    1.7629   -2.2885 H   0  0  0  0  0  0  0  0  0  0  0  0
   -3.0123    1.6269   -1.4821 H   0  0  0  0  0  0  0  0  0  0  0  0
   -1.4917   -1.9916   -0.6535 H   0  0  0  0  0  0  0  0  0  0  0  0
    0.8430   -2.0474    0.1300 H   0  0  0  0  0  0  0  0  0  0  0  0
    4.5426   -0.4887    2.2632 H   0  0  0  0  0  0  0  0  0  0  0  0
    5.0732   -1.0662    0.6973 H   0  0  0  0  0  0  0  0  0  0  0  0
    6.2311    1.0677    1.3894 H   0  0  0  0  0  0  0  0  0  0  0  0
    4.6685    1.8906    1.4739 H   0  0  0  0  0  0  0  0  0  0  0  0
    4.0167    0.5902   -2.5520 H   0  0  0  0  0  0  0  0  0  0  0  0
    4.8114   -0.6586   -1.5975 H   0  0  0  0  0  0  0  0  0  0  0  0
    2.3857   -0.7075   -1.1950 H   0  0  0  0  0  0  0  0  0  0  0  0
    2.3607    1.0085   -0.7800 H   0  0  0  0  0  0  0  0  0  0  0  0
    0.2761    1.7196    2.1394 H   0  0  0  0  0  0  0  0  0  0  0  0
   -2.0733    1.7749    1.3828 H   0  0  0  0  0  0  0  0  0  0  0  0
  1  2  3  0
  2  3  1  0
  3  4  2  0
  4  5  1  0
  5  6  2  0
  6  7  1  0
  7  8  2  0
  8  9  1  0
  9 10  1  0
 10 11  2  0
 11 12  1  0
 12 13  1  0
 13 14  2  0
 13 15  1  0
 15 16  1  0
 16 17  1  0
 17 18  1  0
 18 19  1  0
 19 20  1  0
 12 21  2  0
 21 22  1  0
  8  3  1  0
 22  9  2  0
 20 15  1  0
  4 23  1  0
  5 24  1  0
  6 25  1  0
  7 26  1  0
 10 27  1  0
 11 28  1  0
 16 29  1  0
 16 30  1  0
 17 31  1  0
 17 32  1  0
 19 33  1  0
 19 34  1  0
 20 35  1  0
 20 36  1  0
 21 37  1  0
 22 38  1  0
M  END
$$$$
OCNT-2309893
     RDKit          3D

 38 40  0  0  0  0  0  0  0  0999 V2000
   -3.7611   -1.8145   -1.6167 C   0  0  0  0  0  0  0  0  0  0  0  0
   -2.4745   -1.3224   -1.1761 N   0  0  0  0  0  0  0  0  0  0  0  0
   -1.3965   -2.0722   -1.4867 N   0  0  0  0  0  0  0  0  0  0  0  0
   -0.3967   -1.4815   -0.8383 C   0  0  0  0  0  0  0  0  0  0  0  0
   -0.8088   -0.3519   -0.0929 C   0  0  0  0  0  0  0  0  0  0  0  0
    0.0512    0.5449    0.6571 C   0  0  0  0  0  0  0  0  0  0  0  0
   -0.0829    1.7634    0.6555 O   0  0  0  0  0  0  0  0  0  0  0  0
    1.0584   -0.0847    1.3548 N   0  0  0  0  0  0  0  0  0  0  0  0
    2.1045    0.6702    2.0216 C   0  0  0  0  0  0  0  0  0  0  0  0
    3.1509    1.2346    1.0581 C   0  0  0  0  0  0  0  0  0  0  0  0
    3.8699    0.1848    0.3526 N   0  0  0  0  0  0  0  0  0  0  0  0
    3.6055   -0.2333   -0.9256 C   0  0  0  0  0  0  0  0  0  0  0  0
    4.4796   -1.2546   -1.2264 C   0  0  0  0  0  0  0  0  0  0  0  0
    5.3061   -1.4499   -0.0942 C   0  0  0  0  0  0  0  0  0  0  0  0
    4.9120   -0.5425    0.8651 C   0  0  0  0  0  0  0  0  0  0  0  0
   -2.1743   -0.2657   -0.3461 C   0  0  0  0  0  0  0  0  0  0  0  0
   -3.1062    0.6548    0.1511 N   0  0  0  0  0  0  0  0  0  0  0  0
   -4.3061    1.0297   -0.4295 C   0  0  0  0  0  0  0  0  0  0  0  0
   -4.9608    1.9253    0.3870 C   0  0  0  0  0  0  0  0  0  0  0  0
   -4.1424    2.1320    1.5114 C   0  0  0  0  0  0  0  0  0  0  0  0
   -3.0175    1.3562    1.3400 C   0  0  0  0  0  0  0  0  0  0  0  0
   -4.0613   -1.2472   -2.5002 H   0  0  0  0  0  0  0  0  0  0  0  0
   -4.4856   -1.7166   -0.8056 H   0  0  0  0  0  0  0  0  0  0  0  0
   -3.6723   -2.8735   -1.8773 H   0  0  0  0  0  0  0  0  0  0  0  0
    0.6022   -1.8848   -0.9528 H   0  0  0  0  0  0  0  0  0  0  0  0
    1.1787   -1.0855    1.2649 H   0  0  0  0  0  0  0  0  0  0  0  0
    2.5672   -0.0038    2.7506 H   0  0  0  0  0  0  0  0  0  0  0  0
    1.6376    1.4940    2.5729 H   0  0  0  0  0  0  0  0  0  0  0  0
    2.6947    1.8881    0.3063 H   0  0  0  0  0  0  0  0  0  0  0  0
    3.8955    1.8232    1.6059 H   0  0  0  0  0  0  0  0  0  0  0  0
    2.8241    0.2262   -1.5178 H   0  0  0  0  0  0  0  0  0  0  0  0
    4.5233   -1.7938   -2.1640 H   0  0  0  0  0  0  0  0  0  0  0  0
    6.1081   -2.1697    0.0076 H   0  0  0  0  0  0  0  0  0  0  0  0
    5.2905   -0.3615    1.8628 H   0  0  0  0  0  0  0  0  0  0  0  0
   -4.5909    0.6753   -1.4077 H   0  0  0  0  0  0  0  0  0  0  0  0
   -5.9143    2.3932    0.1781 H   0  0  0  0  0  0  0  0  0  0  0  0
   -4.3384    2.7802    2.3557 H   0  0  0  0  0  0  0  0  0  0  0  0
   -2.1693    1.2335    1.9973 H   0  0  0  0  0  0  0  0  0  0  0  0
  1  2  1  0
  2  3  1  0
  3  4  2  0
  4  5  1  0
  5  6  1  0
  6  7  2  0
  6  8  1  0
  8  9  1  0
  9 10  1  0
 10 11  1  0
 11 12  1  0
 12 13  2  0
 13 14  1  0
 14 15  2  0
  5 16  2  0
 16 17  1  0
 17 18  1  0
 18 19  2  0
 19 20  1  0
 20 21  2  0
 16  2  1  0
 21 17  1  0
 15 11  1  0
  1 22  1  0
  1 23  1  0
  1 24  1  0
  4 25  1  0
  8 26  1  0
  9 27  1  0
  9 28  1  0
 10 29  1  0
 10 30  1  0
 12 31  1  0
 13 32  1  0
 14 33  1  0
 15 34  1  0
 18 35  1  0
 19 36  1  0
 20 37  1  0
 21 38  1  0
M  END
$$$$
OCNT-2309900
     RDKit          3D

 51 54  0  0  0  0  0  0  0  0999 V2000
   -1.9777    2.5789    0.6143 C   0  0  0  0  0  0  0  0  0  0  0  0
   -2.6747    1.2705    0.2287 C   0  0  0  0  0  0  0  0  0  0  0  0
   -3.4700    0.7526    1.4315 C   0  0  0  0  0  0  0  0  0  0  0  0
   -1.6977    0.2119   -0.3897 C   0  0  0  0  0  0  0  0  0  0  0  0
   -2.4908   -0.8608   -1.1384 C   0  0  0  0  0  0  0  0  0  0  0  0
   -3.0356   -0.5776   -2.4018 C   0  0  0  0  0  0  0  0  0  0  0  0
   -3.8035   -1.5279   -3.0751 C   0  0  0  0  0  0  0  0  0  0  0  0
   -4.0419   -2.7701   -2.4929 C   0  0  0  0  0  0  0  0  0  0  0  0
   -3.5047   -3.0681   -1.2418 C   0  0  0  0  0  0  0  0  0  0  0  0
   -2.7186   -2.1240   -0.5700 C   0  0  0  0  0  0  0  0  0  0  0  0
   -2.1253   -2.4247    0.7732 C   0  0  0  0  0  0  0  0  0  0  0  0
   -0.7526   -1.7728    0.8818 C   0  0  0  0  0  0  0  0  0  0  0  0
   -0.7296   -0.3293    0.5995 N   0  0  0  0  0  0  0  0  0  0  0  0
    0.4675    0.3878    0.7644 C   0  0  0  0  0  0  0  0  0  0  0  0
    0.7370    1.3943    0.1159 O   0  0  0  0  0  0  0  0  0  0  0  0
    1.2936   -0.1302    1.7448 N   0  0  0  0  0  0  0  0  0  0  0  0
    2.5791    0.3506    1.9590 C   0  0  0  0  0  0  0  0  0  0  0  0
    3.2146    0.4691    3.1776 C   0  0  0  0  0  0  0  0  0  0  0  0
    4.4677    1.0294    2.8878 C   0  0  0  0  0  0  0  0  0  0  0  0
    4.6568    1.2091    1.5828 N   0  0  0  0  0  0  0  0  0  0  0  0
    3.5132    0.7522    1.0131 N   0  0  0  0  0  0  0  0  0  0  0  0
    3.4247    0.5071   -0.4481 C   0  0  0  0  0  0  0  0  0  0  0  0
    4.7570    0.0638   -1.1107 C   0  0  0  0  0  0  0  0  0  0  0  0
    4.3789    0.9811   -2.2935 C   0  0  0  0  0  0  0  0  0  0  0  0
    3.5330    1.7998   -1.2949 C   0  0  0  0  0  0  0  0  0  0  0  0
   -2.7177    3.3382    0.8915 H   0  0  0  0  0  0  0  0  0  0  0  0
   -1.4014    2.9791   -0.2258 H   0  0  0  0  0  0  0  0  0  0  0  0
   -1.3110    2.4486    1.4721 H   0  0  0  0  0  0  0  0  0  0  0  0
   -3.4088    1.5425   -0.5426 H   0  0  0  0  0  0  0  0  0  0  0  0
   -4.1332    1.5339    1.8198 H   0  0  0  0  0  0  0  0  0  0  0  0
   -4.1051   -0.0935    1.1544 H   0  0  0  0  0  0  0  0  0  0  0  0
   -2.8112    0.4428    2.2489 H   0  0  0  0  0  0  0  0  0  0  0  0
   -1.1065    0.7195   -1.1646 H   0  0  0  0  0  0  0  0  0  0  0  0
   -2.8684    0.3925   -2.8659 H   0  0  0  0  0  0  0  0  0  0  0  0
   -4.2209   -1.2958   -4.0515 H   0  0  0  0  0  0  0  0  0  0  0  0
   -4.6460   -3.5075   -3.0150 H   0  0  0  0  0  0  0  0  0  0  0  0
   -3.6975   -4.0421   -0.7985 H   0  0  0  0  0  0  0  0  0  0  0  0
   -2.0160   -3.5065    0.9126 H   0  0  0  0  0  0  0  0  0  0  0  0
   -2.7949   -2.0575    1.5578 H   0  0  0  0  0  0  0  0  0  0  0  0
   -0.0556   -2.2416    0.1740 H   0  0  0  0  0  0  0  0  0  0  0  0
   -0.3608   -1.9624    1.8858 H   0  0  0  0  0  0  0  0  0  0  0  0
    0.7951   -0.4265    2.5726 H   0  0  0  0  0  0  0  0  0  0  0  0
    2.8146    0.2266    4.1509 H   0  0  0  0  0  0  0  0  0  0  0  0
    5.2563    1.3105    3.5742 H   0  0  0  0  0  0  0  0  0  0  0  0
    2.6022   -0.1559   -0.7408 H   0  0  0  0  0  0  0  0  0  0  0  0
    4.8300   -1.0004   -1.3522 H   0  0  0  0  0  0  0  0  0  0  0  0
    5.6836    0.3720   -0.6139 H   0  0  0  0  0  0  0  0  0  0  0  0
    5.2068    1.5153   -2.7661 H   0  0  0  0  0  0  0  0  0  0  0  0
    3.7860    0.4810   -3.0681 H   0  0  0  0  0  0  0  0  0  0  0  0
    2.5942    2.1896   -1.6968 H   0  0  0  0  0  0  0  0  0  0  0  0
    4.0858    2.6248   -0.8301 H   0  0  0  0  0  0  0  0  0  0  0  0
  1  2  1  0
  2  3  1  0
  2  4  1  0
  4  5  1  0
  5  6  2  0
  6  7  1  0
  7  8  2  0
  8  9  1  0
  9 10  2  0
 10 11  1  0
 11 12  1  0
 12 13  1  0
 13 14  1  0
 14 15  2  0
 14 16  1  0
 16 17  1  0
 17 18  2  0
 18 19  1  0
 19 20  2  0
 20 21  1  0
 21 22  1  0
 22 23  1  0
 23 24  1  0
 24 25  1  0
 13  4  1  0
 21 17  1  0
 25 22  1  0
 10  5  1  0
  1 26  1  0
  1 27  1  0
  1 28  1  0
  2 29  1  0
  3 30  1  0
  3 31  1  0
  3 32  1  0
  4 33  1  0
  6 34  1  0
  7 35  1  0
  8 36  1  0
  9 37  1  0
 11 38  1  0
 11 39  1  0
 12 40  1  0
 12 41  1  0
 16 42  1  0
 18 43  1  0
 19 44  1  0
 22 45  1  0
 23 46  1  0
 23 47  1  0
 24 48  1  0
 24 49  1  0
 25 50  1  0
 25 51  1  0
M  END
$$$$
OCNT-2309901
     RDKit          3D

 49 52  0  0  0  0  0  0  0  0999 V2000
    6.5921    2.3787   -1.1978 C   0  0  0  0  0  0  0  0  0  0  0  0
    5.3010    2.0222   -1.9205 C   0  0  0  0  0  0  0  0  0  0  0  0
    4.6920    0.7183   -1.4113 C   0  0  0  0  0  0  0  0  0  0  0  0
    4.3138    0.8886   -0.0395 O   0  0  0  0  0  0  0  0  0  0  0  0
    3.7961   -0.2803    0.4533 C   0  0  0  0  0  0  0  0  0  0  0  0
    4.6370   -1.1629    1.1229 C   0  0  0  0  0  0  0  0  0  0  0  0
    4.1343   -2.3502    1.6613 C   0  0  0  0  0  0  0  0  0  0  0  0
    2.7636   -2.6007    1.5132 C   0  0  0  0  0  0  0  0  0  0  0  0
    2.0088   -3.6680    1.9405 N   0  0  0  0  0  0  0  0  0  0  0  0
    0.6984   -3.4934    1.5869 C   0  0  0  0  0  0  0  0  0  0  0  0
    0.5841   -2.2893    0.9200 C   0  0  0  0  0  0  0  0  0  0  0  0
   -0.6737   -1.6987    0.3692 C   0  0  0  0  0  0  0  0  0  0  0  0
   -1.3514   -0.7453    1.3531 C   0  0  0  0  0  0  0  0  0  0  0  0
   -2.5458   -0.1449    0.7806 N   0  0  0  0  0  0  0  0  0  0  0  0
   -3.5440    0.3544    1.5924 C   0  0  0  0  0  0  0  0  0  0  0  0
   -3.5489    0.2430    2.8128 O   0  0  0  0  0  0  0  0  0  0  0  0
   -4.6157    1.1132    0.9238 C   0  0  0  0  0  0  0  0  0  0  0  0
   -5.2080    2.1756    1.5986 C   0  0  0  0  0  0  0  0  0  0  0  0
   -6.1809    2.9707    1.0887 N   0  0  0  0  0  0  0  0  0  0  0  0
   -6.6403    2.7237   -0.1569 C   0  0  0  0  0  0  0  0  0  0  0  0
   -6.1133    1.6569   -0.8764 C   0  0  0  0  0  0  0  0  0  0  0  0
   -5.1075    0.8291   -0.3650 C   0  0  0  0  0  0  0  0  0  0  0  0
   -4.8650   -0.1679   -1.3584 C   0  0  0  0  0  0  0  0  0  0  0  0
   -5.6811    0.0922   -2.4350 C   0  0  0  0  0  0  0  0  0  0  0  0
   -6.4292    1.1980   -2.1355 N   0  0  0  0  0  0  0  0  0  0  0  0
    1.8967   -1.7186    0.8655 C   0  0  0  0  0  0  0  0  0  0  0  0
    2.4255   -0.5259    0.3316 C   0  0  0  0  0  0  0  0  0  0  0  0
    7.3388    1.5876   -1.3183 H   0  0  0  0  0  0  0  0  0  0  0  0
    7.0095    3.3042   -1.6063 H   0  0  0  0  0  0  0  0  0  0  0  0
    6.4213    2.5303   -0.1274 H   0  0  0  0  0  0  0  0  0  0  0  0
    4.5861    2.8412   -1.7792 H   0  0  0  0  0  0  0  0  0  0  0  0
    5.5008    1.9345   -2.9938 H   0  0  0  0  0  0  0  0  0  0  0  0
    3.8073    0.4804   -2.0150 H   0  0  0  0  0  0  0  0  0  0  0  0
    5.4208   -0.0962   -1.5121 H   0  0  0  0  0  0  0  0  0  0  0  0
    5.6921   -0.9263    1.2305 H   0  0  0  0  0  0  0  0  0  0  0  0
    4.7862   -3.0441    2.1816 H   0  0  0  0  0  0  0  0  0  0  0  0
    2.3744   -4.4609    2.4492 H   0  0  0  0  0  0  0  0  0  0  0  0
   -0.0444   -4.2364    1.8466 H   0  0  0  0  0  0  0  0  0  0  0  0
   -1.3710   -2.5027    0.1003 H   0  0  0  0  0  0  0  0  0  0  0  0
   -0.4514   -1.1705   -0.5667 H   0  0  0  0  0  0  0  0  0  0  0  0
   -1.6172   -1.2716    2.2775 H   0  0  0  0  0  0  0  0  0  0  0  0
   -0.6797    0.0769    1.6274 H   0  0  0  0  0  0  0  0  0  0  0  0
   -2.4704    0.2467   -0.1498 H   0  0  0  0  0  0  0  0  0  0  0  0
   -4.8952    2.4343    2.6085 H   0  0  0  0  0  0  0  0  0  0  0  0
   -7.4198    3.3757   -0.5324 H   0  0  0  0  0  0  0  0  0  0  0  0
   -4.1770   -1.0014   -1.2907 H   0  0  0  0  0  0  0  0  0  0  0  0
   -5.8037   -0.4226   -3.3791 H   0  0  0  0  0  0  0  0  0  0  0  0
   -7.1306    1.6076   -2.7390 H   0  0  0  0  0  0  0  0  0  0  0  0
    1.7846    0.1950   -0.1640 H   0  0  0  0  0  0  0  0  0  0  0  0
  1  2  1  0
  2  3  1  0
  3  4  1  0
  4  5  1  0
  5  6  2  0
  6  7  1  0
  7  8  2  0
  8  9  1  0
  9 10  1  0
 10 11  2  0
 11 12  1  0
 12 13  1  0
 13 14  1  0
 14 15  1  0
 15 16  2  0
 15 17  1  0
 17 18  1  0
 18 19  2  0
 19 20  1  0
 20 21  2  0
 21 22  1  0
 22 23  1  0
 23 24  2  0
 24 25  1  0
 11 26  1  0
 26 27  2  0
 27  5  1  0
 26  8  1  0
 22 17  2  0
 25 21  1  0
  1 28  1  0
  1 29  1  0
  1 30  1  0
  2 31  1  0
  2 32  1  0
  3 33  1  0
  3 34  1  0
  6 35  1  0
  7 36  1  0
  9 37  1  0
 10 38  1  0
 12 39  1  0
 12 40  1  0
 13 41  1  0
 13 42  1  0
 14 43  1  0
 18 44  1  0
 20 45  1  0
 23 46  1  0
 24 47  1  0
 25 48  1  0
 27 49  1  0
M  END
$$$$
OCNT-2309922
     RDKit          3D

 39 42  0  0  0  0  0  0  0  0999 V2000
    0.3036   -3.0861    0.7564 O   0  0  0  0  0  0  0  0  0  0  0  0
   -0.2175   -2.0251    0.4257 C   0  0  0  0  0  0  0  0  0  0  0  0
    0.4341   -0.9442   -0.1460 N   0  0  0  0  0  0  0  0  0  0  0  0
    1.8146   -0.8275   -0.4564 C   0  0  0  0  0  0  0  0  0  0  0  0
    2.7188   -1.8767   -0.2802 C   0  0  0  0  0  0  0  0  0  0  0  0
    4.0398   -1.8132   -0.5702 N   0  0  0  0  0  0  0  0  0  0  0  0
    4.4950   -0.6449   -1.0611 C   0  0  0  0  0  0  0  0  0  0  0  0
    3.7042    0.4797   -1.2854 C   0  0  0  0  0  0  0  0  0  0  0  0
    4.2685    1.6619   -1.8029 C   0  0  0  0  0  0  0  0  0  0  0  0
    3.4794    2.7858   -2.0252 C   0  0  0  0  0  0  0  0  0  0  0  0
    2.1290    2.7276   -1.7295 C   0  0  0  0  0  0  0  0  0  0  0  0
    1.3610    3.8047   -1.9388 F   0  0  0  0  0  0  0  0  0  0  0  0
    1.5506    1.5677   -1.2168 C   0  0  0  0  0  0  0  0  0  0  0  0
    2.3215    0.4006   -0.9784 C   0  0  0  0  0  0  0  0  0  0  0  0
   -1.7277   -1.8239    0.5974 C   0  0  0  0  0  0  0  0  0  0  0  0
   -2.4004   -1.9073   -0.7766 C   0  0  0  0  0  0  0  0  0  0  0  0
   -3.7991   -1.3298   -0.6916 C   0  0  0  0  0  0  0  0  0  0  0  0
   -3.7500    0.0600   -0.3585 O   0  0  0  0  0  0  0  0  0  0  0  0
   -3.0591    0.3228    0.7932 C   0  0  0  0  0  0  0  0  0  0  0  0
   -3.3543    1.5324    1.4227 C   0  0  0  0  0  0  0  0  0  0  0  0
   -2.7119    1.8775    2.6116 C   0  0  0  0  0  0  0  0  0  0  0  0
   -1.7751    1.0087    3.1648 C   0  0  0  0  0  0  0  0  0  0  0  0
   -0.9897    1.4247    4.6372 Cl  0  0  0  0  0  0  0  0  0  0  0  0
   -1.4627   -0.1938    2.5287 C   0  0  0  0  0  0  0  0  0  0  0  0
   -2.0860   -0.5373    1.3166 C   0  0  0  0  0  0  0  0  0  0  0  0
   -0.1391   -0.1301   -0.3184 H   0  0  0  0  0  0  0  0  0  0  0  0
    2.4226   -2.8459    0.1059 H   0  0  0  0  0  0  0  0  0  0  0  0
    5.5608   -0.6396   -1.2779 H   0  0  0  0  0  0  0  0  0  0  0  0
    5.3310    1.7117   -2.0350 H   0  0  0  0  0  0  0  0  0  0  0  0
    3.9078    3.7000   -2.4231 H   0  0  0  0  0  0  0  0  0  0  0  0
    0.4872    1.6139   -1.0108 H   0  0  0  0  0  0  0  0  0  0  0  0
   -2.1049   -2.6463    1.2209 H   0  0  0  0  0  0  0  0  0  0  0  0
   -2.4291   -2.9483   -1.1186 H   0  0  0  0  0  0  0  0  0  0  0  0
   -1.8305   -1.3412   -1.5245 H   0  0  0  0  0  0  0  0  0  0  0  0
   -4.2927   -1.4126   -1.6657 H   0  0  0  0  0  0  0  0  0  0  0  0
   -4.4231   -1.8638    0.0363 H   0  0  0  0  0  0  0  0  0  0  0  0
   -4.0975    2.2002    0.9936 H   0  0  0  0  0  0  0  0  0  0  0  0
   -2.9530    2.8165    3.1028 H   0  0  0  0  0  0  0  0  0  0  0  0
   -0.7261   -0.8587    2.9775 H   0  0  0  0  0  0  0  0  0  0  0  0
  1  2  2  0
  2  3  1  0
  3  4  1  0
  4  5  1  0
  5  6  2  0
  6  7  1  0
  7  8  2  0
  8  9  1  0
  9 10  2  0
 10 11  1  0
 11 12  1  0
 11 13  2  0
 13 14  1  0
  2 15  1  0
 15 16  1  0
 16 17  1  0
 17 18  1  0
 18 19  1  0
 19 20  1  0
 20 21  2  0
 21 22  1  0
 22 23  1  0
 22 24  2  0
 24 25  1  0
 14  4  2  0
 25 15  1  0
 14  8  1  0
 25 19  2  0
  3 26  1  0
  5 27  1  0
  7 28  1  0
  9 29  1  0
 10 30  1  0
 13 31  1  0
 15 32  1  0
 16 33  1  0
 16 34  1  0
 17 35  1  0
 17 36  1  0
 20 37  1  0
 21 38  1  0
 24 39  1  0
M  END
$$$$
OCNT-2309935
     RDKit          3D

 46 49  0  0  0  0  0  0  0  0999 V2000
   -0.6800    2.6389    1.5409 C   0  0  0  0  0  0  0  0  0  0  0  0
   -1.0200    1.5588    0.6727 O   0  0  0  0  0  0  0  0  0  0  0  0
   -2.1414    0.8761    1.0407 C   0  0  0  0  0  0  0  0  0  0  0  0
   -2.8530    1.1936    1.9877 O   0  0  0  0  0  0  0  0  0  0  0  0
   -2.4308   -0.2498    0.1646 C   0  0  0  0  0  0  0  0  0  0  0  0
   -3.6070   -0.9862    0.1428 C   0  0  0  0  0  0  0  0  0  0  0  0
   -4.8621   -0.9038    0.9464 C   0  0  0  0  0  0  0  0  0  0  0  0
   -6.0102   -1.6846    0.2981 C   0  0  0  0  0  0  0  0  0  0  0  0
   -5.5430   -3.0637   -0.1712 C   0  0  0  0  0  0  0  0  0  0  0  0
   -4.4246   -2.9328   -1.2041 C   0  0  0  0  0  0  0  0  0  0  0  0
   -3.4341   -1.9482   -0.8105 N   0  0  0  0  0  0  0  0  0  0  0  0
   -2.2567   -1.8811   -1.4449 N   0  0  0  0  0  0  0  0  0  0  0  0
   -1.6165   -0.8699   -0.8336 C   0  0  0  0  0  0  0  0  0  0  0  0
   -0.2111   -0.5288   -1.2346 C   0  0  0  0  0  0  0  0  0  0  0  0
    0.6871   -0.6863   -0.1301 O   0  0  0  0  0  0  0  0  0  0  0  0
    1.9321   -0.1324   -0.2626 C   0  0  0  0  0  0  0  0  0  0  0  0
    2.5518    0.1170   -1.4861 C   0  0  0  0  0  0  0  0  0  0  0  0
    3.8377    0.6742   -1.5272 C   0  0  0  0  0  0  0  0  0  0  0  0
    4.5544    0.9946   -0.3609 C   0  0  0  0  0  0  0  0  0  0  0  0
    5.9441    1.5954   -0.4693 C   0  0  0  0  0  0  0  0  0  0  0  0
    6.4457    2.6034    0.5363 C   0  0  0  0  0  0  0  0  0  0  0  0
    7.0334    1.2213    0.5067 C   0  0  0  0  0  0  0  0  0  0  0  0
    3.9164    0.7214    0.8607 C   0  0  0  0  0  0  0  0  0  0  0  0
    2.6318    0.1645    0.9125 C   0  0  0  0  0  0  0  0  0  0  0  0
    1.9354   -0.1218    2.4706 Cl  0  0  0  0  0  0  0  0  0  0  0  0
   -1.4460    3.4189    1.4960 H   0  0  0  0  0  0  0  0  0  0  0  0
    0.2676    3.0628    1.1973 H   0  0  0  0  0  0  0  0  0  0  0  0
   -0.5455    2.2847    2.5679 H   0  0  0  0  0  0  0  0  0  0  0  0
   -5.1680    0.1405    1.0731 H   0  0  0  0  0  0  0  0  0  0  0  0
   -4.6644   -1.3105    1.9457 H   0  0  0  0  0  0  0  0  0  0  0  0
   -6.3990   -1.1232   -0.5614 H   0  0  0  0  0  0  0  0  0  0  0  0
   -6.8344   -1.7884    1.0127 H   0  0  0  0  0  0  0  0  0  0  0  0
   -5.1818   -3.6352    0.6931 H   0  0  0  0  0  0  0  0  0  0  0  0
   -6.3803   -3.6237   -0.6013 H   0  0  0  0  0  0  0  0  0  0  0  0
   -4.8257   -2.6013   -2.1686 H   0  0  0  0  0  0  0  0  0  0  0  0
   -3.9145   -3.8916   -1.3435 H   0  0  0  0  0  0  0  0  0  0  0  0
   -0.1963    0.5037   -1.6068 H   0  0  0  0  0  0  0  0  0  0  0  0
    0.1044   -1.1981   -2.0448 H   0  0  0  0  0  0  0  0  0  0  0  0
    2.0736   -0.1246   -2.4301 H   0  0  0  0  0  0  0  0  0  0  0  0
    4.2928    0.8551   -2.5003 H   0  0  0  0  0  0  0  0  0  0  0  0
    6.2895    1.7657   -1.4898 H   0  0  0  0  0  0  0  0  0  0  0  0
    7.0551    3.4216    0.1680 H   0  0  0  0  0  0  0  0  0  0  0  0
    5.8202    2.8769    1.3775 H   0  0  0  0  0  0  0  0  0  0  0  0
    8.0393    1.1047    0.1178 H   0  0  0  0  0  0  0  0  0  0  0  0
    6.8072    0.5493    1.3260 H   0  0  0  0  0  0  0  0  0  0  0  0
    4.4272    0.9427    1.7947 H   0  0  0  0  0  0  0  0  0  0  0  0
  1  2  1  0
  2  3  1  0
  3  4  2  0
  3  5  1  0
  5  6  2  0
  6  7  1  0
  7  8  1  0
  8  9  1  0
  9 10  1  0
 10 11  1  0
 11 12  1  0
 12 13  2  0
 13 14  1  0
 14 15  1  0
 15 16  1  0
 16 17  1  0
 17 18  2  0
 18 19  1  0
 19 20  1  0
 20 21  1  0
 21 22  1  0
 19 23  2  0
 23 24  1  0
 24 25  1  0
 13  5  1  0
 24 16  2  0
 11  6  1  0
 22 20  1  0
  1 26  1  0
  1 27  1  0
  1 28  1  0
  7 29  1  0
  7 30  1  0
  8 31  1  0
  8 32  1  0
  9 33  1  0
  9 34  1  0
 10 35  1  0
 10 36  1  0
 14 37  1  0
 14 38  1  0
 17 39  1  0
 18 40  1  0
 20 41  1  0
 21 42  1  0
 21 43  1  0
 22 44  1  0
 22 45  1  0
 23 46  1  0
M  END
$$$$
OCNT-2309936
     RDKit          3D

 38 42  0  0  0  0  0  0  0  0999 V2000
    5.7941   -0.9802   -1.0826 C   0  0  0  0  0  0  0  0  0  0  0  0
    4.5221   -1.0252   -0.5506 C   0  0  0  0  0  0  0  0  0  0  0  0
    4.2674    0.2257    0.0857 C   0  0  0  0  0  0  0  0  0  0  0  0
    3.2051    0.8182    0.7983 C   0  0  0  0  0  0  0  0  0  0  0  0
    1.9817    0.1598    1.0405 N   0  0  0  0  0  0  0  0  0  0  0  0
    1.2068   -0.5139    0.0309 C   0  0  0  0  0  0  0  0  0  0  0  0
    0.0984    0.5275    0.2564 C   0  0  0  0  0  0  0  0  0  0  0  0
   -1.3685    0.0543    0.2753 C   0  0  0  0  0  0  0  0  0  0  0  0
   -1.7318   -0.8940   -0.6062 N   0  0  0  0  0  0  0  0  0  0  0  0
   -3.0289   -1.2713   -0.5766 C   0  0  0  0  0  0  0  0  0  0  0  0
   -3.9898   -0.7515    0.2733 C   0  0  0  0  0  0  0  0  0  0  0  0
   -5.4201   -1.2129    0.2913 C   0  0  0  0  0  0  0  0  0  0  0  0
   -6.5427   -0.2128    0.1362 C   0  0  0  0  0  0  0  0  0  0  0  0
   -6.2470   -1.1757   -0.9734 C   0  0  0  0  0  0  0  0  0  0  0  0
   -3.4862    0.2125    1.1295 C   0  0  0  0  0  0  0  0  0  0  0  0
   -2.2039    0.6362    1.1531 N   0  0  0  0  0  0  0  0  0  0  0  0
    0.8100    0.7917    1.5917 C   0  0  0  0  0  0  0  0  0  0  0  0
    3.4052    2.0689    1.2952 N   0  0  0  0  0  0  0  0  0  0  0  0
    4.5796    2.6860    1.0646 C   0  0  0  0  0  0  0  0  0  0  0  0
    5.6405    2.2236    0.3844 N   0  0  0  0  0  0  0  0  0  0  0  0
    5.4178    0.9839   -0.0721 C   0  0  0  0  0  0  0  0  0  0  0  0
    6.3246    0.2484   -0.7848 N   0  0  0  0  0  0  0  0  0  0  0  0
    6.3651   -1.7125   -1.6375 H   0  0  0  0  0  0  0  0  0  0  0  0
    3.8456   -1.8679   -0.6066 H   0  0  0  0  0  0  0  0  0  0  0  0
    1.6385   -0.5088   -0.9735 H   0  0  0  0  0  0  0  0  0  0  0  0
    0.9760   -1.5414    0.3326 H   0  0  0  0  0  0  0  0  0  0  0  0
    0.2175    1.3823   -0.4280 H   0  0  0  0  0  0  0  0  0  0  0  0
   -3.2890   -2.0453   -1.2945 H   0  0  0  0  0  0  0  0  0  0  0  0
   -5.6226   -2.0468    0.9622 H   0  0  0  0  0  0  0  0  0  0  0  0
   -7.4448   -0.3694    0.7176 H   0  0  0  0  0  0  0  0  0  0  0  0
   -6.3054    0.8321   -0.0316 H   0  0  0  0  0  0  0  0  0  0  0  0
   -5.8119   -0.7740   -1.8820 H   0  0  0  0  0  0  0  0  0  0  0  0
   -6.9488   -1.9847   -1.1441 H   0  0  0  0  0  0  0  0  0  0  0  0
   -4.1332    0.6956    1.8577 H   0  0  0  0  0  0  0  0  0  0  0  0
    0.4346    0.2315    2.4555 H   0  0  0  0  0  0  0  0  0  0  0  0
    0.9202    1.8454    1.8607 H   0  0  0  0  0  0  0  0  0  0  0  0
    4.6786    3.6837    1.4813 H   0  0  0  0  0  0  0  0  0  0  0  0
    7.2453    0.5811   -1.0315 H   0  0  0  0  0  0  0  0  0  0  0  0
  1  2  2  0
  2  3  1  0
  3  4  2  0
  4  5  1  0
  5  6  1  0
  6  7  1  0
  7  8  1  0
  8  9  2  0
  9 10  1  0
 10 11  2  0
 11 12  1  0
 12 13  1  0
 13 14  1  0
 11 15  1  0
 15 16  2  0
  7 17  1  0
  4 18  1  0
 18 19  2  0
 19 20  1  0
 20 21  2  0
 21 22  1  0
 22  1  1  0
 21  3  1  0
 17  5  1  0
 16  8  1  0
 14 12  1  0
  1 23  1  0
  2 24  1  0
  6 25  1  0
  6 26  1  0
  7 27  1  0
 10 28  1  0
 12 29  1  0
 13 30  1  0
 13 31  1  0
 14 32  1  0
 14 33  1  0
 15 34  1  0
 17 35  1  0
 17 36  1  0
 19 37  1  0
 22 38  1  0
M  END
$$$$
OCNT-2309940
     RDKit          3D

 38 40  0  0  0  0  0  0  0  0999 V2000
    6.3837   -1.3027    1.3113 N   0  0  0  0  0  0  0  0  0  0  0  0
    5.0341   -1.3293    0.7419 C   0  0  0  0  0  0  0  0  0  0  0  0
    4.5597    0.0630    0.3059 C   0  0  0  0  0  0  0  0  0  0  0  0
    3.1845    0.0376   -0.2833 C   0  0  0  0  0  0  0  0  0  0  0  0
    2.8706   -0.0064   -1.6286 C   0  0  0  0  0  0  0  0  0  0  0  0
    1.5080   -0.0244   -1.7513 N   0  0  0  0  0  0  0  0  0  0  0  0
    0.9172    0.0191   -0.5110 C   0  0  0  0  0  0  0  0  0  0  0  0
    1.9431    0.0497    0.4327 C   0  0  0  0  0  0  0  0  0  0  0  0
    1.5954    0.0791    1.7990 C   0  0  0  0  0  0  0  0  0  0  0  0
    0.2445    0.0623    2.1677 C   0  0  0  0  0  0  0  0  0  0  0  0
   -0.7578    0.0325    1.1995 C   0  0  0  0  0  0  0  0  0  0  0  0
   -0.4378    0.0346   -0.1618 C   0  0  0  0  0  0  0  0  0  0  0  0
   -1.3869   -0.0121   -1.1483 O   0  0  0  0  0  0  0  0  0  0  0  0
   -2.3252    1.0715   -1.0777 C   0  0  0  0  0  0  0  0  0  0  0  0
   -3.6700    0.6277   -0.5478 C   0  0  0  0  0  0  0  0  0  0  0  0
   -4.4402    1.5034    0.2317 C   0  0  0  0  0  0  0  0  0  0  0  0
   -5.6949    1.1151    0.7052 C   0  0  0  0  0  0  0  0  0  0  0  0
   -6.1972   -0.1476    0.3974 C   0  0  0  0  0  0  0  0  0  0  0  0
   -5.4476   -1.0218   -0.3869 C   0  0  0  0  0  0  0  0  0  0  0  0
   -4.1933   -0.6349   -0.8615 C   0  0  0  0  0  0  0  0  0  0  0  0
    7.0348   -0.9252    0.6238 H   0  0  0  0  0  0  0  0  0  0  0  0
    6.4064   -0.6628    2.1043 H   0  0  0  0  0  0  0  0  0  0  0  0
    5.0280   -2.0156   -0.1127 H   0  0  0  0  0  0  0  0  0  0  0  0
    4.3494   -1.7483    1.4880 H   0  0  0  0  0  0  0  0  0  0  0  0
    4.5726    0.7473    1.1638 H   0  0  0  0  0  0  0  0  0  0  0  0
    5.2609    0.4773   -0.4303 H   0  0  0  0  0  0  0  0  0  0  0  0
    3.5015   -0.0325   -2.5072 H   0  0  0  0  0  0  0  0  0  0  0  0
    0.9900   -0.0685   -2.6181 H   0  0  0  0  0  0  0  0  0  0  0  0
    2.3660    0.0982    2.5640 H   0  0  0  0  0  0  0  0  0  0  0  0
   -0.0241    0.0626    3.2213 H   0  0  0  0  0  0  0  0  0  0  0  0
   -1.7959   -0.0089    1.5183 H   0  0  0  0  0  0  0  0  0  0  0  0
   -2.4715    1.4324   -2.1028 H   0  0  0  0  0  0  0  0  0  0  0  0
   -1.9275    1.9188   -0.5022 H   0  0  0  0  0  0  0  0  0  0  0  0
   -4.0663    2.4946    0.4788 H   0  0  0  0  0  0  0  0  0  0  0  0
   -6.2816    1.7988    1.3132 H   0  0  0  0  0  0  0  0  0  0  0  0
   -7.1737   -0.4499    0.7663 H   0  0  0  0  0  0  0  0  0  0  0  0
   -5.8388   -2.0062   -0.6303 H   0  0  0  0  0  0  0  0  0  0  0  0
   -3.6199   -1.3283   -1.4739 H   0  0  0  0  0  0  0  0  0  0  0  0
  1  2  1  0
  2  3  1  0
  3  4  1  0
  4  5  2  0
  5  6  1  0
  6  7  1  0
  7  8  1  0
  8  9  2  0
  9 10  1  0
 10 11  2  0
 11 12  1  0
 12 13  1  0
 13 14  1  0
 14 15  1  0
 15 16  2  0
 16 17  1  0
 17 18  2  0
 18 19  1  0
 19 20  2  0
  8  4  1  0
 20 15  1  0
 12  7  2  0
  1 21  1  0
  1 22  1  0
  2 23  1  0
  2 24  1  0
  3 25  1  0
  3 26  1  0
  5 27  1  0
  6 28  1  0
  9 29  1  0
 10 30  1  0
 11 31  1  0
 14 32  1  0
 14 33  1  0
 16 34  1  0
 17 35  1  0
 18 36  1  0
 19 37  1  0
 20 38  1  0
M  END
$$$$
OCNT-2309942
     RDKit          3D

 47 50  0  0  0  0  0  0  0  0999 V2000
    5.1133    2.4655   -0.0700 C   0  0  0  0  0  0  0  0  0  0  0  0
    3.9302    1.6482   -0.5236 C   0  0  0  0  0  0  0  0  0  0  0  0
    3.1332    2.1533   -1.5572 C   0  0  0  0  0  0  0  0  0  0  0  0
    2.0409    1.4292   -2.0096 C   0  0  0  0  0  0  0  0  0  0  0  0
    1.7408    0.1934   -1.4236 C   0  0  0  0  0  0  0  0  0  0  0  0
    0.3504   -0.7086   -2.0465 S   0  0  0  0  0  0  0  0  0  0  0  0
    0.8497   -1.9203   -2.6561 O   0  0  0  0  0  0  0  0  0  0  0  0
   -0.4775    0.2176   -2.7928 O   0  0  0  0  0  0  0  0  0  0  0  0
   -0.5138   -1.1359   -0.6584 N   0  0  0  0  0  0  0  0  0  0  0  0
   -1.2285   -0.0557    0.0732 C   0  0  0  0  0  0  0  0  0  0  0  0
   -0.8629   -0.1064    1.5517 C   0  0  0  0  0  0  0  0  0  0  0  0
   -1.8322   -1.1147    2.1599 C   0  0  0  0  0  0  0  0  0  0  0  0
   -2.8732   -1.3953    1.1589 N   0  0  0  0  0  0  0  0  0  0  0  0
   -2.7381   -0.3430    0.1185 C   0  0  0  0  0  0  0  0  0  0  0  0
   -3.3878   -0.7607   -1.2044 C   0  0  0  0  0  0  0  0  0  0  0  0
   -4.8874   -0.5897   -0.9706 C   0  0  0  0  0  0  0  0  0  0  0  0
   -5.0216    0.4906    0.1032 C   0  0  0  0  0  0  0  0  0  0  0  0
   -3.5948    0.8799    0.4897 C   0  0  0  0  0  0  0  0  0  0  0  0
    2.4933   -0.3536   -0.3842 C   0  0  0  0  0  0  0  0  0  0  0  0
    2.1594   -1.5395    0.1857 N   0  0  0  0  0  0  0  0  0  0  0  0
    2.9336   -2.0420    1.1704 C   0  0  0  0  0  0  0  0  0  0  0  0
    4.0429   -1.3986    1.6646 C   0  0  0  0  0  0  0  0  0  0  0  0
    4.3776   -0.1706    1.1092 C   0  0  0  0  0  0  0  0  0  0  0  0
    3.6124    0.3909    0.0661 C   0  0  0  0  0  0  0  0  0  0  0  0
    5.1974    3.4009   -0.6337 H   0  0  0  0  0  0  0  0  0  0  0  0
    5.0101    2.7301    0.9872 H   0  0  0  0  0  0  0  0  0  0  0  0
    6.0424    1.9072   -0.2232 H   0  0  0  0  0  0  0  0  0  0  0  0
    3.3633    3.1107   -2.0216 H   0  0  0  0  0  0  0  0  0  0  0  0
    1.4342    1.8238   -2.8228 H   0  0  0  0  0  0  0  0  0  0  0  0
    0.0822   -1.7456   -0.0861 H   0  0  0  0  0  0  0  0  0  0  0  0
   -1.0015    0.9295   -0.3458 H   0  0  0  0  0  0  0  0  0  0  0  0
   -1.0344    0.8780    2.0048 H   0  0  0  0  0  0  0  0  0  0  0  0
    0.1792   -0.3766    1.7406 H   0  0  0  0  0  0  0  0  0  0  0  0
   -1.3142   -2.0431    2.4240 H   0  0  0  0  0  0  0  0  0  0  0  0
   -2.2821   -0.7168    3.0755 H   0  0  0  0  0  0  0  0  0  0  0  0
   -2.6393   -2.2838    0.7077 H   0  0  0  0  0  0  0  0  0  0  0  0
   -3.1437   -1.7830   -1.5122 H   0  0  0  0  0  0  0  0  0  0  0  0
   -3.0719   -0.0888   -2.0117 H   0  0  0  0  0  0  0  0  0  0  0  0
   -5.4060   -0.3132   -1.8940 H   0  0  0  0  0  0  0  0  0  0  0  0
   -5.3298   -1.5271   -0.6139 H   0  0  0  0  0  0  0  0  0  0  0  0
   -5.5820    1.3575   -0.2612 H   0  0  0  0  0  0  0  0  0  0  0  0
   -5.5614    0.0916    0.9696 H   0  0  0  0  0  0  0  0  0  0  0  0
   -3.2841    1.7514   -0.1009 H   0  0  0  0  0  0  0  0  0  0  0  0
   -3.5317    1.1662    1.5449 H   0  0  0  0  0  0  0  0  0  0  0  0
    2.6238   -3.0077    1.5605 H   0  0  0  0  0  0  0  0  0  0  0  0
    4.6363   -1.8374    2.4587 H   0  0  0  0  0  0  0  0  0  0  0  0
    5.2535    0.3419    1.4995 H   0  0  0  0  0  0  0  0  0  0  0  0
  1  2  1  0
  2  3  1  0
  3  4  2  0
  4  5  1  0
  5  6  1  0
  6  7  2  0
  6  8  2  0
  6  9  1  0
  9 10  1  0
 10 11  1  0
 11 12  1  0
 12 13  1  0
 13 14  1  0
 14 15  1  0
 15 16  1  0
 16 17  1  0
 17 18  1  0
  5 19  2  0
 19 20  1  0
 20 21  2  0
 21 22  1  0
 22 23  2  0
 23 24  1  0
 24  2  2  0
 14 10  1  0
 24 19  1  0
 18 14  1  0
  1 25  1  0
  1 26  1  0
  1 27  1  0
  3 28  1  0
  4 29  1  0
  9 30  1  0
 10 31  1  0
 11 32  1  0
 11 33  1  0
 12 34  1  0
 12 35  1  0
 13 36  1  0
 15 37  1  0
 15 38  1  0
 16 39  1  0
 16 40  1  0
 17 41  1  0
 17 42  1  0
 18 43  1  0
 18 44  1  0
 21 45  1  0
 22 46  1  0
 23 47  1  0
M  END
$$$$
OCNT-2309963
     RDKit          3D

 39 42  0  0  0  0  0  0  0  0999 V2000
    3.4483    2.1357    2.6851 O   0  0  0  0  0  0  0  0  0  0  0  0
    3.5459    1.0847    1.8220 C   0  0  0  0  0  0  0  0  0  0  0  0
    2.6403    0.9888    0.7777 C   0  0  0  0  0  0  0  0  0  0  0  0
    2.7157   -0.0970   -0.1324 C   0  0  0  0  0  0  0  0  0  0  0  0
    1.8435   -0.3002   -1.2199 C   0  0  0  0  0  0  0  0  0  0  0  0
    0.8080    0.6224   -1.4580 N   0  0  0  0  0  0  0  0  0  0  0  0
   -0.1147    0.3251   -2.5588 C   0  0  0  0  0  0  0  0  0  0  0  0
   -1.1218   -0.7889   -2.2291 C   0  0  0  0  0  0  0  0  0  0  0  0
   -1.9780   -0.4880   -1.0179 C   0  0  0  0  0  0  0  0  0  0  0  0
   -1.7146   -1.1211    0.2037 C   0  0  0  0  0  0  0  0  0  0  0  0
   -2.4676   -0.8430    1.3492 C   0  0  0  0  0  0  0  0  0  0  0  0
   -3.4990    0.0942    1.2335 C   0  0  0  0  0  0  0  0  0  0  0  0
   -4.3888    0.5584    2.1761 N   0  0  0  0  0  0  0  0  0  0  0  0
   -5.2338    1.4799    1.6164 C   0  0  0  0  0  0  0  0  0  0  0  0
   -4.8894    1.6154    0.2909 C   0  0  0  0  0  0  0  0  0  0  0  0
   -3.7943    0.7444    0.0360 C   0  0  0  0  0  0  0  0  0  0  0  0
   -3.0231    0.4488   -1.1053 C   0  0  0  0  0  0  0  0  0  0  0  0
    2.0015   -1.3291   -2.0699 N   0  0  0  0  0  0  0  0  0  0  0  0
    3.0044   -2.1758   -1.8175 C   0  0  0  0  0  0  0  0  0  0  0  0
    3.8693   -2.1000   -0.8007 N   0  0  0  0  0  0  0  0  0  0  0  0
    3.7260   -1.0633    0.0264 C   0  0  0  0  0  0  0  0  0  0  0  0
    4.6185   -0.9417    1.0818 C   0  0  0  0  0  0  0  0  0  0  0  0
    4.5290    0.1201    1.9718 C   0  0  0  0  0  0  0  0  0  0  0  0
    5.4015    0.2189    2.9850 F   0  0  0  0  0  0  0  0  0  0  0  0
    4.1719    2.0448    3.3337 H   0  0  0  0  0  0  0  0  0  0  0  0
    1.8853    1.7621    0.6626 H   0  0  0  0  0  0  0  0  0  0  0  0
    0.2955    0.7973   -0.5954 H   0  0  0  0  0  0  0  0  0  0  0  0
    0.4334    0.0841   -3.4780 H   0  0  0  0  0  0  0  0  0  0  0  0
   -0.6634    1.2499   -2.7756 H   0  0  0  0  0  0  0  0  0  0  0  0
   -1.7831   -0.9391   -3.0922 H   0  0  0  0  0  0  0  0  0  0  0  0
   -0.6078   -1.7463   -2.0848 H   0  0  0  0  0  0  0  0  0  0  0  0
   -0.9047   -1.8460    0.2754 H   0  0  0  0  0  0  0  0  0  0  0  0
   -2.2534   -1.3407    2.2893 H   0  0  0  0  0  0  0  0  0  0  0  0
   -4.4098    0.2576    3.1406 H   0  0  0  0  0  0  0  0  0  0  0  0
   -6.0042    1.9570    2.2069 H   0  0  0  0  0  0  0  0  0  0  0  0
   -5.3721    2.2705   -0.4222 H   0  0  0  0  0  0  0  0  0  0  0  0
   -3.2423    0.9494   -2.0442 H   0  0  0  0  0  0  0  0  0  0  0  0
    3.1268   -3.0069   -2.5035 H   0  0  0  0  0  0  0  0  0  0  0  0
    5.4012   -1.6823    1.2155 H   0  0  0  0  0  0  0  0  0  0  0  0
  1  2  1  0
  2  3  2  0
  3  4  1  0
  4  5  2  0
  5  6  1  0
  6  7  1  0
  7  8  1  0
  8  9  1  0
  9 10  2  0
 10 11  1  0
 11 12  2  0
 12 13  1  0
 13 14  1  0
 14 15  2  0
 15 16  1  0
 16 17  2  0
  5 18  1  0
 18 19  2  0
 19 20  1  0
 20 21  2  0
 21 22  1  0
 22 23  2  0
 23 24  1  0
 23  2  1  0
 21  4  1  0
 17  9  1  0
 16 12  1  0
  1 25  1  0
  3 26  1  0
  6 27  1  0
  7 28  1  0
  7 29  1  0
  8 30  1  0
  8 31  1  0
 10 32  1  0
 11 33  1  0
 13 34  1  0
 14 35  1  0
 15 36  1  0
 17 37  1  0
 19 38  1  0
 22 39  1  0
M  END
$$$$
OCNT-2309973
     RDKit          3D

 55 57  0  0  0  0  0  0  0  0999 V2000
    4.3274   -0.2063   -0.7955 C   0  0  0  0  0  0  0  0  0  0  0  0
    4.0898    0.7339    0.3976 C   0  0  0  0  0  0  0  0  0  0  0  0
    5.2540    1.7483    0.4345 C   0  0  0  0  0  0  0  0  0  0  0  0
    4.1247   -0.0724    1.7083 C   0  0  0  0  0  0  0  0  0  0  0  0
    2.7588    1.4330    0.2632 C   0  0  0  0  0  0  0  0  0  0  0  0
    1.4273    1.0447    0.1635 C   0  0  0  0  0  0  0  0  0  0  0  0
    0.8169   -0.3260    0.1471 C   0  0  0  0  0  0  0  0  0  0  0  0
    0.0434   -0.5088   -1.0884 N   0  0  0  0  0  0  0  0  0  0  0  0
    0.6391   -1.5323   -1.9622 C   0  0  0  0  0  0  0  0  0  0  0  0
    0.4183   -2.9597   -1.4514 C   0  0  0  0  0  0  0  0  0  0  0  0
   -1.0581   -3.2388   -1.1894 C   0  0  0  0  0  0  0  0  0  0  0  0
   -1.6963   -2.1370   -0.3414 C   0  0  0  0  0  0  0  0  0  0  0  0
   -1.4141   -0.7448   -0.9448 C   0  0  0  0  0  0  0  0  0  0  0  0
   -2.2667    0.4163   -0.3202 C   0  0  0  0  0  0  0  0  0  0  0  0
   -2.1854    0.5593    1.2157 C   0  0  0  0  0  0  0  0  0  0  0  0
   -3.2537    1.5037    1.7601 C   0  0  0  0  0  0  0  0  0  0  0  0
   -4.6693    1.0123    1.4762 C   0  0  0  0  0  0  0  0  0  0  0  0
   -4.7359   -0.0066    0.3417 C   0  0  0  0  0  0  0  0  0  0  0  0
   -3.7526    0.2996   -0.7877 C   0  0  0  0  0  0  0  0  0  0  0  0
   -4.1648    1.5148   -1.4235 O   0  0  0  0  0  0  0  0  0  0  0  0
    0.6270    2.1761    0.1224 N   0  0  0  0  0  0  0  0  0  0  0  0
    1.4782    3.1697    0.1519 C   0  0  0  0  0  0  0  0  0  0  0  0
    2.7802    2.8066    0.2472 O   0  0  0  0  0  0  0  0  0  0  0  0
    3.6178   -1.0381   -0.8079 H   0  0  0  0  0  0  0  0  0  0  0  0
    4.2309    0.3265   -1.7488 H   0  0  0  0  0  0  0  0  0  0  0  0
    5.3310   -0.6462   -0.7589 H   0  0  0  0  0  0  0  0  0  0  0  0
    5.1587    2.4392    1.2807 H   0  0  0  0  0  0  0  0  0  0  0  0
    5.2909    2.3488   -0.4824 H   0  0  0  0  0  0  0  0  0  0  0  0
    6.2203    1.2402    0.5343 H   0  0  0  0  0  0  0  0  0  0  0  0
    3.3573   -0.8531    1.7303 H   0  0  0  0  0  0  0  0  0  0  0  0
    3.9551    0.5753    2.5767 H   0  0  0  0  0  0  0  0  0  0  0  0
    5.0945   -0.5651    1.8439 H   0  0  0  0  0  0  0  0  0  0  0  0
    1.6135   -1.0712    0.2334 H   0  0  0  0  0  0  0  0  0  0  0  0
    0.2227   -0.4727    1.0511 H   0  0  0  0  0  0  0  0  0  0  0  0
    0.2020   -1.4393   -2.9652 H   0  0  0  0  0  0  0  0  0  0  0  0
    1.7093   -1.3444   -2.1026 H   0  0  0  0  0  0  0  0  0  0  0  0
    0.8013   -3.6759   -2.1874 H   0  0  0  0  0  0  0  0  0  0  0  0
    0.9871   -3.1253   -0.5288 H   0  0  0  0  0  0  0  0  0  0  0  0
   -1.1741   -4.2085   -0.6927 H   0  0  0  0  0  0  0  0  0  0  0  0
   -1.5876   -3.3071   -2.1479 H   0  0  0  0  0  0  0  0  0  0  0  0
   -2.7739   -2.3237   -0.2872 H   0  0  0  0  0  0  0  0  0  0  0  0
   -1.3100   -2.2058    0.6818 H   0  0  0  0  0  0  0  0  0  0  0  0
   -1.7712   -0.7862   -1.9855 H   0  0  0  0  0  0  0  0  0  0  0  0
   -1.8694    1.3472   -0.7497 H   0  0  0  0  0  0  0  0  0  0  0  0
   -1.2178    0.9666    1.5135 H   0  0  0  0  0  0  0  0  0  0  0  0
   -2.2877   -0.4133    1.7090 H   0  0  0  0  0  0  0  0  0  0  0  0
   -3.1224    1.6348    2.8406 H   0  0  0  0  0  0  0  0  0  0  0  0
   -3.1154    2.4966    1.3141 H   0  0  0  0  0  0  0  0  0  0  0  0
   -5.0934    0.5590    2.3804 H   0  0  0  0  0  0  0  0  0  0  0  0
   -5.3056    1.8751    1.2443 H   0  0  0  0  0  0  0  0  0  0  0  0
   -5.7615   -0.0279   -0.0462 H   0  0  0  0  0  0  0  0  0  0  0  0
   -4.5287   -1.0059    0.7429 H   0  0  0  0  0  0  0  0  0  0  0  0
   -3.8648   -0.4756   -1.5530 H   0  0  0  0  0  0  0  0  0  0  0  0
   -3.8672    2.2610   -0.8755 H   0  0  0  0  0  0  0  0  0  0  0  0
    1.2703    4.2292    0.1175 H   0  0  0  0  0  0  0  0  0  0  0  0
  1  2  1  0
  2  3  1  0
  2  4  1  0
  2  5  1  0
  5  6  2  0
  6  7  1  0
  7  8  1  0
  8  9  1  0
  9 10  1  0
 10 11  1  0
 11 12  1  0
 12 13  1  0
 13 14  1  0
 14 15  1  0
 15 16  1  0
 16 17  1  0
 17 18  1  0
 18 19  1  0
 19 20  1  0
  6 21  1  0
 21 22  2  0
 22 23  1  0
 23  5  1  0
 13  8  1  0
 19 14  1  0
  1 24  1  0
  1 25  1  0
  1 26  1  0
  3 27  1  0
  3 28  1  0
  3 29  1  0
  4 30  1  0
  4 31  1  0
  4 32  1  0
  7 33  1  0
  7 34  1  0
  9 35  1  0
  9 36  1  0
 10 37  1  0
 10 38  1  0
 11 39  1  0
 11 40  1  0
 12 41  1  0
 12 42  1  0
 13 43  1  0
 14 44  1  0
 15 45  1  0
 15 46  1  0
 16 47  1  0
 16 48  1  0
 17 49  1  0
 17 50  1  0
 18 51  1  0
 18 52  1  0
 19 53  1  0
 20 54  1  0
 22 55  1  0
M  END
$$$$
OCNT-2309977
     RDKit          3D

  0  0  0  0  0  0  0  0  0  0999 V3000
M  V30 BEGIN CTAB
M  V30 COUNTS 43 45 0 0 0
M  V30 BEGIN ATOM
M  V30 1 C 3.248748 2.337136 1.155986 0
M  V30 2 O 3.210144 1.281378 2.108412 0
M  V30 3 C 3.989097 0.152195 1.711410 0
M  V30 4 C 3.229109 -0.724464 0.746208 0
M  V30 5 C 3.838498 -1.195678 -0.425947 0
M  V30 6 C 3.130255 -2.011785 -1.312089 0
M  V30 7 Cl 3.895131 -2.566975 -2.749960 0
M  V30 8 C 1.813136 -2.373886 -1.049138 0
M  V30 9 C 1.207844 -1.913432 0.121047 0
M  V30 10 S -0.482986 -2.328692 0.451262 0
M  V30 11 O -0.475563 -3.200016 1.604241 0
M  V30 12 O -1.121308 -2.706768 -0.788738 0
M  V30 13 N -1.142658 -0.880333 0.968879 0
M  V30 14 C -1.690894 0.158025 0.073291 0 CFG=2
M  V30 15 C -1.928284 1.435039 0.922567 0
M  V30 16 C -3.281175 1.980563 0.494594 0
M  V30 17 C -4.076827 0.722409 0.206027 0
M  V30 18 C -3.085924 -0.230718 -0.470381 0 CFG=1
M  V30 19 C -2.975395 -0.020625 -1.985427 0
M  V30 20 N -1.857576 0.909592 -2.170751 0
M  V30 21 C -0.863122 0.464061 -1.188243 0
M  V30 22 C 1.906625 -1.101201 1.020563 0
M  V30 23 H 2.835890 2.014445 0.195648 0
M  V30 24 H 2.637751 3.160991 1.534756 0
M  V30 25 H 4.273624 2.697291 1.024634 0
M  V30 26 H 4.951767 0.479746 1.300976 0
M  V30 27 H 4.203217 -0.435053 2.611437 0
M  V30 28 H 4.867724 -0.925482 -0.653309 0
M  V30 29 H 1.266030 -3.004138 -1.746206 0
M  V30 30 H -1.576590 -0.977601 1.887431 0
M  V30 31 H -1.136309 2.181841 0.802387 0
M  V30 32 H -1.971362 1.195329 1.993212 0
M  V30 33 H -3.186363 2.599205 -0.404238 0
M  V30 34 H -3.743900 2.592134 1.274831 0
M  V30 35 H -4.964942 0.922580 -0.400737 0
M  V30 36 H -4.414116 0.281319 1.152445 0
M  V30 37 H -3.373759 -1.267215 -0.262513 0
M  V30 38 H -2.742809 -0.972859 -2.477730 0
M  V30 39 H -3.894532 0.370410 -2.431573 0
M  V30 40 H -1.486187 0.826416 -3.116802 0
M  V30 41 H -0.104417 1.234567 -1.018793 0
M  V30 42 H -0.352124 -0.409534 -1.596517 0
M  V30 43 H 1.424531 -0.750218 1.932327 0
M  V30 END ATOM
M  V30 BEGIN BOND
M  V30 1 1 1 2
M  V30 2 1 2 3
M  V30 3 1 3 4
M  V30 4 1 4 5
M  V30 5 2 5 6
M  V30 6 1 6 7
M  V30 7 1 6 8
M  V30 8 2 8 9
M  V30 9 1 9 10
M  V30 10 2 10 11
M  V30 11 2 10 12
M  V30 12 1 10 13
M  V30 13 1 14 13 CFG=1
M  V30 14 1 14 15
M  V30 15 1 15 16
M  V30 16 1 16 17
M  V30 17 1 17 18
M  V30 18 1 18 19
M  V30 19 1 19 20
M  V30 20 1 20 21
M  V30 21 1 9 22
M  V30 22 2 22 4
M  V30 23 1 18 14
M  V30 24 1 21 14
M  V30 25 1 1 23
M  V30 26 1 1 24
M  V30 27 1 1 25
M  V30 28 1 3 26
M  V30 29 1 3 27
M  V30 30 1 5 28
M  V30 31 1 8 29
M  V30 32 1 13 30
M  V30 33 1 15 31
M  V30 34 1 15 32
M  V30 35 1 16 33
M  V30 36 1 16 34
M  V30 37 1 17 35
M  V30 38 1 17 36
M  V30 39 1 18 37 CFG=3
M  V30 40 1 19 38
M  V30 41 1 19 39
M  V30 42 1 20 40
M  V30 43 1 21 41
M  V30 44 1 21 42
M  V30 45 1 22 43
M  V30 END BOND
M  V30 BEGIN COLLECTION
M  V30 MDLV30/STERAC1 ATOMS=(2 14 18)
M  V30 END COLLECTION
M  V30 END CTAB
M  END
>  <_CXSMILES_Data>  (271) 
|&1:13,17|

$$$$
OCNT-2309987
     RDKit          3D

 56 59  0  0  0  0  0  0  0  0999 V2000
    4.9747   -0.3029    2.4217 O   0  0  0  0  0  0  0  0  0  0  0  0
    5.0822   -0.9322    1.1186 S   0  0  0  0  0  0  0  0  0  0  0  0
    6.1155   -1.9187    0.8623 O   0  0  0  0  0  0  0  0  0  0  0  0
    3.5107   -1.6622    0.7105 C   0  0  0  0  0  0  0  0  0  0  0  0
    2.3570   -0.6909    0.9074 C   0  0  0  0  0  0  0  0  0  0  0  0
    1.0866   -1.3372    0.5537 N   0  0  0  0  0  0  0  0  0  0  0  0
   -0.0478   -0.4295    0.8084 C   0  0  0  0  0  0  0  0  0  0  0  0
   -1.3789   -1.0492    0.4508 C   0  0  0  0  0  0  0  0  0  0  0  0
   -1.6234   -2.4074    0.7021 C   0  0  0  0  0  0  0  0  0  0  0  0
   -2.8501   -2.9843    0.3644 C   0  0  0  0  0  0  0  0  0  0  0  0
   -3.1193   -4.3465    0.5891 C   0  0  0  0  0  0  0  0  0  0  0  0
   -4.3529   -4.8875    0.2338 C   0  0  0  0  0  0  0  0  0  0  0  0
   -5.3177   -4.0712   -0.3448 C   0  0  0  0  0  0  0  0  0  0  0  0
   -5.0430   -2.7176   -0.5634 C   0  0  0  0  0  0  0  0  0  0  0  0
   -3.8217   -2.1535   -0.2178 C   0  0  0  0  0  0  0  0  0  0  0  0
   -3.6113   -0.8455   -0.4394 N   0  0  0  0  0  0  0  0  0  0  0  0
   -2.4233   -0.2903   -0.0982 C   0  0  0  0  0  0  0  0  0  0  0  0
   -2.2596    1.1035   -0.2807 N   0  0  0  0  0  0  0  0  0  0  0  0
   -2.9990    1.5971   -1.4481 C   0  0  0  0  0  0  0  0  0  0  0  0
   -2.5326    3.0242   -1.7531 C   0  0  0  0  0  0  0  0  0  0  0  0
   -2.2830    3.8541   -0.4902 C   0  0  0  0  0  0  0  0  0  0  0  0
   -3.0017    3.2663    0.7176 C   0  0  0  0  0  0  0  0  0  0  0  0
   -2.5905    1.8105    0.9745 C   0  0  0  0  0  0  0  0  0  0  0  0
    5.2980    0.3548   -0.0891 C   0  0  0  0  0  0  0  0  0  0  0  0
    5.1352    1.6928    0.2796 C   0  0  0  0  0  0  0  0  0  0  0  0
    5.3065    2.6914   -0.6788 C   0  0  0  0  0  0  0  0  0  0  0  0
    5.6484    2.3521   -1.9893 C   0  0  0  0  0  0  0  0  0  0  0  0
    5.8287    1.0145   -2.3462 C   0  0  0  0  0  0  0  0  0  0  0  0
    5.6588    0.0093   -1.3948 C   0  0  0  0  0  0  0  0  0  0  0  0
    3.3973   -2.5346    1.3643 H   0  0  0  0  0  0  0  0  0  0  0  0
    3.5706   -2.0205   -0.3228 H   0  0  0  0  0  0  0  0  0  0  0  0
    2.4981    0.2011    0.2875 H   0  0  0  0  0  0  0  0  0  0  0  0
    2.3275   -0.3659    1.9541 H   0  0  0  0  0  0  0  0  0  0  0  0
    1.0768   -1.5655   -0.4419 H   0  0  0  0  0  0  0  0  0  0  0  0
    0.1149    0.4850    0.2268 H   0  0  0  0  0  0  0  0  0  0  0  0
   -0.0785   -0.1599    1.8710 H   0  0  0  0  0  0  0  0  0  0  0  0
   -0.8451   -3.0159    1.1583 H   0  0  0  0  0  0  0  0  0  0  0  0
   -2.3672   -4.9895    1.0405 H   0  0  0  0  0  0  0  0  0  0  0  0
   -4.5588   -5.9404    0.4077 H   0  0  0  0  0  0  0  0  0  0  0  0
   -6.2844   -4.4802   -0.6265 H   0  0  0  0  0  0  0  0  0  0  0  0
   -5.8031   -2.0836   -1.0136 H   0  0  0  0  0  0  0  0  0  0  0  0
   -4.0820    1.5931   -1.2642 H   0  0  0  0  0  0  0  0  0  0  0  0
   -2.8091    0.9756   -2.3329 H   0  0  0  0  0  0  0  0  0  0  0  0
   -1.6074    2.9965   -2.3421 H   0  0  0  0  0  0  0  0  0  0  0  0
   -3.2835    3.5152   -2.3834 H   0  0  0  0  0  0  0  0  0  0  0  0
   -2.5984    4.8903   -0.6566 H   0  0  0  0  0  0  0  0  0  0  0  0
   -1.2052    3.8846   -0.2855 H   0  0  0  0  0  0  0  0  0  0  0  0
   -4.0847    3.3121    0.5447 H   0  0  0  0  0  0  0  0  0  0  0  0
   -2.8060    3.8689    1.6117 H   0  0  0  0  0  0  0  0  0  0  0  0
   -3.4007    1.3168    1.5282 H   0  0  0  0  0  0  0  0  0  0  0  0
   -1.7052    1.8070    1.6213 H   0  0  0  0  0  0  0  0  0  0  0  0
    4.8829    1.9668    1.3016 H   0  0  0  0  0  0  0  0  0  0  0  0
    5.1830    3.7361   -0.4034 H   0  0  0  0  0  0  0  0  0  0  0  0
    5.7878    3.1343   -2.7322 H   0  0  0  0  0  0  0  0  0  0  0  0
    6.1126    0.7584   -3.3645 H   0  0  0  0  0  0  0  0  0  0  0  0
    5.8214   -1.0295   -1.6740 H   0  0  0  0  0  0  0  0  0  0  0  0
  1  2  2  0
  2  3  2  0
  2  4  1  0
  4  5  1  0
  5  6  1  0
  6  7  1  0
  7  8  1  0
  8  9  2  0
  9 10  1  0
 10 11  2  0
 11 12  1  0
 12 13  2  0
 13 14  1  0
 14 15  2  0
 15 16  1  0
 16 17  2  0
 17 18  1  0
 18 19  1  0
 19 20  1  0
 20 21  1  0
 21 22  1  0
 22 23  1  0
  2 24  1  0
 24 25  2  0
 25 26  1  0
 26 27  2  0
 27 28  1  0
 28 29  2  0
 17  8  1  0
 23 18  1  0
 29 24  1  0
 15 10  1  0
  4 30  1  0
  4 31  1  0
  5 32  1  0
  5 33  1  0
  6 34  1  0
  7 35  1  0
  7 36  1  0
  9 37  1  0
 11 38  1  0
 12 39  1  0
 13 40  1  0
 14 41  1  0
 19 42  1  0
 19 43  1  0
 20 44  1  0
 20 45  1  0
 21 46  1  0
 21 47  1  0
 22 48  1  0
 22 49  1  0
 23 50  1  0
 23 51  1  0
 25 52  1  0
 26 53  1  0
 27 54  1  0
 28 55  1  0
 29 56  1  0
M  END
$$$$
OCNT-2309990
     RDKit          3D

  0  0  0  0  0  0  0  0  0  0999 V3000
M  V30 BEGIN CTAB
M  V30 COUNTS 54 57 0 0 0
M  V30 BEGIN ATOM
M  V30 1 C 2.943558 3.079853 -0.639701 0
M  V30 2 C 2.804675 1.585572 -0.644894 0
M  V30 3 C 1.543778 0.989976 -0.499140 0
M  V30 4 C 1.393670 -0.407834 -0.505645 0
M  V30 5 C 0.022611 -1.024358 -0.334577 0
M  V30 6 N -0.821999 -0.730295 -1.489757 0
M  V30 7 C -2.211842 -1.173627 -1.371822 0 CFG=2
M  V30 8 C -3.077471 -0.363428 -0.394677 0
M  V30 9 C -4.161218 -1.340390 0.111115 0
M  V30 10 C -5.584763 -0.790246 0.019251 0
M  V30 11 N -5.819677 0.322616 0.921913 0
M  V30 12 C -6.000975 1.632379 0.581612 0
M  V30 13 C -6.186596 2.309525 1.763849 0
M  V30 14 C -6.106889 1.317814 2.758667 0
M  V30 15 N -5.887178 0.102732 2.249361 0
M  V30 16 C -3.977350 -2.617344 -0.715727 0
M  V30 17 C -2.480100 -2.641284 -0.994495 0 CFG=1
M  V30 18 O -2.160638 -3.518153 -2.060394 0
M  V30 19 C 2.527251 -1.213786 -0.677472 0
M  V30 20 C 3.788774 -0.634684 -0.816679 0
M  V30 21 C 3.925675 0.755928 -0.774391 0
M  V30 22 O 5.166103 1.330544 -0.930219 0
M  V30 23 C 6.090117 1.120498 0.064664 0
M  V30 24 C 5.787559 0.894864 1.406587 0
M  V30 25 C 6.824502 0.732200 2.323090 0
M  V30 26 C 8.130429 0.813435 1.864010 0
M  V30 27 N 8.459938 1.041811 0.574984 0
M  V30 28 C 7.430003 1.197720 -0.292027 0
M  V30 29 H 3.506154 3.404001 0.242072 0
M  V30 30 H 1.966374 3.573743 -0.615232 0
M  V30 31 H 3.459963 3.417702 -1.544118 0
M  V30 32 H 0.657148 1.613477 -0.390928 0
M  V30 33 H -0.404763 -0.629604 0.593974 0
M  V30 34 H 0.130963 -2.107037 -0.203279 0
M  V30 35 H -0.409487 -1.206363 -2.295463 0
M  V30 36 H -2.636621 -1.015976 -2.374165 0
M  V30 37 H -2.509734 0.012345 0.462292 0
M  V30 38 H -3.497352 0.511503 -0.903446 0
M  V30 39 H -3.930963 -1.581074 1.157987 0
M  V30 40 H -5.811548 -0.451086 -0.998410 0
M  V30 41 H -6.317241 -1.563688 0.279708 0
M  V30 42 H -5.977683 1.967070 -0.445852 0
M  V30 43 H -6.355642 3.369522 1.890480 0
M  V30 44 H -6.199835 1.429022 3.831421 0
M  V30 45 H -4.546077 -2.583047 -1.653690 0
M  V30 46 H -4.305320 -3.511818 -0.175753 0
M  V30 47 H -1.932433 -2.948247 -0.096675 0
M  V30 48 H -2.411541 -4.416889 -1.785256 0
M  V30 49 H 2.435071 -2.296963 -0.706445 0
M  V30 50 H 4.661208 -1.266246 -0.957058 0
M  V30 51 H 4.759490 0.858427 1.755796 0
M  V30 52 H 6.616601 0.559106 3.372981 0
M  V30 53 H 8.970960 0.698249 2.543083 0
M  V30 54 H 7.720364 1.391833 -1.320247 0
M  V30 END ATOM
M  V30 BEGIN BOND
M  V30 1 1 1 2
M  V30 2 1 2 3
M  V30 3 2 3 4
M  V30 4 1 4 5
M  V30 5 1 5 6
M  V30 6 1 6 7
M  V30 7 1 7 8
M  V30 8 1 8 9
M  V30 9 1 9 10
M  V30 10 1 10 11
M  V30 11 1 11 12
M  V30 12 2 12 13
M  V30 13 1 13 14
M  V30 14 2 14 15
M  V30 15 1 9 16
M  V30 16 1 16 17
M  V30 17 1 17 18
M  V30 18 1 4 19
M  V30 19 2 19 20
M  V30 20 1 20 21
M  V30 21 1 21 22
M  V30 22 1 22 23
M  V30 23 1 23 24
M  V30 24 2 24 25
M  V30 25 1 25 26
M  V30 26 2 26 27
M  V30 27 1 27 28
M  V30 28 2 21 2
M  V30 29 2 28 23
M  V30 30 1 17 7
M  V30 31 1 15 11
M  V30 32 1 1 29
M  V30 33 1 1 30
M  V30 34 1 1 31
M  V30 35 1 3 32
M  V30 36 1 5 33
M  V30 37 1 5 34
M  V30 38 1 6 35
M  V30 39 1 7 36 CFG=3
M  V30 40 1 8 37
M  V30 41 1 8 38
M  V30 42 1 9 39
M  V30 43 1 10 40
M  V30 44 1 10 41
M  V30 45 1 12 42
M  V30 46 1 13 43
M  V30 47 1 14 44
M  V30 48 1 16 45
M  V30 49 1 16 46
M  V30 50 1 17 47 CFG=1
M  V30 51 1 18 48
M  V30 52 1 19 49
M  V30 53 1 20 50
M  V30 54 1 24 51
M  V30 55 1 25 52
M  V30 56 1 26 53
M  V30 57 1 28 54
M  V30 END BOND
M  V30 BEGIN COLLECTION
M  V30 MDLV30/STERAC1 ATOMS=(2 7 17)
M  V30 END COLLECTION
M  V30 END CTAB
M  END
>  <_CXSMILES_Data>  (273) 
|&1:6,16|

$$$$
OCNT-2310006
     RDKit          3D

 53 57  0  0  0  0  0  0  0  0999 V2000
   -0.1352   -0.3317    2.1905 O   0  0  0  0  0  0  0  0  0  0  0  0
   -0.4009   -1.4425    1.7434 C   0  0  0  0  0  0  0  0  0  0  0  0
   -1.6489   -2.2049    2.1567 C   0  0  0  0  0  0  0  0  0  0  0  0
   -2.5101   -1.4180    3.1376 C   0  0  0  0  0  0  0  0  0  0  0  0
   -3.1463   -0.2702    2.5242 N   0  0  0  0  0  0  0  0  0  0  0  0
   -4.2790   -0.3913    1.7465 C   0  0  0  0  0  0  0  0  0  0  0  0
   -4.8508   -1.4689    1.6010 O   0  0  0  0  0  0  0  0  0  0  0  0
   -4.7276    0.8395    1.0915 C   0  0  0  0  0  0  0  0  0  0  0  0
   -4.1864    2.1105    1.2254 C   0  0  0  0  0  0  0  0  0  0  0  0
   -4.8998    2.9763    0.4393 N   0  0  0  0  0  0  0  0  0  0  0  0
   -5.9120    2.3105   -0.2071 C   0  0  0  0  0  0  0  0  0  0  0  0
   -6.8807    2.7922   -1.0964 C   0  0  0  0  0  0  0  0  0  0  0  0
   -7.8024    1.8766   -1.6107 C   0  0  0  0  0  0  0  0  0  0  0  0
   -7.7559    0.5338   -1.2472 C   0  0  0  0  0  0  0  0  0  0  0  0
   -6.7799    0.0709   -0.3572 C   0  0  0  0  0  0  0  0  0  0  0  0
   -5.8334    0.9714    0.1787 C   0  0  0  0  0  0  0  0  0  0  0  0
    0.3540   -2.1660    0.8323 N   0  0  0  0  0  0  0  0  0  0  0  0
    1.5848   -1.7995    0.2511 C   0  0  0  0  0  0  0  0  0  0  0  0
    2.2731   -0.6246    0.5498 C   0  0  0  0  0  0  0  0  0  0  0  0
    3.4969   -0.3326   -0.0696 C   0  0  0  0  0  0  0  0  0  0  0  0
    4.0490   -1.2133   -1.0045 C   0  0  0  0  0  0  0  0  0  0  0  0
    5.2991   -0.9334   -1.6300 N   0  0  0  0  0  0  0  0  0  0  0  0
    6.1766   -1.8874   -2.1064 C   0  0  0  0  0  0  0  0  0  0  0  0
    7.2967   -1.3773   -2.5608 N   0  0  0  0  0  0  0  0  0  0  0  0
    7.1445   -0.0261   -2.4260 C   0  0  0  0  0  0  0  0  0  0  0  0
    8.0417    0.9933   -2.7834 C   0  0  0  0  0  0  0  0  0  0  0  0
    7.6611    2.3266   -2.6107 C   0  0  0  0  0  0  0  0  0  0  0  0
    6.4025    2.6409   -2.1048 C   0  0  0  0  0  0  0  0  0  0  0  0
    5.4963    1.6376   -1.7376 C   0  0  0  0  0  0  0  0  0  0  0  0
    5.9017    0.2977   -1.8752 C   0  0  0  0  0  0  0  0  0  0  0  0
    3.3698   -2.4046   -1.2924 C   0  0  0  0  0  0  0  0  0  0  0  0
    2.1460   -2.6880   -0.6725 C   0  0  0  0  0  0  0  0  0  0  0  0
   -2.2196   -2.4601    1.2567 H   0  0  0  0  0  0  0  0  0  0  0  0
   -1.3253   -3.1365    2.6359 H   0  0  0  0  0  0  0  0  0  0  0  0
   -3.2925   -2.0718    3.5393 H   0  0  0  0  0  0  0  0  0  0  0  0
   -1.9171   -1.0480    3.9807 H   0  0  0  0  0  0  0  0  0  0  0  0
   -2.5992    0.5788    2.4668 H   0  0  0  0  0  0  0  0  0  0  0  0
   -3.3584    2.4851    1.8118 H   0  0  0  0  0  0  0  0  0  0  0  0
   -4.7171    3.9665    0.3469 H   0  0  0  0  0  0  0  0  0  0  0  0
   -6.9212    3.8385   -1.3807 H   0  0  0  0  0  0  0  0  0  0  0  0
   -8.5681    2.2191   -2.3026 H   0  0  0  0  0  0  0  0  0  0  0  0
   -8.4839   -0.1644   -1.6534 H   0  0  0  0  0  0  0  0  0  0  0  0
   -6.7555   -0.9799   -0.0787 H   0  0  0  0  0  0  0  0  0  0  0  0
   -0.0310   -3.0534    0.5312 H   0  0  0  0  0  0  0  0  0  0  0  0
    1.8957    0.0878    1.2776 H   0  0  0  0  0  0  0  0  0  0  0  0
    4.0157    0.5657    0.2515 H   0  0  0  0  0  0  0  0  0  0  0  0
    5.9725   -2.9483   -2.0535 H   0  0  0  0  0  0  0  0  0  0  0  0
    9.0096    0.7379   -3.2014 H   0  0  0  0  0  0  0  0  0  0  0  0
    8.3480    3.1216   -2.8909 H   0  0  0  0  0  0  0  0  0  0  0  0
    6.1126    3.6850   -2.0024 H   0  0  0  0  0  0  0  0  0  0  0  0
    4.5082    1.9123   -1.3861 H   0  0  0  0  0  0  0  0  0  0  0  0
    3.7432   -3.1185   -2.0229 H   0  0  0  0  0  0  0  0  0  0  0  0
    1.6391   -3.6150   -0.9309 H   0  0  0  0  0  0  0  0  0  0  0  0
  1  2  2  0
  2  3  1  0
  3  4  1  0
  4  5  1  0
  5  6  1  0
  6  7  2  0
  6  8  1  0
  8  9  2  0
  9 10  1  0
 10 11  1  0
 11 12  2  0
 12 13  1  0
 13 14  2  0
 14 15  1  0
 15 16  2  0
  2 17  1  0
 17 18  1  0
 18 19  1  0
 19 20  2  0
 20 21  1  0
 21 22  1  0
 22 23  1  0
 23 24  2  0
 24 25  1  0
 25 26  2  0
 26 27  1  0
 27 28  2  0
 28 29  1  0
 29 30  2  0
 21 31  2  0
 31 32  1  0
 16  8  1  0
 32 18  2  0
 16 11  1  0
 30 22  1  0
 30 25  1  0
  3 33  1  0
  3 34  1  0
  4 35  1  0
  4 36  1  0
  5 37  1  0
  9 38  1  0
 10 39  1  0
 12 40  1  0
 13 41  1  0
 14 42  1  0
 15 43  1  0
 17 44  1  0
 19 45  1  0
 20 46  1  0
 23 47  1  0
 26 48  1  0
 27 49  1  0
 28 50  1  0
 29 51  1  0
 31 52  1  0
 32 53  1  0
M  END
$$$$
OCNT-2310008
     RDKit          3D

 41 45  0  0  0  0  0  0  0  0999 V2000
   -2.6632   -3.6336   -0.2928 F   0  0  0  0  0  0  0  0  0  0  0  0
   -3.0041   -2.6623    0.5854 C   0  0  0  0  0  0  0  0  0  0  0  0
   -2.5887   -3.0429    1.8156 F   0  0  0  0  0  0  0  0  0  0  0  0
   -4.3574   -2.6029    0.6164 F   0  0  0  0  0  0  0  0  0  0  0  0
   -2.4036   -1.3361    0.1926 C   0  0  0  0  0  0  0  0  0  0  0  0
   -0.8391   -1.4010    0.1487 C   0  0  0  0  0  0  0  0  0  0  0  0
   -0.0814   -0.3773   -0.1788 N   0  0  0  0  0  0  0  0  0  0  0  0
    1.1888   -0.8954   -0.0761 C   0  0  0  0  0  0  0  0  0  0  0  0
    2.3778   -0.0742   -0.3603 C   0  0  0  0  0  0  0  0  0  0  0  0
    2.3388    1.2158   -0.7371 N   0  0  0  0  0  0  0  0  0  0  0  0
    3.6326    1.5478   -0.8839 N   0  0  0  0  0  0  0  0  0  0  0  0
    4.4873    0.5235   -0.6091 C   0  0  0  0  0  0  0  0  0  0  0  0
    6.0269    0.5665   -0.6951 C   0  0  0  0  0  0  0  0  0  0  0  0
    6.7701    1.6247    0.0755 C   0  0  0  0  0  0  0  0  0  0  0  0
    6.8364    0.1924    0.5173 C   0  0  0  0  0  0  0  0  0  0  0  0
    3.7080   -0.5542   -0.2707 C   0  0  0  0  0  0  0  0  0  0  0  0
    1.2309   -2.1828    0.2983 N   0  0  0  0  0  0  0  0  0  0  0  0
   -0.1123   -2.5206    0.4479 O   0  0  0  0  0  0  0  0  0  0  0  0
   -3.0218   -0.6996   -1.0967 C   0  0  0  0  0  0  0  0  0  0  0  0
   -3.7299    0.2916   -0.2132 C   0  0  0  0  0  0  0  0  0  0  0  0
   -3.7612    1.7505   -0.6061 C   0  0  0  0  0  0  0  0  0  0  0  0
   -5.1748    1.8013    0.0261 C   0  0  0  0  0  0  0  0  0  0  0  0
   -5.2411    0.2608   -0.1270 C   0  0  0  0  0  0  0  0  0  0  0  0
   -2.9363   -0.1113    1.0083 C   0  0  0  0  0  0  0  0  0  0  0  0
    3.8612    2.4927   -1.1730 H   0  0  0  0  0  0  0  0  0  0  0  0
    6.4326    0.2812   -1.6616 H   0  0  0  0  0  0  0  0  0  0  0  0
    6.2158    2.3134    0.7025 H   0  0  0  0  0  0  0  0  0  0  0  0
    7.6546    2.0560   -0.3791 H   0  0  0  0  0  0  0  0  0  0  0  0
    7.7632   -0.3475    0.3594 H   0  0  0  0  0  0  0  0  0  0  0  0
    6.3186   -0.0796    1.4304 H   0  0  0  0  0  0  0  0  0  0  0  0
    4.0403   -1.5454    0.0042 H   0  0  0  0  0  0  0  0  0  0  0  0
   -2.2983   -0.2478   -1.7854 H   0  0  0  0  0  0  0  0  0  0  0  0
   -3.6684   -1.3620   -1.6819 H   0  0  0  0  0  0  0  0  0  0  0  0
   -3.7651    1.9269   -1.6879 H   0  0  0  0  0  0  0  0  0  0  0  0
   -3.0183    2.4064   -0.1449 H   0  0  0  0  0  0  0  0  0  0  0  0
   -5.9246    2.3659   -0.5337 H   0  0  0  0  0  0  0  0  0  0  0  0
   -5.1771    2.1387    1.0690 H   0  0  0  0  0  0  0  0  0  0  0  0
   -5.7412   -0.0604   -1.0478 H   0  0  0  0  0  0  0  0  0  0  0  0
   -5.6833   -0.2722    0.7186 H   0  0  0  0  0  0  0  0  0  0  0  0
   -2.1708    0.6140    1.3082 H   0  0  0  0  0  0  0  0  0  0  0  0
   -3.5219   -0.3610    1.8995 H   0  0  0  0  0  0  0  0  0  0  0  0
  1  2  1  0
  2  3  1  0
  2  4  1  0
  2  5  1  0
  5  6  1  0
  6  7  2  0
  7  8  1  0
  8  9  1  0
  9 10  2  0
 10 11  1  0
 11 12  1  0
 12 13  1  0
 13 14  1  0
 14 15  1  0
 12 16  2  0
  8 17  2  0
 17 18  1  0
  5 19  1  0
 19 20  1  0
 20 21  1  0
 21 22  1  0
 22 23  1  0
 20 24  1  0
 24  5  1  0
 18  6  1  0
 23 20  1  0
 16  9  1  0
 15 13  1  0
 11 25  1  0
 13 26  1  0
 14 27  1  0
 14 28  1  0
 15 29  1  0
 15 30  1  0
 16 31  1  0
 19 32  1  0
 19 33  1  0
 21 34  1  0
 21 35  1  0
 22 36  1  0
 22 37  1  0
 23 38  1  0
 23 39  1  0
 24 40  1  0
 24 41  1  0
M  END
$$$$
OCNT-2310010
     RDKit          3D

 51 54  0  0  0  0  0  0  0  0999 V2000
   -1.2498    2.1602   -0.8397 O   0  0  0  0  0  0  0  0  0  0  0  0
   -1.0538    0.9620   -0.6514 C   0  0  0  0  0  0  0  0  0  0  0  0
    0.1580    0.2016   -1.2081 C   0  0  0  0  0  0  0  0  0  0  0  0
    1.4294    0.8617   -0.8500 N   0  0  0  0  0  0  0  0  0  0  0  0
    1.7297    0.8103    0.5880 C   0  0  0  0  0  0  0  0  0  0  0  0
    2.4172   -0.4672    1.0913 C   0  0  0  0  0  0  0  0  0  0  0  0
    3.9156   -0.5447    0.8787 C   0  0  0  0  0  0  0  0  0  0  0  0
    4.6585   -1.2829    1.8240 C   0  0  0  0  0  0  0  0  0  0  0  0
    6.0432   -1.4178    1.7204 C   0  0  0  0  0  0  0  0  0  0  0  0
    6.7018   -0.8093    0.6656 C   0  0  0  0  0  0  0  0  0  0  0  0
    8.0536   -0.9002    0.5212 O   0  0  0  0  0  0  0  0  0  0  0  0
    5.9939   -0.0877   -0.2881 C   0  0  0  0  0  0  0  0  0  0  0  0
    4.5924    0.0382   -0.2123 C   0  0  0  0  0  0  0  0  0  0  0  0
    3.9149    0.8418   -1.3032 C   0  0  0  0  0  0  0  0  0  0  0  0
    2.5157    0.3563   -1.7002 C   0  0  0  0  0  0  0  0  0  0  0  0
   -1.9135    0.1794    0.0819 N   0  0  0  0  0  0  0  0  0  0  0  0
   -3.1517    0.7017    0.6363 C   0  0  0  0  0  0  0  0  0  0  0  0
   -4.2573    0.6398   -0.4117 C   0  0  0  0  0  0  0  0  0  0  0  0
   -4.6173    1.8066   -1.1065 C   0  0  0  0  0  0  0  0  0  0  0  0
   -5.6140    1.7778   -2.0836 C   0  0  0  0  0  0  0  0  0  0  0  0
   -6.2604    0.5824   -2.3853 C   0  0  0  0  0  0  0  0  0  0  0  0
   -5.9049   -0.5883   -1.7185 C   0  0  0  0  0  0  0  0  0  0  0  0
   -4.9043   -0.5632   -0.7443 C   0  0  0  0  0  0  0  0  0  0  0  0
   -3.4714   -0.0962    1.8906 C   0  0  0  0  0  0  0  0  0  0  0  0
   -3.0054   -1.3085    2.1512 N   0  0  0  0  0  0  0  0  0  0  0  0
   -3.4968   -1.7431    3.3658 C   0  0  0  0  0  0  0  0  0  0  0  0
   -4.3307   -0.8644    4.0212 C   0  0  0  0  0  0  0  0  0  0  0  0
   -4.5164    0.5624    3.0932 S   0  0  0  0  0  0  0  0  0  0  0  0
    0.0222    0.1948   -2.2974 H   0  0  0  0  0  0  0  0  0  0  0  0
    0.1502   -0.8416   -0.8735 H   0  0  0  0  0  0  0  0  0  0  0  0
    2.3442    1.6833    0.8478 H   0  0  0  0  0  0  0  0  0  0  0  0
    0.8062    0.9522    1.1620 H   0  0  0  0  0  0  0  0  0  0  0  0
    2.2280   -0.5129    2.1728 H   0  0  0  0  0  0  0  0  0  0  0  0
    1.9498   -1.3615    0.6605 H   0  0  0  0  0  0  0  0  0  0  0  0
    4.1517   -1.7603    2.6604 H   0  0  0  0  0  0  0  0  0  0  0  0
    6.5798   -1.9938    2.4676 H   0  0  0  0  0  0  0  0  0  0  0  0
    8.4087   -1.4139    1.2640 H   0  0  0  0  0  0  0  0  0  0  0  0
    6.5437    0.3739   -1.1056 H   0  0  0  0  0  0  0  0  0  0  0  0
    3.8986    1.9003   -1.0156 H   0  0  0  0  0  0  0  0  0  0  0  0
    4.5343    0.7843   -2.2081 H   0  0  0  0  0  0  0  0  0  0  0  0
    2.5032   -0.7407   -1.7568 H   0  0  0  0  0  0  0  0  0  0  0  0
    2.3217    0.7200   -2.7177 H   0  0  0  0  0  0  0  0  0  0  0  0
   -1.7375   -0.8053    0.2324 H   0  0  0  0  0  0  0  0  0  0  0  0
   -2.9796    1.7463    0.9289 H   0  0  0  0  0  0  0  0  0  0  0  0
   -4.1062    2.7462   -0.9016 H   0  0  0  0  0  0  0  0  0  0  0  0
   -5.8777    2.6890   -2.6141 H   0  0  0  0  0  0  0  0  0  0  0  0
   -7.0353    0.5617   -3.1471 H   0  0  0  0  0  0  0  0  0  0  0  0
   -6.4048   -1.5231   -1.9588 H   0  0  0  0  0  0  0  0  0  0  0  0
   -4.6352   -1.4925   -0.2460 H   0  0  0  0  0  0  0  0  0  0  0  0
   -3.2162   -2.7246    3.7330 H   0  0  0  0  0  0  0  0  0  0  0  0
   -4.8260   -0.9908    4.9717 H   0  0  0  0  0  0  0  0  0  0  0  0
  1  2  2  0
  2  3  1  0
  3  4  1  0
  4  5  1  0
  5  6  1  0
  6  7  1  0
  7  8  1  0
  8  9  2  0
  9 10  1  0
 10 11  1  0
 10 12  2  0
 12 13  1  0
 13 14  1  0
 14 15  1  0
  2 16  1  0
 16 17  1  0
 17 18  1  0
 18 19  2  0
 19 20  1  0
 20 21  2  0
 21 22  1  0
 22 23  2  0
 17 24  1  0
 24 25  2  0
 25 26  1  0
 26 27  2  0
 27 28  1  0
 15  4  1  0
 23 18  1  0
 28 24  1  0
 13  7  2  0
  3 29  1  0
  3 30  1  0
  5 31  1  0
  5 32  1  0
  6 33  1  0
  6 34  1  0
  8 35  1  0
  9 36  1  0
 11 37  1  0
 12 38  1  0
 14 39  1  0
 14 40  1  0
 15 41  1  0
 15 42  1  0
 16 43  1  0
 17 44  1  0
 19 45  1  0
 20 46  1  0
 21 47  1  0
 22 48  1  0
 23 49  1  0
 26 50  1  0
 27 51  1  0
M  END
$$$$
OCNT-2310018
     RDKit          3D

 40 43  0  0  0  0  0  0  0  0999 V2000
   -6.5032   -0.3249   -1.0929 O   0  0  0  0  0  0  0  0  0  0  0  0
   -5.2443   -0.4211   -0.5796 C   0  0  0  0  0  0  0  0  0  0  0  0
   -5.0333   -1.3197    0.4507 C   0  0  0  0  0  0  0  0  0  0  0  0
   -3.7561   -1.4520    0.9920 C   0  0  0  0  0  0  0  0  0  0  0  0
   -2.6717   -0.6923    0.5069 C   0  0  0  0  0  0  0  0  0  0  0  0
   -1.3230   -0.9223    1.1583 C   0  0  0  0  0  0  0  0  0  0  0  0
   -0.1155   -0.7966    0.2251 C   0  0  0  0  0  0  0  0  0  0  0  0
    0.3244    0.5947    0.0409 N   0  0  0  0  0  0  0  0  0  0  0  0
    1.5282    1.0143    0.6095 C   0  0  0  0  0  0  0  0  0  0  0  0
    1.5293    2.0911    1.3665 N   0  0  0  0  0  0  0  0  0  0  0  0
    2.6997    2.5123    1.9575 C   0  0  0  0  0  0  0  0  0  0  0  0
    3.8750    1.8912    1.8038 C   0  0  0  0  0  0  0  0  0  0  0  0
    3.9301    0.7737    0.9962 N   0  0  0  0  0  0  0  0  0  0  0  0
    5.0063    0.0103    0.6885 N   0  0  0  0  0  0  0  0  0  0  0  0
    4.5495   -0.9059   -0.1882 C   0  0  0  0  0  0  0  0  0  0  0  0
    5.4404   -1.9456   -0.8146 C   0  0  0  0  0  0  0  0  0  0  0  0
    4.7383   -2.7803   -1.6321 F   0  0  0  0  0  0  0  0  0  0  0  0
    6.0462   -2.7384    0.1085 F   0  0  0  0  0  0  0  0  0  0  0  0
    6.4216   -1.3987   -1.5795 F   0  0  0  0  0  0  0  0  0  0  0  0
    3.1597   -0.7376   -0.4178 C   0  0  0  0  0  0  0  0  0  0  0  0
    2.7867    0.3208    0.3772 C   0  0  0  0  0  0  0  0  0  0  0  0
   -0.7385    1.5998   -0.1301 C   0  0  0  0  0  0  0  0  0  0  0  0
   -1.8301    1.1461   -1.1012 C   0  0  0  0  0  0  0  0  0  0  0  0
   -2.9035    0.2511   -0.5144 C   0  0  0  0  0  0  0  0  0  0  0  0
   -4.1985    0.3573   -1.0648 C   0  0  0  0  0  0  0  0  0  0  0  0
   -6.5020    0.3433   -1.7973 H   0  0  0  0  0  0  0  0  0  0  0  0
   -5.8560   -1.9181    0.8307 H   0  0  0  0  0  0  0  0  0  0  0  0
   -3.6094   -2.1658    1.8009 H   0  0  0  0  0  0  0  0  0  0  0  0
   -1.3091   -1.9480    1.5510 H   0  0  0  0  0  0  0  0  0  0  0  0
   -1.2254   -0.2542    2.0229 H   0  0  0  0  0  0  0  0  0  0  0  0
   -0.3190   -1.2489   -0.7530 H   0  0  0  0  0  0  0  0  0  0  0  0
    0.6925   -1.3872    0.6714 H   0  0  0  0  0  0  0  0  0  0  0  0
    2.6231    3.3992    2.5807 H   0  0  0  0  0  0  0  0  0  0  0  0
    4.7975    2.2125    2.2652 H   0  0  0  0  0  0  0  0  0  0  0  0
    2.5279   -1.3140   -1.0795 H   0  0  0  0  0  0  0  0  0  0  0  0
   -1.1643    1.8867    0.8396 H   0  0  0  0  0  0  0  0  0  0  0  0
   -0.2820    2.5015   -0.5593 H   0  0  0  0  0  0  0  0  0  0  0  0
   -2.3181    2.0580   -1.4710 H   0  0  0  0  0  0  0  0  0  0  0  0
   -1.3925    0.6458   -1.9740 H   0  0  0  0  0  0  0  0  0  0  0  0
   -4.3807    1.0619   -1.8723 H   0  0  0  0  0  0  0  0  0  0  0  0
  1  2  1  0
  2  3  1  0
  3  4  2  0
  4  5  1  0
  5  6  1  0
  6  7  1  0
  7  8  1  0
  8  9  1  0
  9 10  2  0
 10 11  1  0
 11 12  2  0
 12 13  1  0
 13 14  1  0
 14 15  2  0
 15 16  1  0
 16 17  1  0
 16 18  1  0
 16 19  1  0
 15 20  1  0
 20 21  2  0
  8 22  1  0
 22 23  1  0
 23 24  1  0
 24 25  1  0
 25  2  2  0
 24  5  2  0
 21  9  1  0
 21 13  1  0
  1 26  1  0
  3 27  1  0
  4 28  1  0
  6 29  1  0
  6 30  1  0
  7 31  1  0
  7 32  1  0
 11 33  1  0
 12 34  1  0
 20 35  1  0
 22 36  1  0
 22 37  1  0
 23 38  1  0
 23 39  1  0
 25 40  1  0
M  END
$$$$
OCNT-2310019
     RDKit          3D

 44 46  0  0  0  0  0  0  0  0999 V2000
   -2.1941   -1.9306   -0.8770 C   0  0  0  0  0  0  0  0  0  0  0  0
   -2.3473   -1.5784    0.6152 C   0  0  0  0  0  0  0  0  0  0  0  0
   -2.2109   -2.8826    1.4228 C   0  0  0  0  0  0  0  0  0  0  0  0
   -3.6758   -1.1069    0.9241 O   0  0  0  0  0  0  0  0  0  0  0  0
   -4.1004   -0.0193    0.2141 C   0  0  0  0  0  0  0  0  0  0  0  0
   -4.9276   -0.2198   -0.8923 C   0  0  0  0  0  0  0  0  0  0  0  0
   -5.4121    0.8759   -1.6091 C   0  0  0  0  0  0  0  0  0  0  0  0
   -5.0921    2.1680   -1.1942 C   0  0  0  0  0  0  0  0  0  0  0  0
   -5.6873    3.5200   -2.0751 Cl  0  0  0  0  0  0  0  0  0  0  0  0
   -4.3061    2.3714   -0.0607 C   0  0  0  0  0  0  0  0  0  0  0  0
   -3.8211    1.2734    0.6539 C   0  0  0  0  0  0  0  0  0  0  0  0
   -1.2070   -0.6622    1.1276 C   0  0  0  0  0  0  0  0  0  0  0  0
   -1.2857    0.0897    2.0924 O   0  0  0  0  0  0  0  0  0  0  0  0
   -0.0620   -0.8403    0.4060 O   0  0  0  0  0  0  0  0  0  0  0  0
    1.0365   -0.0286    0.8429 C   0  0  0  0  0  0  0  0  0  0  0  0
    2.2545   -0.2586   -0.0230 C   0  0  0  0  0  0  0  0  0  0  0  0
    2.2711   -1.1062   -1.0646 C   0  0  0  0  0  0  0  0  0  0  0  0
    3.4480   -1.3445   -1.9126 C   0  0  0  0  0  0  0  0  0  0  0  0
    3.3953   -2.1340   -2.8485 O   0  0  0  0  0  0  0  0  0  0  0  0
    4.5960   -0.6425   -1.5986 O   0  0  0  0  0  0  0  0  0  0  0  0
    4.6215    0.2627   -0.5197 C   0  0  0  0  0  0  0  0  0  0  0  0
    5.8348    0.9192   -0.3022 C   0  0  0  0  0  0  0  0  0  0  0  0
    5.9221    1.8223    0.7465 C   0  0  0  0  0  0  0  0  0  0  0  0
    7.0756    2.4951    1.0156 O   0  0  0  0  0  0  0  0  0  0  0  0
    4.8240    2.0672    1.5621 C   0  0  0  0  0  0  0  0  0  0  0  0
    3.6146    1.4011    1.3300 C   0  0  0  0  0  0  0  0  0  0  0  0
    3.4938    0.4809    0.2787 C   0  0  0  0  0  0  0  0  0  0  0  0
   -3.0393   -2.5318   -1.2304 H   0  0  0  0  0  0  0  0  0  0  0  0
   -1.2760   -2.4975   -1.0729 H   0  0  0  0  0  0  0  0  0  0  0  0
   -2.1497   -1.0269   -1.4959 H   0  0  0  0  0  0  0  0  0  0  0  0
   -2.3390   -2.6907    2.4954 H   0  0  0  0  0  0  0  0  0  0  0  0
   -1.2318   -3.3530    1.2817 H   0  0  0  0  0  0  0  0  0  0  0  0
   -2.9881   -3.6017    1.1403 H   0  0  0  0  0  0  0  0  0  0  0  0
   -5.1974   -1.2272   -1.1986 H   0  0  0  0  0  0  0  0  0  0  0  0
   -6.0437    0.7158   -2.4788 H   0  0  0  0  0  0  0  0  0  0  0  0
   -4.0796    3.3781    0.2812 H   0  0  0  0  0  0  0  0  0  0  0  0
   -3.2484    1.4407    1.5617 H   0  0  0  0  0  0  0  0  0  0  0  0
    0.7400    1.0261    0.7807 H   0  0  0  0  0  0  0  0  0  0  0  0
    1.2722   -0.2924    1.8812 H   0  0  0  0  0  0  0  0  0  0  0  0
    1.4009   -1.6841   -1.3543 H   0  0  0  0  0  0  0  0  0  0  0  0
    6.6810    0.7137   -0.9492 H   0  0  0  0  0  0  0  0  0  0  0  0
    7.7504    2.2372    0.3659 H   0  0  0  0  0  0  0  0  0  0  0  0
    4.9073    2.7766    2.3817 H   0  0  0  0  0  0  0  0  0  0  0  0
    2.7828    1.6248    1.9930 H   0  0  0  0  0  0  0  0  0  0  0  0
  1  2  1  0
  2  3  1  0
  2  4  1  0
  4  5  1  0
  5  6  1  0
  6  7  2  0
  7  8  1  0
  8  9  1  0
  8 10  2  0
 10 11  1  0
  2 12  1  0
 12 13  2  0
 12 14  1  0
 14 15  1  0
 15 16  1  0
 16 17  2  0
 17 18  1  0
 18 19  2  0
 18 20  1  0
 20 21  1  0
 21 22  1  0
 22 23  2  0
 23 24  1  0
 23 25  1  0
 25 26  2  0
 26 27  1  0
 11  5  2  0
 27 16  1  0
 27 21  2  0
  1 28  1  0
  1 29  1  0
  1 30  1  0
  3 31  1  0
  3 32  1  0
  3 33  1  0
  6 34  1  0
  7 35  1  0
 10 36  1  0
 11 37  1  0
 15 38  1  0
 15 39  1  0
 17 40  1  0
 22 41  1  0
 24 42  1  0
 25 43  1  0
 26 44  1  0
M  END
$$$$
OCNT-2310024
     RDKit          3D

 46 48  0  0  0  0  0  0  0  0999 V2000
   -2.7160    2.0929    1.0080 O   0  0  0  0  0  0  0  0  0  0  0  0
   -3.6855    1.1422    0.5840 C   0  0  0  0  0  0  0  0  0  0  0  0
   -3.2091   -0.2776    0.8845 C   0  0  0  0  0  0  0  0  0  0  0  0
   -2.1175   -0.8517   -0.0747 C   0  0  0  0  0  0  0  0  0  0  0  0
   -0.8887    0.0676   -0.2494 C   0  0  0  0  0  0  0  0  0  0  0  0
   -0.2881    0.4142    1.0408 N   0  0  0  0  0  0  0  0  0  0  0  0
    1.0252    1.0788    0.9581 C   0  0  0  0  0  0  0  0  0  0  0  0
    0.9444    2.4407    0.2418 C   0  0  0  0  0  0  0  0  0  0  0  0
    2.3341    3.0488    0.0966 C   0  0  0  0  0  0  0  0  0  0  0  0
    3.2009    2.1590   -0.7897 C   0  0  0  0  0  0  0  0  0  0  0  0
    3.1807    0.7099   -0.3686 C   0  0  0  0  0  0  0  0  0  0  0  0
    4.2052   -0.1384   -0.8227 C   0  0  0  0  0  0  0  0  0  0  0  0
    4.2321   -1.4847   -0.4588 C   0  0  0  0  0  0  0  0  0  0  0  0
    3.2327   -1.9861    0.3637 C   0  0  0  0  0  0  0  0  0  0  0  0
    3.2252   -3.2918    0.7571 O   0  0  0  0  0  0  0  0  0  0  0  0
    2.2045   -1.1664    0.8136 C   0  0  0  0  0  0  0  0  0  0  0  0
    2.1441    0.1867    0.4323 C   0  0  0  0  0  0  0  0  0  0  0  0
   -2.7170   -1.2251   -1.4325 C   0  0  0  0  0  0  0  0  0  0  0  0
   -3.3708   -2.5709   -1.1810 C   0  0  0  0  0  0  0  0  0  0  0  0
   -2.7162   -3.1583   -0.0509 O   0  0  0  0  0  0  0  0  0  0  0  0
   -1.7038   -2.2465    0.4119 C   0  0  0  0  0  0  0  0  0  0  0  0
   -3.1077    2.9734    0.8701 H   0  0  0  0  0  0  0  0  0  0  0  0
   -4.6061    1.3410    1.1427 H   0  0  0  0  0  0  0  0  0  0  0  0
   -3.8893    1.2914   -0.4796 H   0  0  0  0  0  0  0  0  0  0  0  0
   -2.8276   -0.3037    1.9138 H   0  0  0  0  0  0  0  0  0  0  0  0
   -4.0880   -0.9337    0.8716 H   0  0  0  0  0  0  0  0  0  0  0  0
   -0.1559   -0.4407   -0.8877 H   0  0  0  0  0  0  0  0  0  0  0  0
   -1.1925    0.9707   -0.7904 H   0  0  0  0  0  0  0  0  0  0  0  0
   -0.9395    1.0619    1.5012 H   0  0  0  0  0  0  0  0  0  0  0  0
    1.3123    1.2931    1.9977 H   0  0  0  0  0  0  0  0  0  0  0  0
    0.2985    3.1223    0.8083 H   0  0  0  0  0  0  0  0  0  0  0  0
    0.5092    2.3443   -0.7599 H   0  0  0  0  0  0  0  0  0  0  0  0
    2.2632    4.0493   -0.3445 H   0  0  0  0  0  0  0  0  0  0  0  0
    2.7953    3.1637    1.0856 H   0  0  0  0  0  0  0  0  0  0  0  0
    4.2292    2.5395   -0.7670 H   0  0  0  0  0  0  0  0  0  0  0  0
    2.8484    2.2186   -1.8270 H   0  0  0  0  0  0  0  0  0  0  0  0
    4.9948    0.2534   -1.4604 H   0  0  0  0  0  0  0  0  0  0  0  0
    5.0371   -2.1169   -0.8182 H   0  0  0  0  0  0  0  0  0  0  0  0
    3.9946   -3.7363    0.3669 H   0  0  0  0  0  0  0  0  0  0  0  0
    1.4389   -1.5845    1.4635 H   0  0  0  0  0  0  0  0  0  0  0  0
   -3.4201   -0.4936   -1.8398 H   0  0  0  0  0  0  0  0  0  0  0  0
   -1.9231   -1.3555   -2.1794 H   0  0  0  0  0  0  0  0  0  0  0  0
   -3.2816   -3.2391   -2.0426 H   0  0  0  0  0  0  0  0  0  0  0  0
   -4.4331   -2.4643   -0.9392 H   0  0  0  0  0  0  0  0  0  0  0  0
   -1.6200   -2.3259    1.5002 H   0  0  0  0  0  0  0  0  0  0  0  0
   -0.7535   -2.5719   -0.0275 H   0  0  0  0  0  0  0  0  0  0  0  0
  1  2  1  0
  2  3  1  0
  3  4  1  0
  4  5  1  0
  5  6  1  0
  6  7  1  0
  7  8  1  0
  8  9  1  0
  9 10  1  0
 10 11  1  0
 11 12  1  0
 12 13  2  0
 13 14  1  0
 14 15  1  0
 14 16  2  0
 16 17  1  0
  4 18  1  0
 18 19  1  0
 19 20  1  0
 20 21  1  0
 21  4  1  0
 17  7  1  0
 17 11  2  0
  1 22  1  0
  2 23  1  0
  2 24  1  0
  3 25  1  0
  3 26  1  0
  5 27  1  0
  5 28  1  0
  6 29  1  0
  7 30  1  0
  8 31  1  0
  8 32  1  0
  9 33  1  0
  9 34  1  0
 10 35  1  0
 10 36  1  0
 12 37  1  0
 13 38  1  0
 15 39  1  0
 16 40  1  0
 18 41  1  0
 18 42  1  0
 19 43  1  0
 19 44  1  0
 21 45  1  0
 21 46  1  0
M  END
$$$$
OCNT-2310035
     RDKit          3D

 34 36  0  0  0  0  0  0  0  0999 V2000
    0.7706   -0.6469    2.0053 O   0  0  0  0  0  0  0  0  0  0  0  0
    0.5218   -0.8410    0.8187 C   0  0  0  0  0  0  0  0  0  0  0  0
    1.4346   -0.6990   -0.2036 N   0  0  0  0  0  0  0  0  0  0  0  0
    2.7203   -0.1264   -0.1236 C   0  0  0  0  0  0  0  0  0  0  0  0
    3.1573    0.6479    0.9566 C   0  0  0  0  0  0  0  0  0  0  0  0
    4.4439    1.2020    0.9644 C   0  0  0  0  0  0  0  0  0  0  0  0
    5.2983    0.9901   -0.1142 C   0  0  0  0  0  0  0  0  0  0  0  0
    6.8761    1.6754   -0.0986 Cl  0  0  0  0  0  0  0  0  0  0  0  0
    4.8615    0.2300   -1.1948 C   0  0  0  0  0  0  0  0  0  0  0  0
    5.6616    0.0154   -2.2501 F   0  0  0  0  0  0  0  0  0  0  0  0
    3.5821   -0.3239   -1.2075 C   0  0  0  0  0  0  0  0  0  0  0  0
   -0.7320   -1.2822    0.3987 N   0  0  0  0  0  0  0  0  0  0  0  0
   -1.7205   -1.5923    1.4282 C   0  0  0  0  0  0  0  0  0  0  0  0
   -2.5822   -0.3646    1.7224 C   0  0  0  0  0  0  0  0  0  0  0  0
   -3.1181    0.2321    0.4470 C   0  0  0  0  0  0  0  0  0  0  0  0
   -4.2076    1.0953    0.4704 C   0  0  0  0  0  0  0  0  0  0  0  0
   -4.7299    1.6823   -0.6283 N   0  0  0  0  0  0  0  0  0  0  0  0
   -4.1317    1.4083   -1.8057 C   0  0  0  0  0  0  0  0  0  0  0  0
   -3.0327    0.5744   -1.9381 C   0  0  0  0  0  0  0  0  0  0  0  0
   -2.5013   -0.0216   -0.7904 C   0  0  0  0  0  0  0  0  0  0  0  0
   -1.3139   -0.9547   -0.9044 C   0  0  0  0  0  0  0  0  0  0  0  0
    1.2485   -1.2683   -1.0151 H   0  0  0  0  0  0  0  0  0  0  0  0
    2.5128    0.8465    1.8092 H   0  0  0  0  0  0  0  0  0  0  0  0
    4.7644    1.7975    1.8157 H   0  0  0  0  0  0  0  0  0  0  0  0
    3.2844   -0.9082   -2.0722 H   0  0  0  0  0  0  0  0  0  0  0  0
   -2.3374   -2.4194    1.0545 H   0  0  0  0  0  0  0  0  0  0  0  0
   -1.2323   -1.9414    2.3446 H   0  0  0  0  0  0  0  0  0  0  0  0
   -3.4066   -0.6539    2.3840 H   0  0  0  0  0  0  0  0  0  0  0  0
   -1.9853    0.3996    2.2347 H   0  0  0  0  0  0  0  0  0  0  0  0
   -4.7087    1.3473    1.4015 H   0  0  0  0  0  0  0  0  0  0  0  0
   -4.5734    1.8940   -2.6714 H   0  0  0  0  0  0  0  0  0  0  0  0
   -2.6033    0.4003   -2.9190 H   0  0  0  0  0  0  0  0  0  0  0  0
   -1.6477   -1.8979   -1.3522 H   0  0  0  0  0  0  0  0  0  0  0  0
   -0.5737   -0.4964   -1.5659 H   0  0  0  0  0  0  0  0  0  0  0  0
  1  2  2  0
  2  3  1  0
  3  4  1  0
  4  5  1  0
  5  6  2  0
  6  7  1  0
  7  8  1  0
  7  9  2  0
  9 10  1  0
  9 11  1  0
  2 12  1  0
 12 13  1  0
 13 14  1  0
 14 15  1  0
 15 16  2  0
 16 17  1  0
 17 18  2  0
 18 19  1  0
 19 20  2  0
 20 21  1  0
 11  4  2  0
 21 12  1  0
 20 15  1  0
  3 22  1  0
  5 23  1  0
  6 24  1  0
 11 25  1  0
 13 26  1  0
 13 27  1  0
 14 28  1  0
 14 29  1  0
 16 30  1  0
 18 31  1  0
 19 32  1  0
 21 33  1  0
 21 34  1  0
M  END
$$$$
OCNT-2310041
     RDKit          3D

 45 48  0  0  0  0  0  0  0  0999 V2000
    2.7114   -2.0132   -1.7502 O   0  0  0  0  0  0  0  0  0  0  0  0
    2.5489   -1.4767   -0.6583 C   0  0  0  0  0  0  0  0  0  0  0  0
    1.1902   -1.5333    0.0590 C   0  0  0  0  0  0  0  0  0  0  0  0
    0.9953   -0.3513    0.9371 N   0  0  0  0  0  0  0  0  0  0  0  0
   -0.1153   -0.5819    1.8908 C   0  0  0  0  0  0  0  0  0  0  0  0
   -1.5276   -0.6298    1.2690 C   0  0  0  0  0  0  0  0  0  0  0  0
   -1.7956    0.5633    0.4435 N   0  0  0  0  0  0  0  0  0  0  0  0
   -3.1066    0.7350    0.0712 C   0  0  0  0  0  0  0  0  0  0  0  0
   -4.0885    0.0002    0.5500 N   0  0  0  0  0  0  0  0  0  0  0  0
   -5.3105    0.3860    0.0305 C   0  0  0  0  0  0  0  0  0  0  0  0
   -6.5585   -0.1978    0.3297 C   0  0  0  0  0  0  0  0  0  0  0  0
   -7.7201    0.2961   -0.2731 C   0  0  0  0  0  0  0  0  0  0  0  0
   -7.6513    1.3607   -1.1660 C   0  0  0  0  0  0  0  0  0  0  0  0
   -6.4249    1.9563   -1.4775 C   0  0  0  0  0  0  0  0  0  0  0  0
   -5.2659    1.4502   -0.8653 C   0  0  0  0  0  0  0  0  0  0  0  0
   -3.6368    1.9588   -1.0361 S   0  0  0  0  0  0  0  0  0  0  0  0
   -0.7277    0.9061   -0.5103 C   0  0  0  0  0  0  0  0  0  0  0  0
    0.6700    0.8691    0.1555 C   0  0  0  0  0  0  0  0  0  0  0  0
    3.5107   -0.8219    0.0857 N   0  0  0  0  0  0  0  0  0  0  0  0
    4.8649   -0.6063   -0.2239 C   0  0  0  0  0  0  0  0  0  0  0  0
    5.4968   -1.1085   -1.3634 C   0  0  0  0  0  0  0  0  0  0  0  0
    6.8525   -0.8423   -1.5865 C   0  0  0  0  0  0  0  0  0  0  0  0
    7.5702   -0.0779   -0.6717 C   0  0  0  0  0  0  0  0  0  0  0  0
    8.8669    0.1710   -0.8947 F   0  0  0  0  0  0  0  0  0  0  0  0
    6.9634    0.4291    0.4668 C   0  0  0  0  0  0  0  0  0  0  0  0
    5.6169    0.1596    0.6800 C   0  0  0  0  0  0  0  0  0  0  0  0
    5.0265    0.6506    1.7816 F   0  0  0  0  0  0  0  0  0  0  0  0
    1.2140   -2.4494    0.6622 H   0  0  0  0  0  0  0  0  0  0  0  0
    0.3979   -1.6381   -0.6888 H   0  0  0  0  0  0  0  0  0  0  0  0
    0.0667   -1.5028    2.4584 H   0  0  0  0  0  0  0  0  0  0  0  0
   -0.0895    0.2278    2.6326 H   0  0  0  0  0  0  0  0  0  0  0  0
   -2.2451   -0.6956    2.0969 H   0  0  0  0  0  0  0  0  0  0  0  0
   -1.6386   -1.5354    0.6593 H   0  0  0  0  0  0  0  0  0  0  0  0
   -6.6063   -1.0276    1.0276 H   0  0  0  0  0  0  0  0  0  0  0  0
   -8.6809   -0.1566   -0.0397 H   0  0  0  0  0  0  0  0  0  0  0  0
   -8.5619    1.7366   -1.6280 H   0  0  0  0  0  0  0  0  0  0  0  0
   -6.3717    2.7881   -2.1732 H   0  0  0  0  0  0  0  0  0  0  0  0
   -0.7567    0.2145   -1.3611 H   0  0  0  0  0  0  0  0  0  0  0  0
   -0.8598    1.9205   -0.9036 H   0  0  0  0  0  0  0  0  0  0  0  0
    0.7421    1.7225    0.8435 H   0  0  0  0  0  0  0  0  0  0  0  0
    1.4358    1.0501   -0.6080 H   0  0  0  0  0  0  0  0  0  0  0  0
    3.1565   -0.3883    0.9397 H   0  0  0  0  0  0  0  0  0  0  0  0
    4.9649   -1.7109   -2.0936 H   0  0  0  0  0  0  0  0  0  0  0  0
    7.3502   -1.2299   -2.4706 H   0  0  0  0  0  0  0  0  0  0  0  0
    7.5271    1.0229    1.1757 H   0  0  0  0  0  0  0  0  0  0  0  0
  1  2  2  0
  2  3  1  0
  3  4  1  0
  4  5  1  0
  5  6  1  0
  6  7  1  0
  7  8  1  0
  8  9  2  0
  9 10  1  0
 10 11  2  0
 11 12  1  0
 12 13  2  0
 13 14  1  0
 14 15  2  0
 15 16  1  0
  7 17  1  0
 17 18  1  0
  2 19  1  0
 19 20  1  0
 20 21  1  0
 21 22  2  0
 22 23  1  0
 23 24  1  0
 23 25  2  0
 25 26  1  0
 26 27  1  0
 18  4  1  0
 26 20  2  0
 16  8  1  0
 15 10  1  0
  3 28  1  0
  3 29  1  0
  5 30  1  0
  5 31  1  0
  6 32  1  0
  6 33  1  0
 11 34  1  0
 12 35  1  0
 13 36  1  0
 14 37  1  0
 17 38  1  0
 17 39  1  0
 18 40  1  0
 18 41  1  0
 19 42  1  0
 21 43  1  0
 22 44  1  0
 25 45  1  0
M  END
$$$$
OCNT-2310050
     RDKit          3D

 42 43  0  0  0  0  0  0  0  0999 V2000
   -5.4588   -0.2889   -0.7337 C   0  0  0  0  0  0  0  0  0  0  0  0
   -4.3406    0.7248   -0.5305 C   0  0  0  0  0  0  0  0  0  0  0  0
   -2.9378    0.1476   -0.8150 C   0  0  1  0  0  0  0  0  0  0  0  0
   -1.8832    1.2750   -0.6949 C   0  0  0  0  0  0  0  0  0  0  0  0
   -1.9391    2.1633    0.1529 O   0  0  0  0  0  0  0  0  0  0  0  0
   -0.8577    1.1847   -1.6163 N   0  0  0  0  0  0  0  0  0  0  0  0
    0.3012    2.0441   -1.5464 C   0  0  0  0  0  0  0  0  0  0  0  0
    1.4295    1.3534   -0.8242 C   0  0  0  0  0  0  0  0  0  0  0  0
    1.4681    1.3400    0.5755 C   0  0  0  0  0  0  0  0  0  0  0  0
    2.4941    0.6745    1.2544 C   0  0  0  0  0  0  0  0  0  0  0  0
    3.5042    0.0030    0.5520 C   0  0  0  0  0  0  0  0  0  0  0  0
    4.5695   -0.6872    1.2668 C   0  0  0  0  0  0  0  0  0  0  0  0
    4.9001   -0.8952    2.5900 C   0  0  0  0  0  0  0  0  0  0  0  0
    6.0481   -1.6422    2.6873 N   0  0  0  0  0  0  0  0  0  0  0  0
    6.3729   -1.8587    1.4340 C   0  0  0  0  0  0  0  0  0  0  0  0
    5.5302   -1.3167    0.5142 O   0  0  0  0  0  0  0  0  0  0  0  0
    3.4559    0.0147   -0.8498 C   0  0  0  0  0  0  0  0  0  0  0  0
    2.4299    0.6782   -1.5318 C   0  0  0  0  0  0  0  0  0  0  0  0
   -2.6123   -1.0313    0.0339 N   0  0  0  0  0  0  0  0  0  0  0  0
   -1.4521   -1.7805   -0.4413 C   0  0  0  0  0  0  0  0  0  0  0  0
   -2.4620   -0.7153    1.4556 C   0  0  0  0  0  0  0  0  0  0  0  0
   -5.4300   -0.7074   -1.7447 H   0  0  0  0  0  0  0  0  0  0  0  0
   -6.4319    0.1930   -0.5954 H   0  0  0  0  0  0  0  0  0  0  0  0
   -5.3898   -1.1118   -0.0159 H   0  0  0  0  0  0  0  0  0  0  0  0
   -4.5154    1.5715   -1.2072 H   0  0  0  0  0  0  0  0  0  0  0  0
   -4.4060    1.1392    0.4822 H   0  0  0  0  0  0  0  0  0  0  0  0
   -2.9547   -0.1821   -1.8632 H   0  0  0  0  0  0  0  0  0  0  0  0
   -0.7757    0.3365   -2.1587 H   0  0  0  0  0  0  0  0  0  0  0  0
    0.5941    2.2795   -2.5756 H   0  0  0  0  0  0  0  0  0  0  0  0
    0.0562    2.9916   -1.0535 H   0  0  0  0  0  0  0  0  0  0  0  0
    0.6901    1.8466    1.1461 H   0  0  0  0  0  0  0  0  0  0  0  0
    2.4855    0.6916    2.3417 H   0  0  0  0  0  0  0  0  0  0  0  0
    4.3783   -0.5505    3.4716 H   0  0  0  0  0  0  0  0  0  0  0  0
    7.2194   -2.4096    1.0492 H   0  0  0  0  0  0  0  0  0  0  0  0
    4.2214   -0.4962   -1.4306 H   0  0  0  0  0  0  0  0  0  0  0  0
    2.4234    0.6632   -2.6195 H   0  0  0  0  0  0  0  0  0  0  0  0
   -0.5118   -1.2366   -0.3073 H   0  0  0  0  0  0  0  0  0  0  0  0
   -1.5593   -2.0370   -1.5009 H   0  0  0  0  0  0  0  0  0  0  0  0
   -1.3683   -2.7306    0.0986 H   0  0  0  0  0  0  0  0  0  0  0  0
   -2.3341   -1.6381    2.0336 H   0  0  0  0  0  0  0  0  0  0  0  0
   -1.5958   -0.0761    1.6566 H   0  0  0  0  0  0  0  0  0  0  0  0
   -3.3557   -0.2323    1.8605 H   0  0  0  0  0  0  0  0  0  0  0  0
  1  2  1  0
  2  3  1  0
  3  4  1  0
  4  5  2  0
  4  6  1  0
  6  7  1  0
  7  8  1  0
  8  9  1  0
  9 10  2  0
 10 11  1  0
 11 12  1  0
 12 13  2  0
 13 14  1  0
 14 15  2  0
 15 16  1  0
 11 17  2  0
 17 18  1  0
  3 19  1  0
 19 20  1  0
 19 21  1  0
 18  8  2  0
 16 12  1  0
  1 22  1  0
  1 23  1  0
  1 24  1  0
  2 25  1  0
  2 26  1  0
  3 27  1  6
  6 28  1  0
  7 29  1  0
  7 30  1  0
  9 31  1  0
 10 32  1  0
 13 33  1  0
 15 34  1  0
 17 35  1  0
 18 36  1  0
 20 37  1  0
 20 38  1  0
 20 39  1  0
 21 40  1  0
 21 41  1  0
 21 42  1  0
M  END
$$$$
OCNT-2310061
     RDKit          3D

 46 49  0  0  0  0  0  0  0  0999 V2000
   -0.1548    1.9391   -1.5563 O   0  0  0  0  0  0  0  0  0  0  0  0
   -0.1839    1.4627   -0.4304 C   0  0  0  0  0  0  0  0  0  0  0  0
    0.8387    1.5558    0.4767 N   0  0  0  0  0  0  0  0  0  0  0  0
    2.0980    2.1647    0.1130 C   0  0  0  0  0  0  0  0  0  0  0  0
    3.0654    1.1394   -0.4177 C   0  0  0  0  0  0  0  0  0  0  0  0
    3.0306    0.7584   -1.7618 C   0  0  0  0  0  0  0  0  0  0  0  0
    3.9179   -0.2072   -2.2056 C   0  0  0  0  0  0  0  0  0  0  0  0
    4.8253   -0.8157   -1.4113 N   0  0  0  0  0  0  0  0  0  0  0  0
    4.8463   -0.4467   -0.1023 C   0  0  0  0  0  0  0  0  0  0  0  0
    5.7852   -1.0816    0.7521 N   0  0  0  0  0  0  0  0  0  0  0  0
    6.6989   -2.0426    0.3991 C   0  0  0  0  0  0  0  0  0  0  0  0
    7.4064   -2.4084    1.4445 N   0  0  0  0  0  0  0  0  0  0  0  0
    6.8885   -1.6353    2.4399 C   0  0  0  0  0  0  0  0  0  0  0  0
    5.9010   -0.8120    2.0812 N   0  0  0  0  0  0  0  0  0  0  0  0
    3.9886    0.5161    0.4291 C   0  0  0  0  0  0  0  0  0  0  0  0
   -1.2399    0.7620    0.0852 N   0  0  0  0  0  0  0  0  0  0  0  0
   -2.4793    0.6027   -0.6645 C   0  0  2  0  0  0  0  0  0  0  0  0
   -3.2810    1.9155   -0.6258 C   0  0  0  0  0  0  0  0  0  0  0  0
   -4.7006    1.7056   -1.1316 C   0  0  0  0  0  0  0  0  0  0  0  0
   -5.4423    0.7371   -0.2169 C   0  0  0  0  0  0  0  0  0  0  0  0
   -4.6628   -0.5272    0.0471 C   0  0  0  0  0  0  0  0  0  0  0  0
   -5.3500   -1.6541    0.5269 C   0  0  0  0  0  0  0  0  0  0  0  0
   -4.6736   -2.8453    0.7842 C   0  0  0  0  0  0  0  0  0  0  0  0
   -3.3030   -2.9252    0.5647 C   0  0  0  0  0  0  0  0  0  0  0  0
   -2.6069   -1.8088    0.1013 C   0  0  0  0  0  0  0  0  0  0  0  0
   -3.2676   -0.5893   -0.1399 C   0  0  0  0  0  0  0  0  0  0  0  0
    0.8763    0.8156    1.1608 H   0  0  0  0  0  0  0  0  0  0  0  0
    2.5029    2.6347    1.0161 H   0  0  0  0  0  0  0  0  0  0  0  0
    1.9419    2.9612   -0.6237 H   0  0  0  0  0  0  0  0  0  0  0  0
    2.3162    1.2010   -2.4515 H   0  0  0  0  0  0  0  0  0  0  0  0
    3.9173   -0.5273   -3.2442 H   0  0  0  0  0  0  0  0  0  0  0  0
    6.7899   -2.4177   -0.6108 H   0  0  0  0  0  0  0  0  0  0  0  0
    7.2433   -1.6743    3.4624 H   0  0  0  0  0  0  0  0  0  0  0  0
    4.0330    0.7822    1.4821 H   0  0  0  0  0  0  0  0  0  0  0  0
   -1.3296    0.7695    1.0897 H   0  0  0  0  0  0  0  0  0  0  0  0
   -2.2223    0.3872   -1.7105 H   0  0  0  0  0  0  0  0  0  0  0  0
   -2.7811    2.6792   -1.2333 H   0  0  0  0  0  0  0  0  0  0  0  0
   -3.3163    2.3108    0.3987 H   0  0  0  0  0  0  0  0  0  0  0  0
   -5.2345    2.6620   -1.1644 H   0  0  0  0  0  0  0  0  0  0  0  0
   -4.6746    1.3146   -2.1566 H   0  0  0  0  0  0  0  0  0  0  0  0
   -5.6455    1.2221    0.7460 H   0  0  0  0  0  0  0  0  0  0  0  0
   -6.4079    0.4923   -0.6754 H   0  0  0  0  0  0  0  0  0  0  0  0
   -6.4241   -1.6092    0.6949 H   0  0  0  0  0  0  0  0  0  0  0  0
   -5.2186   -3.7126    1.1471 H   0  0  0  0  0  0  0  0  0  0  0  0
   -2.7748   -3.8568    0.7496 H   0  0  0  0  0  0  0  0  0  0  0  0
   -1.5366   -1.8943   -0.0782 H   0  0  0  0  0  0  0  0  0  0  0  0
  1  2  2  0
  2  3  1  0
  3  4  1  0
  4  5  1  0
  5  6  2  0
  6  7  1  0
  7  8  2  0
  8  9  1  0
  9 10  1  0
 10 11  1  0
 11 12  2  0
 12 13  1  0
 13 14  2  0
  9 15  2  0
  2 16  1  0
 16 17  1  0
 17 18  1  0
 18 19  1  0
 19 20  1  0
 20 21  1  0
 21 22  2  0
 22 23  1  0
 23 24  2  0
 24 25  1  0
 25 26  2  0
 15  5  1  0
 26 17  1  0
 14 10  1  0
 26 21  1  0
  3 27  1  0
  4 28  1  0
  4 29  1  0
  6 30  1  0
  7 31  1  0
 11 32  1  0
 13 33  1  0
 15 34  1  0
 16 35  1  0
 17 36  1  6
 18 37  1  0
 18 38  1  0
 19 39  1  0
 19 40  1  0
 20 41  1  0
 20 42  1  0
 22 43  1  0
 23 44  1  0
 24 45  1  0
 25 46  1  0
M  END
$$$$
OCNT-2310066
     RDKit          3D

 37 38  0  0  0  0  0  0  0  0999 V2000
   -6.3916   -1.3939   -1.3921 N   0  0  0  0  0  0  0  0  0  0  0  0
   -5.4453   -1.0428   -0.8217 C   0  0  0  0  0  0  0  0  0  0  0  0
   -4.2652   -0.6070   -0.1268 C   0  0  0  0  0  0  0  0  0  0  0  0
   -3.0544   -1.2631   -0.3897 C   0  0  0  0  0  0  0  0  0  0  0  0
   -1.8864   -0.8554    0.2613 C   0  0  0  0  0  0  0  0  0  0  0  0
   -0.3684   -1.7136   -0.0641 S   0  0  0  0  0  0  0  0  0  0  0  0
   -0.6971   -3.1040   -0.2796 O   0  0  0  0  0  0  0  0  0  0  0  0
    0.6191   -1.3126    0.9130 O   0  0  0  0  0  0  0  0  0  0  0  0
    0.0796   -1.1035   -1.5473 N   0  0  0  0  0  0  0  0  0  0  0  0
    0.5885    0.2653   -1.7205 C   0  0  0  0  0  0  0  0  0  0  0  0
    2.1127    0.3519   -1.5341 C   0  0  0  0  0  0  0  0  0  0  0  0
    2.4553    0.4112   -0.1143 N   0  0  0  0  0  0  0  0  0  0  0  0
    3.8357    0.4113    0.1495 C   0  0  0  0  0  0  0  0  0  0  0  0
    4.2850    0.3367    1.4735 C   0  0  0  0  0  0  0  0  0  0  0  0
    5.5933    0.3687    1.8361 N   0  0  0  0  0  0  0  0  0  0  0  0
    6.4586    0.4971    0.8110 C   0  0  0  0  0  0  0  0  0  0  0  0
    6.0348    0.5897   -0.5025 C   0  0  0  0  0  0  0  0  0  0  0  0
    4.7274    0.5542   -0.8561 N   0  0  0  0  0  0  0  0  0  0  0  0
   -1.9135    0.1869    1.1883 C   0  0  0  0  0  0  0  0  0  0  0  0
   -3.1186    0.8406    1.4511 C   0  0  0  0  0  0  0  0  0  0  0  0
   -4.3060    0.4552    0.7982 C   0  0  0  0  0  0  0  0  0  0  0  0
   -5.6019    1.1760    1.0938 C   0  0  0  0  0  0  0  0  0  0  0  0
   -5.4634    2.1730    2.0115 F   0  0  0  0  0  0  0  0  0  0  0  0
   -6.5572    0.3466    1.5893 F   0  0  0  0  0  0  0  0  0  0  0  0
   -6.1307    1.7633   -0.0120 F   0  0  0  0  0  0  0  0  0  0  0  0
   -3.0204   -2.0913   -1.0980 H   0  0  0  0  0  0  0  0  0  0  0  0
    0.2622   -1.8024   -2.2668 H   0  0  0  0  0  0  0  0  0  0  0  0
    0.0684    0.9598   -1.0529 H   0  0  0  0  0  0  0  0  0  0  0  0
    0.3410    0.5642   -2.7457 H   0  0  0  0  0  0  0  0  0  0  0  0
    2.5897   -0.5095   -2.0187 H   0  0  0  0  0  0  0  0  0  0  0  0
    2.4610    1.2681   -2.0267 H   0  0  0  0  0  0  0  0  0  0  0  0
    2.0135   -0.3475    0.4204 H   0  0  0  0  0  0  0  0  0  0  0  0
    3.5802    0.2497    2.2938 H   0  0  0  0  0  0  0  0  0  0  0  0
    7.5097    0.5269    1.0731 H   0  0  0  0  0  0  0  0  0  0  0  0
    6.7417    0.6981   -1.3169 H   0  0  0  0  0  0  0  0  0  0  0  0
   -1.0081    0.4962    1.7087 H   0  0  0  0  0  0  0  0  0  0  0  0
   -3.1290    1.6560    2.1757 H   0  0  0  0  0  0  0  0  0  0  0  0
  1  2  3  0
  2  3  1  0
  3  4  1  0
  4  5  2  0
  5  6  1  0
  6  7  2  0
  6  8  2  0
  6  9  1  0
  9 10  1  0
 10 11  1  0
 11 12  1  0
 12 13  1  0
 13 14  2  0
 14 15  1  0
 15 16  2  0
 16 17  1  0
 17 18  2  0
  5 19  1  0
 19 20  2  0
 20 21  1  0
 21 22  1  0
 22 23  1  0
 22 24  1  0
 22 25  1  0
 21  3  2  0
 18 13  1  0
  4 26  1  0
  9 27  1  0
 10 28  1  0
 10 29  1  0
 11 30  1  0
 11 31  1  0
 12 32  1  0
 14 33  1  0
 16 34  1  0
 17 35  1  0
 19 36  1  0
 20 37  1  0
M  END
$$$$
OCNT-2310067
     RDKit          3D

 49 52  0  0  0  0  0  0  0  0999 V2000
    6.9797   -1.3205    1.2221 C   0  0  0  0  0  0  0  0  0  0  0  0
    5.6827   -0.8811    0.6626 C   0  0  0  0  0  0  0  0  0  0  0  0
    4.5683   -1.5743    0.9220 N   0  0  0  0  0  0  0  0  0  0  0  0
    3.5515   -0.9133    0.2618 O   0  0  0  0  0  0  0  0  0  0  0  0
    4.0556    0.1700   -0.3861 C   0  0  0  0  0  0  0  0  0  0  0  0
    3.1060    1.0219   -1.1638 C   0  0  0  0  0  0  0  0  0  0  0  0
    2.0498    1.6887   -0.2710 C   0  0  0  0  0  0  0  0  0  0  0  0
    0.8756    0.7698    0.0583 C   0  0  0  0  0  0  0  0  0  0  0  0
    0.2908    0.2662   -1.2186 N   0  0  0  0  0  0  0  0  0  0  0  0
   -1.2494   -0.4953   -1.0345 S   0  0  0  0  0  0  0  0  0  0  0  0
   -1.1118   -1.3730    0.1070 O   0  0  0  0  0  0  0  0  0  0  0  0
   -1.6608   -0.9819   -2.3347 O   0  0  0  0  0  0  0  0  0  0  0  0
   -2.3432    0.8570   -0.6370 C   0  0  0  0  0  0  0  0  0  0  0  0
   -2.0410    2.1222   -1.1738 C   0  0  0  0  0  0  0  0  0  0  0  0
   -2.8316    3.2266   -0.8641 C   0  0  0  0  0  0  0  0  0  0  0  0
   -3.9307    3.0733   -0.0273 C   0  0  0  0  0  0  0  0  0  0  0  0
   -4.2485    1.8125    0.4843 C   0  0  0  0  0  0  0  0  0  0  0  0
   -3.4712    0.6747    0.1843 C   0  0  0  0  0  0  0  0  0  0  0  0
   -3.9223   -0.6254    0.6991 C   0  0  0  0  0  0  0  0  0  0  0  0
   -3.8469   -0.9227    2.0691 C   0  0  0  0  0  0  0  0  0  0  0  0
   -4.2950   -2.1513    2.5600 C   0  0  0  0  0  0  0  0  0  0  0  0
   -4.8292   -3.0977    1.6885 C   0  0  0  0  0  0  0  0  0  0  0  0
   -4.9165   -2.8172    0.3269 C   0  0  0  0  0  0  0  0  0  0  0  0
   -4.4690   -1.5887   -0.1643 C   0  0  0  0  0  0  0  0  0  0  0  0
    1.2748   -0.5911   -1.9365 C   0  0  0  0  0  0  0  0  0  0  0  0
    2.4722    0.2672   -2.3403 C   0  0  0  0  0  0  0  0  0  0  0  0
    5.4104    0.2331   -0.1614 C   0  0  0  0  0  0  0  0  0  0  0  0
    6.9433   -1.3311    2.3162 H   0  0  0  0  0  0  0  0  0  0  0  0
    7.7886   -0.6488    0.9175 H   0  0  0  0  0  0  0  0  0  0  0  0
    7.2279   -2.3281    0.8736 H   0  0  0  0  0  0  0  0  0  0  0  0
    3.7150    1.8301   -1.5944 H   0  0  0  0  0  0  0  0  0  0  0  0
    2.4999    2.0596    0.6578 H   0  0  0  0  0  0  0  0  0  0  0  0
    1.6576    2.5662   -0.8029 H   0  0  0  0  0  0  0  0  0  0  0  0
    0.1339    1.3485    0.6174 H   0  0  0  0  0  0  0  0  0  0  0  0
    1.1914   -0.0642    0.6933 H   0  0  0  0  0  0  0  0  0  0  0  0
   -1.1915    2.2517   -1.8409 H   0  0  0  0  0  0  0  0  0  0  0  0
   -2.5935    4.2026   -1.2794 H   0  0  0  0  0  0  0  0  0  0  0  0
   -4.5557    3.9293    0.2156 H   0  0  0  0  0  0  0  0  0  0  0  0
   -5.1337    1.7115    1.1120 H   0  0  0  0  0  0  0  0  0  0  0  0
   -3.4224   -0.2002    2.7625 H   0  0  0  0  0  0  0  0  0  0  0  0
   -4.2179   -2.3719    3.6211 H   0  0  0  0  0  0  0  0  0  0  0  0
   -5.1702   -4.0567    2.0689 H   0  0  0  0  0  0  0  0  0  0  0  0
   -5.3265   -3.5562   -0.3563 H   0  0  0  0  0  0  0  0  0  0  0  0
   -4.5457   -1.3895   -1.2318 H   0  0  0  0  0  0  0  0  0  0  0  0
    0.8281   -0.9935   -2.8517 H   0  0  0  0  0  0  0  0  0  0  0  0
    1.5779   -1.4365   -1.3103 H   0  0  0  0  0  0  0  0  0  0  0  0
    2.1259    1.0095   -3.0725 H   0  0  0  0  0  0  0  0  0  0  0  0
    3.2156   -0.3550   -2.8533 H   0  0  0  0  0  0  0  0  0  0  0  0
    6.1016    0.9728   -0.5366 H   0  0  0  0  0  0  0  0  0  0  0  0
  1  2  1  0
  2  3  2  0
  3  4  1  0
  4  5  1  0
  5  6  1  0
  6  7  1  0
  7  8  1  0
  8  9  1  0
  9 10  1  0
 10 11  2  0
 10 12  2  0
 10 13  1  0
 13 14  2  0
 14 15  1  0
 15 16  2  0
 16 17  1  0
 17 18  2  0
 18 19  1  0
 19 20  2  0
 20 21  1  0
 21 22  2  0
 22 23  1  0
 23 24  2  0
  9 25  1  0
 25 26  1  0
  5 27  2  0
 27  2  1  0
 26  6  1  0
 18 13  1  0
 24 19  1  0
  1 28  1  0
  1 29  1  0
  1 30  1  0
  6 31  1  0
  7 32  1  0
  7 33  1  0
  8 34  1  0
  8 35  1  0
 14 36  1  0
 15 37  1  0
 16 38  1  0
 17 39  1  0
 20 40  1  0
 21 41  1  0
 22 42  1  0
 23 43  1  0
 24 44  1  0
 25 45  1  0
 25 46  1  0
 26 47  1  0
 26 48  1  0
 27 49  1  0
M  END
$$$$
OCNT-2310076
     RDKit          3D

 46 48  0  0  0  0  0  0  0  0999 V2000
   -5.9458    0.2603   -1.6532 C   0  0  0  0  0  0  0  0  0  0  0  0
   -4.7240   -0.2148   -0.9970 N   0  0  0  0  0  0  0  0  0  0  0  0
   -5.0082   -0.6929    0.3601 C   0  0  0  0  0  0  0  0  0  0  0  0
   -4.9708    0.3385    1.4946 C   0  0  0  0  0  0  0  0  0  0  0  0
   -3.6121    0.9933    1.7839 C   0  0  0  0  0  0  0  0  0  0  0  0
   -2.4163    0.3072    1.1282 C   0  0  0  0  0  0  0  0  0  0  0  0
   -2.3350    0.4922   -0.4038 C   0  0  0  0  0  0  0  0  0  0  0  0
   -1.6384   -0.7033   -1.0779 C   0  0  0  0  0  0  0  0  0  0  0  0
   -0.2813   -0.8930   -0.6068 N   0  0  0  0  0  0  0  0  0  0  0  0
    0.7776   -0.1421   -1.0660 C   0  0  0  0  0  0  0  0  0  0  0  0
    0.6773    0.7171   -1.9355 O   0  0  0  0  0  0  0  0  0  0  0  0
    2.0385   -0.4560   -0.4114 C   0  0  0  0  0  0  0  0  0  0  0  0
    3.2727    0.1093   -0.6520 C   0  0  0  0  0  0  0  0  0  0  0  0
    4.1346   -0.5167    0.2145 N   0  0  0  0  0  0  0  0  0  0  0  0
    5.5274   -0.3392    0.4075 C   0  0  0  0  0  0  0  0  0  0  0  0
    6.1922   -1.1182    1.3733 C   0  0  0  0  0  0  0  0  0  0  0  0
    7.5651   -0.9664    1.5866 C   0  0  0  0  0  0  0  0  0  0  0  0
    8.2883   -0.0380    0.8408 C   0  0  0  0  0  0  0  0  0  0  0  0
    7.6354    0.7368   -0.1172 C   0  0  0  0  0  0  0  0  0  0  0  0
    8.5462    1.8805   -1.0299 Cl  0  0  0  0  0  0  0  0  0  0  0  0
    6.2622    0.5890   -0.3349 C   0  0  0  0  0  0  0  0  0  0  0  0
    5.6756    1.3554   -1.2658 F   0  0  0  0  0  0  0  0  0  0  0  0
    3.4390   -1.4245    0.9517 N   0  0  0  0  0  0  0  0  0  0  0  0
    2.1681   -1.3942    0.5783 N   0  0  0  0  0  0  0  0  0  0  0  0
   -3.6764    0.8071   -1.0977 C   0  0  0  0  0  0  0  0  0  0  0  0
   -6.3826    1.1234   -1.1386 H   0  0  0  0  0  0  0  0  0  0  0  0
   -6.6980   -0.5355   -1.6945 H   0  0  0  0  0  0  0  0  0  0  0  0
   -5.7423    0.5447   -2.6918 H   0  0  0  0  0  0  0  0  0  0  0  0
   -4.3088   -1.5061    0.5873 H   0  0  0  0  0  0  0  0  0  0  0  0
   -5.9885   -1.1885    0.3797 H   0  0  0  0  0  0  0  0  0  0  0  0
   -5.7180    1.1218    1.3173 H   0  0  0  0  0  0  0  0  0  0  0  0
   -5.2966   -0.1729    2.4102 H   0  0  0  0  0  0  0  0  0  0  0  0
   -3.4610    1.0008    2.8709 H   0  0  0  0  0  0  0  0  0  0  0  0
   -3.6396    2.0498    1.4901 H   0  0  0  0  0  0  0  0  0  0  0  0
   -2.4098   -0.7547    1.4023 H   0  0  0  0  0  0  0  0  0  0  0  0
   -1.4981    0.7202    1.5672 H   0  0  0  0  0  0  0  0  0  0  0  0
   -1.7062    1.3789   -0.5707 H   0  0  0  0  0  0  0  0  0  0  0  0
   -1.6003   -0.5551   -2.1634 H   0  0  0  0  0  0  0  0  0  0  0  0
   -2.1776   -1.6369   -0.8858 H   0  0  0  0  0  0  0  0  0  0  0  0
   -0.1021   -1.5444    0.1500 H   0  0  0  0  0  0  0  0  0  0  0  0
    3.5668    0.8759   -1.3512 H   0  0  0  0  0  0  0  0  0  0  0  0
    5.6561   -1.8536    1.9733 H   0  0  0  0  0  0  0  0  0  0  0  0
    8.0685   -1.5744    2.3358 H   0  0  0  0  0  0  0  0  0  0  0  0
    9.3563    0.0769    1.0099 H   0  0  0  0  0  0  0  0  0  0  0  0
   -4.0490    1.7746   -0.7357 H   0  0  0  0  0  0  0  0  0  0  0  0
   -3.4611    0.9675   -2.1634 H   0  0  0  0  0  0  0  0  0  0  0  0
  1  2  1  0
  2  3  1  0
  3  4  1  0
  4  5  1  0
  5  6  1  0
  6  7  1  0
  7  8  1  0
  8  9  1  0
  9 10  1  0
 10 11  2  0
 10 12  1  0
 12 13  2  0
 13 14  1  0
 14 15  1  0
 15 16  2  0
 16 17  1  0
 17 18  2  0
 18 19  1  0
 19 20  1  0
 19 21  2  0
 21 22  1  0
 14 23  1  0
 23 24  2  0
  7 25  1  0
 25  2  1  0
 24 12  1  0
 21 15  1  0
  1 26  1  0
  1 27  1  0
  1 28  1  0
  3 29  1  0
  3 30  1  0
  4 31  1  0
  4 32  1  0
  5 33  1  0
  5 34  1  0
  6 35  1  0
  6 36  1  0
  7 37  1  0
  8 38  1  0
  8 39  1  0
  9 40  1  0
 13 41  1  0
 16 42  1  0
 17 43  1  0
 18 44  1  0
 25 45  1  0
 25 46  1  0
M  END
$$$$
OCNT-2310088
     RDKit          3D

 42 44  0  0  0  0  0  0  0  0999 V2000
    7.5708    0.8674   -1.4066 C   0  0  0  0  0  0  0  0  0  0  0  0
    7.6805    0.5207    0.0140 N   0  0  0  0  0  0  0  0  0  0  0  0
    6.4324   -0.4101    0.6574 S   0  0  0  0  0  0  0  0  0  0  0  0
    6.0630   -1.4154   -0.3128 O   0  0  0  0  0  0  0  0  0  0  0  0
    6.7952   -0.7403    2.0150 O   0  0  0  0  0  0  0  0  0  0  0  0
    5.0283    0.5861    0.8239 C   0  0  0  0  0  0  0  0  0  0  0  0
    5.0695    1.8775    1.2963 C   0  0  0  0  0  0  0  0  0  0  0  0
    3.5185    2.5922    1.3122 S   0  0  0  0  0  0  0  0  0  0  0  0
    2.7636    1.1625    0.7200 C   0  0  0  0  0  0  0  0  0  0  0  0
    1.3114    1.1630    0.5186 C   0  0  0  0  0  0  0  0  0  0  0  0
    0.6637    2.2010    0.4222 O   0  0  0  0  0  0  0  0  0  0  0  0
    0.7564   -0.1088    0.4604 N   0  0  0  0  0  0  0  0  0  0  0  0
   -0.5937   -0.4576    0.2425 C   0  0  0  0  0  0  0  0  0  0  0  0
   -0.9115   -1.8212    0.2813 C   0  0  0  0  0  0  0  0  0  0  0  0
   -2.2242   -2.2546    0.0723 C   0  0  0  0  0  0  0  0  0  0  0  0
   -3.2410   -1.3320   -0.1716 C   0  0  0  0  0  0  0  0  0  0  0  0
   -4.4924   -1.8742   -0.3739 O   0  0  0  0  0  0  0  0  0  0  0  0
   -5.5781   -1.0417   -0.2499 C   0  0  0  0  0  0  0  0  0  0  0  0
   -6.1686   -0.5658   -1.4245 C   0  0  0  0  0  0  0  0  0  0  0  0
   -7.2927    0.2571   -1.3530 C   0  0  0  0  0  0  0  0  0  0  0  0
   -7.8366    0.5889   -0.1115 C   0  0  0  0  0  0  0  0  0  0  0  0
   -7.2632    0.0905    1.0611 C   0  0  0  0  0  0  0  0  0  0  0  0
   -6.1377   -0.7339    0.9947 C   0  0  0  0  0  0  0  0  0  0  0  0
   -5.4872   -1.3591    2.4653 Cl  0  0  0  0  0  0  0  0  0  0  0  0
   -2.9304    0.0272   -0.2230 C   0  0  0  0  0  0  0  0  0  0  0  0
   -1.6132    0.4600   -0.0153 C   0  0  0  0  0  0  0  0  0  0  0  0
    3.7023    0.1687    0.4942 C   0  0  0  0  0  0  0  0  0  0  0  0
    8.3523    1.5926   -1.6517 H   0  0  0  0  0  0  0  0  0  0  0  0
    7.7243   -0.0169   -2.0308 H   0  0  0  0  0  0  0  0  0  0  0  0
    6.6038    1.3246   -1.6312 H   0  0  0  0  0  0  0  0  0  0  0  0
    8.5798    0.1141    0.2755 H   0  0  0  0  0  0  0  0  0  0  0  0
    5.9352    2.4377    1.6253 H   0  0  0  0  0  0  0  0  0  0  0  0
    1.3751   -0.8843    0.6474 H   0  0  0  0  0  0  0  0  0  0  0  0
   -0.1474   -2.5693    0.4759 H   0  0  0  0  0  0  0  0  0  0  0  0
   -2.4551   -3.3164    0.1085 H   0  0  0  0  0  0  0  0  0  0  0  0
   -5.7477   -0.8319   -2.3905 H   0  0  0  0  0  0  0  0  0  0  0  0
   -7.7473    0.6364   -2.2652 H   0  0  0  0  0  0  0  0  0  0  0  0
   -8.7142    1.2290   -0.0563 H   0  0  0  0  0  0  0  0  0  0  0  0
   -7.7029    0.3428    2.0227 H   0  0  0  0  0  0  0  0  0  0  0  0
   -3.6892    0.7769   -0.4264 H   0  0  0  0  0  0  0  0  0  0  0  0
   -1.4251    1.5279   -0.0657 H   0  0  0  0  0  0  0  0  0  0  0  0
    3.4733   -0.8113    0.0916 H   0  0  0  0  0  0  0  0  0  0  0  0
  1  2  1  0
  2  3  1  0
  3  4  2  0
  3  5  2  0
  3  6  1  0
  6  7  2  0
  7  8  1  0
  8  9  1  0
  9 10  1  0
 10 11  2  0
 10 12  1  0
 12 13  1  0
 13 14  1  0
 14 15  2  0
 15 16  1  0
 16 17  1  0
 17 18  1  0
 18 19  2  0
 19 20  1  0
 20 21  2  0
 21 22  1  0
 22 23  2  0
 23 24  1  0
 16 25  2  0
 25 26  1  0
  9 27  2  0
 27  6  1  0
 26 13  2  0
 23 18  1  0
  1 28  1  0
  1 29  1  0
  1 30  1  0
  2 31  1  0
  7 32  1  0
 12 33  1  0
 14 34  1  0
 15 35  1  0
 19 36  1  0
 20 37  1  0
 21 38  1  0
 22 39  1  0
 25 40  1  0
 26 41  1  0
 27 42  1  0
M  END
$$$$
OCNT-2310095
     RDKit          3D

 38 40  0  0  0  0  0  0  0  0999 V2000
   -4.4508   -2.2911   -2.2525 N   0  0  0  0  0  0  0  0  0  0  0  0
   -4.5622   -1.4672   -1.4420 C   0  0  0  0  0  0  0  0  0  0  0  0
   -4.7433   -0.4587   -0.4344 C   0  0  0  0  0  0  0  0  0  0  0  0
   -6.0553   -0.1062   -0.0777 C   0  0  0  0  0  0  0  0  0  0  0  0
   -6.2879    0.8742    0.8864 C   0  0  0  0  0  0  0  0  0  0  0  0
   -5.2131    1.5096    1.4999 C   0  0  0  0  0  0  0  0  0  0  0  0
   -3.9056    1.1647    1.1506 C   0  0  0  0  0  0  0  0  0  0  0  0
   -3.6456    0.1765    0.1820 C   0  0  0  0  0  0  0  0  0  0  0  0
   -2.2500   -0.1497   -0.1490 C   0  0  0  0  0  0  0  0  0  0  0  0
   -1.6730   -1.3588    0.2669 C   0  0  0  0  0  0  0  0  0  0  0  0
   -0.3454   -1.6658   -0.0473 C   0  0  0  0  0  0  0  0  0  0  0  0
    0.4358   -0.7692   -0.7864 C   0  0  0  0  0  0  0  0  0  0  0  0
    1.8703   -1.0927   -1.1299 C   0  0  0  0  0  0  0  0  0  0  0  0
    2.7877   -0.2665   -0.3506 N   0  0  0  0  0  0  0  0  0  0  0  0
    4.1756   -0.6111   -0.6400 C   0  0  0  0  0  0  0  0  0  0  0  0
    5.0546    0.2252    0.2208 C   0  0  0  0  0  0  0  0  0  0  0  0
    5.1646    1.6010    0.2657 C   0  0  0  0  0  0  0  0  0  0  0  0
    6.1038    1.8848    1.2111 N   0  0  0  0  0  0  0  0  0  0  0  0
    6.6326    0.7907    1.7825 N   0  0  0  0  0  0  0  0  0  0  0  0
    5.9936   -0.2160    1.1824 C   0  0  0  0  0  0  0  0  0  0  0  0
   -0.1324    0.4454   -1.1922 C   0  0  0  0  0  0  0  0  0  0  0  0
   -1.4595    0.7506   -0.8780 C   0  0  0  0  0  0  0  0  0  0  0  0
   -6.9043   -0.5948   -0.5536 H   0  0  0  0  0  0  0  0  0  0  0  0
   -7.3064    1.1421    1.1574 H   0  0  0  0  0  0  0  0  0  0  0  0
   -5.3892    2.2745    2.2527 H   0  0  0  0  0  0  0  0  0  0  0  0
   -3.0772    1.6702    1.6458 H   0  0  0  0  0  0  0  0  0  0  0  0
   -2.2554   -2.0750    0.8434 H   0  0  0  0  0  0  0  0  0  0  0  0
    0.0708   -2.6128    0.2884 H   0  0  0  0  0  0  0  0  0  0  0  0
    2.0168   -0.9239   -2.2042 H   0  0  0  0  0  0  0  0  0  0  0  0
    2.0598   -2.1576   -0.9451 H   0  0  0  0  0  0  0  0  0  0  0  0
    2.6054   -0.4115    0.6414 H   0  0  0  0  0  0  0  0  0  0  0  0
    4.4102   -0.4142   -1.6927 H   0  0  0  0  0  0  0  0  0  0  0  0
    4.3625   -1.6736   -0.4425 H   0  0  0  0  0  0  0  0  0  0  0  0
    4.6523    2.3815   -0.2786 H   0  0  0  0  0  0  0  0  0  0  0  0
    6.4338    2.7947    1.5151 H   0  0  0  0  0  0  0  0  0  0  0  0
    6.2368   -1.2316    1.4682 H   0  0  0  0  0  0  0  0  0  0  0  0
    0.4642    1.1622   -1.7531 H   0  0  0  0  0  0  0  0  0  0  0  0
   -1.8742    1.6998   -1.2112 H   0  0  0  0  0  0  0  0  0  0  0  0
  1  2  3  0
  2  3  1  0
  3  4  2  0
  4  5  1  0
  5  6  2  0
  6  7  1  0
  7  8  2  0
  8  9  1  0
  9 10  1  0
 10 11  2  0
 11 12  1  0
 12 13  1  0
 13 14  1  0
 14 15  1  0
 15 16  1  0
 16 17  2  0
 17 18  1  0
 18 19  1  0
 19 20  2  0
 12 21  2  0
 21 22  1  0
  8  3  1  0
 22  9  2  0
 20 16  1  0
  4 23  1  0
  5 24  1  0
  6 25  1  0
  7 26  1  0
 10 27  1  0
 11 28  1  0
 13 29  1  0
 13 30  1  0
 14 31  1  0
 15 32  1  0
 15 33  1  0
 17 34  1  0
 18 35  1  0
 20 36  1  0
 21 37  1  0
 22 38  1  0
M  END
$$$$
OCNT-2310096
     RDKit          3D

 46 49  0  0  0  0  0  0  0  0999 V2000
   -4.3038    1.1777    1.9094 C   0  0  0  0  0  0  0  0  0  0  0  0
   -4.3809   -0.2719    2.2974 C   0  0  0  0  0  0  0  0  0  0  0  0
   -5.4023   -0.5830    3.1386 N   0  0  0  0  0  0  0  0  0  0  0  0
   -5.5194   -1.8695    3.5188 C   0  0  0  0  0  0  0  0  0  0  0  0
   -6.5252   -2.1827    4.3476 F   0  0  0  0  0  0  0  0  0  0  0  0
   -4.6663   -2.8722    3.1080 C   0  0  0  0  0  0  0  0  0  0  0  0
   -3.6222   -2.5413    2.2467 C   0  0  0  0  0  0  0  0  0  0  0  0
   -3.4605   -1.2228    1.8155 C   0  0  0  0  0  0  0  0  0  0  0  0
   -2.4165   -0.8246    0.9491 N   0  0  0  0  0  0  0  0  0  0  0  0
   -1.5205   -1.6294    0.2804 C   0  0  0  0  0  0  0  0  0  0  0  0
   -1.5106   -2.8514    0.2520 O   0  0  0  0  0  0  0  0  0  0  0  0
   -0.6058   -0.8581   -0.4067 N   0  0  0  0  0  0  0  0  0  0  0  0
    0.4909   -1.5016   -1.1195 C   0  0  0  0  0  0  0  0  0  0  0  0
    0.0310   -2.2249   -2.4102 C   0  0  0  0  0  0  0  0  0  0  0  0
   -0.2143   -1.2572   -3.5841 C   0  0  0  0  0  0  0  0  0  0  0  0
    1.0549   -0.4710   -3.9567 C   0  0  0  0  0  0  0  0  0  0  0  0
    1.7041    0.0519   -2.7223 C   0  0  0  0  0  0  0  0  0  0  0  0
    1.4771   -0.4130   -1.4457 C   0  0  0  0  0  0  0  0  0  0  0  0
    2.1555    0.2637   -0.4478 N   0  0  0  0  0  0  0  0  0  0  0  0
    2.9379    1.1936   -0.9734 C   0  0  0  0  0  0  0  0  0  0  0  0
    3.8244    2.0663   -0.1737 C   0  0  0  0  0  0  0  0  0  0  0  0
    4.5090    3.1748   -0.7049 C   0  0  0  0  0  0  0  0  0  0  0  0
    5.3325    3.9664    0.1040 C   0  0  0  0  0  0  0  0  0  0  0  0
    5.4777    3.6584    1.4498 C   0  0  0  0  0  0  0  0  0  0  0  0
    6.2659    4.4182    2.2206 F   0  0  0  0  0  0  0  0  0  0  0  0
    4.8146    2.5740    2.0050 C   0  0  0  0  0  0  0  0  0  0  0  0
    3.9923    1.7840    1.1965 C   0  0  0  0  0  0  0  0  0  0  0  0
    2.8463    1.3066   -2.6990 S   0  0  0  0  0  0  0  0  0  0  0  0
   -5.1027    1.7531    2.3892 H   0  0  0  0  0  0  0  0  0  0  0  0
   -4.4170    1.2890    0.8265 H   0  0  0  0  0  0  0  0  0  0  0  0
   -3.3481    1.6073    2.2252 H   0  0  0  0  0  0  0  0  0  0  0  0
   -4.8119   -3.8883    3.4532 H   0  0  0  0  0  0  0  0  0  0  0  0
   -2.9502   -3.3350    1.9361 H   0  0  0  0  0  0  0  0  0  0  0  0
   -2.3847    0.1454    0.6737 H   0  0  0  0  0  0  0  0  0  0  0  0
   -0.3070   -0.0405    0.1094 H   0  0  0  0  0  0  0  0  0  0  0  0
    0.9559   -2.2272   -0.4410 H   0  0  0  0  0  0  0  0  0  0  0  0
   -0.8748   -2.8145   -2.2335 H   0  0  0  0  0  0  0  0  0  0  0  0
    0.8135   -2.9338   -2.7127 H   0  0  0  0  0  0  0  0  0  0  0  0
   -0.5631   -1.8169   -4.4594 H   0  0  0  0  0  0  0  0  0  0  0  0
   -1.0154   -0.5578   -3.3126 H   0  0  0  0  0  0  0  0  0  0  0  0
    0.7926    0.3416   -4.6432 H   0  0  0  0  0  0  0  0  0  0  0  0
    1.7556   -1.1345   -4.4775 H   0  0  0  0  0  0  0  0  0  0  0  0
    4.4149    3.4498   -1.7524 H   0  0  0  0  0  0  0  0  0  0  0  0
    5.8591    4.8208   -0.3101 H   0  0  0  0  0  0  0  0  0  0  0  0
    4.9390    2.3467    3.0590 H   0  0  0  0  0  0  0  0  0  0  0  0
    3.4785    0.9337    1.6440 H   0  0  0  0  0  0  0  0  0  0  0  0
  1  2  1  0
  2  3  1  0
  3  4  2  0
  4  5  1  0
  4  6  1  0
  6  7  2  0
  7  8  1  0
  8  9  1  0
  9 10  1  0
 10 11  2  0
 10 12  1  0
 12 13  1  0
 13 14  1  0
 14 15  1  0
 15 16  1  0
 16 17  1  0
 17 18  2  0
 18 19  1  0
 19 20  2  0
 20 21  1  0
 21 22  1  0
 22 23  2  0
 23 24  1  0
 24 25  1  0
 24 26  2  0
 26 27  1  0
 20 28  1  0
  8  2  2  0
 18 13  1  0
 27 21  2  0
 28 17  1  0
  1 29  1  0
  1 30  1  0
  1 31  1  0
  6 32  1  0
  7 33  1  0
  9 34  1  0
 12 35  1  0
 13 36  1  0
 14 37  1  0
 14 38  1  0
 15 39  1  0
 15 40  1  0
 16 41  1  0
 16 42  1  0
 22 43  1  0
 23 44  1  0
 26 45  1  0
 27 46  1  0
M  END
$$$$
OCNT-2310114
     RDKit          3D

 47 50  0  0  0  0  0  0  0  0999 V2000
   -8.5077   -1.4235    0.0685 C   0  0  0  0  0  0  0  0  0  0  0  0
   -8.2922    0.3360   -0.0831 S   0  0  0  0  0  0  0  0  0  0  0  0
   -9.5048    0.8771   -0.6609 O   0  0  0  0  0  0  0  0  0  0  0  0
   -7.7524    0.8583    1.1515 O   0  0  0  0  0  0  0  0  0  0  0  0
   -7.1345    0.4242   -1.3171 N   0  0  0  0  0  0  0  0  0  0  0  0
   -5.7779    0.5984   -0.9183 C   0  0  0  0  0  0  0  0  0  0  0  0
   -5.2657    1.8798   -0.7249 C   0  0  0  0  0  0  0  0  0  0  0  0
   -3.9468    2.0462   -0.2871 C   0  0  0  0  0  0  0  0  0  0  0  0
   -3.1329    0.9329   -0.0292 C   0  0  0  0  0  0  0  0  0  0  0  0
   -1.7519    1.0670    0.4281 C   0  0  0  0  0  0  0  0  0  0  0  0
   -1.2375    2.1801    1.0591 C   0  0  0  0  0  0  0  0  0  0  0  0
    0.4081    1.9229    1.4500 S   0  0  0  0  0  0  0  0  0  0  0  0
    0.3447    0.3553    0.7275 C   0  0  0  0  0  0  0  0  0  0  0  0
    1.3646   -0.5343    0.7039 N   0  0  0  0  0  0  0  0  0  0  0  0
    2.7556   -0.3362    0.6314 C   0  0  0  0  0  0  0  0  0  0  0  0
    3.5915   -1.3859    1.0414 C   0  0  0  0  0  0  0  0  0  0  0  0
    4.9836   -1.2549    1.0343 C   0  0  0  0  0  0  0  0  0  0  0  0
    5.5816   -0.0611    0.6152 C   0  0  0  0  0  0  0  0  0  0  0  0
    7.0826    0.0838    0.6045 C   0  0  0  0  0  0  0  0  0  0  0  0
    7.6997   -0.7812   -0.3838 N   0  0  0  0  0  0  0  0  0  0  0  0
    7.6684   -0.6517   -1.7383 C   0  0  0  0  0  0  0  0  0  0  0  0
    8.3878   -1.6034   -2.2872 N   0  0  0  0  0  0  0  0  0  0  0  0
    8.8464   -2.3022   -1.2068 C   0  0  0  0  0  0  0  0  0  0  0  0
    8.4592   -1.8339   -0.0171 N   0  0  0  0  0  0  0  0  0  0  0  0
    4.7562    0.9941    0.2110 C   0  0  0  0  0  0  0  0  0  0  0  0
    3.3622    0.8556    0.2236 C   0  0  0  0  0  0  0  0  0  0  0  0
   -0.8463    0.0269    0.2740 N   0  0  0  0  0  0  0  0  0  0  0  0
   -3.6694   -0.3491   -0.2266 C   0  0  0  0  0  0  0  0  0  0  0  0
   -4.9882   -0.5175   -0.6593 C   0  0  0  0  0  0  0  0  0  0  0  0
   -7.5822   -1.8684    0.4362 H   0  0  0  0  0  0  0  0  0  0  0  0
   -9.3120   -1.6016    0.7858 H   0  0  0  0  0  0  0  0  0  0  0  0
   -8.7836   -1.8333   -0.9049 H   0  0  0  0  0  0  0  0  0  0  0  0
   -7.4641    1.0852   -2.0237 H   0  0  0  0  0  0  0  0  0  0  0  0
   -5.8850    2.7559   -0.8965 H   0  0  0  0  0  0  0  0  0  0  0  0
   -3.5740    3.0586   -0.1571 H   0  0  0  0  0  0  0  0  0  0  0  0
   -1.7259    3.1051    1.3272 H   0  0  0  0  0  0  0  0  0  0  0  0
    1.0886   -1.4651    0.4103 H   0  0  0  0  0  0  0  0  0  0  0  0
    3.1592   -2.3232    1.3862 H   0  0  0  0  0  0  0  0  0  0  0  0
    5.5966   -2.0950    1.3594 H   0  0  0  0  0  0  0  0  0  0  0  0
    7.3874    1.1093    0.3659 H   0  0  0  0  0  0  0  0  0  0  0  0
    7.4940   -0.1619    1.5904 H   0  0  0  0  0  0  0  0  0  0  0  0
    7.1230    0.1255   -2.2548 H   0  0  0  0  0  0  0  0  0  0  0  0
    9.4824   -3.1742   -1.2905 H   0  0  0  0  0  0  0  0  0  0  0  0
    5.1823    1.9384   -0.1222 H   0  0  0  0  0  0  0  0  0  0  0  0
    2.7668    1.6922   -0.1298 H   0  0  0  0  0  0  0  0  0  0  0  0
   -3.0592   -1.2306   -0.0368 H   0  0  0  0  0  0  0  0  0  0  0  0
   -5.3781   -1.5201   -0.8040 H   0  0  0  0  0  0  0  0  0  0  0  0
  1  2  1  0
  2  3  2  0
  2  4  2  0
  2  5  1  0
  5  6  1  0
  6  7  1  0
  7  8  2  0
  8  9  1  0
  9 10  1  0
 10 11  2  0
 11 12  1  0
 12 13  1  0
 13 14  1  0
 14 15  1  0
 15 16  1  0
 16 17  2  0
 17 18  1  0
 18 19  1  0
 19 20  1  0
 20 21  1  0
 21 22  2  0
 22 23  1  0
 23 24  2  0
 18 25  2  0
 25 26  1  0
 13 27  2  0
  9 28  2  0
 28 29  1  0
 29  6  2  0
 27 10  1  0
 26 15  2  0
 24 20  1  0
  1 30  1  0
  1 31  1  0
  1 32  1  0
  5 33  1  0
  7 34  1  0
  8 35  1  0
 11 36  1  0
 14 37  1  0
 16 38  1  0
 17 39  1  0
 19 40  1  0
 19 41  1  0
 21 42  1  0
 23 43  1  0
 25 44  1  0
 26 45  1  0
 28 46  1  0
 29 47  1  0
M  END
$$$$
OCNT-2310120
     RDKit          3D

 40 43  0  0  0  0  0  0  0  0999 V2000
    1.9377   -2.5924    1.8666 O   0  0  0  0  0  0  0  0  0  0  0  0
    1.6161   -1.4403    1.5791 C   0  0  0  0  0  0  0  0  0  0  0  0
    0.2698   -0.9571    1.9941 C   0  0  0  0  0  0  0  0  0  0  0  0
   -0.4717   -0.4077    0.9915 N   0  0  0  0  0  0  0  0  0  0  0  0
   -1.7020   -0.0031    1.3032 C   0  0  0  0  0  0  0  0  0  0  0  0
   -2.4241    0.5755    0.2764 N   0  0  0  0  0  0  0  0  0  0  0  0
   -3.8566    0.3409    0.3467 C   0  0  0  0  0  0  0  0  0  0  0  0
   -4.5760    0.8140   -0.8716 C   0  0  0  0  0  0  0  0  0  0  0  0
   -5.0142    2.0535   -1.2902 C   0  0  0  0  0  0  0  0  0  0  0  0
   -5.6220    1.8561   -2.5530 C   0  0  0  0  0  0  0  0  0  0  0  0
   -5.5113    0.5127   -2.8266 C   0  0  0  0  0  0  0  0  0  0  0  0
   -4.8741   -0.1283   -1.8134 O   0  0  0  0  0  0  0  0  0  0  0  0
   -2.2291   -0.1140    2.5294 N   0  0  0  0  0  0  0  0  0  0  0  0
   -1.4569   -0.6661    3.4927 C   0  0  0  0  0  0  0  0  0  0  0  0
   -0.1763   -1.1153    3.2872 C   0  0  0  0  0  0  0  0  0  0  0  0
    0.7349   -1.7395    4.5971 Cl  0  0  0  0  0  0  0  0  0  0  0  0
    2.4415   -0.5930    0.8364 N   0  0  0  0  0  0  0  0  0  0  0  0
    2.3035    0.8758    0.7917 C   0  0  0  0  0  0  0  0  0  0  0  0
    2.4111    1.4075   -0.6448 C   0  0  0  0  0  0  0  0  0  0  0  0
    3.5967    0.7742   -1.3001 C   0  0  0  0  0  0  0  0  0  0  0  0
    4.1859   -0.3969   -0.8596 C   0  0  0  0  0  0  0  0  0  0  0  0
    5.2882   -0.7557   -1.6972 C   0  0  0  0  0  0  0  0  0  0  0  0
    5.4827    0.1475   -2.7210 C   0  0  0  0  0  0  0  0  0  0  0  0
    4.3377    1.4196   -2.6838 S   0  0  0  0  0  0  0  0  0  0  0  0
    3.7092   -1.1498    0.3510 C   0  0  0  0  0  0  0  0  0  0  0  0
   -2.0065    0.2662   -0.5952 H   0  0  0  0  0  0  0  0  0  0  0  0
   -4.0628   -0.7301    0.4773 H   0  0  0  0  0  0  0  0  0  0  0  0
   -4.2818    0.8636    1.2134 H   0  0  0  0  0  0  0  0  0  0  0  0
   -4.9011    2.9826   -0.7481 H   0  0  0  0  0  0  0  0  0  0  0  0
   -6.0808    2.6004   -3.1888 H   0  0  0  0  0  0  0  0  0  0  0  0
   -5.8155   -0.1106   -3.6559 H   0  0  0  0  0  0  0  0  0  0  0  0
   -1.9275   -0.7269    4.4706 H   0  0  0  0  0  0  0  0  0  0  0  0
    1.3773    1.2220    1.2537 H   0  0  0  0  0  0  0  0  0  0  0  0
    3.1192    1.2806    1.4061 H   0  0  0  0  0  0  0  0  0  0  0  0
    2.4934    2.4997   -0.6301 H   0  0  0  0  0  0  0  0  0  0  0  0
    1.5072    1.1393   -1.2049 H   0  0  0  0  0  0  0  0  0  0  0  0
    5.9105   -1.6312   -1.5558 H   0  0  0  0  0  0  0  0  0  0  0  0
    6.2392    0.1211   -3.4935 H   0  0  0  0  0  0  0  0  0  0  0  0
    4.4425   -1.0618    1.1610 H   0  0  0  0  0  0  0  0  0  0  0  0
    3.5858   -2.2109    0.1085 H   0  0  0  0  0  0  0  0  0  0  0  0
  1  2  2  0
  2  3  1  0
  3  4  2  0
  4  5  1  0
  5  6  1  0
  6  7  1  0
  7  8  1  0
  8  9  2  0
  9 10  1  0
 10 11  2  0
 11 12  1  0
  5 13  2  0
 13 14  1  0
 14 15  2  0
 15 16  1  0
  2 17  1  0
 17 18  1  0
 18 19  1  0
 19 20  1  0
 20 21  2  0
 21 22  1  0
 22 23  2  0
 23 24  1  0
 21 25  1  0
 15  3  1  0
 25 17  1  0
 12  8  1  0
 24 20  1  0
  6 26  1  0
  7 27  1  0
  7 28  1  0
  9 29  1  0
 10 30  1  0
 11 31  1  0
 14 32  1  0
 18 33  1  0
 18 34  1  0
 19 35  1  0
 19 36  1  0
 22 37  1  0
 23 38  1  0
 25 39  1  0
 25 40  1  0
M  END
$$$$
OCNT-2310123
     RDKit          3D

 53 56  0  0  0  0  0  0  0  0999 V2000
    6.9408    1.8642   -1.5806 C   0  0  0  0  0  0  0  0  0  0  0  0
    5.9052    1.2979   -0.6991 C   0  0  0  0  0  0  0  0  0  0  0  0
    4.5692    1.0096   -0.8458 C   0  0  0  0  0  0  0  0  0  0  0  0
    4.1857    0.4771    0.4049 C   0  0  0  0  0  0  0  0  0  0  0  0
    2.8988   -0.0139    0.8404 N   0  0  0  0  0  0  0  0  0  0  0  0
    2.6352   -0.7228    2.0160 C   0  0  0  0  0  0  0  0  0  0  0  0
    3.6309   -0.9999    3.0923 C   0  0  0  0  0  0  0  0  0  0  0  0
    1.3252   -1.1481    1.9857 C   0  0  0  0  0  0  0  0  0  0  0  0
    0.7171   -0.6748    0.8003 C   0  0  0  0  0  0  0  0  0  0  0  0
   -0.6767   -0.9396    0.4301 C   0  0  0  0  0  0  0  0  0  0  0  0
   -1.5333   -1.1638    1.2759 O   0  0  0  0  0  0  0  0  0  0  0  0
   -0.9113   -0.9911   -0.9255 N   0  0  0  0  0  0  0  0  0  0  0  0
   -2.2346   -1.1594   -1.5440 C   0  0  0  0  0  0  0  0  0  0  0  0
   -2.9911    0.1981   -1.6855 C   0  0  0  0  0  0  0  0  0  0  0  0
   -3.4828    0.8692   -0.4232 C   0  0  0  0  0  0  0  0  0  0  0  0
   -4.7665    0.5980    0.0735 C   0  0  0  0  0  0  0  0  0  0  0  0
   -5.2258    1.2206    1.2366 C   0  0  0  0  0  0  0  0  0  0  0  0
   -4.4060    2.1235    1.9080 C   0  0  0  0  0  0  0  0  0  0  0  0
   -4.9726    2.8932    3.3390 Cl  0  0  0  0  0  0  0  0  0  0  0  0
   -3.1338    2.4135    1.4231 C   0  0  0  0  0  0  0  0  0  0  0  0
   -2.6765    1.7919    0.2587 C   0  0  0  0  0  0  0  0  0  0  0  0
   -3.0685   -2.2786   -0.9218 C   0  0  0  0  0  0  0  0  0  0  0  0
   -3.9725   -2.7241   -2.0517 C   0  0  0  0  0  0  0  0  0  0  0  0
   -3.2738   -2.4656   -3.2765 O   0  0  0  0  0  0  0  0  0  0  0  0
   -2.0702   -1.7531   -2.9603 C   0  0  0  0  0  0  0  0  0  0  0  0
    1.6712    0.1217    0.1631 C   0  0  0  0  0  0  0  0  0  0  0  0
    1.4715    1.0533   -0.9863 C   0  0  0  0  0  0  0  0  0  0  0  0
    5.2279    0.4280    1.2430 N   0  0  0  0  0  0  0  0  0  0  0  0
    6.3017    0.9529    0.5523 O   0  0  0  0  0  0  0  0  0  0  0  0
    7.4485    2.7012   -1.0916 H   0  0  0  0  0  0  0  0  0  0  0  0
    6.5032    2.2317   -2.5139 H   0  0  0  0  0  0  0  0  0  0  0  0
    7.6877    1.1044   -1.8297 H   0  0  0  0  0  0  0  0  0  0  0  0
    3.9978    1.1572   -1.7463 H   0  0  0  0  0  0  0  0  0  0  0  0
    4.4572   -1.6125    2.7190 H   0  0  0  0  0  0  0  0  0  0  0  0
    4.0184   -0.0707    3.5210 H   0  0  0  0  0  0  0  0  0  0  0  0
    3.1637   -1.5579    3.9116 H   0  0  0  0  0  0  0  0  0  0  0  0
    0.8418   -1.7487    2.7484 H   0  0  0  0  0  0  0  0  0  0  0  0
   -0.1122   -0.8852   -1.5328 H   0  0  0  0  0  0  0  0  0  0  0  0
   -3.8558    0.0810   -2.3536 H   0  0  0  0  0  0  0  0  0  0  0  0
   -2.3367    0.9101   -2.2095 H   0  0  0  0  0  0  0  0  0  0  0  0
   -5.4204   -0.1033   -0.4394 H   0  0  0  0  0  0  0  0  0  0  0  0
   -6.2193    0.9946    1.6133 H   0  0  0  0  0  0  0  0  0  0  0  0
   -2.4919    3.1150    1.9479 H   0  0  0  0  0  0  0  0  0  0  0  0
   -1.6804    2.0286   -0.1044 H   0  0  0  0  0  0  0  0  0  0  0  0
   -2.4180   -3.1181   -0.6405 H   0  0  0  0  0  0  0  0  0  0  0  0
   -3.6311   -2.0022   -0.0270 H   0  0  0  0  0  0  0  0  0  0  0  0
   -4.9064   -2.1531   -2.0701 H   0  0  0  0  0  0  0  0  0  0  0  0
   -4.2208   -3.7875   -1.9903 H   0  0  0  0  0  0  0  0  0  0  0  0
   -1.2464   -2.4768   -2.9991 H   0  0  0  0  0  0  0  0  0  0  0  0
   -1.8803   -0.9971   -3.7293 H   0  0  0  0  0  0  0  0  0  0  0  0
    2.0051    1.9965   -0.8361 H   0  0  0  0  0  0  0  0  0  0  0  0
    1.7934    0.5877   -1.9224 H   0  0  0  0  0  0  0  0  0  0  0  0
    0.4183    1.3275   -1.0971 H   0  0  0  0  0  0  0  0  0  0  0  0
  1  2  1  0
  2  3  2  0
  3  4  1  0
  4  5  1  0
  5  6  1  0
  6  7  1  0
  6  8  2  0
  8  9  1  0
  9 10  1  0
 10 11  2  0
 10 12  1  0
 12 13  1  0
 13 14  1  0
 14 15  1  0
 15 16  1  0
 16 17  2  0
 17 18  1  0
 18 19  1  0
 18 20  2  0
 20 21  1  0
 13 22  1  0
 22 23  1  0
 23 24  1  0
 24 25  1  0
  9 26  2  0
 26 27  1  0
  4 28  2  0
 28 29  1  0
 29  2  1  0
 26  5  1  0
 25 13  1  0
 21 15  2  0
  1 30  1  0
  1 31  1  0
  1 32  1  0
  3 33  1  0
  7 34  1  0
  7 35  1  0
  7 36  1  0
  8 37  1  0
 12 38  1  0
 14 39  1  0
 14 40  1  0
 16 41  1  0
 17 42  1  0
 20 43  1  0
 21 44  1  0
 22 45  1  0
 22 46  1  0
 23 47  1  0
 23 48  1  0
 25 49  1  0
 25 50  1  0
 27 51  1  0
 27 52  1  0
 27 53  1  0
M  END
$$$$
OCNT-2310136
     RDKit          3D

 40 42  0  0  0  0  0  0  0  0999 V2000
   -1.4094    2.3084    2.0840 C   0  0  0  0  0  0  0  0  0  0  0  0
   -1.3774    0.8836    1.5283 C   0  0  0  0  0  0  0  0  0  0  0  0
   -0.0254    0.5549    1.0972 N   0  0  0  0  0  0  0  0  0  0  0  0
    0.4703   -0.7258    1.2513 C   0  0  0  0  0  0  0  0  0  0  0  0
   -0.0925   -1.6177    1.8717 O   0  0  0  0  0  0  0  0  0  0  0  0
    1.7522   -0.9902    0.5621 C   0  0  0  0  0  0  0  0  0  0  0  0
    1.9377   -2.2081   -0.1047 C   0  0  0  0  0  0  0  0  0  0  0  0
    3.1227   -2.4732   -0.7860 C   0  0  0  0  0  0  0  0  0  0  0  0
    4.1584   -1.5310   -0.8084 C   0  0  0  0  0  0  0  0  0  0  0  0
    4.0092   -0.3083   -0.1179 C   0  0  0  0  0  0  0  0  0  0  0  0
    2.8101   -0.0637    0.5595 C   0  0  0  0  0  0  0  0  0  0  0  0
    2.9412    1.1589    1.1854 N   0  0  0  0  0  0  0  0  0  0  0  0
    4.1540    1.7188    0.8849 C   0  0  0  0  0  0  0  0  0  0  0  0
    4.8399    0.8318    0.0828 C   0  0  0  0  0  0  0  0  0  0  0  0
    6.1572    1.0406   -0.4325 C   0  0  0  0  0  0  0  0  0  0  0  0
    7.2248    1.2132   -0.8538 N   0  0  0  0  0  0  0  0  0  0  0  0
   -2.3475    0.6427    0.3813 C   0  0  0  0  0  0  0  0  0  0  0  0
   -2.6120    1.6069   -0.6023 C   0  0  0  0  0  0  0  0  0  0  0  0
   -3.4832    1.3296   -1.6577 C   0  0  0  0  0  0  0  0  0  0  0  0
   -4.0960    0.0812   -1.7530 C   0  0  0  0  0  0  0  0  0  0  0  0
   -3.8459   -0.9063   -0.7914 C   0  0  0  0  0  0  0  0  0  0  0  0
   -4.4756   -2.2731   -0.9041 C   0  0  0  0  0  0  0  0  0  0  0  0
   -5.6191   -2.2766   -1.6466 F   0  0  0  0  0  0  0  0  0  0  0  0
   -4.8188   -2.8042    0.3023 F   0  0  0  0  0  0  0  0  0  0  0  0
   -3.6476   -3.1793   -1.4932 F   0  0  0  0  0  0  0  0  0  0  0  0
   -2.9635   -0.6169    0.2628 C   0  0  0  0  0  0  0  0  0  0  0  0
   -1.0317    3.0427    1.3641 H   0  0  0  0  0  0  0  0  0  0  0  0
   -2.4258    2.5990    2.3704 H   0  0  0  0  0  0  0  0  0  0  0  0
   -0.7728    2.3824    2.9732 H   0  0  0  0  0  0  0  0  0  0  0  0
   -1.6540    0.2200    2.3579 H   0  0  0  0  0  0  0  0  0  0  0  0
    0.3214    1.0708    0.2982 H   0  0  0  0  0  0  0  0  0  0  0  0
    1.1429   -2.9526   -0.0969 H   0  0  0  0  0  0  0  0  0  0  0  0
    3.2465   -3.4214   -1.3051 H   0  0  0  0  0  0  0  0  0  0  0  0
    5.0782   -1.7549   -1.3447 H   0  0  0  0  0  0  0  0  0  0  0  0
    2.2369    1.5674    1.7887 H   0  0  0  0  0  0  0  0  0  0  0  0
    4.4301    2.6887    1.2791 H   0  0  0  0  0  0  0  0  0  0  0  0
   -2.1422    2.5864   -0.5680 H   0  0  0  0  0  0  0  0  0  0  0  0
   -3.6806    2.0884   -2.4117 H   0  0  0  0  0  0  0  0  0  0  0  0
   -4.7684   -0.1211   -2.5856 H   0  0  0  0  0  0  0  0  0  0  0  0
   -2.7443   -1.3917    1.0008 H   0  0  0  0  0  0  0  0  0  0  0  0
  1  2  1  0
  2  3  1  0
  3  4  1  0
  4  5  2  0
  4  6  1  0
  6  7  1  0
  7  8  2  0
  8  9  1  0
  9 10  2  0
 10 11  1  0
 11 12  1  0
 12 13  1  0
 13 14  2  0
 14 15  1  0
 15 16  3  0
  2 17  1  0
 17 18  2  0
 18 19  1  0
 19 20  2  0
 20 21  1  0
 21 22  1  0
 22 23  1  0
 22 24  1  0
 22 25  1  0
 21 26  2  0
 11  6  2  0
 26 17  1  0
 14 10  1  0
  1 27  1  0
  1 28  1  0
  1 29  1  0
  2 30  1  0
  3 31  1  0
  7 32  1  0
  8 33  1  0
  9 34  1  0
 12 35  1  0
 13 36  1  0
 18 37  1  0
 19 38  1  0
 20 39  1  0
 26 40  1  0
M  END
$$$$
OCNT-2310153
     RDKit          3D

 41 43  0  0  0  0  0  0  0  0999 V2000
    6.1351    0.7794   -1.6860 C   0  0  0  0  0  0  0  0  0  0  0  0
    5.1594    1.5373   -0.9440 N   0  0  0  0  0  0  0  0  0  0  0  0
    5.3851    2.8375   -0.6819 N   0  0  0  0  0  0  0  0  0  0  0  0
    4.3534    3.2905    0.0115 N   0  0  0  0  0  0  0  0  0  0  0  0
    3.4752    2.2594    0.1765 C   0  0  0  0  0  0  0  0  0  0  0  0
    3.9561    1.1161   -0.4325 C   0  0  0  0  0  0  0  0  0  0  0  0
    3.4274   -0.2147   -0.5475 C   0  0  0  0  0  0  0  0  0  0  0  0
    4.0423   -1.1368   -1.0746 O   0  0  0  0  0  0  0  0  0  0  0  0
    2.1629   -0.3925   -0.0364 N   0  0  0  0  0  0  0  0  0  0  0  0
    1.4364   -1.6520   -0.1921 C   0  0  0  0  0  0  0  0  0  0  0  0
    0.7518   -1.7250   -1.5539 C   0  0  0  0  0  0  0  0  0  0  0  0
   -0.5162   -0.8870   -1.3677 C   0  0  0  0  0  0  0  0  0  0  0  0
   -0.7922   -0.9424    0.0726 N   0  0  0  0  0  0  0  0  0  0  0  0
   -2.0215   -0.6357    0.6134 C   0  0  0  0  0  0  0  0  0  0  0  0
   -2.3714   -0.9990    1.9207 C   0  0  0  0  0  0  0  0  0  0  0  0
   -3.6161   -0.6729    2.4706 C   0  0  0  0  0  0  0  0  0  0  0  0
   -4.5519    0.0391    1.7250 C   0  0  0  0  0  0  0  0  0  0  0  0
   -4.2395    0.4295    0.4279 C   0  0  0  0  0  0  0  0  0  0  0  0
   -5.0420    1.1362   -0.4227 O   0  0  0  0  0  0  0  0  0  0  0  0
   -6.3193    1.5298    0.0470 C   0  0  0  0  0  0  0  0  0  0  0  0
   -6.2166    2.3390    1.1233 F   0  0  0  0  0  0  0  0  0  0  0  0
   -6.9484    2.2161   -0.9332 F   0  0  0  0  0  0  0  0  0  0  0  0
   -7.0781    0.4568    0.3591 F   0  0  0  0  0  0  0  0  0  0  0  0
   -2.9852    0.0911   -0.1067 C   0  0  0  0  0  0  0  0  0  0  0  0
    0.2345   -1.7277    0.7649 C   0  0  0  0  0  0  0  0  0  0  0  0
    5.6579    0.3793   -2.5837 H   0  0  0  0  0  0  0  0  0  0  0  0
    6.5097   -0.0244   -1.0481 H   0  0  0  0  0  0  0  0  0  0  0  0
    6.9628    1.4331   -1.9744 H   0  0  0  0  0  0  0  0  0  0  0  0
    2.5568    2.4035    0.7263 H   0  0  0  0  0  0  0  0  0  0  0  0
    1.6075    0.4115    0.2267 H   0  0  0  0  0  0  0  0  0  0  0  0
    2.1338   -2.4815   -0.0371 H   0  0  0  0  0  0  0  0  0  0  0  0
    0.4722   -2.7637   -1.7693 H   0  0  0  0  0  0  0  0  0  0  0  0
    1.3648   -1.3606   -2.3837 H   0  0  0  0  0  0  0  0  0  0  0  0
   -1.3304   -1.3057   -1.9698 H   0  0  0  0  0  0  0  0  0  0  0  0
   -0.3388    0.1506   -1.6726 H   0  0  0  0  0  0  0  0  0  0  0  0
   -1.6802   -1.5557    2.5468 H   0  0  0  0  0  0  0  0  0  0  0  0
   -3.8516   -0.9774    3.4876 H   0  0  0  0  0  0  0  0  0  0  0  0
   -5.5036    0.2698    2.1935 H   0  0  0  0  0  0  0  0  0  0  0  0
   -2.7665    0.4255   -1.1178 H   0  0  0  0  0  0  0  0  0  0  0  0
    0.4851   -1.3110    1.7465 H   0  0  0  0  0  0  0  0  0  0  0  0
   -0.1008   -2.7655    0.8777 H   0  0  0  0  0  0  0  0  0  0  0  0
  1  2  1  0
  2  3  1  0
  3  4  2  0
  4  5  1  0
  5  6  2  0
  6  7  1  0
  7  8  2  0
  7  9  1  0
  9 10  1  0
 10 11  1  0
 11 12  1  0
 12 13  1  0
 13 14  1  0
 14 15  2  0
 15 16  1  0
 16 17  2  0
 17 18  1  0
 18 19  1  0
 19 20  1  0
 20 21  1  0
 20 22  1  0
 20 23  1  0
 18 24  2  0
 13 25  1  0
  6  2  1  0
 25 10  1  0
 24 14  1  0
  1 26  1  0
  1 27  1  0
  1 28  1  0
  5 29  1  0
  9 30  1  0
 10 31  1  0
 11 32  1  0
 11 33  1  0
 12 34  1  0
 12 35  1  0
 15 36  1  0
 16 37  1  0
 17 38  1  0
 24 39  1  0
 25 40  1  0
 25 41  1  0
M  END
$$$$
OCNT-2310161
     RDKit          3D

 44 47  0  0  0  0  0  0  0  0999 V2000
   -4.6774    3.1391    1.5950 C   0  0  0  0  0  0  0  0  0  0  0  0
   -4.2955    2.6298    2.8329 C   0  0  0  0  0  0  0  0  0  0  0  0
   -3.3051    1.6487    2.9089 C   0  0  0  0  0  0  0  0  0  0  0  0
   -2.6773    1.1647    1.7469 C   0  0  0  0  0  0  0  0  0  0  0  0
   -1.6174    0.0682    1.8771 C   0  0  0  0  0  0  0  0  0  0  0  0
   -0.6700    0.0818    0.7419 N   0  0  0  0  0  0  0  0  0  0  0  0
    0.4577   -0.8271    0.9786 C   0  0  0  0  0  0  0  0  0  0  0  0
    1.5260   -0.6238   -0.0719 C   0  0  0  0  0  0  0  0  0  0  0  0
    1.3091   -1.0329   -1.3933 C   0  0  0  0  0  0  0  0  0  0  0  0
    2.2926   -0.8485   -2.3727 C   0  0  0  0  0  0  0  0  0  0  0  0
    3.5137   -0.2413   -2.0466 C   0  0  0  0  0  0  0  0  0  0  0  0
    4.5228   -0.0561   -3.0371 N   0  0  0  0  0  0  0  0  0  0  0  0
    5.7539    0.5478   -2.8793 C   0  0  0  0  0  0  0  0  0  0  0  0
    6.3785    0.4790   -4.1021 C   0  0  0  0  0  0  0  0  0  0  0  0
    5.5794   -0.1373   -5.0197 N   0  0  0  0  0  0  0  0  0  0  0  0
    4.4813   -0.4435   -4.3615 C   0  0  0  0  0  0  0  0  0  0  0  0
    3.7288    0.1770   -0.7246 C   0  0  0  0  0  0  0  0  0  0  0  0
    2.7426   -0.0132    0.2505 C   0  0  0  0  0  0  0  0  0  0  0  0
   -2.2548   -1.2854    2.0651 C   0  0  0  0  0  0  0  0  0  0  0  0
   -2.0178   -2.1440    3.0416 N   0  0  0  0  0  0  0  0  0  0  0  0
   -2.8243   -3.2232    2.7887 C   0  0  0  0  0  0  0  0  0  0  0  0
   -3.5548   -3.0293    1.6408 C   0  0  0  0  0  0  0  0  0  0  0  0
   -3.1727   -1.8013    1.1799 N   0  0  0  0  0  0  0  0  0  0  0  0
   -3.0857    1.6813    0.5048 C   0  0  0  0  0  0  0  0  0  0  0  0
   -4.0751    2.6649    0.4320 C   0  0  0  0  0  0  0  0  0  0  0  0
   -5.4462    3.9032    1.5356 H   0  0  0  0  0  0  0  0  0  0  0  0
   -4.7701    2.9927    3.7404 H   0  0  0  0  0  0  0  0  0  0  0  0
   -3.0278    1.2525    3.8860 H   0  0  0  0  0  0  0  0  0  0  0  0
   -1.0448    0.3040    2.7862 H   0  0  0  0  0  0  0  0  0  0  0  0
   -0.2907    1.0269    0.6862 H   0  0  0  0  0  0  0  0  0  0  0  0
    0.1396   -1.8761    0.9388 H   0  0  0  0  0  0  0  0  0  0  0  0
    0.8929   -0.6583    1.9718 H   0  0  0  0  0  0  0  0  0  0  0  0
    0.3630   -1.4973   -1.6652 H   0  0  0  0  0  0  0  0  0  0  0  0
    2.0615   -1.1908   -3.3771 H   0  0  0  0  0  0  0  0  0  0  0  0
    6.0915    0.9743   -1.9462 H   0  0  0  0  0  0  0  0  0  0  0  0
    7.3614    0.8476   -4.3666 H   0  0  0  0  0  0  0  0  0  0  0  0
    3.6340   -0.9468   -4.8067 H   0  0  0  0  0  0  0  0  0  0  0  0
    4.6529    0.6518   -0.4098 H   0  0  0  0  0  0  0  0  0  0  0  0
    2.9369    0.3180    1.2680 H   0  0  0  0  0  0  0  0  0  0  0  0
   -2.8336   -4.0850    3.4443 H   0  0  0  0  0  0  0  0  0  0  0  0
   -4.2811   -3.6412    1.1250 H   0  0  0  0  0  0  0  0  0  0  0  0
   -3.4888   -1.3398    0.3370 H   0  0  0  0  0  0  0  0  0  0  0  0
   -2.6334    1.3253   -0.4198 H   0  0  0  0  0  0  0  0  0  0  0  0
   -4.3759    3.0636   -0.5343 H   0  0  0  0  0  0  0  0  0  0  0  0
  1  2  2  0
  2  3  1  0
  3  4  2  0
  4  5  1  0
  5  6  1  0
  6  7  1  0
  7  8  1  0
  8  9  1  0
  9 10  2  0
 10 11  1  0
 11 12  1  0
 12 13  1  0
 13 14  2  0
 14 15  1  0
 15 16  2  0
 11 17  2  0
 17 18  1  0
  5 19  1  0
 19 20  2  0
 20 21  1  0
 21 22  2  0
 22 23  1  0
  4 24  1  0
 24 25  2  0
 25  1  1  0
 18  8  2  0
 23 19  1  0
 16 12  1  0
  1 26  1  0
  2 27  1  0
  3 28  1  0
  5 29  1  0
  6 30  1  0
  7 31  1  0
  7 32  1  0
  9 33  1  0
 10 34  1  0
 13 35  1  0
 14 36  1  0
 16 37  1  0
 17 38  1  0
 18 39  1  0
 21 40  1  0
 22 41  1  0
 23 42  1  0
 24 43  1  0
 25 44  1  0
M  END
$$$$
OCNT-2310167
     RDKit          3D

 51 52  0  0  0  0  0  0  0  0999 V2000
   -7.1088    1.8416    1.9047 C   0  0  0  0  0  0  0  0  0  0  0  0
   -6.8054    0.3875    1.5627 C   0  0  0  0  0  0  0  0  0  0  0  0
   -5.3239    0.1372    1.3901 C   0  0  0  0  0  0  0  0  0  0  0  0
   -4.5428    0.1164    2.5606 C   0  0  0  0  0  0  0  0  0  0  0  0
   -3.1604   -0.0798    2.5119 C   0  0  0  0  0  0  0  0  0  0  0  0
   -2.5101   -0.2489    1.2896 C   0  0  0  0  0  0  0  0  0  0  0  0
   -1.1156   -0.4414    1.3209 N   0  0  0  0  0  0  0  0  0  0  0  0
   -0.2427   -0.3743    0.2569 C   0  0  0  0  0  0  0  0  0  0  0  0
   -0.5059   -0.0159   -0.8818 O   0  0  0  0  0  0  0  0  0  0  0  0
    1.0286   -0.7492    0.6534 N   0  0  0  0  0  0  0  0  0  0  0  0
    2.1060   -0.7990   -0.3203 C   0  0  0  0  0  0  0  0  0  0  0  0
    2.6628    0.5915   -0.6282 C   0  0  0  0  0  0  0  0  0  0  0  0
    3.7233    0.5722   -1.7324 C   0  0  0  0  0  0  0  0  0  0  0  0
    4.9741   -0.1873   -1.3608 C   0  0  0  0  0  0  0  0  0  0  0  0
    5.2744   -1.4067   -1.9800 C   0  0  0  0  0  0  0  0  0  0  0  0
    6.4275   -2.1113   -1.6348 C   0  0  0  0  0  0  0  0  0  0  0  0
    7.2931   -1.6053   -0.6655 C   0  0  0  0  0  0  0  0  0  0  0  0
    7.0115   -0.3892   -0.0268 C   0  0  0  0  0  0  0  0  0  0  0  0
    7.9542    0.1763    1.0061 C   0  0  0  0  0  0  0  0  0  0  0  0
    8.7224   -0.7728    1.6117 F   0  0  0  0  0  0  0  0  0  0  0  0
    7.3077    0.8256    2.0155 F   0  0  0  0  0  0  0  0  0  0  0  0
    8.8242    1.0802    0.4773 F   0  0  0  0  0  0  0  0  0  0  0  0
    5.8518    0.3161   -0.3894 C   0  0  0  0  0  0  0  0  0  0  0  0
   -3.2672   -0.2507    0.1181 C   0  0  0  0  0  0  0  0  0  0  0  0
   -4.6630   -0.0632    0.1603 C   0  0  0  0  0  0  0  0  0  0  0  0
   -5.5306   -0.1311   -1.4000 S   0  0  0  0  0  0  0  0  0  0  0  0
   -6.1104    1.4405   -1.5536 N   0  0  0  0  0  0  0  0  0  0  0  0
   -4.5769   -0.3235   -2.4666 O   0  0  0  0  0  0  0  0  0  0  0  0
   -6.6822   -0.9903   -1.2517 O   0  0  0  0  0  0  0  0  0  0  0  0
   -8.1892    1.9865    2.0057 H   0  0  0  0  0  0  0  0  0  0  0  0
   -6.6423    2.1393    2.8498 H   0  0  0  0  0  0  0  0  0  0  0  0
   -6.7468    2.5197    1.1256 H   0  0  0  0  0  0  0  0  0  0  0  0
   -7.3858    0.1096    0.6842 H   0  0  0  0  0  0  0  0  0  0  0  0
   -7.1790   -0.2595    2.3671 H   0  0  0  0  0  0  0  0  0  0  0  0
   -5.0134    0.2534    3.5338 H   0  0  0  0  0  0  0  0  0  0  0  0
   -2.6037   -0.0876    3.4457 H   0  0  0  0  0  0  0  0  0  0  0  0
   -0.6714   -0.4302    2.2269 H   0  0  0  0  0  0  0  0  0  0  0  0
    1.0399   -1.4787    1.3513 H   0  0  0  0  0  0  0  0  0  0  0  0
    2.8846   -1.4368    0.1109 H   0  0  0  0  0  0  0  0  0  0  0  0
    1.7353   -1.2833   -1.2310 H   0  0  0  0  0  0  0  0  0  0  0  0
    1.8496    1.2536   -0.9496 H   0  0  0  0  0  0  0  0  0  0  0  0
    3.0687    1.0337    0.2902 H   0  0  0  0  0  0  0  0  0  0  0  0
    4.0089    1.6034   -1.9765 H   0  0  0  0  0  0  0  0  0  0  0  0
    3.2887    0.1582   -2.6509 H   0  0  0  0  0  0  0  0  0  0  0  0
    4.6122   -1.8162   -2.7406 H   0  0  0  0  0  0  0  0  0  0  0  0
    6.6532   -3.0549   -2.1262 H   0  0  0  0  0  0  0  0  0  0  0  0
    8.1923   -2.1644   -0.4103 H   0  0  0  0  0  0  0  0  0  0  0  0
    5.6330    1.2698    0.0914 H   0  0  0  0  0  0  0  0  0  0  0  0
   -2.7844   -0.4164   -0.8427 H   0  0  0  0  0  0  0  0  0  0  0  0
   -7.1262    1.4476   -1.4724 H   0  0  0  0  0  0  0  0  0  0  0  0
   -5.6400    2.1082   -0.9456 H   0  0  0  0  0  0  0  0  0  0  0  0
  1  2  1  0
  2  3  1  0
  3  4  1  0
  4  5  2  0
  5  6  1  0
  6  7  1  0
  7  8  1  0
  8  9  2  0
  8 10  1  0
 10 11  1  0
 11 12  1  0
 12 13  1  0
 13 14  1  0
 14 15  2  0
 15 16  1  0
 16 17  2  0
 17 18  1  0
 18 19  1  0
 19 20  1  0
 19 21  1  0
 19 22  1  0
 18 23  2  0
  6 24  2  0
 24 25  1  0
 25 26  1  0
 26 27  1  0
 26 28  2  0
 26 29  2  0
 25  3  2  0
 23 14  1  0
  1 30  1  0
  1 31  1  0
  1 32  1  0
  2 33  1  0
  2 34  1  0
  4 35  1  0
  5 36  1  0
  7 37  1  0
 10 38  1  0
 11 39  1  0
 11 40  1  0
 12 41  1  0
 12 42  1  0
 13 43  1  0
 13 44  1  0
 15 45  1  0
 16 46  1  0
 17 47  1  0
 23 48  1  0
 24 49  1  0
 27 50  1  0
 27 51  1  0
M  END
$$$$
OCNT-2310174
     RDKit          3D

 43 47  0  0  0  0  0  0  0  0999 V2000
   -6.7431    1.5185    2.0411 Cl  0  0  0  0  0  0  0  0  0  0  0  0
   -6.0341    0.3427    1.0211 C   0  0  0  0  0  0  0  0  0  0  0  0
   -6.7120   -0.8210    0.6617 C   0  0  0  0  0  0  0  0  0  0  0  0
   -6.0909   -1.7481   -0.1690 C   0  0  0  0  0  0  0  0  0  0  0  0
   -4.7945   -1.5295   -0.6510 C   0  0  0  0  0  0  0  0  0  0  0  0
   -4.1342   -0.3450   -0.2793 C   0  0  0  0  0  0  0  0  0  0  0  0
   -4.7299    0.6064    0.5601 C   0  0  0  0  0  0  0  0  0  0  0  0
   -3.7808    1.6570    0.7354 C   0  0  0  0  0  0  0  0  0  0  0  0
   -2.6468    1.3369    0.0179 C   0  0  0  0  0  0  0  0  0  0  0  0
   -1.3618    2.0740   -0.1678 C   0  0  0  0  0  0  0  0  0  0  0  0
   -0.2817    1.1858   -0.6343 N   0  0  0  0  0  0  0  0  0  0  0  0
    0.9152    1.9914   -0.9559 C   0  0  0  0  0  0  0  0  0  0  0  0
    2.1398    1.1690   -1.1790 C   0  0  0  0  0  0  0  0  0  0  0  0
    2.6885    0.7760   -2.3100 N   0  0  0  0  0  0  0  0  0  0  0  0
    3.7931    0.0259   -1.9609 N   0  0  0  0  0  0  0  0  0  0  0  0
    3.8447    0.0174   -0.6427 C   0  0  0  0  0  0  0  0  0  0  0  0
    4.7992   -0.6200    0.2553 C   0  0  0  0  0  0  0  0  0  0  0  0
    5.8578   -1.3722   -0.2772 C   0  0  0  0  0  0  0  0  0  0  0  0
    6.7878   -1.9935    0.5611 C   0  0  0  0  0  0  0  0  0  0  0  0
    6.6715   -1.8696    1.9438 C   0  0  0  0  0  0  0  0  0  0  0  0
    5.6263   -1.1270    2.4893 C   0  0  0  0  0  0  0  0  0  0  0  0
    4.6956   -0.5067    1.6508 C   0  0  0  0  0  0  0  0  0  0  0  0
    2.8231    0.7345   -0.0741 O   0  0  0  0  0  0  0  0  0  0  0  0
   -0.7423    0.4022   -1.7986 C   0  0  0  0  0  0  0  0  0  0  0  0
   -1.8849   -0.5428   -1.4061 C   0  0  0  0  0  0  0  0  0  0  0  0
   -2.8831    0.1313   -0.5946 N   0  0  0  0  0  0  0  0  0  0  0  0
   -7.7171   -1.0061    1.0293 H   0  0  0  0  0  0  0  0  0  0  0  0
   -6.6177   -2.6579   -0.4481 H   0  0  0  0  0  0  0  0  0  0  0  0
   -4.3191   -2.2627   -1.2956 H   0  0  0  0  0  0  0  0  0  0  0  0
   -3.9186    2.5510    1.3299 H   0  0  0  0  0  0  0  0  0  0  0  0
   -1.0722    2.5203    0.7921 H   0  0  0  0  0  0  0  0  0  0  0  0
   -1.5317    2.8940   -0.8787 H   0  0  0  0  0  0  0  0  0  0  0  0
    1.1315    2.6693   -0.1200 H   0  0  0  0  0  0  0  0  0  0  0  0
    0.7371    2.6230   -1.8354 H   0  0  0  0  0  0  0  0  0  0  0  0
    5.9639   -1.4796   -1.3563 H   0  0  0  0  0  0  0  0  0  0  0  0
    7.6015   -2.5734    0.1328 H   0  0  0  0  0  0  0  0  0  0  0  0
    7.3945   -2.3531    2.5969 H   0  0  0  0  0  0  0  0  0  0  0  0
    5.5337   -1.0305    3.5687 H   0  0  0  0  0  0  0  0  0  0  0  0
    3.8874    0.0656    2.1014 H   0  0  0  0  0  0  0  0  0  0  0  0
    0.0652   -0.2146   -2.2076 H   0  0  0  0  0  0  0  0  0  0  0  0
   -1.0732    1.0728   -2.6028 H   0  0  0  0  0  0  0  0  0  0  0  0
   -2.3792   -0.9316   -2.3019 H   0  0  0  0  0  0  0  0  0  0  0  0
   -1.5084   -1.3802   -0.8073 H   0  0  0  0  0  0  0  0  0  0  0  0
  1  2  1  0
  2  3  1  0
  3  4  2  0
  4  5  1  0
  5  6  2  0
  6  7  1  0
  7  8  1  0
  8  9  2  0
  9 10  1  0
 10 11  1  0
 11 12  1  0
 12 13  1  0
 13 14  2  0
 14 15  1  0
 15 16  2  0
 16 17  1  0
 17 18  2  0
 18 19  1  0
 19 20  2  0
 20 21  1  0
 21 22  2  0
 16 23  1  0
 11 24  1  0
 24 25  1  0
 25 26  1  0
  7  2  2  0
 26  9  1  0
 26  6  1  0
 23 13  1  0
 22 17  1  0
  3 27  1  0
  4 28  1  0
  5 29  1  0
  8 30  1  0
 10 31  1  0
 10 32  1  0
 12 33  1  0
 12 34  1  0
 18 35  1  0
 19 36  1  0
 20 37  1  0
 21 38  1  0
 22 39  1  0
 24 40  1  0
 24 41  1  0
 25 42  1  0
 25 43  1  0
M  END
$$$$
OCNT-2310178
     RDKit          3D

 39 41  0  0  0  0  0  0  0  0999 V2000
   -1.2134    0.9996   -0.4340 O   0  0  0  0  0  0  0  0  0  0  0  0
   -0.9760   -0.1684   -0.7209 C   0  0  0  0  0  0  0  0  0  0  0  0
    0.2681   -0.7290   -0.5282 N   0  0  0  0  0  0  0  0  0  0  0  0
    1.3135   -0.0211    0.1942 C   0  0  0  0  0  0  0  0  0  0  0  0
    2.6960   -0.6269   -0.0982 C   0  0  0  0  0  0  0  0  0  0  0  0
    2.6744   -2.0261    0.2228 O   0  0  0  0  0  0  0  0  0  0  0  0
    3.8040    0.0622    0.6668 C   0  0  0  0  0  0  0  0  0  0  0  0
    4.6965    0.9168    0.0019 C   0  0  0  0  0  0  0  0  0  0  0  0
    5.7169    1.5645    0.7024 C   0  0  0  0  0  0  0  0  0  0  0  0
    5.8566    1.3678    2.0757 C   0  0  0  0  0  0  0  0  0  0  0  0
    4.9735    0.5247    2.7451 C   0  0  0  0  0  0  0  0  0  0  0  0
    5.1432    0.2805    4.4396 Cl  0  0  0  0  0  0  0  0  0  0  0  0
    3.9520   -0.1245    2.0515 C   0  0  0  0  0  0  0  0  0  0  0  0
   -1.9761   -1.0715   -1.2784 C   0  0  0  0  0  0  0  0  0  0  0  0
   -1.7371   -2.2818   -1.9097 C   0  0  0  0  0  0  0  0  0  0  0  0
   -2.9453   -2.7537   -2.3151 N   0  0  0  0  0  0  0  0  0  0  0  0
   -3.9639   -1.9506   -2.0014 N   0  0  0  0  0  0  0  0  0  0  0  0
   -3.4021   -0.9145   -1.3515 C   0  0  0  0  0  0  0  0  0  0  0  0
   -4.2576    0.1531   -0.8391 C   0  0  0  0  0  0  0  0  0  0  0  0
   -5.3271    0.6265   -1.5965 C   0  0  0  0  0  0  0  0  0  0  0  0
   -6.1806    1.6061   -1.1998 N   0  0  0  0  0  0  0  0  0  0  0  0
   -5.9604    2.1334    0.0223 C   0  0  0  0  0  0  0  0  0  0  0  0
   -4.9386    1.7246    0.8637 C   0  0  0  0  0  0  0  0  0  0  0  0
   -4.0806    0.7158    0.4262 C   0  0  0  0  0  0  0  0  0  0  0  0
    0.3490   -1.7379   -0.5323 H   0  0  0  0  0  0  0  0  0  0  0  0
    1.2878    1.0422   -0.0699 H   0  0  0  0  0  0  0  0  0  0  0  0
    1.0619   -0.1108    1.2576 H   0  0  0  0  0  0  0  0  0  0  0  0
    2.8951   -0.5698   -1.1753 H   0  0  0  0  0  0  0  0  0  0  0  0
    3.6013   -2.3048    0.3317 H   0  0  0  0  0  0  0  0  0  0  0  0
    4.6033    1.0896   -1.0692 H   0  0  0  0  0  0  0  0  0  0  0  0
    6.4022    2.2259    0.1770 H   0  0  0  0  0  0  0  0  0  0  0  0
    6.6513    1.8751    2.6162 H   0  0  0  0  0  0  0  0  0  0  0  0
    3.2680   -0.7782    2.5898 H   0  0  0  0  0  0  0  0  0  0  0  0
   -0.8295   -2.8255   -2.1281 H   0  0  0  0  0  0  0  0  0  0  0  0
   -3.1497   -3.6112   -2.8188 H   0  0  0  0  0  0  0  0  0  0  0  0
   -5.5369    0.2176   -2.5821 H   0  0  0  0  0  0  0  0  0  0  0  0
   -6.6505    2.9174    0.3199 H   0  0  0  0  0  0  0  0  0  0  0  0
   -4.8089    2.1809    1.8384 H   0  0  0  0  0  0  0  0  0  0  0  0
   -3.2805    0.3821    1.0802 H   0  0  0  0  0  0  0  0  0  0  0  0
  1  2  2  0
  2  3  1  0
  3  4  1  0
  4  5  1  0
  5  6  1  0
  5  7  1  0
  7  8  2  0
  8  9  1  0
  9 10  2  0
 10 11  1  0
 11 12  1  0
 11 13  2  0
  2 14  1  0
 14 15  2  0
 15 16  1  0
 16 17  1  0
 17 18  2  0
 18 19  1  0
 19 20  2  0
 20 21  1  0
 21 22  2  0
 22 23  1  0
 23 24  2  0
 13  7  1  0
 18 14  1  0
 24 19  1  0
  3 25  1  0
  4 26  1  0
  4 27  1  0
  5 28  1  0
  6 29  1  0
  8 30  1  0
  9 31  1  0
 10 32  1  0
 13 33  1  0
 15 34  1  0
 16 35  1  0
 20 36  1  0
 22 37  1  0
 23 38  1  0
 24 39  1  0
M  END
$$$$
OCNT-2310180
     RDKit          3D

 42 44  0  0  0  0  0  0  0  0999 V2000
    4.4133    1.9849    0.6972 C   0  0  0  0  0  0  0  0  0  0  0  0
    5.0682    1.0247   -0.2500 C   0  0  0  0  0  0  0  0  0  0  0  0
    6.3538    1.2829   -0.7192 C   0  0  0  0  0  0  0  0  0  0  0  0
    7.0338    0.4844   -1.5715 N   0  0  0  0  0  0  0  0  0  0  0  0
    6.4060   -0.6335   -1.9849 C   0  0  0  0  0  0  0  0  0  0  0  0
    5.1340   -0.9936   -1.5781 C   0  0  0  0  0  0  0  0  0  0  0  0
    4.4480   -0.1555   -0.6919 C   0  0  0  0  0  0  0  0  0  0  0  0
    3.1121   -0.5448   -0.2354 C   0  0  0  0  0  0  0  0  0  0  0  0
    2.7221   -0.9964    1.0073 C   0  0  0  0  0  0  0  0  0  0  0  0
    1.3228   -1.2714    1.0701 C   0  0  0  0  0  0  0  0  0  0  0  0
    0.6753   -1.0210   -0.1280 C   0  0  0  0  0  0  0  0  0  0  0  0
   -0.7288   -1.1589   -0.5003 C   0  0  0  0  0  0  0  0  0  0  0  0
   -1.1657   -0.9757   -1.6349 O   0  0  0  0  0  0  0  0  0  0  0  0
   -1.5857   -1.5062    0.5300 N   0  0  0  0  0  0  0  0  0  0  0  0
   -3.0245   -1.6269    0.3406 C   0  0  0  0  0  0  0  0  0  0  0  0
   -3.8112   -0.3416    0.6638 C   0  0  0  0  0  0  0  0  0  0  0  0
   -3.5862    0.0146    2.0830 C   0  0  0  0  0  0  0  0  0  0  0  0
   -3.3877    0.2656    3.1986 N   0  0  0  0  0  0  0  0  0  0  0  0
   -3.4790    0.8376   -0.2596 C   0  0  0  0  0  0  0  0  0  0  0  0
   -4.6855    1.7702   -0.1587 C   0  0  0  0  0  0  0  0  0  0  0  0
   -5.8706    0.8870    0.2285 C   0  0  0  0  0  0  0  0  0  0  0  0
   -5.3130   -0.5274    0.3931 C   0  0  0  0  0  0  0  0  0  0  0  0
    1.7883   -0.4611   -1.3132 S   0  0  0  0  0  0  0  0  0  0  0  0
    4.3453    1.5460    1.6974 H   0  0  0  0  0  0  0  0  0  0  0  0
    3.4117    2.2543    0.3468 H   0  0  0  0  0  0  0  0  0  0  0  0
    4.9843    2.9162    0.7793 H   0  0  0  0  0  0  0  0  0  0  0  0
    6.8966    2.1745   -0.4144 H   0  0  0  0  0  0  0  0  0  0  0  0
    6.9710   -1.2563   -2.6722 H   0  0  0  0  0  0  0  0  0  0  0  0
    4.6893   -1.9133   -1.9440 H   0  0  0  0  0  0  0  0  0  0  0  0
    3.4092   -1.1278    1.8353 H   0  0  0  0  0  0  0  0  0  0  0  0
    0.8385   -1.6399    1.9650 H   0  0  0  0  0  0  0  0  0  0  0  0
   -1.2243   -1.5837    1.4708 H   0  0  0  0  0  0  0  0  0  0  0  0
   -3.3492   -2.4449    0.9957 H   0  0  0  0  0  0  0  0  0  0  0  0
   -3.2198   -1.9452   -0.6903 H   0  0  0  0  0  0  0  0  0  0  0  0
   -2.5515    1.3557    0.0070 H   0  0  0  0  0  0  0  0  0  0  0  0
   -3.3874    0.4978   -1.2988 H   0  0  0  0  0  0  0  0  0  0  0  0
   -4.8615    2.2976   -1.1018 H   0  0  0  0  0  0  0  0  0  0  0  0
   -4.5190    2.5301    0.6137 H   0  0  0  0  0  0  0  0  0  0  0  0
   -6.3096    1.2406    1.1685 H   0  0  0  0  0  0  0  0  0  0  0  0
   -6.6599    0.9131   -0.5299 H   0  0  0  0  0  0  0  0  0  0  0  0
   -5.8344   -1.0740    1.1868 H   0  0  0  0  0  0  0  0  0  0  0  0
   -5.4691   -1.0786   -0.5432 H   0  0  0  0  0  0  0  0  0  0  0  0
  1  2  1  0
  2  3  2  0
  3  4  1  0
  4  5  2  0
  5  6  1  0
  6  7  2  0
  7  8  1  0
  8  9  2  0
  9 10  1  0
 10 11  2  0
 11 12  1  0
 12 13  2  0
 12 14  1  0
 14 15  1  0
 15 16  1  0
 16 17  1  0
 17 18  3  0
 16 19  1  0
 19 20  1  0
 20 21  1  0
 21 22  1  0
 11 23  1  0
  7  2  1  0
 23  8  1  0
 22 16  1  0
  1 24  1  0
  1 25  1  0
  1 26  1  0
  3 27  1  0
  5 28  1  0
  6 29  1  0
  9 30  1  0
 10 31  1  0
 14 32  1  0
 15 33  1  0
 15 34  1  0
 19 35  1  0
 19 36  1  0
 20 37  1  0
 20 38  1  0
 21 39  1  0
 21 40  1  0
 22 41  1  0
 22 42  1  0
M  END
$$$$
OCNT-2310188
     RDKit          3D

 41 43  0  0  0  0  0  0  0  0999 V2000
   -6.1468    1.6409    0.3366 C   0  0  0  0  0  0  0  0  0  0  0  0
   -5.3539    0.3839   -0.0727 C   0  0  0  0  0  0  0  0  0  0  0  0
   -5.6293    0.1163   -1.5673 C   0  0  0  0  0  0  0  0  0  0  0  0
   -5.8463   -0.8219    0.7457 C   0  0  0  0  0  0  0  0  0  0  0  0
   -3.9222    0.5812    0.1829 N   0  0  0  0  0  0  0  0  0  0  0  0
   -3.4706    1.1042    1.3417 N   0  0  0  0  0  0  0  0  0  0  0  0
   -2.1496    1.0589    1.2520 N   0  0  0  0  0  0  0  0  0  0  0  0
   -1.8634    0.4890    0.0393 C   0  0  0  0  0  0  0  0  0  0  0  0
   -0.4559    0.2647   -0.4254 C   0  0  0  0  0  0  0  0  0  0  0  0
    0.4887   -0.2380    0.5841 N   0  0  0  0  0  0  0  0  0  0  0  0
    1.8568   -0.2546    0.3080 C   0  0  0  0  0  0  0  0  0  0  0  0
    2.3864   -0.3176   -0.9840 C   0  0  0  0  0  0  0  0  0  0  0  0
    3.7695   -0.4061   -1.2005 C   0  0  0  0  0  0  0  0  0  0  0  0
    4.6621   -0.4619   -0.1252 C   0  0  0  0  0  0  0  0  0  0  0  0
    6.0927   -0.5584   -0.3623 C   0  0  0  0  0  0  0  0  0  0  0  0
    7.0776   -0.1176    0.4973 C   0  0  0  0  0  0  0  0  0  0  0  0
    8.2702   -0.3840   -0.1112 N   0  0  0  0  0  0  0  0  0  0  0  0
    8.1396   -0.9659   -1.3133 N   0  0  0  0  0  0  0  0  0  0  0  0
    6.8165   -1.0715   -1.4653 C   0  0  0  0  0  0  0  0  0  0  0  0
    4.1369   -0.4448    1.1701 C   0  0  0  0  0  0  0  0  0  0  0  0
    2.7541   -0.3569    1.3784 C   0  0  0  0  0  0  0  0  0  0  0  0
   -2.9576    0.1753   -0.6730 N   0  0  0  0  0  0  0  0  0  0  0  0
   -6.0566    1.8477    1.4094 H   0  0  0  0  0  0  0  0  0  0  0  0
   -5.7875    2.5265   -0.2009 H   0  0  0  0  0  0  0  0  0  0  0  0
   -7.2143    1.5248    0.1167 H   0  0  0  0  0  0  0  0  0  0  0  0
   -6.7028    0.0014   -1.7570 H   0  0  0  0  0  0  0  0  0  0  0  0
   -5.1379   -0.8016   -1.9110 H   0  0  0  0  0  0  0  0  0  0  0  0
   -5.2673    0.9414   -2.1920 H   0  0  0  0  0  0  0  0  0  0  0  0
   -5.2968   -1.7327    0.4792 H   0  0  0  0  0  0  0  0  0  0  0  0
   -6.9119   -1.0101    0.5729 H   0  0  0  0  0  0  0  0  0  0  0  0
   -5.7076   -0.6606    1.8212 H   0  0  0  0  0  0  0  0  0  0  0  0
   -0.0943    1.2260   -0.8131 H   0  0  0  0  0  0  0  0  0  0  0  0
   -0.4839   -0.4416   -1.2644 H   0  0  0  0  0  0  0  0  0  0  0  0
    0.2818    0.1460    1.5049 H   0  0  0  0  0  0  0  0  0  0  0  0
    1.7401   -0.3048   -1.8564 H   0  0  0  0  0  0  0  0  0  0  0  0
    4.1306   -0.4296   -2.2258 H   0  0  0  0  0  0  0  0  0  0  0  0
    7.0445    0.3629    1.4643 H   0  0  0  0  0  0  0  0  0  0  0  0
    9.2060   -0.1931    0.2314 H   0  0  0  0  0  0  0  0  0  0  0  0
    6.4335   -1.5224   -2.3716 H   0  0  0  0  0  0  0  0  0  0  0  0
    4.7870   -0.5224    2.0375 H   0  0  0  0  0  0  0  0  0  0  0  0
    2.3816   -0.3730    2.4002 H   0  0  0  0  0  0  0  0  0  0  0  0
  1  2  1  0
  2  3  1  0
  2  4  1  0
  2  5  1  0
  5  6  1  0
  6  7  2  0
  7  8  1  0
  8  9  1  0
  9 10  1  0
 10 11  1  0
 11 12  1  0
 12 13  2  0
 13 14  1  0
 14 15  1  0
 15 16  2  0
 16 17  1  0
 17 18  1  0
 18 19  2  0
 14 20  2  0
 20 21  1  0
  8 22  2  0
 22  5  1  0
 21 11  2  0
 19 15  1  0
  1 23  1  0
  1 24  1  0
  1 25  1  0
  3 26  1  0
  3 27  1  0
  3 28  1  0
  4 29  1  0
  4 30  1  0
  4 31  1  0
  9 32  1  0
  9 33  1  0
 10 34  1  0
 12 35  1  0
 13 36  1  0
 16 37  1  0
 17 38  1  0
 19 39  1  0
 20 40  1  0
 21 41  1  0
M  END
$$$$
