OCNT-2328376
     RDKit          3D

 31 31  0  0  0  0  0  0  0  0999 V2000
    4.4725    0.3161   -0.2821 C   0  0  0  0  0  0  0  0  0  0  0  0
    3.5565    0.8088    0.8223 C   0  0  0  0  0  0  0  0  0  0  0  0
    2.1886    0.5416    0.4836 O   0  0  0  0  0  0  0  0  0  0  0  0
    1.7103   -0.6890    0.8417 C   0  0  0  0  0  0  0  0  0  0  0  0
    2.3831   -1.5576    1.3855 O   0  0  0  0  0  0  0  0  0  0  0  0
    0.2333   -0.8466    0.4255 C   0  0  0  0  0  0  0  0  0  0  0  0
    0.2146   -0.9882   -1.1041 C   0  0  0  0  0  0  0  0  0  0  0  0
   -0.3302   -2.1101    1.0899 C   0  0  0  0  0  0  0  0  0  0  0  0
   -0.4290    0.3324    0.9389 O   0  0  0  0  0  0  0  0  0  0  0  0
   -1.6571    0.6186    0.4198 C   0  0  0  0  0  0  0  0  0  0  0  0
   -1.7525    1.5581   -0.6068 C   0  0  0  0  0  0  0  0  0  0  0  0
   -3.0050    1.9083   -1.1139 C   0  0  0  0  0  0  0  0  0  0  0  0
   -4.1545    1.3363   -0.5699 C   0  0  0  0  0  0  0  0  0  0  0  0
   -5.6994    1.7674   -1.1921 Cl  0  0  0  0  0  0  0  0  0  0  0  0
   -4.0617    0.4283    0.4848 C   0  0  0  0  0  0  0  0  0  0  0  0
   -2.8078    0.0790    0.9907 C   0  0  0  0  0  0  0  0  0  0  0  0
    4.1952    0.7666   -1.2408 H   0  0  0  0  0  0  0  0  0  0  0  0
    5.5142    0.5662   -0.0626 H   0  0  0  0  0  0  0  0  0  0  0  0
    4.3918   -0.7685   -0.4053 H   0  0  0  0  0  0  0  0  0  0  0  0
    3.6545    1.8945    0.9245 H   0  0  0  0  0  0  0  0  0  0  0  0
    3.8217    0.3695    1.7907 H   0  0  0  0  0  0  0  0  0  0  0  0
    0.8606   -1.8103   -1.4330 H   0  0  0  0  0  0  0  0  0  0  0  0
   -0.7949   -1.1891   -1.4787 H   0  0  0  0  0  0  0  0  0  0  0  0
    0.5664   -0.0737   -1.5946 H   0  0  0  0  0  0  0  0  0  0  0  0
   -0.3635   -1.9963    2.1796 H   0  0  0  0  0  0  0  0  0  0  0  0
   -1.3516   -2.3181    0.7560 H   0  0  0  0  0  0  0  0  0  0  0  0
    0.2734   -2.9945    0.8576 H   0  0  0  0  0  0  0  0  0  0  0  0
   -0.8548    2.0193   -1.0095 H   0  0  0  0  0  0  0  0  0  0  0  0
   -3.0776    2.6314   -1.9215 H   0  0  0  0  0  0  0  0  0  0  0  0
   -4.9589    0.0003    0.9238 H   0  0  0  0  0  0  0  0  0  0  0  0
   -2.7380   -0.6006    1.8350 H   0  0  0  0  0  0  0  0  0  0  0  0
  1  2  1  0
  2  3  1  0
  3  4  1  0
  4  5  2  0
  4  6  1  0
  6  7  1  0
  6  8  1  0
  6  9  1  0
  9 10  1  0
 10 11  1  0
 11 12  2  0
 12 13  1  0
 13 14  1  0
 13 15  2  0
 15 16  1  0
 16 10  2  0
  1 17  1  0
  1 18  1  0
  1 19  1  0
  2 20  1  0
  2 21  1  0
  7 22  1  0
  7 23  1  0
  7 24  1  0
  8 25  1  0
  8 26  1  0
  8 27  1  0
 11 28  1  0
 12 29  1  0
 15 30  1  0
 16 31  1  0
M  END
$$$$
OCNT-2328378
     RDKit          3D

 42 44  0  0  0  0  0  0  0  0999 V2000
    4.9919    0.5067   -0.6917 C   0  0  0  0  0  0  0  0  0  0  0  0
    3.6945    0.4698   -0.0221 N   0  0  0  0  0  0  0  0  0  0  0  0
    3.0801   -0.8639   -0.1450 C   0  0  0  0  0  0  0  0  0  0  0  0
    1.6752   -0.9183    0.4981 C   0  0  0  0  0  0  0  0  0  0  0  0
    0.7395    0.0785   -0.0847 N   0  0  0  0  0  0  0  0  0  0  0  0
   -0.5831    0.0437    0.6124 C   0  0  0  0  0  0  0  0  0  0  0  0
   -1.5714    1.1047    0.1060 C   0  0  0  0  0  0  0  0  0  0  0  0
   -2.3005    1.8775    1.0262 C   0  0  0  0  0  0  0  0  0  0  0  0
   -3.2161    2.8357    0.5860 C   0  0  0  0  0  0  0  0  0  0  0  0
   -3.4204    3.0321   -0.7781 C   0  0  0  0  0  0  0  0  0  0  0  0
   -2.7116    2.2703   -1.7042 C   0  0  0  0  0  0  0  0  0  0  0  0
   -1.7962    1.3118   -1.2662 C   0  0  0  0  0  0  0  0  0  0  0  0
   -1.2583   -1.3354    0.5781 C   0  0  0  0  0  0  0  0  0  0  0  0
   -1.8198   -1.8689    1.7511 C   0  0  0  0  0  0  0  0  0  0  0  0
   -2.4527   -3.1137    1.7370 C   0  0  0  0  0  0  0  0  0  0  0  0
   -2.5385   -3.8405    0.5516 C   0  0  0  0  0  0  0  0  0  0  0  0
   -1.9938   -3.3241   -0.6218 C   0  0  0  0  0  0  0  0  0  0  0  0
   -1.3610   -2.0799   -0.6100 C   0  0  0  0  0  0  0  0  0  0  0  0
    1.3757    1.4152    0.0467 C   0  0  0  0  0  0  0  0  0  0  0  0
    2.7804    1.4724   -0.5969 C   0  0  0  0  0  0  0  0  0  0  0  0
    5.4566    1.4917   -0.5728 H   0  0  0  0  0  0  0  0  0  0  0  0
    5.6763   -0.2208   -0.2416 H   0  0  0  0  0  0  0  0  0  0  0  0
    4.9150    0.2896   -1.7633 H   0  0  0  0  0  0  0  0  0  0  0  0
    3.7148   -1.6046    0.3566 H   0  0  0  0  0  0  0  0  0  0  0  0
    3.0024   -1.1608   -1.1999 H   0  0  0  0  0  0  0  0  0  0  0  0
    1.2992   -1.9355    0.3465 H   0  0  0  0  0  0  0  0  0  0  0  0
    1.7727   -0.7653    1.5818 H   0  0  0  0  0  0  0  0  0  0  0  0
   -0.3786    0.2743    1.6690 H   0  0  0  0  0  0  0  0  0  0  0  0
   -2.1618    1.7347    2.0953 H   0  0  0  0  0  0  0  0  0  0  0  0
   -3.7734    3.4261    1.3085 H   0  0  0  0  0  0  0  0  0  0  0  0
   -4.1348    3.7762   -1.1197 H   0  0  0  0  0  0  0  0  0  0  0  0
   -2.8716    2.4195   -2.7686 H   0  0  0  0  0  0  0  0  0  0  0  0
   -1.2466    0.7275   -2.0006 H   0  0  0  0  0  0  0  0  0  0  0  0
   -1.7705   -1.3144    2.6852 H   0  0  0  0  0  0  0  0  0  0  0  0
   -2.8828   -3.5141    2.6512 H   0  0  0  0  0  0  0  0  0  0  0  0
   -3.0333   -4.8079    0.5411 H   0  0  0  0  0  0  0  0  0  0  0  0
   -2.0623   -3.8878   -1.5483 H   0  0  0  0  0  0  0  0  0  0  0  0
   -0.9363   -1.6912   -1.5327 H   0  0  0  0  0  0  0  0  0  0  0  0
    0.7710    2.1811   -0.4500 H   0  0  0  0  0  0  0  0  0  0  0  0
    1.4564    1.6995    1.1049 H   0  0  0  0  0  0  0  0  0  0  0  0
    3.1912    2.4760   -0.4328 H   0  0  0  0  0  0  0  0  0  0  0  0
    2.6825    1.3327   -1.6822 H   0  0  0  0  0  0  0  0  0  0  0  0
  1  2  1  0
  2  3  1  0
  3  4  1  0
  4  5  1  0
  5  6  1  0
  6  7  1  0
  7  8  2  0
  8  9  1  0
  9 10  2  0
 10 11  1  0
 11 12  2  0
  6 13  1  0
 13 14  2  0
 14 15  1  0
 15 16  2  0
 16 17  1  0
 17 18  2  0
  5 19  1  0
 19 20  1  0
 20  2  1  0
 12  7  1  0
 18 13  1  0
  1 21  1  0
  1 22  1  0
  1 23  1  0
  3 24  1  0
  3 25  1  0
  4 26  1  0
  4 27  1  0
  6 28  1  0
  8 29  1  0
  9 30  1  0
 10 31  1  0
 11 32  1  0
 12 33  1  0
 14 34  1  0
 15 35  1  0
 16 36  1  0
 17 37  1  0
 18 38  1  0
 19 39  1  0
 19 40  1  0
 20 41  1  0
 20 42  1  0
M  END
$$$$
OCNT-2328381
     RDKit          3D

 50 50  0  0  0  0  0  0  0  0999 V2000
    4.6639   -0.3675   -4.1020 C   0  0  0  0  0  0  0  0  0  0  0  0
    4.1846   -1.4382   -3.1401 C   0  0  0  0  0  0  0  0  0  0  0  0
    3.1033   -0.9367   -2.3412 O   0  0  0  0  0  0  0  0  0  0  0  0
    3.4601   -0.2844   -1.2070 C   0  0  0  0  0  0  0  0  0  0  0  0
    4.6050   -0.0786   -0.8326 O   0  0  0  0  0  0  0  0  0  0  0  0
    2.2645    0.1848   -0.4476 C   0  0  0  0  0  0  0  0  0  0  0  0
    1.0043   -0.0905   -0.8356 C   0  0  0  0  0  0  0  0  0  0  0  0
   -0.2212    0.3350   -0.0720 C   0  0  1  0  0  0  0  0  0  0  0  0
   -1.0679   -0.8153    0.0425 O   0  0  0  0  0  0  0  0  0  0  0  0
   -2.1194   -0.8903   -0.9222 C   0  0  0  0  0  0  0  0  0  0  0  0
   -3.3222   -0.0261   -0.5003 C   0  0  0  0  0  0  0  0  0  0  0  0
   -3.9701   -0.4054    0.8221 C   0  0  0  0  0  0  0  0  0  0  0  0
   -2.4732   -2.3677   -1.1745 C   0  0  0  0  0  0  0  0  0  0  0  0
   -2.3754   -3.2947    0.0307 C   0  0  0  0  0  0  0  0  0  0  0  0
    0.1077    0.8465    1.3576 C   0  0  2  0  0  0  0  0  0  0  0  0
   -1.0538    1.5117    1.9699 N   0  0  0  0  0  0  0  0  0  0  0  0
   -1.2445    1.4994    3.3336 C   0  0  0  0  0  0  0  0  0  0  0  0
   -2.4142    2.3258    3.7945 C   0  0  0  0  0  0  0  0  0  0  0  0
   -0.5234    0.8917    4.1192 O   0  0  0  0  0  0  0  0  0  0  0  0
    1.3453    1.7878    1.2973 C   0  0  1  0  0  0  0  0  0  0  0  0
    1.6379    2.4609    2.5753 N   0  0  0  0  0  0  0  0  0  0  0  0
    2.5669    0.9994    0.7851 C   0  0  0  0  0  0  0  0  0  0  0  0
    5.4488   -0.7571   -4.7563 H   0  0  0  0  0  0  0  0  0  0  0  0
    5.0579    0.4988   -3.5611 H   0  0  0  0  0  0  0  0  0  0  0  0
    3.8350   -0.0071   -4.7199 H   0  0  0  0  0  0  0  0  0  0  0  0
    5.0036   -1.8120   -2.5148 H   0  0  0  0  0  0  0  0  0  0  0  0
    3.7958   -2.2923   -3.7043 H   0  0  0  0  0  0  0  0  0  0  0  0
    0.8166   -0.6675   -1.7377 H   0  0  0  0  0  0  0  0  0  0  0  0
   -0.7219    1.1330   -0.6351 H   0  0  0  0  0  0  0  0  0  0  0  0
   -1.7589   -0.4928   -1.8812 H   0  0  0  0  0  0  0  0  0  0  0  0
   -4.0837   -0.0511   -1.2890 H   0  0  0  0  0  0  0  0  0  0  0  0
   -2.9965    1.0173   -0.4160 H   0  0  0  0  0  0  0  0  0  0  0  0
   -3.2318   -0.5109    1.6218 H   0  0  0  0  0  0  0  0  0  0  0  0
   -4.5299   -1.3404    0.7320 H   0  0  0  0  0  0  0  0  0  0  0  0
   -4.6835    0.3690    1.1232 H   0  0  0  0  0  0  0  0  0  0  0  0
   -3.4655   -2.4468   -1.6333 H   0  0  0  0  0  0  0  0  0  0  0  0
   -1.7636   -2.7538   -1.9186 H   0  0  0  0  0  0  0  0  0  0  0  0
   -3.0376   -2.9924    0.8438 H   0  0  0  0  0  0  0  0  0  0  0  0
   -1.3525   -3.3350    0.4185 H   0  0  0  0  0  0  0  0  0  0  0  0
   -2.6539   -4.3125   -0.2620 H   0  0  0  0  0  0  0  0  0  0  0  0
    0.3462   -0.0181    1.9937 H   0  0  0  0  0  0  0  0  0  0  0  0
   -1.4935    2.2573    1.4483 H   0  0  0  0  0  0  0  0  0  0  0  0
   -2.9511    1.7820    4.5767 H   0  0  0  0  0  0  0  0  0  0  0  0
   -3.1125    2.5215    2.9758 H   0  0  0  0  0  0  0  0  0  0  0  0
   -2.0480    3.2766    4.1901 H   0  0  0  0  0  0  0  0  0  0  0  0
    1.1296    2.5920    0.5805 H   0  0  0  0  0  0  0  0  0  0  0  0
    1.3474    1.8511    3.3500 H   0  0  0  0  0  0  0  0  0  0  0  0
    2.6394    2.6067    2.6914 H   0  0  0  0  0  0  0  0  0  0  0  0
    2.9339    0.3222    1.5677 H   0  0  0  0  0  0  0  0  0  0  0  0
    3.3720    1.7144    0.5712 H   0  0  0  0  0  0  0  0  0  0  0  0
  1  2  1  0
  2  3  1  0
  3  4  1  0
  4  5  2  0
  4  6  1  0
  6  7  2  0
  7  8  1  0
  8  9  1  0
  9 10  1  0
 10 11  1  0
 11 12  1  0
 10 13  1  0
 13 14  1  0
  8 15  1  0
 15 16  1  0
 16 17  1  0
 17 18  1  0
 17 19  2  0
 15 20  1  0
 20 21  1  0
 20 22  1  0
 22  6  1  0
  1 23  1  0
  1 24  1  0
  1 25  1  0
  2 26  1  0
  2 27  1  0
  7 28  1  0
  8 29  1  6
 10 30  1  0
 11 31  1  0
 11 32  1  0
 12 33  1  0
 12 34  1  0
 12 35  1  0
 13 36  1  0
 13 37  1  0
 14 38  1  0
 14 39  1  0
 14 40  1  0
 15 41  1  1
 16 42  1  0
 18 43  1  0
 18 44  1  0
 18 45  1  0
 20 46  1  6
 21 47  1  0
 21 48  1  0
 22 49  1  0
 22 50  1  0
M  END
$$$$
OCNT-2328382
     RDKit          3D

 38 39  0  0  0  0  0  0  0  0999 V2000
    0.2828   -2.6375   -1.1262 C   0  0  0  0  0  0  0  0  0  0  0  0
   -0.2075   -1.5054   -0.3403 N   0  0  0  0  0  0  0  0  0  0  0  0
   -1.1958   -0.7361   -1.1261 C   0  0  0  0  0  0  0  0  0  0  0  0
   -2.0461    0.2029   -0.2856 C   0  0  0  0  0  0  0  0  0  0  0  0
   -2.7218   -0.3472    0.8266 C   0  0  0  0  0  0  0  0  0  0  0  0
   -3.5762    0.4284    1.6047 C   0  0  0  0  0  0  0  0  0  0  0  0
   -4.4561   -0.3427    3.0889 Br  0  0  0  0  0  0  0  0  0  0  0  0
   -3.7982    1.7600    1.2858 C   0  0  0  0  0  0  0  0  0  0  0  0
   -3.1436    2.3142    0.1843 C   0  0  0  0  0  0  0  0  0  0  0  0
   -3.4982    4.1430   -0.2171 Br  0  0  0  0  0  0  0  0  0  0  0  0
   -2.2285    1.5674   -0.5941 C   0  0  0  0  0  0  0  0  0  0  0  0
   -1.6756    2.1326   -1.7618 N   0  0  0  0  0  0  0  0  0  0  0  0
    0.8556   -0.6654    0.2558 C   0  0  0  0  0  0  0  0  0  0  0  0
    1.7688    0.0719   -0.7515 C   0  0  0  0  0  0  0  0  0  0  0  0
    3.1085    0.5160   -0.1522 C   0  0  0  0  0  0  0  0  0  0  0  0
    3.0182    0.7575    1.3472 C   0  0  0  0  0  0  0  0  0  0  0  0
    2.5975   -0.5049    2.1006 C   0  0  0  0  0  0  0  0  0  0  0  0
    1.7035   -1.4418    1.2797 C   0  0  0  0  0  0  0  0  0  0  0  0
   -0.5535   -3.2830   -1.4198 H   0  0  0  0  0  0  0  0  0  0  0  0
    0.7983   -2.3287   -2.0409 H   0  0  0  0  0  0  0  0  0  0  0  0
    0.9542   -3.2763   -0.5451 H   0  0  0  0  0  0  0  0  0  0  0  0
   -0.7011   -0.2248   -1.9571 H   0  0  0  0  0  0  0  0  0  0  0  0
   -1.9087   -1.4291   -1.5953 H   0  0  0  0  0  0  0  0  0  0  0  0
   -2.5724   -1.3984    1.0707 H   0  0  0  0  0  0  0  0  0  0  0  0
   -4.4796    2.3606    1.8813 H   0  0  0  0  0  0  0  0  0  0  0  0
   -0.7420    1.8076   -1.9849 H   0  0  0  0  0  0  0  0  0  0  0  0
   -1.7240    3.1502   -1.7567 H   0  0  0  0  0  0  0  0  0  0  0  0
    0.3487    0.1096    0.8472 H   0  0  0  0  0  0  0  0  0  0  0  0
    1.9875   -0.5418   -1.6315 H   0  0  0  0  0  0  0  0  0  0  0  0
    1.2391    0.9567   -1.1243 H   0  0  0  0  0  0  0  0  0  0  0  0
    3.8632   -0.2572   -0.3446 H   0  0  0  0  0  0  0  0  0  0  0  0
    3.4555    1.4218   -0.6623 H   0  0  0  0  0  0  0  0  0  0  0  0
    2.2915    1.5569    1.5398 H   0  0  0  0  0  0  0  0  0  0  0  0
    3.9801    1.1127    1.7340 H   0  0  0  0  0  0  0  0  0  0  0  0
    2.0774   -0.2078    3.0194 H   0  0  0  0  0  0  0  0  0  0  0  0
    3.4873   -1.0607    2.4206 H   0  0  0  0  0  0  0  0  0  0  0  0
    1.0651   -2.0140    1.9639 H   0  0  0  0  0  0  0  0  0  0  0  0
    2.3462   -2.1674    0.7656 H   0  0  0  0  0  0  0  0  0  0  0  0
  1  2  1  0
  2  3  1  0
  3  4  1  0
  4  5  2  0
  5  6  1  0
  6  7  1  0
  6  8  2  0
  8  9  1  0
  9 10  1  0
  9 11  2  0
 11 12  1  0
  2 13  1  0
 13 14  1  0
 14 15  1  0
 15 16  1  0
 16 17  1  0
 17 18  1  0
 11  4  1  0
 18 13  1  0
  1 19  1  0
  1 20  1  0
  1 21  1  0
  3 22  1  0
  3 23  1  0
  5 24  1  0
  8 25  1  0
 12 26  1  0
 12 27  1  0
 13 28  1  0
 14 29  1  0
 14 30  1  0
 15 31  1  0
 15 32  1  0
 16 33  1  0
 16 34  1  0
 17 35  1  0
 17 36  1  0
 18 37  1  0
 18 38  1  0
M  END
$$$$
OCNT-2328385
     RDKit          3D

 62 62  0  0  0  0  0  0  0  0999 V2000
    9.3296    1.0210    0.4049 C   0  0  0  0  0  0  0  0  0  0  0  0
    8.2123    0.3521   -0.3801 C   0  0  0  0  0  0  0  0  0  0  0  0
    6.8359    0.7591    0.1471 C   0  0  0  0  0  0  0  0  0  0  0  0
    5.7162    0.0706   -0.6365 C   0  0  0  0  0  0  0  0  0  0  0  0
    4.3138    0.5369   -0.2335 C   0  0  0  0  0  0  0  0  0  0  0  0
    3.9427    0.1684    1.2069 C   0  0  0  0  0  0  0  0  0  0  0  0
    2.5003    0.5554    1.5663 C   0  0  0  0  0  0  0  0  0  0  0  0
    1.4423   -0.1207    0.7820 N   0  0  0  0  0  0  0  0  0  0  0  0
    1.3971   -1.5669    1.0823 C   0  0  0  0  0  0  0  0  0  0  0  0
    2.0133   -2.3850   -0.0468 C   0  0  0  0  0  0  0  0  0  0  0  0
    0.1401    0.5251    1.0587 C   0  0  0  0  0  0  0  0  0  0  0  0
   -0.7779    0.6043   -0.1746 C   0  0  0  0  0  0  0  0  0  0  0  0
   -1.4363   -0.6884   -0.6781 C   0  0  0  0  0  0  0  0  0  0  0  0
   -2.6636   -1.1826    0.1109 C   0  0  0  0  0  0  0  0  0  0  0  0
   -2.3116   -1.3230    1.4874 O   0  0  0  0  0  0  0  0  0  0  0  0
   -3.9605   -0.3930   -0.0060 C   0  0  0  0  0  0  0  0  0  0  0  0
   -5.0509   -0.7663    0.8036 C   0  0  0  0  0  0  0  0  0  0  0  0
   -6.2739   -0.0933    0.7316 C   0  0  0  0  0  0  0  0  0  0  0  0
   -6.4384    0.9560   -0.1691 C   0  0  0  0  0  0  0  0  0  0  0  0
   -7.6985    1.6149   -0.2287 N   0  0  0  0  0  0  0  0  0  0  0  0
   -8.5614    1.6571   -1.6730 S   0  0  0  0  0  0  0  0  0  0  0  0
   -8.7925   -0.0727   -2.0349 C   0  0  0  0  0  0  0  0  0  0  0  0
   -7.7518    2.2438   -2.7166 O   0  0  0  0  0  0  0  0  0  0  0  0
   -9.8580    2.2048   -1.3339 O   0  0  0  0  0  0  0  0  0  0  0  0
   -5.3752    1.3360   -0.9830 C   0  0  0  0  0  0  0  0  0  0  0  0
   -4.1504    0.6613   -0.9093 C   0  0  0  0  0  0  0  0  0  0  0  0
    9.3022    0.7230    1.4574 H   0  0  0  0  0  0  0  0  0  0  0  0
   10.3034    0.7334   -0.0033 H   0  0  0  0  0  0  0  0  0  0  0  0
    9.2476    2.1110    0.3540 H   0  0  0  0  0  0  0  0  0  0  0  0
    8.3023    0.6269   -1.4373 H   0  0  0  0  0  0  0  0  0  0  0  0
    8.3293   -0.7358   -0.3162 H   0  0  0  0  0  0  0  0  0  0  0  0
    6.7220    1.8475    0.0723 H   0  0  0  0  0  0  0  0  0  0  0  0
    6.7685    0.4973    1.2089 H   0  0  0  0  0  0  0  0  0  0  0  0
    5.8488    0.2759   -1.7061 H   0  0  0  0  0  0  0  0  0  0  0  0
    5.7915   -1.0167   -0.5131 H   0  0  0  0  0  0  0  0  0  0  0  0
    3.5970    0.0872   -0.9298 H   0  0  0  0  0  0  0  0  0  0  0  0
    4.2367    1.6231   -0.3653 H   0  0  0  0  0  0  0  0  0  0  0  0
    4.1151   -0.8974    1.3884 H   0  0  0  0  0  0  0  0  0  0  0  0
    4.6061    0.7035    1.8968 H   0  0  0  0  0  0  0  0  0  0  0  0
    2.4279    1.6399    1.4084 H   0  0  0  0  0  0  0  0  0  0  0  0
    2.3397    0.3889    2.6399 H   0  0  0  0  0  0  0  0  0  0  0  0
    1.8975   -1.8055    2.0288 H   0  0  0  0  0  0  0  0  0  0  0  0
    0.3680   -1.9194    1.2117 H   0  0  0  0  0  0  0  0  0  0  0  0
    1.5335   -2.1663   -1.0058 H   0  0  0  0  0  0  0  0  0  0  0  0
    3.0843   -2.2017   -0.1559 H   0  0  0  0  0  0  0  0  0  0  0  0
    1.8819   -3.4538    0.1539 H   0  0  0  0  0  0  0  0  0  0  0  0
   -0.3568    0.0875    1.9304 H   0  0  0  0  0  0  0  0  0  0  0  0
    0.3091    1.5747    1.3373 H   0  0  0  0  0  0  0  0  0  0  0  0
   -0.1892    1.0220   -1.0030 H   0  0  0  0  0  0  0  0  0  0  0  0
   -1.5537    1.3500    0.0345 H   0  0  0  0  0  0  0  0  0  0  0  0
   -0.6904   -1.4866   -0.6905 H   0  0  0  0  0  0  0  0  0  0  0  0
   -1.7196   -0.5500   -1.7289 H   0  0  0  0  0  0  0  0  0  0  0  0
   -2.8881   -2.1920   -0.2583 H   0  0  0  0  0  0  0  0  0  0  0  0
   -2.6372   -0.5324    1.9513 H   0  0  0  0  0  0  0  0  0  0  0  0
   -4.9473   -1.5970    1.5018 H   0  0  0  0  0  0  0  0  0  0  0  0
   -7.0876   -0.4077    1.3794 H   0  0  0  0  0  0  0  0  0  0  0  0
   -8.3103    1.5327    0.5822 H   0  0  0  0  0  0  0  0  0  0  0  0
   -9.2683   -0.5533   -1.1783 H   0  0  0  0  0  0  0  0  0  0  0  0
   -7.8277   -0.5296   -2.2603 H   0  0  0  0  0  0  0  0  0  0  0  0
   -9.4452   -0.1459   -2.9077 H   0  0  0  0  0  0  0  0  0  0  0  0
   -5.4768    2.1667   -1.6781 H   0  0  0  0  0  0  0  0  0  0  0  0
   -3.3566    0.9884   -1.5767 H   0  0  0  0  0  0  0  0  0  0  0  0
  1  2  1  0
  2  3  1  0
  3  4  1  0
  4  5  1  0
  5  6  1  0
  6  7  1  0
  7  8  1  0
  8  9  1  0
  9 10  1  0
  8 11  1  0
 11 12  1  0
 12 13  1  0
 13 14  1  0
 14 15  1  0
 14 16  1  0
 16 17  1  0
 17 18  2  0
 18 19  1  0
 19 20  1  0
 20 21  1  0
 21 22  1  0
 21 23  2  0
 21 24  2  0
 19 25  2  0
 25 26  1  0
 26 16  2  0
  1 27  1  0
  1 28  1  0
  1 29  1  0
  2 30  1  0
  2 31  1  0
  3 32  1  0
  3 33  1  0
  4 34  1  0
  4 35  1  0
  5 36  1  0
  5 37  1  0
  6 38  1  0
  6 39  1  0
  7 40  1  0
  7 41  1  0
  9 42  1  0
  9 43  1  0
 10 44  1  0
 10 45  1  0
 10 46  1  0
 11 47  1  0
 11 48  1  0
 12 49  1  0
 12 50  1  0
 13 51  1  0
 13 52  1  0
 14 53  1  0
 15 54  1  0
 17 55  1  0
 18 56  1  0
 20 57  1  0
 22 58  1  0
 22 59  1  0
 22 60  1  0
 25 61  1  0
 26 62  1  0
M  END
$$$$
OCNT-2328395
     RDKit          3D

 22 22  0  0  0  0  0  0  0  0999 V2000
   -2.7217   -0.3704   -1.3468 N   0  0  0  0  0  0  0  0  0  0  0  0
   -3.0164   -0.8533   -0.1894 C   0  0  0  0  0  0  0  0  0  0  0  0
   -4.2765   -1.2728    0.0900 N   0  0  0  0  0  0  0  0  0  0  0  0
   -2.1462   -1.0270    0.8593 N   0  0  0  0  0  0  0  0  0  0  0  0
   -0.9293   -0.4267    1.0376 N   0  0  0  0  0  0  0  0  0  0  0  0
   -0.1123   -0.5044    0.0347 C   0  0  0  0  0  0  0  0  0  0  0  0
    1.2201    0.1362    0.0540 C   0  0  0  0  0  0  0  0  0  0  0  0
    2.0085    0.1971    1.2149 C   0  0  0  0  0  0  0  0  0  0  0  0
    1.5709   -0.5401    2.7184 Cl  0  0  0  0  0  0  0  0  0  0  0  0
    3.2605    0.8283    1.1840 C   0  0  0  0  0  0  0  0  0  0  0  0
    3.7409    1.3928    0.0052 C   0  0  0  0  0  0  0  0  0  0  0  0
    2.9726    1.3220   -1.1529 C   0  0  0  0  0  0  0  0  0  0  0  0
    1.7196    0.6958   -1.1341 C   0  0  0  0  0  0  0  0  0  0  0  0
    0.8427    0.6845   -2.6263 Cl  0  0  0  0  0  0  0  0  0  0  0  0
   -3.5398   -0.3816   -1.9533 H   0  0  0  0  0  0  0  0  0  0  0  0
   -4.9716   -0.9925   -0.5899 H   0  0  0  0  0  0  0  0  0  0  0  0
   -4.5936   -1.0531    1.0262 H   0  0  0  0  0  0  0  0  0  0  0  0
   -2.5872   -1.3002    1.7297 H   0  0  0  0  0  0  0  0  0  0  0  0
   -0.3792   -1.0510   -0.8865 H   0  0  0  0  0  0  0  0  0  0  0  0
    3.8729    0.8734    2.0828 H   0  0  0  0  0  0  0  0  0  0  0  0
    4.7128    1.8805   -0.0113 H   0  0  0  0  0  0  0  0  0  0  0  0
    3.3524    1.7625   -2.0728 H   0  0  0  0  0  0  0  0  0  0  0  0
  1  2  2  3
  2  3  1  0
  2  4  1  0
  4  5  1  0
  5  6  2  3
  6  7  1  0
  7  8  2  0
  8  9  1  0
  8 10  1  0
 10 11  2  0
 11 12  1  0
 12 13  2  0
 13 14  1  0
 13  7  1  0
  1 15  1  0
  3 16  1  0
  3 17  1  0
  4 18  1  0
  6 19  1  0
 10 20  1  0
 11 21  1  0
 12 22  1  0
M  END
$$$$
OCNT-2328398
     RDKit          3D

 23 23  0  0  0  0  0  0  0  0999 V2000
    3.1883   -0.0873    1.0046 C   0  0  0  0  0  0  0  0  0  0  0  0
    1.8648    0.6559    0.9300 C   0  0  0  0  0  0  0  0  0  0  0  0
    1.0312   -0.0236   -0.0129 O   0  0  0  0  0  0  0  0  0  0  0  0
   -0.2961    0.3300   -0.0493 C   0  0  0  0  0  0  0  0  0  0  0  0
   -0.7731    1.5459    0.4678 C   0  0  0  0  0  0  0  0  0  0  0  0
   -2.1323    1.8651    0.4119 C   0  0  0  0  0  0  0  0  0  0  0  0
   -3.0348    0.9793   -0.1658 C   0  0  0  0  0  0  0  0  0  0  0  0
   -2.5750   -0.2244   -0.6980 C   0  0  0  0  0  0  0  0  0  0  0  0
   -1.2083   -0.5602   -0.6560 C   0  0  0  0  0  0  0  0  0  0  0  0
   -0.8393   -1.8755   -1.2694 C   0  0  0  0  0  0  0  0  0  0  0  0
    0.4828   -2.1846   -1.3981 N   0  0  0  0  0  0  0  0  0  0  0  0
   -1.6916   -2.6662   -1.6608 O   0  0  0  0  0  0  0  0  0  0  0  0
    3.8702    0.4021    1.7062 H   0  0  0  0  0  0  0  0  0  0  0  0
    3.6667   -0.1331    0.0199 H   0  0  0  0  0  0  0  0  0  0  0  0
    3.0301   -1.1215    1.3281 H   0  0  0  0  0  0  0  0  0  0  0  0
    2.0527    1.6803    0.5904 H   0  0  0  0  0  0  0  0  0  0  0  0
    1.4007    0.6602    1.9241 H   0  0  0  0  0  0  0  0  0  0  0  0
   -0.1058    2.2774    0.9149 H   0  0  0  0  0  0  0  0  0  0  0  0
   -2.4853    2.8085    0.8186 H   0  0  0  0  0  0  0  0  0  0  0  0
   -4.0934    1.2243   -0.2113 H   0  0  0  0  0  0  0  0  0  0  0  0
   -3.2915   -0.9071   -1.1545 H   0  0  0  0  0  0  0  0  0  0  0  0
    1.2039   -1.5661   -1.0469 H   0  0  0  0  0  0  0  0  0  0  0  0
    0.7349   -3.0791   -1.7934 H   0  0  0  0  0  0  0  0  0  0  0  0
  1  2  1  0
  2  3  1  0
  3  4  1  0
  4  5  2  0
  5  6  1  0
  6  7  2  0
  7  8  1  0
  8  9  2  0
  9 10  1  0
 10 11  1  0
 10 12  2  0
  9  4  1  0
  1 13  1  0
  1 14  1  0
  1 15  1  0
  2 16  1  0
  2 17  1  0
  5 18  1  0
  6 19  1  0
  7 20  1  0
  8 21  1  0
 11 22  1  0
 11 23  1  0
M  END
$$$$
OCNT-2328411
     RDKit          3D

 22 22  0  0  0  0  0  0  0  0999 V2000
   -2.1437   -0.8600    0.7281 C   0  0  0  0  0  0  0  0  0  0  0  0
   -1.7949    0.5658    0.3137 C   0  0  0  0  0  0  0  0  0  0  0  0
   -0.4141    0.7101   -0.3345 C   0  0  0  0  0  0  0  0  0  0  0  0
   -0.1701    2.1304   -0.8359 C   0  0  0  0  0  0  0  0  0  0  0  0
   -0.2743   -0.1936   -1.4405 O   0  0  0  0  0  0  0  0  0  0  0  0
    0.8355   -0.9643   -1.2469 C   0  0  0  0  0  0  0  0  0  0  0  0
    1.1858   -1.8333   -2.0292 O   0  0  0  0  0  0  0  0  0  0  0  0
    1.4392   -0.6364   -0.0845 N   0  0  0  0  0  0  0  0  0  0  0  0
    2.5835   -1.3240    0.4559 C   0  0  0  0  0  0  0  0  0  0  0  0
    0.7100    0.2897    0.5847 C   0  0  0  0  0  0  0  0  0  0  0  0
    0.9113    0.7110    1.7134 O   0  0  0  0  0  0  0  0  0  0  0  0
   -1.4395   -1.2443    1.4722 H   0  0  0  0  0  0  0  0  0  0  0  0
   -2.1436   -1.5370   -0.1316 H   0  0  0  0  0  0  0  0  0  0  0  0
   -3.1443   -0.8853    1.1719 H   0  0  0  0  0  0  0  0  0  0  0  0
   -1.8670    1.2169    1.1933 H   0  0  0  0  0  0  0  0  0  0  0  0
   -2.5620    0.8961   -0.3981 H   0  0  0  0  0  0  0  0  0  0  0  0
   -0.2326    2.8599   -0.0216 H   0  0  0  0  0  0  0  0  0  0  0  0
    0.8209    2.2231   -1.2956 H   0  0  0  0  0  0  0  0  0  0  0  0
   -0.8994    2.4015   -1.6073 H   0  0  0  0  0  0  0  0  0  0  0  0
    3.2542   -1.6297   -0.3519 H   0  0  0  0  0  0  0  0  0  0  0  0
    3.1131   -0.6797    1.1629 H   0  0  0  0  0  0  0  0  0  0  0  0
    2.2321   -2.2170    0.9815 H   0  0  0  0  0  0  0  0  0  0  0  0
  1  2  1  0
  2  3  1  0
  3  4  1  0
  3  5  1  0
  5  6  1  0
  6  7  2  0
  6  8  1  0
  8  9  1  0
  8 10  1  0
 10 11  2  0
 10  3  1  0
  1 12  1  0
  1 13  1  0
  1 14  1  0
  2 15  1  0
  2 16  1  0
  4 17  1  0
  4 18  1  0
  4 19  1  0
  9 20  1  0
  9 21  1  0
  9 22  1  0
M  END
$$$$
OCNT-2328418
     RDKit          3D

 48 49  0  0  0  0  0  0  0  0999 V2000
   -0.8876    1.0795    2.0062 O   0  0  0  0  0  0  0  0  0  0  0  0
   -0.3466    0.1526    1.4082 C   0  0  0  0  0  0  0  0  0  0  0  0
   -0.8753   -1.1153    1.3765 N   0  0  0  0  0  0  0  0  0  0  0  0
   -2.1547   -1.4611    1.9756 C   0  0  0  0  0  0  0  0  0  0  0  0
   -3.3864   -1.0810    1.1105 C   0  0  0  0  0  0  0  0  0  0  0  0
   -3.3318   -1.7629   -0.2683 C   0  0  0  0  0  0  0  0  0  0  0  0
   -4.5470   -1.4045   -1.1214 C   0  0  0  0  0  0  0  0  0  0  0  0
   -4.9396    0.0665   -0.9899 C   0  0  0  0  0  0  0  0  0  0  0  0
   -3.8632    0.8916   -0.2928 C   0  0  0  0  0  0  0  0  0  0  0  0
   -3.5870    0.3765    1.0401 N   0  0  0  0  0  0  0  0  0  0  0  0
    0.9401    0.3788    0.6773 C   0  0  0  0  0  0  0  0  0  0  0  0
    1.4093   -0.4314   -0.3757 C   0  0  0  0  0  0  0  0  0  0  0  0
    0.6389   -1.5024   -0.7442 O   0  0  0  0  0  0  0  0  0  0  0  0
    0.8747   -2.1483   -2.0063 C   0  0  0  0  0  0  0  0  0  0  0  0
    1.7332   -3.4005   -1.8740 C   0  0  0  0  0  0  0  0  0  0  0  0
    2.9982   -3.1076   -1.5008 F   0  0  0  0  0  0  0  0  0  0  0  0
    1.2194   -4.2613   -0.9675 F   0  0  0  0  0  0  0  0  0  0  0  0
    1.8027   -4.0522   -3.0596 F   0  0  0  0  0  0  0  0  0  0  0  0
    2.6362   -0.1133   -0.9704 C   0  0  0  0  0  0  0  0  0  0  0  0
    3.3816    0.9963   -0.5457 C   0  0  0  0  0  0  0  0  0  0  0  0
    2.9144    1.8036    0.4850 C   0  0  0  0  0  0  0  0  0  0  0  0
    3.5404    2.9064    0.9923 O   0  0  0  0  0  0  0  0  0  0  0  0
    4.8703    3.1760    0.5362 C   0  0  0  0  0  0  0  0  0  0  0  0
    5.4625    4.3559    1.2888 C   0  0  0  0  0  0  0  0  0  0  0  0
    4.7545    5.4885    1.0848 F   0  0  0  0  0  0  0  0  0  0  0  0
    6.7290    4.5877    0.8623 F   0  0  0  0  0  0  0  0  0  0  0  0
    5.5210    4.1290    2.6176 F   0  0  0  0  0  0  0  0  0  0  0  0
    1.6932    1.4962    1.0836 C   0  0  0  0  0  0  0  0  0  0  0  0
   -0.4301   -1.7978    0.7741 H   0  0  0  0  0  0  0  0  0  0  0  0
   -2.2225   -0.9777    2.9567 H   0  0  0  0  0  0  0  0  0  0  0  0
   -2.1398   -2.5431    2.1416 H   0  0  0  0  0  0  0  0  0  0  0  0
   -4.2668   -1.4772    1.6350 H   0  0  0  0  0  0  0  0  0  0  0  0
   -3.2776   -2.8527   -0.1538 H   0  0  0  0  0  0  0  0  0  0  0  0
   -2.4230   -1.4623   -0.8069 H   0  0  0  0  0  0  0  0  0  0  0  0
   -4.3296   -1.6385   -2.1710 H   0  0  0  0  0  0  0  0  0  0  0  0
   -5.4014   -2.0294   -0.8366 H   0  0  0  0  0  0  0  0  0  0  0  0
   -5.1510    0.4850   -1.9806 H   0  0  0  0  0  0  0  0  0  0  0  0
   -5.8760    0.1367   -0.4227 H   0  0  0  0  0  0  0  0  0  0  0  0
   -2.9449    0.9078   -0.8916 H   0  0  0  0  0  0  0  0  0  0  0  0
   -4.1987    1.9302   -0.2109 H   0  0  0  0  0  0  0  0  0  0  0  0
   -2.7695    0.8629    1.4360 H   0  0  0  0  0  0  0  0  0  0  0  0
    1.2662   -1.4599   -2.7641 H   0  0  0  0  0  0  0  0  0  0  0  0
   -0.1130   -2.4573   -2.3715 H   0  0  0  0  0  0  0  0  0  0  0  0
    3.0659   -0.7130   -1.7663 H   0  0  0  0  0  0  0  0  0  0  0  0
    4.3240    1.1947   -1.0469 H   0  0  0  0  0  0  0  0  0  0  0  0
    5.5090    2.3008    0.7034 H   0  0  0  0  0  0  0  0  0  0  0  0
    4.8503    3.4176   -0.5321 H   0  0  0  0  0  0  0  0  0  0  0  0
    1.3280    2.1301    1.8924 H   0  0  0  0  0  0  0  0  0  0  0  0
  1  2  2  0
  2  3  1  0
  3  4  1  0
  4  5  1  0
  5  6  1  0
  6  7  1  0
  7  8  1  0
  8  9  1  0
  9 10  1  0
  2 11  1  0
 11 12  2  0
 12 13  1  0
 13 14  1  0
 14 15  1  0
 15 16  1  0
 15 17  1  0
 15 18  1  0
 12 19  1  0
 19 20  2  0
 20 21  1  0
 21 22  1  0
 22 23  1  0
 23 24  1  0
 24 25  1  0
 24 26  1  0
 24 27  1  0
 21 28  2  0
 10  5  1  0
 28 11  1  0
  3 29  1  0
  4 30  1  0
  4 31  1  0
  5 32  1  0
  6 33  1  0
  6 34  1  0
  7 35  1  0
  7 36  1  0
  8 37  1  0
  8 38  1  0
  9 39  1  0
  9 40  1  0
 10 41  1  0
 14 42  1  0
 14 43  1  0
 19 44  1  0
 20 45  1  0
 23 46  1  0
 23 47  1  0
 28 48  1  0
M  END
$$$$
OCNT-2328420
     RDKit          3D

 28 29  0  0  0  0  0  0  0  0999 V2000
   -3.3793    0.7316   -1.0625 C   0  0  0  0  0  0  0  0  0  0  0  0
   -2.3029    0.0207   -0.2851 C   0  0  0  0  0  0  0  0  0  0  0  0
   -2.6267   -0.4807    0.9863 C   0  0  0  0  0  0  0  0  0  0  0  0
   -1.6811   -1.1555    1.7495 C   0  0  0  0  0  0  0  0  0  0  0  0
   -0.3980   -1.3422    1.2496 C   0  0  0  0  0  0  0  0  0  0  0  0
   -0.0310   -0.8485   -0.0178 C   0  0  0  0  0  0  0  0  0  0  0  0
    1.3832   -1.1180   -0.4982 C   0  0  0  0  0  0  0  0  0  0  0  0
    2.2821   -0.2129    0.2755 C   0  0  0  0  0  0  0  0  0  0  0  0
    2.4424    1.1563    0.1910 C   0  0  0  0  0  0  0  0  0  0  0  0
    3.3915    1.4699    1.1229 N   0  0  0  0  0  0  0  0  0  0  0  0
    3.7869    0.3066    1.7164 C   0  0  0  0  0  0  0  0  0  0  0  0
    3.1447   -0.7266    1.2241 N   0  0  0  0  0  0  0  0  0  0  0  0
   -0.9902   -0.1447   -0.7924 C   0  0  0  0  0  0  0  0  0  0  0  0
   -0.6224    0.3753   -2.1608 C   0  0  0  0  0  0  0  0  0  0  0  0
   -3.1233    1.7888   -1.1840 H   0  0  0  0  0  0  0  0  0  0  0  0
   -3.5125    0.2660   -2.0443 H   0  0  0  0  0  0  0  0  0  0  0  0
   -4.3463    0.6832   -0.5501 H   0  0  0  0  0  0  0  0  0  0  0  0
   -3.6280   -0.3499    1.3909 H   0  0  0  0  0  0  0  0  0  0  0  0
   -1.9429   -1.5392    2.7315 H   0  0  0  0  0  0  0  0  0  0  0  0
    0.3348   -1.8737    1.8562 H   0  0  0  0  0  0  0  0  0  0  0  0
    1.6377   -2.1690   -0.3145 H   0  0  0  0  0  0  0  0  0  0  0  0
    1.5067   -0.9565   -1.5725 H   0  0  0  0  0  0  0  0  0  0  0  0
    1.9638    1.9078   -0.4201 H   0  0  0  0  0  0  0  0  0  0  0  0
    3.7404    2.3932    1.3387 H   0  0  0  0  0  0  0  0  0  0  0  0
    4.5388    0.2749    2.4933 H   0  0  0  0  0  0  0  0  0  0  0  0
    0.3282    0.9161   -2.1282 H   0  0  0  0  0  0  0  0  0  0  0  0
   -0.5442   -0.4579   -2.8663 H   0  0  0  0  0  0  0  0  0  0  0  0
   -1.3525    1.0848   -2.5580 H   0  0  0  0  0  0  0  0  0  0  0  0
  1  2  1  0
  2  3  1  0
  3  4  2  0
  4  5  1  0
  5  6  2  0
  6  7  1  0
  7  8  1  0
  8  9  2  0
  9 10  1  0
 10 11  1  0
 11 12  2  0
  6 13  1  0
 13 14  1  0
 13  2  2  0
 12  8  1  0
  1 15  1  0
  1 16  1  0
  1 17  1  0
  3 18  1  0
  4 19  1  0
  5 20  1  0
  7 21  1  0
  7 22  1  0
  9 23  1  0
 10 24  1  0
 11 25  1  0
 14 26  1  0
 14 27  1  0
 14 28  1  0
M  END
$$$$
OCNT-2328421
     RDKit          3D

 57 61  0  0  0  0  0  0  0  0999 V2000
    6.2658    4.2439    0.7264 C   0  0  0  0  0  0  0  0  0  0  0  0
    6.3438    2.9101    0.6332 C   0  0  0  0  0  0  0  0  0  0  0  0
    5.1688    2.0643    0.9706 C   0  0  0  0  0  0  0  0  0  0  0  0
    4.3077    2.4819    1.7409 O   0  0  0  0  0  0  0  0  0  0  0  0
    5.1226    0.8001    0.3974 N   0  0  0  0  0  0  0  0  0  0  0  0
    5.7575    0.4439   -0.8729 C   0  0  0  0  0  0  0  0  0  0  0  0
    4.7342    0.5315   -2.0081 C   0  0  0  0  0  0  0  0  0  0  0  0
    3.4946   -0.3214   -1.7139 C   0  0  0  0  0  0  0  0  0  0  0  0
    2.8994    0.0112   -0.3318 C   0  0  1  0  0  0  0  0  0  0  0  0
    1.7370   -0.8111   -0.0303 N   0  0  0  0  0  0  0  0  0  0  0  0
    0.5057   -0.2619   -0.1120 N   0  0  0  0  0  0  0  0  0  0  0  0
   -0.3274   -1.2525    0.2518 C   0  0  0  0  0  0  0  0  0  0  0  0
   -1.7643   -1.0086    0.3395 C   0  0  0  0  0  0  0  0  0  0  0  0
   -2.4854   -1.3757    1.4830 C   0  0  0  0  0  0  0  0  0  0  0  0
   -3.8636   -1.1547    1.5486 C   0  0  0  0  0  0  0  0  0  0  0  0
   -4.5250   -0.5461    0.4819 C   0  0  0  0  0  0  0  0  0  0  0  0
   -5.8889   -0.4038    0.6027 O   0  0  0  0  0  0  0  0  0  0  0  0
   -6.4494    0.7688    0.1502 C   0  0  0  0  0  0  0  0  0  0  0  0
   -5.9781    2.0246    0.5411 C   0  0  0  0  0  0  0  0  0  0  0  0
   -6.6150    3.1771    0.0780 C   0  0  0  0  0  0  0  0  0  0  0  0
   -7.7274    3.0727   -0.7585 C   0  0  0  0  0  0  0  0  0  0  0  0
   -8.2103    1.8162   -1.1282 C   0  0  0  0  0  0  0  0  0  0  0  0
   -7.5755    0.6625   -0.6672 C   0  0  0  0  0  0  0  0  0  0  0  0
   -3.8163   -0.1801   -0.6645 C   0  0  0  0  0  0  0  0  0  0  0  0
   -2.4376   -0.3997   -0.7285 C   0  0  0  0  0  0  0  0  0  0  0  0
    0.3817   -2.4680    0.4816 C   0  0  0  0  0  0  0  0  0  0  0  0
    0.1047   -3.8010    0.8112 C   0  0  0  0  0  0  0  0  0  0  0  0
   -1.1655   -4.3235    1.0039 N   0  0  0  0  0  0  0  0  0  0  0  0
    1.1338   -4.6657    0.9317 N   0  0  0  0  0  0  0  0  0  0  0  0
    2.3842   -4.2134    0.7226 C   0  0  0  0  0  0  0  0  0  0  0  0
    2.7674   -2.9712    0.3878 N   0  0  0  0  0  0  0  0  0  0  0  0
    1.7136   -2.1420    0.2872 C   0  0  0  0  0  0  0  0  0  0  0  0
    3.9877   -0.0618    0.7514 C   0  0  0  0  0  0  0  0  0  0  0  0
    7.1266    4.8688    0.5163 H   0  0  0  0  0  0  0  0  0  0  0  0
    5.3447    4.7381    1.0263 H   0  0  0  0  0  0  0  0  0  0  0  0
    7.2749    2.4271    0.3715 H   0  0  0  0  0  0  0  0  0  0  0  0
    6.6064    1.0887   -1.1060 H   0  0  0  0  0  0  0  0  0  0  0  0
    6.1376   -0.5796   -0.7801 H   0  0  0  0  0  0  0  0  0  0  0  0
    4.4253    1.5754   -2.1406 H   0  0  0  0  0  0  0  0  0  0  0  0
    5.1927    0.2058   -2.9482 H   0  0  0  0  0  0  0  0  0  0  0  0
    2.7439   -0.1607   -2.4970 H   0  0  0  0  0  0  0  0  0  0  0  0
    3.7735   -1.3818   -1.7625 H   0  0  0  0  0  0  0  0  0  0  0  0
    2.5365    1.0487   -0.3693 H   0  0  0  0  0  0  0  0  0  0  0  0
   -1.9823   -1.8338    2.3326 H   0  0  0  0  0  0  0  0  0  0  0  0
   -4.4190   -1.4499    2.4350 H   0  0  0  0  0  0  0  0  0  0  0  0
   -5.1241    2.1126    1.2072 H   0  0  0  0  0  0  0  0  0  0  0  0
   -6.2483    4.1567    0.3757 H   0  0  0  0  0  0  0  0  0  0  0  0
   -8.2237    3.9719   -1.1157 H   0  0  0  0  0  0  0  0  0  0  0  0
   -9.0837    1.7365   -1.7700 H   0  0  0  0  0  0  0  0  0  0  0  0
   -7.9539   -0.3173   -0.9462 H   0  0  0  0  0  0  0  0  0  0  0  0
   -4.3236    0.2722   -1.5119 H   0  0  0  0  0  0  0  0  0  0  0  0
   -1.8886   -0.0974   -1.6181 H   0  0  0  0  0  0  0  0  0  0  0  0
   -1.8992   -3.8873    0.4605 H   0  0  0  0  0  0  0  0  0  0  0  0
   -1.1444   -5.3375    0.9821 H   0  0  0  0  0  0  0  0  0  0  0  0
    3.1781   -4.9460    0.8349 H   0  0  0  0  0  0  0  0  0  0  0  0
    4.3919   -1.0741    0.8545 H   0  0  0  0  0  0  0  0  0  0  0  0
    3.5780    0.2161    1.7292 H   0  0  0  0  0  0  0  0  0  0  0  0
  1  2  2  0
  2  3  1  0
  3  4  2  0
  3  5  1  0
  5  6  1  0
  6  7  1  0
  7  8  1  0
  8  9  1  0
  9 10  1  0
 10 11  1  0
 11 12  2  0
 12 13  1  0
 13 14  1  0
 14 15  2  0
 15 16  1  0
 16 17  1  0
 17 18  1  0
 18 19  2  0
 19 20  1  0
 20 21  2  0
 21 22  1  0
 22 23  2  0
 16 24  2  0
 24 25  1  0
 12 26  1  0
 26 27  2  0
 27 28  1  0
 27 29  1  0
 29 30  2  0
 30 31  1  0
 31 32  2  0
  9 33  1  0
 33  5  1  0
 32 10  1  0
 25 13  2  0
 32 26  1  0
 23 18  1  0
  1 34  1  0
  1 35  1  0
  2 36  1  0
  6 37  1  0
  6 38  1  0
  7 39  1  0
  7 40  1  0
  8 41  1  0
  8 42  1  0
  9 43  1  6
 14 44  1  0
 15 45  1  0
 19 46  1  0
 20 47  1  0
 21 48  1  0
 22 49  1  0
 23 50  1  0
 24 51  1  0
 25 52  1  0
 28 53  1  0
 28 54  1  0
 30 55  1  0
 33 56  1  0
 33 57  1  0
M  END
$$$$
OCNT-2328426
     RDKit          3D

 50 52  0  0  0  0  0  0  0  0999 V2000
   -1.6057   -0.5486   -1.8344 O   0  0  0  0  0  0  0  0  0  0  0  0
   -1.6563   -0.1995   -0.4358 C   0  0  0  0  0  0  0  0  0  0  0  0
   -0.1791   -0.1955    0.0530 C   0  0  0  0  0  0  0  0  0  0  0  0
    0.6239   -1.4551   -0.3238 C   0  0  0  0  0  0  0  0  0  0  0  0
    1.9981   -1.5113    0.3627 C   0  0  0  0  0  0  0  0  0  0  0  0
    2.8613   -0.3583    0.0819 N   0  0  0  0  0  0  0  0  0  0  0  0
    4.0593   -0.3625    0.9223 C   0  0  0  0  0  0  0  0  0  0  0  0
    4.7804    0.9873    0.8276 C   0  0  0  0  0  0  0  0  0  0  0  0
    4.7629    1.5848   -0.5807 C   0  0  0  0  0  0  0  0  0  0  0  0
    4.5099    0.5084   -1.6248 C   0  0  0  0  0  0  0  0  0  0  0  0
    3.1997   -0.2431   -1.3481 C   0  0  0  0  0  0  0  0  0  0  0  0
   -2.2094    1.2313   -0.2948 C   0  0  0  0  0  0  0  0  0  0  0  0
   -2.4859    1.7702    0.9767 C   0  0  0  0  0  0  0  0  0  0  0  0
   -2.9783    3.0699    1.1177 C   0  0  0  0  0  0  0  0  0  0  0  0
   -3.1996    3.8580   -0.0082 C   0  0  0  0  0  0  0  0  0  0  0  0
   -2.9275    3.3482   -1.2747 C   0  0  0  0  0  0  0  0  0  0  0  0
   -2.4357    2.0481   -1.4167 C   0  0  0  0  0  0  0  0  0  0  0  0
   -2.5906   -1.2162    0.2471 C   0  0  0  0  0  0  0  0  0  0  0  0
   -2.2696   -1.8800    1.4430 C   0  0  0  0  0  0  0  0  0  0  0  0
   -3.1611   -2.7864    2.0258 C   0  0  0  0  0  0  0  0  0  0  0  0
   -4.3946   -3.0389    1.4320 C   0  0  0  0  0  0  0  0  0  0  0  0
   -4.7438   -2.3805    0.2577 C   0  0  0  0  0  0  0  0  0  0  0  0
   -3.8539   -1.4763   -0.3250 C   0  0  0  0  0  0  0  0  0  0  0  0
   -1.7114   -1.5130   -1.8872 H   0  0  0  0  0  0  0  0  0  0  0  0
    0.3337    0.6598   -0.4097 H   0  0  0  0  0  0  0  0  0  0  0  0
   -0.1257   -0.0230    1.1352 H   0  0  0  0  0  0  0  0  0  0  0  0
    0.7486   -1.5070   -1.4117 H   0  0  0  0  0  0  0  0  0  0  0  0
    0.0726   -2.3573   -0.0379 H   0  0  0  0  0  0  0  0  0  0  0  0
    2.5018   -2.4449    0.0801 H   0  0  0  0  0  0  0  0  0  0  0  0
    1.8169   -1.5708    1.4440 H   0  0  0  0  0  0  0  0  0  0  0  0
    3.7991   -0.5279    1.9752 H   0  0  0  0  0  0  0  0  0  0  0  0
    4.7349   -1.1781    0.6326 H   0  0  0  0  0  0  0  0  0  0  0  0
    4.3254    1.7064    1.5201 H   0  0  0  0  0  0  0  0  0  0  0  0
    5.8177    0.8531    1.1574 H   0  0  0  0  0  0  0  0  0  0  0  0
    5.7072    2.1031   -0.7809 H   0  0  0  0  0  0  0  0  0  0  0  0
    3.9704    2.3412   -0.6440 H   0  0  0  0  0  0  0  0  0  0  0  0
    5.3477   -0.2007   -1.6188 H   0  0  0  0  0  0  0  0  0  0  0  0
    4.4775    0.9525   -2.6260 H   0  0  0  0  0  0  0  0  0  0  0  0
    3.2805   -1.2305   -1.8209 H   0  0  0  0  0  0  0  0  0  0  0  0
    2.3826    0.2868   -1.8517 H   0  0  0  0  0  0  0  0  0  0  0  0
   -2.3224    1.1763    1.8733 H   0  0  0  0  0  0  0  0  0  0  0  0
   -3.1886    3.4653    2.1078 H   0  0  0  0  0  0  0  0  0  0  0  0
   -3.5818    4.8691    0.1009 H   0  0  0  0  0  0  0  0  0  0  0  0
   -3.0949    3.9613   -2.1561 H   0  0  0  0  0  0  0  0  0  0  0  0
   -2.2249    1.6767   -2.4176 H   0  0  0  0  0  0  0  0  0  0  0  0
   -1.3261   -1.7034    1.9518 H   0  0  0  0  0  0  0  0  0  0  0  0
   -2.8926   -3.2912    2.9506 H   0  0  0  0  0  0  0  0  0  0  0  0
   -5.0871   -3.7401    1.8899 H   0  0  0  0  0  0  0  0  0  0  0  0
   -5.7115   -2.5617   -0.2026 H   0  0  0  0  0  0  0  0  0  0  0  0
   -4.1543   -0.9560   -1.2344 H   0  0  0  0  0  0  0  0  0  0  0  0
  1  2  1  0
  2  3  1  0
  3  4  1  0
  4  5  1  0
  5  6  1  0
  6  7  1  0
  7  8  1  0
  8  9  1  0
  9 10  1  0
 10 11  1  0
  2 12  1  0
 12 13  2  0
 13 14  1  0
 14 15  2  0
 15 16  1  0
 16 17  2  0
  2 18  1  0
 18 19  2  0
 19 20  1  0
 20 21  2  0
 21 22  1  0
 22 23  2  0
 11  6  1  0
 17 12  1  0
 23 18  1  0
  1 24  1  0
  3 25  1  0
  3 26  1  0
  4 27  1  0
  4 28  1  0
  5 29  1  0
  5 30  1  0
  7 31  1  0
  7 32  1  0
  8 33  1  0
  8 34  1  0
  9 35  1  0
  9 36  1  0
 10 37  1  0
 10 38  1  0
 11 39  1  0
 11 40  1  0
 13 41  1  0
 14 42  1  0
 15 43  1  0
 16 44  1  0
 17 45  1  0
 19 46  1  0
 20 47  1  0
 21 48  1  0
 22 49  1  0
 23 50  1  0
M  END
$$$$
OCNT-2328429
     RDKit          3D

 42 44  0  0  0  0  0  0  0  0999 V2000
    4.8366   -0.1441    0.2731 C   0  0  0  0  0  0  0  0  0  0  0  0
    3.6529   -0.4710   -0.5254 N   0  0  0  0  0  0  0  0  0  0  0  0
    4.0631   -1.0585   -1.8019 C   0  0  0  0  0  0  0  0  0  0  0  0
    2.8226    0.7360   -0.7141 C   0  0  0  0  0  0  0  0  0  0  0  0
    1.4374    0.4888   -1.3432 C   0  0  0  0  0  0  0  0  0  0  0  0
    0.5861   -0.4583   -0.5409 C   0  0  0  0  0  0  0  0  0  0  0  0
   -0.5447   -0.1667    0.1175 C   0  0  0  0  0  0  0  0  0  0  0  0
   -1.3693   -1.2803    0.8396 C   0  0  0  0  0  0  0  0  0  0  0  0
   -2.6551   -1.5974    0.3750 C   0  0  0  0  0  0  0  0  0  0  0  0
   -3.4234   -2.5360    1.0710 C   0  0  0  0  0  0  0  0  0  0  0  0
   -2.9147   -3.1493    2.2183 C   0  0  0  0  0  0  0  0  0  0  0  0
   -1.6371   -2.8282    2.6773 C   0  0  0  0  0  0  0  0  0  0  0  0
   -0.8652   -1.8894    1.9929 C   0  0  0  0  0  0  0  0  0  0  0  0
   -3.2479   -0.9700   -0.9359 C   0  0  0  0  0  0  0  0  0  0  0  0
   -3.1610    0.3222   -1.2856 C   0  0  0  0  0  0  0  0  0  0  0  0
   -2.4564    1.4413   -0.4423 C   0  0  0  0  0  0  0  0  0  0  0  0
   -1.2094    1.2423    0.1688 C   0  0  0  0  0  0  0  0  0  0  0  0
   -0.6173    2.2695    0.9110 C   0  0  0  0  0  0  0  0  0  0  0  0
   -1.2519    3.5069    1.0180 C   0  0  0  0  0  0  0  0  0  0  0  0
   -2.4849    3.7139    0.3999 C   0  0  0  0  0  0  0  0  0  0  0  0
   -3.0877    2.6838   -0.3257 C   0  0  0  0  0  0  0  0  0  0  0  0
    4.5445    0.2416    1.2563 H   0  0  0  0  0  0  0  0  0  0  0  0
    5.4371   -1.0419    0.4582 H   0  0  0  0  0  0  0  0  0  0  0  0
    5.4726    0.6023   -0.2165 H   0  0  0  0  0  0  0  0  0  0  0  0
    4.6172   -0.3475   -2.4252 H   0  0  0  0  0  0  0  0  0  0  0  0
    3.1998   -1.4199   -2.3689 H   0  0  0  0  0  0  0  0  0  0  0  0
    4.7004   -1.9345   -1.6341 H   0  0  0  0  0  0  0  0  0  0  0  0
    2.6541    1.2060    0.2644 H   0  0  0  0  0  0  0  0  0  0  0  0
    3.3603    1.4738   -1.3245 H   0  0  0  0  0  0  0  0  0  0  0  0
    0.9415    1.4579   -1.4672 H   0  0  0  0  0  0  0  0  0  0  0  0
    1.5427    0.0874   -2.3576 H   0  0  0  0  0  0  0  0  0  0  0  0
    0.9432   -1.4871   -0.5258 H   0  0  0  0  0  0  0  0  0  0  0  0
   -4.4200   -2.7957    0.7242 H   0  0  0  0  0  0  0  0  0  0  0  0
   -3.5168   -3.8775    2.7554 H   0  0  0  0  0  0  0  0  0  0  0  0
   -1.2452   -3.3026    3.5730 H   0  0  0  0  0  0  0  0  0  0  0  0
    0.1227   -1.6275    2.3626 H   0  0  0  0  0  0  0  0  0  0  0  0
   -3.7413   -1.6498   -1.6268 H   0  0  0  0  0  0  0  0  0  0  0  0
   -3.5898    0.6194   -2.2398 H   0  0  0  0  0  0  0  0  0  0  0  0
    0.3307    2.1028    1.4151 H   0  0  0  0  0  0  0  0  0  0  0  0
   -0.7910    4.3053    1.5935 H   0  0  0  0  0  0  0  0  0  0  0  0
   -2.9823    4.6762    0.4894 H   0  0  0  0  0  0  0  0  0  0  0  0
   -4.0528    2.8556   -0.7950 H   0  0  0  0  0  0  0  0  0  0  0  0
  1  2  1  0
  2  3  1  0
  2  4  1  0
  4  5  1  0
  5  6  1  0
  6  7  2  3
  7  8  1  0
  8  9  1  0
  9 10  2  0
 10 11  1  0
 11 12  2  0
 12 13  1  0
  9 14  1  0
 14 15  2  0
 15 16  1  0
 16 17  1  0
 17 18  2  0
 18 19  1  0
 19 20  2  0
 20 21  1  0
 17  7  1  0
 13  8  2  0
 21 16  2  0
  1 22  1  0
  1 23  1  0
  1 24  1  0
  3 25  1  0
  3 26  1  0
  3 27  1  0
  4 28  1  0
  4 29  1  0
  5 30  1  0
  5 31  1  0
  6 32  1  0
 10 33  1  0
 11 34  1  0
 12 35  1  0
 13 36  1  0
 14 37  1  0
 15 38  1  0
 18 39  1  0
 19 40  1  0
 20 41  1  0
 21 42  1  0
M  END
$$$$
OCNT-2328441
     RDKit          3D

 42 43  0  0  0  0  0  0  0  0999 V2000
    1.1970    2.2108    1.6671 C   0  0  0  0  0  0  0  0  0  0  0  0
    0.3708    1.3685    0.7286 C   0  0  0  0  0  0  0  0  0  0  0  0
   -0.9513    1.0580    1.1042 C   0  0  0  0  0  0  0  0  0  0  0  0
   -1.7955    0.2846    0.2962 C   0  0  0  0  0  0  0  0  0  0  0  0
   -3.2410   -0.0646    0.6927 C   0  0  0  0  0  0  0  0  0  0  0  0
   -3.6724    0.5105    2.0610 C   0  0  0  0  0  0  0  0  0  0  0  0
   -4.2189    0.4935   -0.3640 C   0  0  0  0  0  0  0  0  0  0  0  0
   -3.4011   -1.5984    0.7736 C   0  0  0  0  0  0  0  0  0  0  0  0
   -1.2676   -0.1727   -0.9231 C   0  0  0  0  0  0  0  0  0  0  0  0
    0.0443    0.1234   -1.3355 C   0  0  0  0  0  0  0  0  0  0  0  0
    0.5175   -0.4182   -2.6606 C   0  0  0  0  0  0  0  0  0  0  0  0
    0.8787    0.9057   -0.5064 C   0  0  0  0  0  0  0  0  0  0  0  0
    2.3100    1.2019   -0.9235 C   0  0  0  0  0  0  0  0  0  0  0  0
    3.2461    0.0342   -0.6996 C   0  0  0  0  0  0  0  0  0  0  0  0
    4.1197   -0.3183   -1.6105 N   0  0  0  0  0  0  0  0  0  0  0  0
    4.8228   -1.4855   -1.0049 C   0  0  0  0  0  0  0  0  0  0  0  0
    3.9870   -1.9136    0.2047 C   0  0  0  0  0  0  0  0  0  0  0  0
    3.2311   -0.7106    0.4579 N   0  0  0  0  0  0  0  0  0  0  0  0
    0.6744    2.3943    2.6121 H   0  0  0  0  0  0  0  0  0  0  0  0
    1.4087    3.1841    1.2134 H   0  0  0  0  0  0  0  0  0  0  0  0
    2.1354    1.7052    1.9145 H   0  0  0  0  0  0  0  0  0  0  0  0
   -1.3091    1.4425    2.0563 H   0  0  0  0  0  0  0  0  0  0  0  0
   -3.0437    0.1308    2.8748 H   0  0  0  0  0  0  0  0  0  0  0  0
   -3.6226    1.6056    2.0725 H   0  0  0  0  0  0  0  0  0  0  0  0
   -4.7068    0.2334    2.2977 H   0  0  0  0  0  0  0  0  0  0  0  0
   -5.2596    0.2888   -0.0867 H   0  0  0  0  0  0  0  0  0  0  0  0
   -4.0587    0.0503   -1.3529 H   0  0  0  0  0  0  0  0  0  0  0  0
   -4.1089    1.5794   -0.4684 H   0  0  0  0  0  0  0  0  0  0  0  0
   -3.2239   -2.0858   -0.1913 H   0  0  0  0  0  0  0  0  0  0  0  0
   -4.4141   -1.8740    1.0897 H   0  0  0  0  0  0  0  0  0  0  0  0
   -2.6974   -2.0308    1.4948 H   0  0  0  0  0  0  0  0  0  0  0  0
   -1.8914   -0.7763   -1.5807 H   0  0  0  0  0  0  0  0  0  0  0  0
    0.8332    0.3971   -3.3186 H   0  0  0  0  0  0  0  0  0  0  0  0
    1.3441   -1.1194   -2.5144 H   0  0  0  0  0  0  0  0  0  0  0  0
   -0.2797   -0.9598   -3.1815 H   0  0  0  0  0  0  0  0  0  0  0  0
    2.7200    2.0597   -0.3812 H   0  0  0  0  0  0  0  0  0  0  0  0
    2.3386    1.4961   -1.9789 H   0  0  0  0  0  0  0  0  0  0  0  0
    5.8280   -1.1731   -0.7004 H   0  0  0  0  0  0  0  0  0  0  0  0
    4.9149   -2.2981   -1.7320 H   0  0  0  0  0  0  0  0  0  0  0  0
    4.6043   -2.2068    1.0577 H   0  0  0  0  0  0  0  0  0  0  0  0
    3.3127   -2.7355   -0.0584 H   0  0  0  0  0  0  0  0  0  0  0  0
    2.3246   -0.8164    0.9041 H   0  0  0  0  0  0  0  0  0  0  0  0
  1  2  1  0
  2  3  2  0
  3  4  1  0
  4  5  1  0
  5  6  1  0
  5  7  1  0
  5  8  1  0
  4  9  2  0
  9 10  1  0
 10 11  1  0
 10 12  2  0
 12 13  1  0
 13 14  1  0
 14 15  2  0
 15 16  1  0
 16 17  1  0
 17 18  1  0
 12  2  1  0
 18 14  1  0
  1 19  1  0
  1 20  1  0
  1 21  1  0
  3 22  1  0
  6 23  1  0
  6 24  1  0
  6 25  1  0
  7 26  1  0
  7 27  1  0
  7 28  1  0
  8 29  1  0
  8 30  1  0
  8 31  1  0
  9 32  1  0
 11 33  1  0
 11 34  1  0
 11 35  1  0
 13 36  1  0
 13 37  1  0
 16 38  1  0
 16 39  1  0
 17 40  1  0
 17 41  1  0
 18 42  1  0
M  END
$$$$
OCNT-2328446
     RDKit          3D

 30 30  0  0  0  0  0  0  0  0999 V2000
   -4.0060   -1.2241    0.2276 C   0  0  0  0  0  0  0  0  0  0  0  0
   -2.8261   -0.3288    0.6113 C   0  0  0  0  0  0  0  0  0  0  0  0
   -3.2593    1.1381    0.5892 C   0  0  0  0  0  0  0  0  0  0  0  0
   -1.7306   -0.6075   -0.3270 N   0  0  0  0  0  0  0  0  0  0  0  0
   -0.4448   -0.0199    0.1016 C   0  0  0  0  0  0  0  0  0  0  0  0
    0.6921   -0.5309   -0.8199 C   0  0  0  0  0  0  0  0  0  0  0  0
    0.6657   -1.9573   -0.8977 O   0  0  0  0  0  0  0  0  0  0  0  0
    2.0669   -0.0392   -0.4199 C   0  0  0  0  0  0  0  0  0  0  0  0
    2.6843    0.9295   -1.2387 C   0  0  0  0  0  0  0  0  0  0  0  0
    3.9464    1.4434   -0.9327 C   0  0  0  0  0  0  0  0  0  0  0  0
    4.6201    1.0009    0.1994 C   0  0  0  0  0  0  0  0  0  0  0  0
    4.0300    0.0446    1.0234 C   0  0  0  0  0  0  0  0  0  0  0  0
    2.7638   -0.4744    0.7211 C   0  0  0  0  0  0  0  0  0  0  0  0
    2.1294   -1.6467    1.8224 Cl  0  0  0  0  0  0  0  0  0  0  0  0
   -3.7225   -2.2822    0.2596 H   0  0  0  0  0  0  0  0  0  0  0  0
   -4.3712   -1.0013   -0.7815 H   0  0  0  0  0  0  0  0  0  0  0  0
   -4.8395   -1.0849    0.9247 H   0  0  0  0  0  0  0  0  0  0  0  0
   -2.5217   -0.6013    1.6293 H   0  0  0  0  0  0  0  0  0  0  0  0
   -3.5395    1.4587   -0.4204 H   0  0  0  0  0  0  0  0  0  0  0  0
   -4.1263    1.2931    1.2409 H   0  0  0  0  0  0  0  0  0  0  0  0
   -2.4632    1.7983    0.9471 H   0  0  0  0  0  0  0  0  0  0  0  0
   -1.9756   -0.2540   -1.2533 H   0  0  0  0  0  0  0  0  0  0  0  0
   -0.4785    1.0746    0.0666 H   0  0  0  0  0  0  0  0  0  0  0  0
   -0.2547   -0.3196    1.1366 H   0  0  0  0  0  0  0  0  0  0  0  0
    0.4746   -0.1868   -1.8394 H   0  0  0  0  0  0  0  0  0  0  0  0
   -0.2695   -2.1931   -0.7318 H   0  0  0  0  0  0  0  0  0  0  0  0
    2.1833    1.2898   -2.1358 H   0  0  0  0  0  0  0  0  0  0  0  0
    4.4036    2.1855   -1.5828 H   0  0  0  0  0  0  0  0  0  0  0  0
    5.6041    1.3947    0.4399 H   0  0  0  0  0  0  0  0  0  0  0  0
    4.5648   -0.2992    1.9058 H   0  0  0  0  0  0  0  0  0  0  0  0
  1  2  1  0
  2  3  1  0
  2  4  1  0
  4  5  1  0
  5  6  1  0
  6  7  1  0
  6  8  1  0
  8  9  2  0
  9 10  1  0
 10 11  2  0
 11 12  1  0
 12 13  2  0
 13 14  1  0
 13  8  1  0
  1 15  1  0
  1 16  1  0
  1 17  1  0
  2 18  1  0
  3 19  1  0
  3 20  1  0
  3 21  1  0
  4 22  1  0
  5 23  1  0
  5 24  1  0
  6 25  1  0
  7 26  1  0
  9 27  1  0
 10 28  1  0
 11 29  1  0
 12 30  1  0
M  END
$$$$
OCNT-2328447
     RDKit          3D

 42 45  0  0  0  0  0  0  0  0999 V2000
    6.2923    1.3470   -1.2625 C   0  0  0  0  0  0  0  0  0  0  0  0
    5.3353    1.9926   -2.0412 C   0  0  0  0  0  0  0  0  0  0  0  0
    3.9796    1.6992   -1.8697 C   0  0  0  0  0  0  0  0  0  0  0  0
    3.5566    0.7571   -0.9170 C   0  0  0  0  0  0  0  0  0  0  0  0
    2.1285    0.4489   -0.7368 C   0  0  0  0  0  0  0  0  0  0  0  0
    1.5233    0.5311    0.5258 C   0  0  0  0  0  0  0  0  0  0  0  0
    0.1661    0.2374    0.7014 C   0  0  0  0  0  0  0  0  0  0  0  0
   -0.6334   -0.1434   -0.3870 C   0  0  0  0  0  0  0  0  0  0  0  0
   -2.1139   -0.4912   -0.2390 C   0  0  0  0  0  0  0  0  0  0  0  0
   -2.8525    0.2552    0.8727 C   0  0  0  0  0  0  0  0  0  0  0  0
   -3.2349    1.5922    0.6520 C   0  0  0  0  0  0  0  0  0  0  0  0
   -3.8943    2.3233    1.6418 C   0  0  0  0  0  0  0  0  0  0  0  0
   -4.1784    1.7339    2.8703 C   0  0  0  0  0  0  0  0  0  0  0  0
   -3.7998    0.4159    3.1117 C   0  0  0  0  0  0  0  0  0  0  0  0
   -3.1384   -0.3179    2.1240 C   0  0  0  0  0  0  0  0  0  0  0  0
   -2.3417   -1.9454   -0.1983 N   0  0  0  0  0  0  0  0  0  0  0  0
   -1.5293   -2.9257    0.3100 C   0  0  0  0  0  0  0  0  0  0  0  0
   -2.1994   -4.1042    0.0801 C   0  0  0  0  0  0  0  0  0  0  0  0
   -3.3950   -3.8707   -0.5456 N   0  0  0  0  0  0  0  0  0  0  0  0
   -3.4568   -2.5675   -0.6985 C   0  0  0  0  0  0  0  0  0  0  0  0
   -0.0276   -0.2353   -1.6513 C   0  0  0  0  0  0  0  0  0  0  0  0
    1.3295    0.0591   -1.8214 C   0  0  0  0  0  0  0  0  0  0  0  0
    4.5388    0.1180   -0.1418 C   0  0  0  0  0  0  0  0  0  0  0  0
    5.8950    0.4094   -0.3129 C   0  0  0  0  0  0  0  0  0  0  0  0
    7.3467    1.5741   -1.3958 H   0  0  0  0  0  0  0  0  0  0  0  0
    5.6416    2.7270   -2.7815 H   0  0  0  0  0  0  0  0  0  0  0  0
    3.2480    2.2235   -2.4811 H   0  0  0  0  0  0  0  0  0  0  0  0
    2.1085    0.8381    1.3911 H   0  0  0  0  0  0  0  0  0  0  0  0
   -0.2513    0.3147    1.7034 H   0  0  0  0  0  0  0  0  0  0  0  0
   -2.6001   -0.1792   -1.1770 H   0  0  0  0  0  0  0  0  0  0  0  0
   -3.0141    2.0783   -0.2970 H   0  0  0  0  0  0  0  0  0  0  0  0
   -4.1836    3.3544    1.4546 H   0  0  0  0  0  0  0  0  0  0  0  0
   -4.6925    2.3020    3.6413 H   0  0  0  0  0  0  0  0  0  0  0  0
   -4.0194   -0.0445    4.0722 H   0  0  0  0  0  0  0  0  0  0  0  0
   -2.8532   -1.3430    2.3524 H   0  0  0  0  0  0  0  0  0  0  0  0
   -0.5738   -2.7196    0.7717 H   0  0  0  0  0  0  0  0  0  0  0  0
   -1.8831   -5.1080    0.3324 H   0  0  0  0  0  0  0  0  0  0  0  0
   -4.2761   -2.0264   -1.1545 H   0  0  0  0  0  0  0  0  0  0  0  0
   -0.6053   -0.5492   -2.5192 H   0  0  0  0  0  0  0  0  0  0  0  0
    1.7672   -0.0354   -2.8137 H   0  0  0  0  0  0  0  0  0  0  0  0
    4.2515   -0.6266    0.5978 H   0  0  0  0  0  0  0  0  0  0  0  0
    6.6393   -0.0991    0.2944 H   0  0  0  0  0  0  0  0  0  0  0  0
  1  2  2  0
  2  3  1  0
  3  4  2  0
  4  5  1  0
  5  6  1  0
  6  7  2  0
  7  8  1  0
  8  9  1  0
  9 10  1  0
 10 11  2  0
 11 12  1  0
 12 13  2  0
 13 14  1  0
 14 15  2  0
  9 16  1  0
 16 17  1  0
 17 18  2  0
 18 19  1  0
 19 20  2  0
  8 21  2  0
 21 22  1  0
  4 23  1  0
 23 24  2  0
 24  1  1  0
 22  5  2  0
 15 10  1  0
 20 16  1  0
  1 25  1  0
  2 26  1  0
  3 27  1  0
  6 28  1  0
  7 29  1  0
  9 30  1  0
 11 31  1  0
 12 32  1  0
 13 33  1  0
 14 34  1  0
 15 35  1  0
 17 36  1  0
 18 37  1  0
 20 38  1  0
 21 39  1  0
 22 40  1  0
 23 41  1  0
 24 42  1  0
M  END
$$$$
OCNT-2328450
     RDKit          3D

 57 60  0  0  0  0  0  0  0  0999 V2000
    5.6583    0.7144    3.0595 C   0  0  0  0  0  0  0  0  0  0  0  0
    4.5147    0.4423    2.1401 C   0  0  0  0  0  0  0  0  0  0  0  0
    3.1780    0.3795    2.4769 C   0  0  0  0  0  0  0  0  0  0  0  0
    2.4303    0.2223    1.2915 C   0  0  0  0  0  0  0  0  0  0  0  0
    1.0042    0.1385    1.2636 C   0  0  0  0  0  0  0  0  0  0  0  0
    0.2075    0.5178    0.2511 C   0  0  0  0  0  0  0  0  0  0  0  0
   -1.2544    0.4454    0.3384 C   0  0  0  0  0  0  0  0  0  0  0  0
   -1.9680   -0.4250   -0.4322 N   0  0  0  0  0  0  0  0  0  0  0  0
   -1.2663   -1.3916   -1.3104 C   0  0  0  0  0  0  0  0  0  0  0  0
   -3.3416   -0.4346   -0.3895 C   0  0  0  0  0  0  0  0  0  0  0  0
   -4.0198    0.4421    0.4876 C   0  0  0  0  0  0  0  0  0  0  0  0
   -3.2891    1.3150    1.2873 C   0  0  0  0  0  0  0  0  0  0  0  0
   -1.9084    1.3212    1.2067 C   0  0  0  0  0  0  0  0  0  0  0  0
   -5.4286    0.4388    0.5480 C   0  0  0  0  0  0  0  0  0  0  0  0
   -6.2265   -0.4109   -0.2357 C   0  0  0  0  0  0  0  0  0  0  0  0
   -7.6169   -0.3828   -0.1805 N   0  0  0  0  0  0  0  0  0  0  0  0
   -8.2968    0.3083    0.9175 C   0  0  0  0  0  0  0  0  0  0  0  0
   -8.4036   -1.4192   -0.8528 C   0  0  0  0  0  0  0  0  0  0  0  0
   -5.5316   -1.2570   -1.1095 C   0  0  0  0  0  0  0  0  0  0  0  0
   -4.1291   -1.2757   -1.1876 C   0  0  0  0  0  0  0  0  0  0  0  0
    3.3293    0.1181    0.2404 C   0  0  0  0  0  0  0  0  0  0  0  0
    3.0896   -0.2416   -1.1910 C   0  0  0  0  0  0  0  0  0  0  0  0
    4.6185    0.3099    0.7588 N   0  0  0  0  0  0  0  0  0  0  0  0
    5.8249    0.3667    0.0011 C   0  0  0  0  0  0  0  0  0  0  0  0
    6.9555   -0.3455    0.4183 C   0  0  0  0  0  0  0  0  0  0  0  0
    8.1332   -0.2838   -0.3294 C   0  0  0  0  0  0  0  0  0  0  0  0
    8.1875    0.4889   -1.4886 C   0  0  0  0  0  0  0  0  0  0  0  0
    7.0645    1.2020   -1.9053 C   0  0  0  0  0  0  0  0  0  0  0  0
    5.8824    1.1422   -1.1645 C   0  0  0  0  0  0  0  0  0  0  0  0
    6.1779   -0.2128    3.3176 H   0  0  0  0  0  0  0  0  0  0  0  0
    6.3698    1.4228    2.6249 H   0  0  0  0  0  0  0  0  0  0  0  0
    5.2979    1.1573    3.9947 H   0  0  0  0  0  0  0  0  0  0  0  0
    2.7935    0.4792    3.4853 H   0  0  0  0  0  0  0  0  0  0  0  0
    0.5480   -0.2239    2.1862 H   0  0  0  0  0  0  0  0  0  0  0  0
    0.6116    0.9311   -0.6681 H   0  0  0  0  0  0  0  0  0  0  0  0
   -1.4753   -1.1122   -2.3465 H   0  0  0  0  0  0  0  0  0  0  0  0
   -1.6355   -2.3948   -1.0794 H   0  0  0  0  0  0  0  0  0  0  0  0
   -0.1900   -1.3961   -1.1476 H   0  0  0  0  0  0  0  0  0  0  0  0
   -3.7867    2.0052    1.9683 H   0  0  0  0  0  0  0  0  0  0  0  0
   -1.3423    2.0228    1.8188 H   0  0  0  0  0  0  0  0  0  0  0  0
   -5.9070    1.1378    1.2318 H   0  0  0  0  0  0  0  0  0  0  0  0
   -9.3863    0.2339    0.8283 H   0  0  0  0  0  0  0  0  0  0  0  0
   -8.0152   -0.1235    1.8842 H   0  0  0  0  0  0  0  0  0  0  0  0
   -8.0656    1.3789    0.9116 H   0  0  0  0  0  0  0  0  0  0  0  0
   -8.2117   -1.4219   -1.9313 H   0  0  0  0  0  0  0  0  0  0  0  0
   -8.1819   -2.4083   -0.4373 H   0  0  0  0  0  0  0  0  0  0  0  0
   -9.4795   -1.2457   -0.7387 H   0  0  0  0  0  0  0  0  0  0  0  0
   -6.0708   -1.9345   -1.7685 H   0  0  0  0  0  0  0  0  0  0  0  0
   -3.6994   -1.9686   -1.9051 H   0  0  0  0  0  0  0  0  0  0  0  0
    2.9140    0.6568   -1.7899 H   0  0  0  0  0  0  0  0  0  0  0  0
    2.2138   -0.8905   -1.2867 H   0  0  0  0  0  0  0  0  0  0  0  0
    3.9238   -0.8024   -1.6230 H   0  0  0  0  0  0  0  0  0  0  0  0
    6.9312   -0.9852    1.2958 H   0  0  0  0  0  0  0  0  0  0  0  0
    9.0094   -0.8436   -0.0104 H   0  0  0  0  0  0  0  0  0  0  0  0
    9.1080    0.5377   -2.0657 H   0  0  0  0  0  0  0  0  0  0  0  0
    7.1154    1.8144   -2.8022 H   0  0  0  0  0  0  0  0  0  0  0  0
    5.0349    1.7403   -1.4871 H   0  0  0  0  0  0  0  0  0  0  0  0
  1  2  1  0
  2  3  2  0
  3  4  1  0
  4  5  1  0
  5  6  2  0
  6  7  1  0
  7  8  2  0
  8  9  1  0
  8 10  1  0
 10 11  1  0
 11 12  1  0
 12 13  2  0
 11 14  2  0
 14 15  1  0
 15 16  1  0
 16 17  1  0
 16 18  1  0
 15 19  2  0
 19 20  1  0
  4 21  2  0
 21 22  1  0
 21 23  1  0
 23 24  1  0
 24 25  2  0
 25 26  1  0
 26 27  2  0
 27 28  1  0
 28 29  2  0
 23  2  1  0
 29 24  1  0
 13  7  1  0
 20 10  2  0
  1 30  1  0
  1 31  1  0
  1 32  1  0
  3 33  1  0
  5 34  1  0
  6 35  1  0
  9 36  1  0
  9 37  1  0
  9 38  1  0
 12 39  1  0
 13 40  1  0
 14 41  1  0
 17 42  1  0
 17 43  1  0
 17 44  1  0
 18 45  1  0
 18 46  1  0
 18 47  1  0
 19 48  1  0
 20 49  1  0
 22 50  1  0
 22 51  1  0
 22 52  1  0
 25 53  1  0
 26 54  1  0
 27 55  1  0
 28 56  1  0
 29 57  1  0
M  CHG  1   8   1
M  END
$$$$
OCNT-2328456
     RDKit          3D

 20 20  0  0  0  0  0  0  0  0999 V2000
    3.2368    0.2194    0.7197 N   0  0  0  0  0  0  0  0  0  0  0  0
    2.2900   -0.7622    0.6531 C   0  0  0  0  0  0  0  0  0  0  0  0
    2.5759   -1.9316    0.8704 O   0  0  0  0  0  0  0  0  0  0  0  0
    0.9061   -0.3699    0.2780 C   0  0  0  0  0  0  0  0  0  0  0  0
    0.4323    0.9362    0.4527 C   0  0  0  0  0  0  0  0  0  0  0  0
   -0.8892    1.2471    0.0951 C   0  0  0  0  0  0  0  0  0  0  0  0
   -1.3784    2.6211    0.2735 N   0  0  0  0  0  0  0  0  0  0  0  0
   -2.5838    2.8296    0.0888 O   0  0  0  0  0  0  0  0  0  0  0  0
   -0.5497    3.4846    0.5918 O   0  0  0  0  0  0  0  0  0  0  0  0
   -1.7461    0.2696   -0.4271 C   0  0  0  0  0  0  0  0  0  0  0  0
   -1.2625   -1.0357   -0.5850 C   0  0  0  0  0  0  0  0  0  0  0  0
   -2.1464   -2.0757   -1.1289 N   0  0  0  0  0  0  0  0  0  0  0  0
   -3.3363   -1.7802   -1.3006 O   0  0  0  0  0  0  0  0  0  0  0  0
   -1.6471   -3.1779   -1.3875 O   0  0  0  0  0  0  0  0  0  0  0  0
    0.0549   -1.3607   -0.2332 C   0  0  0  0  0  0  0  0  0  0  0  0
    4.1875   -0.0935    0.8808 H   0  0  0  0  0  0  0  0  0  0  0  0
    3.1225    1.1407    0.3226 H   0  0  0  0  0  0  0  0  0  0  0  0
    1.0738    1.6986    0.8891 H   0  0  0  0  0  0  0  0  0  0  0  0
   -2.7703    0.5190   -0.7030 H   0  0  0  0  0  0  0  0  0  0  0  0
    0.4301   -2.3784   -0.3502 H   0  0  0  0  0  0  0  0  0  0  0  0
  1  2  1  0
  2  3  2  0
  2  4  1  0
  4  5  2  0
  5  6  1  0
  6  7  1  0
  7  8  2  0
  7  9  1  0
  6 10  2  0
 10 11  1  0
 11 12  1  0
 12 13  2  0
 12 14  1  0
 11 15  2  0
 15  4  1  0
  1 16  1  0
  1 17  1  0
  5 18  1  0
 10 19  1  0
 15 20  1  0
M  CHG  4   7   1   9  -1  12   1  14  -1
M  END
$$$$
OCNT-2328469
     RDKit          3D

 58 60  0  0  0  0  0  0  0  0999 V2000
    6.3081   -1.0104    1.3161 C   0  0  0  0  0  0  0  0  0  0  0  0
    5.5637   -1.1118    0.0633 N   0  0  0  0  0  0  0  0  0  0  0  0
    6.3539   -1.0607   -1.1643 C   0  0  0  0  0  0  0  0  0  0  0  0
    4.2013   -0.8147    0.0313 C   0  0  0  0  0  0  0  0  0  0  0  0
    3.4470   -0.6374    1.2052 C   0  0  0  0  0  0  0  0  0  0  0  0
    2.0727   -0.3576    1.1809 C   0  0  0  0  0  0  0  0  0  0  0  0
    1.3981   -0.2477   -0.0339 C   0  0  0  0  0  0  0  0  0  0  0  0
   -0.0570    0.0523   -0.0677 C   0  0  0  0  0  0  0  0  0  0  0  0
   -1.0155   -1.0832   -0.0376 C   0  0  0  0  0  0  0  0  0  0  0  0
   -1.5008   -1.5711    1.1746 C   0  0  0  0  0  0  0  0  0  0  0  0
   -2.4221   -2.6283    1.1945 C   0  0  0  0  0  0  0  0  0  0  0  0
   -2.8841   -3.2485    0.0190 C   0  0  0  0  0  0  0  0  0  0  0  0
   -3.8236   -4.2873    0.0483 N   0  0  0  0  0  0  0  0  0  0  0  0
   -4.0629   -5.0604   -1.1714 C   0  0  0  0  0  0  0  0  0  0  0  0
   -4.0089   -5.0293    1.2971 C   0  0  0  0  0  0  0  0  0  0  0  0
   -2.3791   -2.7282   -1.1866 C   0  0  0  0  0  0  0  0  0  0  0  0
   -1.4566   -1.6721   -1.2215 C   0  0  0  0  0  0  0  0  0  0  0  0
   -0.5052    1.3421   -0.1245 C   0  0  0  0  0  0  0  0  0  0  0  0
    0.4182    2.4795   -0.1525 C   0  0  0  0  0  0  0  0  0  0  0  0
   -0.0022    3.7512   -0.2095 C   0  0  0  0  0  0  0  0  0  0  0  0
   -1.4627    4.0913   -0.2462 C   0  0  0  0  0  0  0  0  0  0  0  0
   -1.8912    5.3211   -0.3015 N   0  0  0  0  0  0  0  0  0  0  0  0
   -0.9660    6.4891   -0.4430 C   0  0  0  0  0  0  0  0  0  0  0  0
   -3.3454    5.6691   -0.2282 C   0  0  0  0  0  0  0  0  0  0  0  0
   -2.3958    2.9180   -0.2149 C   0  0  0  0  0  0  0  0  0  0  0  0
   -1.9354    1.6604   -0.1600 C   0  0  0  0  0  0  0  0  0  0  0  0
    2.1130   -0.4344   -1.2161 C   0  0  0  0  0  0  0  0  0  0  0  0
    3.4871   -0.7135   -1.1762 C   0  0  0  0  0  0  0  0  0  0  0  0
    7.3590   -1.2912    1.1844 H   0  0  0  0  0  0  0  0  0  0  0  0
    6.2877    0.0150    1.7010 H   0  0  0  0  0  0  0  0  0  0  0  0
    5.9051   -1.6939    2.0713 H   0  0  0  0  0  0  0  0  0  0  0  0
    5.9878   -1.7854   -1.8996 H   0  0  0  0  0  0  0  0  0  0  0  0
    7.4025   -1.3200   -0.9801 H   0  0  0  0  0  0  0  0  0  0  0  0
    6.3361   -0.0553   -1.5991 H   0  0  0  0  0  0  0  0  0  0  0  0
    3.9115   -0.7241    2.1830 H   0  0  0  0  0  0  0  0  0  0  0  0
    1.5420   -0.2383    2.1218 H   0  0  0  0  0  0  0  0  0  0  0  0
   -1.1740   -1.1383    2.1166 H   0  0  0  0  0  0  0  0  0  0  0  0
   -2.7708   -2.9536    2.1702 H   0  0  0  0  0  0  0  0  0  0  0  0
   -4.8237   -5.8323   -1.0083 H   0  0  0  0  0  0  0  0  0  0  0  0
   -4.4515   -4.4239   -1.9738 H   0  0  0  0  0  0  0  0  0  0  0  0
   -3.1481   -5.5617   -1.5069 H   0  0  0  0  0  0  0  0  0  0  0  0
   -4.4042   -4.3828    2.0879 H   0  0  0  0  0  0  0  0  0  0  0  0
   -4.7424   -5.8345    1.1757 H   0  0  0  0  0  0  0  0  0  0  0  0
   -3.0690   -5.4856    1.6275 H   0  0  0  0  0  0  0  0  0  0  0  0
   -2.6877   -3.1376   -2.1438 H   0  0  0  0  0  0  0  0  0  0  0  0
   -1.0929   -1.3211   -2.1836 H   0  0  0  0  0  0  0  0  0  0  0  0
    1.4899    2.2944   -0.1211 H   0  0  0  0  0  0  0  0  0  0  0  0
    0.7466    4.5353   -0.2132 H   0  0  0  0  0  0  0  0  0  0  0  0
   -1.5370    7.3830   -0.7080 H   0  0  0  0  0  0  0  0  0  0  0  0
   -0.4583    6.6402    0.5129 H   0  0  0  0  0  0  0  0  0  0  0  0
   -0.2566    6.2864   -1.2499 H   0  0  0  0  0  0  0  0  0  0  0  0
   -3.8110    5.3919   -1.1773 H   0  0  0  0  0  0  0  0  0  0  0  0
   -3.7969    5.1380    0.6142 H   0  0  0  0  0  0  0  0  0  0  0  0
   -3.4603    6.7426   -0.0556 H   0  0  0  0  0  0  0  0  0  0  0  0
   -3.4694    3.0654   -0.2515 H   0  0  0  0  0  0  0  0  0  0  0  0
   -2.6613    0.8498   -0.1462 H   0  0  0  0  0  0  0  0  0  0  0  0
    1.6142   -0.3764   -2.1800 H   0  0  0  0  0  0  0  0  0  0  0  0
    3.9841   -0.8635   -2.1302 H   0  0  0  0  0  0  0  0  0  0  0  0
  1  2  1  0
  2  3  1  0
  2  4  1  0
  4  5  1  0
  5  6  2  0
  6  7  1  0
  7  8  1  0
  8  9  1  0
  9 10  1  0
 10 11  2  0
 11 12  1  0
 12 13  1  0
 13 14  1  0
 13 15  1  0
 12 16  2  0
 16 17  1  0
  8 18  2  3
 18 19  1  0
 19 20  2  0
 20 21  1  0
 21 22  2  3
 22 23  1  0
 22 24  1  0
 21 25  1  0
 25 26  2  0
  7 27  2  0
 27 28  1  0
 28  4  2  0
 17  9  2  0
 26 18  1  0
  1 29  1  0
  1 30  1  0
  1 31  1  0
  3 32  1  0
  3 33  1  0
  3 34  1  0
  5 35  1  0
  6 36  1  0
 10 37  1  0
 11 38  1  0
 14 39  1  0
 14 40  1  0
 14 41  1  0
 15 42  1  0
 15 43  1  0
 15 44  1  0
 16 45  1  0
 17 46  1  0
 19 47  1  0
 20 48  1  0
 23 49  1  0
 23 50  1  0
 23 51  1  0
 24 52  1  0
 24 53  1  0
 24 54  1  0
 25 55  1  0
 26 56  1  0
 27 57  1  0
 28 58  1  0
M  CHG  1  22   1
M  END
$$$$
OCNT-2328472
     RDKit          3D

 83 85  0  0  0  0  0  0  0  0999 V2000
   -5.4930    2.0732    2.8616 C   0  0  0  0  0  0  0  0  0  0  0  0
   -5.8451    3.5402    2.6679 C   0  0  0  0  0  0  0  0  0  0  0  0
   -5.2575    4.1680    1.3985 C   0  0  0  0  0  0  0  0  0  0  0  0
   -6.0324    3.8825    0.1083 C   0  0  0  0  0  0  0  0  0  0  0  0
   -5.8886    2.4903   -0.3945 C   0  0  0  0  0  0  0  0  0  0  0  0
   -4.8245    1.7487   -0.8875 C   0  0  0  0  0  0  0  0  0  0  0  0
   -3.4682    2.2562   -1.0232 C   0  0  0  0  0  0  0  0  0  0  0  0
   -3.2346    3.4174   -1.3473 O   0  0  0  0  0  0  0  0  0  0  0  0
   -2.3210    1.3498   -0.7474 C   0  0  0  0  0  0  0  0  0  0  0  0
   -2.3796    0.3630    0.2426 C   0  0  0  0  0  0  0  0  0  0  0  0
   -1.2761   -0.4643    0.4639 C   0  0  0  0  0  0  0  0  0  0  0  0
   -0.0975   -0.2984   -0.2689 C   0  0  0  0  0  0  0  0  0  0  0  0
    0.8986   -1.1743    0.0544 O   0  0  0  0  0  0  0  0  0  0  0  0
    2.2455   -0.8440   -0.3027 C   0  0  0  0  0  0  0  0  0  0  0  0
    2.8283    0.1687    0.6827 C   0  0  0  0  0  0  0  0  0  0  0  0
    4.2406    0.6241    0.3062 C   0  0  0  0  0  0  0  0  0  0  0  0
    5.2455   -0.4493    0.3102 N   0  0  0  0  0  0  0  0  0  0  0  0
    6.4597   -0.0672   -0.4358 C   0  0  0  0  0  0  0  0  0  0  0  0
    7.2086    1.1773    0.0701 C   0  0  0  0  0  0  0  0  0  0  0  0
    8.4729    1.4268   -0.7555 C   0  0  0  0  0  0  0  0  0  0  0  0
    9.2267    2.6532   -0.2675 C   0  0  0  0  0  0  0  0  0  0  0  0
    5.5584   -0.9428    1.6601 C   0  0  0  0  0  0  0  0  0  0  0  0
    5.0438   -2.3688    1.9106 C   0  0  0  0  0  0  0  0  0  0  0  0
    5.7644   -3.4601    1.1113 C   0  0  0  0  0  0  0  0  0  0  0  0
    5.1983   -3.6923   -0.2815 C   0  0  0  0  0  0  0  0  0  0  0  0
   -0.0325    0.6985   -1.2413 C   0  0  0  0  0  0  0  0  0  0  0  0
   -1.1387    1.5238   -1.4759 C   0  0  0  0  0  0  0  0  0  0  0  0
   -5.3666    0.4630   -1.2226 C   0  0  0  0  0  0  0  0  0  0  0  0
   -6.7094    0.5154   -0.8695 C   0  0  0  0  0  0  0  0  0  0  0  0
   -7.6007   -0.5446   -1.0074 C   0  0  0  0  0  0  0  0  0  0  0  0
   -7.0855   -1.7304   -1.5399 C   0  0  0  0  0  0  0  0  0  0  0  0
   -5.7473   -1.8272   -1.9244 C   0  0  0  0  0  0  0  0  0  0  0  0
   -5.2263   -3.0472   -2.4416 N   0  0  0  0  0  0  0  0  0  0  0  0
   -5.1599   -4.4091   -1.4480 S   0  0  0  0  0  0  0  0  0  0  0  0
   -4.0406   -3.8869   -0.1616 C   0  0  0  0  0  0  0  0  0  0  0  0
   -4.4806   -5.4256   -2.2224 O   0  0  0  0  0  0  0  0  0  0  0  0
   -6.4605   -4.6529   -0.8651 O   0  0  0  0  0  0  0  0  0  0  0  0
   -4.8770   -0.7355   -1.7875 C   0  0  0  0  0  0  0  0  0  0  0  0
   -7.0244    1.7389   -0.3754 O   0  0  0  0  0  0  0  0  0  0  0  0
   -6.0138    1.4324    2.1456 H   0  0  0  0  0  0  0  0  0  0  0  0
   -5.7936    1.7477    3.8623 H   0  0  0  0  0  0  0  0  0  0  0  0
   -4.4148    1.9063    2.7631 H   0  0  0  0  0  0  0  0  0  0  0  0
   -6.9334    3.6669    2.6897 H   0  0  0  0  0  0  0  0  0  0  0  0
   -5.4483    4.0921    3.5290 H   0  0  0  0  0  0  0  0  0  0  0  0
   -5.2723    5.2562    1.5423 H   0  0  0  0  0  0  0  0  0  0  0  0
   -4.2034    3.8877    1.2964 H   0  0  0  0  0  0  0  0  0  0  0  0
   -7.0925    4.1199    0.2586 H   0  0  0  0  0  0  0  0  0  0  0  0
   -5.6777    4.5662   -0.6725 H   0  0  0  0  0  0  0  0  0  0  0  0
   -3.2654    0.2314    0.8587 H   0  0  0  0  0  0  0  0  0  0  0  0
   -1.3232   -1.2327    1.2326 H   0  0  0  0  0  0  0  0  0  0  0  0
    2.8092   -1.7796   -0.2402 H   0  0  0  0  0  0  0  0  0  0  0  0
    2.3302   -0.5213   -1.3452 H   0  0  0  0  0  0  0  0  0  0  0  0
    2.1839    1.0560    0.7225 H   0  0  0  0  0  0  0  0  0  0  0  0
    2.8010   -0.2463    1.6984 H   0  0  0  0  0  0  0  0  0  0  0  0
    4.5387    1.4374    0.9816 H   0  0  0  0  0  0  0  0  0  0  0  0
    4.1798    1.0637   -0.6993 H   0  0  0  0  0  0  0  0  0  0  0  0
    6.1802    0.0902   -1.4860 H   0  0  0  0  0  0  0  0  0  0  0  0
    7.1464   -0.9246   -0.4521 H   0  0  0  0  0  0  0  0  0  0  0  0
    6.5639    2.0608    0.0021 H   0  0  0  0  0  0  0  0  0  0  0  0
    7.4832    1.0575    1.1241 H   0  0  0  0  0  0  0  0  0  0  0  0
    9.1329    0.5533   -0.6987 H   0  0  0  0  0  0  0  0  0  0  0  0
    8.2081    1.5643   -1.8107 H   0  0  0  0  0  0  0  0  0  0  0  0
   10.1241    2.8120   -0.8736 H   0  0  0  0  0  0  0  0  0  0  0  0
    9.5387    2.5328    0.7742 H   0  0  0  0  0  0  0  0  0  0  0  0
    8.6048    3.5504   -0.3394 H   0  0  0  0  0  0  0  0  0  0  0  0
    6.6402   -0.9497    1.8466 H   0  0  0  0  0  0  0  0  0  0  0  0
    5.1432   -0.2786    2.4304 H   0  0  0  0  0  0  0  0  0  0  0  0
    3.9620   -2.4307    1.7542 H   0  0  0  0  0  0  0  0  0  0  0  0
    5.2067   -2.5805    2.9751 H   0  0  0  0  0  0  0  0  0  0  0  0
    6.8357   -3.2397    1.0447 H   0  0  0  0  0  0  0  0  0  0  0  0
    5.6739   -4.4038    1.6640 H   0  0  0  0  0  0  0  0  0  0  0  0
    5.2816   -2.8075   -0.9161 H   0  0  0  0  0  0  0  0  0  0  0  0
    4.1449   -3.9835   -0.2280 H   0  0  0  0  0  0  0  0  0  0  0  0
    5.7453   -4.5026   -0.7729 H   0  0  0  0  0  0  0  0  0  0  0  0
    0.8571    0.8640   -1.8393 H   0  0  0  0  0  0  0  0  0  0  0  0
   -1.0723    2.3045   -2.2328 H   0  0  0  0  0  0  0  0  0  0  0  0
   -8.6399   -0.4510   -0.7157 H   0  0  0  0  0  0  0  0  0  0  0  0
   -7.7541   -2.5804   -1.6647 H   0  0  0  0  0  0  0  0  0  0  0  0
   -4.4326   -2.9913   -3.0796 H   0  0  0  0  0  0  0  0  0  0  0  0
   -3.1035   -3.5619   -0.6175 H   0  0  0  0  0  0  0  0  0  0  0  0
   -3.8571   -4.7483    0.4865 H   0  0  0  0  0  0  0  0  0  0  0  0
   -4.5002   -3.0832    0.4163 H   0  0  0  0  0  0  0  0  0  0  0  0
   -3.8408   -0.8149   -2.0990 H   0  0  0  0  0  0  0  0  0  0  0  0
  1  2  1  0
  2  3  1  0
  3  4  1  0
  4  5  1  0
  5  6  2  0
  6  7  1  0
  7  8  2  0
  7  9  1  0
  9 10  1  0
 10 11  2  0
 11 12  1  0
 12 13  1  0
 13 14  1  0
 14 15  1  0
 15 16  1  0
 16 17  1  0
 17 18  1  0
 18 19  1  0
 19 20  1  0
 20 21  1  0
 17 22  1  0
 22 23  1  0
 23 24  1  0
 24 25  1  0
 12 26  2  0
 26 27  1  0
  6 28  1  0
 28 29  1  0
 29 30  2  0
 30 31  1  0
 31 32  2  0
 32 33  1  0
 33 34  1  0
 34 35  1  0
 34 36  2  0
 34 37  2  0
 32 38  1  0
 29 39  1  0
 39  5  1  0
 27  9  2  0
 38 28  2  0
  1 40  1  0
  1 41  1  0
  1 42  1  0
  2 43  1  0
  2 44  1  0
  3 45  1  0
  3 46  1  0
  4 47  1  0
  4 48  1  0
 10 49  1  0
 11 50  1  0
 14 51  1  0
 14 52  1  0
 15 53  1  0
 15 54  1  0
 16 55  1  0
 16 56  1  0
 18 57  1  0
 18 58  1  0
 19 59  1  0
 19 60  1  0
 20 61  1  0
 20 62  1  0
 21 63  1  0
 21 64  1  0
 21 65  1  0
 22 66  1  0
 22 67  1  0
 23 68  1  0
 23 69  1  0
 24 70  1  0
 24 71  1  0
 25 72  1  0
 25 73  1  0
 25 74  1  0
 26 75  1  0
 27 76  1  0
 30 77  1  0
 31 78  1  0
 33 79  1  0
 35 80  1  0
 35 81  1  0
 35 82  1  0
 38 83  1  0
M  END
$$$$
OCNT-2328475
     RDKit          3D

 30 31  0  0  0  0  0  0  0  0999 V2000
    4.9673    0.3237    1.2075 N   0  0  0  0  0  0  0  0  0  0  0  0
    3.7071    0.1022    0.7258 C   0  0  0  0  0  0  0  0  0  0  0  0
    2.7241    0.2586    1.5538 N   0  0  0  0  0  0  0  0  0  0  0  0
    1.4306    0.0641    1.1320 C   0  0  0  0  0  0  0  0  0  0  0  0
    0.4950    0.2686    1.9006 O   0  0  0  0  0  0  0  0  0  0  0  0
    1.2137   -0.3910   -0.1710 N   0  0  0  0  0  0  0  0  0  0  0  0
   -0.1470   -0.5768   -0.6662 C   0  0  2  0  0  0  0  0  0  0  0  0
   -0.6921    0.7064   -1.0283 O   0  0  0  0  0  0  0  0  0  0  0  0
   -2.0863    0.6675   -0.6901 C   0  0  2  0  0  0  0  0  0  0  0  0
   -2.6511    2.0668   -0.4588 C   0  0  0  0  0  0  0  0  0  0  0  0
   -4.0612    2.0373   -0.2569 O   0  0  0  0  0  0  0  0  0  0  0  0
   -2.1845   -0.2095    0.5530 C   0  0  1  0  0  0  0  0  0  0  0  0
   -3.5027   -0.7189    0.7436 O   0  0  0  0  0  0  0  0  0  0  0  0
   -1.1622   -1.2980    0.2564 C   0  0  1  0  0  0  0  0  0  0  0  0
   -1.8403   -2.3644   -0.4490 O   0  0  0  0  0  0  0  0  0  0  0  0
    2.2641   -0.5191   -1.0573 C   0  0  0  0  0  0  0  0  0  0  0  0
    3.5207   -0.2887   -0.6827 C   0  0  0  0  0  0  0  0  0  0  0  0
    5.6330    0.7391    0.5676 H   0  0  0  0  0  0  0  0  0  0  0  0
    4.9462    0.7948    2.1080 H   0  0  0  0  0  0  0  0  0  0  0  0
   -0.0841   -1.1533   -1.5990 H   0  0  0  0  0  0  0  0  0  0  0  0
   -2.6342    0.2028   -1.5212 H   0  0  0  0  0  0  0  0  0  0  0  0
   -2.4436    2.7055   -1.3237 H   0  0  0  0  0  0  0  0  0  0  0  0
   -2.1797    2.5467    0.4058 H   0  0  0  0  0  0  0  0  0  0  0  0
   -4.2551    1.3043    0.3625 H   0  0  0  0  0  0  0  0  0  0  0  0
   -1.9022    0.3572    1.4452 H   0  0  0  0  0  0  0  0  0  0  0  0
   -3.5176   -1.5727    0.2603 H   0  0  0  0  0  0  0  0  0  0  0  0
   -0.7371   -1.7475    1.1577 H   0  0  0  0  0  0  0  0  0  0  0  0
   -1.2242   -3.1199   -0.4763 H   0  0  0  0  0  0  0  0  0  0  0  0
    2.0329   -0.8048   -2.0792 H   0  0  0  0  0  0  0  0  0  0  0  0
    4.3704   -0.3812   -1.3427 H   0  0  0  0  0  0  0  0  0  0  0  0
  1  2  1  0
  2  3  2  0
  3  4  1  0
  4  5  2  0
  4  6  1  0
  6  7  1  0
  7  8  1  0
  8  9  1  0
  9 10  1  0
 10 11  1  0
  9 12  1  0
 12 13  1  0
 12 14  1  0
 14 15  1  0
  6 16  1  0
 16 17  2  0
 17  2  1  0
 14  7  1  0
  1 18  1  0
  1 19  1  0
  7 20  1  6
  9 21  1  6
 10 22  1  0
 10 23  1  0
 11 24  1  0
 12 25  1  1
 13 26  1  0
 14 27  1  1
 15 28  1  0
 16 29  1  0
 17 30  1  0
M  END
$$$$
OCNT-2328485
     RDKit          3D

 39 41  0  0  0  0  0  0  0  0999 V2000
    4.4147   -2.1095    0.9601 C   0  0  0  0  0  0  0  0  0  0  0  0
    3.5869   -1.2348    1.6606 C   0  0  0  0  0  0  0  0  0  0  0  0
    2.6433   -0.4678    0.9760 C   0  0  0  0  0  0  0  0  0  0  0  0
    2.5100   -0.5741   -0.4171 C   0  0  0  0  0  0  0  0  0  0  0  0
    1.5044    0.2760   -1.1675 C   0  0  0  0  0  0  0  0  0  0  0  0
    0.1606    0.1965   -0.5535 N   0  0  0  0  0  0  0  0  0  0  0  0
   -0.5130   -1.1124   -0.7777 C   0  0  0  0  0  0  0  0  0  0  0  0
   -1.6486   -1.3162    0.2185 C   0  0  0  0  0  0  0  0  0  0  0  0
   -2.7868   -1.8705   -0.1246 N   0  0  0  0  0  0  0  0  0  0  0  0
   -3.5942   -1.8072    1.1302 C   0  0  0  0  0  0  0  0  0  0  0  0
   -2.8656   -0.8351    2.0656 C   0  0  0  0  0  0  0  0  0  0  0  0
   -1.5312   -0.8887    1.5243 N   0  0  0  0  0  0  0  0  0  0  0  0
   -0.5899    1.3741   -0.7479 C   0  0  0  0  0  0  0  0  0  0  0  0
   -0.1386    2.5733   -0.1656 C   0  0  0  0  0  0  0  0  0  0  0  0
   -0.8469    3.7709   -0.3017 C   0  0  0  0  0  0  0  0  0  0  0  0
   -2.0353    3.7951   -1.0218 C   0  0  0  0  0  0  0  0  0  0  0  0
   -2.5118    2.6221   -1.5975 C   0  0  0  0  0  0  0  0  0  0  0  0
   -1.7978    1.4256   -1.4579 C   0  0  0  0  0  0  0  0  0  0  0  0
    3.3564   -1.4513   -1.1112 C   0  0  0  0  0  0  0  0  0  0  0  0
    4.3009   -2.2170   -0.4247 C   0  0  0  0  0  0  0  0  0  0  0  0
    5.1485   -2.7076    1.4937 H   0  0  0  0  0  0  0  0  0  0  0  0
    3.6734   -1.1507    2.7406 H   0  0  0  0  0  0  0  0  0  0  0  0
    1.9988    0.2092    1.5324 H   0  0  0  0  0  0  0  0  0  0  0  0
    1.9084    1.2963   -1.1824 H   0  0  0  0  0  0  0  0  0  0  0  0
    1.4381   -0.0443   -2.2159 H   0  0  0  0  0  0  0  0  0  0  0  0
   -0.8728   -1.2162   -1.8072 H   0  0  0  0  0  0  0  0  0  0  0  0
    0.1884   -1.9355   -0.5982 H   0  0  0  0  0  0  0  0  0  0  0  0
   -4.6109   -1.4643    0.9153 H   0  0  0  0  0  0  0  0  0  0  0  0
   -3.6473   -2.8113    1.5658 H   0  0  0  0  0  0  0  0  0  0  0  0
   -3.2732    0.1770    1.9706 H   0  0  0  0  0  0  0  0  0  0  0  0
   -2.9076   -1.1496    3.1115 H   0  0  0  0  0  0  0  0  0  0  0  0
   -0.9501   -0.0560    1.6037 H   0  0  0  0  0  0  0  0  0  0  0  0
    0.7751    2.5769    0.4246 H   0  0  0  0  0  0  0  0  0  0  0  0
   -0.4701    4.6791    0.1606 H   0  0  0  0  0  0  0  0  0  0  0  0
   -2.5911    4.7222   -1.1307 H   0  0  0  0  0  0  0  0  0  0  0  0
   -3.4430    2.6301   -2.1582 H   0  0  0  0  0  0  0  0  0  0  0  0
   -2.2155    0.5406   -1.9296 H   0  0  0  0  0  0  0  0  0  0  0  0
    3.2846   -1.5470   -2.1923 H   0  0  0  0  0  0  0  0  0  0  0  0
    4.9485   -2.8981   -0.9707 H   0  0  0  0  0  0  0  0  0  0  0  0
  1  2  2  0
  2  3  1  0
  3  4  2  0
  4  5  1  0
  5  6  1  0
  6  7  1  0
  7  8  1  0
  8  9  2  0
  9 10  1  0
 10 11  1  0
 11 12  1  0
  6 13  1  0
 13 14  2  0
 14 15  1  0
 15 16  2  0
 16 17  1  0
 17 18  2  0
  4 19  1  0
 19 20  2  0
 20  1  1  0
 12  8  1  0
 18 13  1  0
  1 21  1  0
  2 22  1  0
  3 23  1  0
  5 24  1  0
  5 25  1  0
  7 26  1  0
  7 27  1  0
 10 28  1  0
 10 29  1  0
 11 30  1  0
 11 31  1  0
 12 32  1  0
 14 33  1  0
 15 34  1  0
 16 35  1  0
 17 36  1  0
 18 37  1  0
 19 38  1  0
 20 39  1  0
M  END
$$$$
OCNT-2328488
     RDKit          3D

 36 38  0  0  0  0  0  0  0  0999 V2000
   -4.9071   -3.6310   -0.7564 Cl  0  0  0  0  0  0  0  0  0  0  0  0
   -3.6680   -2.4518   -0.5783 C   0  0  0  0  0  0  0  0  0  0  0  0
   -3.2237   -1.7446   -1.6898 C   0  0  0  0  0  0  0  0  0  0  0  0
   -2.2171   -0.7873   -1.5459 C   0  0  0  0  0  0  0  0  0  0  0  0
   -1.6384   -0.5232   -0.2873 C   0  0  0  0  0  0  0  0  0  0  0  0
   -0.5360    0.5264   -0.2194 C   0  0  0  0  0  0  0  0  0  0  0  0
   -0.9911    1.7788    0.5503 C   0  0  0  0  0  0  0  0  0  0  0  0
   -0.2033    2.9429    0.1750 N   0  0  0  0  0  0  0  0  0  0  0  0
    1.0107    3.3003    0.6899 C   0  0  0  0  0  0  0  0  0  0  0  0
    1.3587    4.4442    0.0109 C   0  0  0  0  0  0  0  0  0  0  0  0
    0.3876    4.7857   -0.8957 N   0  0  0  0  0  0  0  0  0  0  0  0
   -0.5471    3.8720   -0.7641 C   0  0  0  0  0  0  0  0  0  0  0  0
    0.6306   -0.0150    0.4099 O   0  0  0  0  0  0  0  0  0  0  0  0
    1.4558   -0.7674   -0.4774 C   0  0  0  0  0  0  0  0  0  0  0  0
    2.4424   -1.5724    0.3035 C   0  0  0  0  0  0  0  0  0  0  0  0
    2.2452   -2.8520    0.7752 C   0  0  0  0  0  0  0  0  0  0  0  0
    0.8425   -3.8329    0.5806 Cl  0  0  0  0  0  0  0  0  0  0  0  0
    3.5634   -3.4828    1.6321 S   0  0  0  0  0  0  0  0  0  0  0  0
    4.4554   -2.0396    1.4129 C   0  0  0  0  0  0  0  0  0  0  0  0
    3.7451   -1.1031    0.6922 C   0  0  0  0  0  0  0  0  0  0  0  0
   -2.1110   -1.2484    0.8235 C   0  0  0  0  0  0  0  0  0  0  0  0
   -1.4998   -1.0115    2.4217 Cl  0  0  0  0  0  0  0  0  0  0  0  0
   -3.1186   -2.2080    0.6756 C   0  0  0  0  0  0  0  0  0  0  0  0
   -3.6530   -1.9354   -2.6707 H   0  0  0  0  0  0  0  0  0  0  0  0
   -1.8838   -0.2519   -2.4341 H   0  0  0  0  0  0  0  0  0  0  0  0
   -0.2641    0.8301   -1.2405 H   0  0  0  0  0  0  0  0  0  0  0  0
   -2.0376    2.0266    0.3353 H   0  0  0  0  0  0  0  0  0  0  0  0
   -0.8782    1.6691    1.6340 H   0  0  0  0  0  0  0  0  0  0  0  0
    1.5101    2.7300    1.4615 H   0  0  0  0  0  0  0  0  0  0  0  0
    2.2557    5.0390    0.1253 H   0  0  0  0  0  0  0  0  0  0  0  0
   -1.4746    3.8389   -1.3211 H   0  0  0  0  0  0  0  0  0  0  0  0
    1.9827   -0.0682   -1.1378 H   0  0  0  0  0  0  0  0  0  0  0  0
    0.8519   -1.4258   -1.1122 H   0  0  0  0  0  0  0  0  0  0  0  0
    5.4509   -1.9455    1.8251 H   0  0  0  0  0  0  0  0  0  0  0  0
    4.1356   -0.1196    0.4568 H   0  0  0  0  0  0  0  0  0  0  0  0
   -3.4715   -2.7668    1.5391 H   0  0  0  0  0  0  0  0  0  0  0  0
  1  2  1  0
  2  3  1  0
  3  4  2  0
  4  5  1  0
  5  6  1  0
  6  7  1  0
  7  8  1  0
  8  9  1  0
  9 10  2  0
 10 11  1  0
 11 12  2  0
  6 13  1  0
 13 14  1  0
 14 15  1  0
 15 16  2  0
 16 17  1  0
 16 18  1  0
 18 19  1  0
 19 20  2  0
  5 21  2  0
 21 22  1  0
 21 23  1  0
 23  2  2  0
 12  8  1  0
 20 15  1  0
  3 24  1  0
  4 25  1  0
  6 26  1  0
  7 27  1  0
  7 28  1  0
  9 29  1  0
 10 30  1  0
 12 31  1  0
 14 32  1  0
 14 33  1  0
 19 34  1  0
 20 35  1  0
 23 36  1  0
M  END
$$$$
OCNT-2328499
     RDKit          3D

 31 33  0  0  0  0  0  0  0  0999 V2000
    4.1494   -3.1310   -1.0583 O   0  0  0  0  0  0  0  0  0  0  0  0
    3.6824   -2.0036   -0.9339 C   0  0  0  0  0  0  0  0  0  0  0  0
    4.3150   -0.8871   -1.4634 N   0  0  0  0  0  0  0  0  0  0  0  0
    3.8185    0.3998   -1.3572 C   0  0  0  0  0  0  0  0  0  0  0  0
    2.7158    0.7329   -0.7559 N   0  0  0  0  0  0  0  0  0  0  0  0
    2.0781   -0.3347   -0.2179 C   0  0  0  0  0  0  0  0  0  0  0  0
    2.4508   -1.6608   -0.2521 C   0  0  0  0  0  0  0  0  0  0  0  0
    1.5379   -2.4537    0.3925 N   0  0  0  0  0  0  0  0  0  0  0  0
    0.6212   -1.6106    0.8281 C   0  0  0  0  0  0  0  0  0  0  0  0
    0.9010   -0.3132    0.4781 N   0  0  0  0  0  0  0  0  0  0  0  0
    0.1151    0.8757    0.7644 C   0  0  2  0  0  0  0  0  0  0  0  0
   -0.8637    0.5632    1.7912 O   0  0  0  0  0  0  0  0  0  0  0  0
   -2.1730    0.8198    1.2405 C   0  0  2  0  0  0  0  0  0  0  0  0
   -3.1923   -0.1596    1.8199 C   0  0  0  0  0  0  0  0  0  0  0  0
   -2.9825   -1.4740    1.3093 O   0  0  0  0  0  0  0  0  0  0  0  0
   -2.0112    0.7348   -0.2742 C   0  0  1  0  0  0  0  0  0  0  0  0
   -3.0201    1.4415   -0.9910 O   0  0  0  0  0  0  0  0  0  0  0  0
   -0.6540    1.3929   -0.4565 C   0  0  1  0  0  0  0  0  0  0  0  0
   -0.8158    2.8228   -0.4013 O   0  0  0  0  0  0  0  0  0  0  0  0
    5.1799   -1.0695   -1.9487 H   0  0  0  0  0  0  0  0  0  0  0  0
    4.4551    1.1564   -1.8434 H   0  0  0  0  0  0  0  0  0  0  0  0
   -0.2591   -1.8848    1.3968 H   0  0  0  0  0  0  0  0  0  0  0  0
    0.7966    1.6270    1.1786 H   0  0  0  0  0  0  0  0  0  0  0  0
   -2.4625    1.8325    1.5490 H   0  0  0  0  0  0  0  0  0  0  0  0
   -3.0981   -0.2019    2.9099 H   0  0  0  0  0  0  0  0  0  0  0  0
   -4.2101    0.1432    1.5559 H   0  0  0  0  0  0  0  0  0  0  0  0
   -3.4888   -2.0853    1.8740 H   0  0  0  0  0  0  0  0  0  0  0  0
   -1.9627   -0.2985   -0.6360 H   0  0  0  0  0  0  0  0  0  0  0  0
   -3.8039    0.8618   -1.0171 H   0  0  0  0  0  0  0  0  0  0  0  0
   -0.1947    1.1606   -1.4218 H   0  0  0  0  0  0  0  0  0  0  0  0
   -1.6243    3.0034   -0.9247 H   0  0  0  0  0  0  0  0  0  0  0  0
  1  2  2  0
  2  3  1  0
  3  4  1  0
  4  5  2  0
  5  6  1  0
  6  7  2  0
  7  8  1  0
  8  9  2  0
  9 10  1  0
 10 11  1  0
 11 12  1  0
 12 13  1  0
 13 14  1  0
 14 15  1  0
 13 16  1  0
 16 17  1  0
 16 18  1  0
 18 19  1  0
  7  2  1  0
 18 11  1  0
 10  6  1  0
  3 20  1  0
  4 21  1  0
  9 22  1  0
 11 23  1  1
 13 24  1  6
 14 25  1  0
 14 26  1  0
 15 27  1  0
 16 28  1  6
 17 29  1  0
 18 30  1  6
 19 31  1  0
M  END
$$$$
OCNT-2328509
     RDKit          3D

 34 37  0  0  0  0  0  0  0  0999 V2000
   -2.5446   -0.8566    1.8283 N   0  0  0  0  0  0  0  0  0  0  0  0
   -1.8140   -1.3960    0.8289 C   0  0  0  0  0  0  0  0  0  0  0  0
   -1.6571   -2.6935    0.7382 N   0  0  0  0  0  0  0  0  0  0  0  0
   -0.7823   -2.8306   -0.4646 C   0  0  0  0  0  0  0  0  0  0  0  0
   -0.1397   -1.4434   -0.7047 C   0  0  0  0  0  0  0  0  0  0  0  0
    1.2142   -1.1695   -0.0706 C   0  0  0  0  0  0  0  0  0  0  0  0
    1.8216    0.0732   -0.3508 C   0  0  0  0  0  0  0  0  0  0  0  0
    3.0548    0.3968    0.2367 C   0  0  0  0  0  0  0  0  0  0  0  0
    3.6795   -0.4940    1.1065 C   0  0  0  0  0  0  0  0  0  0  0  0
    3.0749   -1.7106    1.4035 C   0  0  0  0  0  0  0  0  0  0  0  0
    1.8481   -2.0439    0.8262 C   0  0  0  0  0  0  0  0  0  0  0  0
    1.1533    1.0434   -1.2986 C   0  0  0  0  0  0  0  0  0  0  0  0
   -0.2183    1.5614   -0.8936 C   0  0  0  0  0  0  0  0  0  0  0  0
   -1.2598    0.7663   -0.3466 C   0  0  0  0  0  0  0  0  0  0  0  0
   -2.4979    1.4080   -0.1167 C   0  0  0  0  0  0  0  0  0  0  0  0
   -2.7096    2.7640   -0.3770 C   0  0  0  0  0  0  0  0  0  0  0  0
   -1.6819    3.5306   -0.8954 C   0  0  0  0  0  0  0  0  0  0  0  0
   -0.4542    2.9329   -1.1606 C   0  0  0  0  0  0  0  0  0  0  0  0
   -1.1275   -0.5983   -0.0477 N   0  0  0  0  0  0  0  0  0  0  0  0
   -2.7604   -1.5568    2.5292 H   0  0  0  0  0  0  0  0  0  0  0  0
   -2.0991   -0.0425    2.2354 H   0  0  0  0  0  0  0  0  0  0  0  0
   -1.4300   -3.0968   -1.3102 H   0  0  0  0  0  0  0  0  0  0  0  0
   -0.0618   -3.6429   -0.3401 H   0  0  0  0  0  0  0  0  0  0  0  0
   -0.0883   -1.2905   -1.7900 H   0  0  0  0  0  0  0  0  0  0  0  0
    3.5348    1.3496    0.0249 H   0  0  0  0  0  0  0  0  0  0  0  0
    4.6316   -0.2341    1.5613 H   0  0  0  0  0  0  0  0  0  0  0  0
    3.5511   -2.3989    2.0973 H   0  0  0  0  0  0  0  0  0  0  0  0
    1.3910   -2.9868    1.1154 H   0  0  0  0  0  0  0  0  0  0  0  0
    1.0763    0.5840   -2.2928 H   0  0  0  0  0  0  0  0  0  0  0  0
    1.8308    1.8971   -1.4364 H   0  0  0  0  0  0  0  0  0  0  0  0
   -3.3500    0.8356    0.2455 H   0  0  0  0  0  0  0  0  0  0  0  0
   -3.6827    3.2071   -0.1838 H   0  0  0  0  0  0  0  0  0  0  0  0
   -1.8365    4.5848   -1.1080 H   0  0  0  0  0  0  0  0  0  0  0  0
    0.3335    3.5508   -1.5891 H   0  0  0  0  0  0  0  0  0  0  0  0
  1  2  1  0
  2  3  2  0
  3  4  1  0
  4  5  1  0
  5  6  1  0
  6  7  1  0
  7  8  2  0
  8  9  1  0
  9 10  2  0
 10 11  1  0
  7 12  1  0
 12 13  1  0
 13 14  1  0
 14 15  2  0
 15 16  1  0
 16 17  2  0
 17 18  1  0
 14 19  1  0
 19  2  1  0
 19  5  1  0
 11  6  2  0
 18 13  2  0
  1 20  1  0
  1 21  1  0
  4 22  1  0
  4 23  1  0
  5 24  1  0
  8 25  1  0
  9 26  1  0
 10 27  1  0
 11 28  1  0
 12 29  1  0
 12 30  1  0
 15 31  1  0
 16 32  1  0
 17 33  1  0
 18 34  1  0
M  END
$$$$
OCNT-2328518
     RDKit          3D

 55 56  0  0  0  0  0  0  0  0999 V2000
    3.6222    3.0774   -2.3459 C   0  0  0  0  0  0  0  0  0  0  0  0
    3.0421    2.4629   -1.1065 C   0  0  0  0  0  0  0  0  0  0  0  0
    2.4276    1.2038   -1.1605 C   0  0  0  0  0  0  0  0  0  0  0  0
    1.8433    0.6174   -0.0193 C   0  0  0  0  0  0  0  0  0  0  0  0
    1.2011   -0.7620   -0.1529 C   0  0  2  0  0  0  0  0  0  0  0  0
   -0.3160   -0.7795    0.1766 C   0  0  0  0  0  0  0  0  0  0  0  0
   -1.1321    0.0798   -0.8108 C   0  0  0  0  0  0  0  0  0  0  0  0
   -2.5901    0.1228   -0.6039 N   0  0  0  0  0  0  0  0  0  0  0  0
   -3.0840    1.0962    0.3988 C   0  0  0  0  0  0  0  0  0  0  0  0
   -4.0313    2.0701   -0.3230 C   0  0  0  0  0  0  0  0  0  0  0  0
   -2.0643    1.9553    1.1682 C   0  0  0  0  0  0  0  0  0  0  0  0
   -3.2589   -1.2038   -0.5750 C   0  0  0  0  0  0  0  0  0  0  0  0
   -2.8623   -2.0904   -1.7728 C   0  0  0  0  0  0  0  0  0  0  0  0
   -4.7978   -1.1313   -0.5876 C   0  0  0  0  0  0  0  0  0  0  0  0
    2.0161   -1.8502    0.5509 C   0  0  0  0  0  0  0  0  0  0  0  0
    1.6864   -2.3409    1.8231 C   0  0  0  0  0  0  0  0  0  0  0  0
    2.4587   -3.3345    2.4305 C   0  0  0  0  0  0  0  0  0  0  0  0
    3.5764   -3.8489    1.7785 C   0  0  0  0  0  0  0  0  0  0  0  0
    3.9270   -3.3665    0.5207 C   0  0  0  0  0  0  0  0  0  0  0  0
    3.1554   -2.3736   -0.0867 C   0  0  0  0  0  0  0  0  0  0  0  0
    1.8927    1.3349    1.1819 C   0  0  0  0  0  0  0  0  0  0  0  0
    1.3431    0.8025    2.3133 O   0  0  0  0  0  0  0  0  0  0  0  0
    2.4885    2.5958    1.2463 C   0  0  0  0  0  0  0  0  0  0  0  0
    3.0554    3.1598    0.1037 C   0  0  0  0  0  0  0  0  0  0  0  0
    4.0299    2.3071   -3.0089 H   0  0  0  0  0  0  0  0  0  0  0  0
    2.8496    3.6356   -2.8834 H   0  0  0  0  0  0  0  0  0  0  0  0
    4.4428    3.7589   -2.0978 H   0  0  0  0  0  0  0  0  0  0  0  0
    2.4037    0.6712   -2.1100 H   0  0  0  0  0  0  0  0  0  0  0  0
    1.2425   -1.0396   -1.2179 H   0  0  0  0  0  0  0  0  0  0  0  0
   -0.5045   -0.4636    1.2044 H   0  0  0  0  0  0  0  0  0  0  0  0
   -0.6592   -1.8195    0.1213 H   0  0  0  0  0  0  0  0  0  0  0  0
   -0.7361    1.0991   -0.8551 H   0  0  0  0  0  0  0  0  0  0  0  0
   -0.9462   -0.2927   -1.8264 H   0  0  0  0  0  0  0  0  0  0  0  0
   -3.6477    0.5689    1.1775 H   0  0  0  0  0  0  0  0  0  0  0  0
   -4.4812    2.7715    0.3887 H   0  0  0  0  0  0  0  0  0  0  0  0
   -4.8548    1.5585   -0.8273 H   0  0  0  0  0  0  0  0  0  0  0  0
   -3.4939    2.6576   -1.0767 H   0  0  0  0  0  0  0  0  0  0  0  0
   -2.5867    2.6293    1.8582 H   0  0  0  0  0  0  0  0  0  0  0  0
   -1.4013    1.3459    1.7837 H   0  0  0  0  0  0  0  0  0  0  0  0
   -1.4629    2.5864    0.5064 H   0  0  0  0  0  0  0  0  0  0  0  0
   -2.9705   -1.7253    0.3465 H   0  0  0  0  0  0  0  0  0  0  0  0
   -1.8045   -2.3665   -1.7604 H   0  0  0  0  0  0  0  0  0  0  0  0
   -3.4249   -3.0312   -1.7631 H   0  0  0  0  0  0  0  0  0  0  0  0
   -3.0731   -1.5869   -2.7231 H   0  0  0  0  0  0  0  0  0  0  0  0
   -5.1649   -0.6277   -1.4884 H   0  0  0  0  0  0  0  0  0  0  0  0
   -5.2030   -0.6189    0.2891 H   0  0  0  0  0  0  0  0  0  0  0  0
   -5.2288   -2.1394   -0.5783 H   0  0  0  0  0  0  0  0  0  0  0  0
    0.8312   -1.9450    2.3647 H   0  0  0  0  0  0  0  0  0  0  0  0
    2.1881   -3.7011    3.4170 H   0  0  0  0  0  0  0  0  0  0  0  0
    4.1771   -4.6196    2.2534 H   0  0  0  0  0  0  0  0  0  0  0  0
    4.8034   -3.7590    0.0123 H   0  0  0  0  0  0  0  0  0  0  0  0
    3.4514   -2.0042   -1.0661 H   0  0  0  0  0  0  0  0  0  0  0  0
    1.6021    1.3501    3.0717 H   0  0  0  0  0  0  0  0  0  0  0  0
    2.5143    3.1566    2.1755 H   0  0  0  0  0  0  0  0  0  0  0  0
    3.5089    4.1463    0.1651 H   0  0  0  0  0  0  0  0  0  0  0  0
  1  2  1  0
  2  3  2  0
  3  4  1  0
  4  5  1  0
  5  6  1  0
  6  7  1  0
  7  8  1  0
  8  9  1  0
  9 10  1  0
  9 11  1  0
  8 12  1  0
 12 13  1  0
 12 14  1  0
  5 15  1  0
 15 16  2  0
 16 17  1  0
 17 18  2  0
 18 19  1  0
 19 20  2  0
  4 21  2  0
 21 22  1  0
 21 23  1  0
 23 24  2  0
 24  2  1  0
 20 15  1  0
  1 25  1  0
  1 26  1  0
  1 27  1  0
  3 28  1  0
  5 29  1  6
  6 30  1  0
  6 31  1  0
  7 32  1  0
  7 33  1  0
  9 34  1  0
 10 35  1  0
 10 36  1  0
 10 37  1  0
 11 38  1  0
 11 39  1  0
 11 40  1  0
 12 41  1  0
 13 42  1  0
 13 43  1  0
 13 44  1  0
 14 45  1  0
 14 46  1  0
 14 47  1  0
 16 48  1  0
 17 49  1  0
 18 50  1  0
 19 51  1  0
 20 52  1  0
 22 53  1  0
 23 54  1  0
 24 55  1  0
M  END
$$$$
OCNT-2328527
     RDKit          3D

 31 32  0  0  0  0  0  0  0  0999 V2000
   -1.4842   -1.1361    1.1823 C   0  0  0  0  0  0  0  0  0  0  0  0
   -1.3449   -0.3281   -0.1249 C   0  0  0  0  0  0  0  0  0  0  0  0
   -1.3886   -1.2959   -1.3227 C   0  0  0  0  0  0  0  0  0  0  0  0
   -2.5851    0.4460   -0.2362 N   0  0  0  0  0  0  0  0  0  0  0  0
   -2.5321    1.7027    0.0164 C   0  0  0  0  0  0  0  0  0  0  0  0
   -3.6772    2.4237   -0.0524 N   0  0  0  0  0  0  0  0  0  0  0  0
   -1.4185    2.3830    0.3780 N   0  0  0  0  0  0  0  0  0  0  0  0
   -0.2813    1.7777    0.2716 C   0  0  0  0  0  0  0  0  0  0  0  0
    0.8381    2.5040    0.5482 N   0  0  0  0  0  0  0  0  0  0  0  0
   -0.1067    0.4779   -0.1320 N   0  0  0  0  0  0  0  0  0  0  0  0
    1.1174   -0.2134    0.0147 C   0  0  0  0  0  0  0  0  0  0  0  0
    1.7688   -0.7403   -1.1109 C   0  0  0  0  0  0  0  0  0  0  0  0
    2.9885   -1.4125   -0.9875 C   0  0  0  0  0  0  0  0  0  0  0  0
    3.5757   -1.5545    0.2668 C   0  0  0  0  0  0  0  0  0  0  0  0
    5.0770   -2.3795    0.4201 Cl  0  0  0  0  0  0  0  0  0  0  0  0
    2.9579   -1.0246    1.3958 C   0  0  0  0  0  0  0  0  0  0  0  0
    1.7387   -0.3534    1.2672 C   0  0  0  0  0  0  0  0  0  0  0  0
   -1.4350   -0.4797    2.0590 H   0  0  0  0  0  0  0  0  0  0  0  0
   -0.7022   -1.8956    1.2847 H   0  0  0  0  0  0  0  0  0  0  0  0
   -2.4481   -1.6579    1.2221 H   0  0  0  0  0  0  0  0  0  0  0  0
   -2.3601   -1.8017   -1.3864 H   0  0  0  0  0  0  0  0  0  0  0  0
   -0.6279   -2.0798   -1.2532 H   0  0  0  0  0  0  0  0  0  0  0  0
   -1.2419   -0.7579   -2.2666 H   0  0  0  0  0  0  0  0  0  0  0  0
   -4.4977    1.8439    0.0572 H   0  0  0  0  0  0  0  0  0  0  0  0
   -3.6516    3.2345    0.5504 H   0  0  0  0  0  0  0  0  0  0  0  0
    1.6072    2.3144   -0.0825 H   0  0  0  0  0  0  0  0  0  0  0  0
    0.6243    3.4937    0.5973 H   0  0  0  0  0  0  0  0  0  0  0  0
    1.3309   -0.6175   -2.0991 H   0  0  0  0  0  0  0  0  0  0  0  0
    3.4733   -1.8156   -1.8726 H   0  0  0  0  0  0  0  0  0  0  0  0
    3.4166   -1.1242    2.3757 H   0  0  0  0  0  0  0  0  0  0  0  0
    1.2687    0.0671    2.1544 H   0  0  0  0  0  0  0  0  0  0  0  0
  1  2  1  0
  2  3  1  0
  2  4  1  0
  4  5  2  0
  5  6  1  0
  5  7  1  0
  7  8  2  0
  8  9  1  0
  8 10  1  0
 10 11  1  0
 11 12  1  0
 12 13  2  0
 13 14  1  0
 14 15  1  0
 14 16  2  0
 16 17  1  0
 10  2  1  0
 17 11  2  0
  1 18  1  0
  1 19  1  0
  1 20  1  0
  3 21  1  0
  3 22  1  0
  3 23  1  0
  6 24  1  0
  6 25  1  0
  9 26  1  0
  9 27  1  0
 12 28  1  0
 13 29  1  0
 16 30  1  0
 17 31  1  0
M  END
$$$$
OCNT-2328533
     RDKit          3D

 43 45  0  0  0  0  0  0  0  0999 V2000
    3.3415   -4.0817   -0.4666 C   0  0  0  0  0  0  0  0  0  0  0  0
    2.6729   -2.7428   -0.3648 C   0  0  0  0  0  0  0  0  0  0  0  0
    3.0798   -1.6831   -1.1845 C   0  0  0  0  0  0  0  0  0  0  0  0
    2.4351   -0.4455   -1.1148 C   0  0  0  0  0  0  0  0  0  0  0  0
    1.3661   -0.2540   -0.2318 C   0  0  0  0  0  0  0  0  0  0  0  0
    0.6996    1.0681   -0.1496 C   0  0  0  0  0  0  0  0  0  0  0  0
   -0.5568    1.1931   -0.6391 C   0  0  0  0  0  0  0  0  0  0  0  0
   -1.4009    0.1604   -1.3336 C   0  0  0  0  0  0  0  0  0  0  0  0
   -2.4942   -0.3146   -0.4824 N   0  0  0  0  0  0  0  0  0  0  0  0
   -3.1984   -1.4457   -1.0883 C   0  0  0  0  0  0  0  0  0  0  0  0
   -4.4639   -1.5467   -0.2523 C   0  0  0  0  0  0  0  0  0  0  0  0
   -4.7044   -0.1359    0.2725 C   0  0  0  0  0  0  0  0  0  0  0  0
   -3.5341    0.6888   -0.2454 C   0  0  0  0  0  0  0  0  0  0  0  0
    1.3565    2.2715    0.4517 C   0  0  0  0  0  0  0  0  0  0  0  0
    0.8854    3.4920    0.0836 N   0  0  0  0  0  0  0  0  0  0  0  0
    1.4820    4.5831    0.6115 C   0  0  0  0  0  0  0  0  0  0  0  0
    2.5417    4.5300    1.4987 C   0  0  0  0  0  0  0  0  0  0  0  0
    3.0196    3.2809    1.8689 C   0  0  0  0  0  0  0  0  0  0  0  0
    2.4233    2.1372    1.3405 C   0  0  0  0  0  0  0  0  0  0  0  0
    0.9502   -1.3172    0.5794 C   0  0  0  0  0  0  0  0  0  0  0  0
    1.5947   -2.5543    0.5078 C   0  0  0  0  0  0  0  0  0  0  0  0
    3.3117   -4.6072    0.4937 H   0  0  0  0  0  0  0  0  0  0  0  0
    2.8389   -4.6944   -1.2213 H   0  0  0  0  0  0  0  0  0  0  0  0
    4.3953   -3.9721   -0.7437 H   0  0  0  0  0  0  0  0  0  0  0  0
    3.9019   -1.8140   -1.8845 H   0  0  0  0  0  0  0  0  0  0  0  0
    2.7668    0.3673   -1.7572 H   0  0  0  0  0  0  0  0  0  0  0  0
   -1.0450    2.1639   -0.5637 H   0  0  0  0  0  0  0  0  0  0  0  0
   -0.7871   -0.6923   -1.6445 H   0  0  0  0  0  0  0  0  0  0  0  0
   -1.7872    0.5956   -2.2651 H   0  0  0  0  0  0  0  0  0  0  0  0
   -2.6128   -2.3694   -1.0427 H   0  0  0  0  0  0  0  0  0  0  0  0
   -3.4591   -1.2471   -2.1359 H   0  0  0  0  0  0  0  0  0  0  0  0
   -5.3103   -1.9116   -0.8426 H   0  0  0  0  0  0  0  0  0  0  0  0
   -4.3191   -2.2349    0.5890 H   0  0  0  0  0  0  0  0  0  0  0  0
   -5.6610    0.2671   -0.0755 H   0  0  0  0  0  0  0  0  0  0  0  0
   -4.7221   -0.1451    1.3686 H   0  0  0  0  0  0  0  0  0  0  0  0
   -3.8252    1.1990   -1.1726 H   0  0  0  0  0  0  0  0  0  0  0  0
   -3.2304    1.4433    0.4872 H   0  0  0  0  0  0  0  0  0  0  0  0
    1.0696    5.5348    0.2892 H   0  0  0  0  0  0  0  0  0  0  0  0
    2.9822    5.4390    1.8917 H   0  0  0  0  0  0  0  0  0  0  0  0
    3.8490    3.1923    2.5645 H   0  0  0  0  0  0  0  0  0  0  0  0
    2.7914    1.1591    1.6331 H   0  0  0  0  0  0  0  0  0  0  0  0
    0.1114   -1.1874    1.2610 H   0  0  0  0  0  0  0  0  0  0  0  0
    1.2456   -3.3698    1.1372 H   0  0  0  0  0  0  0  0  0  0  0  0
  1  2  1  0
  2  3  1  0
  3  4  2  0
  4  5  1  0
  5  6  1  0
  6  7  2  0
  7  8  1  0
  8  9  1  0
  9 10  1  0
 10 11  1  0
 11 12  1  0
 12 13  1  0
  6 14  1  0
 14 15  1  0
 15 16  2  0
 16 17  1  0
 17 18  2  0
 18 19  1  0
  5 20  2  0
 20 21  1  0
 21  2  2  0
 13  9  1  0
 19 14  2  0
  1 22  1  0
  1 23  1  0
  1 24  1  0
  3 25  1  0
  4 26  1  0
  7 27  1  0
  8 28  1  0
  8 29  1  0
 10 30  1  0
 10 31  1  0
 11 32  1  0
 11 33  1  0
 12 34  1  0
 12 35  1  0
 13 36  1  0
 13 37  1  0
 16 38  1  0
 17 39  1  0
 18 40  1  0
 19 41  1  0
 20 42  1  0
 21 43  1  0
M  END
$$$$
OCNT-2328534
     RDKit          3D

 36 38  0  0  0  0  0  0  0  0999 V2000
   -1.3938    3.2213    0.1073 C   0  0  0  0  0  0  0  0  0  0  0  0
   -0.9219    1.8401    0.0477 N   0  0  0  0  0  0  0  0  0  0  0  0
   -1.9695    0.9590   -0.4982 C   0  0  0  0  0  0  0  0  0  0  0  0
   -1.5292   -0.4757   -0.7308 C   0  0  0  0  0  0  0  0  0  0  0  0
   -2.4822   -1.5094   -0.8709 C   0  0  0  0  0  0  0  0  0  0  0  0
   -3.8672   -1.2567   -0.8754 N   0  0  0  0  0  0  0  0  0  0  0  0
   -2.0490   -2.7923   -1.2377 C   0  0  0  0  0  0  0  0  0  0  0  0
   -0.6948   -3.0871   -1.3726 C   0  0  0  0  0  0  0  0  0  0  0  0
    0.2494   -2.0849   -1.1917 C   0  0  0  0  0  0  0  0  0  0  0  0
   -0.1536   -0.7737   -0.8899 C   0  0  0  0  0  0  0  0  0  0  0  0
    0.9057    0.3132   -0.7499 C   0  0  0  0  0  0  0  0  0  0  0  0
    1.8228    0.1039    0.4532 C   0  0  0  0  0  0  0  0  0  0  0  0
    1.3170    0.0447    1.7611 C   0  0  0  0  0  0  0  0  0  0  0  0
    2.1713   -0.1445    2.8488 C   0  0  0  0  0  0  0  0  0  0  0  0
    3.5428   -0.2767    2.6449 C   0  0  0  0  0  0  0  0  0  0  0  0
    4.0614   -0.2196    1.3533 C   0  0  0  0  0  0  0  0  0  0  0  0
    3.2082   -0.0303    0.2640 C   0  0  0  0  0  0  0  0  0  0  0  0
    0.2947    1.7373   -0.7730 C   0  0  0  0  0  0  0  0  0  0  0  0
   -0.6337    3.8671    0.5607 H   0  0  0  0  0  0  0  0  0  0  0  0
   -2.2858    3.2964    0.7392 H   0  0  0  0  0  0  0  0  0  0  0  0
   -1.6384    3.6209   -0.8836 H   0  0  0  0  0  0  0  0  0  0  0  0
   -2.3488    1.3501   -1.4519 H   0  0  0  0  0  0  0  0  0  0  0  0
   -2.7921    0.9629    0.2256 H   0  0  0  0  0  0  0  0  0  0  0  0
   -4.1538   -0.5078   -0.2555 H   0  0  0  0  0  0  0  0  0  0  0  0
   -4.4229   -2.0923   -0.7170 H   0  0  0  0  0  0  0  0  0  0  0  0
   -2.7739   -3.5818   -1.4189 H   0  0  0  0  0  0  0  0  0  0  0  0
   -0.3793   -4.0937   -1.6316 H   0  0  0  0  0  0  0  0  0  0  0  0
    1.3054   -2.3225   -1.3011 H   0  0  0  0  0  0  0  0  0  0  0  0
    1.5253    0.2475   -1.6567 H   0  0  0  0  0  0  0  0  0  0  0  0
    0.2481    0.1456    1.9391 H   0  0  0  0  0  0  0  0  0  0  0  0
    1.7625   -0.1887    3.8545 H   0  0  0  0  0  0  0  0  0  0  0  0
    4.2063   -0.4244    3.4925 H   0  0  0  0  0  0  0  0  0  0  0  0
    5.1312   -0.3230    1.1933 H   0  0  0  0  0  0  0  0  0  0  0  0
    3.6347    0.0106   -0.7355 H   0  0  0  0  0  0  0  0  0  0  0  0
    1.0473    2.4600   -0.4306 H   0  0  0  0  0  0  0  0  0  0  0  0
    0.0558    2.0045   -1.8127 H   0  0  0  0  0  0  0  0  0  0  0  0
  1  2  1  0
  2  3  1  0
  3  4  1  0
  4  5  2  0
  5  6  1  0
  5  7  1  0
  7  8  2  0
  8  9  1  0
  9 10  2  0
 10 11  1  0
 11 12  1  0
 12 13  2  0
 13 14  1  0
 14 15  2  0
 15 16  1  0
 16 17  2  0
 11 18  1  0
 18  2  1  0
 10  4  1  0
 17 12  1  0
  1 19  1  0
  1 20  1  0
  1 21  1  0
  3 22  1  0
  3 23  1  0
  6 24  1  0
  6 25  1  0
  7 26  1  0
  8 27  1  0
  9 28  1  0
 11 29  1  0
 13 30  1  0
 14 31  1  0
 15 32  1  0
 16 33  1  0
 17 34  1  0
 18 35  1  0
 18 36  1  0
M  END
$$$$
OCNT-2328540
     RDKit          3D

 59 60  0  0  0  0  0  0  0  0999 V2000
    4.6108   -0.6937    2.4409 C   0  0  0  0  0  0  0  0  0  0  0  0
    3.5800   -1.5672    1.7322 C   0  0  0  0  0  0  0  0  0  0  0  0
    3.2301   -1.1037    0.2899 N   0  0  0  0  0  0  0  0  0  0  0  0
    4.4534   -1.3559   -0.6117 C   0  0  0  0  0  0  0  0  0  0  0  0
    2.0628   -2.0087   -0.1824 C   0  0  0  0  0  0  0  0  0  0  0  0
    1.6043   -1.7510   -1.6072 C   0  0  0  0  0  0  0  0  0  0  0  0
    2.8813    0.4111    0.1936 C   0  0  0  0  0  0  0  0  0  0  0  0
    1.7388    0.8794    1.1107 C   0  0  0  0  0  0  0  0  0  0  0  0
    0.4138    0.6195    0.6107 O   0  0  0  0  0  0  0  0  0  0  0  0
   -0.0245    1.5287   -0.3080 C   0  0  0  0  0  0  0  0  0  0  0  0
    0.7578    2.1857   -0.9943 O   0  0  0  0  0  0  0  0  0  0  0  0
   -1.5716    1.6675   -0.4169 C   0  0  0  0  0  0  0  0  0  0  0  0
   -1.7464    2.7787   -1.3452 O   0  0  0  0  0  0  0  0  0  0  0  0
   -2.2395    2.1131    0.8982 C   0  0  0  0  0  0  0  0  0  0  0  0
   -1.9908    1.4857    2.1329 C   0  0  0  0  0  0  0  0  0  0  0  0
   -2.6063    1.9227    3.3117 C   0  0  0  0  0  0  0  0  0  0  0  0
   -3.4972    2.9913    3.2847 C   0  0  0  0  0  0  0  0  0  0  0  0
   -3.7834    3.6129    2.0768 C   0  0  0  0  0  0  0  0  0  0  0  0
   -3.1682    3.1745    0.9005 C   0  0  0  0  0  0  0  0  0  0  0  0
   -2.2937    0.4457   -1.0720 C   0  0  0  0  0  0  0  0  0  0  0  0
   -2.1523   -0.8849   -0.3074 C   0  0  0  0  0  0  0  0  0  0  0  0
   -2.9245   -2.0200   -0.9789 C   0  0  0  0  0  0  0  0  0  0  0  0
   -2.5190   -2.2013   -2.4342 C   0  0  0  0  0  0  0  0  0  0  0  0
   -2.6530   -0.9009   -3.2122 C   0  0  0  0  0  0  0  0  0  0  0  0
   -1.8962    0.2489   -2.5549 C   0  0  0  0  0  0  0  0  0  0  0  0
    4.8448   -1.1282    3.4231 H   0  0  0  0  0  0  0  0  0  0  0  0
    4.2380    0.3184    2.6227 H   0  0  0  0  0  0  0  0  0  0  0  0
    5.5485   -0.6173    1.8886 H   0  0  0  0  0  0  0  0  0  0  0  0
    3.9537   -2.5977    1.6545 H   0  0  0  0  0  0  0  0  0  0  0  0
    2.6442   -1.5947    2.3057 H   0  0  0  0  0  0  0  0  0  0  0  0
    5.3056   -0.7880   -0.2271 H   0  0  0  0  0  0  0  0  0  0  0  0
    4.2285   -1.0039   -1.6234 H   0  0  0  0  0  0  0  0  0  0  0  0
    4.6700   -2.4293   -0.6084 H   0  0  0  0  0  0  0  0  0  0  0  0
    1.2311   -1.8587    0.5154 H   0  0  0  0  0  0  0  0  0  0  0  0
    2.4064   -3.0464   -0.0848 H   0  0  0  0  0  0  0  0  0  0  0  0
    1.1467   -0.7662   -1.7114 H   0  0  0  0  0  0  0  0  0  0  0  0
    2.4033   -1.8248   -2.3426 H   0  0  0  0  0  0  0  0  0  0  0  0
    0.8440   -2.4896   -1.8847 H   0  0  0  0  0  0  0  0  0  0  0  0
    3.7990    0.9444    0.4577 H   0  0  0  0  0  0  0  0  0  0  0  0
    2.6756    0.6145   -0.8580 H   0  0  0  0  0  0  0  0  0  0  0  0
    1.8421    1.9586    1.2828 H   0  0  0  0  0  0  0  0  0  0  0  0
    1.7974    0.4221    2.1004 H   0  0  0  0  0  0  0  0  0  0  0  0
   -0.9502    2.8221   -1.9130 H   0  0  0  0  0  0  0  0  0  0  0  0
   -1.3244    0.6329    2.2167 H   0  0  0  0  0  0  0  0  0  0  0  0
   -2.3992    1.4223    4.2543 H   0  0  0  0  0  0  0  0  0  0  0  0
   -3.9745    3.3338    4.2012 H   0  0  0  0  0  0  0  0  0  0  0  0
   -4.4869    4.4410    2.0431 H   0  0  0  0  0  0  0  0  0  0  0  0
   -3.4283    3.6876   -0.0258 H   0  0  0  0  0  0  0  0  0  0  0  0
   -3.3682    0.6882   -1.0886 H   0  0  0  0  0  0  0  0  0  0  0  0
   -2.5241   -0.7884    0.7174 H   0  0  0  0  0  0  0  0  0  0  0  0
   -1.0999   -1.1769   -0.2432 H   0  0  0  0  0  0  0  0  0  0  0  0
   -2.7496   -2.9509   -0.4296 H   0  0  0  0  0  0  0  0  0  0  0  0
   -3.9990   -1.8146   -0.9200 H   0  0  0  0  0  0  0  0  0  0  0  0
   -3.1411   -2.9734   -2.8996 H   0  0  0  0  0  0  0  0  0  0  0  0
   -1.4844   -2.5536   -2.4856 H   0  0  0  0  0  0  0  0  0  0  0  0
   -3.7120   -0.6370   -3.2967 H   0  0  0  0  0  0  0  0  0  0  0  0
   -2.2824   -1.0441   -4.2318 H   0  0  0  0  0  0  0  0  0  0  0  0
   -0.8199    0.0620   -2.6347 H   0  0  0  0  0  0  0  0  0  0  0  0
   -2.1016    1.1579   -3.1320 H   0  0  0  0  0  0  0  0  0  0  0  0
  1  2  1  0
  2  3  1  0
  3  4  1  0
  3  5  1  0
  5  6  1  0
  3  7  1  0
  7  8  1  0
  8  9  1  0
  9 10  1  0
 10 11  2  0
 10 12  1  0
 12 13  1  0
 12 14  1  0
 14 15  2  0
 15 16  1  0
 16 17  2  0
 17 18  1  0
 18 19  2  0
 12 20  1  0
 20 21  1  0
 21 22  1  0
 22 23  1  0
 23 24  1  0
 24 25  1  0
 19 14  1  0
 25 20  1  0
  1 26  1  0
  1 27  1  0
  1 28  1  0
  2 29  1  0
  2 30  1  0
  4 31  1  0
  4 32  1  0
  4 33  1  0
  5 34  1  0
  5 35  1  0
  6 36  1  0
  6 37  1  0
  6 38  1  0
  7 39  1  0
  7 40  1  0
  8 41  1  0
  8 42  1  0
 13 43  1  0
 15 44  1  0
 16 45  1  0
 17 46  1  0
 18 47  1  0
 19 48  1  0
 20 49  1  0
 21 50  1  0
 21 51  1  0
 22 52  1  0
 22 53  1  0
 23 54  1  0
 23 55  1  0
 24 56  1  0
 24 57  1  0
 25 58  1  0
 25 59  1  0
M  CHG  1   3   1
M  END
$$$$
OCNT-2328544
     RDKit          3D

 43 44  0  0  0  0  0  0  0  0999 V2000
   -5.1206   -0.6969    0.4747 C   0  0  0  0  0  0  0  0  0  0  0  0
   -4.0412    0.0176   -0.2130 N   0  0  0  0  0  0  0  0  0  0  0  0
   -4.1282    1.4481    0.0903 C   0  0  0  0  0  0  0  0  0  0  0  0
   -2.7371   -0.5459    0.1863 C   0  0  0  0  0  0  0  0  0  0  0  0
   -1.5523   -0.0533   -0.6603 C   0  0  0  0  0  0  0  0  0  0  0  0
   -0.3797   -0.7578   -0.2402 O   0  0  0  0  0  0  0  0  0  0  0  0
    0.8880   -0.2339   -0.7043 C   0  0  0  0  0  0  0  0  0  0  0  0
    0.8720   -0.0985   -2.2437 C   0  0  0  0  0  0  0  0  0  0  0  0
    1.1589    1.0723    0.0667 C   0  0  0  0  0  0  0  0  0  0  0  0
    1.5148    2.2757   -0.5659 C   0  0  0  0  0  0  0  0  0  0  0  0
    1.7525    3.4350    0.1789 C   0  0  0  0  0  0  0  0  0  0  0  0
    1.6411    3.4135    1.5667 C   0  0  0  0  0  0  0  0  0  0  0  0
    1.2925    2.2330    2.2150 C   0  0  0  0  0  0  0  0  0  0  0  0
    1.0545    1.0750    1.4731 C   0  0  0  0  0  0  0  0  0  0  0  0
    1.9677   -1.2987   -0.3806 C   0  0  0  0  0  0  0  0  0  0  0  0
    1.6187   -2.6345   -0.1046 C   0  0  0  0  0  0  0  0  0  0  0  0
    2.5967   -3.5966    0.1647 C   0  0  0  0  0  0  0  0  0  0  0  0
    3.9409   -3.2375    0.1546 C   0  0  0  0  0  0  0  0  0  0  0  0
    5.2638   -4.5374    0.5191 Br  0  0  0  0  0  0  0  0  0  0  0  0
    4.3170   -1.9276   -0.1258 C   0  0  0  0  0  0  0  0  0  0  0  0
    3.3378   -0.9671   -0.3956 C   0  0  0  0  0  0  0  0  0  0  0  0
   -5.0494   -0.6048    1.5646 H   0  0  0  0  0  0  0  0  0  0  0  0
   -5.1048   -1.7615    0.2155 H   0  0  0  0  0  0  0  0  0  0  0  0
   -6.0980   -0.3152    0.1586 H   0  0  0  0  0  0  0  0  0  0  0  0
   -3.9586    1.6572    1.1528 H   0  0  0  0  0  0  0  0  0  0  0  0
   -3.4057    2.0225   -0.4976 H   0  0  0  0  0  0  0  0  0  0  0  0
   -5.1157    1.8387   -0.1816 H   0  0  0  0  0  0  0  0  0  0  0  0
   -2.5311   -0.3572    1.2488 H   0  0  0  0  0  0  0  0  0  0  0  0
   -2.7679   -1.6395    0.0835 H   0  0  0  0  0  0  0  0  0  0  0  0
   -1.7462   -0.2733   -1.7155 H   0  0  0  0  0  0  0  0  0  0  0  0
   -1.4159    1.0244   -0.5355 H   0  0  0  0  0  0  0  0  0  0  0  0
    1.8547    0.1709   -2.6481 H   0  0  0  0  0  0  0  0  0  0  0  0
    0.1618    0.6643   -2.5823 H   0  0  0  0  0  0  0  0  0  0  0  0
    0.5645   -1.0407   -2.7142 H   0  0  0  0  0  0  0  0  0  0  0  0
    1.6170    2.3374   -1.6459 H   0  0  0  0  0  0  0  0  0  0  0  0
    2.0270    4.3572   -0.3274 H   0  0  0  0  0  0  0  0  0  0  0  0
    1.8280    4.3159    2.1427 H   0  0  0  0  0  0  0  0  0  0  0  0
    1.2069    2.2095    3.2982 H   0  0  0  0  0  0  0  0  0  0  0  0
    0.7839    0.1584    1.9960 H   0  0  0  0  0  0  0  0  0  0  0  0
    0.5739   -2.9397   -0.0967 H   0  0  0  0  0  0  0  0  0  0  0  0
    2.2957   -4.6185    0.3790 H   0  0  0  0  0  0  0  0  0  0  0  0
    5.3651   -1.6410   -0.1370 H   0  0  0  0  0  0  0  0  0  0  0  0
    3.6569    0.0504   -0.6139 H   0  0  0  0  0  0  0  0  0  0  0  0
  1  2  1  0
  2  3  1  0
  2  4  1  0
  4  5  1  0
  5  6  1  0
  6  7  1  0
  7  8  1  0
  7  9  1  0
  9 10  2  0
 10 11  1  0
 11 12  2  0
 12 13  1  0
 13 14  2  0
  7 15  1  0
 15 16  1  0
 16 17  2  0
 17 18  1  0
 18 19  1  0
 18 20  2  0
 20 21  1  0
 14  9  1  0
 21 15  2  0
  1 22  1  0
  1 23  1  0
  1 24  1  0
  3 25  1  0
  3 26  1  0
  3 27  1  0
  4 28  1  0
  4 29  1  0
  5 30  1  0
  5 31  1  0
  8 32  1  0
  8 33  1  0
  8 34  1  0
 10 35  1  0
 11 36  1  0
 12 37  1  0
 13 38  1  0
 14 39  1  0
 16 40  1  0
 17 41  1  0
 20 42  1  0
 21 43  1  0
M  END
$$$$
OCNT-2328546
     RDKit          3D

 56 59  0  0  0  0  0  0  0  0999 V2000
    7.7182   -0.0161   -3.3383 C   0  0  0  0  0  0  0  0  0  0  0  0
    6.4188    0.1211   -2.7840 O   0  0  0  0  0  0  0  0  0  0  0  0
    6.3165    0.6699   -1.5288 C   0  0  0  0  0  0  0  0  0  0  0  0
    7.4058    1.1095   -0.7674 C   0  0  0  0  0  0  0  0  0  0  0  0
    7.2048    1.6524    0.5033 C   0  0  0  0  0  0  0  0  0  0  0  0
    5.9171    1.7648    1.0173 C   0  0  0  0  0  0  0  0  0  0  0  0
    4.8226    1.3308    0.2659 C   0  0  0  0  0  0  0  0  0  0  0  0
    5.0110    0.7747   -1.0043 C   0  0  0  0  0  0  0  0  0  0  0  0
    4.0029    0.3131   -1.8138 O   0  0  0  0  0  0  0  0  0  0  0  0
    2.6816    0.1833   -1.2884 C   0  0  0  0  0  0  0  0  0  0  0  0
    2.5458   -1.0708   -0.4097 C   0  0  0  0  0  0  0  0  0  0  0  0
    1.1768   -1.3632    0.0370 N   0  0  0  0  0  0  0  0  0  0  0  0
    0.6552   -0.3505    0.9676 C   0  0  0  0  0  0  0  0  0  0  0  0
   -0.6235   -0.8372    1.6735 C   0  0  0  0  0  0  0  0  0  0  0  0
   -0.3138   -2.0158    2.4372 O   0  0  0  0  0  0  0  0  0  0  0  0
   -1.7662   -1.1413    0.6981 C   0  0  0  0  0  0  0  0  0  0  0  0
   -2.9248   -1.4655    1.4942 O   0  0  0  0  0  0  0  0  0  0  0  0
   -3.9969   -1.7080    0.6611 C   0  0  0  0  0  0  0  0  0  0  0  0
   -4.1980   -3.0146    0.2013 C   0  0  0  0  0  0  0  0  0  0  0  0
   -5.2691   -3.3063   -0.6384 C   0  0  0  0  0  0  0  0  0  0  0  0
   -6.1680   -2.3095   -1.0303 C   0  0  0  0  0  0  0  0  0  0  0  0
   -5.9656   -1.0145   -0.5348 C   0  0  0  0  0  0  0  0  0  0  0  0
   -4.9090   -0.6857    0.3159 C   0  0  0  0  0  0  0  0  0  0  0  0
   -5.0374    0.7064    0.6345 C   0  0  0  0  0  0  0  0  0  0  0  0
   -4.3076    1.6028    1.4441 C   0  0  0  0  0  0  0  0  0  0  0  0
   -4.7122    2.9394    1.5353 C   0  0  0  0  0  0  0  0  0  0  0  0
   -5.8272    3.3917    0.8348 C   0  0  0  0  0  0  0  0  0  0  0  0
   -6.5719    2.5247    0.0295 C   0  0  0  0  0  0  0  0  0  0  0  0
   -6.1537    1.1908   -0.0476 C   0  0  0  0  0  0  0  0  0  0  0  0
   -6.6915    0.1343   -0.7419 N   0  0  0  0  0  0  0  0  0  0  0  0
    8.3402   -0.6826   -2.7317 H   0  0  0  0  0  0  0  0  0  0  0  0
    8.1961    0.9596   -3.4756 H   0  0  0  0  0  0  0  0  0  0  0  0
    7.6130   -0.4734   -4.3269 H   0  0  0  0  0  0  0  0  0  0  0  0
    8.4247    1.0412   -1.1335 H   0  0  0  0  0  0  0  0  0  0  0  0
    8.0559    1.9879    1.0909 H   0  0  0  0  0  0  0  0  0  0  0  0
    5.7621    2.1906    2.0060 H   0  0  0  0  0  0  0  0  0  0  0  0
    3.8381    1.4415    0.7045 H   0  0  0  0  0  0  0  0  0  0  0  0
    2.0227    0.0707   -2.1558 H   0  0  0  0  0  0  0  0  0  0  0  0
    2.3602    1.1026   -0.7884 H   0  0  0  0  0  0  0  0  0  0  0  0
    2.9008   -1.9305   -0.9920 H   0  0  0  0  0  0  0  0  0  0  0  0
    3.2173   -1.0175    0.4548 H   0  0  0  0  0  0  0  0  0  0  0  0
    1.1882   -2.2542    0.5463 H   0  0  0  0  0  0  0  0  0  0  0  0
    1.4088   -0.1424    1.7364 H   0  0  0  0  0  0  0  0  0  0  0  0
    0.4388    0.5793    0.4321 H   0  0  0  0  0  0  0  0  0  0  0  0
   -0.9479   -0.0783    2.3950 H   0  0  0  0  0  0  0  0  0  0  0  0
   -1.1741   -2.3560    2.7506 H   0  0  0  0  0  0  0  0  0  0  0  0
   -1.5117   -2.0039    0.0702 H   0  0  0  0  0  0  0  0  0  0  0  0
   -1.9691   -0.2658    0.0698 H   0  0  0  0  0  0  0  0  0  0  0  0
   -3.5120   -3.8029    0.4966 H   0  0  0  0  0  0  0  0  0  0  0  0
   -5.4092   -4.3241   -0.9955 H   0  0  0  0  0  0  0  0  0  0  0  0
   -7.0011   -2.5422   -1.6869 H   0  0  0  0  0  0  0  0  0  0  0  0
   -3.4426    1.2568    2.0016 H   0  0  0  0  0  0  0  0  0  0  0  0
   -4.1515    3.6278    2.1624 H   0  0  0  0  0  0  0  0  0  0  0  0
   -6.1290    4.4328    0.9190 H   0  0  0  0  0  0  0  0  0  0  0  0
   -7.4436    2.8791   -0.5100 H   0  0  0  0  0  0  0  0  0  0  0  0
   -7.5161    0.1934   -1.3216 H   0  0  0  0  0  0  0  0  0  0  0  0
  1  2  1  0
  2  3  1  0
  3  4  2  0
  4  5  1  0
  5  6  2  0
  6  7  1  0
  7  8  2  0
  8  9  1  0
  9 10  1  0
 10 11  1  0
 11 12  1  0
 12 13  1  0
 13 14  1  0
 14 15  1  0
 14 16  1  0
 16 17  1  0
 17 18  1  0
 18 19  1  0
 19 20  2  0
 20 21  1  0
 21 22  2  0
 22 23  1  0
 23 24  1  0
 24 25  2  0
 25 26  1  0
 26 27  2  0
 27 28  1  0
 28 29  2  0
 29 30  1  0
  8  3  1  0
 23 18  2  0
 29 24  1  0
 30 22  1  0
  1 31  1  0
  1 32  1  0
  1 33  1  0
  4 34  1  0
  5 35  1  0
  6 36  1  0
  7 37  1  0
 10 38  1  0
 10 39  1  0
 11 40  1  0
 11 41  1  0
 12 42  1  0
 13 43  1  0
 13 44  1  0
 14 45  1  0
 15 46  1  0
 16 47  1  0
 16 48  1  0
 19 49  1  0
 20 50  1  0
 21 51  1  0
 25 52  1  0
 26 53  1  0
 27 54  1  0
 28 55  1  0
 30 56  1  0
M  END
$$$$
OCNT-2328552
     RDKit          3D

 36 39  0  0  0  0  0  0  0  0999 V2000
    4.1632   -0.6135   -0.2546 C   0  0  0  0  0  0  0  0  0  0  0  0
    2.8940   -0.3334    0.3969 N   0  0  0  0  0  0  0  0  0  0  0  0
    2.2017    0.8429   -0.1577 C   0  0  0  0  0  0  0  0  0  0  0  0
    0.7140    0.4524   -0.2942 C   0  0  2  0  0  0  0  0  0  0  0  0
   -0.2862    1.5686   -0.0770 C   0  0  0  0  0  0  0  0  0  0  0  0
   -1.4660    1.4331    0.6752 C   0  0  0  0  0  0  0  0  0  0  0  0
   -2.3374    2.5205    0.8338 C   0  0  0  0  0  0  0  0  0  0  0  0
   -2.0789    3.7372    0.2086 C   0  0  0  0  0  0  0  0  0  0  0  0
   -0.9411    3.8760   -0.5758 C   0  0  0  0  0  0  0  0  0  0  0  0
   -0.0581    2.8034   -0.7195 C   0  0  0  0  0  0  0  0  0  0  0  0
   -1.8478    0.3075    1.3731 O   0  0  0  0  0  0  0  0  0  0  0  0
   -1.8597   -0.8856    0.6884 C   0  0  0  0  0  0  0  0  0  0  0  0
   -0.6595   -1.5268    0.3464 C   0  0  0  0  0  0  0  0  0  0  0  0
   -0.7241   -2.7968   -0.2406 C   0  0  0  0  0  0  0  0  0  0  0  0
   -1.9641   -3.3977   -0.4765 C   0  0  0  0  0  0  0  0  0  0  0  0
   -2.0281   -4.9563   -1.2051 Cl  0  0  0  0  0  0  0  0  0  0  0  0
   -3.1489   -2.7525   -0.1262 C   0  0  0  0  0  0  0  0  0  0  0  0
   -3.0962   -1.4941    0.4700 C   0  0  0  0  0  0  0  0  0  0  0  0
    0.6168   -0.7782    0.6178 C   0  0  1  0  0  0  0  0  0  0  0  0
    1.9550   -1.4578    0.3284 C   0  0  0  0  0  0  0  0  0  0  0  0
    4.6515   -1.4751    0.2136 H   0  0  0  0  0  0  0  0  0  0  0  0
    4.0438   -0.8250   -1.3232 H   0  0  0  0  0  0  0  0  0  0  0  0
    4.8442    0.2376   -0.1462 H   0  0  0  0  0  0  0  0  0  0  0  0
    2.5949    1.1443   -1.1367 H   0  0  0  0  0  0  0  0  0  0  0  0
    2.3419    1.6826    0.5327 H   0  0  0  0  0  0  0  0  0  0  0  0
    0.5574    0.1155   -1.3325 H   0  0  0  0  0  0  0  0  0  0  0  0
   -3.2289    2.4111    1.4465 H   0  0  0  0  0  0  0  0  0  0  0  0
   -2.7652    4.5705    0.3313 H   0  0  0  0  0  0  0  0  0  0  0  0
   -0.7363    4.8192   -1.0759 H   0  0  0  0  0  0  0  0  0  0  0  0
    0.8200    2.9440   -1.3470 H   0  0  0  0  0  0  0  0  0  0  0  0
    0.1781   -3.3322   -0.5208 H   0  0  0  0  0  0  0  0  0  0  0  0
   -4.1101   -3.2269   -0.3034 H   0  0  0  0  0  0  0  0  0  0  0  0
   -4.0113   -0.9914    0.7699 H   0  0  0  0  0  0  0  0  0  0  0  0
    0.6163   -0.4785    1.6777 H   0  0  0  0  0  0  0  0  0  0  0  0
    2.1904   -2.2273    1.0709 H   0  0  0  0  0  0  0  0  0  0  0  0
    1.9646   -1.9172   -0.6685 H   0  0  0  0  0  0  0  0  0  0  0  0
  1  2  1  0
  2  3  1  0
  3  4  1  0
  4  5  1  0
  5  6  1  0
  6  7  2  0
  7  8  1  0
  8  9  2  0
  9 10  1  0
  6 11  1  0
 11 12  1  0
 12 13  2  0
 13 14  1  0
 14 15  2  0
 15 16  1  0
 15 17  1  0
 17 18  2  0
 13 19  1  0
 19 20  1  0
 20  2  1  0
 19  4  1  0
 10  5  2  0
 18 12  1  0
  1 21  1  0
  1 22  1  0
  1 23  1  0
  3 24  1  0
  3 25  1  0
  4 26  1  6
  7 27  1  0
  8 28  1  0
  9 29  1  0
 10 30  1  0
 14 31  1  0
 17 32  1  0
 18 33  1  0
 19 34  1  1
 20 35  1  0
 20 36  1  0
M  END
$$$$
OCNT-2328558
     RDKit          3D

 67 70  0  0  0  0  0  0  0  0999 V2000
   -3.7117   -3.5128   -0.6672 C   0  0  0  0  0  0  0  0  0  0  0  0
   -3.2873   -2.2711   -0.0310 N   0  0  0  0  0  0  0  0  0  0  0  0
   -3.3519   -2.2978    1.4247 C   0  0  0  0  0  0  0  0  0  0  0  0
   -2.9698   -1.1826   -0.8515 C   0  0  0  0  0  0  0  0  0  0  0  0
   -2.9105   -1.3719   -2.0755 O   0  0  0  0  0  0  0  0  0  0  0  0
   -2.5853    0.2419   -0.2488 C   0  0  0  0  0  0  0  0  0  0  0  0
   -1.1112    0.0410    0.2780 C   0  0  0  0  0  0  0  0  0  0  0  0
   -0.0990   -0.3903   -0.8071 C   0  0  0  0  0  0  0  0  0  0  0  0
    1.2644   -0.5515   -0.2508 N   0  0  0  0  0  0  0  0  0  0  0  0
    2.0799   -1.3557   -1.1795 C   0  0  0  0  0  0  0  0  0  0  0  0
    3.4664   -1.6216   -0.5911 C   0  0  0  0  0  0  0  0  0  0  0  0
    4.2151   -0.3155   -0.2749 C   0  0  0  0  0  0  0  0  0  0  0  0
    4.4591    0.3444   -1.5305 O   0  0  0  0  0  0  0  0  0  0  0  0
    5.5796   -0.4967    0.4018 C   0  0  0  0  0  0  0  0  0  0  0  0
    6.0286   -1.7258    0.9125 C   0  0  0  0  0  0  0  0  0  0  0  0
    7.2827   -1.8378    1.5250 C   0  0  0  0  0  0  0  0  0  0  0  0
    8.1076   -0.7227    1.6344 C   0  0  0  0  0  0  0  0  0  0  0  0
    9.6469   -0.8656    2.3878 Cl  0  0  0  0  0  0  0  0  0  0  0  0
    7.6910    0.5058    1.1356 C   0  0  0  0  0  0  0  0  0  0  0  0
    6.4384    0.6160    0.5258 C   0  0  0  0  0  0  0  0  0  0  0  0
    3.3082    0.5882    0.5759 C   0  0  0  0  0  0  0  0  0  0  0  0
    1.9167    0.7533   -0.0406 C   0  0  0  0  0  0  0  0  0  0  0  0
   -3.6000    0.6823    0.8497 C   0  0  0  0  0  0  0  0  0  0  0  0
   -4.9859    0.5588    0.6131 C   0  0  0  0  0  0  0  0  0  0  0  0
   -5.9240    0.9608    1.5663 C   0  0  0  0  0  0  0  0  0  0  0  0
   -5.5004    1.5079    2.7725 C   0  0  0  0  0  0  0  0  0  0  0  0
   -4.1400    1.6608    3.0213 C   0  0  0  0  0  0  0  0  0  0  0  0
   -3.1985    1.2600    2.0682 C   0  0  0  0  0  0  0  0  0  0  0  0
   -2.6166    1.4025   -1.3141 C   0  0  0  0  0  0  0  0  0  0  0  0
   -3.4914    1.3825   -2.4181 C   0  0  0  0  0  0  0  0  0  0  0  0
   -3.5438    2.4393   -3.3332 C   0  0  0  0  0  0  0  0  0  0  0  0
   -2.7425    3.5601   -3.1550 C   0  0  0  0  0  0  0  0  0  0  0  0
   -1.8991    3.6302   -2.0530 C   0  0  0  0  0  0  0  0  0  0  0  0
   -1.8462    2.5723   -1.1391 C   0  0  0  0  0  0  0  0  0  0  0  0
   -4.7338   -3.7376   -0.3467 H   0  0  0  0  0  0  0  0  0  0  0  0
   -3.6965   -3.4665   -1.7586 H   0  0  0  0  0  0  0  0  0  0  0  0
   -3.0450   -4.3181   -0.3440 H   0  0  0  0  0  0  0  0  0  0  0  0
   -4.4021   -2.2579    1.7273 H   0  0  0  0  0  0  0  0  0  0  0  0
   -2.8076   -1.4890    1.8998 H   0  0  0  0  0  0  0  0  0  0  0  0
   -2.9161   -3.2370    1.7806 H   0  0  0  0  0  0  0  0  0  0  0  0
   -0.7517    0.9512    0.7634 H   0  0  0  0  0  0  0  0  0  0  0  0
   -1.0853   -0.7206    1.0650 H   0  0  0  0  0  0  0  0  0  0  0  0
   -0.0882    0.3051   -1.6540 H   0  0  0  0  0  0  0  0  0  0  0  0
   -0.4229   -1.3615   -1.1973 H   0  0  0  0  0  0  0  0  0  0  0  0
    1.6003   -2.3289   -1.3440 H   0  0  0  0  0  0  0  0  0  0  0  0
    2.1641   -0.8685   -2.1598 H   0  0  0  0  0  0  0  0  0  0  0  0
    4.0374   -2.2240   -1.3090 H   0  0  0  0  0  0  0  0  0  0  0  0
    3.3374   -2.2251    0.3164 H   0  0  0  0  0  0  0  0  0  0  0  0
    5.2572   -0.0583   -1.9148 H   0  0  0  0  0  0  0  0  0  0  0  0
    5.4185   -2.6232    0.8528 H   0  0  0  0  0  0  0  0  0  0  0  0
    7.6048   -2.7993    1.9166 H   0  0  0  0  0  0  0  0  0  0  0  0
    8.3302    1.3808    1.2171 H   0  0  0  0  0  0  0  0  0  0  0  0
    6.1293    1.5869    0.1386 H   0  0  0  0  0  0  0  0  0  0  0  0
    3.2091    0.1748    1.5888 H   0  0  0  0  0  0  0  0  0  0  0  0
    3.7444    1.5894    0.6810 H   0  0  0  0  0  0  0  0  0  0  0  0
    1.9870    1.3146   -0.9818 H   0  0  0  0  0  0  0  0  0  0  0  0
    1.3317    1.3674    0.6517 H   0  0  0  0  0  0  0  0  0  0  0  0
   -5.3514    0.1460   -0.3255 H   0  0  0  0  0  0  0  0  0  0  0  0
   -6.9860    0.8540    1.3607 H   0  0  0  0  0  0  0  0  0  0  0  0
   -6.2298    1.8261    3.5121 H   0  0  0  0  0  0  0  0  0  0  0  0
   -3.8068    2.1018    3.9575 H   0  0  0  0  0  0  0  0  0  0  0  0
   -2.1502    1.4132    2.3063 H   0  0  0  0  0  0  0  0  0  0  0  0
   -4.1578    0.5412   -2.5931 H   0  0  0  0  0  0  0  0  0  0  0  0
   -4.2188    2.3824   -4.1832 H   0  0  0  0  0  0  0  0  0  0  0  0
   -2.7866    4.3810   -3.8648 H   0  0  0  0  0  0  0  0  0  0  0  0
   -1.2868    4.5136   -1.8937 H   0  0  0  0  0  0  0  0  0  0  0  0
   -1.1976    2.6976   -0.2772 H   0  0  0  0  0  0  0  0  0  0  0  0
  1  2  1  0
  2  3  1  0
  2  4  1  0
  4  5  2  0
  4  6  1  0
  6  7  1  0
  7  8  1  0
  8  9  1  0
  9 10  1  0
 10 11  1  0
 11 12  1  0
 12 13  1  0
 12 14  1  0
 14 15  1  0
 15 16  2  0
 16 17  1  0
 17 18  1  0
 17 19  2  0
 19 20  1  0
 12 21  1  0
 21 22  1  0
  6 23  1  0
 23 24  2  0
 24 25  1  0
 25 26  2  0
 26 27  1  0
 27 28  2  0
  6 29  1  0
 29 30  2  0
 30 31  1  0
 31 32  2  0
 32 33  1  0
 33 34  2  0
 22  9  1  0
 28 23  1  0
 34 29  1  0
 20 14  2  0
  1 35  1  0
  1 36  1  0
  1 37  1  0
  3 38  1  0
  3 39  1  0
  3 40  1  0
  7 41  1  0
  7 42  1  0
  8 43  1  0
  8 44  1  0
 10 45  1  0
 10 46  1  0
 11 47  1  0
 11 48  1  0
 13 49  1  0
 15 50  1  0
 16 51  1  0
 19 52  1  0
 20 53  1  0
 21 54  1  0
 21 55  1  0
 22 56  1  0
 22 57  1  0
 24 58  1  0
 25 59  1  0
 26 60  1  0
 27 61  1  0
 28 62  1  0
 30 63  1  0
 31 64  1  0
 32 65  1  0
 33 66  1  0
 34 67  1  0
M  END
$$$$
OCNT-2328559
     RDKit          3D

 48 50  0  0  0  0  0  0  0  0999 V2000
   -0.7454   -0.2189    1.6272 C   0  0  0  0  0  0  0  0  0  0  0  0
   -1.2995    0.4805    0.3805 C   0  0  1  0  0  0  0  0  0  0  0  0
   -0.3056    0.5415   -0.7119 N   0  0  0  0  0  0  0  0  0  0  0  0
    0.7997    1.4607   -0.4355 C   0  0  0  0  0  0  0  0  0  0  0  0
    1.7735    1.5192   -1.6197 C   0  0  0  0  0  0  0  0  0  0  0  0
    2.4383    0.1820   -1.9698 C   0  0  0  0  0  0  0  0  0  0  0  0
    3.3495   -0.3418   -0.8861 C   0  0  0  0  0  0  0  0  0  0  0  0
    4.6388    0.1835   -0.7213 C   0  0  0  0  0  0  0  0  0  0  0  0
    5.4849   -0.2859    0.2974 C   0  0  0  0  0  0  0  0  0  0  0  0
    6.8782    0.2707    0.4493 C   0  0  0  0  0  0  0  0  0  0  0  0
    7.7861   -0.3813   -0.3285 F   0  0  0  0  0  0  0  0  0  0  0  0
    7.3532    0.1910    1.7243 F   0  0  0  0  0  0  0  0  0  0  0  0
    6.9683    1.5865    0.1044 F   0  0  0  0  0  0  0  0  0  0  0  0
    5.0255   -1.3034    1.1466 C   0  0  0  0  0  0  0  0  0  0  0  0
    3.7429   -1.8283    0.9913 C   0  0  0  0  0  0  0  0  0  0  0  0
    2.9096   -1.3488   -0.0184 C   0  0  0  0  0  0  0  0  0  0  0  0
   -2.5688   -0.2501   -0.0757 C   0  0  0  0  0  0  0  0  0  0  0  0
   -2.4286   -1.4045   -0.8764 C   0  0  0  0  0  0  0  0  0  0  0  0
   -3.5369   -2.1122   -1.3249 C   0  0  0  0  0  0  0  0  0  0  0  0
   -4.8126   -1.6884   -0.9728 C   0  0  0  0  0  0  0  0  0  0  0  0
   -4.9989   -0.5635   -0.1578 C   0  0  0  0  0  0  0  0  0  0  0  0
   -6.3028   -0.1752    0.1929 C   0  0  0  0  0  0  0  0  0  0  0  0
   -6.5298    0.9258    1.0144 C   0  0  0  0  0  0  0  0  0  0  0  0
   -5.4523    1.6509    1.4997 C   0  0  0  0  0  0  0  0  0  0  0  0
   -4.1488    1.2787    1.1573 C   0  0  0  0  0  0  0  0  0  0  0  0
   -3.8784    0.1717    0.3148 C   0  0  0  0  0  0  0  0  0  0  0  0
    0.0841    0.3398    2.0713 H   0  0  0  0  0  0  0  0  0  0  0  0
   -1.5173   -0.3129    2.3999 H   0  0  0  0  0  0  0  0  0  0  0  0
   -0.3869   -1.2292    1.3981 H   0  0  0  0  0  0  0  0  0  0  0  0
   -1.5531    1.5148    0.6291 H   0  0  0  0  0  0  0  0  0  0  0  0
   -0.7923    0.8629   -1.5505 H   0  0  0  0  0  0  0  0  0  0  0  0
    1.3470    1.1664    0.4647 H   0  0  0  0  0  0  0  0  0  0  0  0
    0.4082    2.4707   -0.2635 H   0  0  0  0  0  0  0  0  0  0  0  0
    1.2374    1.8825   -2.5061 H   0  0  0  0  0  0  0  0  0  0  0  0
    2.5444    2.2681   -1.3984 H   0  0  0  0  0  0  0  0  0  0  0  0
    3.0320    0.3110   -2.8844 H   0  0  0  0  0  0  0  0  0  0  0  0
    1.6818   -0.5713   -2.2218 H   0  0  0  0  0  0  0  0  0  0  0  0
    4.9900    0.9672   -1.3922 H   0  0  0  0  0  0  0  0  0  0  0  0
    5.6670   -1.6900    1.9371 H   0  0  0  0  0  0  0  0  0  0  0  0
    3.3899   -2.6118    1.6574 H   0  0  0  0  0  0  0  0  0  0  0  0
    1.9069   -1.7601   -0.1232 H   0  0  0  0  0  0  0  0  0  0  0  0
   -1.4363   -1.7561   -1.1555 H   0  0  0  0  0  0  0  0  0  0  0  0
   -3.4057   -2.9934   -1.9467 H   0  0  0  0  0  0  0  0  0  0  0  0
   -5.6679   -2.2551   -1.3347 H   0  0  0  0  0  0  0  0  0  0  0  0
   -7.1604   -0.7369   -0.1722 H   0  0  0  0  0  0  0  0  0  0  0  0
   -7.5449    1.2103    1.2772 H   0  0  0  0  0  0  0  0  0  0  0  0
   -5.6195    2.5070    2.1482 H   0  0  0  0  0  0  0  0  0  0  0  0
   -3.3448    1.8758    1.5771 H   0  0  0  0  0  0  0  0  0  0  0  0
  1  2  1  0
  2  3  1  0
  3  4  1  0
  4  5  1  0
  5  6  1  0
  6  7  1  0
  7  8  1  0
  8  9  2  0
  9 10  1  0
 10 11  1  0
 10 12  1  0
 10 13  1  0
  9 14  1  0
 14 15  2  0
 15 16  1  0
  2 17  1  0
 17 18  2  0
 18 19  1  0
 19 20  2  0
 20 21  1  0
 21 22  2  0
 22 23  1  0
 23 24  2  0
 24 25  1  0
 25 26  2  0
 16  7  2  0
 26 17  1  0
 26 21  1  0
  1 27  1  0
  1 28  1  0
  1 29  1  0
  2 30  1  1
  3 31  1  0
  4 32  1  0
  4 33  1  0
  5 34  1  0
  5 35  1  0
  6 36  1  0
  6 37  1  0
  8 38  1  0
 14 39  1  0
 15 40  1  0
 16 41  1  0
 18 42  1  0
 19 43  1  0
 20 44  1  0
 22 45  1  0
 23 46  1  0
 24 47  1  0
 25 48  1  0
M  END
$$$$
OCNT-2328568
     RDKit          3D

 63 65  0  0  0  0  0  0  0  0999 V2000
    3.0867    3.3409    2.2556 C   0  0  0  0  0  0  0  0  0  0  0  0
    2.1089    3.2948    1.0920 C   0  0  0  0  0  0  0  0  0  0  0  0
    2.5721    2.4102   -0.0701 C   0  0  0  0  0  0  0  0  0  0  0  0
    2.6539    0.9215    0.3015 C   0  0  0  0  0  0  0  0  0  0  0  0
    3.0452    0.0646   -0.8290 N   0  0  0  0  0  0  0  0  0  0  0  0
    3.4559   -1.2806   -0.3826 C   0  0  0  0  0  0  0  0  0  0  0  0
    4.9000   -1.2889    0.1418 C   0  0  0  0  0  0  0  0  0  0  0  0
    5.3495   -2.6646    0.6447 C   0  0  0  0  0  0  0  0  0  0  0  0
    5.4512   -3.7138   -0.4514 C   0  0  0  0  0  0  0  0  0  0  0  0
    2.0518   -0.0040   -1.9217 C   0  0  0  0  0  0  0  0  0  0  0  0
    0.6822   -0.6384   -1.6018 C   0  0  0  0  0  0  0  0  0  0  0  0
   -0.4182    0.3975   -1.3102 C   0  0  0  0  0  0  0  0  0  0  0  0
   -0.6911    1.1076   -2.5202 O   0  0  0  0  0  0  0  0  0  0  0  0
   -1.7315   -0.1346   -0.7315 C   0  0  0  0  0  0  0  0  0  0  0  0
   -2.0864   -1.4791   -0.9304 C   0  0  0  0  0  0  0  0  0  0  0  0
   -3.2626   -2.0539   -0.4116 C   0  0  0  0  0  0  0  0  0  0  0  0
   -3.5899   -3.4256   -0.6097 C   0  0  0  0  0  0  0  0  0  0  0  0
   -2.5674   -4.5017   -1.5122 Cl  0  0  0  0  0  0  0  0  0  0  0  0
   -4.7515   -3.9865   -0.0856 C   0  0  0  0  0  0  0  0  0  0  0  0
   -5.6071   -3.1883    0.6462 C   0  0  0  0  0  0  0  0  0  0  0  0
   -7.0477   -3.8585    1.3066 Cl  0  0  0  0  0  0  0  0  0  0  0  0
   -5.3108   -1.8406    0.8526 C   0  0  0  0  0  0  0  0  0  0  0  0
   -4.1390   -1.2264    0.3342 C   0  0  0  0  0  0  0  0  0  0  0  0
   -3.8217    0.1689    0.5257 C   0  0  0  0  0  0  0  0  0  0  0  0
   -4.6673    1.0589    1.2452 C   0  0  0  0  0  0  0  0  0  0  0  0
   -4.3825    2.4224    1.4298 C   0  0  0  0  0  0  0  0  0  0  0  0
   -5.3403    3.3073    2.1886 C   0  0  0  0  0  0  0  0  0  0  0  0
   -5.8597    2.6971    3.2903 F   0  0  0  0  0  0  0  0  0  0  0  0
   -6.4072    3.6816    1.4306 F   0  0  0  0  0  0  0  0  0  0  0  0
   -4.7725    4.4619    2.6354 F   0  0  0  0  0  0  0  0  0  0  0  0
   -3.2242    2.9354    0.8642 C   0  0  0  0  0  0  0  0  0  0  0  0
   -2.3668    2.0948    0.1557 C   0  0  0  0  0  0  0  0  0  0  0  0
   -2.6240    0.7115   -0.0212 C   0  0  0  0  0  0  0  0  0  0  0  0
    2.7499    4.0704    2.9992 H   0  0  0  0  0  0  0  0  0  0  0  0
    3.1622    2.3714    2.7561 H   0  0  0  0  0  0  0  0  0  0  0  0
    4.0851    3.6370    1.9189 H   0  0  0  0  0  0  0  0  0  0  0  0
    1.9709    4.3155    0.7150 H   0  0  0  0  0  0  0  0  0  0  0  0
    1.1299    2.9556    1.4500 H   0  0  0  0  0  0  0  0  0  0  0  0
    1.8654    2.5640   -0.8920 H   0  0  0  0  0  0  0  0  0  0  0  0
    3.5504    2.7556   -0.4273 H   0  0  0  0  0  0  0  0  0  0  0  0
    1.7113    0.5806    0.7449 H   0  0  0  0  0  0  0  0  0  0  0  0
    3.4039    0.8329    1.0936 H   0  0  0  0  0  0  0  0  0  0  0  0
    3.4112   -1.9747   -1.2302 H   0  0  0  0  0  0  0  0  0  0  0  0
    2.7703   -1.6702    0.3802 H   0  0  0  0  0  0  0  0  0  0  0  0
    5.5815   -0.9481   -0.6480 H   0  0  0  0  0  0  0  0  0  0  0  0
    5.0079   -0.5848    0.9742 H   0  0  0  0  0  0  0  0  0  0  0  0
    6.3356   -2.5558    1.1118 H   0  0  0  0  0  0  0  0  0  0  0  0
    4.6667   -3.0175    1.4262 H   0  0  0  0  0  0  0  0  0  0  0  0
    4.4697   -3.9577   -0.8676 H   0  0  0  0  0  0  0  0  0  0  0  0
    6.0981   -3.3712   -1.2648 H   0  0  0  0  0  0  0  0  0  0  0  0
    5.8764   -4.6381   -0.0471 H   0  0  0  0  0  0  0  0  0  0  0  0
    1.9241    0.9859   -2.3732 H   0  0  0  0  0  0  0  0  0  0  0  0
    2.5082   -0.5937   -2.7292 H   0  0  0  0  0  0  0  0  0  0  0  0
    0.3925   -1.2215   -2.4865 H   0  0  0  0  0  0  0  0  0  0  0  0
    0.7724   -1.3476   -0.7718 H   0  0  0  0  0  0  0  0  0  0  0  0
   -0.0028    1.1100   -0.5958 H   0  0  0  0  0  0  0  0  0  0  0  0
   -1.6484    1.0706   -2.6896 H   0  0  0  0  0  0  0  0  0  0  0  0
   -1.4175   -2.1082   -1.5138 H   0  0  0  0  0  0  0  0  0  0  0  0
   -4.9823   -5.0357   -0.2475 H   0  0  0  0  0  0  0  0  0  0  0  0
   -6.0275   -1.2709    1.4371 H   0  0  0  0  0  0  0  0  0  0  0  0
   -5.5948    0.7011    1.6884 H   0  0  0  0  0  0  0  0  0  0  0  0
   -2.9754    3.9907    0.9664 H   0  0  0  0  0  0  0  0  0  0  0  0
   -1.4825    2.5631   -0.2739 H   0  0  0  0  0  0  0  0  0  0  0  0
  1  2  1  0
  2  3  1  0
  3  4  1  0
  4  5  1  0
  5  6  1  0
  6  7  1  0
  7  8  1  0
  8  9  1  0
  5 10  1  0
 10 11  1  0
 11 12  1  0
 12 13  1  0
 12 14  1  0
 14 15  2  0
 15 16  1  0
 16 17  2  0
 17 18  1  0
 17 19  1  0
 19 20  2  0
 20 21  1  0
 20 22  1  0
 22 23  2  0
 23 24  1  0
 24 25  2  0
 25 26  1  0
 26 27  1  0
 27 28  1  0
 27 29  1  0
 27 30  1  0
 26 31  2  0
 31 32  1  0
 32 33  2  0
 33 14  1  0
 23 16  1  0
 33 24  1  0
  1 34  1  0
  1 35  1  0
  1 36  1  0
  2 37  1  0
  2 38  1  0
  3 39  1  0
  3 40  1  0
  4 41  1  0
  4 42  1  0
  6 43  1  0
  6 44  1  0
  7 45  1  0
  7 46  1  0
  8 47  1  0
  8 48  1  0
  9 49  1  0
  9 50  1  0
  9 51  1  0
 10 52  1  0
 10 53  1  0
 11 54  1  0
 11 55  1  0
 12 56  1  0
 13 57  1  0
 15 58  1  0
 19 59  1  0
 22 60  1  0
 25 61  1  0
 31 62  1  0
 32 63  1  0
M  END
$$$$
OCNT-2328587
     RDKit          3D

 53 56  0  0  0  0  0  0  0  0999 V2000
   -1.8520   -2.6330   -1.4961 C   0  0  0  0  0  0  0  0  0  0  0  0
   -1.6751   -1.2183   -1.8516 N   0  0  0  0  0  0  0  0  0  0  0  0
   -2.6898   -0.8358   -2.8369 C   0  0  0  0  0  0  0  0  0  0  0  0
   -1.6027   -0.3169   -0.6700 C   0  0  2  0  0  0  0  0  0  0  0  0
   -2.8765   -0.1163    0.1663 C   0  0  0  0  0  0  0  0  0  0  0  0
   -3.6688   -1.2578    0.2691 O   0  0  0  0  0  0  0  0  0  0  0  0
   -3.1995    1.0379    0.7968 C   0  0  0  0  0  0  0  0  0  0  0  0
   -4.4702    1.1100    1.5837 C   0  0  0  0  0  0  0  0  0  0  0  0
   -4.7750    2.2886    2.1786 N   0  0  0  0  0  0  0  0  0  0  0  0
   -5.2206    0.1423    1.6950 O   0  0  0  0  0  0  0  0  0  0  0  0
   -2.2691    2.1991    0.7073 C   0  0  0  0  0  0  0  0  0  0  0  0
   -2.6132    3.3172    1.1117 O   0  0  0  0  0  0  0  0  0  0  0  0
   -0.8715    1.9871    0.1025 C   0  0  1  0  0  0  0  0  0  0  0  0
   -0.4118    3.2717   -0.3535 O   0  0  0  0  0  0  0  0  0  0  0  0
    0.1622    1.4987    1.0918 C   0  0  0  0  0  0  0  0  0  0  0  0
   -0.1240    1.7371    2.4231 O   0  0  0  0  0  0  0  0  0  0  0  0
    1.2779    0.8663    0.6652 C   0  0  0  0  0  0  0  0  0  0  0  0
    2.2846    0.3773    1.6499 C   0  0  0  0  0  0  0  0  0  0  0  0
    2.1979    0.6723    2.8428 O   0  0  0  0  0  0  0  0  0  0  0  0
    3.4161   -0.4535    1.1640 C   0  0  0  0  0  0  0  0  0  0  0  0
    3.4107   -0.9813   -0.1438 C   0  0  0  0  0  0  0  0  0  0  0  0
    4.4993   -1.7785   -0.5462 C   0  0  0  0  0  0  0  0  0  0  0  0
    4.5847   -2.4940   -2.1186 Cl  0  0  0  0  0  0  0  0  0  0  0  0
    5.5692   -2.0258    0.3203 C   0  0  0  0  0  0  0  0  0  0  0  0
    5.5656   -1.4971    1.6074 C   0  0  0  0  0  0  0  0  0  0  0  0
    4.4914   -0.7220    2.0285 C   0  0  0  0  0  0  0  0  0  0  0  0
    4.5627   -0.2551    3.3135 O   0  0  0  0  0  0  0  0  0  0  0  0
    2.2261   -0.7369   -1.0442 C   0  0  1  0  0  0  0  0  0  0  0  0
    1.2987   -1.7823   -0.7915 O   0  0  0  0  0  0  0  0  0  0  0  0
    1.5964    0.6501   -0.7982 C   0  0  1  0  0  0  0  0  0  0  0  0
    0.4184    0.9240   -1.7671 C   0  0  0  0  0  0  0  0  0  0  0  0
   -0.9723    1.0463   -1.1001 C   0  0  1  0  0  0  0  0  0  0  0  0
   -1.5591   -3.2581   -2.3477 H   0  0  0  0  0  0  0  0  0  0  0  0
   -2.8831   -2.8966   -1.2442 H   0  0  0  0  0  0  0  0  0  0  0  0
   -1.2064   -2.9277   -0.6624 H   0  0  0  0  0  0  0  0  0  0  0  0
   -2.5023    0.1621   -3.2431 H   0  0  0  0  0  0  0  0  0  0  0  0
   -3.7068   -0.8602   -2.4315 H   0  0  0  0  0  0  0  0  0  0  0  0
   -2.6563   -1.5155   -3.6966 H   0  0  0  0  0  0  0  0  0  0  0  0
   -0.9015   -0.7934    0.0259 H   0  0  0  0  0  0  0  0  0  0  0  0
   -4.4621   -1.0667    0.8217 H   0  0  0  0  0  0  0  0  0  0  0  0
   -5.6258    2.3655    2.7172 H   0  0  0  0  0  0  0  0  0  0  0  0
   -4.1770    3.1083    2.0848 H   0  0  0  0  0  0  0  0  0  0  0  0
   -0.6832    3.9055    0.3428 H   0  0  0  0  0  0  0  0  0  0  0  0
    0.6444    1.4434    2.9651 H   0  0  0  0  0  0  0  0  0  0  0  0
    6.4082   -2.6397    0.0000 H   0  0  0  0  0  0  0  0  0  0  0  0
    6.3921   -1.6962    2.2849 H   0  0  0  0  0  0  0  0  0  0  0  0
    3.7167    0.1964    3.5267 H   0  0  0  0  0  0  0  0  0  0  0  0
    2.5240   -0.7855   -2.0975 H   0  0  0  0  0  0  0  0  0  0  0  0
    0.6333   -1.7683   -1.5071 H   0  0  0  0  0  0  0  0  0  0  0  0
    2.3757    1.3874   -1.0477 H   0  0  0  0  0  0  0  0  0  0  0  0
    0.4010    0.2057   -2.5940 H   0  0  0  0  0  0  0  0  0  0  0  0
    0.6283    1.8853   -2.2586 H   0  0  0  0  0  0  0  0  0  0  0  0
   -1.6300    1.5270   -1.8383 H   0  0  0  0  0  0  0  0  0  0  0  0
  1  2  1  0
  2  3  1  0
  2  4  1  0
  4  5  1  0
  5  6  1  0
  5  7  2  0
  7  8  1  0
  8  9  1  0
  8 10  2  0
  7 11  1  0
 11 12  2  0
 11 13  1  0
 13 14  1  6
 13 15  1  0
 15 16  1  0
 15 17  2  0
 17 18  1  0
 18 19  2  0
 18 20  1  0
 20 21  1  0
 21 22  2  0
 22 23  1  0
 22 24  1  0
 24 25  2  0
 25 26  1  0
 26 27  1  0
 21 28  1  0
 28 29  1  0
 28 30  1  0
 30 31  1  0
 31 32  1  0
 32  4  1  0
 32 13  1  0
 30 17  1  0
 26 20  2  0
  1 33  1  0
  1 34  1  0
  1 35  1  0
  3 36  1  0
  3 37  1  0
  3 38  1  0
  4 39  1  1
  6 40  1  0
  9 41  1  0
  9 42  1  0
 14 43  1  0
 16 44  1  0
 24 45  1  0
 25 46  1  0
 27 47  1  0
 28 48  1  6
 29 49  1  0
 30 50  1  6
 31 51  1  0
 31 52  1  0
 32 53  1  6
M  END
$$$$
OCNT-2328597
     RDKit          3D

 29 29  0  0  0  0  0  0  0  0999 V2000
    0.0414   -2.1651    0.0803 O   0  0  0  0  0  0  0  0  0  0  0  0
    0.1995   -0.6838   -0.0556 P   0  0  0  0  0  0  0  0  0  0  0  0
   -1.1308    0.2079    0.2626 N   0  0  0  0  0  0  0  0  0  0  0  0
   -1.3360    1.4909   -0.4174 C   0  0  0  0  0  0  0  0  0  0  0  0
   -2.0318    1.3387   -1.7752 C   0  0  0  0  0  0  0  0  0  0  0  0
   -3.7299    0.8280   -1.5880 Cl  0  0  0  0  0  0  0  0  0  0  0  0
   -1.7712    0.1738    1.5824 C   0  0  0  0  0  0  0  0  0  0  0  0
   -1.9332   -1.2311    2.1757 C   0  0  0  0  0  0  0  0  0  0  0  0
   -2.8287   -1.1422    3.7183 Cl  0  0  0  0  0  0  0  0  0  0  0  0
    1.3780   -0.0324    0.8719 N   0  0  0  0  0  0  0  0  0  0  0  0
    2.6544    0.2523    0.2315 C   0  0  0  0  0  0  0  0  0  0  0  0
    2.9680   -0.7976   -0.8292 C   0  0  0  0  0  0  0  0  0  0  0  0
    1.9377   -0.7883   -1.9601 C   0  0  0  0  0  0  0  0  0  0  0  0
    0.6723   -0.2930   -1.5478 O   0  0  0  0  0  0  0  0  0  0  0  0
   -1.9109    2.1953    0.1982 H   0  0  0  0  0  0  0  0  0  0  0  0
   -0.3641    1.9764   -0.5688 H   0  0  0  0  0  0  0  0  0  0  0  0
   -1.5345    0.6101   -2.4203 H   0  0  0  0  0  0  0  0  0  0  0  0
   -2.0421    2.3006   -2.2968 H   0  0  0  0  0  0  0  0  0  0  0  0
   -1.1953    0.7969    2.2779 H   0  0  0  0  0  0  0  0  0  0  0  0
   -2.7734    0.6159    1.5090 H   0  0  0  0  0  0  0  0  0  0  0  0
   -0.9670   -1.6879    2.4030 H   0  0  0  0  0  0  0  0  0  0  0  0
   -2.4958   -1.8858    1.5036 H   0  0  0  0  0  0  0  0  0  0  0  0
    1.0760    0.7721    1.4048 H   0  0  0  0  0  0  0  0  0  0  0  0
    2.6236    1.2462   -0.2295 H   0  0  0  0  0  0  0  0  0  0  0  0
    3.4425    0.2639    0.9910 H   0  0  0  0  0  0  0  0  0  0  0  0
    3.9714   -0.6466   -1.2428 H   0  0  0  0  0  0  0  0  0  0  0  0
    2.9787   -1.7908   -0.3613 H   0  0  0  0  0  0  0  0  0  0  0  0
    2.2872   -0.1337   -2.7652 H   0  0  0  0  0  0  0  0  0  0  0  0
    1.8138   -1.7905   -2.3830 H   0  0  0  0  0  0  0  0  0  0  0  0
  1  2  2  0
  2  3  1  0
  3  4  1  0
  4  5  1  0
  5  6  1  0
  3  7  1  0
  7  8  1  0
  8  9  1  0
  2 10  1  0
 10 11  1  0
 11 12  1  0
 12 13  1  0
 13 14  1  0
 14  2  1  0
  4 15  1  0
  4 16  1  0
  5 17  1  0
  5 18  1  0
  7 19  1  0
  7 20  1  0
  8 21  1  0
  8 22  1  0
 10 23  1  0
 11 24  1  0
 11 25  1  0
 12 26  1  0
 12 27  1  0
 13 28  1  0
 13 29  1  0
M  END
$$$$
OCNT-2328599
     RDKit          3D

 30 32  0  0  0  0  0  0  0  0999 V2000
   -3.4235   -1.7348   -0.6059 C   0  0  0  0  0  0  0  0  0  0  0  0
   -2.3667   -2.3275    0.0699 C   0  0  0  0  0  0  0  0  0  0  0  0
   -1.3309   -1.5375    0.5754 C   0  0  0  0  0  0  0  0  0  0  0  0
   -1.3205   -0.1308    0.4199 C   0  0  0  0  0  0  0  0  0  0  0  0
   -2.4085    0.4553   -0.2778 C   0  0  0  0  0  0  0  0  0  0  0  0
   -3.4433   -0.3525   -0.7781 C   0  0  0  0  0  0  0  0  0  0  0  0
   -2.4513    1.8433   -0.4737 C   0  0  0  0  0  0  0  0  0  0  0  0
   -1.4338    2.6644    0.0015 C   0  0  0  0  0  0  0  0  0  0  0  0
   -0.3599    2.1070    0.6846 C   0  0  0  0  0  0  0  0  0  0  0  0
   -0.2892    0.7200    0.9119 C   0  0  0  0  0  0  0  0  0  0  0  0
    0.9341    0.2029    1.6438 C   0  0  0  0  0  0  0  0  0  0  0  0
    2.1002   -0.0426    0.7131 C   0  0  0  0  0  0  0  0  0  0  0  0
    3.2452    0.5706    0.8833 N   0  0  0  0  0  0  0  0  0  0  0  0
    4.0977    0.0606   -0.2283 C   0  0  0  0  0  0  0  0  0  0  0  0
    3.1551   -0.6465   -1.2061 C   0  0  0  0  0  0  0  0  0  0  0  0
    2.0154   -0.9041   -0.3571 N   0  0  0  0  0  0  0  0  0  0  0  0
   -4.2330   -2.3444   -0.9982 H   0  0  0  0  0  0  0  0  0  0  0  0
   -2.3447   -3.4053    0.2098 H   0  0  0  0  0  0  0  0  0  0  0  0
   -0.5256   -2.0493    1.0964 H   0  0  0  0  0  0  0  0  0  0  0  0
   -4.2804    0.0942   -1.3108 H   0  0  0  0  0  0  0  0  0  0  0  0
   -3.2835    2.2993   -1.0059 H   0  0  0  0  0  0  0  0  0  0  0  0
   -1.4774    3.7378   -0.1621 H   0  0  0  0  0  0  0  0  0  0  0  0
    0.4347    2.7602    1.0434 H   0  0  0  0  0  0  0  0  0  0  0  0
    1.2362    0.9313    2.4075 H   0  0  0  0  0  0  0  0  0  0  0  0
    0.7208   -0.7180    2.1941 H   0  0  0  0  0  0  0  0  0  0  0  0
    4.8357   -0.6367    0.1837 H   0  0  0  0  0  0  0  0  0  0  0  0
    4.6292    0.8846   -0.7142 H   0  0  0  0  0  0  0  0  0  0  0  0
    3.5868   -1.5638   -1.6147 H   0  0  0  0  0  0  0  0  0  0  0  0
    2.8719    0.0211   -2.0267 H   0  0  0  0  0  0  0  0  0  0  0  0
    1.1093   -0.9591   -0.8130 H   0  0  0  0  0  0  0  0  0  0  0  0
  1  2  2  0
  2  3  1  0
  3  4  2  0
  4  5  1  0
  5  6  2  0
  5  7  1  0
  7  8  2  0
  8  9  1  0
  9 10  2  0
 10 11  1  0
 11 12  1  0
 12 13  2  0
 13 14  1  0
 14 15  1  0
 15 16  1  0
  6  1  1  0
 16 12  1  0
 10  4  1  0
  1 17  1  0
  2 18  1  0
  3 19  1  0
  6 20  1  0
  7 21  1  0
  8 22  1  0
  9 23  1  0
 11 24  1  0
 11 25  1  0
 14 26  1  0
 14 27  1  0
 15 28  1  0
 15 29  1  0
 16 30  1  0
M  END
$$$$
OCNT-2328617
     RDKit          3D

 31 32  0  0  0  0  0  0  0  0999 V2000
   -3.7520    0.1243    0.9566 C   0  0  0  0  0  0  0  0  0  0  0  0
   -2.4869   -0.3679    0.3040 C   0  0  0  0  0  0  0  0  0  0  0  0
   -1.3541    0.4658    0.1232 C   0  0  0  0  0  0  0  0  0  0  0  0
   -1.3775    1.9041    0.5828 C   0  0  0  0  0  0  0  0  0  0  0  0
   -0.1890   -0.0616   -0.5007 C   0  0  0  0  0  0  0  0  0  0  0  0
    1.0631    0.7847   -0.7423 C   0  0  2  0  0  0  0  0  0  0  0  0
    1.4056    0.9129   -2.2278 C   0  0  0  0  0  0  0  0  0  0  0  0
    2.1521    0.1576    0.0852 C   0  0  0  0  0  0  0  0  0  0  0  0
    2.3563    0.2454    1.4495 C   0  0  0  0  0  0  0  0  0  0  0  0
    3.4716   -0.5023    1.7011 N   0  0  0  0  0  0  0  0  0  0  0  0
    3.9144   -0.9962    0.5088 C   0  0  0  0  0  0  0  0  0  0  0  0
    3.1473   -0.6134   -0.4847 N   0  0  0  0  0  0  0  0  0  0  0  0
   -0.1980   -1.4063   -0.9277 C   0  0  0  0  0  0  0  0  0  0  0  0
   -1.3127   -2.2168   -0.7463 C   0  0  0  0  0  0  0  0  0  0  0  0
   -2.4483   -1.7006   -0.1354 C   0  0  0  0  0  0  0  0  0  0  0  0
   -4.1802    0.9511    0.3809 H   0  0  0  0  0  0  0  0  0  0  0  0
   -4.5124   -0.6625    1.0098 H   0  0  0  0  0  0  0  0  0  0  0  0
   -3.5496    0.4493    1.9821 H   0  0  0  0  0  0  0  0  0  0  0  0
   -1.2261    2.5732   -0.2707 H   0  0  0  0  0  0  0  0  0  0  0  0
   -0.5950    2.0730    1.3298 H   0  0  0  0  0  0  0  0  0  0  0  0
   -2.3218    2.1972    1.0470 H   0  0  0  0  0  0  0  0  0  0  0  0
    0.9277    1.8042   -0.3676 H   0  0  0  0  0  0  0  0  0  0  0  0
    0.5757    1.3699   -2.7781 H   0  0  0  0  0  0  0  0  0  0  0  0
    1.6216   -0.0534   -2.6968 H   0  0  0  0  0  0  0  0  0  0  0  0
    2.2903    1.5449   -2.3653 H   0  0  0  0  0  0  0  0  0  0  0  0
    1.8071    0.7470    2.2333 H   0  0  0  0  0  0  0  0  0  0  0  0
    3.8951   -0.6657    2.6037 H   0  0  0  0  0  0  0  0  0  0  0  0
    4.7921   -1.6231    0.4274 H   0  0  0  0  0  0  0  0  0  0  0  0
    0.6863   -1.8342   -1.3992 H   0  0  0  0  0  0  0  0  0  0  0  0
   -1.2922   -3.2504   -1.0799 H   0  0  0  0  0  0  0  0  0  0  0  0
   -3.3108   -2.3500   -0.0024 H   0  0  0  0  0  0  0  0  0  0  0  0
  1  2  1  0
  2  3  2  0
  3  4  1  0
  3  5  1  0
  5  6  1  0
  6  7  1  0
  6  8  1  0
  8  9  2  0
  9 10  1  0
 10 11  1  0
 11 12  2  0
  5 13  2  0
 13 14  1  0
 14 15  2  0
 15  2  1  0
 12  8  1  0
  1 16  1  0
  1 17  1  0
  1 18  1  0
  4 19  1  0
  4 20  1  0
  4 21  1  0
  6 22  1  1
  7 23  1  0
  7 24  1  0
  7 25  1  0
  9 26  1  0
 10 27  1  0
 11 28  1  0
 13 29  1  0
 14 30  1  0
 15 31  1  0
M  END
$$$$
OCNT-2328630
     RDKit          3D

 62 61  0  0  0  0  0  0  0  0999 V2000
    7.2259    0.9295   -1.2602 C   0  0  0  0  0  0  0  0  0  0  0  0
    6.9890   -0.5240   -0.8767 C   0  0  0  0  0  0  0  0  0  0  0  0
    7.1813   -0.8009    0.6166 C   0  0  0  0  0  0  0  0  0  0  0  0
    6.1684   -0.1355    1.5569 C   0  0  0  0  0  0  0  0  0  0  0  0
    4.9573   -1.0054    1.9145 C   0  0  0  0  0  0  0  0  0  0  0  0
    3.9698   -1.2993    0.7839 C   0  0  0  0  0  0  0  0  0  0  0  0
    3.3336   -0.0713    0.1245 C   0  0  0  0  0  0  0  0  0  0  0  0
    2.5679    0.8631    1.0667 C   0  0  0  0  0  0  0  0  0  0  0  0
    1.4247    0.2175    1.8565 C   0  0  0  0  0  0  0  0  0  0  0  0
    0.3456   -0.4810    1.0215 C   0  0  0  0  0  0  0  0  0  0  0  0
   -0.3929    0.4644    0.0706 C   0  0  0  0  0  0  0  0  0  0  0  0
   -1.4679   -0.2337   -0.7708 C   0  0  0  0  0  0  0  0  0  0  0  0
   -2.6619   -0.7250    0.0523 C   0  0  0  0  0  0  0  0  0  0  0  0
   -3.7419   -1.4083   -0.7931 C   0  0  0  0  0  0  0  0  0  0  0  0
   -4.4046   -0.5441   -1.8674 C   0  0  0  0  0  0  0  0  0  0  0  0
   -4.9846    0.8151   -1.4597 C   0  0  0  0  0  0  0  0  0  0  0  0
   -6.2675    0.7966   -0.6057 N   0  0  0  0  0  0  0  0  0  0  0  0
   -6.8990    2.1957   -0.7022 C   0  0  0  0  0  0  0  0  0  0  0  0
   -7.2891   -0.2125   -1.1124 C   0  0  0  0  0  0  0  0  0  0  0  0
   -5.9772    0.5367    0.8671 C   0  0  0  0  0  0  0  0  0  0  0  0
    7.1763    1.0422   -2.3480 H   0  0  0  0  0  0  0  0  0  0  0  0
    6.4723    1.5917   -0.8255 H   0  0  0  0  0  0  0  0  0  0  0  0
    8.2139    1.2669   -0.9313 H   0  0  0  0  0  0  0  0  0  0  0  0
    5.9946   -0.8310   -1.2100 H   0  0  0  0  0  0  0  0  0  0  0  0
    7.7049   -1.1426   -1.4320 H   0  0  0  0  0  0  0  0  0  0  0  0
    7.1825   -1.8851    0.7818 H   0  0  0  0  0  0  0  0  0  0  0  0
    8.1847   -0.4524    0.8944 H   0  0  0  0  0  0  0  0  0  0  0  0
    6.6923    0.0656    2.5013 H   0  0  0  0  0  0  0  0  0  0  0  0
    5.8486    0.8422    1.1863 H   0  0  0  0  0  0  0  0  0  0  0  0
    5.3156   -1.9619    2.3162 H   0  0  0  0  0  0  0  0  0  0  0  0
    4.4210   -0.5234    2.7409 H   0  0  0  0  0  0  0  0  0  0  0  0
    3.1765   -1.9442    1.1812 H   0  0  0  0  0  0  0  0  0  0  0  0
    4.4669   -1.8986    0.0134 H   0  0  0  0  0  0  0  0  0  0  0  0
    2.6614   -0.4148   -0.6708 H   0  0  0  0  0  0  0  0  0  0  0  0
    4.1086    0.5146   -0.3819 H   0  0  0  0  0  0  0  0  0  0  0  0
    3.2691    1.3137    1.7794 H   0  0  0  0  0  0  0  0  0  0  0  0
    2.1745    1.7008    0.4786 H   0  0  0  0  0  0  0  0  0  0  0  0
    0.9490    0.9942    2.4687 H   0  0  0  0  0  0  0  0  0  0  0  0
    1.8397   -0.5093    2.5648 H   0  0  0  0  0  0  0  0  0  0  0  0
    0.7838   -1.3105    0.4555 H   0  0  0  0  0  0  0  0  0  0  0  0
   -0.3687   -0.9286    1.7216 H   0  0  0  0  0  0  0  0  0  0  0  0
   -0.8461    1.2853    0.6394 H   0  0  0  0  0  0  0  0  0  0  0  0
    0.3244    0.9173   -0.6231 H   0  0  0  0  0  0  0  0  0  0  0  0
   -1.0210   -1.0737   -1.3160 H   0  0  0  0  0  0  0  0  0  0  0  0
   -1.8141    0.4844   -1.5227 H   0  0  0  0  0  0  0  0  0  0  0  0
   -2.3194   -1.4547    0.7945 H   0  0  0  0  0  0  0  0  0  0  0  0
   -3.0904    0.1097    0.6160 H   0  0  0  0  0  0  0  0  0  0  0  0
   -3.2907   -2.2765   -1.2918 H   0  0  0  0  0  0  0  0  0  0  0  0
   -4.5061   -1.8276   -0.1322 H   0  0  0  0  0  0  0  0  0  0  0  0
   -5.1650   -1.1438   -2.3803 H   0  0  0  0  0  0  0  0  0  0  0  0
   -3.6505   -0.3465   -2.6410 H   0  0  0  0  0  0  0  0  0  0  0  0
   -4.2503    1.4350   -0.9339 H   0  0  0  0  0  0  0  0  0  0  0  0
   -5.2503    1.3429   -2.3846 H   0  0  0  0  0  0  0  0  0  0  0  0
   -7.1644    2.3850   -1.7467 H   0  0  0  0  0  0  0  0  0  0  0  0
   -6.1660    2.9279   -0.3504 H   0  0  0  0  0  0  0  0  0  0  0  0
   -7.7955    2.2185   -0.0750 H   0  0  0  0  0  0  0  0  0  0  0  0
   -6.9095   -1.2216   -0.9324 H   0  0  0  0  0  0  0  0  0  0  0  0
   -8.2222   -0.0689   -0.5587 H   0  0  0  0  0  0  0  0  0  0  0  0
   -7.4486   -0.0370   -2.1801 H   0  0  0  0  0  0  0  0  0  0  0  0
   -5.2156    1.2458    1.2033 H   0  0  0  0  0  0  0  0  0  0  0  0
   -6.9032    0.6823    1.4327 H   0  0  0  0  0  0  0  0  0  0  0  0
   -5.6397   -0.4905    0.9944 H   0  0  0  0  0  0  0  0  0  0  0  0
  1  2  1  0
  2  3  1  0
  3  4  1  0
  4  5  1  0
  5  6  1  0
  6  7  1  0
  7  8  1  0
  8  9  1  0
  9 10  1  0
 10 11  1  0
 11 12  1  0
 12 13  1  0
 13 14  1  0
 14 15  1  0
 15 16  1  0
 16 17  1  0
 17 18  1  0
 17 19  1  0
 17 20  1  0
  1 21  1  0
  1 22  1  0
  1 23  1  0
  2 24  1  0
  2 25  1  0
  3 26  1  0
  3 27  1  0
  4 28  1  0
  4 29  1  0
  5 30  1  0
  5 31  1  0
  6 32  1  0
  6 33  1  0
  7 34  1  0
  7 35  1  0
  8 36  1  0
  8 37  1  0
  9 38  1  0
  9 39  1  0
 10 40  1  0
 10 41  1  0
 11 42  1  0
 11 43  1  0
 12 44  1  0
 12 45  1  0
 13 46  1  0
 13 47  1  0
 14 48  1  0
 14 49  1  0
 15 50  1  0
 15 51  1  0
 16 52  1  0
 16 53  1  0
 18 54  1  0
 18 55  1  0
 18 56  1  0
 19 57  1  0
 19 58  1  0
 19 59  1  0
 20 60  1  0
 20 61  1  0
 20 62  1  0
M  CHG  1  17   1
M  END
$$$$
OCNT-2328635
     RDKit          3D

 33 33  0  0  0  0  0  0  0  0999 V2000
   -4.3820    0.1691   -0.5384 C   0  0  0  0  0  0  0  0  0  0  0  0
   -3.5729   -0.4108    0.6146 C   0  0  0  0  0  0  0  0  0  0  0  0
   -3.7757   -1.9084    0.8076 C   0  0  0  0  0  0  0  0  0  0  0  0
   -2.1650   -0.0192    0.5353 N   0  0  0  0  0  0  0  0  0  0  0  0
   -1.3058   -0.5049   -0.2806 C   0  0  0  0  0  0  0  0  0  0  0  0
   -1.5154   -1.4352   -1.2447 N   0  0  0  0  0  0  0  0  0  0  0  0
   -0.0125   -0.0753   -0.2200 N   0  0  0  0  0  0  0  0  0  0  0  0
    0.3524    1.0277    0.3454 C   0  0  0  0  0  0  0  0  0  0  0  0
   -0.4716    1.9442    0.9401 N   0  0  0  0  0  0  0  0  0  0  0  0
    1.6379    1.4984    0.4207 N   0  0  0  0  0  0  0  0  0  0  0  0
    2.8286    0.8835   -0.0076 C   0  0  0  0  0  0  0  0  0  0  0  0
    3.9623    1.6856   -0.2256 C   0  0  0  0  0  0  0  0  0  0  0  0
    5.1808    1.1279   -0.6278 C   0  0  0  0  0  0  0  0  0  0  0  0
    5.2843   -0.2476   -0.8047 C   0  0  0  0  0  0  0  0  0  0  0  0
    6.7800   -0.9387   -1.2974 Cl  0  0  0  0  0  0  0  0  0  0  0  0
    4.1832   -1.0652   -0.5761 C   0  0  0  0  0  0  0  0  0  0  0  0
    2.9669   -0.5001   -0.1744 C   0  0  0  0  0  0  0  0  0  0  0  0
   -5.4528    0.0083   -0.3739 H   0  0  0  0  0  0  0  0  0  0  0  0
   -4.2125    1.2479   -0.6250 H   0  0  0  0  0  0  0  0  0  0  0  0
   -4.1267   -0.2820   -1.5003 H   0  0  0  0  0  0  0  0  0  0  0  0
   -3.9525    0.0649    1.5283 H   0  0  0  0  0  0  0  0  0  0  0  0
   -4.8104   -2.1152    1.1024 H   0  0  0  0  0  0  0  0  0  0  0  0
   -3.1182   -2.2937    1.5941 H   0  0  0  0  0  0  0  0  0  0  0  0
   -3.5840   -2.4808   -0.1038 H   0  0  0  0  0  0  0  0  0  0  0  0
   -0.7466   -1.4325   -1.9042 H   0  0  0  0  0  0  0  0  0  0  0  0
   -2.4134   -1.3787   -1.6962 H   0  0  0  0  0  0  0  0  0  0  0  0
   -1.4108    1.5342    1.0054 H   0  0  0  0  0  0  0  0  0  0  0  0
   -0.1657    2.1654    1.8802 H   0  0  0  0  0  0  0  0  0  0  0  0
    1.6828    2.5066    0.4684 H   0  0  0  0  0  0  0  0  0  0  0  0
    3.9065    2.7631   -0.0900 H   0  0  0  0  0  0  0  0  0  0  0  0
    6.0392    1.7718   -0.7977 H   0  0  0  0  0  0  0  0  0  0  0  0
    4.2577   -2.1421   -0.6997 H   0  0  0  0  0  0  0  0  0  0  0  0
    2.1320   -1.1681    0.0205 H   0  0  0  0  0  0  0  0  0  0  0  0
  1  2  1  0
  2  3  1  0
  2  4  1  0
  4  5  2  3
  5  6  1  0
  5  7  1  0
  7  8  2  3
  8  9  1  0
  8 10  1  0
 10 11  1  0
 11 12  1  0
 12 13  2  0
 13 14  1  0
 14 15  1  0
 14 16  2  0
 16 17  1  0
 17 11  2  0
  1 18  1  0
  1 19  1  0
  1 20  1  0
  2 21  1  0
  3 22  1  0
  3 23  1  0
  3 24  1  0
  6 25  1  0
  6 26  1  0
  9 27  1  0
  9 28  1  0
 10 29  1  0
 12 30  1  0
 13 31  1  0
 16 32  1  0
 17 33  1  0
M  END
$$$$
OCNT-2328651
     RDKit          3D

 49 50  0  0  0  0  0  0  0  0999 V2000
    3.5963    1.8994    1.2804 C   0  0  0  0  0  0  0  0  0  0  0  0
    3.4284    0.7172    2.2211 C   0  0  0  0  0  0  0  0  0  0  0  0
    3.5016   -0.6544    1.5417 C   0  0  0  0  0  0  0  0  0  0  0  0
    2.2567   -1.0501    0.7288 C   0  0  0  0  0  0  0  0  0  0  0  0
    2.0490   -0.2432   -0.4862 N   0  0  0  0  0  0  0  0  0  0  0  0
    2.9905   -0.5920   -1.5639 C   0  0  0  0  0  0  0  0  0  0  0  0
    2.7199   -1.9563   -2.2078 C   0  0  0  0  0  0  0  0  0  0  0  0
    1.2666   -2.0996   -2.6492 C   0  0  0  0  0  0  0  0  0  0  0  0
    0.2922   -1.6753   -1.5506 C   0  0  0  0  0  0  0  0  0  0  0  0
    0.6553   -0.2813   -1.0104 C   0  0  1  0  0  0  0  0  0  0  0  0
   -0.3993    0.2925   -0.0132 C   0  0  0  0  0  0  0  0  0  0  0  0
   -0.1109    0.8053    1.0647 O   0  0  0  0  0  0  0  0  0  0  0  0
   -1.6913    0.2477   -0.5330 N   0  0  0  0  0  0  0  0  0  0  0  0
   -2.8741    0.6294    0.1496 C   0  0  0  0  0  0  0  0  0  0  0  0
   -3.8624    1.3240   -0.5927 C   0  0  0  0  0  0  0  0  0  0  0  0
   -3.6807    1.6811   -2.0453 C   0  0  0  0  0  0  0  0  0  0  0  0
   -5.0478    1.7350    0.0395 C   0  0  0  0  0  0  0  0  0  0  0  0
   -5.2672    1.4608    1.3833 C   0  0  0  0  0  0  0  0  0  0  0  0
   -4.3181    0.7440    2.1031 C   0  0  0  0  0  0  0  0  0  0  0  0
   -3.1310    0.2910    1.4965 C   0  0  0  0  0  0  0  0  0  0  0  0
   -2.2339   -0.5716    2.3442 C   0  0  0  0  0  0  0  0  0  0  0  0
    3.7163    2.8214    1.8590 H   0  0  0  0  0  0  0  0  0  0  0  0
    4.4819    1.7806    0.6485 H   0  0  0  0  0  0  0  0  0  0  0  0
    2.7225    2.0345    0.6384 H   0  0  0  0  0  0  0  0  0  0  0  0
    4.2325    0.7654    2.9661 H   0  0  0  0  0  0  0  0  0  0  0  0
    2.4865    0.8158    2.7730 H   0  0  0  0  0  0  0  0  0  0  0  0
    4.4120   -0.7268    0.9371 H   0  0  0  0  0  0  0  0  0  0  0  0
    3.6154   -1.4045    2.3358 H   0  0  0  0  0  0  0  0  0  0  0  0
    2.3281   -2.1167    0.4875 H   0  0  0  0  0  0  0  0  0  0  0  0
    1.4036   -0.9763    1.4102 H   0  0  0  0  0  0  0  0  0  0  0  0
    4.0266   -0.5515   -1.2118 H   0  0  0  0  0  0  0  0  0  0  0  0
    2.9274    0.1828   -2.3397 H   0  0  0  0  0  0  0  0  0  0  0  0
    3.3775   -2.0869   -3.0752 H   0  0  0  0  0  0  0  0  0  0  0  0
    2.9702   -2.7625   -1.5089 H   0  0  0  0  0  0  0  0  0  0  0  0
    1.0991   -1.4746   -3.5354 H   0  0  0  0  0  0  0  0  0  0  0  0
    1.0666   -3.1343   -2.9492 H   0  0  0  0  0  0  0  0  0  0  0  0
    0.2925   -2.4137   -0.7395 H   0  0  0  0  0  0  0  0  0  0  0  0
   -0.7213   -1.6868   -1.9670 H   0  0  0  0  0  0  0  0  0  0  0  0
    0.6189    0.4287   -1.8511 H   0  0  0  0  0  0  0  0  0  0  0  0
   -1.7295    0.2971   -1.5409 H   0  0  0  0  0  0  0  0  0  0  0  0
   -2.7756    2.2821   -2.1801 H   0  0  0  0  0  0  0  0  0  0  0  0
   -4.5215    2.2707   -2.4263 H   0  0  0  0  0  0  0  0  0  0  0  0
   -3.6156    0.7731   -2.6534 H   0  0  0  0  0  0  0  0  0  0  0  0
   -5.8062    2.2862   -0.5125 H   0  0  0  0  0  0  0  0  0  0  0  0
   -6.1811    1.7936    1.8677 H   0  0  0  0  0  0  0  0  0  0  0  0
   -4.5158    0.5161    3.1491 H   0  0  0  0  0  0  0  0  0  0  0  0
   -1.6687   -1.2887    1.7421 H   0  0  0  0  0  0  0  0  0  0  0  0
   -1.5525    0.0461    2.9359 H   0  0  0  0  0  0  0  0  0  0  0  0
   -2.8296   -1.1746    3.0399 H   0  0  0  0  0  0  0  0  0  0  0  0
  1  2  1  0
  2  3  1  0
  3  4  1  0
  4  5  1  0
  5  6  1  0
  6  7  1  0
  7  8  1  0
  8  9  1  0
  9 10  1  0
 10 11  1  0
 11 12  2  0
 11 13  1  0
 13 14  1  0
 14 15  2  0
 15 16  1  0
 15 17  1  0
 17 18  2  0
 18 19  1  0
 19 20  2  0
 20 21  1  0
 10  5  1  0
 20 14  1  0
  1 22  1  0
  1 23  1  0
  1 24  1  0
  2 25  1  0
  2 26  1  0
  3 27  1  0
  3 28  1  0
  4 29  1  0
  4 30  1  0
  6 31  1  0
  6 32  1  0
  7 33  1  0
  7 34  1  0
  8 35  1  0
  8 36  1  0
  9 37  1  0
  9 38  1  0
 10 39  1  6
 13 40  1  0
 16 41  1  0
 16 42  1  0
 16 43  1  0
 17 44  1  0
 18 45  1  0
 19 46  1  0
 21 47  1  0
 21 48  1  0
 21 49  1  0
M  END
$$$$
OCNT-2328652
     RDKit          3D

 50 52  0  0  0  0  0  0  0  0999 V2000
   -3.2687   -0.5287    0.8172 C   0  0  0  0  0  0  0  0  0  0  0  0
   -3.5808   -1.3171   -0.4583 C   0  0  0  0  0  0  0  0  0  0  0  0
   -5.0981   -1.3430   -0.6731 C   0  0  0  0  0  0  0  0  0  0  0  0
   -3.1630   -2.6787   -0.2668 O   0  0  0  0  0  0  0  0  0  0  0  0
   -2.8938   -0.7331   -1.7226 C   0  0  0  0  0  0  0  0  0  0  0  0
   -1.4797   -1.0755   -1.8202 N   0  0  0  0  0  0  0  0  0  0  0  0
   -0.5501   -0.3402   -1.1233 C   0  0  0  0  0  0  0  0  0  0  0  0
    0.5801   -0.9643   -0.8317 N   0  0  0  0  0  0  0  0  0  0  0  0
    1.4930   -0.2657   -0.1679 C   0  0  0  0  0  0  0  0  0  0  0  0
    2.7192   -0.8257    0.1918 N   0  0  0  0  0  0  0  0  0  0  0  0
    3.3551   -2.0348   -0.1148 C   0  0  0  0  0  0  0  0  0  0  0  0
    2.8374   -2.9878   -0.9876 C   0  0  0  0  0  0  0  0  0  0  0  0
    3.5334   -4.1680   -1.1940 C   0  0  0  0  0  0  0  0  0  0  0  0
    4.6997   -4.4695   -0.5890 N   0  0  0  0  0  0  0  0  0  0  0  0
    5.2136   -3.5501    0.2713 C   0  0  0  0  0  0  0  0  0  0  0  0
    6.5136   -3.8493    1.0050 C   0  0  0  0  0  0  0  0  0  0  0  0
    7.3535   -2.7705    1.0349 F   0  0  0  0  0  0  0  0  0  0  0  0
    6.3086   -4.1805    2.3134 F   0  0  0  0  0  0  0  0  0  0  0  0
    7.2448   -4.8668    0.4698 F   0  0  0  0  0  0  0  0  0  0  0  0
    4.5606   -2.3405    0.5295 C   0  0  0  0  0  0  0  0  0  0  0  0
    1.3159    0.9884    0.2304 N   0  0  0  0  0  0  0  0  0  0  0  0
    0.1396    1.5333   -0.0933 C   0  0  0  0  0  0  0  0  0  0  0  0
   -0.1301    2.9242    0.3531 C   0  0  0  0  0  0  0  0  0  0  0  0
    0.8644    3.7318    0.9070 C   0  0  0  0  0  0  0  0  0  0  0  0
    0.5544    5.0283    1.3102 C   0  0  0  0  0  0  0  0  0  0  0  0
   -0.7444    5.4985    1.1583 C   0  0  0  0  0  0  0  0  0  0  0  0
   -1.7091    4.6552    0.6103 C   0  0  0  0  0  0  0  0  0  0  0  0
   -3.1287    5.1765    0.4256 C   0  0  0  0  0  0  0  0  0  0  0  0
   -3.5536    5.9223    1.4896 F   0  0  0  0  0  0  0  0  0  0  0  0
   -3.2473    5.9948   -0.6599 F   0  0  0  0  0  0  0  0  0  0  0  0
   -4.0678    4.2014    0.2664 F   0  0  0  0  0  0  0  0  0  0  0  0
   -1.4055    3.3876    0.2080 N   0  0  0  0  0  0  0  0  0  0  0  0
   -0.8163    0.9034   -0.7734 N   0  0  0  0  0  0  0  0  0  0  0  0
   -2.2177   -0.6225    1.1065 H   0  0  0  0  0  0  0  0  0  0  0  0
   -3.8415   -0.9240    1.6645 H   0  0  0  0  0  0  0  0  0  0  0  0
   -3.5126    0.5327    0.7051 H   0  0  0  0  0  0  0  0  0  0  0  0
   -5.6079   -1.7908    0.1879 H   0  0  0  0  0  0  0  0  0  0  0  0
   -5.3607   -1.9622   -1.5386 H   0  0  0  0  0  0  0  0  0  0  0  0
   -5.4997   -0.3366   -0.8301 H   0  0  0  0  0  0  0  0  0  0  0  0
   -2.2458   -2.6485    0.0576 H   0  0  0  0  0  0  0  0  0  0  0  0
   -3.3612   -1.1847   -2.6069 H   0  0  0  0  0  0  0  0  0  0  0  0
   -3.0703    0.3461   -1.8111 H   0  0  0  0  0  0  0  0  0  0  0  0
   -1.2575   -2.0621   -1.8138 H   0  0  0  0  0  0  0  0  0  0  0  0
    3.2606   -0.1398    0.6988 H   0  0  0  0  0  0  0  0  0  0  0  0
    1.9093   -2.8351   -1.5248 H   0  0  0  0  0  0  0  0  0  0  0  0
    3.1539   -4.9253   -1.8751 H   0  0  0  0  0  0  0  0  0  0  0  0
    4.9986   -1.6416    1.2380 H   0  0  0  0  0  0  0  0  0  0  0  0
    1.8794    3.3622    1.0227 H   0  0  0  0  0  0  0  0  0  0  0  0
    1.3233    5.6667    1.7380 H   0  0  0  0  0  0  0  0  0  0  0  0
   -0.9999    6.5095    1.4655 H   0  0  0  0  0  0  0  0  0  0  0  0
  1  2  1  0
  2  3  1  0
  2  4  1  0
  2  5  1  0
  5  6  1  0
  6  7  1  0
  7  8  1  0
  8  9  2  0
  9 10  1  0
 10 11  1  0
 11 12  2  0
 12 13  1  0
 13 14  2  0
 14 15  1  0
 15 16  1  0
 16 17  1  0
 16 18  1  0
 16 19  1  0
 15 20  2  0
  9 21  1  0
 21 22  2  0
 22 23  1  0
 23 24  1  0
 24 25  2  0
 25 26  1  0
 26 27  2  0
 27 28  1  0
 28 29  1  0
 28 30  1  0
 28 31  1  0
 27 32  1  0
 22 33  1  0
 33  7  2  0
 20 11  1  0
 32 23  2  0
  1 34  1  0
  1 35  1  0
  1 36  1  0
  3 37  1  0
  3 38  1  0
  3 39  1  0
  4 40  1  0
  5 41  1  0
  5 42  1  0
  6 43  1  0
 10 44  1  0
 12 45  1  0
 13 46  1  0
 20 47  1  0
 24 48  1  0
 25 49  1  0
 26 50  1  0
M  END
$$$$
OCNT-2328659
     RDKit          3D

 42 44  0  0  0  0  0  0  0  0999 V2000
    4.7204   -0.0937    0.7137 C   0  0  0  0  0  0  0  0  0  0  0  0
    3.6067   -0.4534   -0.1673 N   0  0  0  0  0  0  0  0  0  0  0  0
    4.1189   -1.1200   -1.3659 C   0  0  0  0  0  0  0  0  0  0  0  0
    2.8180    0.7510   -0.5002 C   0  0  0  0  0  0  0  0  0  0  0  0
    1.4900    0.4852   -1.2368 C   0  0  0  0  0  0  0  0  0  0  0  0
    0.5562   -0.4151   -0.4647 C   0  0  0  0  0  0  0  0  0  0  0  0
   -0.6413   -0.1204    0.0931 C   0  0  0  0  0  0  0  0  0  0  0  0
   -1.4299   -1.2371    0.6885 C   0  0  0  0  0  0  0  0  0  0  0  0
   -2.8118   -1.3863    0.4439 C   0  0  0  0  0  0  0  0  0  0  0  0
   -3.5004   -2.4570    1.0555 C   0  0  0  0  0  0  0  0  0  0  0  0
   -2.8438   -3.3629    1.8872 C   0  0  0  0  0  0  0  0  0  0  0  0
   -1.4884   -3.2061    2.1406 C   0  0  0  0  0  0  0  0  0  0  0  0
   -0.7915   -2.1496    1.5535 C   0  0  0  0  0  0  0  0  0  0  0  0
   -3.6508   -0.4177   -0.3752 C   0  0  0  0  0  0  0  0  0  0  0  0
   -2.9809    0.3600   -1.3771 O   0  0  0  0  0  0  0  0  0  0  0  0
   -2.3568    1.4323   -0.7933 C   0  0  0  0  0  0  0  0  0  0  0  0
   -1.1984    1.2421   -0.0336 C   0  0  0  0  0  0  0  0  0  0  0  0
   -0.6102    2.3485    0.5908 C   0  0  0  0  0  0  0  0  0  0  0  0
   -1.1475    3.6259    0.4091 C   0  0  0  0  0  0  0  0  0  0  0  0
   -2.2748    3.8052   -0.3951 C   0  0  0  0  0  0  0  0  0  0  0  0
   -2.8814    2.7061   -1.0023 C   0  0  0  0  0  0  0  0  0  0  0  0
    4.3489    0.3534    1.6425 H   0  0  0  0  0  0  0  0  0  0  0  0
    5.4101    0.6146    0.2403 H   0  0  0  0  0  0  0  0  0  0  0  0
    5.2865   -0.9860    1.0037 H   0  0  0  0  0  0  0  0  0  0  0  0
    4.7384   -0.4536   -1.9768 H   0  0  0  0  0  0  0  0  0  0  0  0
    3.3034   -1.5038   -1.9865 H   0  0  0  0  0  0  0  0  0  0  0  0
    4.7235   -1.9921   -1.0912 H   0  0  0  0  0  0  0  0  0  0  0  0
    2.5721    1.2800    0.4303 H   0  0  0  0  0  0  0  0  0  0  0  0
    3.4215    1.4442   -1.1013 H   0  0  0  0  0  0  0  0  0  0  0  0
    1.0258    1.4493   -1.4678 H   0  0  0  0  0  0  0  0  0  0  0  0
    1.6820    0.0241   -2.2127 H   0  0  0  0  0  0  0  0  0  0  0  0
    0.9210   -1.4414   -0.4194 H   0  0  0  0  0  0  0  0  0  0  0  0
   -4.5686   -2.5846    0.8880 H   0  0  0  0  0  0  0  0  0  0  0  0
   -3.3936   -4.1807    2.3452 H   0  0  0  0  0  0  0  0  0  0  0  0
   -0.9703   -3.8984    2.7986 H   0  0  0  0  0  0  0  0  0  0  0  0
    0.2661   -2.0360    1.7861 H   0  0  0  0  0  0  0  0  0  0  0  0
   -4.3966   -1.0024   -0.9283 H   0  0  0  0  0  0  0  0  0  0  0  0
   -4.2160    0.2354    0.3055 H   0  0  0  0  0  0  0  0  0  0  0  0
    0.2708    2.2192    1.2142 H   0  0  0  0  0  0  0  0  0  0  0  0
   -0.6818    4.4823    0.8901 H   0  0  0  0  0  0  0  0  0  0  0  0
   -2.6836    4.8013   -0.5438 H   0  0  0  0  0  0  0  0  0  0  0  0
   -3.7623    2.8379   -1.6230 H   0  0  0  0  0  0  0  0  0  0  0  0
  1  2  1  0
  2  3  1  0
  2  4  1  0
  4  5  1  0
  5  6  1  0
  6  7  2  3
  7  8  1  0
  8  9  1  0
  9 10  2  0
 10 11  1  0
 11 12  2  0
 12 13  1  0
  9 14  1  0
 14 15  1  0
 15 16  1  0
 16 17  1  0
 17 18  2  0
 18 19  1  0
 19 20  2  0
 20 21  1  0
 17  7  1  0
 13  8  2  0
 21 16  2  0
  1 22  1  0
  1 23  1  0
  1 24  1  0
  3 25  1  0
  3 26  1  0
  3 27  1  0
  4 28  1  0
  4 29  1  0
  5 30  1  0
  5 31  1  0
  6 32  1  0
 10 33  1  0
 11 34  1  0
 12 35  1  0
 13 36  1  0
 14 37  1  0
 14 38  1  0
 18 39  1  0
 19 40  1  0
 20 41  1  0
 21 42  1  0
M  END
$$$$
OCNT-2328663
     RDKit          3D

 54 57  0  0  0  0  0  0  0  0999 V2000
    4.3951   -0.7851   -2.7993 C   0  0  0  0  0  0  0  0  0  0  0  0
    3.4229   -1.1252   -1.7089 C   0  0  0  0  0  0  0  0  0  0  0  0
    2.7627   -0.2699   -0.9044 C   0  0  0  0  0  0  0  0  0  0  0  0
    2.8719    1.1941   -1.0185 C   0  0  0  0  0  0  0  0  0  0  0  0
    2.3808    1.8685   -2.1445 C   0  0  0  0  0  0  0  0  0  0  0  0
    2.4742    3.2591   -2.2347 C   0  0  0  0  0  0  0  0  0  0  0  0
    3.0498    3.9867   -1.1939 C   0  0  0  0  0  0  0  0  0  0  0  0
    3.5235    3.3267   -0.0614 C   0  0  0  0  0  0  0  0  0  0  0  0
    3.4318    1.9365    0.0303 C   0  0  0  0  0  0  0  0  0  0  0  0
    1.9200   -0.6436    0.1245 O   0  0  0  0  0  0  0  0  0  0  0  0
    1.6991   -1.9727    0.3659 C   0  0  0  0  0  0  0  0  0  0  0  0
    2.2760   -2.9667   -0.4165 C   0  0  0  0  0  0  0  0  0  0  0  0
    1.9971   -4.3189   -0.1762 C   0  0  0  0  0  0  0  0  0  0  0  0
    1.1310   -4.6792    0.8556 C   0  0  0  0  0  0  0  0  0  0  0  0
    0.5544   -3.6900    1.6505 C   0  0  0  0  0  0  0  0  0  0  0  0
    0.8423   -2.3364    1.4111 C   0  0  0  0  0  0  0  0  0  0  0  0
    0.2687   -1.2962    2.2925 C   0  0  0  0  0  0  0  0  0  0  0  0
    0.8938   -0.3454    2.7352 O   0  0  0  0  0  0  0  0  0  0  0  0
   -1.0423   -1.5700    2.4987 O   0  0  0  0  0  0  0  0  0  0  0  0
   -1.7689   -0.5686    3.2332 C   0  0  0  0  0  0  0  0  0  0  0  0
   -2.0644    0.6772    2.3745 C   0  0  0  0  0  0  0  0  0  0  0  0
   -2.8432    0.3817    1.1575 N   0  0  0  0  0  0  0  0  0  0  0  0
   -2.6582    1.4348    0.1505 C   0  0  0  0  0  0  0  0  0  0  0  0
   -3.6278    1.2695   -1.0200 C   0  0  0  0  0  0  0  0  0  0  0  0
   -5.0839    1.3575   -0.5688 C   0  0  0  0  0  0  0  0  0  0  0  0
   -5.2447    1.1018    0.9285 C   0  0  0  0  0  0  0  0  0  0  0  0
   -4.2494    0.0556    1.4319 C   0  0  0  0  0  0  0  0  0  0  0  0
    3.1876   -2.5777   -1.5038 C   0  0  0  0  0  0  0  0  0  0  0  0
    3.7233   -3.4252   -2.2105 O   0  0  0  0  0  0  0  0  0  0  0  0
    4.0418   -1.1705   -3.7637 H   0  0  0  0  0  0  0  0  0  0  0  0
    5.3721   -1.2355   -2.5843 H   0  0  0  0  0  0  0  0  0  0  0  0
    4.5607    0.2901   -2.9159 H   0  0  0  0  0  0  0  0  0  0  0  0
    1.9185    1.3148   -2.9600 H   0  0  0  0  0  0  0  0  0  0  0  0
    2.0949    3.7739   -3.1122 H   0  0  0  0  0  0  0  0  0  0  0  0
    3.1204    5.0688   -1.2625 H   0  0  0  0  0  0  0  0  0  0  0  0
    3.9583    3.8930    0.7561 H   0  0  0  0  0  0  0  0  0  0  0  0
    3.7941    1.4350    0.9266 H   0  0  0  0  0  0  0  0  0  0  0  0
    2.4508   -5.0896   -0.7955 H   0  0  0  0  0  0  0  0  0  0  0  0
    0.9098   -5.7285    1.0410 H   0  0  0  0  0  0  0  0  0  0  0  0
   -0.1136   -3.9755    2.4588 H   0  0  0  0  0  0  0  0  0  0  0  0
   -1.2094   -0.2889    4.1333 H   0  0  0  0  0  0  0  0  0  0  0  0
   -2.6954   -1.0367    3.5792 H   0  0  0  0  0  0  0  0  0  0  0  0
   -2.5778    1.4324    2.9828 H   0  0  0  0  0  0  0  0  0  0  0  0
   -1.1031    1.1133    2.0779 H   0  0  0  0  0  0  0  0  0  0  0  0
   -1.6318    1.3834   -0.2376 H   0  0  0  0  0  0  0  0  0  0  0  0
   -2.7912    2.4331    0.5936 H   0  0  0  0  0  0  0  0  0  0  0  0
   -3.4508    0.2962   -1.5009 H   0  0  0  0  0  0  0  0  0  0  0  0
   -3.4339    2.0298   -1.7851 H   0  0  0  0  0  0  0  0  0  0  0  0
   -5.4948    2.3443   -0.8088 H   0  0  0  0  0  0  0  0  0  0  0  0
   -5.6748    0.6313   -1.1388 H   0  0  0  0  0  0  0  0  0  0  0  0
   -6.2712    0.7795    1.1378 H   0  0  0  0  0  0  0  0  0  0  0  0
   -5.0965    2.0400    1.4794 H   0  0  0  0  0  0  0  0  0  0  0  0
   -4.4321   -0.1139    2.4973 H   0  0  0  0  0  0  0  0  0  0  0  0
   -4.4683   -0.8988    0.9370 H   0  0  0  0  0  0  0  0  0  0  0  0
  1  2  1  0
  2  3  2  0
  3  4  1  0
  4  5  2  0
  5  6  1  0
  6  7  2  0
  7  8  1  0
  8  9  2  0
  3 10  1  0
 10 11  1  0
 11 12  1  0
 12 13  2  0
 13 14  1  0
 14 15  2  0
 15 16  1  0
 16 17  1  0
 17 18  2  0
 17 19  1  0
 19 20  1  0
 20 21  1  0
 21 22  1  0
 22 23  1  0
 23 24  1  0
 24 25  1  0
 25 26  1  0
 26 27  1  0
 12 28  1  0
 28 29  2  0
 28  2  1  0
  9  4  1  0
 16 11  2  0
 27 22  1  0
  1 30  1  0
  1 31  1  0
  1 32  1  0
  5 33  1  0
  6 34  1  0
  7 35  1  0
  8 36  1  0
  9 37  1  0
 13 38  1  0
 14 39  1  0
 15 40  1  0
 20 41  1  0
 20 42  1  0
 21 43  1  0
 21 44  1  0
 23 45  1  0
 23 46  1  0
 24 47  1  0
 24 48  1  0
 25 49  1  0
 25 50  1  0
 26 51  1  0
 26 52  1  0
 27 53  1  0
 27 54  1  0
M  END
$$$$
OCNT-2328666
     RDKit          3D

 42 45  0  0  0  0  0  0  0  0999 V2000
   -4.3211   -5.5794    0.3521 Cl  0  0  0  0  0  0  0  0  0  0  0  0
   -3.5257   -4.0547    0.3665 C   0  0  0  0  0  0  0  0  0  0  0  0
   -2.4809   -3.8122   -0.5192 C   0  0  0  0  0  0  0  0  0  0  0  0
   -1.8354   -2.5739   -0.5080 C   0  0  0  0  0  0  0  0  0  0  0  0
   -2.2193   -1.5637    0.3957 C   0  0  0  0  0  0  0  0  0  0  0  0
   -1.5110   -0.2157    0.3791 C   0  0  0  0  0  0  0  0  0  0  0  0
   -2.2151    0.7349   -0.6023 C   0  0  0  0  0  0  0  0  0  0  0  0
   -1.7481    2.1008   -0.4406 N   0  0  0  0  0  0  0  0  0  0  0  0
   -2.2900    3.0505    0.3786 C   0  0  0  0  0  0  0  0  0  0  0  0
   -1.4869    4.1553    0.2146 C   0  0  0  0  0  0  0  0  0  0  0  0
   -0.4797    3.8967   -0.6794 N   0  0  0  0  0  0  0  0  0  0  0  0
   -0.6727    2.6571   -1.0707 C   0  0  0  0  0  0  0  0  0  0  0  0
   -0.1527   -0.3803   -0.0627 O   0  0  0  0  0  0  0  0  0  0  0  0
    0.7552   -0.6159    1.0153 C   0  0  0  0  0  0  0  0  0  0  0  0
    2.1414   -0.8099    0.4823 C   0  0  0  0  0  0  0  0  0  0  0  0
    2.7358   -2.0436    0.3163 C   0  0  0  0  0  0  0  0  0  0  0  0
    4.3108   -1.9397   -0.3119 S   0  0  0  0  0  0  0  0  0  0  0  0
    4.2543   -0.2164   -0.4010 C   0  0  0  0  0  0  0  0  0  0  0  0
    5.2533    0.6714   -0.8613 C   0  0  0  0  0  0  0  0  0  0  0  0
    6.7808    0.1088   -1.4362 Cl  0  0  0  0  0  0  0  0  0  0  0  0
    5.0088    2.0474   -0.8587 C   0  0  0  0  0  0  0  0  0  0  0  0
    3.7967    2.5437   -0.4066 C   0  0  0  0  0  0  0  0  0  0  0  0
    2.8106    1.6685    0.0534 C   0  0  0  0  0  0  0  0  0  0  0  0
    3.0207    0.2640    0.0631 C   0  0  0  0  0  0  0  0  0  0  0  0
   -3.2887   -1.8301    1.2710 C   0  0  0  0  0  0  0  0  0  0  0  0
   -3.8681   -0.6442    2.3870 Cl  0  0  0  0  0  0  0  0  0  0  0  0
   -3.9351   -3.0696    1.2598 C   0  0  0  0  0  0  0  0  0  0  0  0
   -2.1635   -4.5793   -1.2218 H   0  0  0  0  0  0  0  0  0  0  0  0
   -1.0218   -2.4029   -1.2134 H   0  0  0  0  0  0  0  0  0  0  0  0
   -1.4978    0.2275    1.3821 H   0  0  0  0  0  0  0  0  0  0  0  0
   -3.3008    0.7508   -0.4509 H   0  0  0  0  0  0  0  0  0  0  0  0
   -2.0233    0.4515   -1.6446 H   0  0  0  0  0  0  0  0  0  0  0  0
   -3.1641    2.8748    0.9902 H   0  0  0  0  0  0  0  0  0  0  0  0
   -1.5793    5.1219    0.6928 H   0  0  0  0  0  0  0  0  0  0  0  0
   -0.0617    2.1165   -1.7834 H   0  0  0  0  0  0  0  0  0  0  0  0
    0.7394    0.2383    1.7027 H   0  0  0  0  0  0  0  0  0  0  0  0
    0.4397   -1.5047    1.5752 H   0  0  0  0  0  0  0  0  0  0  0  0
    2.3124   -3.0143    0.5366 H   0  0  0  0  0  0  0  0  0  0  0  0
    5.7700    2.7373   -1.2151 H   0  0  0  0  0  0  0  0  0  0  0  0
    3.6052    3.6147   -0.4115 H   0  0  0  0  0  0  0  0  0  0  0  0
    1.8659    2.0835    0.4003 H   0  0  0  0  0  0  0  0  0  0  0  0
   -4.7580   -3.2655    1.9427 H   0  0  0  0  0  0  0  0  0  0  0  0
  1  2  1  0
  2  3  1  0
  3  4  2  0
  4  5  1  0
  5  6  1  0
  6  7  1  0
  7  8  1  0
  8  9  1  0
  9 10  2  0
 10 11  1  0
 11 12  2  0
  6 13  1  0
 13 14  1  0
 14 15  1  0
 15 16  2  0
 16 17  1  0
 17 18  1  0
 18 19  2  0
 19 20  1  0
 19 21  1  0
 21 22  2  0
 22 23  1  0
 23 24  2  0
  5 25  2  0
 25 26  1  0
 25 27  1  0
 27  2  2  0
 12  8  1  0
 24 15  1  0
 24 18  1  0
  3 28  1  0
  4 29  1  0
  6 30  1  0
  7 31  1  0
  7 32  1  0
  9 33  1  0
 10 34  1  0
 12 35  1  0
 14 36  1  0
 14 37  1  0
 16 38  1  0
 21 39  1  0
 22 40  1  0
 23 41  1  0
 27 42  1  0
M  END
$$$$
OCNT-2328670
     RDKit          3D

 29 30  0  0  0  0  0  0  0  0999 V2000
   -0.1447   -1.4019   -0.4655 N   0  0  0  0  0  0  0  0  0  0  0  0
    0.0289   -0.1275   -0.3587 C   0  0  0  0  0  0  0  0  0  0  0  0
   -0.9594    0.7983   -0.5642 N   0  0  0  0  0  0  0  0  0  0  0  0
   -2.3455    0.6605   -0.3797 C   0  0  0  0  0  0  0  0  0  0  0  0
   -3.2199    1.4587   -1.1318 C   0  0  0  0  0  0  0  0  0  0  0  0
   -4.6055    1.3356   -0.9948 C   0  0  0  0  0  0  0  0  0  0  0  0
   -5.1378    0.4092   -0.1024 C   0  0  0  0  0  0  0  0  0  0  0  0
   -4.2853   -0.3920    0.6519 C   0  0  0  0  0  0  0  0  0  0  0  0
   -2.9002   -0.2671    0.5117 C   0  0  0  0  0  0  0  0  0  0  0  0
    1.2099    0.4998   -0.0566 N   0  0  0  0  0  0  0  0  0  0  0  0
    2.4862   -0.0630    0.1532 C   0  0  0  0  0  0  0  0  0  0  0  0
    3.4847    0.7388    0.7349 C   0  0  0  0  0  0  0  0  0  0  0  0
    4.7841    0.2592    0.9291 C   0  0  0  0  0  0  0  0  0  0  0  0
    5.1152   -1.0305    0.5278 C   0  0  0  0  0  0  0  0  0  0  0  0
    4.1496   -1.8319   -0.0728 C   0  0  0  0  0  0  0  0  0  0  0  0
    2.8509   -1.3467   -0.2652 C   0  0  0  0  0  0  0  0  0  0  0  0
   -1.1106   -1.5719   -0.7563 H   0  0  0  0  0  0  0  0  0  0  0  0
   -0.6723    1.6433   -1.0382 H   0  0  0  0  0  0  0  0  0  0  0  0
   -2.8306    2.1812   -1.8448 H   0  0  0  0  0  0  0  0  0  0  0  0
   -5.2679    1.9604   -1.5884 H   0  0  0  0  0  0  0  0  0  0  0  0
   -6.2149    0.3111    0.0054 H   0  0  0  0  0  0  0  0  0  0  0  0
   -4.6946   -1.1144    1.3537 H   0  0  0  0  0  0  0  0  0  0  0  0
   -2.2571   -0.8916    1.1291 H   0  0  0  0  0  0  0  0  0  0  0  0
    1.0889    1.3774    0.4286 H   0  0  0  0  0  0  0  0  0  0  0  0
    3.2593    1.7542    1.0506 H   0  0  0  0  0  0  0  0  0  0  0  0
    5.5351    0.8948    1.3903 H   0  0  0  0  0  0  0  0  0  0  0  0
    6.1228   -1.4090    0.6758 H   0  0  0  0  0  0  0  0  0  0  0  0
    4.3998   -2.8379   -0.3995 H   0  0  0  0  0  0  0  0  0  0  0  0
    2.1310   -1.9972   -0.7540 H   0  0  0  0  0  0  0  0  0  0  0  0
  1  2  2  3
  2  3  1  0
  3  4  1  0
  4  5  2  0
  5  6  1  0
  6  7  2  0
  7  8  1  0
  8  9  2  0
  2 10  1  0
 10 11  1  0
 11 12  2  0
 12 13  1  0
 13 14  2  0
 14 15  1  0
 15 16  2  0
  9  4  1  0
 16 11  1  0
  1 17  1  0
  3 18  1  0
  5 19  1  0
  6 20  1  0
  7 21  1  0
  8 22  1  0
  9 23  1  0
 10 24  1  0
 12 25  1  0
 13 26  1  0
 14 27  1  0
 15 28  1  0
 16 29  1  0
M  END
$$$$
OCNT-2328671
     RDKit          3D

 42 44  0  0  0  0  0  0  0  0999 V2000
   -1.0149    0.2328    2.9953 O   0  0  0  0  0  0  0  0  0  0  0  0
   -0.8356   -0.4646    1.7464 C   0  0  2  0  0  0  0  0  0  0  0  0
    0.4096    0.0630    1.0431 C   0  0  0  0  0  0  0  0  0  0  0  0
    0.5710    1.4540    0.9422 C   0  0  0  0  0  0  0  0  0  0  0  0
    1.6857    1.9816    0.3094 C   0  0  0  0  0  0  0  0  0  0  0  0
    1.8236    3.4944    0.1874 C   0  0  0  0  0  0  0  0  0  0  0  0
    1.0326    4.0177   -0.7931 F   0  0  0  0  0  0  0  0  0  0  0  0
    3.0901    3.9175   -0.0866 F   0  0  0  0  0  0  0  0  0  0  0  0
    1.4631    4.1458    1.3340 F   0  0  0  0  0  0  0  0  0  0  0  0
    2.6388    1.1743   -0.2264 N   0  0  0  0  0  0  0  0  0  0  0  0
    2.5131   -0.1602   -0.1596 C   0  0  0  0  0  0  0  0  0  0  0  0
    3.5089   -0.9517   -0.7312 C   0  0  0  0  0  0  0  0  0  0  0  0
    4.6890   -0.2887   -1.3929 C   0  0  0  0  0  0  0  0  0  0  0  0
    5.4299    0.4783   -0.5452 F   0  0  0  0  0  0  0  0  0  0  0  0
    4.3520    0.5031   -2.4488 F   0  0  0  0  0  0  0  0  0  0  0  0
    5.5762   -1.1966   -1.9067 F   0  0  0  0  0  0  0  0  0  0  0  0
    3.4242   -2.3547   -0.6978 C   0  0  0  0  0  0  0  0  0  0  0  0
    2.3429   -2.9746   -0.0952 C   0  0  0  0  0  0  0  0  0  0  0  0
    1.3432   -2.1962    0.4806 C   0  0  0  0  0  0  0  0  0  0  0  0
    1.4018   -0.7809    0.4687 C   0  0  0  0  0  0  0  0  0  0  0  0
   -2.1695   -0.3762    0.9356 C   0  0  2  0  0  0  0  0  0  0  0  0
   -2.0989   -1.1217   -0.4054 C   0  0  0  0  0  0  0  0  0  0  0  0
   -3.4326   -1.0522   -1.1463 C   0  0  0  0  0  0  0  0  0  0  0  0
   -3.9046    0.3927   -1.2713 C   0  0  0  0  0  0  0  0  0  0  0  0
   -3.9198    1.0898    0.0868 C   0  0  0  0  0  0  0  0  0  0  0  0
   -2.6103    1.0230    0.7330 N   0  0  0  0  0  0  0  0  0  0  0  0
   -0.1318    0.3450    3.3877 H   0  0  0  0  0  0  0  0  0  0  0  0
   -0.6942   -1.5057    2.0458 H   0  0  0  0  0  0  0  0  0  0  0  0
   -0.1824    2.1261    1.3501 H   0  0  0  0  0  0  0  0  0  0  0  0
    4.2061   -2.9651   -1.1482 H   0  0  0  0  0  0  0  0  0  0  0  0
    2.2745   -4.0599   -0.0736 H   0  0  0  0  0  0  0  0  0  0  0  0
    0.5117   -2.7286    0.9331 H   0  0  0  0  0  0  0  0  0  0  0  0
   -2.9342   -0.8579    1.5625 H   0  0  0  0  0  0  0  0  0  0  0  0
   -1.3200   -0.6901   -1.0459 H   0  0  0  0  0  0  0  0  0  0  0  0
   -1.8348   -2.1723   -0.2383 H   0  0  0  0  0  0  0  0  0  0  0  0
   -3.3331   -1.5020   -2.1403 H   0  0  0  0  0  0  0  0  0  0  0  0
   -4.1842   -1.6371   -0.6018 H   0  0  0  0  0  0  0  0  0  0  0  0
   -3.2408    0.9354   -1.9563 H   0  0  0  0  0  0  0  0  0  0  0  0
   -4.9077    0.4171   -1.7118 H   0  0  0  0  0  0  0  0  0  0  0  0
   -4.1925    2.1415   -0.0521 H   0  0  0  0  0  0  0  0  0  0  0  0
   -4.6845    0.6436    0.7342 H   0  0  0  0  0  0  0  0  0  0  0  0
   -2.6619    1.4603    1.6572 H   0  0  0  0  0  0  0  0  0  0  0  0
  1  2  1  0
  2  3  1  0
  3  4  2  0
  4  5  1  0
  5  6  1  0
  6  7  1  0
  6  8  1  0
  6  9  1  0
  5 10  2  0
 10 11  1  0
 11 12  2  0
 12 13  1  0
 13 14  1  0
 13 15  1  0
 13 16  1  0
 12 17  1  0
 17 18  2  0
 18 19  1  0
 19 20  2  0
  2 21  1  0
 21 22  1  0
 22 23  1  0
 23 24  1  0
 24 25  1  0
 25 26  1  0
 20  3  1  0
 26 21  1  0
 20 11  1  0
  1 27  1  0
  2 28  1  1
  4 29  1  0
 17 30  1  0
 18 31  1  0
 19 32  1  0
 21 33  1  1
 22 34  1  0
 22 35  1  0
 23 36  1  0
 23 37  1  0
 24 38  1  0
 24 39  1  0
 25 40  1  0
 25 41  1  0
 26 42  1  0
M  END
$$$$
OCNT-2328676
     RDKit          3D

 23 23  0  0  0  0  0  0  0  0999 V2000
   -2.3216    1.1695   -0.7476 C   0  0  0  0  0  0  0  0  0  0  0  0
   -1.9891    0.7299    0.6029 N   0  0  0  0  0  0  0  0  0  0  0  0
   -3.1095    0.4481    1.4848 C   0  0  0  0  0  0  0  0  0  0  0  0
   -0.9127   -0.0999    0.8014 N   0  0  0  0  0  0  0  0  0  0  0  0
    0.0125    0.0873   -0.0115 N   0  0  0  0  0  0  0  0  0  0  0  0
    1.0988   -0.7156    0.1230 C   0  0  0  0  0  0  0  0  0  0  0  0
    2.3724   -0.6845   -0.4365 C   0  0  0  0  0  0  0  0  0  0  0  0
    2.9157    0.3088   -1.3667 C   0  0  0  0  0  0  0  0  0  0  0  0
    2.1095    1.3778   -1.6577 N   0  0  0  0  0  0  0  0  0  0  0  0
    4.0316    0.2409   -1.8749 O   0  0  0  0  0  0  0  0  0  0  0  0
    3.1149   -1.7689    0.0178 N   0  0  0  0  0  0  0  0  0  0  0  0
    2.3249   -2.4316    0.8261 C   0  0  0  0  0  0  0  0  0  0  0  0
    1.1049   -1.8372    0.9209 N   0  0  0  0  0  0  0  0  0  0  0  0
   -2.6893    0.3155   -1.3235 H   0  0  0  0  0  0  0  0  0  0  0  0
   -1.4490    1.6106   -1.2368 H   0  0  0  0  0  0  0  0  0  0  0  0
   -3.0990    1.9373   -0.6914 H   0  0  0  0  0  0  0  0  0  0  0  0
   -3.7731    1.3168    1.5134 H   0  0  0  0  0  0  0  0  0  0  0  0
   -3.6521   -0.4256    1.1127 H   0  0  0  0  0  0  0  0  0  0  0  0
   -2.7396    0.2539    2.4960 H   0  0  0  0  0  0  0  0  0  0  0  0
    2.5087    2.1136   -2.2218 H   0  0  0  0  0  0  0  0  0  0  0  0
    1.2392    1.5381   -1.1691 H   0  0  0  0  0  0  0  0  0  0  0  0
    2.5802   -3.3362    1.3623 H   0  0  0  0  0  0  0  0  0  0  0  0
    0.3220   -2.1487    1.4761 H   0  0  0  0  0  0  0  0  0  0  0  0
  1  2  1  0
  2  3  1  0
  2  4  1  0
  4  5  2  3
  5  6  1  0
  6  7  2  0
  7  8  1  0
  8  9  1  0
  8 10  2  0
  7 11  1  0
 11 12  2  0
 12 13  1  0
 13  6  1  0
  1 14  1  0
  1 15  1  0
  1 16  1  0
  3 17  1  0
  3 18  1  0
  3 19  1  0
  9 20  1  0
  9 21  1  0
 12 22  1  0
 13 23  1  0
M  END
$$$$
OCNT-2328688
     RDKit          3D

 25 27  0  0  0  0  0  0  0  0999 V2000
    0.3289    2.3527   -0.8803 N   0  0  0  0  0  0  0  0  0  0  0  0
    0.1356    1.0743   -0.2774 C   0  0  0  0  0  0  0  0  0  0  0  0
    1.2772    0.3020    0.0517 C   0  0  0  0  0  0  0  0  0  0  0  0
    2.6030    0.7863   -0.0532 C   0  0  0  0  0  0  0  0  0  0  0  0
    3.6928   -0.0082    0.2981 C   0  0  0  0  0  0  0  0  0  0  0  0
    3.4735   -1.2967    0.7625 C   0  0  0  0  0  0  0  0  0  0  0  0
    2.1668   -1.7782    0.8715 C   0  0  0  0  0  0  0  0  0  0  0  0
    1.0657   -1.0050    0.5246 C   0  0  0  0  0  0  0  0  0  0  0  0
   -0.1550   -1.5441    0.6489 N   0  0  0  0  0  0  0  0  0  0  0  0
   -1.2310   -0.8310    0.2890 C   0  0  0  0  0  0  0  0  0  0  0  0
   -2.4740   -1.4405    0.3988 C   0  0  0  0  0  0  0  0  0  0  0  0
   -3.6528   -0.7934    0.0257 C   0  0  0  0  0  0  0  0  0  0  0  0
   -3.5943    0.4977   -0.4746 C   0  0  0  0  0  0  0  0  0  0  0  0
   -2.3582    1.1334   -0.5907 C   0  0  0  0  0  0  0  0  0  0  0  0
   -1.1553    0.4871   -0.2045 C   0  0  0  0  0  0  0  0  0  0  0  0
    0.5285    2.2357   -1.8727 H   0  0  0  0  0  0  0  0  0  0  0  0
   -0.4670    2.9692   -0.7578 H   0  0  0  0  0  0  0  0  0  0  0  0
    2.7843    1.8013   -0.4009 H   0  0  0  0  0  0  0  0  0  0  0  0
    4.7033    0.3822    0.2140 H   0  0  0  0  0  0  0  0  0  0  0  0
    4.3108   -1.9297    1.0435 H   0  0  0  0  0  0  0  0  0  0  0  0
    2.0011   -2.7892    1.2369 H   0  0  0  0  0  0  0  0  0  0  0  0
   -2.5249   -2.4571    0.7833 H   0  0  0  0  0  0  0  0  0  0  0  0
   -4.6072   -1.3036    0.1243 H   0  0  0  0  0  0  0  0  0  0  0  0
   -4.5046    1.0113   -0.7729 H   0  0  0  0  0  0  0  0  0  0  0  0
   -2.3473    2.1437   -0.9877 H   0  0  0  0  0  0  0  0  0  0  0  0
  1  2  1  0
  2  3  2  0
  3  4  1  0
  4  5  2  0
  5  6  1  0
  6  7  2  0
  7  8  1  0
  8  9  2  0
  9 10  1  0
 10 11  2  0
 11 12  1  0
 12 13  2  0
 13 14  1  0
 14 15  2  0
 15  2  1  0
  8  3  1  0
 15 10  1  0
  1 16  1  0
  1 17  1  0
  4 18  1  0
  5 19  1  0
  6 20  1  0
  7 21  1  0
 11 22  1  0
 12 23  1  0
 13 24  1  0
 14 25  1  0
M  END
$$$$
OCNT-2328691
     RDKit          3D

 24 24  0  0  0  0  0  0  0  0999 V2000
   -3.3344    0.6737    0.5066 C   0  0  0  0  0  0  0  0  0  0  0  0
   -1.9328    0.0659    0.5251 C   0  0  0  0  0  0  0  0  0  0  0  0
   -2.0356   -1.3552    0.1689 N   0  0  0  0  0  0  0  0  0  0  0  0
   -1.0027    0.8303   -0.4407 C   0  0  0  0  0  0  0  0  0  0  0  0
    0.4486    0.4174   -0.3328 C   0  0  0  0  0  0  0  0  0  0  0  0
    1.0116   -0.4537   -1.2771 C   0  0  0  0  0  0  0  0  0  0  0  0
    2.3473   -0.8477   -1.1725 C   0  0  0  0  0  0  0  0  0  0  0  0
    3.1204   -0.3697   -0.1198 C   0  0  0  0  0  0  0  0  0  0  0  0
    4.4283   -0.7287    0.0212 O   0  0  0  0  0  0  0  0  0  0  0  0
    2.5799    0.4924    0.8262 C   0  0  0  0  0  0  0  0  0  0  0  0
    1.2452    0.8863    0.7214 C   0  0  0  0  0  0  0  0  0  0  0  0
   -3.9991    0.1538    1.2056 H   0  0  0  0  0  0  0  0  0  0  0  0
   -3.7833    0.6193   -0.4917 H   0  0  0  0  0  0  0  0  0  0  0  0
   -3.3024    1.7273    0.8043 H   0  0  0  0  0  0  0  0  0  0  0  0
   -1.5396    0.1360    1.5467 H   0  0  0  0  0  0  0  0  0  0  0  0
   -2.5977   -1.8401    0.8674 H   0  0  0  0  0  0  0  0  0  0  0  0
   -1.1053   -1.7738    0.2190 H   0  0  0  0  0  0  0  0  0  0  0  0
   -1.3473    0.7080   -1.4765 H   0  0  0  0  0  0  0  0  0  0  0  0
   -1.0638    1.9081   -0.2380 H   0  0  0  0  0  0  0  0  0  0  0  0
    0.4061   -0.8330   -2.0982 H   0  0  0  0  0  0  0  0  0  0  0  0
    2.7605   -1.5224   -1.9152 H   0  0  0  0  0  0  0  0  0  0  0  0
    4.6674   -1.3146   -0.7154 H   0  0  0  0  0  0  0  0  0  0  0  0
    3.1962    0.8579    1.6425 H   0  0  0  0  0  0  0  0  0  0  0  0
    0.8323    1.5624    1.4663 H   0  0  0  0  0  0  0  0  0  0  0  0
  1  2  1  0
  2  3  1  0
  2  4  1  0
  4  5  1  0
  5  6  1  0
  6  7  2  0
  7  8  1  0
  8  9  1  0
  8 10  2  0
 10 11  1  0
 11  5  2  0
  1 12  1  0
  1 13  1  0
  1 14  1  0
  2 15  1  0
  3 16  1  0
  3 17  1  0
  4 18  1  0
  4 19  1  0
  6 20  1  0
  7 21  1  0
  9 22  1  0
 10 23  1  0
 11 24  1  0
M  END
$$$$
OCNT-2328703
     RDKit          3D

 48 51  0  0  0  0  0  0  0  0999 V2000
    4.8582   -0.3062    1.3513 C   0  0  0  0  0  0  0  0  0  0  0  0
    3.5020   -0.3309    0.8085 N   0  0  0  0  0  0  0  0  0  0  0  0
    3.4575   -0.7552   -0.6047 C   0  0  2  0  0  0  0  0  0  0  0  0
    3.8844    0.4867   -1.3953 C   0  0  0  0  0  0  0  0  0  0  0  0
    3.4959    1.6584   -0.5032 C   0  0  0  0  0  0  0  0  0  0  0  0
    2.8859    1.0078    0.7437 C   0  0  1  0  0  0  0  0  0  0  0  0
    1.3647    0.8217    0.5800 C   0  0  0  0  0  0  0  0  0  0  0  0
    0.9759   -0.5673    0.0430 C   0  0  1  0  0  0  0  0  0  0  0  0
   -0.2958   -0.5472   -0.6151 O   0  0  0  0  0  0  0  0  0  0  0  0
   -1.4193   -0.3804    0.2658 C   0  0  0  0  0  0  0  0  0  0  0  0
   -2.0233    0.9974    0.0400 C   0  0  0  0  0  0  0  0  0  0  0  0
   -2.2626    1.4811   -1.2565 C   0  0  0  0  0  0  0  0  0  0  0  0
   -2.8235    2.7436   -1.4544 C   0  0  0  0  0  0  0  0  0  0  0  0
   -3.1551    3.5385   -0.3594 C   0  0  0  0  0  0  0  0  0  0  0  0
   -2.9272    3.0721    0.9338 C   0  0  0  0  0  0  0  0  0  0  0  0
   -2.3661    1.8092    1.1335 C   0  0  0  0  0  0  0  0  0  0  0  0
   -2.4285   -1.5013    0.0422 C   0  0  0  0  0  0  0  0  0  0  0  0
   -2.4674   -2.2387   -1.1520 C   0  0  0  0  0  0  0  0  0  0  0  0
   -3.4071   -3.2552   -1.3349 C   0  0  0  0  0  0  0  0  0  0  0  0
   -4.3253   -3.5464   -0.3291 C   0  0  0  0  0  0  0  0  0  0  0  0
   -4.3066   -2.8207    0.8594 C   0  0  0  0  0  0  0  0  0  0  0  0
   -3.3667   -1.8047    1.0440 C   0  0  0  0  0  0  0  0  0  0  0  0
    2.0053   -1.1445   -0.9419 C   0  0  0  0  0  0  0  0  0  0  0  0
    5.5472    0.3434    0.8019 H   0  0  0  0  0  0  0  0  0  0  0  0
    5.2780   -1.3179    1.3553 H   0  0  0  0  0  0  0  0  0  0  0  0
    4.8370    0.0293    2.3939 H   0  0  0  0  0  0  0  0  0  0  0  0
    4.1150   -1.6046   -0.8224 H   0  0  0  0  0  0  0  0  0  0  0  0
    4.9699    0.4900   -1.5519 H   0  0  0  0  0  0  0  0  0  0  0  0
    3.4144    0.5553   -2.3815 H   0  0  0  0  0  0  0  0  0  0  0  0
    2.8110    2.3444   -1.0113 H   0  0  0  0  0  0  0  0  0  0  0  0
    4.3937    2.2303   -0.2398 H   0  0  0  0  0  0  0  0  0  0  0  0
    3.0765    1.6158    1.6357 H   0  0  0  0  0  0  0  0  0  0  0  0
    0.8909    0.9428    1.5632 H   0  0  0  0  0  0  0  0  0  0  0  0
    0.9381    1.6117   -0.0493 H   0  0  0  0  0  0  0  0  0  0  0  0
    0.9168   -1.2687    0.8880 H   0  0  0  0  0  0  0  0  0  0  0  0
   -1.0783   -0.4611    1.3068 H   0  0  0  0  0  0  0  0  0  0  0  0
   -2.0069    0.8685   -2.1187 H   0  0  0  0  0  0  0  0  0  0  0  0
   -3.0027    3.1037   -2.4638 H   0  0  0  0  0  0  0  0  0  0  0  0
   -3.5936    4.5206   -0.5144 H   0  0  0  0  0  0  0  0  0  0  0  0
   -3.1889    3.6915    1.7877 H   0  0  0  0  0  0  0  0  0  0  0  0
   -2.1980    1.4623    2.1503 H   0  0  0  0  0  0  0  0  0  0  0  0
   -1.7599   -2.0237   -1.9499 H   0  0  0  0  0  0  0  0  0  0  0  0
   -3.4207   -3.8186   -2.2635 H   0  0  0  0  0  0  0  0  0  0  0  0
   -5.0568   -4.3368   -0.4730 H   0  0  0  0  0  0  0  0  0  0  0  0
   -5.0257   -3.0442    1.6429 H   0  0  0  0  0  0  0  0  0  0  0  0
   -3.3726   -1.2454    1.9767 H   0  0  0  0  0  0  0  0  0  0  0  0
    1.9112   -2.2383   -0.9089 H   0  0  0  0  0  0  0  0  0  0  0  0
    1.7490   -0.8680   -1.9720 H   0  0  0  0  0  0  0  0  0  0  0  0
  1  2  1  0
  2  3  1  0
  3  4  1  0
  4  5  1  0
  5  6  1  0
  6  7  1  0
  7  8  1  0
  8  9  1  0
  9 10  1  0
 10 11  1  0
 11 12  2  0
 12 13  1  0
 13 14  2  0
 14 15  1  0
 15 16  2  0
 10 17  1  0
 17 18  2  0
 18 19  1  0
 19 20  2  0
 20 21  1  0
 21 22  2  0
  8 23  1  0
  6  2  1  0
 16 11  1  0
 22 17  1  0
 23  3  1  0
  1 24  1  0
  1 25  1  0
  1 26  1  0
  3 27  1  1
  4 28  1  0
  4 29  1  0
  5 30  1  0
  5 31  1  0
  6 32  1  1
  7 33  1  0
  7 34  1  0
  8 35  1  1
 10 36  1  0
 12 37  1  0
 13 38  1  0
 14 39  1  0
 15 40  1  0
 16 41  1  0
 18 42  1  0
 19 43  1  0
 20 44  1  0
 21 45  1  0
 22 46  1  0
 23 47  1  0
 23 48  1  0
M  END
$$$$
OCNT-2328704
     RDKit          3D

 45 46  0  0  0  0  0  0  0  0999 V2000
    6.4348    2.4557    0.8921 C   0  0  0  0  0  0  0  0  0  0  0  0
    6.0026    0.9986    0.8280 C   0  0  0  0  0  0  0  0  0  0  0  0
    4.9827    0.7688   -0.2877 C   0  0  0  0  0  0  0  0  0  0  0  0
    4.6048   -0.7053   -0.4772 C   0  0  0  0  0  0  0  0  0  0  0  0
    3.9417   -1.3659    0.7331 C   0  0  0  0  0  0  0  0  0  0  0  0
    2.7259   -0.6718    1.1288 N   0  0  0  0  0  0  0  0  0  0  0  0
    1.5447   -0.8641    0.4785 C   0  0  0  0  0  0  0  0  0  0  0  0
    1.4143   -1.5829   -0.5843 N   0  0  0  0  0  0  0  0  0  0  0  0
    0.5045   -0.2069    1.0917 N   0  0  0  0  0  0  0  0  0  0  0  0
   -0.8011   -0.2760    0.6687 N   0  0  0  0  0  0  0  0  0  0  0  0
   -1.3780   -1.4053    0.9363 C   0  0  0  0  0  0  0  0  0  0  0  0
   -2.7531   -1.6338    0.5430 C   0  0  0  0  0  0  0  0  0  0  0  0
   -3.4242   -2.8204    0.7803 C   0  0  0  0  0  0  0  0  0  0  0  0
   -4.6939   -2.7067    0.2830 N   0  0  0  0  0  0  0  0  0  0  0  0
   -4.8750   -1.4646   -0.2767 C   0  0  0  0  0  0  0  0  0  0  0  0
   -6.0019   -0.9137   -0.8965 C   0  0  0  0  0  0  0  0  0  0  0  0
   -5.9063    0.3951   -1.3866 C   0  0  0  0  0  0  0  0  0  0  0  0
   -4.7267    1.1263   -1.2622 C   0  0  0  0  0  0  0  0  0  0  0  0
   -4.5276    2.4076   -1.7035 O   0  0  0  0  0  0  0  0  0  0  0  0
   -5.6125    3.0357   -2.3732 C   0  0  0  0  0  0  0  0  0  0  0  0
   -3.6120    0.5506   -0.6365 C   0  0  0  0  0  0  0  0  0  0  0  0
   -3.6751   -0.7664   -0.1311 C   0  0  0  0  0  0  0  0  0  0  0  0
    5.5786    3.1104    1.0839 H   0  0  0  0  0  0  0  0  0  0  0  0
    6.9035    2.7681   -0.0465 H   0  0  0  0  0  0  0  0  0  0  0  0
    7.1607    2.6005    1.6984 H   0  0  0  0  0  0  0  0  0  0  0  0
    6.8845    0.3691    0.6630 H   0  0  0  0  0  0  0  0  0  0  0  0
    5.5766    0.7182    1.7971 H   0  0  0  0  0  0  0  0  0  0  0  0
    5.3996    1.1352   -1.2344 H   0  0  0  0  0  0  0  0  0  0  0  0
    4.0826    1.3647   -0.0952 H   0  0  0  0  0  0  0  0  0  0  0  0
    3.9394   -0.7768   -1.3459 H   0  0  0  0  0  0  0  0  0  0  0  0
    5.5069   -1.2744   -0.7337 H   0  0  0  0  0  0  0  0  0  0  0  0
    4.6361   -1.3690    1.5803 H   0  0  0  0  0  0  0  0  0  0  0  0
    3.7272   -2.4192    0.5157 H   0  0  0  0  0  0  0  0  0  0  0  0
    2.6216   -0.5942    2.1332 H   0  0  0  0  0  0  0  0  0  0  0  0
    0.4324   -1.4816   -0.8683 H   0  0  0  0  0  0  0  0  0  0  0  0
    0.7924    0.7392    1.3384 H   0  0  0  0  0  0  0  0  0  0  0  0
   -0.8552   -2.2242    1.4634 H   0  0  0  0  0  0  0  0  0  0  0  0
   -3.1038   -3.7371    1.2579 H   0  0  0  0  0  0  0  0  0  0  0  0
   -5.4017   -3.4276    0.3167 H   0  0  0  0  0  0  0  0  0  0  0  0
   -6.9246   -1.4759   -0.9990 H   0  0  0  0  0  0  0  0  0  0  0  0
   -6.7850    0.8152   -1.8653 H   0  0  0  0  0  0  0  0  0  0  0  0
   -5.8838    2.4914   -3.2838 H   0  0  0  0  0  0  0  0  0  0  0  0
   -5.2874    4.0377   -2.6696 H   0  0  0  0  0  0  0  0  0  0  0  0
   -6.4745    3.1493   -1.7077 H   0  0  0  0  0  0  0  0  0  0  0  0
   -2.6947    1.1263   -0.5441 H   0  0  0  0  0  0  0  0  0  0  0  0
  1  2  1  0
  2  3  1  0
  3  4  1  0
  4  5  1  0
  5  6  1  0
  6  7  1  0
  7  8  2  3
  7  9  1  0
  9 10  1  0
 10 11  2  3
 11 12  1  0
 12 13  2  0
 13 14  1  0
 14 15  1  0
 15 16  2  0
 16 17  1  0
 17 18  2  0
 18 19  1  0
 19 20  1  0
 18 21  1  0
 21 22  2  0
 22 12  1  0
 22 15  1  0
  1 23  1  0
  1 24  1  0
  1 25  1  0
  2 26  1  0
  2 27  1  0
  3 28  1  0
  3 29  1  0
  4 30  1  0
  4 31  1  0
  5 32  1  0
  5 33  1  0
  6 34  1  0
  8 35  1  0
  9 36  1  0
 11 37  1  0
 13 38  1  0
 14 39  1  0
 16 40  1  0
 17 41  1  0
 20 42  1  0
 20 43  1  0
 20 44  1  0
 21 45  1  0
M  END
$$$$
OCNT-2328714
     RDKit          3D

 43 44  0  0  0  0  0  0  0  0999 V2000
   -2.7098   -0.7878   -1.4549 C   0  0  0  0  0  0  0  0  0  0  0  0
   -1.9504   -1.3597   -0.2879 C   0  0  0  0  0  0  0  0  0  0  0  0
   -0.8415   -0.6991    0.2958 C   0  0  0  0  0  0  0  0  0  0  0  0
   -0.3207    0.6395   -0.2389 C   0  0  0  0  0  0  0  0  0  0  0  0
    0.9446    0.9939    0.3427 O   0  0  0  0  0  0  0  0  0  0  0  0
    2.0109    1.1148   -0.5988 C   0  0  0  0  0  0  0  0  0  0  0  0
    2.5361   -0.2439   -1.1110 C   0  0  0  0  0  0  0  0  0  0  0  0
    3.0231   -1.1632   -0.0639 N   0  0  0  0  0  0  0  0  0  0  0  0
    3.2926   -2.4844   -0.6317 C   0  0  0  0  0  0  0  0  0  0  0  0
    4.2105   -0.6527    0.6180 C   0  0  0  0  0  0  0  0  0  0  0  0
   -1.2504    1.8144    0.0326 C   0  0  0  0  0  0  0  0  0  0  0  0
   -1.6633    2.6495   -1.0191 C   0  0  0  0  0  0  0  0  0  0  0  0
   -2.5083    3.7348   -0.7775 C   0  0  0  0  0  0  0  0  0  0  0  0
   -2.9441    4.0055    0.5179 C   0  0  0  0  0  0  0  0  0  0  0  0
   -2.5319    3.1957    1.5738 C   0  0  0  0  0  0  0  0  0  0  0  0
   -1.6873    2.1105    1.3341 C   0  0  0  0  0  0  0  0  0  0  0  0
   -0.2103   -1.3064    1.4003 C   0  0  0  0  0  0  0  0  0  0  0  0
   -0.6590   -2.5202    1.9210 C   0  0  0  0  0  0  0  0  0  0  0  0
   -1.7557   -3.1536    1.3525 C   0  0  0  0  0  0  0  0  0  0  0  0
   -2.3985   -2.5761    0.2594 C   0  0  0  0  0  0  0  0  0  0  0  0
   -3.3506   -1.5451   -1.9203 H   0  0  0  0  0  0  0  0  0  0  0  0
   -3.3515    0.0336   -1.1231 H   0  0  0  0  0  0  0  0  0  0  0  0
   -2.0296   -0.4358   -2.2357 H   0  0  0  0  0  0  0  0  0  0  0  0
   -0.2004    0.5220   -1.3232 H   0  0  0  0  0  0  0  0  0  0  0  0
    1.6888    1.7370   -1.4431 H   0  0  0  0  0  0  0  0  0  0  0  0
    2.8157    1.6691   -0.1057 H   0  0  0  0  0  0  0  0  0  0  0  0
    1.7131   -0.7368   -1.6424 H   0  0  0  0  0  0  0  0  0  0  0  0
    3.3254   -0.0596   -1.8513 H   0  0  0  0  0  0  0  0  0  0  0  0
    3.6008   -3.1860    0.1516 H   0  0  0  0  0  0  0  0  0  0  0  0
    4.0777   -2.4525   -1.3958 H   0  0  0  0  0  0  0  0  0  0  0  0
    2.3864   -2.9032   -1.0835 H   0  0  0  0  0  0  0  0  0  0  0  0
    3.9891    0.2686    1.1652 H   0  0  0  0  0  0  0  0  0  0  0  0
    4.5615   -1.3700    1.3689 H   0  0  0  0  0  0  0  0  0  0  0  0
    5.0339   -0.4571   -0.0782 H   0  0  0  0  0  0  0  0  0  0  0  0
   -1.3296    2.4587   -2.0361 H   0  0  0  0  0  0  0  0  0  0  0  0
   -2.8242    4.3713   -1.5997 H   0  0  0  0  0  0  0  0  0  0  0  0
   -3.6003    4.8508    0.7065 H   0  0  0  0  0  0  0  0  0  0  0  0
   -2.8633    3.4088    2.5865 H   0  0  0  0  0  0  0  0  0  0  0  0
   -1.3631    1.4928    2.1695 H   0  0  0  0  0  0  0  0  0  0  0  0
    0.6543   -0.8329    1.8635 H   0  0  0  0  0  0  0  0  0  0  0  0
   -0.1480   -2.9647    2.7704 H   0  0  0  0  0  0  0  0  0  0  0  0
   -2.1121   -4.0957    1.7592 H   0  0  0  0  0  0  0  0  0  0  0  0
   -3.2603   -3.0848   -0.1678 H   0  0  0  0  0  0  0  0  0  0  0  0
  1  2  1  0
  2  3  1  0
  3  4  1  0
  4  5  1  0
  5  6  1  0
  6  7  1  0
  7  8  1  0
  8  9  1  0
  8 10  1  0
  4 11  1  0
 11 12  2  0
 12 13  1  0
 13 14  2  0
 14 15  1  0
 15 16  2  0
  3 17  2  0
 17 18  1  0
 18 19  2  0
 19 20  1  0
 20  2  2  0
 16 11  1  0
  1 21  1  0
  1 22  1  0
  1 23  1  0
  4 24  1  0
  6 25  1  0
  6 26  1  0
  7 27  1  0
  7 28  1  0
  9 29  1  0
  9 30  1  0
  9 31  1  0
 10 32  1  0
 10 33  1  0
 10 34  1  0
 12 35  1  0
 13 36  1  0
 14 37  1  0
 15 38  1  0
 16 39  1  0
 17 40  1  0
 18 41  1  0
 19 42  1  0
 20 43  1  0
M  END
$$$$
OCNT-2328727
     RDKit          3D

 53 55  0  0  0  0  0  0  0  0999 V2000
    7.7676   -1.8989    1.8565 O   0  0  0  0  0  0  0  0  0  0  0  0
    6.5978   -1.1280    1.6090 C   0  0  0  0  0  0  0  0  0  0  0  0
    6.5414   -0.6741    0.1515 C   0  0  0  0  0  0  0  0  0  0  0  0
    5.4523    0.2117   -0.0999 O   0  0  0  0  0  0  0  0  0  0  0  0
    4.2029   -0.4695   -0.2593 C   0  0  0  0  0  0  0  0  0  0  0  0
    3.1234    0.5631   -0.6244 C   0  0  0  0  0  0  0  0  0  0  0  0
    1.7976   -0.0192   -0.8943 N   0  0  0  0  0  0  0  0  0  0  0  0
    0.8615    0.9959   -1.4217 C   0  0  0  0  0  0  0  0  0  0  0  0
   -0.1751    1.5435   -0.4131 C   0  0  0  0  0  0  0  0  0  0  0  0
   -0.9239    0.5081    0.3050 N   0  0  0  0  0  0  0  0  0  0  0  0
   -2.3908    0.6038    0.2404 C   0  0  0  0  0  0  0  0  0  0  0  0
   -3.0458    0.6546   -1.1476 C   0  0  0  0  0  0  0  0  0  0  0  0
   -4.1916    1.4585   -1.3179 C   0  0  0  0  0  0  0  0  0  0  0  0
   -4.8476    1.5362   -2.5484 C   0  0  0  0  0  0  0  0  0  0  0  0
   -4.3760    0.8061   -3.6342 C   0  0  0  0  0  0  0  0  0  0  0  0
   -3.2538   -0.0036   -3.4866 C   0  0  0  0  0  0  0  0  0  0  0  0
   -2.5983   -0.0822   -2.2540 C   0  0  0  0  0  0  0  0  0  0  0  0
   -3.0871   -0.3481    1.2233 C   0  0  0  0  0  0  0  0  0  0  0  0
   -3.1030   -0.0263    2.5942 C   0  0  0  0  0  0  0  0  0  0  0  0
   -3.7068   -0.8758    3.5245 C   0  0  0  0  0  0  0  0  0  0  0  0
   -4.2956   -2.0617    3.0957 C   0  0  0  0  0  0  0  0  0  0  0  0
   -5.0385   -3.1104    4.2397 Cl  0  0  0  0  0  0  0  0  0  0  0  0
   -4.2816   -2.4071    1.7471 C   0  0  0  0  0  0  0  0  0  0  0  0
   -3.6763   -1.5576    0.8163 C   0  0  0  0  0  0  0  0  0  0  0  0
   -0.2979   -0.8123    0.2897 C   0  0  0  0  0  0  0  0  0  0  0  0
    1.2442   -0.7019    0.2936 C   0  0  0  0  0  0  0  0  0  0  0  0
    8.5318   -1.3032    1.7668 H   0  0  0  0  0  0  0  0  0  0  0  0
    6.5847   -0.2685    2.2876 H   0  0  0  0  0  0  0  0  0  0  0  0
    5.7302   -1.7457    1.8584 H   0  0  0  0  0  0  0  0  0  0  0  0
    7.4621   -0.1283   -0.0845 H   0  0  0  0  0  0  0  0  0  0  0  0
    6.5176   -1.5324   -0.5309 H   0  0  0  0  0  0  0  0  0  0  0  0
    3.9474   -0.9768    0.6758 H   0  0  0  0  0  0  0  0  0  0  0  0
    4.2917   -1.2131   -1.0600 H   0  0  0  0  0  0  0  0  0  0  0  0
    3.0660    1.3267    0.1630 H   0  0  0  0  0  0  0  0  0  0  0  0
    3.4783    1.0889   -1.5211 H   0  0  0  0  0  0  0  0  0  0  0  0
    1.3961    1.8383   -1.8785 H   0  0  0  0  0  0  0  0  0  0  0  0
    0.3195    0.5234   -2.2496 H   0  0  0  0  0  0  0  0  0  0  0  0
   -0.8352    2.2463   -0.9351 H   0  0  0  0  0  0  0  0  0  0  0  0
    0.3586    2.1415    0.3366 H   0  0  0  0  0  0  0  0  0  0  0  0
   -2.5964    1.6043    0.6542 H   0  0  0  0  0  0  0  0  0  0  0  0
   -4.5865    2.0311   -0.4802 H   0  0  0  0  0  0  0  0  0  0  0  0
   -5.7283    2.1641   -2.6557 H   0  0  0  0  0  0  0  0  0  0  0  0
   -4.8846    0.8638   -4.5927 H   0  0  0  0  0  0  0  0  0  0  0  0
   -2.8862   -0.5801   -4.3319 H   0  0  0  0  0  0  0  0  0  0  0  0
   -1.7342   -0.7323   -2.1821 H   0  0  0  0  0  0  0  0  0  0  0  0
   -2.6313    0.8910    2.9423 H   0  0  0  0  0  0  0  0  0  0  0  0
   -3.7088   -0.6080    4.5774 H   0  0  0  0  0  0  0  0  0  0  0  0
   -4.7367   -3.3349    1.4113 H   0  0  0  0  0  0  0  0  0  0  0  0
   -3.6716   -1.8537   -0.2302 H   0  0  0  0  0  0  0  0  0  0  0  0
   -0.5846   -1.3738    1.1860 H   0  0  0  0  0  0  0  0  0  0  0  0
   -0.6046   -1.4095   -0.5732 H   0  0  0  0  0  0  0  0  0  0  0  0
    1.5414   -0.1805    1.2143 H   0  0  0  0  0  0  0  0  0  0  0  0
    1.6643   -1.7131    0.3466 H   0  0  0  0  0  0  0  0  0  0  0  0
  1  2  1  0
  2  3  1  0
  3  4  1  0
  4  5  1  0
  5  6  1  0
  6  7  1  0
  7  8  1  0
  8  9  1  0
  9 10  1  0
 10 11  1  0
 11 12  1  0
 12 13  2  0
 13 14  1  0
 14 15  2  0
 15 16  1  0
 16 17  2  0
 11 18  1  0
 18 19  1  0
 19 20  2  0
 20 21  1  0
 21 22  1  0
 21 23  2  0
 23 24  1  0
 10 25  1  0
 25 26  1  0
 26  7  1  0
 17 12  1  0
 24 18  2  0
  1 27  1  0
  2 28  1  0
  2 29  1  0
  3 30  1  0
  3 31  1  0
  5 32  1  0
  5 33  1  0
  6 34  1  0
  6 35  1  0
  8 36  1  0
  8 37  1  0
  9 38  1  0
  9 39  1  0
 11 40  1  0
 13 41  1  0
 14 42  1  0
 15 43  1  0
 16 44  1  0
 17 45  1  0
 19 46  1  0
 20 47  1  0
 23 48  1  0
 24 49  1  0
 25 50  1  0
 25 51  1  0
 26 52  1  0
 26 53  1  0
M  END
$$$$
OCNT-2328729
     RDKit          3D

 32 32  0  0  0  0  0  0  0  0999 V2000
   -4.2435    0.4461    1.2954 C   0  0  0  0  0  0  0  0  0  0  0  0
   -3.3315   -0.3852    0.4059 C   0  0  0  0  0  0  0  0  0  0  0  0
   -1.9336   -0.5178    1.0108 C   0  0  0  0  0  0  0  0  0  0  0  0
   -1.0102   -1.4497    0.2201 C   0  0  0  0  0  0  0  0  0  0  0  0
   -0.7368   -1.0437   -1.2330 C   0  0  0  0  0  0  0  0  0  0  0  0
   -0.0347    0.3089   -1.4136 C   0  0  0  0  0  0  0  0  0  0  0  0
    1.3778    0.3449   -0.8754 C   0  0  0  0  0  0  0  0  0  0  0  0
    2.3755   -0.4279   -1.4948 C   0  0  0  0  0  0  0  0  0  0  0  0
    3.6893   -0.4188   -1.0202 C   0  0  0  0  0  0  0  0  0  0  0  0
    4.0115    0.3698    0.0779 C   0  0  0  0  0  0  0  0  0  0  0  0
    5.2809    0.4096    0.5757 O   0  0  0  0  0  0  0  0  0  0  0  0
    3.0465    1.1484    0.7047 C   0  0  0  0  0  0  0  0  0  0  0  0
    1.7369    1.1341    0.2243 C   0  0  0  0  0  0  0  0  0  0  0  0
    0.7852    1.9037    0.8321 O   0  0  0  0  0  0  0  0  0  0  0  0
   -4.3585   -0.0159    2.2811 H   0  0  0  0  0  0  0  0  0  0  0  0
   -3.8429    1.4556    1.4330 H   0  0  0  0  0  0  0  0  0  0  0  0
   -5.2367    0.5332    0.8436 H   0  0  0  0  0  0  0  0  0  0  0  0
   -3.2763    0.0913   -0.5787 H   0  0  0  0  0  0  0  0  0  0  0  0
   -3.7737   -1.3782    0.2657 H   0  0  0  0  0  0  0  0  0  0  0  0
   -2.0218   -0.9160    2.0296 H   0  0  0  0  0  0  0  0  0  0  0  0
   -1.4798    0.4734    1.1086 H   0  0  0  0  0  0  0  0  0  0  0  0
   -0.0596   -1.5404    0.7592 H   0  0  0  0  0  0  0  0  0  0  0  0
   -1.4511   -2.4547    0.2158 H   0  0  0  0  0  0  0  0  0  0  0  0
   -1.6812   -1.0238   -1.7891 H   0  0  0  0  0  0  0  0  0  0  0  0
   -0.1371   -1.8353   -1.6997 H   0  0  0  0  0  0  0  0  0  0  0  0
   -0.6464    1.1103   -0.9860 H   0  0  0  0  0  0  0  0  0  0  0  0
    0.0164    0.5344   -2.4874 H   0  0  0  0  0  0  0  0  0  0  0  0
    2.1299   -1.0432   -2.3579 H   0  0  0  0  0  0  0  0  0  0  0  0
    4.4373   -1.0273   -1.5181 H   0  0  0  0  0  0  0  0  0  0  0  0
    5.8402   -0.1792    0.0425 H   0  0  0  0  0  0  0  0  0  0  0  0
    3.3306    1.7558    1.5574 H   0  0  0  0  0  0  0  0  0  0  0  0
    1.1976    2.3810    1.5705 H   0  0  0  0  0  0  0  0  0  0  0  0
  1  2  1  0
  2  3  1  0
  3  4  1  0
  4  5  1  0
  5  6  1  0
  6  7  1  0
  7  8  1  0
  8  9  2  0
  9 10  1  0
 10 11  1  0
 10 12  2  0
 12 13  1  0
 13 14  1  0
 13  7  2  0
  1 15  1  0
  1 16  1  0
  1 17  1  0
  2 18  1  0
  2 19  1  0
  3 20  1  0
  3 21  1  0
  4 22  1  0
  4 23  1  0
  5 24  1  0
  5 25  1  0
  6 26  1  0
  6 27  1  0
  8 28  1  0
  9 29  1  0
 11 30  1  0
 12 31  1  0
 14 32  1  0
M  END
$$$$
OCNT-2328731
     RDKit          3D

 64 66  0  0  0  0  0  0  0  0999 V2000
   -6.8037    0.6088   -1.8337 C   0  0  0  0  0  0  0  0  0  0  0  0
   -5.9081   -0.3113   -1.2094 O   0  0  0  0  0  0  0  0  0  0  0  0
   -4.6037   -0.0993   -1.5175 C   0  0  0  0  0  0  0  0  0  0  0  0
   -4.1705    0.7840   -2.2450 O   0  0  0  0  0  0  0  0  0  0  0  0
   -3.7310   -1.0322   -0.7710 C   0  0  0  0  0  0  0  0  0  0  0  0
   -3.9456   -2.3648   -0.6842 C   0  0  0  0  0  0  0  0  0  0  0  0
   -5.0731   -3.0917   -1.3689 C   0  0  0  0  0  0  0  0  0  0  0  0
   -3.0500   -3.1558    0.0213 N   0  0  0  0  0  0  0  0  0  0  0  0
   -1.8410   -2.7041    0.5323 C   0  0  0  0  0  0  0  0  0  0  0  0
   -0.9153   -3.7581    1.0850 C   0  0  0  0  0  0  0  0  0  0  0  0
   -1.5421   -1.3867    0.4815 C   0  0  0  0  0  0  0  0  0  0  0  0
   -0.2540   -0.8662    0.9987 C   0  0  0  0  0  0  0  0  0  0  0  0
    0.3373   -1.3052    1.9736 O   0  0  0  0  0  0  0  0  0  0  0  0
    0.1867    0.1324    0.1955 O   0  0  0  0  0  0  0  0  0  0  0  0
    1.4673    0.6941    0.5372 C   0  0  0  0  0  0  0  0  0  0  0  0
    2.6052   -0.2311    0.0746 C   0  0  0  0  0  0  0  0  0  0  0  0
    3.9332    0.4081    0.0481 N   0  0  0  0  0  0  0  0  0  0  0  0
    4.3733    0.7881    1.3940 C   0  0  0  0  0  0  0  0  0  0  0  0
    4.9092   -0.5051   -0.5799 C   0  0  0  0  0  0  0  0  0  0  0  0
    6.1968    0.1818   -0.9790 C   0  0  0  0  0  0  0  0  0  0  0  0
    7.4319   -0.2934   -0.5187 C   0  0  0  0  0  0  0  0  0  0  0  0
    8.6179    0.3329   -0.9031 C   0  0  0  0  0  0  0  0  0  0  0  0
    8.5829    1.4385   -1.7511 C   0  0  0  0  0  0  0  0  0  0  0  0
    7.3612    1.9189   -2.2169 C   0  0  0  0  0  0  0  0  0  0  0  0
    6.1743    1.2938   -1.8353 C   0  0  0  0  0  0  0  0  0  0  0  0
   -2.5148   -0.3786   -0.1237 C   0  0  0  0  0  0  0  0  0  0  0  0
   -2.9479    0.6702    0.9071 C   0  0  0  0  0  0  0  0  0  0  0  0
   -2.6814    2.0300    0.6806 C   0  0  0  0  0  0  0  0  0  0  0  0
   -3.1307    2.9726    1.6096 C   0  0  0  0  0  0  0  0  0  0  0  0
   -2.8776    4.3766    1.3634 N   0  0  0  0  0  0  0  0  0  0  0  0
   -3.8647    5.1049    1.1908 O   0  0  0  0  0  0  0  0  0  0  0  0
   -1.6947    4.7441    1.3506 O   0  0  0  0  0  0  0  0  0  0  0  0
   -3.8336    2.6087    2.7600 C   0  0  0  0  0  0  0  0  0  0  0  0
   -4.0845    1.2589    2.9921 C   0  0  0  0  0  0  0  0  0  0  0  0
   -3.6472    0.2980    2.0739 C   0  0  0  0  0  0  0  0  0  0  0  0
   -6.7534    0.5140   -2.9237 H   0  0  0  0  0  0  0  0  0  0  0  0
   -6.5846    1.6321   -1.5164 H   0  0  0  0  0  0  0  0  0  0  0  0
   -7.8199    0.3593   -1.5134 H   0  0  0  0  0  0  0  0  0  0  0  0
   -5.4351   -2.5694   -2.2614 H   0  0  0  0  0  0  0  0  0  0  0  0
   -4.7433   -4.0827   -1.7082 H   0  0  0  0  0  0  0  0  0  0  0  0
   -5.9079   -3.2353   -0.6744 H   0  0  0  0  0  0  0  0  0  0  0  0
   -3.1915   -4.1619   -0.0162 H   0  0  0  0  0  0  0  0  0  0  0  0
    0.1274   -3.5816    0.7972 H   0  0  0  0  0  0  0  0  0  0  0  0
   -1.1720   -4.7507    0.6979 H   0  0  0  0  0  0  0  0  0  0  0  0
   -0.9905   -3.7970    2.1765 H   0  0  0  0  0  0  0  0  0  0  0  0
    1.5307    1.6536    0.0126 H   0  0  0  0  0  0  0  0  0  0  0  0
    1.5116    0.9068    1.6110 H   0  0  0  0  0  0  0  0  0  0  0  0
    2.6242   -1.1425    0.6868 H   0  0  0  0  0  0  0  0  0  0  0  0
    2.3473   -0.5615   -0.9420 H   0  0  0  0  0  0  0  0  0  0  0  0
    5.3679    1.2465    1.3751 H   0  0  0  0  0  0  0  0  0  0  0  0
    4.4046   -0.0695    2.0738 H   0  0  0  0  0  0  0  0  0  0  0  0
    3.7125    1.5456    1.8252 H   0  0  0  0  0  0  0  0  0  0  0  0
    5.1130   -1.3620    0.0763 H   0  0  0  0  0  0  0  0  0  0  0  0
    4.4944   -0.9265   -1.5062 H   0  0  0  0  0  0  0  0  0  0  0  0
    7.4776   -1.1530    0.1458 H   0  0  0  0  0  0  0  0  0  0  0  0
    9.5708   -0.0421   -0.5392 H   0  0  0  0  0  0  0  0  0  0  0  0
    9.5072    1.9237   -2.0470 H   0  0  0  0  0  0  0  0  0  0  0  0
    7.3299    2.7826   -2.8764 H   0  0  0  0  0  0  0  0  0  0  0  0
    5.2233    1.6797   -2.1976 H   0  0  0  0  0  0  0  0  0  0  0  0
   -1.9779    0.1258   -0.9404 H   0  0  0  0  0  0  0  0  0  0  0  0
   -2.1525    2.3519   -0.2146 H   0  0  0  0  0  0  0  0  0  0  0  0
   -4.1823    3.3585    3.4674 H   0  0  0  0  0  0  0  0  0  0  0  0
   -4.6272    0.9464    3.8823 H   0  0  0  0  0  0  0  0  0  0  0  0
   -3.8664   -0.7529    2.2696 H   0  0  0  0  0  0  0  0  0  0  0  0
  1  2  1  0
  2  3  1  0
  3  4  2  0
  3  5  1  0
  5  6  2  0
  6  7  1  0
  6  8  1  0
  8  9  1  0
  9 10  1  0
  9 11  2  0
 11 12  1  0
 12 13  2  0
 12 14  1  0
 14 15  1  0
 15 16  1  0
 16 17  1  0
 17 18  1  0
 17 19  1  0
 19 20  1  0
 20 21  2  0
 21 22  1  0
 22 23  2  0
 23 24  1  0
 24 25  2  0
 11 26  1  0
 26 27  1  0
 27 28  1  0
 28 29  2  0
 29 30  1  0
 30 31  2  0
 30 32  1  0
 29 33  1  0
 33 34  2  0
 34 35  1  0
 26  5  1  0
 35 27  2  0
 25 20  1  0
  1 36  1  0
  1 37  1  0
  1 38  1  0
  7 39  1  0
  7 40  1  0
  7 41  1  0
  8 42  1  0
 10 43  1  0
 10 44  1  0
 10 45  1  0
 15 46  1  0
 15 47  1  0
 16 48  1  0
 16 49  1  0
 18 50  1  0
 18 51  1  0
 18 52  1  0
 19 53  1  0
 19 54  1  0
 21 55  1  0
 22 56  1  0
 23 57  1  0
 24 58  1  0
 25 59  1  0
 26 60  1  0
 28 61  1  0
 33 62  1  0
 34 63  1  0
 35 64  1  0
M  CHG  2  30   1  32  -1
M  END
$$$$
OCNT-2328732
     RDKit          3D

 16 15  0  0  0  0  0  0  0  0999 V2000
    2.2355    0.1785    1.2942 O   0  0  0  0  0  0  0  0  0  0  0  0
    1.8866    0.0688    0.1290 C   0  0  0  0  0  0  0  0  0  0  0  0
    2.7858    0.2234   -0.8659 O   0  0  0  0  0  0  0  0  0  0  0  0
    0.4917   -0.2458   -0.3766 C   0  0  1  0  0  0  0  0  0  0  0  0
    0.4361   -2.0678   -0.6779 S   0  0  0  0  0  0  0  0  0  0  0  0
   -0.5659    0.2111    0.6389 C   0  0  1  0  0  0  0  0  0  0  0  0
   -0.5327    2.0390    0.9159 S   0  0  0  0  0  0  0  0  0  0  0  0
   -1.9791   -0.1382    0.2138 C   0  0  0  0  0  0  0  0  0  0  0  0
   -2.8875   -0.4764    0.9571 O   0  0  0  0  0  0  0  0  0  0  0  0
   -2.2169    0.0058   -1.1066 O   0  0  0  0  0  0  0  0  0  0  0  0
    3.6401    0.3744   -0.4088 H   0  0  0  0  0  0  0  0  0  0  0  0
    0.3487    0.2593   -1.3393 H   0  0  0  0  0  0  0  0  0  0  0  0
   -0.6394   -2.0515   -1.4808 H   0  0  0  0  0  0  0  0  0  0  0  0
   -0.3904   -0.2653    1.6113 H   0  0  0  0  0  0  0  0  0  0  0  0
    0.5686    2.0478    1.6864 H   0  0  0  0  0  0  0  0  0  0  0  0
   -3.1811   -0.1629   -1.1905 H   0  0  0  0  0  0  0  0  0  0  0  0
  1  2  2  0
  2  3  1  0
  2  4  1  0
  4  5  1  0
  4  6  1  0
  6  7  1  0
  6  8  1  0
  8  9  2  0
  8 10  1  0
  3 11  1  0
  4 12  1  6
  5 13  1  0
  6 14  1  1
  7 15  1  0
 10 16  1  0
M  END
$$$$
OCNT-2328745
     RDKit          3D

 28 28  0  0  0  0  0  0  0  0999 V2000
    2.4641   -0.2818   -3.0321 C   0  0  0  0  0  0  0  0  0  0  0  0
    1.3478   -0.2540   -2.1159 N   0  0  0  0  0  0  0  0  0  0  0  0
    1.4578    0.1486   -0.9074 C   0  0  0  0  0  0  0  0  0  0  0  0
    2.4993    0.6575   -0.1829 N   0  0  0  0  0  0  0  0  0  0  0  0
    3.7185    1.2034   -0.7269 C   0  0  0  0  0  0  0  0  0  0  0  0
    0.3810    0.1039   -0.0634 N   0  0  0  0  0  0  0  0  0  0  0  0
   -0.8689   -0.4993   -0.4944 C   0  0  0  0  0  0  0  0  0  0  0  0
   -1.8672   -0.4302    0.6375 C   0  0  0  0  0  0  0  0  0  0  0  0
   -2.1411   -1.5604    1.4213 C   0  0  0  0  0  0  0  0  0  0  0  0
   -3.0511   -1.4846    2.4773 C   0  0  0  0  0  0  0  0  0  0  0  0
   -3.6896   -0.2793    2.7645 C   0  0  0  0  0  0  0  0  0  0  0  0
   -3.4179    0.8530    1.9986 C   0  0  0  0  0  0  0  0  0  0  0  0
   -2.5093    0.7794    0.9420 C   0  0  0  0  0  0  0  0  0  0  0  0
    2.1418   -0.7535   -3.9663 H   0  0  0  0  0  0  0  0  0  0  0  0
    2.8057    0.7246   -3.2889 H   0  0  0  0  0  0  0  0  0  0  0  0
    3.2922   -0.8843   -2.6479 H   0  0  0  0  0  0  0  0  0  0  0  0
    2.1465    1.2368    0.5713 H   0  0  0  0  0  0  0  0  0  0  0  0
    4.3386    0.4270   -1.1809 H   0  0  0  0  0  0  0  0  0  0  0  0
    3.5086    1.9919   -1.4553 H   0  0  0  0  0  0  0  0  0  0  0  0
    4.3071    1.6488    0.0818 H   0  0  0  0  0  0  0  0  0  0  0  0
    0.6366   -0.2005    0.8679 H   0  0  0  0  0  0  0  0  0  0  0  0
   -1.2757    0.0282   -1.3659 H   0  0  0  0  0  0  0  0  0  0  0  0
   -0.7090   -1.5439   -0.7882 H   0  0  0  0  0  0  0  0  0  0  0  0
   -1.6482   -2.5075    1.2120 H   0  0  0  0  0  0  0  0  0  0  0  0
   -3.2615   -2.3666    3.0767 H   0  0  0  0  0  0  0  0  0  0  0  0
   -4.3978   -0.2218    3.5870 H   0  0  0  0  0  0  0  0  0  0  0  0
   -3.9120    1.7942    2.2245 H   0  0  0  0  0  0  0  0  0  0  0  0
   -2.2963    1.6701    0.3541 H   0  0  0  0  0  0  0  0  0  0  0  0
  1  2  1  0
  2  3  2  3
  3  4  1  0
  4  5  1  0
  3  6  1  0
  6  7  1  0
  7  8  1  0
  8  9  2  0
  9 10  1  0
 10 11  2  0
 11 12  1  0
 12 13  2  0
 13  8  1  0
  1 14  1  0
  1 15  1  0
  1 16  1  0
  4 17  1  0
  5 18  1  0
  5 19  1  0
  5 20  1  0
  6 21  1  0
  7 22  1  0
  7 23  1  0
  9 24  1  0
 10 25  1  0
 11 26  1  0
 12 27  1  0
 13 28  1  0
M  END
$$$$
OCNT-2328750
     RDKit          3D

 30 29  0  0  0  0  0  0  0  0999 V2000
   -4.6756    0.9623    0.6201 C   0  0  0  0  0  0  0  0  0  0  0  0
   -3.4698    0.2308    1.0042 N   0  0  0  0  0  0  0  0  0  0  0  0
   -2.2988    0.7602    0.2732 C   0  0  0  0  0  0  0  0  0  0  0  0
   -1.1379   -0.2545    0.3211 C   0  0  2  0  0  0  0  0  0  0  0  0
   -0.9157   -0.6723    1.6835 O   0  0  0  0  0  0  0  0  0  0  0  0
    0.1650    0.3260   -0.2698 C   0  0  1  0  0  0  0  0  0  0  0  0
    0.5201    1.5194    0.4512 O   0  0  0  0  0  0  0  0  0  0  0  0
    1.3335   -0.6834   -0.1590 C   0  0  2  0  0  0  0  0  0  0  0  0
    1.6957   -0.8477    1.2227 O   0  0  0  0  0  0  0  0  0  0  0  0
    2.5583   -0.2175   -0.9605 C   0  0  2  0  0  0  0  0  0  0  0  0
    2.2401   -0.1898   -2.3612 O   0  0  0  0  0  0  0  0  0  0  0  0
    3.7661   -1.1407   -0.7618 C   0  0  0  0  0  0  0  0  0  0  0  0
    4.8422   -0.6702   -1.5842 O   0  0  0  0  0  0  0  0  0  0  0  0
   -4.9059    0.8139   -0.4398 H   0  0  0  0  0  0  0  0  0  0  0  0
   -4.5759    2.0340    0.8211 H   0  0  0  0  0  0  0  0  0  0  0  0
   -5.5264    0.5876    1.1975 H   0  0  0  0  0  0  0  0  0  0  0  0
   -3.3187    0.4035    2.0005 H   0  0  0  0  0  0  0  0  0  0  0  0
   -2.5443    0.9563   -0.7775 H   0  0  0  0  0  0  0  0  0  0  0  0
   -2.0089    1.7092    0.7387 H   0  0  0  0  0  0  0  0  0  0  0  0
   -1.4165   -1.1538   -0.2425 H   0  0  0  0  0  0  0  0  0  0  0  0
   -1.7937   -0.9962    1.9711 H   0  0  0  0  0  0  0  0  0  0  0  0
   -0.0116    0.6070   -1.3136 H   0  0  0  0  0  0  0  0  0  0  0  0
    0.8179    1.2090    1.3298 H   0  0  0  0  0  0  0  0  0  0  0  0
    1.0047   -1.6568   -0.5435 H   0  0  0  0  0  0  0  0  0  0  0  0
    0.8545   -1.0289    1.7003 H   0  0  0  0  0  0  0  0  0  0  0  0
    2.8483    0.8006   -0.6753 H   0  0  0  0  0  0  0  0  0  0  0  0
    3.1051   -0.1961   -2.8204 H   0  0  0  0  0  0  0  0  0  0  0  0
    4.1064   -1.1727    0.2774 H   0  0  0  0  0  0  0  0  0  0  0  0
    3.5353   -2.1579   -1.0937 H   0  0  0  0  0  0  0  0  0  0  0  0
    5.2067    0.1188   -1.1440 H   0  0  0  0  0  0  0  0  0  0  0  0
  1  2  1  0
  2  3  1  0
  3  4  1  0
  4  5  1  0
  4  6  1  0
  6  7  1  0
  6  8  1  0
  8  9  1  0
  8 10  1  0
 10 11  1  0
 10 12  1  0
 12 13  1  0
  1 14  1  0
  1 15  1  0
  1 16  1  0
  2 17  1  0
  3 18  1  0
  3 19  1  0
  4 20  1  6
  5 21  1  0
  6 22  1  6
  7 23  1  0
  8 24  1  6
  9 25  1  0
 10 26  1  1
 11 27  1  0
 12 28  1  0
 12 29  1  0
 13 30  1  0
M  END
$$$$
OCNT-2328763
     RDKit          3D

 47 49  0  0  0  0  0  0  0  0999 V2000
   -5.8357    4.6568    1.4193 Cl  0  0  0  0  0  0  0  0  0  0  0  0
   -4.5997    3.5070    1.0889 C   0  0  0  0  0  0  0  0  0  0  0  0
   -3.9276    3.5460   -0.1309 C   0  0  0  0  0  0  0  0  0  0  0  0
   -2.9227    2.6134   -0.4010 C   0  0  0  0  0  0  0  0  0  0  0  0
   -2.5804    1.6350    0.5484 C   0  0  0  0  0  0  0  0  0  0  0  0
   -1.4937    0.6137    0.2397 C   0  0  0  0  0  0  0  0  0  0  0  0
   -0.6265    0.5210    1.3812 O   0  0  0  0  0  0  0  0  0  0  0  0
    0.7589    0.7150    1.0784 C   0  0  0  0  0  0  0  0  0  0  0  0
    1.3696   -0.4989    0.3511 C   0  0  0  0  0  0  0  0  0  0  0  0
    2.8342   -0.4205    0.1812 N   0  0  0  0  0  0  0  0  0  0  0  0
    3.3572   -1.7343   -0.2347 C   0  0  0  0  0  0  0  0  0  0  0  0
    4.8810   -1.7176   -0.3608 C   0  0  0  0  0  0  0  0  0  0  0  0
    5.3470   -0.6278   -1.3184 C   0  0  0  0  0  0  0  0  0  0  0  0
    4.7402    0.7144   -0.9290 C   0  0  0  0  0  0  0  0  0  0  0  0
    3.2194    0.6209   -0.7853 C   0  0  0  0  0  0  0  0  0  0  0  0
   -2.0640   -0.7530   -0.1166 C   0  0  0  0  0  0  0  0  0  0  0  0
   -2.1702   -1.7816    0.8346 C   0  0  0  0  0  0  0  0  0  0  0  0
   -2.6980   -3.0267    0.4852 C   0  0  0  0  0  0  0  0  0  0  0  0
   -3.1354   -3.2589   -0.8173 C   0  0  0  0  0  0  0  0  0  0  0  0
   -3.0467   -2.2469   -1.7712 C   0  0  0  0  0  0  0  0  0  0  0  0
   -2.5174   -1.0017   -1.4239 C   0  0  0  0  0  0  0  0  0  0  0  0
   -3.2737    1.6113    1.7711 C   0  0  0  0  0  0  0  0  0  0  0  0
   -4.2777    2.5435    2.0413 C   0  0  0  0  0  0  0  0  0  0  0  0
   -4.1816    4.2968   -0.8744 H   0  0  0  0  0  0  0  0  0  0  0  0
   -2.4093    2.6565   -1.3589 H   0  0  0  0  0  0  0  0  0  0  0  0
   -0.9159    0.9756   -0.6224 H   0  0  0  0  0  0  0  0  0  0  0  0
    0.8798    1.6472    0.5154 H   0  0  0  0  0  0  0  0  0  0  0  0
    1.2691    0.8507    2.0390 H   0  0  0  0  0  0  0  0  0  0  0  0
    1.1183   -1.3839    0.9523 H   0  0  0  0  0  0  0  0  0  0  0  0
    0.8786   -0.6502   -0.6183 H   0  0  0  0  0  0  0  0  0  0  0  0
    3.0913   -2.4937    0.5113 H   0  0  0  0  0  0  0  0  0  0  0  0
    2.9116   -2.0447   -1.1887 H   0  0  0  0  0  0  0  0  0  0  0  0
    5.2339   -2.6937   -0.7129 H   0  0  0  0  0  0  0  0  0  0  0  0
    5.3290   -1.5535    0.6272 H   0  0  0  0  0  0  0  0  0  0  0  0
    6.4410   -0.5620   -1.3112 H   0  0  0  0  0  0  0  0  0  0  0  0
    5.0454   -0.8848   -2.3414 H   0  0  0  0  0  0  0  0  0  0  0  0
    4.9948    1.4678   -1.6834 H   0  0  0  0  0  0  0  0  0  0  0  0
    5.1775    1.0521    0.0192 H   0  0  0  0  0  0  0  0  0  0  0  0
    2.7679    0.4259   -1.7669 H   0  0  0  0  0  0  0  0  0  0  0  0
    2.8638    1.6024   -0.4530 H   0  0  0  0  0  0  0  0  0  0  0  0
   -1.8374   -1.6172    1.8580 H   0  0  0  0  0  0  0  0  0  0  0  0
   -2.7708   -3.8132    1.2330 H   0  0  0  0  0  0  0  0  0  0  0  0
   -3.5478   -4.2278   -1.0870 H   0  0  0  0  0  0  0  0  0  0  0  0
   -3.3913   -2.4267   -2.7860 H   0  0  0  0  0  0  0  0  0  0  0  0
   -2.4588   -0.2260   -2.1837 H   0  0  0  0  0  0  0  0  0  0  0  0
   -3.0266    0.8620    2.5215 H   0  0  0  0  0  0  0  0  0  0  0  0
   -4.8005    2.5102    2.9932 H   0  0  0  0  0  0  0  0  0  0  0  0
  1  2  1  0
  2  3  1  0
  3  4  2  0
  4  5  1  0
  5  6  1  0
  6  7  1  0
  7  8  1  0
  8  9  1  0
  9 10  1  0
 10 11  1  0
 11 12  1  0
 12 13  1  0
 13 14  1  0
 14 15  1  0
  6 16  1  0
 16 17  2  0
 17 18  1  0
 18 19  2  0
 19 20  1  0
 20 21  2  0
  5 22  2  0
 22 23  1  0
 23  2  2  0
 15 10  1  0
 21 16  1  0
  3 24  1  0
  4 25  1  0
  6 26  1  0
  8 27  1  0
  8 28  1  0
  9 29  1  0
  9 30  1  0
 11 31  1  0
 11 32  1  0
 12 33  1  0
 12 34  1  0
 13 35  1  0
 13 36  1  0
 14 37  1  0
 14 38  1  0
 15 39  1  0
 15 40  1  0
 17 41  1  0
 18 42  1  0
 19 43  1  0
 20 44  1  0
 21 45  1  0
 22 46  1  0
 23 47  1  0
M  END
$$$$
OCNT-2328764
     RDKit          3D

 25 25  0  0  0  0  0  0  0  0999 V2000
    3.7842   -0.6400    0.0907 C   0  0  0  0  0  0  0  0  0  0  0  0
    2.3017   -0.3963    0.0737 C   0  0  0  0  0  0  0  0  0  0  0  0
    1.5352   -0.7052    1.2073 C   0  0  0  0  0  0  0  0  0  0  0  0
    0.1541   -0.4866    1.2135 C   0  0  0  0  0  0  0  0  0  0  0  0
   -0.5702   -0.7959    2.3305 O   0  0  0  0  0  0  0  0  0  0  0  0
   -0.5060    0.0435    0.0985 C   0  0  0  0  0  0  0  0  0  0  0  0
   -2.0080    0.2828    0.1012 C   0  0  0  0  0  0  0  0  0  0  0  0
   -2.3402    1.7674   -0.0758 C   0  0  0  0  0  0  0  0  0  0  0  0
   -2.7131   -0.5634   -0.9631 C   0  0  0  0  0  0  0  0  0  0  0  0
    0.2675    0.3509   -1.0342 C   0  0  0  0  0  0  0  0  0  0  0  0
    1.6503    0.1347   -1.0476 C   0  0  0  0  0  0  0  0  0  0  0  0
    2.5172    0.5435   -2.4857 Cl  0  0  0  0  0  0  0  0  0  0  0  0
    4.1115   -1.0572    1.0491 H   0  0  0  0  0  0  0  0  0  0  0  0
    4.3273    0.2985   -0.0600 H   0  0  0  0  0  0  0  0  0  0  0  0
    4.0627   -1.3555   -0.6897 H   0  0  0  0  0  0  0  0  0  0  0  0
    2.0247   -1.1179    2.0855 H   0  0  0  0  0  0  0  0  0  0  0  0
    0.0265   -1.1499    3.0096 H   0  0  0  0  0  0  0  0  0  0  0  0
   -2.4262   -0.0187    1.0689 H   0  0  0  0  0  0  0  0  0  0  0  0
   -3.4195    1.9328    0.0121 H   0  0  0  0  0  0  0  0  0  0  0  0
   -1.8449    2.3730    0.6915 H   0  0  0  0  0  0  0  0  0  0  0  0
   -2.0259    2.1457   -1.0545 H   0  0  0  0  0  0  0  0  0  0  0  0
   -2.4142   -0.2808   -1.9782 H   0  0  0  0  0  0  0  0  0  0  0  0
   -2.4849   -1.6270   -0.8312 H   0  0  0  0  0  0  0  0  0  0  0  0
   -3.7996   -0.4427   -0.8922 H   0  0  0  0  0  0  0  0  0  0  0  0
   -0.2101    0.7644   -1.9198 H   0  0  0  0  0  0  0  0  0  0  0  0
  1  2  1  0
  2  3  1  0
  3  4  2  0
  4  5  1  0
  4  6  1  0
  6  7  1  0
  7  8  1  0
  7  9  1  0
  6 10  2  0
 10 11  1  0
 11 12  1  0
 11  2  2  0
  1 13  1  0
  1 14  1  0
  1 15  1  0
  3 16  1  0
  5 17  1  0
  7 18  1  0
  8 19  1  0
  8 20  1  0
  8 21  1  0
  9 22  1  0
  9 23  1  0
  9 24  1  0
 10 25  1  0
M  END
$$$$
OCNT-2328781
     RDKit          3D

 39 41  0  0  0  0  0  0  0  0999 V2000
    1.6484    0.9638   -0.9489 C   0  0  0  0  0  0  0  0  0  0  0  0
    2.0777    0.0684    0.1840 C   0  0  0  0  0  0  0  0  0  0  0  0
    3.4472   -0.1367    0.4429 C   0  0  0  0  0  0  0  0  0  0  0  0
    4.3176    0.4900   -0.4112 O   0  0  0  0  0  0  0  0  0  0  0  0
    5.7210    0.2911   -0.2075 C   0  0  0  0  0  0  0  0  0  0  0  0
    6.5226    1.0474   -1.2563 C   0  0  0  0  0  0  0  0  0  0  0  0
    6.2964    2.3780   -1.1986 F   0  0  0  0  0  0  0  0  0  0  0  0
    7.8493    0.8554   -1.0583 F   0  0  0  0  0  0  0  0  0  0  0  0
    6.2379    0.6259   -2.5076 F   0  0  0  0  0  0  0  0  0  0  0  0
    3.8361   -0.9294    1.5180 C   0  0  0  0  0  0  0  0  0  0  0  0
    2.8508   -1.4752    2.3161 C   0  0  0  0  0  0  0  0  0  0  0  0
    1.5347   -1.2807    2.1178 N   0  0  0  0  0  0  0  0  0  0  0  0
    1.1500   -0.5200    1.0603 C   0  0  0  0  0  0  0  0  0  0  0  0
   -0.3409   -0.3497    0.9059 C   0  0  0  0  0  0  0  0  0  0  0  0
   -1.0302   -1.5161   -0.3093 S   0  0  0  0  0  0  0  0  0  0  0  0
   -1.2429   -2.8566    0.3371 O   0  0  0  0  0  0  0  0  0  0  0  0
   -2.6711   -0.7779   -0.3822 C   0  0  0  0  0  0  0  0  0  0  0  0
   -2.9222    0.4862   -0.6429 N   0  0  0  0  0  0  0  0  0  0  0  0
   -4.2926    0.5903   -0.5951 C   0  0  0  0  0  0  0  0  0  0  0  0
   -5.1133    1.7097   -0.7947 C   0  0  0  0  0  0  0  0  0  0  0  0
   -6.5012    1.5528   -0.6862 C   0  0  0  0  0  0  0  0  0  0  0  0
   -7.0601    0.3079   -0.3850 C   0  0  0  0  0  0  0  0  0  0  0  0
   -6.2579   -0.8212   -0.1826 C   0  0  0  0  0  0  0  0  0  0  0  0
   -4.8790   -0.6369   -0.2976 C   0  0  0  0  0  0  0  0  0  0  0  0
   -3.8176   -1.4927   -0.1690 N   0  0  0  0  0  0  0  0  0  0  0  0
    1.5494    1.9929   -0.5897 H   0  0  0  0  0  0  0  0  0  0  0  0
    2.3676    0.9475   -1.7742 H   0  0  0  0  0  0  0  0  0  0  0  0
    0.6966    0.6489   -1.3837 H   0  0  0  0  0  0  0  0  0  0  0  0
    6.0079    0.6616    0.7833 H   0  0  0  0  0  0  0  0  0  0  0  0
    5.9606   -0.7754   -0.2886 H   0  0  0  0  0  0  0  0  0  0  0  0
    4.8692   -1.1338    1.7645 H   0  0  0  0  0  0  0  0  0  0  0  0
    3.1011   -2.1008    3.1684 H   0  0  0  0  0  0  0  0  0  0  0  0
   -0.8406   -0.5299    1.8648 H   0  0  0  0  0  0  0  0  0  0  0  0
   -0.5690    0.6798    0.6121 H   0  0  0  0  0  0  0  0  0  0  0  0
   -4.6750    2.6736   -1.0278 H   0  0  0  0  0  0  0  0  0  0  0  0
   -7.1498    2.4125   -0.8385 H   0  0  0  0  0  0  0  0  0  0  0  0
   -8.1417    0.2138   -0.3063 H   0  0  0  0  0  0  0  0  0  0  0  0
   -6.6929   -1.7870    0.0510 H   0  0  0  0  0  0  0  0  0  0  0  0
   -3.8442   -2.4773    0.0582 H   0  0  0  0  0  0  0  0  0  0  0  0
  1  2  1  0
  2  3  1  0
  3  4  1  0
  4  5  1  0
  5  6  1  0
  6  7  1  0
  6  8  1  0
  6  9  1  0
  3 10  2  0
 10 11  1  0
 11 12  2  0
 12 13  1  0
 13 14  1  0
 14 15  1  0
 15 16  2  0
 15 17  1  0
 17 18  2  0
 18 19  1  0
 19 20  2  0
 20 21  1  0
 21 22  2  0
 22 23  1  0
 23 24  2  0
 24 25  1  0
 13  2  2  0
 25 17  1  0
 24 19  1  0
  1 26  1  0
  1 27  1  0
  1 28  1  0
  5 29  1  0
  5 30  1  0
 10 31  1  0
 11 32  1  0
 14 33  1  0
 14 34  1  0
 20 35  1  0
 21 36  1  0
 22 37  1  0
 23 38  1  0
 25 39  1  0
M  END
$$$$
OCNT-2328787
     RDKit          3D

 60 60  0  0  0  0  0  0  0  0999 V2000
   -8.7588    0.2494   -0.1483 C   0  0  0  0  0  0  0  0  0  0  0  0
   -7.6008   -0.0284   -1.0945 C   0  0  0  0  0  0  0  0  0  0  0  0
   -6.2488   -0.1600   -0.3881 C   0  0  0  0  0  0  0  0  0  0  0  0
   -5.7687    1.1469    0.2487 C   0  0  0  0  0  0  0  0  0  0  0  0
   -4.4215    1.0123    0.9679 C   0  0  0  0  0  0  0  0  0  0  0  0
   -3.2548    0.7137    0.0226 C   0  0  0  0  0  0  0  0  0  0  0  0
   -1.8840    0.8097    0.7016 C   0  0  0  0  0  0  0  0  0  0  0  0
   -1.6816   -0.2321    1.8068 C   0  0  0  0  0  0  0  0  0  0  0  0
   -0.2586   -0.2239    2.3777 C   0  0  0  0  0  0  0  0  0  0  0  0
    0.6664   -1.3011    1.8000 C   0  0  0  0  0  0  0  0  0  0  0  0
    0.9406   -1.1553    0.3031 C   0  0  0  0  0  0  0  0  0  0  0  0
    1.9889   -2.1674   -0.1666 C   0  0  0  0  0  0  0  0  0  0  0  0
    2.2572   -2.1069   -1.6708 C   0  0  0  0  0  0  0  0  0  0  0  0
    2.8329   -0.7928   -2.2110 C   0  0  0  0  0  0  0  0  0  0  0  0
    4.2305   -0.4441   -1.6899 C   0  0  0  0  0  0  0  0  0  0  0  0
    4.2085    0.4998   -0.4919 C   0  0  0  0  0  0  0  0  0  0  0  0
    5.6032    0.8113   -0.0931 N   0  0  0  0  0  0  0  0  0  0  0  0
    6.2361    0.0166    0.8021 C   0  0  0  0  0  0  0  0  0  0  0  0
    7.5404    0.2922    1.1950 C   0  0  0  0  0  0  0  0  0  0  0  0
    8.1939    1.3951    0.6610 C   0  0  0  0  0  0  0  0  0  0  0  0
    7.5323    2.2017   -0.2555 C   0  0  0  0  0  0  0  0  0  0  0  0
    6.2279    1.8903   -0.6212 C   0  0  0  0  0  0  0  0  0  0  0  0
   -8.6711    1.2360    0.3156 H   0  0  0  0  0  0  0  0  0  0  0  0
   -8.8088   -0.5038    0.6442 H   0  0  0  0  0  0  0  0  0  0  0  0
   -9.7058    0.2260   -0.6975 H   0  0  0  0  0  0  0  0  0  0  0  0
   -7.8057   -0.9655   -1.6263 H   0  0  0  0  0  0  0  0  0  0  0  0
   -7.5507    0.7615   -1.8530 H   0  0  0  0  0  0  0  0  0  0  0  0
   -5.5175   -0.4952   -1.1322 H   0  0  0  0  0  0  0  0  0  0  0  0
   -6.3081   -0.9452    0.3753 H   0  0  0  0  0  0  0  0  0  0  0  0
   -5.7007    1.9297   -0.5164 H   0  0  0  0  0  0  0  0  0  0  0  0
   -6.5042    1.4878    0.9860 H   0  0  0  0  0  0  0  0  0  0  0  0
   -4.2221    1.9529    1.4962 H   0  0  0  0  0  0  0  0  0  0  0  0
   -4.5000    0.2293    1.7307 H   0  0  0  0  0  0  0  0  0  0  0  0
   -3.2745    1.4279   -0.8098 H   0  0  0  0  0  0  0  0  0  0  0  0
   -3.3667   -0.2856   -0.4130 H   0  0  0  0  0  0  0  0  0  0  0  0
   -1.1167    0.6933   -0.0705 H   0  0  0  0  0  0  0  0  0  0  0  0
   -1.7530    1.8157    1.1191 H   0  0  0  0  0  0  0  0  0  0  0  0
   -2.3711   -0.0006    2.6276 H   0  0  0  0  0  0  0  0  0  0  0  0
   -1.9464   -1.2331    1.4469 H   0  0  0  0  0  0  0  0  0  0  0  0
   -0.3279   -0.4095    3.4575 H   0  0  0  0  0  0  0  0  0  0  0  0
    0.2003    0.7656    2.2660 H   0  0  0  0  0  0  0  0  0  0  0  0
    1.6178   -1.2560    2.3450 H   0  0  0  0  0  0  0  0  0  0  0  0
    0.2395   -2.2918    1.9994 H   0  0  0  0  0  0  0  0  0  0  0  0
    1.2790   -0.1347    0.0973 H   0  0  0  0  0  0  0  0  0  0  0  0
    0.0157   -1.3169   -0.2615 H   0  0  0  0  0  0  0  0  0  0  0  0
    1.6337   -3.1779    0.0729 H   0  0  0  0  0  0  0  0  0  0  0  0
    2.9238   -2.0369    0.3884 H   0  0  0  0  0  0  0  0  0  0  0  0
    2.9413   -2.9242   -1.9325 H   0  0  0  0  0  0  0  0  0  0  0  0
    1.3200   -2.3148   -2.2028 H   0  0  0  0  0  0  0  0  0  0  0  0
    2.9076   -0.9093   -3.3004 H   0  0  0  0  0  0  0  0  0  0  0  0
    2.1354    0.0362   -2.0480 H   0  0  0  0  0  0  0  0  0  0  0  0
    4.7940   -1.3548   -1.4550 H   0  0  0  0  0  0  0  0  0  0  0  0
    4.7826    0.0498   -2.5001 H   0  0  0  0  0  0  0  0  0  0  0  0
    3.7084    1.4453   -0.7305 H   0  0  0  0  0  0  0  0  0  0  0  0
    3.7096    0.0712    0.3810 H   0  0  0  0  0  0  0  0  0  0  0  0
    5.6903   -0.8373    1.1936 H   0  0  0  0  0  0  0  0  0  0  0  0
    8.0460   -0.3496    1.9135 H   0  0  0  0  0  0  0  0  0  0  0  0
    9.2166    1.6251    0.9581 H   0  0  0  0  0  0  0  0  0  0  0  0
    8.0315    3.0688   -0.6832 H   0  0  0  0  0  0  0  0  0  0  0  0
    5.6764    2.4937   -1.3366 H   0  0  0  0  0  0  0  0  0  0  0  0
  1  2  1  0
  2  3  1  0
  3  4  1  0
  4  5  1  0
  5  6  1  0
  6  7  1  0
  7  8  1  0
  8  9  1  0
  9 10  1  0
 10 11  1  0
 11 12  1  0
 12 13  1  0
 13 14  1  0
 14 15  1  0
 15 16  1  0
 16 17  1  0
 17 18  2  0
 18 19  1  0
 19 20  2  0
 20 21  1  0
 21 22  2  0
 22 17  1  0
  1 23  1  0
  1 24  1  0
  1 25  1  0
  2 26  1  0
  2 27  1  0
  3 28  1  0
  3 29  1  0
  4 30  1  0
  4 31  1  0
  5 32  1  0
  5 33  1  0
  6 34  1  0
  6 35  1  0
  7 36  1  0
  7 37  1  0
  8 38  1  0
  8 39  1  0
  9 40  1  0
  9 41  1  0
 10 42  1  0
 10 43  1  0
 11 44  1  0
 11 45  1  0
 12 46  1  0
 12 47  1  0
 13 48  1  0
 13 49  1  0
 14 50  1  0
 14 51  1  0
 15 52  1  0
 15 53  1  0
 16 54  1  0
 16 55  1  0
 18 56  1  0
 19 57  1  0
 20 58  1  0
 21 59  1  0
 22 60  1  0
M  CHG  1  17   1
M  END
$$$$
OCNT-2328788
     RDKit          3D

 37 39  0  0  0  0  0  0  0  0999 V2000
   -4.0888    2.2787    0.2378 C   0  0  0  0  0  0  0  0  0  0  0  0
   -3.5970    0.9201    0.0471 N   0  0  0  0  0  0  0  0  0  0  0  0
   -2.1326    0.8398   -0.0967 C   0  0  1  0  0  0  0  0  0  0  0  0
   -1.3860    1.4052    1.1260 C   0  0  0  0  0  0  0  0  0  0  0  0
    0.1337    1.1673    1.1125 C   0  0  0  0  0  0  0  0  0  0  0  0
    0.6607    0.4406   -0.1448 C   0  0  1  0  0  0  0  0  0  0  0  0
    2.1596    0.1747   -0.0298 C   0  0  0  0  0  0  0  0  0  0  0  0
    2.7059   -0.5443    1.0488 C   0  0  0  0  0  0  0  0  0  0  0  0
    4.0833   -0.7803    1.1336 C   0  0  0  0  0  0  0  0  0  0  0  0
    4.6629   -1.6753    2.4935 Cl  0  0  0  0  0  0  0  0  0  0  0  0
    4.9346   -0.3003    0.1347 C   0  0  0  0  0  0  0  0  0  0  0  0
    6.6434   -0.5519    0.1700 Cl  0  0  0  0  0  0  0  0  0  0  0  0
    4.4038    0.4091   -0.9450 C   0  0  0  0  0  0  0  0  0  0  0  0
    3.0284    0.6429   -1.0278 C   0  0  0  0  0  0  0  0  0  0  0  0
   -0.2220   -0.7678   -0.4416 C   0  0  0  0  0  0  0  0  0  0  0  0
   -1.6261   -0.5774   -0.3729 C   0  0  0  0  0  0  0  0  0  0  0  0
   -2.4747   -1.6717   -0.6050 C   0  0  0  0  0  0  0  0  0  0  0  0
   -1.9523   -2.9230   -0.9322 C   0  0  0  0  0  0  0  0  0  0  0  0
   -0.5774   -3.0965   -1.0431 C   0  0  0  0  0  0  0  0  0  0  0  0
    0.2836   -2.0258   -0.8049 C   0  0  0  0  0  0  0  0  0  0  0  0
   -5.1827    2.2737    0.1928 H   0  0  0  0  0  0  0  0  0  0  0  0
   -3.8157    2.6752    1.2199 H   0  0  0  0  0  0  0  0  0  0  0  0
   -3.7270    2.9549   -0.5434 H   0  0  0  0  0  0  0  0  0  0  0  0
   -4.0101    0.5612   -0.8137 H   0  0  0  0  0  0  0  0  0  0  0  0
   -1.8629    1.4346   -0.9812 H   0  0  0  0  0  0  0  0  0  0  0  0
   -1.7924    0.9611    2.0455 H   0  0  0  0  0  0  0  0  0  0  0  0
   -1.5588    2.4851    1.2092 H   0  0  0  0  0  0  0  0  0  0  0  0
    0.3780    0.5979    2.0188 H   0  0  0  0  0  0  0  0  0  0  0  0
    0.6520    2.1289    1.2251 H   0  0  0  0  0  0  0  0  0  0  0  0
    0.5229    1.1249   -0.9952 H   0  0  0  0  0  0  0  0  0  0  0  0
    2.0519   -0.9396    1.8243 H   0  0  0  0  0  0  0  0  0  0  0  0
    5.0571    0.7832   -1.7300 H   0  0  0  0  0  0  0  0  0  0  0  0
    2.6409    1.1943   -1.8831 H   0  0  0  0  0  0  0  0  0  0  0  0
   -3.5539   -1.5709   -0.5273 H   0  0  0  0  0  0  0  0  0  0  0  0
   -2.6222   -3.7609   -1.1068 H   0  0  0  0  0  0  0  0  0  0  0  0
   -0.1725   -4.0692   -1.3105 H   0  0  0  0  0  0  0  0  0  0  0  0
    1.3520   -2.1984   -0.9049 H   0  0  0  0  0  0  0  0  0  0  0  0
  1  2  1  0
  2  3  1  0
  3  4  1  0
  4  5  1  0
  5  6  1  0
  6  7  1  0
  7  8  2  0
  8  9  1  0
  9 10  1  0
  9 11  2  0
 11 12  1  0
 11 13  1  0
 13 14  2  0
  6 15  1  0
 15 16  1  0
 16 17  2  0
 17 18  1  0
 18 19  2  0
 19 20  1  0
 16  3  1  0
 14  7  1  0
 20 15  2  0
  1 21  1  0
  1 22  1  0
  1 23  1  0
  2 24  1  0
  3 25  1  6
  4 26  1  0
  4 27  1  0
  5 28  1  0
  5 29  1  0
  6 30  1  6
  8 31  1  0
 13 32  1  0
 14 33  1  0
 17 34  1  0
 18 35  1  0
 19 36  1  0
 20 37  1  0
M  END
$$$$
OCNT-2328791
     RDKit          3D

 72 73  0  0  0  0  0  0  0  0999 V2000
    5.3925   -2.5343   -2.1422 C   0  0  0  0  0  0  0  0  0  0  0  0
    5.8938   -1.4018   -1.2096 C   0  0  0  0  0  0  0  0  0  0  0  0
    6.9241   -0.5821   -1.9941 C   0  0  0  0  0  0  0  0  0  0  0  0
    6.5836   -2.0847   -0.0141 C   0  0  0  0  0  0  0  0  0  0  0  0
    4.6350   -0.5822   -0.7782 C   0  0  0  0  0  0  0  0  0  0  0  0
    4.7021    0.8056   -0.0506 C   0  0  0  0  0  0  0  0  0  0  0  0
    5.6969    0.8067    1.1264 C   0  0  0  0  0  0  0  0  0  0  0  0
    5.1530    1.9368   -1.0086 C   0  0  0  0  0  0  0  0  0  0  0  0
    3.2504    1.1116    0.4247 C   0  0  0  0  0  0  0  0  0  0  0  0
    2.2587    1.4882   -0.4988 C   0  0  0  0  0  0  0  0  0  0  0  0
    0.9492    1.7622   -0.0898 C   0  0  0  0  0  0  0  0  0  0  0  0
    0.5829    1.6601    1.2509 C   0  0  0  0  0  0  0  0  0  0  0  0
   -0.7270    1.9486    1.5061 O   0  0  0  0  0  0  0  0  0  0  0  0
   -1.1606    2.0251    2.8671 C   0  0  0  0  0  0  0  0  0  0  0  0
   -1.6282    0.6611    3.3933 C   0  0  0  0  0  0  0  0  0  0  0  0
   -2.4470   -0.0746    2.4744 O   0  0  0  0  0  0  0  0  0  0  0  0
   -3.6950    0.5393    2.1710 C   0  0  0  0  0  0  0  0  0  0  0  0
   -4.4727   -0.3278    1.1633 C   0  0  0  0  0  0  0  0  0  0  0  0
   -3.8493   -0.4109   -0.2581 N   0  0  0  0  0  0  0  0  0  0  0  0
   -3.7927    0.9605   -0.9099 C   0  0  0  0  0  0  0  0  0  0  0  0
   -2.4252   -0.9771   -0.1969 C   0  0  0  0  0  0  0  0  0  0  0  0
   -4.6789   -1.3910   -1.1259 C   0  0  0  0  0  0  0  0  0  0  0  0
   -6.1373   -1.0582   -1.3266 C   0  0  0  0  0  0  0  0  0  0  0  0
   -7.1166   -1.5972   -0.4758 C   0  0  0  0  0  0  0  0  0  0  0  0
   -8.4646   -1.2822   -0.6548 C   0  0  0  0  0  0  0  0  0  0  0  0
   -8.8515   -0.4334   -1.6882 C   0  0  0  0  0  0  0  0  0  0  0  0
   -7.8937    0.0960   -2.5495 C   0  0  0  0  0  0  0  0  0  0  0  0
   -6.5448   -0.2164   -2.3738 C   0  0  0  0  0  0  0  0  0  0  0  0
    1.5422    1.2684    2.1774 C   0  0  0  0  0  0  0  0  0  0  0  0
    2.8561    0.9934    1.7680 C   0  0  0  0  0  0  0  0  0  0  0  0
    4.6598   -3.1707   -1.6325 H   0  0  0  0  0  0  0  0  0  0  0  0
    6.2173   -3.1770   -2.4711 H   0  0  0  0  0  0  0  0  0  0  0  0
    4.9157   -2.1268   -3.0413 H   0  0  0  0  0  0  0  0  0  0  0  0
    6.4524   -0.0310   -2.8147 H   0  0  0  0  0  0  0  0  0  0  0  0
    7.4531    0.1279   -1.3532 H   0  0  0  0  0  0  0  0  0  0  0  0
    7.6907   -1.2312   -2.4342 H   0  0  0  0  0  0  0  0  0  0  0  0
    7.3186   -2.8237   -0.3553 H   0  0  0  0  0  0  0  0  0  0  0  0
    7.1290   -1.3791    0.6157 H   0  0  0  0  0  0  0  0  0  0  0  0
    5.8581   -2.6117    0.6156 H   0  0  0  0  0  0  0  0  0  0  0  0
    4.0304   -1.2554   -0.1502 H   0  0  0  0  0  0  0  0  0  0  0  0
    4.0259   -0.4347   -1.6832 H   0  0  0  0  0  0  0  0  0  0  0  0
    5.5331   -0.0406    1.8010 H   0  0  0  0  0  0  0  0  0  0  0  0
    5.6127    1.7266    1.7180 H   0  0  0  0  0  0  0  0  0  0  0  0
    6.7342    0.7620    0.7815 H   0  0  0  0  0  0  0  0  0  0  0  0
    4.6571    1.8780   -1.9832 H   0  0  0  0  0  0  0  0  0  0  0  0
    6.2291    1.9173   -1.1991 H   0  0  0  0  0  0  0  0  0  0  0  0
    4.9319    2.9236   -0.5833 H   0  0  0  0  0  0  0  0  0  0  0  0
    2.4914    1.5777   -1.5573 H   0  0  0  0  0  0  0  0  0  0  0  0
    0.2176    2.0715   -0.8308 H   0  0  0  0  0  0  0  0  0  0  0  0
   -0.4144    2.4864    3.5243 H   0  0  0  0  0  0  0  0  0  0  0  0
   -2.0113    2.7156    2.8679 H   0  0  0  0  0  0  0  0  0  0  0  0
   -0.7577    0.0265    3.5847 H   0  0  0  0  0  0  0  0  0  0  0  0
   -2.1582    0.7761    4.3455 H   0  0  0  0  0  0  0  0  0  0  0  0
   -3.5561    1.5482    1.7758 H   0  0  0  0  0  0  0  0  0  0  0  0
   -4.2791    0.6130    3.0955 H   0  0  0  0  0  0  0  0  0  0  0  0
   -5.4774    0.0896    1.0470 H   0  0  0  0  0  0  0  0  0  0  0  0
   -4.5400   -1.3593    1.5276 H   0  0  0  0  0  0  0  0  0  0  0  0
   -3.0476    1.5713   -0.3933 H   0  0  0  0  0  0  0  0  0  0  0  0
   -4.7759    1.4318   -0.8333 H   0  0  0  0  0  0  0  0  0  0  0  0
   -3.4991    0.8362   -1.9567 H   0  0  0  0  0  0  0  0  0  0  0  0
   -2.4378   -1.8876    0.4085 H   0  0  0  0  0  0  0  0  0  0  0  0
   -1.7530   -0.2253    0.2166 H   0  0  0  0  0  0  0  0  0  0  0  0
   -2.1037   -1.2060   -1.2181 H   0  0  0  0  0  0  0  0  0  0  0  0
   -4.1818   -1.4531   -2.1031 H   0  0  0  0  0  0  0  0  0  0  0  0
   -4.5833   -2.3803   -0.6592 H   0  0  0  0  0  0  0  0  0  0  0  0
   -6.8474   -2.2785    0.3293 H   0  0  0  0  0  0  0  0  0  0  0  0
   -9.2191   -1.7072    0.0042 H   0  0  0  0  0  0  0  0  0  0  0  0
   -9.9035   -0.1951   -1.8316 H   0  0  0  0  0  0  0  0  0  0  0  0
   -8.2037    0.7443   -3.3665 H   0  0  0  0  0  0  0  0  0  0  0  0
   -5.8235    0.1963   -3.0765 H   0  0  0  0  0  0  0  0  0  0  0  0
    1.3191    1.1598    3.2329 H   0  0  0  0  0  0  0  0  0  0  0  0
    3.5608    0.6849    2.5364 H   0  0  0  0  0  0  0  0  0  0  0  0
  1  2  1  0
  2  3  1  0
  2  4  1  0
  2  5  1  0
  5  6  1  0
  6  7  1  0
  6  8  1  0
  6  9  1  0
  9 10  1  0
 10 11  2  0
 11 12  1  0
 12 13  1  0
 13 14  1  0
 14 15  1  0
 15 16  1  0
 16 17  1  0
 17 18  1  0
 18 19  1  0
 19 20  1  0
 19 21  1  0
 19 22  1  0
 22 23  1  0
 23 24  2  0
 24 25  1  0
 25 26  2  0
 26 27  1  0
 27 28  2  0
 12 29  2  0
 29 30  1  0
 30  9  2  0
 28 23  1  0
  1 31  1  0
  1 32  1  0
  1 33  1  0
  3 34  1  0
  3 35  1  0
  3 36  1  0
  4 37  1  0
  4 38  1  0
  4 39  1  0
  5 40  1  0
  5 41  1  0
  7 42  1  0
  7 43  1  0
  7 44  1  0
  8 45  1  0
  8 46  1  0
  8 47  1  0
 10 48  1  0
 11 49  1  0
 14 50  1  0
 14 51  1  0
 15 52  1  0
 15 53  1  0
 17 54  1  0
 17 55  1  0
 18 56  1  0
 18 57  1  0
 20 58  1  0
 20 59  1  0
 20 60  1  0
 21 61  1  0
 21 62  1  0
 21 63  1  0
 22 64  1  0
 22 65  1  0
 24 66  1  0
 25 67  1  0
 26 68  1  0
 27 69  1  0
 28 70  1  0
 29 71  1  0
 30 72  1  0
M  CHG  1  19   1
M  END
$$$$
OCNT-2328803
     RDKit          3D

 43 44  0  0  0  0  0  0  0  0999 V2000
   -3.6103    2.5486    0.3892 C   0  0  0  0  0  0  0  0  0  0  0  0
   -2.4123    2.8187   -0.5100 C   0  0  0  0  0  0  0  0  0  0  0  0
   -2.1128    1.6670   -1.4806 C   0  0  0  0  0  0  0  0  0  0  0  0
   -1.8548    0.3578   -0.8530 N   0  0  0  0  0  0  0  0  0  0  0  0
   -1.7891   -0.6894   -1.8891 C   0  0  0  0  0  0  0  0  0  0  0  0
   -1.7200   -2.1166   -1.3312 C   0  0  0  0  0  0  0  0  0  0  0  0
   -1.8194   -3.1501   -2.4443 C   0  0  0  0  0  0  0  0  0  0  0  0
   -0.7099    0.3588    0.0778 C   0  0  0  0  0  0  0  0  0  0  0  0
    0.6769    0.6329   -0.5316 C   0  0  0  0  0  0  0  0  0  0  0  0
    1.7570    0.6385    0.5207 C   0  0  0  0  0  0  0  0  0  0  0  0
    2.0839    1.8235    1.2038 C   0  0  0  0  0  0  0  0  0  0  0  0
    3.0780    1.8447    2.2009 C   0  0  0  0  0  0  0  0  0  0  0  0
    3.7685    0.6823    2.5445 C   0  0  0  0  0  0  0  0  0  0  0  0
    3.4324   -0.4714    1.8712 C   0  0  0  0  0  0  0  0  0  0  0  0
    2.4497   -0.5102    0.8806 C   0  0  0  0  0  0  0  0  0  0  0  0
    2.3354   -1.9168    0.3643 C   0  0  0  0  0  0  0  0  0  0  0  0
    3.3885   -2.6581    1.1932 C   0  0  0  0  0  0  0  0  0  0  0  0
    3.6672   -3.8435    1.1248 O   0  0  0  0  0  0  0  0  0  0  0  0
    3.9762   -1.7335    2.0457 N   0  0  0  0  0  0  0  0  0  0  0  0
   -3.4301    1.6999    1.0560 H   0  0  0  0  0  0  0  0  0  0  0  0
   -3.8174    3.4246    1.0121 H   0  0  0  0  0  0  0  0  0  0  0  0
   -4.5052    2.3367   -0.2047 H   0  0  0  0  0  0  0  0  0  0  0  0
   -1.5344    3.0531    0.1016 H   0  0  0  0  0  0  0  0  0  0  0  0
   -2.6189    3.7195   -1.1012 H   0  0  0  0  0  0  0  0  0  0  0  0
   -1.2772    1.9575   -2.1292 H   0  0  0  0  0  0  0  0  0  0  0  0
   -2.9882    1.5754   -2.1376 H   0  0  0  0  0  0  0  0  0  0  0  0
   -2.6987   -0.6269   -2.5014 H   0  0  0  0  0  0  0  0  0  0  0  0
   -0.9462   -0.5156   -2.5695 H   0  0  0  0  0  0  0  0  0  0  0  0
   -0.7770   -2.2800   -0.7999 H   0  0  0  0  0  0  0  0  0  0  0  0
   -2.5353   -2.2802   -0.6166 H   0  0  0  0  0  0  0  0  0  0  0  0
   -1.7593   -4.1608   -2.0287 H   0  0  0  0  0  0  0  0  0  0  0  0
   -2.7693   -3.0601   -2.9809 H   0  0  0  0  0  0  0  0  0  0  0  0
   -1.0039   -3.0294   -3.1646 H   0  0  0  0  0  0  0  0  0  0  0  0
   -0.6877   -0.5976    0.6148 H   0  0  0  0  0  0  0  0  0  0  0  0
   -0.9017    1.0831    0.8790 H   0  0  0  0  0  0  0  0  0  0  0  0
    0.6890    1.6010   -1.0462 H   0  0  0  0  0  0  0  0  0  0  0  0
    0.9230   -0.1154   -1.2933 H   0  0  0  0  0  0  0  0  0  0  0  0
    1.5631    2.7501    0.9659 H   0  0  0  0  0  0  0  0  0  0  0  0
    3.3074    2.7791    2.7083 H   0  0  0  0  0  0  0  0  0  0  0  0
    4.5340    0.6948    3.3113 H   0  0  0  0  0  0  0  0  0  0  0  0
    1.3486   -2.3376    0.5708 H   0  0  0  0  0  0  0  0  0  0  0  0
    2.5964   -1.9758   -0.6952 H   0  0  0  0  0  0  0  0  0  0  0  0
    4.7038   -1.9782    2.6997 H   0  0  0  0  0  0  0  0  0  0  0  0
  1  2  1  0
  2  3  1  0
  3  4  1  0
  4  5  1  0
  5  6  1  0
  6  7  1  0
  4  8  1  0
  8  9  1  0
  9 10  1  0
 10 11  2  0
 11 12  1  0
 12 13  2  0
 13 14  1  0
 14 15  2  0
 15 16  1  0
 16 17  1  0
 17 18  2  0
 17 19  1  0
 15 10  1  0
 19 14  1  0
  1 20  1  0
  1 21  1  0
  1 22  1  0
  2 23  1  0
  2 24  1  0
  3 25  1  0
  3 26  1  0
  5 27  1  0
  5 28  1  0
  6 29  1  0
  6 30  1  0
  7 31  1  0
  7 32  1  0
  7 33  1  0
  8 34  1  0
  8 35  1  0
  9 36  1  0
  9 37  1  0
 11 38  1  0
 12 39  1  0
 13 40  1  0
 16 41  1  0
 16 42  1  0
 19 43  1  0
M  END
$$$$
OCNT-2328805
     RDKit          3D

 59 63  0  0  0  0  0  0  0  0999 V2000
   -1.2858    0.0194   -3.0143 O   0  0  0  0  0  0  0  0  0  0  0  0
   -1.4980   -0.1934   -1.8228 C   0  0  0  0  0  0  0  0  0  0  0  0
   -0.4965   -0.4408   -0.9206 O   0  0  0  0  0  0  0  0  0  0  0  0
    0.8285   -0.6433   -1.4579 C   0  0  1  0  0  0  0  0  0  0  0  0
    1.5767    0.6954   -1.4681 C   0  0  0  0  0  0  0  0  0  0  0  0
    2.2717    1.0307   -0.1374 C   0  0  1  0  0  0  0  0  0  0  0  0
    1.2931    1.0151    1.0454 C   0  0  0  0  0  0  0  0  0  0  0  0
    1.2876   -0.4295    1.5551 C   0  0  0  0  0  0  0  0  0  0  0  0
    2.2425   -1.1948    0.6258 C   0  0  1  0  0  0  0  0  0  0  0  0
    1.5021   -1.7299   -0.6088 C   0  0  0  0  0  0  0  0  0  0  0  0
    3.2531   -0.0960    0.2217 N   0  0  0  0  0  0  0  0  0  0  0  0
    4.2602   -0.4527   -0.8821 C   0  0  0  0  0  0  0  0  0  0  0  0
    5.4946   -0.9066   -0.1386 C   0  0  0  0  0  0  0  0  0  0  0  0
    5.5971    0.1269    0.9552 C   0  0  0  0  0  0  0  0  0  0  0  0
    4.1679    0.2866    1.4388 C   0  0  0  0  0  0  0  0  0  0  0  0
   -2.9087   -0.1609   -1.1577 C   0  0  0  0  0  0  0  0  0  0  0  0
   -3.8085   -0.7008   -2.1503 O   0  0  0  0  0  0  0  0  0  0  0  0
   -2.9601   -1.0864    0.0706 C   0  0  0  0  0  0  0  0  0  0  0  0
   -2.7993   -0.5989    1.3808 C   0  0  0  0  0  0  0  0  0  0  0  0
   -2.8114   -1.4648    2.4787 C   0  0  0  0  0  0  0  0  0  0  0  0
   -2.9712   -2.8334    2.2882 C   0  0  0  0  0  0  0  0  0  0  0  0
   -3.1206   -3.3385    1.0015 C   0  0  0  0  0  0  0  0  0  0  0  0
   -3.1133   -2.4751   -0.0967 C   0  0  0  0  0  0  0  0  0  0  0  0
   -3.4008    1.2715   -0.8855 C   0  0  0  0  0  0  0  0  0  0  0  0
   -4.7586    1.4796   -0.5567 C   0  0  0  0  0  0  0  0  0  0  0  0
   -5.2508    2.7583   -0.2901 C   0  0  0  0  0  0  0  0  0  0  0  0
   -4.3966    3.8558   -0.3482 C   0  0  0  0  0  0  0  0  0  0  0  0
   -3.0523    3.6764   -0.6727 C   0  0  0  0  0  0  0  0  0  0  0  0
   -2.5560    2.3965   -0.9368 C   0  0  0  0  0  0  0  0  0  0  0  0
    0.7459   -1.0269   -2.4830 H   0  0  0  0  0  0  0  0  0  0  0  0
    0.8831    1.5094   -1.7130 H   0  0  0  0  0  0  0  0  0  0  0  0
    2.3179    0.6779   -2.2752 H   0  0  0  0  0  0  0  0  0  0  0  0
    2.8309    1.9696   -0.2112 H   0  0  0  0  0  0  0  0  0  0  0  0
    0.2947    1.3670    0.7714 H   0  0  0  0  0  0  0  0  0  0  0  0
    1.6443    1.6800    1.8421 H   0  0  0  0  0  0  0  0  0  0  0  0
    1.6538   -0.4548    2.5880 H   0  0  0  0  0  0  0  0  0  0  0  0
    0.2830   -0.8596    1.5763 H   0  0  0  0  0  0  0  0  0  0  0  0
    2.7817   -1.9994    1.1370 H   0  0  0  0  0  0  0  0  0  0  0  0
    0.7473   -2.4538   -0.2758 H   0  0  0  0  0  0  0  0  0  0  0  0
    2.1950   -2.3019   -1.2334 H   0  0  0  0  0  0  0  0  0  0  0  0
    3.8644   -1.2070   -1.5592 H   0  0  0  0  0  0  0  0  0  0  0  0
    4.4690    0.4682   -1.4389 H   0  0  0  0  0  0  0  0  0  0  0  0
    5.3505   -1.9088    0.2811 H   0  0  0  0  0  0  0  0  0  0  0  0
    6.3832   -0.9232   -0.7765 H   0  0  0  0  0  0  0  0  0  0  0  0
    6.2714   -0.1784    1.7599 H   0  0  0  0  0  0  0  0  0  0  0  0
    5.9675    1.0781    0.5529 H   0  0  0  0  0  0  0  0  0  0  0  0
    3.9586   -0.4088    2.2576 H   0  0  0  0  0  0  0  0  0  0  0  0
    3.9547    1.3150    1.7487 H   0  0  0  0  0  0  0  0  0  0  0  0
   -3.8660   -0.0355   -2.8618 H   0  0  0  0  0  0  0  0  0  0  0  0
   -2.6790    0.4648    1.5699 H   0  0  0  0  0  0  0  0  0  0  0  0
   -2.7114   -1.0664    3.4851 H   0  0  0  0  0  0  0  0  0  0  0  0
   -2.9981   -3.5078    3.1408 H   0  0  0  0  0  0  0  0  0  0  0  0
   -3.2608   -4.4059    0.8514 H   0  0  0  0  0  0  0  0  0  0  0  0
   -3.2473   -2.8952   -1.0925 H   0  0  0  0  0  0  0  0  0  0  0  0
   -5.4437    0.6324   -0.5067 H   0  0  0  0  0  0  0  0  0  0  0  0
   -6.3017    2.8982   -0.0408 H   0  0  0  0  0  0  0  0  0  0  0  0
   -4.7797    4.8535   -0.1467 H   0  0  0  0  0  0  0  0  0  0  0  0
   -2.3934    4.5420   -0.7283 H   0  0  0  0  0  0  0  0  0  0  0  0
   -1.5022    2.3110   -1.1935 H   0  0  0  0  0  0  0  0  0  0  0  0
  1  2  2  0
  2  3  1  0
  3  4  1  0
  4  5  1  0
  5  6  1  0
  6  7  1  0
  7  8  1  0
  8  9  1  0
  9 10  1  0
  9 11  1  0
 11 12  1  0
 12 13  1  0
 13 14  1  0
 14 15  1  0
  2 16  1  0
 16 17  1  0
 16 18  1  0
 18 19  2  0
 19 20  1  0
 20 21  2  0
 21 22  1  0
 22 23  2  0
 16 24  1  0
 24 25  2  0
 25 26  1  0
 26 27  2  0
 27 28  1  0
 28 29  2  0
 10  4  1  0
 15 11  1  0
 23 18  1  0
 29 24  1  0
 11  6  1  0
  4 30  1  6
  5 31  1  0
  5 32  1  0
  6 33  1  6
  7 34  1  0
  7 35  1  0
  8 36  1  0
  8 37  1  0
  9 38  1  1
 10 39  1  0
 10 40  1  0
 12 41  1  0
 12 42  1  0
 13 43  1  0
 13 44  1  0
 14 45  1  0
 14 46  1  0
 15 47  1  0
 15 48  1  0
 17 49  1  0
 19 50  1  0
 20 51  1  0
 21 52  1  0
 22 53  1  0
 23 54  1  0
 25 55  1  0
 26 56  1  0
 27 57  1  0
 28 58  1  0
 29 59  1  0
M  CHG  1  11   1
M  END
$$$$
OCNT-2328814
     RDKit          3D

 31 33  0  0  0  0  0  0  0  0999 V2000
   -0.7009    2.5952   -0.9146 C   0  0  0  0  0  0  0  0  0  0  0  0
   -1.3287    1.3143   -0.5013 C   0  0  0  0  0  0  0  0  0  0  0  0
   -2.4596    0.8373   -0.9805 N   0  0  0  0  0  0  0  0  0  0  0  0
   -2.6659   -0.3569   -0.3409 C   0  0  0  0  0  0  0  0  0  0  0  0
   -1.6400   -0.6261    0.5599 C   0  0  0  0  0  0  0  0  0  0  0  0
   -1.6143   -1.7876    1.3441 C   0  0  0  0  0  0  0  0  0  0  0  0
   -2.6754   -2.6878    1.1893 C   0  0  0  0  0  0  0  0  0  0  0  0
   -3.7136   -2.4364    0.2916 C   0  0  0  0  0  0  0  0  0  0  0  0
   -3.7210   -1.2704   -0.4824 C   0  0  0  0  0  0  0  0  0  0  0  0
   -0.7936    0.4553    0.4371 N   0  0  0  0  0  0  0  0  0  0  0  0
    0.4209    0.6748    1.2098 C   0  0  0  0  0  0  0  0  0  0  0  0
    1.6790    0.4674    0.3986 C   0  0  0  0  0  0  0  0  0  0  0  0
    1.8963   -0.7167   -0.3248 C   0  0  0  0  0  0  0  0  0  0  0  0
    3.0752   -0.9007   -1.0521 C   0  0  0  0  0  0  0  0  0  0  0  0
    4.0509    0.0922   -1.0531 C   0  0  0  0  0  0  0  0  0  0  0  0
    5.5033   -0.1350   -1.9463 Cl  0  0  0  0  0  0  0  0  0  0  0  0
    3.8592    1.2671   -0.3307 C   0  0  0  0  0  0  0  0  0  0  0  0
    2.6801    1.4525    0.3959 C   0  0  0  0  0  0  0  0  0  0  0  0
   -1.3759    3.1545   -1.5705 H   0  0  0  0  0  0  0  0  0  0  0  0
   -0.4810    3.2260   -0.0484 H   0  0  0  0  0  0  0  0  0  0  0  0
    0.2253    2.4119   -1.4667 H   0  0  0  0  0  0  0  0  0  0  0  0
   -0.8118   -1.9964    2.0429 H   0  0  0  0  0  0  0  0  0  0  0  0
   -2.6907   -3.6015    1.7802 H   0  0  0  0  0  0  0  0  0  0  0  0
   -4.5267   -3.1509    0.1894 H   0  0  0  0  0  0  0  0  0  0  0  0
   -4.5230   -1.0656   -1.1826 H   0  0  0  0  0  0  0  0  0  0  0  0
    0.3622    1.6946    1.6075 H   0  0  0  0  0  0  0  0  0  0  0  0
    0.4255   -0.0016    2.0707 H   0  0  0  0  0  0  0  0  0  0  0  0
    1.1468   -1.5066   -0.3376 H   0  0  0  0  0  0  0  0  0  0  0  0
    3.2231   -1.8192   -1.6143 H   0  0  0  0  0  0  0  0  0  0  0  0
    4.6228    2.0406   -0.3280 H   0  0  0  0  0  0  0  0  0  0  0  0
    2.5513    2.3759    0.9576 H   0  0  0  0  0  0  0  0  0  0  0  0
  1  2  1  0
  2  3  2  0
  3  4  1  0
  4  5  1  0
  5  6  2  0
  6  7  1  0
  7  8  2  0
  8  9  1  0
  5 10  1  0
 10 11  1  0
 11 12  1  0
 12 13  1  0
 13 14  2  0
 14 15  1  0
 15 16  1  0
 15 17  2  0
 17 18  1  0
 10  2  1  0
 18 12  2  0
  9  4  2  0
  1 19  1  0
  1 20  1  0
  1 21  1  0
  6 22  1  0
  7 23  1  0
  8 24  1  0
  9 25  1  0
 11 26  1  0
 11 27  1  0
 13 28  1  0
 14 29  1  0
 17 30  1  0
 18 31  1  0
M  END
$$$$
OCNT-2328816
     RDKit          3D

 67 70  0  0  0  0  0  0  0  0999 V2000
   -5.1007   -3.2923   -0.7974 C   0  0  0  0  0  0  0  0  0  0  0  0
   -3.5908   -3.1555   -0.9200 C   0  0  0  0  0  0  0  0  0  0  0  0
   -3.1322   -1.7599   -1.3547 C   0  0  0  0  0  0  0  0  0  0  0  0
   -3.4474   -0.6720   -0.3191 C   0  0  0  0  0  0  0  0  0  0  0  0
   -2.9005    0.6294   -0.7184 N   0  0  0  0  0  0  0  0  0  0  0  0
   -3.6675    1.7675   -0.1935 C   0  0  0  0  0  0  0  0  0  0  0  0
   -4.8939    2.0463   -1.0762 C   0  0  0  0  0  0  0  0  0  0  0  0
   -5.6659    3.2994   -0.6526 C   0  0  0  0  0  0  0  0  0  0  0  0
   -6.3249    3.1716    0.7122 C   0  0  0  0  0  0  0  0  0  0  0  0
   -1.4376    0.7761   -0.5353 C   0  0  0  0  0  0  0  0  0  0  0  0
   -0.8178    0.5968    0.8821 C   0  0  0  0  0  0  0  0  0  0  0  0
   -1.4261    1.4894    1.8234 O   0  0  0  0  0  0  0  0  0  0  0  0
    0.6780    0.8585    0.8500 C   0  0  0  0  0  0  0  0  0  0  0  0
    1.1289    2.1803    1.0861 C   0  0  0  0  0  0  0  0  0  0  0  0
    2.4845    2.5189    1.0577 C   0  0  0  0  0  0  0  0  0  0  0  0
    2.9619    4.1455    1.3581 Cl  0  0  0  0  0  0  0  0  0  0  0  0
    3.4499    1.5610    0.7847 C   0  0  0  0  0  0  0  0  0  0  0  0
    3.0335    0.2613    0.5367 C   0  0  0  0  0  0  0  0  0  0  0  0
    1.6517   -0.1125    0.5596 C   0  0  0  0  0  0  0  0  0  0  0  0
    1.5580   -1.5516    0.2415 C   0  0  0  0  0  0  0  0  0  0  0  0
    0.4671   -2.4039    0.1220 C   0  0  0  0  0  0  0  0  0  0  0  0
    0.6696   -3.7531   -0.2005 C   0  0  0  0  0  0  0  0  0  0  0  0
    1.9600   -4.2506   -0.4034 C   0  0  0  0  0  0  0  0  0  0  0  0
    2.1773   -5.9117   -0.7977 Cl  0  0  0  0  0  0  0  0  0  0  0  0
    3.0688   -3.4185   -0.2914 C   0  0  0  0  0  0  0  0  0  0  0  0
    2.8553   -2.0821    0.0278 C   0  0  0  0  0  0  0  0  0  0  0  0
    3.8095   -0.9626    0.2078 C   0  0  0  0  0  0  0  0  0  0  0  0
    5.1378   -1.1305    0.0701 C   0  0  0  0  0  0  0  0  0  0  0  0
    6.1787   -0.1132    0.2134 C   0  0  0  0  0  0  0  0  0  0  0  0
    6.6038    0.6165   -0.9030 C   0  0  0  0  0  0  0  0  0  0  0  0
    7.5984    1.5881   -0.7673 C   0  0  0  0  0  0  0  0  0  0  0  0
    8.1680    1.8259    0.4826 C   0  0  0  0  0  0  0  0  0  0  0  0
    9.3912    3.0239    0.6491 Cl  0  0  0  0  0  0  0  0  0  0  0  0
    7.7534    1.1004    1.5985 C   0  0  0  0  0  0  0  0  0  0  0  0
    6.7591    0.1282    1.4641 C   0  0  0  0  0  0  0  0  0  0  0  0
   -5.3668   -4.3325   -0.5832 H   0  0  0  0  0  0  0  0  0  0  0  0
   -5.4948   -2.6771    0.0168 H   0  0  0  0  0  0  0  0  0  0  0  0
   -5.5996   -2.9991   -1.7268 H   0  0  0  0  0  0  0  0  0  0  0  0
   -3.2345   -3.8832   -1.6590 H   0  0  0  0  0  0  0  0  0  0  0  0
   -3.1220   -3.4203    0.0355 H   0  0  0  0  0  0  0  0  0  0  0  0
   -3.6021   -1.5025   -2.3127 H   0  0  0  0  0  0  0  0  0  0  0  0
   -2.0548   -1.8101   -1.5427 H   0  0  0  0  0  0  0  0  0  0  0  0
   -4.5382   -0.6055   -0.2405 H   0  0  0  0  0  0  0  0  0  0  0  0
   -3.0957   -0.9649    0.6759 H   0  0  0  0  0  0  0  0  0  0  0  0
   -3.9746    1.5853    0.8415 H   0  0  0  0  0  0  0  0  0  0  0  0
   -3.0540    2.6773   -0.1908 H   0  0  0  0  0  0  0  0  0  0  0  0
   -5.5774    1.1891   -1.0773 H   0  0  0  0  0  0  0  0  0  0  0  0
   -4.5630    2.1860   -2.1140 H   0  0  0  0  0  0  0  0  0  0  0  0
   -6.4459    3.4954   -1.3981 H   0  0  0  0  0  0  0  0  0  0  0  0
   -4.9987    4.1693   -0.6561 H   0  0  0  0  0  0  0  0  0  0  0  0
   -5.5817    3.0959    1.5110 H   0  0  0  0  0  0  0  0  0  0  0  0
   -6.9723    2.2900    0.7554 H   0  0  0  0  0  0  0  0  0  0  0  0
   -6.9403    4.0540    0.9159 H   0  0  0  0  0  0  0  0  0  0  0  0
   -0.9381    0.0845   -1.2244 H   0  0  0  0  0  0  0  0  0  0  0  0
   -1.1609    1.7701   -0.9152 H   0  0  0  0  0  0  0  0  0  0  0  0
   -0.9994   -0.3981    1.2876 H   0  0  0  0  0  0  0  0  0  0  0  0
   -2.3103    1.1301    2.0016 H   0  0  0  0  0  0  0  0  0  0  0  0
    0.4024    2.9640    1.3014 H   0  0  0  0  0  0  0  0  0  0  0  0
    4.4931    1.8459    0.7670 H   0  0  0  0  0  0  0  0  0  0  0  0
   -0.5506   -2.0732    0.2636 H   0  0  0  0  0  0  0  0  0  0  0  0
   -0.1893   -4.4137   -0.2936 H   0  0  0  0  0  0  0  0  0  0  0  0
    4.0654   -3.8121   -0.4528 H   0  0  0  0  0  0  0  0  0  0  0  0
    5.5490   -2.1060   -0.1780 H   0  0  0  0  0  0  0  0  0  0  0  0
    6.1605    0.4371   -1.8801 H   0  0  0  0  0  0  0  0  0  0  0  0
    7.9216    2.1548   -1.6364 H   0  0  0  0  0  0  0  0  0  0  0  0
    8.1968    1.2874    2.5726 H   0  0  0  0  0  0  0  0  0  0  0  0
    6.4371   -0.4328    2.3388 H   0  0  0  0  0  0  0  0  0  0  0  0
  1  2  1  0
  2  3  1  0
  3  4  1  0
  4  5  1  0
  5  6  1  0
  6  7  1  0
  7  8  1  0
  8  9  1  0
  5 10  1  0
 10 11  1  0
 11 12  1  0
 11 13  1  0
 13 14  2  0
 14 15  1  0
 15 16  1  0
 15 17  2  0
 17 18  1  0
 18 19  2  0
 19 20  1  0
 20 21  1  0
 21 22  2  0
 22 23  1  0
 23 24  1  0
 23 25  2  0
 25 26  1  0
 26 27  1  0
 27 28  2  0
 28 29  1  0
 29 30  1  0
 30 31  2  0
 31 32  1  0
 32 33  1  0
 32 34  2  0
 34 35  1  0
 19 13  1  0
 26 20  2  0
 35 29  2  0
 27 18  1  0
  1 36  1  0
  1 37  1  0
  1 38  1  0
  2 39  1  0
  2 40  1  0
  3 41  1  0
  3 42  1  0
  4 43  1  0
  4 44  1  0
  6 45  1  0
  6 46  1  0
  7 47  1  0
  7 48  1  0
  8 49  1  0
  8 50  1  0
  9 51  1  0
  9 52  1  0
  9 53  1  0
 10 54  1  0
 10 55  1  0
 11 56  1  0
 12 57  1  0
 14 58  1  0
 17 59  1  0
 21 60  1  0
 22 61  1  0
 25 62  1  0
 28 63  1  0
 30 64  1  0
 31 65  1  0
 34 66  1  0
 35 67  1  0
M  END
$$$$
OCNT-2328824
     RDKit          3D

 37 40  0  0  0  0  0  0  0  0999 V2000
    1.6676    2.0492    1.6199 O   0  0  0  0  0  0  0  0  0  0  0  0
    1.8953    0.8579    1.6355 C   0  0  0  0  0  0  0  0  0  0  0  0
    1.7170    0.0685    2.7044 O   0  0  0  0  0  0  0  0  0  0  0  0
    2.3448    0.0537    0.4928 C   0  0  0  0  0  0  0  0  0  0  0  0
    3.7006   -0.2844    0.3756 C   0  0  0  0  0  0  0  0  0  0  0  0
    4.8349    0.2638    1.5739 Cl  0  0  0  0  0  0  0  0  0  0  0  0
    4.1273   -1.0532   -0.7207 C   0  0  0  0  0  0  0  0  0  0  0  0
    5.8076   -1.4839   -0.8766 Cl  0  0  0  0  0  0  0  0  0  0  0  0
    3.1973   -1.4728   -1.6928 C   0  0  0  0  0  0  0  0  0  0  0  0
    3.7239   -2.4274   -3.0509 Cl  0  0  0  0  0  0  0  0  0  0  0  0
    1.8389   -1.1183   -1.5691 C   0  0  0  0  0  0  0  0  0  0  0  0
    0.6805   -1.6311   -2.7651 Cl  0  0  0  0  0  0  0  0  0  0  0  0
    1.3992   -0.3440   -0.4744 C   0  0  0  0  0  0  0  0  0  0  0  0
   -0.0452    0.0309   -0.3192 C   0  0  0  0  0  0  0  0  0  0  0  0
   -0.5216    1.1865   -0.8614 C   0  0  0  0  0  0  0  0  0  0  0  0
    0.3471    2.1051   -1.6045 C   0  0  0  0  0  0  0  0  0  0  0  0
   -0.1016    3.2473   -2.1463 C   0  0  0  0  0  0  0  0  0  0  0  0
    1.1749    4.4961   -3.1765 I   0  0  0  0  0  0  0  0  0  0  0  0
   -1.5402    3.6331   -2.0120 C   0  0  0  0  0  0  0  0  0  0  0  0
   -1.9718    4.6678   -2.5133 O   0  0  0  0  0  0  0  0  0  0  0  0
   -2.4268    2.6977   -1.2442 C   0  0  0  0  0  0  0  0  0  0  0  0
   -4.4279    3.2460   -1.0496 I   0  0  0  0  0  0  0  0  0  0  0  0
   -1.9375    1.5586   -0.7138 C   0  0  0  0  0  0  0  0  0  0  0  0
   -2.7901    0.7161   -0.0142 O   0  0  0  0  0  0  0  0  0  0  0  0
   -2.3375   -0.4492    0.5410 C   0  0  0  0  0  0  0  0  0  0  0  0
   -3.2600   -1.2506    1.2378 C   0  0  0  0  0  0  0  0  0  0  0  0
   -5.2798   -0.6574    1.4079 I   0  0  0  0  0  0  0  0  0  0  0  0
   -2.8450   -2.4502    1.8272 C   0  0  0  0  0  0  0  0  0  0  0  0
   -3.7212   -3.2486    2.5128 O   0  0  0  0  0  0  0  0  0  0  0  0
   -1.5112   -2.8418    1.7167 C   0  0  0  0  0  0  0  0  0  0  0  0
   -0.8007   -4.6172    2.5697 I   0  0  0  0  0  0  0  0  0  0  0  0
   -0.5983   -2.0410    1.0207 C   0  0  0  0  0  0  0  0  0  0  0  0
   -1.0014   -0.8340    0.4237 C   0  0  0  0  0  0  0  0  0  0  0  0
    1.4312    0.6692    3.4270 H   0  0  0  0  0  0  0  0  0  0  0  0
    1.3989    1.8673   -1.7199 H   0  0  0  0  0  0  0  0  0  0  0  0
   -4.6031   -2.8356    2.4826 H   0  0  0  0  0  0  0  0  0  0  0  0
    0.4341   -2.3739    0.9554 H   0  0  0  0  0  0  0  0  0  0  0  0
  1  2  2  0
  2  3  1  0
  2  4  1  0
  4  5  2  0
  5  6  1  0
  5  7  1  0
  7  8  1  0
  7  9  2  0
  9 10  1  0
  9 11  1  0
 11 12  1  0
 11 13  2  0
 13 14  1  0
 14 15  2  0
 15 16  1  0
 16 17  2  0
 17 18  1  0
 17 19  1  0
 19 20  2  0
 19 21  1  0
 21 22  1  0
 21 23  2  0
 23 24  1  0
 24 25  1  0
 25 26  1  0
 26 27  1  0
 26 28  2  0
 28 29  1  0
 28 30  1  0
 30 31  1  0
 30 32  2  0
 32 33  1  0
 13  4  1  0
 33 14  1  0
 23 15  1  0
 33 25  2  0
  3 34  1  0
 16 35  1  0
 29 36  1  0
 32 37  1  0
M  END
$$$$
OCNT-2328829
     RDKit          3D

 28 29  0  0  0  0  0  0  0  0999 V2000
    3.6218    0.1061   -1.6146 N   0  0  0  0  0  0  0  0  0  0  0  0
    3.6069    0.1223   -0.3359 C   0  0  0  0  0  0  0  0  0  0  0  0
    4.4913   -0.6286    0.3452 N   0  0  0  0  0  0  0  0  0  0  0  0
    2.7972    0.8140    0.4909 N   0  0  0  0  0  0  0  0  0  0  0  0
    1.5155    1.3904    0.1162 C   0  0  0  0  0  0  0  0  0  0  0  0
    0.3452    0.4061    0.2590 C   0  0  0  0  0  0  0  0  0  0  0  0
    0.3429   -0.6745   -0.8208 C   0  0  0  0  0  0  0  0  0  0  0  0
   -0.7404   -1.5943   -0.6188 O   0  0  0  0  0  0  0  0  0  0  0  0
   -1.9144   -0.9444   -0.3469 C   0  0  0  0  0  0  0  0  0  0  0  0
   -1.9753    0.4001    0.0254 C   0  0  0  0  0  0  0  0  0  0  0  0
   -3.2094    1.0060    0.2543 C   0  0  0  0  0  0  0  0  0  0  0  0
   -4.3830    0.2588    0.1401 C   0  0  0  0  0  0  0  0  0  0  0  0
   -4.3203   -1.0920   -0.2054 C   0  0  0  0  0  0  0  0  0  0  0  0
   -3.0847   -1.6943   -0.4478 C   0  0  0  0  0  0  0  0  0  0  0  0
   -0.8648    1.1874    0.1753 O   0  0  0  0  0  0  0  0  0  0  0  0
    2.9265    0.7519   -1.9863 H   0  0  0  0  0  0  0  0  0  0  0  0
    5.1392   -1.0486   -0.3167 H   0  0  0  0  0  0  0  0  0  0  0  0
    5.0120   -0.0923    1.0281 H   0  0  0  0  0  0  0  0  0  0  0  0
    2.8132    0.4593    1.4421 H   0  0  0  0  0  0  0  0  0  0  0  0
    1.3340    2.2430    0.7830 H   0  0  0  0  0  0  0  0  0  0  0  0
    1.5398    1.8250   -0.8899 H   0  0  0  0  0  0  0  0  0  0  0  0
    0.3707   -0.0547    1.2563 H   0  0  0  0  0  0  0  0  0  0  0  0
    1.2603   -1.2677   -0.7899 H   0  0  0  0  0  0  0  0  0  0  0  0
    0.2470   -0.2444   -1.8258 H   0  0  0  0  0  0  0  0  0  0  0  0
   -3.2576    2.0554    0.5308 H   0  0  0  0  0  0  0  0  0  0  0  0
   -5.3458    0.7287    0.3241 H   0  0  0  0  0  0  0  0  0  0  0  0
   -5.2336   -1.6752   -0.2908 H   0  0  0  0  0  0  0  0  0  0  0  0
   -3.0342   -2.7435   -0.7258 H   0  0  0  0  0  0  0  0  0  0  0  0
  1  2  2  3
  2  3  1  0
  2  4  1  0
  4  5  1  0
  5  6  1  0
  6  7  1  0
  7  8  1  0
  8  9  1  0
  9 10  1  0
 10 11  2  0
 11 12  1  0
 12 13  2  0
 13 14  1  0
 10 15  1  0
 15  6  1  0
 14  9  2  0
  1 16  1  0
  3 17  1  0
  3 18  1  0
  4 19  1  0
  5 20  1  0
  5 21  1  0
  6 22  1  0
  7 23  1  0
  7 24  1  0
 11 25  1  0
 12 26  1  0
 13 27  1  0
 14 28  1  0
M  END
$$$$
OCNT-2328835
     RDKit          3D

 51 54  0  0  0  0  0  0  0  0999 V2000
    5.9522   -0.7073    1.6641 C   0  0  0  0  0  0  0  0  0  0  0  0
    4.5303   -0.4616    1.4177 N   0  0  0  0  0  0  0  0  0  0  0  0
    3.8028   -1.7189    1.2245 C   0  0  0  0  0  0  0  0  0  0  0  0
    2.2788   -1.6112    1.4301 C   0  0  0  0  0  0  0  0  0  0  0  0
    1.7792   -0.2421    1.9037 C   0  0  0  0  0  0  0  0  0  0  0  0
    1.8740    0.8797    0.8447 C   0  0  0  0  0  0  0  0  0  0  0  0
    0.5698    1.1121    0.1818 N   0  0  0  0  0  0  0  0  0  0  0  0
   -0.0900   -0.0043   -0.2728 N   0  0  0  0  0  0  0  0  0  0  0  0
   -1.2144    0.1245   -0.9092 C   0  0  0  0  0  0  0  0  0  0  0  0
   -1.8960   -1.1602   -1.3631 C   0  0  0  0  0  0  0  0  0  0  0  0
   -3.0342   -1.5920   -0.4650 C   0  0  0  0  0  0  0  0  0  0  0  0
   -4.2575   -1.9955   -1.0210 C   0  0  0  0  0  0  0  0  0  0  0  0
   -5.3071   -2.4135   -0.1992 C   0  0  0  0  0  0  0  0  0  0  0  0
   -5.1360   -2.4432    1.1827 C   0  0  0  0  0  0  0  0  0  0  0  0
   -6.4296   -2.9582    2.1932 Cl  0  0  0  0  0  0  0  0  0  0  0  0
   -3.9219   -2.0654    1.7496 C   0  0  0  0  0  0  0  0  0  0  0  0
   -2.8722   -1.6480    0.9280 C   0  0  0  0  0  0  0  0  0  0  0  0
   -1.8342    1.4370   -1.1931 C   0  0  0  0  0  0  0  0  0  0  0  0
   -3.0668    1.5867   -1.8414 C   0  0  0  0  0  0  0  0  0  0  0  0
   -3.5814    2.8635   -2.0851 C   0  0  0  0  0  0  0  0  0  0  0  0
   -2.8707    3.9933   -1.6865 C   0  0  0  0  0  0  0  0  0  0  0  0
   -1.6446    3.8472   -1.0397 C   0  0  0  0  0  0  0  0  0  0  0  0
   -1.1294    2.5667   -0.7919 C   0  0  0  0  0  0  0  0  0  0  0  0
    0.1630    2.4155   -0.0993 C   0  0  0  0  0  0  0  0  0  0  0  0
    0.8038    3.4218    0.1965 O   0  0  0  0  0  0  0  0  0  0  0  0
    2.9499    0.6664   -0.2302 C   0  0  0  0  0  0  0  0  0  0  0  0
    4.3676    0.4941    0.3150 C   0  0  0  0  0  0  0  0  0  0  0  0
    6.0882   -1.3233    2.5600 H   0  0  0  0  0  0  0  0  0  0  0  0
    6.4345   -1.2136    0.8202 H   0  0  0  0  0  0  0  0  0  0  0  0
    6.4809    0.2341    1.8516 H   0  0  0  0  0  0  0  0  0  0  0  0
    4.0199   -2.1552    0.2406 H   0  0  0  0  0  0  0  0  0  0  0  0
    4.1586   -2.4560    1.9573 H   0  0  0  0  0  0  0  0  0  0  0  0
    1.9837   -2.3545    2.1821 H   0  0  0  0  0  0  0  0  0  0  0  0
    1.7636   -1.9005    0.5068 H   0  0  0  0  0  0  0  0  0  0  0  0
    2.3532    0.0544    2.7917 H   0  0  0  0  0  0  0  0  0  0  0  0
    0.7444   -0.3399    2.2567 H   0  0  0  0  0  0  0  0  0  0  0  0
    2.1209    1.8007    1.3888 H   0  0  0  0  0  0  0  0  0  0  0  0
   -1.1532   -1.9683   -1.3849 H   0  0  0  0  0  0  0  0  0  0  0  0
   -2.2336   -1.0354   -2.3984 H   0  0  0  0  0  0  0  0  0  0  0  0
   -4.4040   -1.9914   -2.0991 H   0  0  0  0  0  0  0  0  0  0  0  0
   -6.2512   -2.7193   -0.6422 H   0  0  0  0  0  0  0  0  0  0  0  0
   -3.7819   -2.0974    2.8268 H   0  0  0  0  0  0  0  0  0  0  0  0
   -1.9239   -1.3702    1.3870 H   0  0  0  0  0  0  0  0  0  0  0  0
   -3.6531    0.7328   -2.1640 H   0  0  0  0  0  0  0  0  0  0  0  0
   -4.5409    2.9766   -2.5856 H   0  0  0  0  0  0  0  0  0  0  0  0
   -3.2708    4.9869   -1.8750 H   0  0  0  0  0  0  0  0  0  0  0  0
   -1.0921    4.7309   -0.7252 H   0  0  0  0  0  0  0  0  0  0  0  0
    2.6909   -0.1928   -0.8625 H   0  0  0  0  0  0  0  0  0  0  0  0
    2.9518    1.5276   -0.9122 H   0  0  0  0  0  0  0  0  0  0  0  0
    4.7189    1.4747    0.6609 H   0  0  0  0  0  0  0  0  0  0  0  0
    5.0097    0.2119   -0.5303 H   0  0  0  0  0  0  0  0  0  0  0  0
  1  2  1  0
  2  3  1  0
  3  4  1  0
  4  5  1  0
  5  6  1  0
  6  7  1  0
  7  8  1  0
  8  9  2  0
  9 10  1  0
 10 11  1  0
 11 12  1  0
 12 13  2  0
 13 14  1  0
 14 15  1  0
 14 16  2  0
 16 17  1  0
  9 18  1  0
 18 19  2  0
 19 20  1  0
 20 21  2  0
 21 22  1  0
 22 23  2  0
 23 24  1  0
 24 25  2  0
  6 26  1  0
 26 27  1  0
 27  2  1  0
 24  7  1  0
 17 11  2  0
 23 18  1  0
  1 28  1  0
  1 29  1  0
  1 30  1  0
  3 31  1  0
  3 32  1  0
  4 33  1  0
  4 34  1  0
  5 35  1  0
  5 36  1  0
  6 37  1  0
 10 38  1  0
 10 39  1  0
 12 40  1  0
 13 41  1  0
 16 42  1  0
 17 43  1  0
 19 44  1  0
 20 45  1  0
 21 46  1  0
 22 47  1  0
 26 48  1  0
 26 49  1  0
 27 50  1  0
 27 51  1  0
M  END
$$$$
OCNT-2328839
     RDKit          3D

 45 47  0  0  0  0  0  0  0  0999 V2000
    3.9948   -1.1133    1.4018 C   0  0  0  0  0  0  0  0  0  0  0  0
    3.9773    0.1557    0.6710 N   0  0  0  0  0  0  0  0  0  0  0  0
    5.3243    0.4521    0.1736 C   0  0  0  0  0  0  0  0  0  0  0  0
    3.0211    0.1400   -0.4488 C   0  0  0  0  0  0  0  0  0  0  0  0
    1.5580    0.1507    0.0217 C   0  0  0  0  0  0  0  0  0  0  0  0
    0.6045    0.2338   -1.1773 C   0  0  0  0  0  0  0  0  0  0  0  0
   -0.9082    0.3272   -0.8566 C   0  0  1  0  0  0  0  0  0  0  0  0
   -1.2401    1.5060    0.0674 C   0  0  0  0  0  0  0  0  0  0  0  0
   -1.6328    1.3350    1.4078 C   0  0  0  0  0  0  0  0  0  0  0  0
   -1.9071    2.4377    2.2227 C   0  0  0  0  0  0  0  0  0  0  0  0
   -1.7876    3.7214    1.7089 C   0  0  0  0  0  0  0  0  0  0  0  0
   -2.0520    4.7746    2.4929 F   0  0  0  0  0  0  0  0  0  0  0  0
   -1.3972    3.9265    0.3943 C   0  0  0  0  0  0  0  0  0  0  0  0
   -1.1232    2.8258   -0.4200 C   0  0  0  0  0  0  0  0  0  0  0  0
   -1.5351    0.6318   -2.1552 O   0  0  0  0  0  0  0  0  0  0  0  0
   -2.8171   -0.0154   -2.2478 C   0  0  0  0  0  0  0  0  0  0  0  0
   -2.6758   -1.1770   -1.3406 C   0  0  0  0  0  0  0  0  0  0  0  0
   -1.5643   -0.9936   -0.5210 C   0  0  0  0  0  0  0  0  0  0  0  0
   -1.2373   -1.9605    0.4216 C   0  0  0  0  0  0  0  0  0  0  0  0
   -2.0386   -3.1035    0.5306 C   0  0  0  0  0  0  0  0  0  0  0  0
   -3.1612   -3.2744   -0.2971 C   0  0  0  0  0  0  0  0  0  0  0  0
   -3.9727   -4.4495   -0.1690 C   0  0  0  0  0  0  0  0  0  0  0  0
   -4.6295   -5.4007   -0.0649 N   0  0  0  0  0  0  0  0  0  0  0  0
   -3.4880   -2.2980   -1.2425 C   0  0  0  0  0  0  0  0  0  0  0  0
    3.0340   -1.3066    1.8884 H   0  0  0  0  0  0  0  0  0  0  0  0
    4.2329   -1.9621    0.7507 H   0  0  0  0  0  0  0  0  0  0  0  0
    4.7375   -1.0822    2.2075 H   0  0  0  0  0  0  0  0  0  0  0  0
    5.3468    1.4294   -0.3215 H   0  0  0  0  0  0  0  0  0  0  0  0
    5.6779   -0.3042   -0.5368 H   0  0  0  0  0  0  0  0  0  0  0  0
    6.0384    0.5086    1.0029 H   0  0  0  0  0  0  0  0  0  0  0  0
    3.2017   -0.7215   -1.1049 H   0  0  0  0  0  0  0  0  0  0  0  0
    3.1742    1.0407   -1.0580 H   0  0  0  0  0  0  0  0  0  0  0  0
    1.4050    1.0072    0.6879 H   0  0  0  0  0  0  0  0  0  0  0  0
    1.3512   -0.7533    0.5949 H   0  0  0  0  0  0  0  0  0  0  0  0
    0.7799   -0.6281   -1.8367 H   0  0  0  0  0  0  0  0  0  0  0  0
    0.8899    1.1080   -1.7801 H   0  0  0  0  0  0  0  0  0  0  0  0
   -1.7326    0.3460    1.8454 H   0  0  0  0  0  0  0  0  0  0  0  0
   -2.2115    2.3008    3.2555 H   0  0  0  0  0  0  0  0  0  0  0  0
   -1.3075    4.9371    0.0096 H   0  0  0  0  0  0  0  0  0  0  0  0
   -0.8187    3.0002   -1.4513 H   0  0  0  0  0  0  0  0  0  0  0  0
   -2.9854   -0.3089   -3.2870 H   0  0  0  0  0  0  0  0  0  0  0  0
   -3.5967    0.6741   -1.9103 H   0  0  0  0  0  0  0  0  0  0  0  0
   -0.3901   -1.8448    1.0885 H   0  0  0  0  0  0  0  0  0  0  0  0
   -1.7853   -3.8609    1.2713 H   0  0  0  0  0  0  0  0  0  0  0  0
   -4.3538   -2.4117   -1.8900 H   0  0  0  0  0  0  0  0  0  0  0  0
  1  2  1  0
  2  3  1  0
  2  4  1  0
  4  5  1  0
  5  6  1  0
  7  6  1  6
  7  8  1  0
  8  9  1  0
  9 10  2  0
 10 11  1  0
 11 12  1  0
 11 13  2  0
 13 14  1  0
  7 15  1  0
 15 16  1  0
 16 17  1  0
 17 18  2  0
 18 19  1  0
 19 20  2  0
 20 21  1  0
 21 22  1  0
 22 23  3  0
 21 24  2  0
 18  7  1  0
 14  8  2  0
 24 17  1  0
  1 25  1  0
  1 26  1  0
  1 27  1  0
  3 28  1  0
  3 29  1  0
  3 30  1  0
  4 31  1  0
  4 32  1  0
  5 33  1  0
  5 34  1  0
  6 35  1  0
  6 36  1  0
  9 37  1  0
 10 38  1  0
 13 39  1  0
 14 40  1  0
 16 41  1  0
 16 42  1  0
 19 43  1  0
 20 44  1  0
 24 45  1  0
M  END
$$$$
OCNT-2328864
     RDKit          3D

 40 42  0  0  0  0  0  0  0  0999 V2000
    2.8514   -2.4539    1.0128 C   0  0  0  0  0  0  0  0  0  0  0  0
    1.6157   -2.4397    0.2500 N   0  0  0  0  0  0  0  0  0  0  0  0
    1.7367   -1.8036   -1.0601 C   0  0  0  0  0  0  0  0  0  0  0  0
    2.1650   -0.3310   -1.0810 C   0  0  0  0  0  0  0  0  0  0  0  0
    1.2478    0.6074   -0.2805 C   0  0  2  0  0  0  0  0  0  0  0  0
   -0.0731    0.5735   -0.8442 O   0  0  0  0  0  0  0  0  0  0  0  0
   -1.1122    0.4541    0.0498 C   0  0  0  0  0  0  0  0  0  0  0  0
   -1.1558    1.1826    1.2431 C   0  0  0  0  0  0  0  0  0  0  0  0
   -2.2303    1.0350    2.1162 C   0  0  0  0  0  0  0  0  0  0  0  0
   -3.2763    0.1726    1.7944 C   0  0  0  0  0  0  0  0  0  0  0  0
   -3.2735   -0.5405    0.5864 C   0  0  0  0  0  0  0  0  0  0  0  0
   -4.3408   -1.3925    0.2565 C   0  0  0  0  0  0  0  0  0  0  0  0
   -4.3511   -2.0951   -0.9484 C   0  0  0  0  0  0  0  0  0  0  0  0
   -3.2961   -1.9523   -1.8411 C   0  0  0  0  0  0  0  0  0  0  0  0
   -2.2278   -1.1106   -1.5261 C   0  0  0  0  0  0  0  0  0  0  0  0
   -2.1870   -0.3944   -0.3105 C   0  0  0  0  0  0  0  0  0  0  0  0
    1.7662    2.0311   -0.3376 C   0  0  0  0  0  0  0  0  0  0  0  0
    2.4610    2.7088    0.6492 C   0  0  0  0  0  0  0  0  0  0  0  0
    2.8050    4.0364    0.2643 C   0  0  0  0  0  0  0  0  0  0  0  0
    2.3688    4.3323   -1.0065 C   0  0  0  0  0  0  0  0  0  0  0  0
    1.5544    3.0160   -1.7291 S   0  0  0  0  0  0  0  0  0  0  0  0
    3.6656   -2.9147    0.4442 H   0  0  0  0  0  0  0  0  0  0  0  0
    2.7095   -3.0488    1.9205 H   0  0  0  0  0  0  0  0  0  0  0  0
    3.1534   -1.4489    1.3221 H   0  0  0  0  0  0  0  0  0  0  0  0
    0.8584   -2.0200    0.7887 H   0  0  0  0  0  0  0  0  0  0  0  0
    0.7730   -1.9052   -1.5702 H   0  0  0  0  0  0  0  0  0  0  0  0
    2.4454   -2.3808   -1.6673 H   0  0  0  0  0  0  0  0  0  0  0  0
    3.1979   -0.2403   -0.7218 H   0  0  0  0  0  0  0  0  0  0  0  0
    2.1790   -0.0201   -2.1343 H   0  0  0  0  0  0  0  0  0  0  0  0
    1.2478    0.2714    0.7650 H   0  0  0  0  0  0  0  0  0  0  0  0
   -0.3746    1.8900    1.5006 H   0  0  0  0  0  0  0  0  0  0  0  0
   -2.2599    1.6016    3.0433 H   0  0  0  0  0  0  0  0  0  0  0  0
   -4.1074    0.0733    2.4895 H   0  0  0  0  0  0  0  0  0  0  0  0
   -5.1793   -1.5133    0.9389 H   0  0  0  0  0  0  0  0  0  0  0  0
   -5.1846   -2.7493   -1.1898 H   0  0  0  0  0  0  0  0  0  0  0  0
   -3.3005   -2.4926   -2.7839 H   0  0  0  0  0  0  0  0  0  0  0  0
   -1.4176   -1.0089   -2.2451 H   0  0  0  0  0  0  0  0  0  0  0  0
    2.7109    2.2717    1.6088 H   0  0  0  0  0  0  0  0  0  0  0  0
    3.3454    4.7389    0.8869 H   0  0  0  0  0  0  0  0  0  0  0  0
    2.4895    5.2593   -1.5501 H   0  0  0  0  0  0  0  0  0  0  0  0
  1  2  1  0
  2  3  1  0
  3  4  1  0
  4  5  1  0
  5  6  1  0
  6  7  1  0
  7  8  2  0
  8  9  1  0
  9 10  2  0
 10 11  1  0
 11 12  2  0
 12 13  1  0
 13 14  2  0
 14 15  1  0
 15 16  2  0
  5 17  1  0
 17 18  2  0
 18 19  1  0
 19 20  2  0
 20 21  1  0
 16  7  1  0
 21 17  1  0
 16 11  1  0
  1 22  1  0
  1 23  1  0
  1 24  1  0
  2 25  1  0
  3 26  1  0
  3 27  1  0
  4 28  1  0
  4 29  1  0
  5 30  1  1
  8 31  1  0
  9 32  1  0
 10 33  1  0
 12 34  1  0
 13 35  1  0
 14 36  1  0
 15 37  1  0
 18 38  1  0
 19 39  1  0
 20 40  1  0
M  END
$$$$
OCNT-2328868
     RDKit          3D

 37 37  0  0  0  0  0  0  0  0999 V2000
   -2.9613   -1.5103   -2.0252 C   0  0  0  0  0  0  0  0  0  0  0  0
   -3.4741   -0.2990   -1.2510 C   0  0  0  0  0  0  0  0  0  0  0  0
   -3.0195   -0.2507    0.1491 N   0  0  0  0  0  0  0  0  0  0  0  0
   -3.6295    0.8672    0.8886 C   0  0  0  0  0  0  0  0  0  0  0  0
   -5.1124    0.6495    1.1733 C   0  0  0  0  0  0  0  0  0  0  0  0
   -1.5494   -0.2438    0.2912 C   0  0  0  0  0  0  0  0  0  0  0  0
   -0.7840    0.9357   -0.3329 C   0  0  0  0  0  0  0  0  0  0  0  0
    0.6184    0.8384   -0.0235 O   0  0  0  0  0  0  0  0  0  0  0  0
    1.3474    0.0713   -0.8678 C   0  0  0  0  0  0  0  0  0  0  0  0
    0.9320   -0.5807   -1.8105 O   0  0  0  0  0  0  0  0  0  0  0  0
    2.7455    0.0318   -0.4065 C   0  0  0  0  0  0  0  0  0  0  0  0
    3.3203   -1.2319   -0.2242 C   0  0  0  0  0  0  0  0  0  0  0  0
    4.6413   -1.3424    0.2170 C   0  0  0  0  0  0  0  0  0  0  0  0
    5.3924   -0.2019    0.5108 C   0  0  0  0  0  0  0  0  0  0  0  0
    6.7472   -0.3187    0.8350 N   0  0  0  0  0  0  0  0  0  0  0  0
    4.8363    1.0545    0.2501 C   0  0  0  0  0  0  0  0  0  0  0  0
    3.5132    1.1794   -0.1937 C   0  0  0  0  0  0  0  0  0  0  0  0
    2.9295    2.7734   -0.5193 Cl  0  0  0  0  0  0  0  0  0  0  0  0
   -1.8852   -1.4507   -2.2123 H   0  0  0  0  0  0  0  0  0  0  0  0
   -3.4582   -1.5658   -2.9997 H   0  0  0  0  0  0  0  0  0  0  0  0
   -3.1732   -2.4410   -1.4888 H   0  0  0  0  0  0  0  0  0  0  0  0
   -4.5672   -0.3651   -1.2751 H   0  0  0  0  0  0  0  0  0  0  0  0
   -3.2049    0.6179   -1.7887 H   0  0  0  0  0  0  0  0  0  0  0  0
   -3.1376    0.9703    1.8643 H   0  0  0  0  0  0  0  0  0  0  0  0
   -3.4918    1.8186    0.3606 H   0  0  0  0  0  0  0  0  0  0  0  0
   -5.2834   -0.3164    1.6602 H   0  0  0  0  0  0  0  0  0  0  0  0
   -5.4800    1.4320    1.8457 H   0  0  0  0  0  0  0  0  0  0  0  0
   -5.7170    0.6923    0.2629 H   0  0  0  0  0  0  0  0  0  0  0  0
   -1.1413   -1.1874   -0.0905 H   0  0  0  0  0  0  0  0  0  0  0  0
   -1.2992   -0.2881    1.3605 H   0  0  0  0  0  0  0  0  0  0  0  0
   -0.9318    1.0003   -1.4168 H   0  0  0  0  0  0  0  0  0  0  0  0
   -1.1255    1.8836    0.0950 H   0  0  0  0  0  0  0  0  0  0  0  0
    2.7457   -2.1320   -0.4351 H   0  0  0  0  0  0  0  0  0  0  0  0
    5.0803   -2.3313    0.3273 H   0  0  0  0  0  0  0  0  0  0  0  0
    6.9976   -1.1933    1.2868 H   0  0  0  0  0  0  0  0  0  0  0  0
    7.1378    0.4867    1.3151 H   0  0  0  0  0  0  0  0  0  0  0  0
    5.4420    1.9475    0.3845 H   0  0  0  0  0  0  0  0  0  0  0  0
  1  2  1  0
  2  3  1  0
  3  4  1  0
  4  5  1  0
  3  6  1  0
  6  7  1  0
  7  8  1  0
  8  9  1  0
  9 10  2  0
  9 11  1  0
 11 12  1  0
 12 13  2  0
 13 14  1  0
 14 15  1  0
 14 16  2  0
 16 17  1  0
 17 18  1  0
 17 11  2  0
  1 19  1  0
  1 20  1  0
  1 21  1  0
  2 22  1  0
  2 23  1  0
  4 24  1  0
  4 25  1  0
  5 26  1  0
  5 27  1  0
  5 28  1  0
  6 29  1  0
  6 30  1  0
  7 31  1  0
  7 32  1  0
 12 33  1  0
 13 34  1  0
 15 35  1  0
 15 36  1  0
 16 37  1  0
M  END
$$$$
OCNT-2328870
     RDKit          3D

 44 47  0  0  0  0  0  0  0  0999 V2000
    4.4098   -0.6901   -1.9336 C   0  0  0  0  0  0  0  0  0  0  0  0
    3.5988   -0.5468   -0.7263 N   0  0  0  0  0  0  0  0  0  0  0  0
    2.9707    0.7850   -0.6778 C   0  0  0  0  0  0  0  0  0  0  0  0
    2.1043    0.9807    0.5792 C   0  0  0  0  0  0  0  0  0  0  0  0
    1.0465   -0.1088    0.7058 C   0  0  0  0  0  0  0  0  0  0  0  0
   -0.2895    0.1123    0.8504 C   0  0  0  0  0  0  0  0  0  0  0  0
   -1.2226   -1.0397    0.8617 C   0  0  0  0  0  0  0  0  0  0  0  0
   -1.3241   -1.8826    1.9754 C   0  0  0  0  0  0  0  0  0  0  0  0
   -2.2144   -2.9559    1.9614 C   0  0  0  0  0  0  0  0  0  0  0  0
   -3.0130   -3.1842    0.8415 C   0  0  0  0  0  0  0  0  0  0  0  0
   -2.9326   -2.3351   -0.2639 C   0  0  0  0  0  0  0  0  0  0  0  0
   -2.0428   -1.2534   -0.2594 C   0  0  0  0  0  0  0  0  0  0  0  0
   -1.9745   -0.2921   -1.4201 C   0  0  0  0  0  0  0  0  0  0  0  0
   -2.5331    1.0900   -1.0576 C   0  0  0  0  0  0  0  0  0  0  0  0
   -1.8620    1.9202    0.0188 C   0  0  0  0  0  0  0  0  0  0  0  0
   -0.8516    1.4900    0.8915 C   0  0  0  0  0  0  0  0  0  0  0  0
   -0.3460    2.2806    1.8782 N   0  0  0  0  0  0  0  0  0  0  0  0
   -0.8278    3.5332    1.9974 C   0  0  0  0  0  0  0  0  0  0  0  0
   -1.8085    4.0546    1.1801 C   0  0  0  0  0  0  0  0  0  0  0  0
   -2.3306    3.2361    0.1860 C   0  0  0  0  0  0  0  0  0  0  0  0
    1.7009   -1.4810    0.5993 C   0  0  0  0  0  0  0  0  0  0  0  0
    2.5679   -1.5968   -0.6654 C   0  0  0  0  0  0  0  0  0  0  0  0
    5.2011    0.0674   -1.9571 H   0  0  0  0  0  0  0  0  0  0  0  0
    4.9086   -1.6655   -1.9478 H   0  0  0  0  0  0  0  0  0  0  0  0
    3.8139   -0.5945   -2.8484 H   0  0  0  0  0  0  0  0  0  0  0  0
    3.7522    1.5549   -0.6731 H   0  0  0  0  0  0  0  0  0  0  0  0
    2.3545    0.9542   -1.5717 H   0  0  0  0  0  0  0  0  0  0  0  0
    2.7402    0.9558    1.4736 H   0  0  0  0  0  0  0  0  0  0  0  0
    1.6831    1.9869    0.5218 H   0  0  0  0  0  0  0  0  0  0  0  0
   -0.7076   -1.7025    2.8531 H   0  0  0  0  0  0  0  0  0  0  0  0
   -2.2864   -3.6112    2.8253 H   0  0  0  0  0  0  0  0  0  0  0  0
   -3.7076   -4.0204    0.8335 H   0  0  0  0  0  0  0  0  0  0  0  0
   -3.5750   -2.5188   -1.1215 H   0  0  0  0  0  0  0  0  0  0  0  0
   -2.5549   -0.6931   -2.2609 H   0  0  0  0  0  0  0  0  0  0  0  0
   -0.9420   -0.2165   -1.7843 H   0  0  0  0  0  0  0  0  0  0  0  0
   -3.5855    0.9700   -0.7648 H   0  0  0  0  0  0  0  0  0  0  0  0
   -2.5269    1.6858   -1.9805 H   0  0  0  0  0  0  0  0  0  0  0  0
   -0.3892    4.1231    2.7967 H   0  0  0  0  0  0  0  0  0  0  0  0
   -2.1661    5.0683    1.3185 H   0  0  0  0  0  0  0  0  0  0  0  0
   -3.1180    3.6229   -0.4575 H   0  0  0  0  0  0  0  0  0  0  0  0
    0.9805   -2.3025    0.5796 H   0  0  0  0  0  0  0  0  0  0  0  0
    2.3244   -1.6385    1.4892 H   0  0  0  0  0  0  0  0  0  0  0  0
    1.9231   -1.5609   -1.5543 H   0  0  0  0  0  0  0  0  0  0  0  0
    3.0521   -2.5811   -0.6551 H   0  0  0  0  0  0  0  0  0  0  0  0
  1  2  1  0
  2  3  1  0
  3  4  1  0
  4  5  1  0
  5  6  2  3
  6  7  1  0
  7  8  2  0
  8  9  1  0
  9 10  2  0
 10 11  1  0
 11 12  2  0
 12 13  1  0
 13 14  1  0
 14 15  1  0
 15 16  2  0
 16 17  1  0
 17 18  2  0
 18 19  1  0
 19 20  2  0
  5 21  1  0
 21 22  1  0
 22  2  1  0
 16  6  1  0
 12  7  1  0
 20 15  1  0
  1 23  1  0
  1 24  1  0
  1 25  1  0
  3 26  1  0
  3 27  1  0
  4 28  1  0
  4 29  1  0
  8 30  1  0
  9 31  1  0
 10 32  1  0
 11 33  1  0
 13 34  1  0
 13 35  1  0
 14 36  1  0
 14 37  1  0
 18 38  1  0
 19 39  1  0
 20 40  1  0
 21 41  1  0
 21 42  1  0
 22 43  1  0
 22 44  1  0
M  END
$$$$
OCNT-2328890
     RDKit          3D

 22 22  0  0  0  0  0  0  0  0999 V2000
   -2.7189    0.9083   -1.3827 N   0  0  0  0  0  0  0  0  0  0  0  0
   -2.1946    0.8845   -0.0343 N   0  0  0  0  0  0  0  0  0  0  0  0
   -1.9758   -0.5108    0.3925 C   0  0  0  0  0  0  0  0  0  0  0  0
   -0.7872   -1.2153   -0.2849 C   0  0  0  0  0  0  0  0  0  0  0  0
    0.5509   -0.5846    0.0248 C   0  0  0  0  0  0  0  0  0  0  0  0
    1.1762   -0.8066    1.2590 C   0  0  0  0  0  0  0  0  0  0  0  0
    2.4045   -0.2091    1.5464 C   0  0  0  0  0  0  0  0  0  0  0  0
    3.0172    0.6161    0.6051 C   0  0  0  0  0  0  0  0  0  0  0  0
    2.4027    0.8451   -0.6245 C   0  0  0  0  0  0  0  0  0  0  0  0
    1.1750    0.2484   -0.9138 C   0  0  0  0  0  0  0  0  0  0  0  0
   -3.6667    0.5182   -1.4044 H   0  0  0  0  0  0  0  0  0  0  0  0
   -2.8378    1.8754   -1.7005 H   0  0  0  0  0  0  0  0  0  0  0  0
   -1.2922    1.3733    0.0267 H   0  0  0  0  0  0  0  0  0  0  0  0
   -2.8892   -1.0975    0.2309 H   0  0  0  0  0  0  0  0  0  0  0  0
   -1.8160   -0.4972    1.4776 H   0  0  0  0  0  0  0  0  0  0  0  0
   -0.9376   -1.2603   -1.3709 H   0  0  0  0  0  0  0  0  0  0  0  0
   -0.7594   -2.2612    0.0479 H   0  0  0  0  0  0  0  0  0  0  0  0
    0.7104   -1.4476    2.0040 H   0  0  0  0  0  0  0  0  0  0  0  0
    2.8836   -0.3877    2.5055 H   0  0  0  0  0  0  0  0  0  0  0  0
    3.9737    1.0805    0.8297 H   0  0  0  0  0  0  0  0  0  0  0  0
    2.8791    1.4889   -1.3591 H   0  0  0  0  0  0  0  0  0  0  0  0
    0.7022    0.4392   -1.8753 H   0  0  0  0  0  0  0  0  0  0  0  0
  1  2  1  0
  2  3  1  0
  3  4  1  0
  4  5  1  0
  5  6  2  0
  6  7  1  0
  7  8  2  0
  8  9  1  0
  9 10  2  0
 10  5  1  0
  1 11  1  0
  1 12  1  0
  2 13  1  0
  3 14  1  0
  3 15  1  0
  4 16  1  0
  4 17  1  0
  6 18  1  0
  7 19  1  0
  8 20  1  0
  9 21  1  0
 10 22  1  0
M  END
$$$$
OCNT-2328898
     RDKit          3D

 49 50  0  0  0  0  0  0  0  0999 V2000
   -5.4328   -1.8061   -0.2613 C   0  0  0  0  0  0  0  0  0  0  0  0
   -4.0536   -1.1694   -0.3983 C   0  0  0  0  0  0  0  0  0  0  0  0
   -3.8276   -0.0598    0.5292 N   0  0  0  0  0  0  0  0  0  0  0  0
   -4.7671    1.0651    0.4239 C   0  0  0  0  0  0  0  0  0  0  0  0
   -4.8090    1.8454   -0.8964 C   0  0  0  0  0  0  0  0  0  0  0  0
   -5.8538    2.8151   -0.8426 O   0  0  0  0  0  0  0  0  0  0  0  0
   -2.4216    0.3368    0.6677 C   0  0  0  0  0  0  0  0  0  0  0  0
   -1.6009    0.4668   -0.6223 C   0  0  0  0  0  0  0  0  0  0  0  0
   -0.1981    1.0575   -0.4091 C   0  0  0  0  0  0  0  0  0  0  0  0
    0.7401    0.1825    0.4553 C   0  0  0  0  0  0  0  0  0  0  0  0
    0.7816    0.6751    1.9049 C   0  0  0  0  0  0  0  0  0  0  0  0
    2.0862    0.2715   -0.1248 N   0  0  0  0  0  0  0  0  0  0  0  0
    3.1098   -0.6541    0.1375 C   0  0  0  0  0  0  0  0  0  0  0  0
    2.8685   -1.8648    0.7884 C   0  0  0  0  0  0  0  0  0  0  0  0
    3.9139   -2.7456    0.9920 C   0  0  0  0  0  0  0  0  0  0  0  0
    5.1741   -2.5271    0.5768 N   0  0  0  0  0  0  0  0  0  0  0  0
    5.4206   -1.3995   -0.1011 C   0  0  0  0  0  0  0  0  0  0  0  0
    6.7146   -1.2016   -0.5586 C   0  0  0  0  0  0  0  0  0  0  0  0
    7.0574   -0.0717   -1.2943 C   0  0  0  0  0  0  0  0  0  0  0  0
    8.6733    0.1350   -1.8476 Cl  0  0  0  0  0  0  0  0  0  0  0  0
    6.1001    0.8855   -1.5922 C   0  0  0  0  0  0  0  0  0  0  0  0
    4.7938    0.7077   -1.1367 C   0  0  0  0  0  0  0  0  0  0  0  0
    4.4248   -0.4273   -0.3708 C   0  0  0  0  0  0  0  0  0  0  0  0
   -6.2268   -1.1341   -0.6009 H   0  0  0  0  0  0  0  0  0  0  0  0
   -5.4869   -2.7121   -0.8741 H   0  0  0  0  0  0  0  0  0  0  0  0
   -5.6358   -2.0915    0.7762 H   0  0  0  0  0  0  0  0  0  0  0  0
   -3.3195   -1.9586   -0.1913 H   0  0  0  0  0  0  0  0  0  0  0  0
   -3.9035   -0.8607   -1.4391 H   0  0  0  0  0  0  0  0  0  0  0  0
   -4.5722    1.7758    1.2390 H   0  0  0  0  0  0  0  0  0  0  0  0
   -5.7808    0.7114    0.6512 H   0  0  0  0  0  0  0  0  0  0  0  0
   -3.8721    2.3814   -1.0661 H   0  0  0  0  0  0  0  0  0  0  0  0
   -5.0086    1.1847   -1.7446 H   0  0  0  0  0  0  0  0  0  0  0  0
   -5.8619    3.2715   -1.7013 H   0  0  0  0  0  0  0  0  0  0  0  0
   -2.3519    1.2665    1.2462 H   0  0  0  0  0  0  0  0  0  0  0  0
   -1.9479   -0.4289    1.2941 H   0  0  0  0  0  0  0  0  0  0  0  0
   -2.1221    1.1078   -1.3394 H   0  0  0  0  0  0  0  0  0  0  0  0
   -1.4959   -0.5136   -1.1027 H   0  0  0  0  0  0  0  0  0  0  0  0
   -0.2832    2.0672    0.0120 H   0  0  0  0  0  0  0  0  0  0  0  0
    0.2384    1.1860   -1.4092 H   0  0  0  0  0  0  0  0  0  0  0  0
    0.3777   -0.8497    0.4137 H   0  0  0  0  0  0  0  0  0  0  0  0
    1.1654    1.7001    1.9637 H   0  0  0  0  0  0  0  0  0  0  0  0
   -0.2088    0.6615    2.3663 H   0  0  0  0  0  0  0  0  0  0  0  0
    1.4369    0.0491    2.5192 H   0  0  0  0  0  0  0  0  0  0  0  0
    2.4365    1.2263   -0.1291 H   0  0  0  0  0  0  0  0  0  0  0  0
    1.8913   -2.1416    1.1613 H   0  0  0  0  0  0  0  0  0  0  0  0
    3.7563   -3.6855    1.5136 H   0  0  0  0  0  0  0  0  0  0  0  0
    7.4672   -1.9547   -0.3384 H   0  0  0  0  0  0  0  0  0  0  0  0
    6.3564    1.7639   -2.1781 H   0  0  0  0  0  0  0  0  0  0  0  0
    4.0576    1.4608   -1.4037 H   0  0  0  0  0  0  0  0  0  0  0  0
  1  2  1  0
  2  3  1  0
  3  4  1  0
  4  5  1  0
  5  6  1  0
  3  7  1  0
  7  8  1  0
  8  9  1  0
  9 10  1  0
 10 11  1  0
 10 12  1  0
 12 13  1  0
 13 14  2  0
 14 15  1  0
 15 16  2  0
 16 17  1  0
 17 18  2  0
 18 19  1  0
 19 20  1  0
 19 21  2  0
 21 22  1  0
 22 23  2  0
 23 13  1  0
 23 17  1  0
  1 24  1  0
  1 25  1  0
  1 26  1  0
  2 27  1  0
  2 28  1  0
  4 29  1  0
  4 30  1  0
  5 31  1  0
  5 32  1  0
  6 33  1  0
  7 34  1  0
  7 35  1  0
  8 36  1  0
  8 37  1  0
  9 38  1  0
  9 39  1  0
 10 40  1  0
 11 41  1  0
 11 42  1  0
 11 43  1  0
 12 44  1  0
 14 45  1  0
 15 46  1  0
 18 47  1  0
 21 48  1  0
 22 49  1  0
M  END
$$$$
OCNT-2328911
     RDKit          3D

 39 41  0  0  0  0  0  0  0  0999 V2000
   -2.2355   -2.2975    1.1050 C   0  0  0  0  0  0  0  0  0  0  0  0
   -1.5876   -0.9389    1.1564 C   0  0  0  0  0  0  0  0  0  0  0  0
   -2.3251    0.1841    0.7275 C   0  0  0  0  0  0  0  0  0  0  0  0
   -3.6042   -0.0736    0.3037 O   0  0  0  0  0  0  0  0  0  0  0  0
   -4.4034    1.0314   -0.1321 C   0  0  0  0  0  0  0  0  0  0  0  0
   -5.7862    0.5559   -0.5519 C   0  0  0  0  0  0  0  0  0  0  0  0
   -6.5369    1.6082   -0.9591 F   0  0  0  0  0  0  0  0  0  0  0  0
   -5.7275   -0.3171   -1.5808 F   0  0  0  0  0  0  0  0  0  0  0  0
   -6.4453   -0.0368    0.4673 F   0  0  0  0  0  0  0  0  0  0  0  0
   -1.7436    1.4471    0.7512 C   0  0  0  0  0  0  0  0  0  0  0  0
   -0.4439    1.5542    1.2001 C   0  0  0  0  0  0  0  0  0  0  0  0
    0.2916    0.5062    1.6124 N   0  0  0  0  0  0  0  0  0  0  0  0
   -0.2677   -0.7323    1.5848 C   0  0  0  0  0  0  0  0  0  0  0  0
    0.6474   -1.8404    2.0459 C   0  0  0  0  0  0  0  0  0  0  0  0
    1.4424   -2.7704    0.6985 S   0  0  0  0  0  4  0  0  0  0  0  0
    0.4304   -3.0589   -0.3752 O   0  0  0  0  0  0  0  0  0  0  0  0
    2.4680   -1.4343    0.0669 C   0  0  0  0  0  0  0  0  0  0  0  0
    3.5459   -0.9691    0.6590 N   0  0  0  0  0  0  0  0  0  0  0  0
    3.9933    0.0358   -0.1659 C   0  0  0  0  0  0  0  0  0  0  0  0
    5.1004    0.8848   -0.0238 C   0  0  0  0  0  0  0  0  0  0  0  0
    5.3477    1.8396   -1.0187 C   0  0  0  0  0  0  0  0  0  0  0  0
    4.5106    1.9470   -2.1325 C   0  0  0  0  0  0  0  0  0  0  0  0
    3.4007    1.1092   -2.2930 C   0  0  0  0  0  0  0  0  0  0  0  0
    3.1779    0.1673   -1.2869 C   0  0  0  0  0  0  0  0  0  0  0  0
    2.2159   -0.7915   -1.1133 N   0  0  0  0  0  0  0  0  0  0  0  0
   -3.1975   -2.2779    1.6290 H   0  0  0  0  0  0  0  0  0  0  0  0
   -1.6424   -3.0803    1.5811 H   0  0  0  0  0  0  0  0  0  0  0  0
   -2.4017   -2.5921    0.0635 H   0  0  0  0  0  0  0  0  0  0  0  0
   -4.5173    1.7523    0.6857 H   0  0  0  0  0  0  0  0  0  0  0  0
   -3.9269    1.5176   -0.9911 H   0  0  0  0  0  0  0  0  0  0  0  0
   -2.2567    2.3457    0.4368 H   0  0  0  0  0  0  0  0  0  0  0  0
    0.0606    2.5157    1.2408 H   0  0  0  0  0  0  0  0  0  0  0  0
    1.4444   -1.4292    2.6771 H   0  0  0  0  0  0  0  0  0  0  0  0
    0.1085   -2.5512    2.6794 H   0  0  0  0  0  0  0  0  0  0  0  0
    5.7459    0.7963    0.8427 H   0  0  0  0  0  0  0  0  0  0  0  0
    6.2033    2.5036   -0.9204 H   0  0  0  0  0  0  0  0  0  0  0  0
    4.7264    2.6965   -2.8915 H   0  0  0  0  0  0  0  0  0  0  0  0
    2.7518    1.1918   -3.1579 H   0  0  0  0  0  0  0  0  0  0  0  0
    1.4364   -0.9985   -1.7213 H   0  0  0  0  0  0  0  0  0  0  0  0
  1  2  1  0
  2  3  1  0
  3  4  1  0
  4  5  1  0
  5  6  1  0
  6  7  1  0
  6  8  1  0
  6  9  1  0
  3 10  2  0
 10 11  1  0
 11 12  2  0
 12 13  1  0
 13 14  1  0
 15 14  1  1
 15 16  2  0
 15 17  1  0
 17 18  2  0
 18 19  1  0
 19 20  2  0
 20 21  1  0
 21 22  2  0
 22 23  1  0
 23 24  2  0
 24 25  1  0
 13  2  2  0
 25 17  1  0
 24 19  1  0
  1 26  1  0
  1 27  1  0
  1 28  1  0
  5 29  1  0
  5 30  1  0
 10 31  1  0
 11 32  1  0
 14 33  1  0
 14 34  1  0
 20 35  1  0
 21 36  1  0
 22 37  1  0
 23 38  1  0
 25 39  1  0
M  END
$$$$
OCNT-2328914
     RDKit          3D

 52 54  0  0  0  0  0  0  0  0999 V2000
   -5.6472    2.7484   -1.6516 N   0  0  0  0  0  0  0  0  0  0  0  0
   -6.1718    1.5986   -1.2038 C   0  0  0  0  0  0  0  0  0  0  0  0
   -5.5602    0.4447   -1.3152 N   0  0  0  0  0  0  0  0  0  0  0  0
   -6.3475   -0.5701   -0.7780 C   0  0  0  0  0  0  0  0  0  0  0  0
   -5.8334   -1.9710   -0.8370 C   0  0  0  0  0  0  0  0  0  0  0  0
   -4.6703   -2.2105    0.1152 C   0  0  0  0  0  0  0  0  0  0  0  0
   -4.6550   -3.2078    0.8330 O   0  0  0  0  0  0  0  0  0  0  0  0
   -3.6756   -1.2541    0.0235 N   0  0  0  0  0  0  0  0  0  0  0  0
   -2.4361   -1.2198    0.6873 C   0  0  0  0  0  0  0  0  0  0  0  0
   -1.9673   -2.2347    1.5194 C   0  0  0  0  0  0  0  0  0  0  0  0
   -0.7050   -2.1352    2.1173 C   0  0  0  0  0  0  0  0  0  0  0  0
    0.1106   -1.0180    1.8944 C   0  0  0  0  0  0  0  0  0  0  0  0
    1.4788   -0.9266    2.5272 C   0  0  0  0  0  0  0  0  0  0  0  0
    2.5049   -1.9237    1.9602 C   0  0  0  0  0  0  0  0  0  0  0  0
    2.8272   -1.7778    0.5298 N   0  0  0  0  0  0  0  0  0  0  0  0
    3.9099   -0.8035    0.2647 C   0  0  0  0  0  0  0  0  0  0  0  0
    3.3792    0.6242   -0.0092 C   0  0  2  0  0  0  0  0  0  0  0  0
    2.2827    0.5275   -0.9267 O   0  0  0  0  0  0  0  0  0  0  0  0
    4.4627    1.5454   -0.5341 C   0  0  0  0  0  0  0  0  0  0  0  0
    4.4586    2.0196   -1.8565 C   0  0  0  0  0  0  0  0  0  0  0  0
    5.4727    2.8626   -2.3186 C   0  0  0  0  0  0  0  0  0  0  0  0
    6.5062    3.2440   -1.4658 C   0  0  0  0  0  0  0  0  0  0  0  0
    6.5233    2.7872   -0.1485 C   0  0  0  0  0  0  0  0  0  0  0  0
    5.5085    1.9461    0.3150 C   0  0  0  0  0  0  0  0  0  0  0  0
   -0.3715    0.0086    1.0771 C   0  0  0  0  0  0  0  0  0  0  0  0
   -1.6292   -0.0964    0.4740 C   0  0  0  0  0  0  0  0  0  0  0  0
   -7.5449   -0.1432   -0.2391 C   0  0  0  0  0  0  0  0  0  0  0  0
   -7.6974    1.5540   -0.4208 S   0  0  0  0  0  0  0  0  0  0  0  0
   -5.9651    3.6107   -1.2273 H   0  0  0  0  0  0  0  0  0  0  0  0
   -4.6553    2.7315   -1.8536 H   0  0  0  0  0  0  0  0  0  0  0  0
   -5.4949   -2.2002   -1.8538 H   0  0  0  0  0  0  0  0  0  0  0  0
   -6.6351   -2.6766   -0.5890 H   0  0  0  0  0  0  0  0  0  0  0  0
   -3.8895   -0.4595   -0.5805 H   0  0  0  0  0  0  0  0  0  0  0  0
   -2.5522   -3.1276    1.7136 H   0  0  0  0  0  0  0  0  0  0  0  0
   -0.3649   -2.9478    2.7554 H   0  0  0  0  0  0  0  0  0  0  0  0
    1.3621   -1.1215    3.6018 H   0  0  0  0  0  0  0  0  0  0  0  0
    1.8604    0.0966    2.4648 H   0  0  0  0  0  0  0  0  0  0  0  0
    2.1019   -2.9361    2.0922 H   0  0  0  0  0  0  0  0  0  0  0  0
    3.4192   -1.8953    2.5658 H   0  0  0  0  0  0  0  0  0  0  0  0
    3.1566   -2.6893    0.2023 H   0  0  0  0  0  0  0  0  0  0  0  0
    4.4119   -1.1528   -0.6473 H   0  0  0  0  0  0  0  0  0  0  0  0
    4.6729   -0.8130    1.0519 H   0  0  0  0  0  0  0  0  0  0  0  0
    2.9781    1.0691    0.9055 H   0  0  0  0  0  0  0  0  0  0  0  0
    1.8637   -0.3316   -0.7035 H   0  0  0  0  0  0  0  0  0  0  0  0
    3.6577    1.7363   -2.5367 H   0  0  0  0  0  0  0  0  0  0  0  0
    5.4529    3.2179   -3.3450 H   0  0  0  0  0  0  0  0  0  0  0  0
    7.2949    3.8988   -1.8277 H   0  0  0  0  0  0  0  0  0  0  0  0
    7.3276    3.0852    0.5168 H   0  0  0  0  0  0  0  0  0  0  0  0
    5.5397    1.6046    1.3470 H   0  0  0  0  0  0  0  0  0  0  0  0
    0.2291    0.8962    0.8895 H   0  0  0  0  0  0  0  0  0  0  0  0
   -1.9646    0.7144   -0.1685 H   0  0  0  0  0  0  0  0  0  0  0  0
   -8.3195   -0.7288    0.2363 H   0  0  0  0  0  0  0  0  0  0  0  0
  1  2  1  0
  2  3  2  0
  3  4  1  0
  4  5  1  0
  5  6  1  0
  6  7  2  0
  6  8  1  0
  8  9  1  0
  9 10  1  0
 10 11  2  0
 11 12  1  0
 12 13  1  0
 13 14  1  0
 14 15  1  0
 15 16  1  0
 16 17  1  0
 17 18  1  0
 17 19  1  0
 19 20  2  0
 20 21  1  0
 21 22  2  0
 22 23  1  0
 23 24  2  0
 12 25  2  0
 25 26  1  0
  4 27  2  0
 27 28  1  0
 28  2  1  0
 26  9  2  0
 24 19  1  0
  1 29  1  0
  1 30  1  0
  5 31  1  0
  5 32  1  0
  8 33  1  0
 10 34  1  0
 11 35  1  0
 13 36  1  0
 13 37  1  0
 14 38  1  0
 14 39  1  0
 15 40  1  0
 16 41  1  0
 16 42  1  0
 17 43  1  1
 18 44  1  0
 20 45  1  0
 21 46  1  0
 22 47  1  0
 23 48  1  0
 24 49  1  0
 25 50  1  0
 26 51  1  0
 27 52  1  0
M  END
$$$$
OCNT-2328916
     RDKit          3D

 51 53  0  0  0  0  0  0  0  0999 V2000
   -1.1065    1.9902   -0.6995 C   0  0  0  0  0  0  0  0  0  0  0  0
   -1.3594    1.2337    0.5234 N   0  0  0  0  0  0  0  0  0  0  0  0
   -0.2986    1.4039    1.5286 C   0  0  0  0  0  0  0  0  0  0  0  0
    1.0716    0.8618    1.1802 C   0  0  0  0  0  0  0  0  0  0  0  0
    2.0055    1.6519    0.5042 C   0  0  0  0  0  0  0  0  0  0  0  0
    3.2693    1.1460    0.1816 C   0  0  0  0  0  0  0  0  0  0  0  0
    3.6490   -0.1653    0.5247 C   0  0  0  0  0  0  0  0  0  0  0  0
    5.0474   -0.6874    0.1520 C   0  0  0  0  0  0  0  0  0  0  0  0
    5.3088   -2.1448    0.5951 C   0  0  0  0  0  0  0  0  0  0  0  0
    5.2287   -0.6375   -1.3806 C   0  0  0  0  0  0  0  0  0  0  0  0
    6.1255    0.1931    0.8200 C   0  0  0  0  0  0  0  0  0  0  0  0
    2.7048   -0.9456    1.2098 C   0  0  0  0  0  0  0  0  0  0  0  0
    1.4390   -0.4410    1.5337 C   0  0  0  0  0  0  0  0  0  0  0  0
   -1.6652   -0.1788    0.2572 C   0  0  0  0  0  0  0  0  0  0  0  0
   -2.9785   -0.3974   -0.4815 C   0  0  0  0  0  0  0  0  0  0  0  0
   -2.9146   -0.8507   -1.8133 C   0  0  0  0  0  0  0  0  0  0  0  0
   -4.0735   -1.0867   -2.5440 C   0  0  0  0  0  0  0  0  0  0  0  0
   -5.3168   -0.8755   -1.9560 C   0  0  0  0  0  0  0  0  0  0  0  0
   -5.4209   -0.4222   -0.6329 C   0  0  0  0  0  0  0  0  0  0  0  0
   -6.6871   -0.2157   -0.0597 C   0  0  0  0  0  0  0  0  0  0  0  0
   -6.8172    0.2372    1.2518 C   0  0  0  0  0  0  0  0  0  0  0  0
   -5.6809    0.4919    2.0068 C   0  0  0  0  0  0  0  0  0  0  0  0
   -4.4153    0.2902    1.4506 C   0  0  0  0  0  0  0  0  0  0  0  0
   -4.2478   -0.1720    0.1249 C   0  0  0  0  0  0  0  0  0  0  0  0
   -2.0052    2.0391   -1.3234 H   0  0  0  0  0  0  0  0  0  0  0  0
   -0.2996    1.5600   -1.3025 H   0  0  0  0  0  0  0  0  0  0  0  0
   -0.8489    3.0299   -0.4675 H   0  0  0  0  0  0  0  0  0  0  0  0
   -0.2038    2.4709    1.7730 H   0  0  0  0  0  0  0  0  0  0  0  0
   -0.6283    0.9490    2.4728 H   0  0  0  0  0  0  0  0  0  0  0  0
    1.7573    2.6724    0.2211 H   0  0  0  0  0  0  0  0  0  0  0  0
    3.9594    1.8003   -0.3469 H   0  0  0  0  0  0  0  0  0  0  0  0
    4.5997   -2.8407    0.1319 H   0  0  0  0  0  0  0  0  0  0  0  0
    5.2349   -2.2552    1.6832 H   0  0  0  0  0  0  0  0  0  0  0  0
    6.3153   -2.4710    0.3063 H   0  0  0  0  0  0  0  0  0  0  0  0
    6.2056   -1.0376   -1.6763 H   0  0  0  0  0  0  0  0  0  0  0  0
    4.4581   -1.2294   -1.8885 H   0  0  0  0  0  0  0  0  0  0  0  0
    5.1698    0.3840   -1.7721 H   0  0  0  0  0  0  0  0  0  0  0  0
    7.1327   -0.1787    0.5982 H   0  0  0  0  0  0  0  0  0  0  0  0
    6.0063    0.2037    1.9100 H   0  0  0  0  0  0  0  0  0  0  0  0
    6.0846    1.2320    0.4748 H   0  0  0  0  0  0  0  0  0  0  0  0
    2.9251   -1.9656    1.5121 H   0  0  0  0  0  0  0  0  0  0  0  0
    0.7401   -1.0804    2.0690 H   0  0  0  0  0  0  0  0  0  0  0  0
   -1.7361   -0.7397    1.1989 H   0  0  0  0  0  0  0  0  0  0  0  0
   -0.8476   -0.6526   -0.3022 H   0  0  0  0  0  0  0  0  0  0  0  0
   -1.9504   -1.0200   -2.2884 H   0  0  0  0  0  0  0  0  0  0  0  0
   -4.0093   -1.4355   -3.5711 H   0  0  0  0  0  0  0  0  0  0  0  0
   -6.2119   -1.0671   -2.5436 H   0  0  0  0  0  0  0  0  0  0  0  0
   -7.5890   -0.4065   -0.6372 H   0  0  0  0  0  0  0  0  0  0  0  0
   -7.8038    0.3939    1.6789 H   0  0  0  0  0  0  0  0  0  0  0  0
   -5.7723    0.8523    3.0278 H   0  0  0  0  0  0  0  0  0  0  0  0
   -3.5498    0.5134    2.0696 H   0  0  0  0  0  0  0  0  0  0  0  0
  1  2  1  0
  2  3  1  0
  3  4  1  0
  4  5  1  0
  5  6  2  0
  6  7  1  0
  7  8  1  0
  8  9  1  0
  8 10  1  0
  8 11  1  0
  7 12  2  0
 12 13  1  0
  2 14  1  0
 14 15  1  0
 15 16  2  0
 16 17  1  0
 17 18  2  0
 18 19  1  0
 19 20  2  0
 20 21  1  0
 21 22  2  0
 22 23  1  0
 23 24  2  0
 13  4  2  0
 24 15  1  0
 24 19  1  0
  1 25  1  0
  1 26  1  0
  1 27  1  0
  3 28  1  0
  3 29  1  0
  5 30  1  0
  6 31  1  0
  9 32  1  0
  9 33  1  0
  9 34  1  0
 10 35  1  0
 10 36  1  0
 10 37  1  0
 11 38  1  0
 11 39  1  0
 11 40  1  0
 12 41  1  0
 13 42  1  0
 14 43  1  0
 14 44  1  0
 16 45  1  0
 17 46  1  0
 18 47  1  0
 20 48  1  0
 21 49  1  0
 22 50  1  0
 23 51  1  0
M  END
$$$$
OCNT-2328919
     RDKit          3D

 87 92  0  0  0  0  0  0  0  0999 V2000
    5.1782    1.5722   -1.9123 O   0  0  0  0  0  0  0  0  0  0  0  0
    4.8588    1.9297   -0.7869 C   0  0  0  0  0  0  0  0  0  0  0  0
    3.6087    1.7229   -0.2385 N   0  0  0  0  0  0  0  0  0  0  0  0
    2.6069    0.8973   -0.9082 C   0  0  0  0  0  0  0  0  0  0  0  0
    1.2004    1.3496   -0.5001 C   0  0  0  0  0  0  0  0  0  0  0  0
    0.2217    0.1763   -0.4999 C   0  0  0  0  0  0  0  0  0  0  0  0
    0.5896   -0.8429    0.4993 N   0  0  0  0  0  0  0  0  0  0  0  0
   -0.1294   -2.1120    0.2942 C   0  0  0  0  0  0  0  0  0  0  0  0
   -1.4539   -2.2126    1.0687 C   0  0  0  0  0  0  0  0  0  0  0  0
   -2.5947   -1.3367    0.5463 C   0  0  0  0  0  0  0  0  0  0  0  0
   -3.9179   -1.6827    1.2523 C   0  0  0  0  0  0  0  0  0  0  0  0
   -5.1647   -0.8912    0.7788 C   0  0  0  0  0  0  0  0  0  0  0  0
   -6.4033   -1.2984    1.6260 C   0  0  0  0  0  0  0  0  0  0  0  0
   -6.3678   -2.1736    2.4906 O   0  0  0  0  0  0  0  0  0  0  0  0
   -7.5770   -0.6194    1.3512 N   0  0  0  0  0  0  0  0  0  0  0  0
   -8.8424   -1.0422    1.9477 C   0  0  0  0  0  0  0  0  0  0  0  0
   -9.5546   -2.1818    1.2137 C   0  0  0  0  0  0  0  0  0  0  0  0
   -9.8869   -1.7993   -0.0448 F   0  0  0  0  0  0  0  0  0  0  0  0
  -10.7036   -2.5117    1.8500 F   0  0  0  0  0  0  0  0  0  0  0  0
   -8.8023   -3.2991    1.1166 F   0  0  0  0  0  0  0  0  0  0  0  0
   -4.9478    0.6290    0.8242 C   0  0  0  0  0  0  0  0  0  0  0  0
   -4.6512    1.4273    1.9203 C   0  0  0  0  0  0  0  0  0  0  0  0
   -4.4990    2.7993    1.7127 C   0  0  0  0  0  0  0  0  0  0  0  0
   -4.6459    3.3519    0.4297 C   0  0  0  0  0  0  0  0  0  0  0  0
   -4.9491    2.5436   -0.6705 C   0  0  0  0  0  0  0  0  0  0  0  0
   -5.0985    1.1817   -0.4683 C   0  0  0  0  0  0  0  0  0  0  0  0
   -5.4126    0.1236   -1.4053 C   0  0  0  0  0  0  0  0  0  0  0  0
   -5.6628    0.1750   -2.7668 C   0  0  0  0  0  0  0  0  0  0  0  0
   -5.9606   -1.0176   -3.4345 C   0  0  0  0  0  0  0  0  0  0  0  0
   -6.0087   -2.2398   -2.7433 C   0  0  0  0  0  0  0  0  0  0  0  0
   -5.7576   -2.2938   -1.3717 C   0  0  0  0  0  0  0  0  0  0  0  0
   -5.4579   -1.1085   -0.7145 C   0  0  0  0  0  0  0  0  0  0  0  0
    2.0473   -1.0317    0.6130 C   0  0  0  0  0  0  0  0  0  0  0  0
    2.8340   -0.5933   -0.6206 C   0  0  0  0  0  0  0  0  0  0  0  0
    5.8166    2.6400    0.1047 C   0  0  0  0  0  0  0  0  0  0  0  0
    5.3805    3.8185    0.7369 C   0  0  0  0  0  0  0  0  0  0  0  0
    6.2374    4.5243    1.5794 C   0  0  0  0  0  0  0  0  0  0  0  0
    7.5316    4.0592    1.7932 C   0  0  0  0  0  0  0  0  0  0  0  0
    7.9717    2.8921    1.1628 C   0  0  0  0  0  0  0  0  0  0  0  0
    7.1263    2.1602    0.3074 C   0  0  0  0  0  0  0  0  0  0  0  0
    7.6405    0.9289   -0.3061 C   0  0  0  0  0  0  0  0  0  0  0  0
    8.3770    0.9822   -1.4993 C   0  0  0  0  0  0  0  0  0  0  0  0
    8.8743   -0.1845   -2.0876 C   0  0  0  0  0  0  0  0  0  0  0  0
    8.6419   -1.4344   -1.4957 C   0  0  0  0  0  0  0  0  0  0  0  0
    9.1815   -2.6983   -2.1199 C   0  0  0  0  0  0  0  0  0  0  0  0
    8.3046   -3.7406   -2.0543 F   0  0  0  0  0  0  0  0  0  0  0  0
   10.3178   -3.1319   -1.5073 F   0  0  0  0  0  0  0  0  0  0  0  0
    9.4994   -2.5634   -3.4382 F   0  0  0  0  0  0  0  0  0  0  0  0
    7.9179   -1.4885   -0.2948 C   0  0  0  0  0  0  0  0  0  0  0  0
    7.4211   -0.3204    0.2927 C   0  0  0  0  0  0  0  0  0  0  0  0
    3.4977    1.8803    0.7552 H   0  0  0  0  0  0  0  0  0  0  0  0
    2.7296    1.0514   -1.9884 H   0  0  0  0  0  0  0  0  0  0  0  0
    0.8530    2.1259   -1.1939 H   0  0  0  0  0  0  0  0  0  0  0  0
    1.2043    1.8160    0.4958 H   0  0  0  0  0  0  0  0  0  0  0  0
   -0.7726    0.5751   -0.2855 H   0  0  0  0  0  0  0  0  0  0  0  0
    0.1852   -0.2505   -1.5122 H   0  0  0  0  0  0  0  0  0  0  0  0
   -0.2841   -2.3261   -0.7709 H   0  0  0  0  0  0  0  0  0  0  0  0
    0.4755   -2.9492    0.6704 H   0  0  0  0  0  0  0  0  0  0  0  0
   -1.2762   -1.9846    2.1277 H   0  0  0  0  0  0  0  0  0  0  0  0
   -1.7747   -3.2627    1.0299 H   0  0  0  0  0  0  0  0  0  0  0  0
   -2.6912   -1.4739   -0.5362 H   0  0  0  0  0  0  0  0  0  0  0  0
   -2.3603   -0.2871    0.7370 H   0  0  0  0  0  0  0  0  0  0  0  0
   -3.7793   -1.5220    2.3308 H   0  0  0  0  0  0  0  0  0  0  0  0
   -4.1059   -2.7593    1.1325 H   0  0  0  0  0  0  0  0  0  0  0  0
   -7.6074   -0.0390    0.5177 H   0  0  0  0  0  0  0  0  0  0  0  0
   -8.6619   -1.3406    2.9847 H   0  0  0  0  0  0  0  0  0  0  0  0
   -9.4881   -0.1594    1.9637 H   0  0  0  0  0  0  0  0  0  0  0  0
   -4.5376    1.0033    2.9134 H   0  0  0  0  0  0  0  0  0  0  0  0
   -4.2639    3.4483    2.5534 H   0  0  0  0  0  0  0  0  0  0  0  0
   -4.5189    4.4231    0.2911 H   0  0  0  0  0  0  0  0  0  0  0  0
   -5.0591    2.9836   -1.6564 H   0  0  0  0  0  0  0  0  0  0  0  0
   -5.6330    1.1121   -3.3137 H   0  0  0  0  0  0  0  0  0  0  0  0
   -6.1605   -0.9984   -4.5032 H   0  0  0  0  0  0  0  0  0  0  0  0
   -6.2501   -3.1526   -3.2847 H   0  0  0  0  0  0  0  0  0  0  0  0
   -5.8044   -3.2394   -0.8390 H   0  0  0  0  0  0  0  0  0  0  0  0
    2.3177   -2.0630    0.8674 H   0  0  0  0  0  0  0  0  0  0  0  0
    2.3837   -0.4345    1.4709 H   0  0  0  0  0  0  0  0  0  0  0  0
    2.5026   -1.1881   -1.4822 H   0  0  0  0  0  0  0  0  0  0  0  0
    3.8996   -0.8140   -0.4843 H   0  0  0  0  0  0  0  0  0  0  0  0
    4.3786    4.2016    0.5572 H   0  0  0  0  0  0  0  0  0  0  0  0
    5.9005    5.4424    2.0579 H   0  0  0  0  0  0  0  0  0  0  0  0
    8.2049    4.6075    2.4479 H   0  0  0  0  0  0  0  0  0  0  0  0
    8.9889    2.5464    1.3454 H   0  0  0  0  0  0  0  0  0  0  0  0
    8.5510    1.9398   -1.9888 H   0  0  0  0  0  0  0  0  0  0  0  0
    9.4344   -0.1107   -3.0178 H   0  0  0  0  0  0  0  0  0  0  0  0
    7.7295   -2.4466    0.1869 H   0  0  0  0  0  0  0  0  0  0  0  0
    6.8574   -0.3897    1.2209 H   0  0  0  0  0  0  0  0  0  0  0  0
  1  2  2  0
  2  3  1  0
  3  4  1  0
  4  5  1  0
  5  6  1  0
  6  7  1  0
  7  8  1  0
  8  9  1  0
  9 10  1  0
 10 11  1  0
 11 12  1  0
 12 13  1  0
 13 14  2  0
 13 15  1  0
 15 16  1  0
 16 17  1  0
 17 18  1  0
 17 19  1  0
 17 20  1  0
 12 21  1  0
 21 22  2  0
 22 23  1  0
 23 24  2  0
 24 25  1  0
 25 26  2  0
 26 27  1  0
 27 28  2  0
 28 29  1  0
 29 30  2  0
 30 31  1  0
 31 32  2  0
  7 33  1  0
 33 34  1  0
  2 35  1  0
 35 36  2  0
 36 37  1  0
 37 38  2  0
 38 39  1  0
 39 40  2  0
 40 41  1  0
 41 42  1  0
 42 43  2  0
 43 44  1  0
 44 45  1  0
 45 46  1  0
 45 47  1  0
 45 48  1  0
 44 49  2  0
 49 50  1  0
 34  4  1  0
 40 35  1  0
 50 41  2  0
 32 12  1  0
 26 21  1  0
 32 27  1  0
  3 51  1  0
  4 52  1  0
  5 53  1  0
  5 54  1  0
  6 55  1  0
  6 56  1  0
  8 57  1  0
  8 58  1  0
  9 59  1  0
  9 60  1  0
 10 61  1  0
 10 62  1  0
 11 63  1  0
 11 64  1  0
 15 65  1  0
 16 66  1  0
 16 67  1  0
 22 68  1  0
 23 69  1  0
 24 70  1  0
 25 71  1  0
 28 72  1  0
 29 73  1  0
 30 74  1  0
 31 75  1  0
 33 76  1  0
 33 77  1  0
 34 78  1  0
 34 79  1  0
 36 80  1  0
 37 81  1  0
 38 82  1  0
 39 83  1  0
 42 84  1  0
 43 85  1  0
 49 86  1  0
 50 87  1  0
M  END
$$$$
OCNT-2328942
     RDKit          3D

119127  0  0  0  0  0  0  0  0999 V2000
  -11.6480   -1.5817   -4.0929 C   0  0  0  0  0  0  0  0  0  0  0  0
  -11.3939   -0.2406   -3.6989 O   0  0  0  0  0  0  0  0  0  0  0  0
  -10.0137    0.1154   -3.7545 C   0  0  0  0  0  0  0  0  0  0  0  0
   -9.2334   -0.4572   -2.5786 C   0  0  1  0  0  0  0  0  0  0  0  0
   -7.7526   -0.1127   -2.6011 C   0  0  0  0  0  0  0  0  0  0  0  0
   -7.3366   -0.3718   -1.1498 C   0  0  1  0  0  0  0  0  0  0  0  0
   -6.1318    0.4453   -0.8018 C   0  0  0  0  0  0  0  0  0  0  0  0
   -5.9014    1.7156   -1.0601 N   0  0  0  0  0  0  0  0  0  0  0  0
   -4.5978    1.9358   -0.6869 C   0  0  0  0  0  0  0  0  0  0  0  0
   -4.0046    0.7716   -0.2319 C   0  0  0  0  0  0  0  0  0  0  0  0
   -2.6335    0.4515    0.1301 C   0  0  0  0  0  0  0  0  0  0  0  0
   -1.8772    1.3058    0.9321 C   0  0  0  0  0  0  0  0  0  0  0  0
   -0.5352    1.0162    1.2156 C   0  0  0  0  0  0  0  0  0  0  0  0
    0.0830   -0.1306    0.6939 C   0  0  0  0  0  0  0  0  0  0  0  0
   -0.6855   -0.9802   -0.1191 C   0  0  0  0  0  0  0  0  0  0  0  0
   -2.0346   -0.7042   -0.3782 C   0  0  0  0  0  0  0  0  0  0  0  0
   -0.0227   -2.2195   -0.6601 C   0  0  0  0  0  0  0  0  0  0  0  0
    1.3592   -2.0264   -1.0029 O   0  0  0  0  0  0  0  0  0  0  0  0
    2.0852   -1.3932   -0.0201 C   0  0  0  0  0  0  0  0  0  0  0  0
    3.4484   -1.6751    0.0009 C   0  0  0  0  0  0  0  0  0  0  0  0
    4.2567   -1.0837    0.9820 C   0  0  0  0  0  0  0  0  0  0  0  0
    5.6418   -1.3450    1.0544 C   0  0  0  0  0  0  0  0  0  0  0  0
    6.4994   -2.0704    0.2756 N   0  0  0  0  0  0  0  0  0  0  0  0
    7.7553   -2.0240    0.8269 C   0  0  0  0  0  0  0  0  0  0  0  0
    8.8916   -2.7392    0.1755 C   0  0  2  0  0  0  0  0  0  0  0  0
    9.4887   -3.8480    1.0296 C   0  0  0  0  0  0  0  0  0  0  0  0
   10.7930   -4.0927    0.2846 C   0  0  0  0  0  0  0  0  0  0  0  0
   11.2496   -2.6730   -0.1282 C   0  0  2  0  0  0  0  0  0  0  0  0
   12.3891   -2.1922    0.7622 C   0  0  0  0  0  0  0  0  0  0  0  0
   10.0287   -1.8534   -0.0687 N   0  0  0  0  0  0  0  0  0  0  0  0
    9.8243   -0.8476   -1.0089 C   0  0  0  0  0  0  0  0  0  0  0  0
    9.0256   -1.0129   -1.9358 O   0  0  0  0  0  0  0  0  0  0  0  0
   10.6236    0.4753   -0.7964 C   0  0  1  0  0  0  0  0  0  0  0  0
   10.5450    1.2383   -2.0453 N   0  0  0  0  0  0  0  0  0  0  0  0
    9.4254    1.8935   -2.4697 C   0  0  0  0  0  0  0  0  0  0  0  0
    8.4159    2.1139   -1.8208 O   0  0  0  0  0  0  0  0  0  0  0  0
    9.6144    2.2712   -3.7616 O   0  0  0  0  0  0  0  0  0  0  0  0
    8.5241    3.0163   -4.3053 C   0  0  0  0  0  0  0  0  0  0  0  0
   10.2061    1.2649    0.4822 C   0  0  0  0  0  0  0  0  0  0  0  0
   10.7428    0.6318    1.7747 C   0  0  0  0  0  0  0  0  0  0  0  0
   10.6842    2.7247    0.4703 C   0  0  0  0  0  0  0  0  0  0  0  0
    7.7574   -1.2659    1.9100 N   0  0  0  0  0  0  0  0  0  0  0  0
    6.4625   -0.8128    2.0439 C   0  0  0  0  0  0  0  0  0  0  0  0
    5.9091    0.0442    3.0033 C   0  0  0  0  0  0  0  0  0  0  0  0
    4.5371    0.3433    2.9385 C   0  0  0  0  0  0  0  0  0  0  0  0
    3.7045   -0.2121    1.9455 C   0  0  0  0  0  0  0  0  0  0  0  0
    2.3283    0.0870    1.8686 C   0  0  0  0  0  0  0  0  0  0  0  0
    1.5038   -0.4736    0.8736 C   0  0  0  0  0  0  0  0  0  0  0  0
   -5.0389   -0.1296   -0.1955 N   0  0  0  0  0  0  0  0  0  0  0  0
   -8.5100   -0.0005   -0.3655 N   0  0  0  0  0  0  0  0  0  0  0  0
   -8.5153   -0.1654    1.0121 C   0  0  0  0  0  0  0  0  0  0  0  0
   -7.5581   -0.7332    1.5595 O   0  0  0  0  0  0  0  0  0  0  0  0
   -9.6087    0.5397    1.8879 C   0  0  2  0  0  0  0  0  0  0  0  0
  -10.9160    0.7466    1.2990 N   0  0  0  0  0  0  0  0  0  0  0  0
  -11.8909   -0.1938    1.3293 C   0  0  0  0  0  0  0  0  0  0  0  0
  -11.7807   -1.3103    1.8101 O   0  0  0  0  0  0  0  0  0  0  0  0
  -12.9914    0.2929    0.7115 O   0  0  0  0  0  0  0  0  0  0  0  0
  -14.0795   -0.6287    0.6474 C   0  0  0  0  0  0  0  0  0  0  0  0
   -9.1295    1.8752    2.4566 C   0  0  0  0  0  0  0  0  0  0  0  0
   -8.1708    2.6765    1.8161 C   0  0  0  0  0  0  0  0  0  0  0  0
   -7.7908    3.9072    2.3569 C   0  0  0  0  0  0  0  0  0  0  0  0
   -8.3752    4.3633    3.5367 C   0  0  0  0  0  0  0  0  0  0  0  0
   -9.3452    3.5976    4.1730 C   0  0  0  0  0  0  0  0  0  0  0  0
   -9.7191    2.3603    3.6388 C   0  0  0  0  0  0  0  0  0  0  0  0
   -9.6840    0.1017   -1.2295 C   0  0  0  0  0  0  0  0  0  0  0  0
  -11.2948   -2.2796   -3.3297 H   0  0  0  0  0  0  0  0  0  0  0  0
  -11.1760   -1.8047   -5.0536 H   0  0  0  0  0  0  0  0  0  0  0  0
  -12.7263   -1.7137   -4.1970 H   0  0  0  0  0  0  0  0  0  0  0  0
   -9.9670    1.2102   -3.7396 H   0  0  0  0  0  0  0  0  0  0  0  0
   -9.5819   -0.2052   -4.7082 H   0  0  0  0  0  0  0  0  0  0  0  0
   -9.3312   -1.5502   -2.5534 H   0  0  0  0  0  0  0  0  0  0  0  0
   -7.6182    0.9376   -2.8850 H   0  0  0  0  0  0  0  0  0  0  0  0
   -7.1865   -0.7236   -3.3112 H   0  0  0  0  0  0  0  0  0  0  0  0
   -7.1544   -1.4400   -0.9996 H   0  0  0  0  0  0  0  0  0  0  0  0
   -4.1317    2.9010   -0.8298 H   0  0  0  0  0  0  0  0  0  0  0  0
   -2.3169    2.2155    1.3351 H   0  0  0  0  0  0  0  0  0  0  0  0
    0.0212    1.7256    1.8222 H   0  0  0  0  0  0  0  0  0  0  0  0
   -2.5990   -1.3738   -1.0224 H   0  0  0  0  0  0  0  0  0  0  0  0
   -0.1012   -3.0376    0.0647 H   0  0  0  0  0  0  0  0  0  0  0  0
   -0.5202   -2.5437   -1.5776 H   0  0  0  0  0  0  0  0  0  0  0  0
    3.8560   -2.3604   -0.7355 H   0  0  0  0  0  0  0  0  0  0  0  0
    6.2539   -2.5586   -0.5771 H   0  0  0  0  0  0  0  0  0  0  0  0
    8.5615   -3.1630   -0.7863 H   0  0  0  0  0  0  0  0  0  0  0  0
    8.8525   -4.7367    1.0839 H   0  0  0  0  0  0  0  0  0  0  0  0
    9.6953   -3.5068    2.0498 H   0  0  0  0  0  0  0  0  0  0  0  0
   11.5198   -4.6544    0.8690 H   0  0  0  0  0  0  0  0  0  0  0  0
   10.5814   -4.6710   -0.6231 H   0  0  0  0  0  0  0  0  0  0  0  0
   11.6030   -2.7028   -1.1694 H   0  0  0  0  0  0  0  0  0  0  0  0
   12.7874   -1.2297    0.4346 H   0  0  0  0  0  0  0  0  0  0  0  0
   13.2218   -2.9078    0.7279 H   0  0  0  0  0  0  0  0  0  0  0  0
   12.0827   -2.0857    1.8101 H   0  0  0  0  0  0  0  0  0  0  0  0
   11.6826    0.2082   -0.7247 H   0  0  0  0  0  0  0  0  0  0  0  0
   11.1578    0.9754   -2.8014 H   0  0  0  0  0  0  0  0  0  0  0  0
    7.5964    2.4314   -4.2862 H   0  0  0  0  0  0  0  0  0  0  0  0
    8.7599    3.2450   -5.3482 H   0  0  0  0  0  0  0  0  0  0  0  0
    8.3996    3.9625   -3.7637 H   0  0  0  0  0  0  0  0  0  0  0  0
    9.1146    1.2643    0.5556 H   0  0  0  0  0  0  0  0  0  0  0  0
   11.8369    0.5881    1.7677 H   0  0  0  0  0  0  0  0  0  0  0  0
   10.3582   -0.3719    1.9347 H   0  0  0  0  0  0  0  0  0  0  0  0
   10.4460    1.2199    2.6491 H   0  0  0  0  0  0  0  0  0  0  0  0
   10.4394    3.2244    1.4174 H   0  0  0  0  0  0  0  0  0  0  0  0
   11.7710    2.7802    0.3381 H   0  0  0  0  0  0  0  0  0  0  0  0
   10.2133    3.3149   -0.3211 H   0  0  0  0  0  0  0  0  0  0  0  0
    6.5383    0.4739    3.7750 H   0  0  0  0  0  0  0  0  0  0  0  0
    4.1199    1.0193    3.6833 H   0  0  0  0  0  0  0  0  0  0  0  0
    1.9077    0.7719    2.6024 H   0  0  0  0  0  0  0  0  0  0  0  0
   -4.9949   -1.0680    0.1735 H   0  0  0  0  0  0  0  0  0  0  0  0
   -9.7442   -0.1460    2.7361 H   0  0  0  0  0  0  0  0  0  0  0  0
  -11.1211    1.6171    0.8271 H   0  0  0  0  0  0  0  0  0  0  0  0
  -14.8863   -0.1653    0.0723 H   0  0  0  0  0  0  0  0  0  0  0  0
  -13.7760   -1.5488    0.1363 H   0  0  0  0  0  0  0  0  0  0  0  0
  -14.4535   -0.8485    1.6535 H   0  0  0  0  0  0  0  0  0  0  0  0
   -7.7014    2.3626    0.8849 H   0  0  0  0  0  0  0  0  0  0  0  0
   -7.0380    4.5050    1.8507 H   0  0  0  0  0  0  0  0  0  0  0  0
   -8.0769    5.3239    3.9525 H   0  0  0  0  0  0  0  0  0  0  0  0
   -9.8136    3.9601    5.0819 H   0  0  0  0  0  0  0  0  0  0  0  0
  -10.4884    1.7809    4.1417 H   0  0  0  0  0  0  0  0  0  0  0  0
  -10.5078   -0.5006   -0.8422 H   0  0  0  0  0  0  0  0  0  0  0  0
   -9.9682    1.1581   -1.2867 H   0  0  0  0  0  0  0  0  0  0  0  0
  1  2  1  0
  2  3  1  0
  3  4  1  0
  4  5  1  0
  5  6  1  0
  6  7  1  0
  7  8  2  0
  8  9  1  0
  9 10  2  0
 10 11  1  0
 11 12  2  0
 12 13  1  0
 13 14  2  0
 14 15  1  0
 15 16  2  0
 15 17  1  0
 17 18  1  0
 18 19  1  0
 19 20  2  0
 20 21  1  0
 21 22  2  0
 22 23  1  0
 23 24  1  0
 24 25  1  0
 25 26  1  0
 26 27  1  0
 27 28  1  0
 28 29  1  0
 28 30  1  0
 30 31  1  0
 31 32  2  0
 31 33  1  0
 33 34  1  0
 34 35  1  0
 35 36  2  0
 35 37  1  0
 37 38  1  0
 33 39  1  0
 39 40  1  0
 39 41  1  0
 24 42  2  0
 42 43  1  0
 43 44  2  0
 44 45  1  0
 45 46  2  0
 46 47  1  0
 47 48  2  0
 10 49  1  0
  6 50  1  0
 50 51  1  0
 51 52  2  0
 51 53  1  0
 53 54  1  0
 54 55  1  0
 55 56  2  0
 55 57  1  0
 57 58  1  0
 53 59  1  0
 59 60  2  0
 60 61  1  0
 61 62  2  0
 62 63  1  0
 63 64  2  0
 50 65  1  0
 65  4  1  0
 49  7  1  0
 64 59  1  0
 16 11  1  0
 48 19  1  0
 48 14  1  0
 46 21  1  0
 43 22  1  0
 30 25  1  0
  1 66  1  0
  1 67  1  0
  1 68  1  0
  3 69  1  0
  3 70  1  0
  4 71  1  1
  5 72  1  0
  5 73  1  0
  6 74  1  6
  9 75  1  0
 12 76  1  0
 13 77  1  0
 16 78  1  0
 17 79  1  0
 17 80  1  0
 20 81  1  0
 23 82  1  0
 25 83  1  6
 26 84  1  0
 26 85  1  0
 27 86  1  0
 27 87  1  0
 28 88  1  6
 29 89  1  0
 29 90  1  0
 29 91  1  0
 33 92  1  1
 34 93  1  0
 38 94  1  0
 38 95  1  0
 38 96  1  0
 39 97  1  0
 40 98  1  0
 40 99  1  0
 40100  1  0
 41101  1  0
 41102  1  0
 41103  1  0
 44104  1  0
 45105  1  0
 47106  1  0
 49107  1  0
 53108  1  1
 54109  1  0
 58110  1  0
 58111  1  0
 58112  1  0
 60113  1  0
 61114  1  0
 62115  1  0
 63116  1  0
 64117  1  0
 65118  1  0
 65119  1  0
M  END
$$$$
OCNT-2328943
     RDKit          3D

 69 73  0  0  0  0  0  0  0  0999 V2000
   -6.5409   -0.5859   -1.2272 C   0  0  0  0  0  0  0  0  0  0  0  0
   -5.4668    0.4142   -0.9703 C   0  0  0  0  0  0  0  0  0  0  0  0
   -4.4315    0.2947   -0.0526 C   0  0  0  0  0  0  0  0  0  0  0  0
   -4.1527   -0.8067    0.8662 C   0  0  0  0  0  0  0  0  0  0  0  0
   -3.2781   -1.8332    0.4937 C   0  0  0  0  0  0  0  0  0  0  0  0
   -3.0067   -2.8787    1.3775 C   0  0  0  0  0  0  0  0  0  0  0  0
   -3.6196   -2.9012    2.6250 C   0  0  0  0  0  0  0  0  0  0  0  0
   -3.3262   -3.9400    3.4579 O   0  0  0  0  0  0  0  0  0  0  0  0
   -4.5027   -1.8951    3.0060 C   0  0  0  0  0  0  0  0  0  0  0  0
   -4.7702   -0.8469    2.1222 C   0  0  0  0  0  0  0  0  0  0  0  0
   -3.6582    1.4394   -0.1436 N   0  0  0  0  0  0  0  0  0  0  0  0
   -2.4884    1.7332    0.6860 C   0  0  0  0  0  0  0  0  0  0  0  0
   -1.2350    1.0376    0.2114 C   0  0  0  0  0  0  0  0  0  0  0  0
   -0.5070    0.2250    1.0928 C   0  0  0  0  0  0  0  0  0  0  0  0
    0.6657   -0.4191    0.6796 C   0  0  0  0  0  0  0  0  0  0  0  0
    1.1381   -0.2519   -0.6197 C   0  0  0  0  0  0  0  0  0  0  0  0
    2.2589   -0.8141   -1.1597 O   0  0  0  0  0  0  0  0  0  0  0  0
    3.0804   -1.6530   -0.3467 C   0  0  0  0  0  0  0  0  0  0  0  0
    4.0847   -0.8544    0.5111 C   0  0  0  0  0  0  0  0  0  0  0  0
    4.9975    0.0273   -0.2302 N   0  0  0  0  0  0  0  0  0  0  0  0
    5.7123    0.9872    0.6078 C   0  0  0  0  0  0  0  0  0  0  0  0
    6.4542    0.4556    1.8365 C   0  0  0  0  0  0  0  0  0  0  0  0
    7.3693   -0.7550    1.6529 C   0  0  0  0  0  0  0  0  0  0  0  0
    7.9286   -0.9734    0.2522 C   0  0  0  0  0  0  0  0  0  0  0  0
    6.9108   -1.5877   -0.7089 C   0  0  0  0  0  0  0  0  0  0  0  0
    5.8533   -0.6123   -1.2250 C   0  0  0  0  0  0  0  0  0  0  0  0
    0.4236    0.5653   -1.4980 C   0  0  0  0  0  0  0  0  0  0  0  0
   -0.7489    1.2073   -1.0905 C   0  0  0  0  0  0  0  0  0  0  0  0
   -4.1955    2.3070   -1.0808 C   0  0  0  0  0  0  0  0  0  0  0  0
   -3.7843    3.5832   -1.5097 C   0  0  0  0  0  0  0  0  0  0  0  0
   -4.5369    4.2306   -2.4946 C   0  0  0  0  0  0  0  0  0  0  0  0
   -5.6622    3.6198   -3.0286 C   0  0  0  0  0  0  0  0  0  0  0  0
   -6.4115    4.2344   -3.9906 O   0  0  0  0  0  0  0  0  0  0  0  0
   -6.0709    2.3570   -2.6050 C   0  0  0  0  0  0  0  0  0  0  0  0
   -5.3262    1.6830   -1.6135 C   0  0  0  0  0  0  0  0  0  0  0  0
   -7.3616   -0.4473   -0.5162 H   0  0  0  0  0  0  0  0  0  0  0  0
   -6.1640   -1.6085   -1.1253 H   0  0  0  0  0  0  0  0  0  0  0  0
   -6.9433   -0.4862   -2.2400 H   0  0  0  0  0  0  0  0  0  0  0  0
   -2.7973   -1.8166   -0.4822 H   0  0  0  0  0  0  0  0  0  0  0  0
   -2.3219   -3.6711    1.0902 H   0  0  0  0  0  0  0  0  0  0  0  0
   -3.8654   -3.8542    4.2611 H   0  0  0  0  0  0  0  0  0  0  0  0
   -4.9893   -1.9083    3.9758 H   0  0  0  0  0  0  0  0  0  0  0  0
   -5.4632   -0.0608    2.4130 H   0  0  0  0  0  0  0  0  0  0  0  0
   -2.7441    1.4482    1.7132 H   0  0  0  0  0  0  0  0  0  0  0  0
   -2.3249    2.8154    0.7024 H   0  0  0  0  0  0  0  0  0  0  0  0
   -0.8564    0.0695    2.1121 H   0  0  0  0  0  0  0  0  0  0  0  0
    1.1781   -1.0418    1.4037 H   0  0  0  0  0  0  0  0  0  0  0  0
    2.4780   -2.3256    0.2751 H   0  0  0  0  0  0  0  0  0  0  0  0
    3.6228   -2.3184   -1.0273 H   0  0  0  0  0  0  0  0  0  0  0  0
    4.6429   -1.5686    1.1253 H   0  0  0  0  0  0  0  0  0  0  0  0
    3.5061   -0.2296    1.2018 H   0  0  0  0  0  0  0  0  0  0  0  0
    6.4090    1.5718   -0.0077 H   0  0  0  0  0  0  0  0  0  0  0  0
    4.9834    1.7292    0.9609 H   0  0  0  0  0  0  0  0  0  0  0  0
    7.0594    1.2830    2.2313 H   0  0  0  0  0  0  0  0  0  0  0  0
    5.7326    0.2243    2.6309 H   0  0  0  0  0  0  0  0  0  0  0  0
    6.8404   -1.6607    1.9756 H   0  0  0  0  0  0  0  0  0  0  0  0
    8.2083   -0.6487    2.3529 H   0  0  0  0  0  0  0  0  0  0  0  0
    8.3439   -0.0442   -0.1546 H   0  0  0  0  0  0  0  0  0  0  0  0
    8.7671   -1.6766    0.3359 H   0  0  0  0  0  0  0  0  0  0  0  0
    7.4585   -1.9702   -1.5800 H   0  0  0  0  0  0  0  0  0  0  0  0
    6.4325   -2.4602   -0.2480 H   0  0  0  0  0  0  0  0  0  0  0  0
    5.2324   -1.1316   -1.9642 H   0  0  0  0  0  0  0  0  0  0  0  0
    6.3568    0.1688   -1.8110 H   0  0  0  0  0  0  0  0  0  0  0  0
    0.7852    0.7034   -2.5144 H   0  0  0  0  0  0  0  0  0  0  0  0
   -1.2779    1.8315   -1.8069 H   0  0  0  0  0  0  0  0  0  0  0  0
   -2.9021    4.0649   -1.1004 H   0  0  0  0  0  0  0  0  0  0  0  0
   -4.2228    5.2143   -2.8302 H   0  0  0  0  0  0  0  0  0  0  0  0
   -6.0045    5.0910   -4.1978 H   0  0  0  0  0  0  0  0  0  0  0  0
   -6.9554    1.9014   -3.0386 H   0  0  0  0  0  0  0  0  0  0  0  0
  1  2  1  0
  2  3  2  0
  3  4  1  0
  4  5  1  0
  5  6  2  0
  6  7  1  0
  7  8  1  0
  7  9  2  0
  9 10  1  0
  3 11  1  0
 11 12  1  0
 12 13  1  0
 13 14  1  0
 14 15  2  0
 15 16  1  0
 16 17  1  0
 17 18  1  0
 18 19  1  0
 19 20  1  0
 20 21  1  0
 21 22  1  0
 22 23  1  0
 23 24  1  0
 24 25  1  0
 25 26  1  0
 16 27  2  0
 27 28  1  0
 11 29  1  0
 29 30  2  0
 30 31  1  0
 31 32  2  0
 32 33  1  0
 32 34  1  0
 34 35  2  0
 35  2  1  0
 10  4  2  0
 28 13  2  0
 35 29  1  0
 26 20  1  0
  1 36  1  0
  1 37  1  0
  1 38  1  0
  5 39  1  0
  6 40  1  0
  8 41  1  0
  9 42  1  0
 10 43  1  0
 12 44  1  0
 12 45  1  0
 14 46  1  0
 15 47  1  0
 18 48  1  0
 18 49  1  0
 19 50  1  0
 19 51  1  0
 21 52  1  0
 21 53  1  0
 22 54  1  0
 22 55  1  0
 23 56  1  0
 23 57  1  0
 24 58  1  0
 24 59  1  0
 25 60  1  0
 25 61  1  0
 26 62  1  0
 26 63  1  0
 27 64  1  0
 28 65  1  0
 30 66  1  0
 31 67  1  0
 33 68  1  0
 34 69  1  0
M  END
$$$$
OCNT-2328949
     RDKit          3D

 51 53  0  0  0  0  0  0  0  0999 V2000
    7.9431    0.5985   -1.4397 C   0  0  0  0  0  0  0  0  0  0  0  0
    6.5546    0.3688   -1.6380 O   0  0  0  0  0  0  0  0  0  0  0  0
    5.8844    1.5435   -2.0884 C   0  0  0  0  0  0  0  0  0  0  0  0
    4.4029    1.2440   -2.3052 C   0  0  0  0  0  0  0  0  0  0  0  0
    3.7071    0.8319   -0.9998 C   0  0  0  0  0  0  0  0  0  0  0  0
    2.2738    0.5268   -1.1734 N   0  0  0  0  0  0  0  0  0  0  0  0
    1.7033   -0.0879    0.0380 C   0  0  0  0  0  0  0  0  0  0  0  0
    0.9273    0.8916    0.9140 C   0  0  0  0  0  0  0  0  0  0  0  0
   -0.2448    1.5155    0.1426 C   0  0  0  0  0  0  0  0  0  0  0  0
   -1.4961    0.8205    0.4193 N   0  0  0  0  0  0  0  0  0  0  0  0
   -2.2331    1.0526    1.5592 C   0  0  0  0  0  0  0  0  0  0  0  0
   -1.9587    1.9367    2.3644 O   0  0  0  0  0  0  0  0  0  0  0  0
   -3.4076    0.1664    1.8001 C   0  0  0  0  0  0  0  0  0  0  0  0
   -4.2399    0.4470    2.8929 C   0  0  0  0  0  0  0  0  0  0  0  0
   -5.3562   -0.3599    3.1683 C   0  0  0  0  0  0  0  0  0  0  0  0
   -6.3466    0.0543    4.5270 Cl  0  0  0  0  0  0  0  0  0  0  0  0
   -5.6541   -1.4991    2.3939 C   0  0  0  0  0  0  0  0  0  0  0  0
   -6.8207   -2.2518    2.5934 N   0  0  0  0  0  0  0  0  0  0  0  0
   -4.8509   -1.7256    1.2841 C   0  0  0  0  0  0  0  0  0  0  0  0
   -3.7473   -0.9195    1.0032 C   0  0  0  0  0  0  0  0  0  0  0  0
   -3.0605   -1.3364   -0.1161 O   0  0  0  0  0  0  0  0  0  0  0  0
   -3.9724   -2.2505   -0.7662 C   0  0  0  0  0  0  0  0  0  0  0  0
   -4.9261   -2.8151    0.2796 C   0  0  0  0  0  0  0  0  0  0  0  0
    0.0145    1.5505   -1.3675 C   0  0  0  0  0  0  0  0  0  0  0  0
    1.5066    1.6856   -1.6564 C   0  0  0  0  0  0  0  0  0  0  0  0
    8.4202    0.8961   -2.3784 H   0  0  0  0  0  0  0  0  0  0  0  0
    8.4005   -0.3328   -1.0952 H   0  0  0  0  0  0  0  0  0  0  0  0
    8.0989    1.3675   -0.6770 H   0  0  0  0  0  0  0  0  0  0  0  0
    6.0041    2.3436   -1.3485 H   0  0  0  0  0  0  0  0  0  0  0  0
    6.3282    1.8724   -3.0352 H   0  0  0  0  0  0  0  0  0  0  0  0
    4.2999    0.4315   -3.0350 H   0  0  0  0  0  0  0  0  0  0  0  0
    3.9348    2.1384   -2.7300 H   0  0  0  0  0  0  0  0  0  0  0  0
    3.8395    1.6153   -0.2424 H   0  0  0  0  0  0  0  0  0  0  0  0
    4.2132   -0.0659   -0.6232 H   0  0  0  0  0  0  0  0  0  0  0  0
    1.0245   -0.8891   -0.2821 H   0  0  0  0  0  0  0  0  0  0  0  0
    2.4733   -0.5879    0.6384 H   0  0  0  0  0  0  0  0  0  0  0  0
    0.5830    0.3860    1.8239 H   0  0  0  0  0  0  0  0  0  0  0  0
    1.6087    1.6878    1.2418 H   0  0  0  0  0  0  0  0  0  0  0  0
   -0.3646    2.5452    0.5036 H   0  0  0  0  0  0  0  0  0  0  0  0
   -1.7146   -0.0133   -0.1195 H   0  0  0  0  0  0  0  0  0  0  0  0
   -4.0240    1.3021    3.5312 H   0  0  0  0  0  0  0  0  0  0  0  0
   -7.1947   -2.1548    3.5365 H   0  0  0  0  0  0  0  0  0  0  0  0
   -6.7603   -3.2193    2.2953 H   0  0  0  0  0  0  0  0  0  0  0  0
   -4.5145   -1.6898   -1.5386 H   0  0  0  0  0  0  0  0  0  0  0  0
   -3.4007   -3.0419   -1.2617 H   0  0  0  0  0  0  0  0  0  0  0  0
   -5.9260   -2.9763   -0.1311 H   0  0  0  0  0  0  0  0  0  0  0  0
   -4.5392   -3.7463    0.7061 H   0  0  0  0  0  0  0  0  0  0  0  0
   -0.5347    2.3882   -1.8144 H   0  0  0  0  0  0  0  0  0  0  0  0
   -0.3682    0.6437   -1.8553 H   0  0  0  0  0  0  0  0  0  0  0  0
    1.6431    1.7797   -2.7396 H   0  0  0  0  0  0  0  0  0  0  0  0
    1.8672    2.6165   -1.1988 H   0  0  0  0  0  0  0  0  0  0  0  0
  1  2  1  0
  2  3  1  0
  3  4  1  0
  4  5  1  0
  5  6  1  0
  6  7  1  0
  7  8  1  0
  8  9  1  0
  9 10  1  0
 10 11  1  0
 11 12  2  0
 11 13  1  0
 13 14  1  0
 14 15  2  0
 15 16  1  0
 15 17  1  0
 17 18  1  0
 17 19  2  0
 19 20  1  0
 20 21  1  0
 21 22  1  0
 22 23  1  0
  9 24  1  0
 24 25  1  0
 25  6  1  0
 20 13  2  0
 23 19  1  0
  1 26  1  0
  1 27  1  0
  1 28  1  0
  3 29  1  0
  3 30  1  0
  4 31  1  0
  4 32  1  0
  5 33  1  0
  5 34  1  0
  7 35  1  0
  7 36  1  0
  8 37  1  0
  8 38  1  0
  9 39  1  0
 10 40  1  0
 14 41  1  0
 18 42  1  0
 18 43  1  0
 22 44  1  0
 22 45  1  0
 23 46  1  0
 23 47  1  0
 24 48  1  0
 24 49  1  0
 25 50  1  0
 25 51  1  0
M  END
$$$$
OCNT-2328950
     RDKit          3D

 35 36  0  0  0  0  0  0  0  0999 V2000
    4.4104    1.3515    0.0218 C   0  0  0  0  0  0  0  0  0  0  0  0
    4.2473   -0.1404   -0.2463 C   0  0  0  0  0  0  0  0  0  0  0  0
    4.0869   -0.9754    1.0187 C   0  0  0  0  0  0  0  0  0  0  0  0
    3.2196   -0.4210   -1.2503 N   0  0  0  0  0  0  0  0  0  0  0  0
    1.8436   -0.3295   -1.1124 C   0  0  0  0  0  0  0  0  0  0  0  0
    1.0450   -0.8158   -2.1578 C   0  0  0  0  0  0  0  0  0  0  0  0
   -0.3529   -0.7142   -2.1331 C   0  0  0  0  0  0  0  0  0  0  0  0
   -1.0092   -0.0941   -1.0683 C   0  0  0  0  0  0  0  0  0  0  0  0
   -2.4123   -0.0496   -1.0602 N   0  0  0  0  0  0  0  0  0  0  0  0
   -3.3463    0.0360   -0.0132 C   0  0  0  0  0  0  0  0  0  0  0  0
   -3.0728   -0.3947    1.2898 C   0  0  0  0  0  0  0  0  0  0  0  0
   -4.0197   -0.2563    2.3095 C   0  0  0  0  0  0  0  0  0  0  0  0
   -5.2553    0.3257    2.0404 C   0  0  0  0  0  0  0  0  0  0  0  0
   -5.5438    0.7672    0.7524 C   0  0  0  0  0  0  0  0  0  0  0  0
   -4.5946    0.6246   -0.2640 C   0  0  0  0  0  0  0  0  0  0  0  0
   -0.2207    0.4150   -0.0372 C   0  0  0  0  0  0  0  0  0  0  0  0
    1.1803    0.3141   -0.0698 C   0  0  0  0  0  0  0  0  0  0  0  0
    5.3129    1.5338    0.6157 H   0  0  0  0  0  0  0  0  0  0  0  0
    4.5102    1.9067   -0.9174 H   0  0  0  0  0  0  0  0  0  0  0  0
    3.5713    1.7816    0.5723 H   0  0  0  0  0  0  0  0  0  0  0  0
    5.1927   -0.4619   -0.7041 H   0  0  0  0  0  0  0  0  0  0  0  0
    4.9713   -0.8732    1.6570 H   0  0  0  0  0  0  0  0  0  0  0  0
    3.2212   -0.6764    1.6150 H   0  0  0  0  0  0  0  0  0  0  0  0
    3.9716   -2.0367    0.7730 H   0  0  0  0  0  0  0  0  0  0  0  0
    3.4885   -1.1841   -1.8670 H   0  0  0  0  0  0  0  0  0  0  0  0
    1.5098   -1.2898   -3.0193 H   0  0  0  0  0  0  0  0  0  0  0  0
   -0.9209   -1.1328   -2.9594 H   0  0  0  0  0  0  0  0  0  0  0  0
   -2.8300   -0.0752   -1.9830 H   0  0  0  0  0  0  0  0  0  0  0  0
   -2.1269   -0.8768    1.5210 H   0  0  0  0  0  0  0  0  0  0  0  0
   -3.7895   -0.6083    3.3115 H   0  0  0  0  0  0  0  0  0  0  0  0
   -5.9909    0.4347    2.8327 H   0  0  0  0  0  0  0  0  0  0  0  0
   -6.5042    1.2275    0.5369 H   0  0  0  0  0  0  0  0  0  0  0  0
   -4.8350    0.9914   -1.2586 H   0  0  0  0  0  0  0  0  0  0  0  0
   -0.6799    0.9395    0.7963 H   0  0  0  0  0  0  0  0  0  0  0  0
    1.7224    0.7569    0.7560 H   0  0  0  0  0  0  0  0  0  0  0  0
  1  2  1  0
  2  3  1  0
  2  4  1  0
  4  5  1  0
  5  6  1  0
  6  7  2  0
  7  8  1  0
  8  9  1  0
  9 10  1  0
 10 11  2  0
 11 12  1  0
 12 13  2  0
 13 14  1  0
 14 15  2  0
  8 16  2  0
 16 17  1  0
 17  5  2  0
 15 10  1  0
  1 18  1  0
  1 19  1  0
  1 20  1  0
  2 21  1  0
  3 22  1  0
  3 23  1  0
  3 24  1  0
  4 25  1  0
  6 26  1  0
  7 27  1  0
  9 28  1  0
 11 29  1  0
 12 30  1  0
 13 31  1  0
 14 32  1  0
 15 33  1  0
 16 34  1  0
 17 35  1  0
M  END
$$$$
OCNT-2328958
     RDKit          3D

 30 32  0  0  0  0  0  0  0  0999 V2000
    6.1970    0.3504   -1.0514 C   0  0  0  0  0  0  0  0  0  0  0  0
    5.5395    0.1739    0.6230 S   0  0  0  0  0  0  0  0  0  0  0  0
    3.8759   -0.1079    0.2761 C   0  0  0  0  0  0  0  0  0  0  0  0
    3.3016   -0.1844   -0.8990 N   0  0  0  0  0  0  0  0  0  0  0  0
    1.9753   -0.4162   -0.6259 C   0  0  0  0  0  0  0  0  0  0  0  0
    0.8986   -0.5907   -1.5050 C   0  0  0  0  0  0  0  0  0  0  0  0
   -0.3807   -0.8192   -0.9742 C   0  0  0  0  0  0  0  0  0  0  0  0
   -1.6432   -1.1157   -2.1177 Cl  0  0  0  0  0  0  0  0  0  0  0  0
   -0.5858   -0.8496    0.4156 C   0  0  0  0  0  0  0  0  0  0  0  0
   -1.7972   -1.0875    1.0365 O   0  0  0  0  0  0  0  0  0  0  0  0
   -2.8734   -0.2880    0.7102 C   0  0  0  0  0  0  0  0  0  0  0  0
   -4.0206   -0.9919    0.3143 C   0  0  0  0  0  0  0  0  0  0  0  0
   -5.1858   -0.3120   -0.0300 C   0  0  0  0  0  0  0  0  0  0  0  0
   -5.2185    1.0779    0.0419 C   0  0  0  0  0  0  0  0  0  0  0  0
   -4.0928    1.7878    0.4767 C   0  0  0  0  0  0  0  0  0  0  0  0
   -4.2415    3.5111    0.5673 Cl  0  0  0  0  0  0  0  0  0  0  0  0
   -2.9129    1.1112    0.8302 C   0  0  0  0  0  0  0  0  0  0  0  0
   -1.5648    1.9960    1.4680 Cl  0  0  0  0  0  0  0  0  0  0  0  0
    0.4959   -0.7178    1.3049 C   0  0  0  0  0  0  0  0  0  0  0  0
    1.7527   -0.4872    0.7456 C   0  0  0  0  0  0  0  0  0  0  0  0
    2.9914   -0.2839    1.2984 N   0  0  0  0  0  0  0  0  0  0  0  0
    6.0375   -0.5655   -1.6274 H   0  0  0  0  0  0  0  0  0  0  0  0
    7.2722    0.5408   -0.9965 H   0  0  0  0  0  0  0  0  0  0  0  0
    5.7232    1.1913   -1.5656 H   0  0  0  0  0  0  0  0  0  0  0  0
    1.0721   -0.5594   -2.5751 H   0  0  0  0  0  0  0  0  0  0  0  0
   -3.9933   -2.0782    0.2539 H   0  0  0  0  0  0  0  0  0  0  0  0
   -6.0639   -0.8643   -0.3565 H   0  0  0  0  0  0  0  0  0  0  0  0
   -6.1297    1.6059   -0.2308 H   0  0  0  0  0  0  0  0  0  0  0  0
    0.3468   -0.7671    2.3787 H   0  0  0  0  0  0  0  0  0  0  0  0
    3.2244   -0.2600    2.2796 H   0  0  0  0  0  0  0  0  0  0  0  0
  1  2  1  0
  2  3  1  0
  3  4  2  0
  4  5  1  0
  5  6  2  0
  6  7  1  0
  7  8  1  0
  7  9  2  0
  9 10  1  0
 10 11  1  0
 11 12  2  0
 12 13  1  0
 13 14  2  0
 14 15  1  0
 15 16  1  0
 15 17  2  0
 17 18  1  0
  9 19  1  0
 19 20  2  0
 20 21  1  0
 21  3  1  0
 20  5  1  0
 17 11  1  0
  1 22  1  0
  1 23  1  0
  1 24  1  0
  6 25  1  0
 12 26  1  0
 13 27  1  0
 14 28  1  0
 19 29  1  0
 21 30  1  0
M  END
$$$$
OCNT-2328975
     RDKit          3D

 42 45  0  0  0  0  0  0  0  0999 V2000
    4.2523    1.6940   -1.1887 C   0  0  0  0  0  0  0  0  0  0  0  0
    3.0275    1.1227   -0.6416 N   0  0  0  0  0  0  0  0  0  0  0  0
    2.2697    0.3846   -1.6667 C   0  0  0  0  0  0  0  0  0  0  0  0
    1.4330   -0.8015   -1.1408 C   0  0  0  0  0  0  0  0  0  0  0  0
    0.8690   -0.5430    0.2455 C   0  0  0  0  0  0  0  0  0  0  0  0
   -0.4506   -0.5853    0.5799 C   0  0  0  0  0  0  0  0  0  0  0  0
   -1.4532   -0.8931   -0.4787 C   0  0  0  0  0  0  0  0  0  0  0  0
   -1.5884   -2.1950   -0.9821 C   0  0  0  0  0  0  0  0  0  0  0  0
   -2.5389   -2.4738   -1.9640 C   0  0  0  0  0  0  0  0  0  0  0  0
   -3.3679   -1.4592   -2.4391 C   0  0  0  0  0  0  0  0  0  0  0  0
   -3.2583   -0.1652   -1.9273 C   0  0  0  0  0  0  0  0  0  0  0  0
   -2.3082    0.1283   -0.9394 C   0  0  0  0  0  0  0  0  0  0  0  0
   -2.2217    1.5159   -0.3417 C   0  0  0  0  0  0  0  0  0  0  0  0
   -2.7121    1.5637    1.1103 C   0  0  0  0  0  0  0  0  0  0  0  0
   -1.9264    0.7303    2.0965 C   0  0  0  0  0  0  0  0  0  0  0  0
   -0.9397   -0.2245    1.8961 C   0  0  0  0  0  0  0  0  0  0  0  0
   -0.5247   -0.8318    3.1224 C   0  0  0  0  0  0  0  0  0  0  0  0
   -1.1635   -0.2931    4.2151 C   0  0  0  0  0  0  0  0  0  0  0  0
   -2.2798    0.9176    3.7706 S   0  0  0  0  0  0  0  0  0  0  0  0
    1.9628   -0.1164    1.2211 C   0  0  0  0  0  0  0  0  0  0  0  0
    3.2840    0.2998    0.5413 C   0  0  0  0  0  0  0  0  0  0  0  0
    4.0268    2.3404   -2.0441 H   0  0  0  0  0  0  0  0  0  0  0  0
    4.9580    0.9214   -1.5145 H   0  0  0  0  0  0  0  0  0  0  0  0
    4.7512    2.3221   -0.4425 H   0  0  0  0  0  0  0  0  0  0  0  0
    2.9369   -0.0118   -2.4439 H   0  0  0  0  0  0  0  0  0  0  0  0
    1.6011    1.0990   -2.1628 H   0  0  0  0  0  0  0  0  0  0  0  0
    2.0714   -1.6933   -1.0783 H   0  0  0  0  0  0  0  0  0  0  0  0
    0.6739   -1.0303   -1.8928 H   0  0  0  0  0  0  0  0  0  0  0  0
   -0.9520   -2.9934   -0.6089 H   0  0  0  0  0  0  0  0  0  0  0  0
   -2.6358   -3.4833   -2.3545 H   0  0  0  0  0  0  0  0  0  0  0  0
   -4.1105   -1.6786   -3.2022 H   0  0  0  0  0  0  0  0  0  0  0  0
   -3.9268    0.6089   -2.2967 H   0  0  0  0  0  0  0  0  0  0  0  0
   -2.8309    2.2079   -0.9372 H   0  0  0  0  0  0  0  0  0  0  0  0
   -1.1921    1.8878   -0.4217 H   0  0  0  0  0  0  0  0  0  0  0  0
   -3.7614    1.2409    1.1454 H   0  0  0  0  0  0  0  0  0  0  0  0
   -2.6886    2.6115    1.4373 H   0  0  0  0  0  0  0  0  0  0  0  0
    0.2059   -1.6268    3.2012 H   0  0  0  0  0  0  0  0  0  0  0  0
   -1.0342   -0.5591    5.2548 H   0  0  0  0  0  0  0  0  0  0  0  0
    1.6136    0.7377    1.8148 H   0  0  0  0  0  0  0  0  0  0  0  0
    2.1825   -0.9428    1.9068 H   0  0  0  0  0  0  0  0  0  0  0  0
    3.8678   -0.5918    0.2754 H   0  0  0  0  0  0  0  0  0  0  0  0
    3.8781    0.8585    1.2754 H   0  0  0  0  0  0  0  0  0  0  0  0
  1  2  1  0
  2  3  1  0
  3  4  1  0
  4  5  1  0
  5  6  2  3
  6  7  1  0
  7  8  2  0
  8  9  1  0
  9 10  2  0
 10 11  1  0
 11 12  2  0
 12 13  1  0
 13 14  1  0
 14 15  1  0
 15 16  2  0
 16 17  1  0
 17 18  2  0
 18 19  1  0
  5 20  1  0
 20 21  1  0
 21  2  1  0
 16  6  1  0
 12  7  1  0
 19 15  1  0
  1 22  1  0
  1 23  1  0
  1 24  1  0
  3 25  1  0
  3 26  1  0
  4 27  1  0
  4 28  1  0
  8 29  1  0
  9 30  1  0
 10 31  1  0
 11 32  1  0
 13 33  1  0
 13 34  1  0
 14 35  1  0
 14 36  1  0
 17 37  1  0
 18 38  1  0
 20 39  1  0
 20 40  1  0
 21 41  1  0
 21 42  1  0
M  END
$$$$
OCNT-2328989
     RDKit          3D

 47 50  0  0  0  0  0  0  0  0999 V2000
    1.0456   -0.4652    3.3141 C   0  0  0  0  0  0  0  0  0  0  0  0
    2.1992   -0.5080    2.3937 C   0  0  0  0  0  0  0  0  0  0  0  0
    2.4021   -0.2357    1.0546 C   0  0  0  0  0  0  0  0  0  0  0  0
    1.4636    0.2473    0.0655 C   0  0  0  0  0  0  0  0  0  0  0  0
    1.5959    0.0242   -1.1346 O   0  0  0  0  0  0  0  0  0  0  0  0
    0.4243    1.0145    0.5403 N   0  0  0  0  0  0  0  0  0  0  0  0
   -0.6054    1.5525   -0.3866 C   0  0  2  0  0  0  0  0  0  0  0  0
   -1.8257    2.2198    0.2819 C   0  0  0  0  0  0  0  0  0  0  0  0
   -2.0001    2.9995    1.1900 O   0  0  0  0  0  0  0  0  0  0  0  0
   -2.7049    1.4449   -0.4243 N   0  0  0  0  0  0  0  0  0  0  0  0
   -1.6491    0.5598   -0.9535 C   0  0  2  0  0  0  0  0  0  0  0  0
   -1.9289   -1.0208   -0.0596 S   0  0  0  0  0  0  0  0  0  0  0  0
   -3.7560   -0.6950    0.0317 C   0  0  0  0  0  0  0  0  0  0  0  0
   -4.3864   -1.1498   -1.2920 C   0  0  0  0  0  0  0  0  0  0  0  0
   -4.3322   -1.5004    1.1986 C   0  0  0  0  0  0  0  0  0  0  0  0
   -3.8301    0.8261    0.2812 C   0  0  2  0  0  0  0  0  0  0  0  0
   -5.1806    1.4296   -0.0939 C   0  0  0  0  0  0  0  0  0  0  0  0
   -6.2579    1.0977    0.3789 O   0  0  0  0  0  0  0  0  0  0  0  0
   -5.1318    2.3868   -1.0413 O   0  0  0  0  0  0  0  0  0  0  0  0
    3.7688   -0.5912    0.8429 C   0  0  0  0  0  0  0  0  0  0  0  0
    4.5344   -0.5322   -0.3945 C   0  0  0  0  0  0  0  0  0  0  0  0
    4.7619   -1.6922   -1.1542 C   0  0  0  0  0  0  0  0  0  0  0  0
    4.1368   -3.2403   -0.6922 Cl  0  0  0  0  0  0  0  0  0  0  0  0
    5.5005   -1.6319   -2.3422 C   0  0  0  0  0  0  0  0  0  0  0  0
    6.0164   -0.4168   -2.7880 C   0  0  0  0  0  0  0  0  0  0  0  0
    5.7913    0.7422   -2.0486 C   0  0  0  0  0  0  0  0  0  0  0  0
    5.0535    0.6880   -0.8601 C   0  0  0  0  0  0  0  0  0  0  0  0
    4.8140    2.1795   -0.0105 Cl  0  0  0  0  0  0  0  0  0  0  0  0
    4.3468   -0.9907    1.9845 N   0  0  0  0  0  0  0  0  0  0  0  0
    3.3627   -0.9419    2.9460 O   0  0  0  0  0  0  0  0  0  0  0  0
    0.1340   -0.8076    2.8154 H   0  0  0  0  0  0  0  0  0  0  0  0
    1.2091   -1.1111    4.1829 H   0  0  0  0  0  0  0  0  0  0  0  0
    0.8838    0.5544    3.6764 H   0  0  0  0  0  0  0  0  0  0  0  0
    0.4255    1.3135    1.5071 H   0  0  0  0  0  0  0  0  0  0  0  0
   -0.1512    2.2059   -1.1422 H   0  0  0  0  0  0  0  0  0  0  0  0
   -1.6743    0.4832   -2.0447 H   0  0  0  0  0  0  0  0  0  0  0  0
   -4.1799   -2.2081   -1.4919 H   0  0  0  0  0  0  0  0  0  0  0  0
   -4.0236   -0.5693   -2.1474 H   0  0  0  0  0  0  0  0  0  0  0  0
   -5.4766   -1.0418   -1.2664 H   0  0  0  0  0  0  0  0  0  0  0  0
   -4.1913   -2.5779    1.0536 H   0  0  0  0  0  0  0  0  0  0  0  0
   -5.4090   -1.3263    1.2997 H   0  0  0  0  0  0  0  0  0  0  0  0
   -3.8675   -1.2265    2.1530 H   0  0  0  0  0  0  0  0  0  0  0  0
   -3.7016    1.0404    1.3520 H   0  0  0  0  0  0  0  0  0  0  0  0
   -6.0590    2.6879   -1.1414 H   0  0  0  0  0  0  0  0  0  0  0  0
    5.6723   -2.5330   -2.9269 H   0  0  0  0  0  0  0  0  0  0  0  0
    6.5884   -0.3731   -3.7119 H   0  0  0  0  0  0  0  0  0  0  0  0
    6.1921    1.6891   -2.4037 H   0  0  0  0  0  0  0  0  0  0  0  0
  1  2  1  0
  2  3  2  0
  3  4  1  0
  4  5  2  0
  4  6  1  0
  6  7  1  0
  7  8  1  0
  8  9  2  0
  8 10  1  0
 10 11  1  0
 11 12  1  0
 12 13  1  0
 13 14  1  0
 13 15  1  0
 13 16  1  0
 16 17  1  0
 17 18  2  0
 17 19  1  0
  3 20  1  0
 20 21  1  0
 21 22  2  0
 22 23  1  0
 22 24  1  0
 24 25  2  0
 25 26  1  0
 26 27  2  0
 27 28  1  0
 20 29  2  0
 29 30  1  0
 30  2  1  0
 11  7  1  0
 27 21  1  0
 16 10  1  0
  1 31  1  0
  1 32  1  0
  1 33  1  0
  6 34  1  0
  7 35  1  6
 11 36  1  6
 14 37  1  0
 14 38  1  0
 14 39  1  0
 15 40  1  0
 15 41  1  0
 15 42  1  0
 16 43  1  1
 19 44  1  0
 24 45  1  0
 25 46  1  0
 26 47  1  0
M  END
$$$$
OCNT-2328990
     RDKit          3D

 58 61  0  0  0  0  0  0  0  0999 V2000
   -2.1646    3.9319   -2.0215 C   0  0  0  0  0  0  0  0  0  0  0  0
   -1.1840    3.6927   -0.8854 C   0  0  0  0  0  0  0  0  0  0  0  0
   -0.9787    2.2806   -0.6220 N   0  0  0  0  0  0  0  0  0  0  0  0
   -0.1687    1.4486   -1.4690 C   0  0  0  0  0  0  0  0  0  0  0  0
   -0.0862    0.1343   -0.6873 C   0  0  0  0  0  0  0  0  0  0  0  0
    1.0488    0.2047    0.3795 C   0  0  0  0  0  0  0  0  0  0  0  0
    2.4575    0.1671   -0.2439 C   0  0  0  0  0  0  0  0  0  0  0  0
    3.5097    0.2425    0.7771 N   0  0  0  0  0  0  0  0  0  0  0  0
    4.7948    0.6671    0.1806 C   0  0  0  0  0  0  0  0  0  0  0  0
    5.9841    0.3134    1.0843 C   0  0  0  0  0  0  0  0  0  0  0  0
    6.1497   -1.1016    1.2472 O   0  0  0  0  0  0  0  0  0  0  0  0
    4.9192   -1.8270    1.1315 C   0  0  0  0  0  0  0  0  0  0  0  0
    3.6841   -1.0097    1.5475 C   0  0  0  0  0  0  0  0  0  0  0  0
   -1.5524    0.0086   -0.0935 C   0  0  0  0  0  0  0  0  0  0  0  0
   -1.5643   -0.8938    1.1589 C   0  0  0  0  0  0  0  0  0  0  0  0
   -1.6893   -0.3892    2.4640 C   0  0  0  0  0  0  0  0  0  0  0  0
   -1.6688   -1.2426    3.5714 C   0  0  0  0  0  0  0  0  0  0  0  0
   -1.5194   -2.6153    3.3987 C   0  0  0  0  0  0  0  0  0  0  0  0
   -1.3887   -3.1392    2.1172 C   0  0  0  0  0  0  0  0  0  0  0  0
   -1.4078   -2.2886    1.0097 C   0  0  0  0  0  0  0  0  0  0  0  0
   -2.6290   -0.5000   -1.1043 C   0  0  0  0  0  0  0  0  0  0  0  0
   -2.3265   -1.0645   -2.3558 C   0  0  0  0  0  0  0  0  0  0  0  0
   -3.3403   -1.5111   -3.2111 C   0  0  0  0  0  0  0  0  0  0  0  0
   -4.6754   -1.4115   -2.8329 C   0  0  0  0  0  0  0  0  0  0  0  0
   -5.0011   -0.8694   -1.5955 C   0  0  0  0  0  0  0  0  0  0  0  0
   -3.9908   -0.4235   -0.7410 C   0  0  0  0  0  0  0  0  0  0  0  0
   -1.8545    1.5218    0.1571 C   0  0  0  0  0  0  0  0  0  0  0  0
   -2.7431    1.9964    0.8530 O   0  0  0  0  0  0  0  0  0  0  0  0
   -2.3121    5.0050   -2.1767 H   0  0  0  0  0  0  0  0  0  0  0  0
   -1.7976    3.4997   -2.9578 H   0  0  0  0  0  0  0  0  0  0  0  0
   -3.1379    3.4798   -1.8043 H   0  0  0  0  0  0  0  0  0  0  0  0
   -0.2125    4.1452   -1.1098 H   0  0  0  0  0  0  0  0  0  0  0  0
   -1.5713    4.1611    0.0261 H   0  0  0  0  0  0  0  0  0  0  0  0
    0.7935    1.9310   -1.6500 H   0  0  0  0  0  0  0  0  0  0  0  0
   -0.6810    1.3202   -2.4279 H   0  0  0  0  0  0  0  0  0  0  0  0
    0.1659   -0.7020   -1.3459 H   0  0  0  0  0  0  0  0  0  0  0  0
    0.9430    1.1084    0.9930 H   0  0  0  0  0  0  0  0  0  0  0  0
    0.9597   -0.6474    1.0573 H   0  0  0  0  0  0  0  0  0  0  0  0
    2.5791   -0.7315   -0.8619 H   0  0  0  0  0  0  0  0  0  0  0  0
    2.5615    1.0280   -0.9127 H   0  0  0  0  0  0  0  0  0  0  0  0
    4.9426    0.1779   -0.7915 H   0  0  0  0  0  0  0  0  0  0  0  0
    4.7707    1.7498    0.0141 H   0  0  0  0  0  0  0  0  0  0  0  0
    5.8707    0.7636    2.0775 H   0  0  0  0  0  0  0  0  0  0  0  0
    6.9125    0.7034    0.6549 H   0  0  0  0  0  0  0  0  0  0  0  0
    5.0065   -2.7194    1.7598 H   0  0  0  0  0  0  0  0  0  0  0  0
    4.8222   -2.1698    0.0947 H   0  0  0  0  0  0  0  0  0  0  0  0
    2.7998   -1.6536    1.5052 H   0  0  0  0  0  0  0  0  0  0  0  0
    3.8044   -0.7183    2.5986 H   0  0  0  0  0  0  0  0  0  0  0  0
   -1.8022    0.6759    2.6527 H   0  0  0  0  0  0  0  0  0  0  0  0
   -1.7720   -0.8288    4.5715 H   0  0  0  0  0  0  0  0  0  0  0  0
   -1.5082   -3.2744    4.2624 H   0  0  0  0  0  0  0  0  0  0  0  0
   -1.2762   -4.2109    1.9768 H   0  0  0  0  0  0  0  0  0  0  0  0
   -1.3048   -2.7285    0.0198 H   0  0  0  0  0  0  0  0  0  0  0  0
   -1.3063   -1.1800   -2.7047 H   0  0  0  0  0  0  0  0  0  0  0  0
   -3.0844   -1.9420   -4.1759 H   0  0  0  0  0  0  0  0  0  0  0  0
   -5.4603   -1.7599   -3.4985 H   0  0  0  0  0  0  0  0  0  0  0  0
   -6.0408   -0.7933   -1.2879 H   0  0  0  0  0  0  0  0  0  0  0  0
   -4.2788   -0.0120    0.2269 H   0  0  0  0  0  0  0  0  0  0  0  0
  1  2  1  0
  2  3  1  0
  3  4  1  0
  4  5  1  0
  5  6  1  0
  6  7  1  0
  7  8  1  0
  8  9  1  0
  9 10  1  0
 10 11  1  0
 11 12  1  0
 12 13  1  0
  5 14  1  0
 14 15  1  0
 15 16  2  0
 16 17  1  0
 17 18  2  0
 18 19  1  0
 19 20  2  0
 14 21  1  0
 21 22  2  0
 22 23  1  0
 23 24  2  0
 24 25  1  0
 25 26  2  0
 14 27  1  0
 27 28  2  0
 27  3  1  0
 13  8  1  0
 20 15  1  0
 26 21  1  0
  1 29  1  0
  1 30  1  0
  1 31  1  0
  2 32  1  0
  2 33  1  0
  4 34  1  0
  4 35  1  0
  5 36  1  0
  6 37  1  0
  6 38  1  0
  7 39  1  0
  7 40  1  0
  9 41  1  0
  9 42  1  0
 10 43  1  0
 10 44  1  0
 12 45  1  0
 12 46  1  0
 13 47  1  0
 13 48  1  0
 16 49  1  0
 17 50  1  0
 18 51  1  0
 19 52  1  0
 20 53  1  0
 22 54  1  0
 23 55  1  0
 24 56  1  0
 25 57  1  0
 26 58  1  0
M  END
$$$$
OCNT-2328994
     RDKit          3D

 47 49  0  0  0  0  0  0  0  0999 V2000
   -3.6906   -1.2716   -2.7322 C   0  0  0  0  0  0  0  0  0  0  0  0
   -3.1321   -1.5666   -1.3423 C   0  0  0  0  0  0  0  0  0  0  0  0
   -3.7552   -0.7373   -0.2971 N   0  0  0  0  0  0  0  0  0  0  0  0
   -5.1209   -1.1956    0.0120 C   0  0  0  0  0  0  0  0  0  0  0  0
   -5.9584   -0.1026    0.6712 C   0  0  0  0  0  0  0  0  0  0  0  0
   -2.9267   -0.7144    0.9300 C   0  0  0  0  0  0  0  0  0  0  0  0
   -1.7241    0.2035    0.8317 C   0  0  0  0  0  0  0  0  0  0  0  0
   -0.4451   -0.3323    0.5880 C   0  0  0  0  0  0  0  0  0  0  0  0
    0.6896    0.4868    0.4921 C   0  0  0  0  0  0  0  0  0  0  0  0
    1.9463   -0.0897    0.1969 N   0  0  0  0  0  0  0  0  0  0  0  0
    3.2287    0.3545    0.6275 C   0  0  0  0  0  0  0  0  0  0  0  0
    3.3964    0.9545    1.8762 C   0  0  0  0  0  0  0  0  0  0  0  0
    4.6715    1.2939    2.2796 C   0  0  0  0  0  0  0  0  0  0  0  0
    5.7782    1.0645    1.5448 N   0  0  0  0  0  0  0  0  0  0  0  0
    5.6333    0.4693    0.3510 C   0  0  0  0  0  0  0  0  0  0  0  0
    6.7724    0.2232   -0.4008 C   0  0  0  0  0  0  0  0  0  0  0  0
    6.6969   -0.3912   -1.6487 C   0  0  0  0  0  0  0  0  0  0  0  0
    8.1343   -0.6789   -2.5499 Cl  0  0  0  0  0  0  0  0  0  0  0  0
    5.4690   -0.7709   -2.1726 C   0  0  0  0  0  0  0  0  0  0  0  0
    4.3115   -0.5332   -1.4339 C   0  0  0  0  0  0  0  0  0  0  0  0
    4.3739    0.0835   -0.1627 C   0  0  0  0  0  0  0  0  0  0  0  0
    0.5199    1.8722    0.5930 C   0  0  0  0  0  0  0  0  0  0  0  0
   -0.7384    2.4240    0.8429 C   0  0  0  0  0  0  0  0  0  0  0  0
   -1.8469    1.5898    0.9694 C   0  0  0  0  0  0  0  0  0  0  0  0
   -3.0716    2.1288    1.2445 O   0  0  0  0  0  0  0  0  0  0  0  0
   -4.7335   -1.5819   -2.8383 H   0  0  0  0  0  0  0  0  0  0  0  0
   -3.6219   -0.2034   -2.9642 H   0  0  0  0  0  0  0  0  0  0  0  0
   -3.1113   -1.8142   -3.4870 H   0  0  0  0  0  0  0  0  0  0  0  0
   -3.2333   -2.6348   -1.1127 H   0  0  0  0  0  0  0  0  0  0  0  0
   -2.0587   -1.3605   -1.4054 H   0  0  0  0  0  0  0  0  0  0  0  0
   -5.1044   -2.0941    0.6417 H   0  0  0  0  0  0  0  0  0  0  0  0
   -5.6543   -1.4721   -0.9033 H   0  0  0  0  0  0  0  0  0  0  0  0
   -5.5913    0.1626    1.6664 H   0  0  0  0  0  0  0  0  0  0  0  0
   -6.9923   -0.4455    0.7852 H   0  0  0  0  0  0  0  0  0  0  0  0
   -5.9735    0.8039    0.0567 H   0  0  0  0  0  0  0  0  0  0  0  0
   -3.5035   -0.3748    1.7985 H   0  0  0  0  0  0  0  0  0  0  0  0
   -2.6062   -1.7319    1.1943 H   0  0  0  0  0  0  0  0  0  0  0  0
   -0.3419   -1.4085    0.4715 H   0  0  0  0  0  0  0  0  0  0  0  0
    1.9143   -1.1059    0.2509 H   0  0  0  0  0  0  0  0  0  0  0  0
    2.5566    1.1418    2.5356 H   0  0  0  0  0  0  0  0  0  0  0  0
    4.8456    1.7664    3.2423 H   0  0  0  0  0  0  0  0  0  0  0  0
    7.7378    0.5205    0.0010 H   0  0  0  0  0  0  0  0  0  0  0  0
    5.4031   -1.2424   -3.1494 H   0  0  0  0  0  0  0  0  0  0  0  0
    3.3518   -0.8164   -1.8614 H   0  0  0  0  0  0  0  0  0  0  0  0
    1.3689    2.5388    0.4641 H   0  0  0  0  0  0  0  0  0  0  0  0
   -0.8327    3.5015    0.9340 H   0  0  0  0  0  0  0  0  0  0  0  0
   -3.0311    3.0867    1.0949 H   0  0  0  0  0  0  0  0  0  0  0  0
  1  2  1  0
  2  3  1  0
  3  4  1  0
  4  5  1  0
  3  6  1  0
  6  7  1  0
  7  8  1  0
  8  9  2  0
  9 10  1  0
 10 11  1  0
 11 12  2  0
 12 13  1  0
 13 14  2  0
 14 15  1  0
 15 16  2  0
 16 17  1  0
 17 18  1  0
 17 19  2  0
 19 20  1  0
 20 21  2  0
  9 22  1  0
 22 23  2  0
 23 24  1  0
 24 25  1  0
 24  7  2  0
 21 11  1  0
 21 15  1  0
  1 26  1  0
  1 27  1  0
  1 28  1  0
  2 29  1  0
  2 30  1  0
  4 31  1  0
  4 32  1  0
  5 33  1  0
  5 34  1  0
  5 35  1  0
  6 36  1  0
  6 37  1  0
  8 38  1  0
 10 39  1  0
 12 40  1  0
 13 41  1  0
 16 42  1  0
 19 43  1  0
 20 44  1  0
 22 45  1  0
 23 46  1  0
 25 47  1  0
M  END
$$$$
