OCNT-0018684
     RDKit          3D

 40 41  0  0  0  0  0  0  0  0999 V2000
   -5.6804   -0.1767    1.5231 C   0  0  0  0  0  0  0  0  0  0  0  0
   -4.5494    0.7410    1.0536 C   0  0  0  0  0  0  0  0  0  0  0  0
   -5.0898    1.7416    0.0297 C   0  0  0  0  0  0  0  0  0  0  0  0
   -3.4908   -0.1064    0.5002 N   0  0  0  0  0  0  0  0  0  0  0  0
   -2.1935    0.5736    0.3954 C   0  0  0  0  0  0  0  0  0  0  0  0
   -1.1901   -0.3244   -0.3489 C   0  0  0  0  0  0  0  0  0  0  0  0
   -1.6650   -0.5454   -1.6899 O   0  0  0  0  0  0  0  0  0  0  0  0
    0.1940    0.3299   -0.4086 C   0  0  0  0  0  0  0  0  0  0  0  0
    1.0810   -0.5963   -1.0646 O   0  0  0  0  0  0  0  0  0  0  0  0
    2.3801   -0.1563   -0.9680 C   0  0  0  0  0  0  0  0  0  0  0  0
    3.2602   -0.7605   -0.0444 C   0  0  0  0  0  0  0  0  0  0  0  0
    2.8710   -1.8044    0.8212 C   0  0  0  0  0  0  0  0  0  0  0  0
    3.7720   -2.3658    1.7274 C   0  0  0  0  0  0  0  0  0  0  0  0
    5.0791   -1.8956    1.7856 C   0  0  0  0  0  0  0  0  0  0  0  0
    5.4877   -0.8669    0.9357 C   0  0  0  0  0  0  0  0  0  0  0  0
    4.5942   -0.2928    0.0162 C   0  0  0  0  0  0  0  0  0  0  0  0
    5.0083    0.7357   -0.8476 C   0  0  0  0  0  0  0  0  0  0  0  0
    4.1266    1.2968   -1.7727 C   0  0  0  0  0  0  0  0  0  0  0  0
    2.8126    0.8462   -1.8391 C   0  0  0  0  0  0  0  0  0  0  0  0
   -6.4871    0.4068    1.9804 H   0  0  0  0  0  0  0  0  0  0  0  0
   -5.3221   -0.8895    2.2746 H   0  0  0  0  0  0  0  0  0  0  0  0
   -6.1088   -0.7481    0.6910 H   0  0  0  0  0  0  0  0  0  0  0  0
   -4.1754    1.2841    1.9306 H   0  0  0  0  0  0  0  0  0  0  0  0
   -5.9139    2.3221    0.4586 H   0  0  0  0  0  0  0  0  0  0  0  0
   -4.3222    2.4539   -0.2867 H   0  0  0  0  0  0  0  0  0  0  0  0
   -5.4700    1.2344   -0.8646 H   0  0  0  0  0  0  0  0  0  0  0  0
   -3.7471   -0.4376   -0.4349 H   0  0  0  0  0  0  0  0  0  0  0  0
   -2.3012    1.5116   -0.1598 H   0  0  0  0  0  0  0  0  0  0  0  0
   -1.8164    0.8021    1.3985 H   0  0  0  0  0  0  0  0  0  0  0  0
   -1.1179   -1.3076    0.1320 H   0  0  0  0  0  0  0  0  0  0  0  0
   -0.9575   -1.0492   -2.1358 H   0  0  0  0  0  0  0  0  0  0  0  0
    0.1433    1.2552   -0.9955 H   0  0  0  0  0  0  0  0  0  0  0  0
    0.5494    0.5498    0.6059 H   0  0  0  0  0  0  0  0  0  0  0  0
    1.8547   -2.1912    0.7865 H   0  0  0  0  0  0  0  0  0  0  0  0
    3.4520   -3.1708    2.3834 H   0  0  0  0  0  0  0  0  0  0  0  0
    5.7842   -2.3316    2.4884 H   0  0  0  0  0  0  0  0  0  0  0  0
    6.5164   -0.5176    0.9938 H   0  0  0  0  0  0  0  0  0  0  0  0
    6.0325    1.1016   -0.8124 H   0  0  0  0  0  0  0  0  0  0  0  0
    4.4686    2.0793   -2.4449 H   0  0  0  0  0  0  0  0  0  0  0  0
    2.1308    1.2693   -2.5709 H   0  0  0  0  0  0  0  0  0  0  0  0
  1  2  1  0
  2  3  1  0
  2  4  1  0
  4  5  1  0
  5  6  1  0
  6  7  1  0
  6  8  1  0
  8  9  1  0
  9 10  1  0
 10 11  1  0
 11 12  2  0
 12 13  1  0
 13 14  2  0
 14 15  1  0
 15 16  2  0
 16 17  1  0
 17 18  2  0
 18 19  1  0
 19 10  2  0
 16 11  1  0
  1 20  1  0
  1 21  1  0
  1 22  1  0
  2 23  1  0
  3 24  1  0
  3 25  1  0
  3 26  1  0
  4 27  1  0
  5 28  1  0
  5 29  1  0
  6 30  1  0
  7 31  1  0
  8 32  1  0
  8 33  1  0
 12 34  1  0
 13 35  1  0
 14 36  1  0
 15 37  1  0
 17 38  1  0
 18 39  1  0
 19 40  1  0
M  END
$$$$
OCNT-0020887
     RDKit          3D

 30 30  0  0  0  0  0  0  0  0999 V2000
    3.5838    1.6111   -0.0653 C   0  0  0  0  0  0  0  0  0  0  0  0
    2.9796    0.6081    0.8035 N   0  0  0  0  0  0  0  0  0  0  0  0
    1.7731   -0.0068    0.2091 C   0  0  0  0  0  0  0  0  0  0  0  0
    1.5063   -1.3189    0.9604 C   0  0  0  0  0  0  0  0  0  0  0  0
    0.5498    0.9382    0.2885 C   0  0  0  0  0  0  0  0  0  0  0  0
   -0.6465    0.4452   -0.5055 C   0  0  0  0  0  0  0  0  0  0  0  0
   -1.7449   -0.1835    0.1113 C   0  0  0  0  0  0  0  0  0  0  0  0
   -1.6709   -0.3248    1.4718 O   0  0  0  0  0  0  0  0  0  0  0  0
   -2.7602   -0.9582    2.1283 C   0  0  0  0  0  0  0  0  0  0  0  0
   -2.8160   -0.6231   -0.6748 C   0  0  0  0  0  0  0  0  0  0  0  0
   -2.8013   -0.4446   -2.0606 C   0  0  0  0  0  0  0  0  0  0  0  0
   -1.7173    0.1740   -2.6738 C   0  0  0  0  0  0  0  0  0  0  0  0
   -0.6456    0.6161   -1.9015 C   0  0  0  0  0  0  0  0  0  0  0  0
    4.5008    1.9846    0.4017 H   0  0  0  0  0  0  0  0  0  0  0  0
    3.8548    1.1894   -1.0386 H   0  0  0  0  0  0  0  0  0  0  0  0
    2.9290    2.4733   -0.2165 H   0  0  0  0  0  0  0  0  0  0  0  0
    3.6724   -0.1196    0.9803 H   0  0  0  0  0  0  0  0  0  0  0  0
    1.9825   -0.2700   -0.8359 H   0  0  0  0  0  0  0  0  0  0  0  0
    1.2605   -1.1366    2.0127 H   0  0  0  0  0  0  0  0  0  0  0  0
    0.6788   -1.8742    0.5079 H   0  0  0  0  0  0  0  0  0  0  0  0
    2.3826   -1.9768    0.9278 H   0  0  0  0  0  0  0  0  0  0  0  0
    0.2774    1.1195    1.3358 H   0  0  0  0  0  0  0  0  0  0  0  0
    0.8028    1.9293   -0.1086 H   0  0  0  0  0  0  0  0  0  0  0  0
   -2.8789   -1.9923    1.7885 H   0  0  0  0  0  0  0  0  0  0  0  0
   -3.6860   -0.3883    1.9977 H   0  0  0  0  0  0  0  0  0  0  0  0
   -2.5351   -0.9848    3.1989 H   0  0  0  0  0  0  0  0  0  0  0  0
   -3.6814   -1.1113   -0.2397 H   0  0  0  0  0  0  0  0  0  0  0  0
   -3.6396   -0.7899   -2.6602 H   0  0  0  0  0  0  0  0  0  0  0  0
   -1.7063    0.3137   -3.7515 H   0  0  0  0  0  0  0  0  0  0  0  0
    0.1959    1.1011   -2.3916 H   0  0  0  0  0  0  0  0  0  0  0  0
  1  2  1  0
  2  3  1  0
  3  4  1  0
  3  5  1  0
  5  6  1  0
  6  7  1  0
  7  8  1  0
  8  9  1  0
  7 10  2  0
 10 11  1  0
 11 12  2  0
 12 13  1  0
 13  6  2  0
  1 14  1  0
  1 15  1  0
  1 16  1  0
  2 17  1  0
  3 18  1  0
  4 19  1  0
  4 20  1  0
  4 21  1  0
  5 22  1  0
  5 23  1  0
  9 24  1  0
  9 25  1  0
  9 26  1  0
 10 27  1  0
 11 28  1  0
 12 29  1  0
 13 30  1  0
M  END
$$$$
OCNT-0021749
     RDKit          3D

 37 39  0  0  0  0  0  0  0  0999 V2000
   -0.0206   -0.1818    2.5460 O   0  0  0  0  0  0  0  0  0  0  0  0
   -0.0741   -0.3462    1.1096 S   0  0  0  0  0  0  0  0  0  0  0  0
   -0.4332   -1.6117    0.5069 O   0  0  0  0  0  0  0  0  0  0  0  0
    1.5198    0.1700    0.4871 C   0  0  0  0  0  0  0  0  0  0  0  0
    1.7196    1.5537    0.3309 C   0  0  0  0  0  0  0  0  0  0  0  0
    2.9120    2.0354   -0.1942 C   0  0  0  0  0  0  0  0  0  0  0  0
    3.9122    1.1405   -0.5589 C   0  0  0  0  0  0  0  0  0  0  0  0
    3.7411   -0.2442   -0.3839 C   0  0  0  0  0  0  0  0  0  0  0  0
    4.7591   -1.1368   -0.7308 C   0  0  0  0  0  0  0  0  0  0  0  0
    4.6967   -2.4770   -0.5808 N   0  0  0  0  0  0  0  0  0  0  0  0
    3.5636   -2.9613   -0.0449 C   0  0  0  0  0  0  0  0  0  0  0  0
    2.4891   -2.1691    0.3342 C   0  0  0  0  0  0  0  0  0  0  0  0
    2.5416   -0.7659    0.1562 C   0  0  0  0  0  0  0  0  0  0  0  0
   -1.1498    0.8135    0.4734 N   0  0  0  0  0  0  0  0  0  0  0  0
   -1.4159    0.7877   -0.9805 C   0  0  0  0  0  0  0  0  0  0  0  0
   -2.5574   -0.1350   -1.3969 C   0  0  0  0  0  0  0  0  0  0  0  0
   -3.9307    0.3759   -0.9692 C   0  0  0  0  0  0  0  0  0  0  0  0
   -4.3664    0.0321    0.3789 N   0  0  0  0  0  0  0  0  0  0  0  0
   -3.3554    0.0910    1.4406 C   0  0  0  0  0  0  0  0  0  0  0  0
   -2.3013    1.2017    1.3283 C   0  0  0  0  0  0  0  0  0  0  0  0
    0.9477    2.2634    0.6217 H   0  0  0  0  0  0  0  0  0  0  0  0
    3.0638    3.1050   -0.3175 H   0  0  0  0  0  0  0  0  0  0  0  0
    4.8412    1.5324   -0.9701 H   0  0  0  0  0  0  0  0  0  0  0  0
    5.6968   -0.7831   -1.1535 H   0  0  0  0  0  0  0  0  0  0  0  0
    3.5327   -4.0398    0.0836 H   0  0  0  0  0  0  0  0  0  0  0  0
    1.6336   -2.6697    0.7742 H   0  0  0  0  0  0  0  0  0  0  0  0
   -0.5063    0.4859   -1.5125 H   0  0  0  0  0  0  0  0  0  0  0  0
   -1.6160    1.8147   -1.3103 H   0  0  0  0  0  0  0  0  0  0  0  0
   -2.5506   -0.1843   -2.4936 H   0  0  0  0  0  0  0  0  0  0  0  0
   -2.4031   -1.1617   -1.0494 H   0  0  0  0  0  0  0  0  0  0  0  0
   -3.9860    1.4636   -1.0980 H   0  0  0  0  0  0  0  0  0  0  0  0
   -4.6794   -0.0331   -1.6590 H   0  0  0  0  0  0  0  0  0  0  0  0
   -4.7727   -0.9048    0.3795 H   0  0  0  0  0  0  0  0  0  0  0  0
   -3.9050    0.2422    2.3771 H   0  0  0  0  0  0  0  0  0  0  0  0
   -2.8760   -0.8899    1.5284 H   0  0  0  0  0  0  0  0  0  0  0  0
   -1.9279    1.4552    2.3275 H   0  0  0  0  0  0  0  0  0  0  0  0
   -2.7430    2.1314    0.9494 H   0  0  0  0  0  0  0  0  0  0  0  0
  1  2  2  0
  2  3  2  0
  2  4  1  0
  4  5  2  0
  5  6  1  0
  6  7  2  0
  7  8  1  0
  8  9  2  0
  9 10  1  0
 10 11  2  0
 11 12  1  0
 12 13  2  0
  2 14  1  0
 14 15  1  0
 15 16  1  0
 16 17  1  0
 17 18  1  0
 18 19  1  0
 19 20  1  0
 13  4  1  0
 20 14  1  0
 13  8  1  0
  5 21  1  0
  6 22  1  0
  7 23  1  0
  9 24  1  0
 11 25  1  0
 12 26  1  0
 15 27  1  0
 15 28  1  0
 16 29  1  0
 16 30  1  0
 17 31  1  0
 17 32  1  0
 18 33  1  0
 19 34  1  0
 19 35  1  0
 20 36  1  0
 20 37  1  0
M  END
$$$$
OCNT-0022006
     RDKit          3D

 61 65  0  0  0  0  0  0  0  0999 V2000
   -3.6780    1.0106    1.6902 O   0  0  0  0  0  0  0  0  0  0  0  0
   -3.2372    0.0937    0.9952 C   0  0  0  0  0  0  0  0  0  0  0  0
   -1.7642   -0.0393    0.7701 C   0  0  0  0  0  0  0  0  0  0  0  0
   -1.2174   -0.9557   -0.1362 C   0  0  0  0  0  0  0  0  0  0  0  0
    0.1693   -1.0350   -0.3013 C   0  0  0  0  0  0  0  0  0  0  0  0
    1.0270   -0.2051    0.4246 C   0  0  0  0  0  0  0  0  0  0  0  0
    2.3554   -0.3915    0.1635 O   0  0  0  0  0  0  0  0  0  0  0  0
    3.2839    0.4389    0.8698 C   0  0  0  0  0  0  0  0  0  0  0  0
    4.7032    0.0383    0.4326 C   0  0  0  0  0  0  0  0  0  0  0  0
    5.7781    0.7314    1.1666 N   0  0  0  0  0  0  0  0  0  0  0  0
    5.8734    2.1684    0.8664 C   0  0  0  0  0  0  0  0  0  0  0  0
    6.4183    2.4840   -0.5293 C   0  0  0  0  0  0  0  0  0  0  0  0
    7.7536    1.7896   -0.7751 C   0  0  0  0  0  0  0  0  0  0  0  0
    7.6678    0.3045   -0.4438 C   0  0  0  0  0  0  0  0  0  0  0  0
    7.0827    0.0808    0.9540 C   0  0  0  0  0  0  0  0  0  0  0  0
    0.4858    0.7136    1.3226 C   0  0  0  0  0  0  0  0  0  0  0  0
   -0.9020    0.7963    1.4934 C   0  0  0  0  0  0  0  0  0  0  0  0
   -4.1219   -0.8944    0.3865 C   0  0  0  0  0  0  0  0  0  0  0  0
   -4.8819   -0.6209   -0.7393 C   0  0  0  0  0  0  0  0  0  0  0  0
   -4.9591    0.6135   -1.5186 C   0  0  0  0  0  0  0  0  0  0  0  0
   -4.1600    0.7822   -2.6575 C   0  0  0  0  0  0  0  0  0  0  0  0
   -4.2236    1.9720   -3.3864 C   0  0  0  0  0  0  0  0  0  0  0  0
   -5.0824    2.9899   -2.9763 C   0  0  0  0  0  0  0  0  0  0  0  0
   -5.1131    4.1349   -3.7166 O   0  0  0  0  0  0  0  0  0  0  0  0
   -5.8848    2.8380   -1.8488 C   0  0  0  0  0  0  0  0  0  0  0  0
   -5.8200    1.6484   -1.1179 C   0  0  0  0  0  0  0  0  0  0  0  0
   -5.8077   -1.9673   -1.2293 S   0  0  0  0  0  0  0  0  0  0  0  0
   -5.2216   -2.9450    0.0621 C   0  0  0  0  0  0  0  0  0  0  0  0
   -5.5653   -4.2845    0.3306 C   0  0  0  0  0  0  0  0  0  0  0  0
   -4.9858   -4.9165    1.4298 C   0  0  0  0  0  0  0  0  0  0  0  0
   -5.3369   -6.2152    1.6641 O   0  0  0  0  0  0  0  0  0  0  0  0
   -4.0889   -4.2561    2.2529 C   0  0  0  0  0  0  0  0  0  0  0  0
   -3.7528   -2.9246    1.9812 C   0  0  0  0  0  0  0  0  0  0  0  0
   -4.3183   -2.2441    0.8679 C   0  0  0  0  0  0  0  0  0  0  0  0
   -1.8428   -1.6168   -0.7307 H   0  0  0  0  0  0  0  0  0  0  0  0
    0.5860   -1.7511   -1.0062 H   0  0  0  0  0  0  0  0  0  0  0  0
    3.0920    1.4880    0.6203 H   0  0  0  0  0  0  0  0  0  0  0  0
    3.1799    0.2809    1.9502 H   0  0  0  0  0  0  0  0  0  0  0  0
    4.7896   -1.0437    0.6070 H   0  0  0  0  0  0  0  0  0  0  0  0
    4.7942    0.1605   -0.6538 H   0  0  0  0  0  0  0  0  0  0  0  0
    4.9072    2.6654    1.0050 H   0  0  0  0  0  0  0  0  0  0  0  0
    6.5347    2.6278    1.6140 H   0  0  0  0  0  0  0  0  0  0  0  0
    6.5470    3.5669   -0.6345 H   0  0  0  0  0  0  0  0  0  0  0  0
    5.6968    2.1791   -1.2946 H   0  0  0  0  0  0  0  0  0  0  0  0
    8.5244    2.2561   -0.1496 H   0  0  0  0  0  0  0  0  0  0  0  0
    8.0617    1.9251   -1.8176 H   0  0  0  0  0  0  0  0  0  0  0  0
    8.6675   -0.1414   -0.4980 H   0  0  0  0  0  0  0  0  0  0  0  0
    7.0555   -0.2066   -1.1961 H   0  0  0  0  0  0  0  0  0  0  0  0
    7.7882    0.4690    1.7020 H   0  0  0  0  0  0  0  0  0  0  0  0
    7.0097   -0.9955    1.1574 H   0  0  0  0  0  0  0  0  0  0  0  0
    1.1111    1.3822    1.9059 H   0  0  0  0  0  0  0  0  0  0  0  0
   -1.3060    1.5219    2.1979 H   0  0  0  0  0  0  0  0  0  0  0  0
   -3.4825   -0.0083   -2.9835 H   0  0  0  0  0  0  0  0  0  0  0  0
   -3.6060    2.1038   -4.2706 H   0  0  0  0  0  0  0  0  0  0  0  0
   -5.7355    4.7542   -3.3022 H   0  0  0  0  0  0  0  0  0  0  0  0
   -6.5668    3.6217   -1.5258 H   0  0  0  0  0  0  0  0  0  0  0  0
   -6.4404    1.5316   -0.2308 H   0  0  0  0  0  0  0  0  0  0  0  0
   -6.2693   -4.8167   -0.3033 H   0  0  0  0  0  0  0  0  0  0  0  0
   -4.8809   -6.5275    2.4640 H   0  0  0  0  0  0  0  0  0  0  0  0
   -3.6387   -4.7504    3.1107 H   0  0  0  0  0  0  0  0  0  0  0  0
   -3.0524   -2.4099    2.6373 H   0  0  0  0  0  0  0  0  0  0  0  0
  1  2  2  0
  2  3  1  0
  3  4  1  0
  4  5  2  0
  5  6  1  0
  6  7  1  0
  7  8  1  0
  8  9  1  0
  9 10  1  0
 10 11  1  0
 11 12  1  0
 12 13  1  0
 13 14  1  0
 14 15  1  0
  6 16  2  0
 16 17  1  0
  2 18  1  0
 18 19  2  0
 19 20  1  0
 20 21  1  0
 21 22  2  0
 22 23  1  0
 23 24  1  0
 23 25  2  0
 25 26  1  0
 19 27  1  0
 27 28  1  0
 28 29  2  0
 29 30  1  0
 30 31  1  0
 30 32  2  0
 32 33  1  0
 33 34  2  0
 17  3  2  0
 34 18  1  0
 15 10  1  0
 26 20  2  0
 34 28  1  0
  4 35  1  0
  5 36  1  0
  8 37  1  0
  8 38  1  0
  9 39  1  0
  9 40  1  0
 11 41  1  0
 11 42  1  0
 12 43  1  0
 12 44  1  0
 13 45  1  0
 13 46  1  0
 14 47  1  0
 14 48  1  0
 15 49  1  0
 15 50  1  0
 16 51  1  0
 17 52  1  0
 21 53  1  0
 22 54  1  0
 24 55  1  0
 25 56  1  0
 26 57  1  0
 29 58  1  0
 31 59  1  0
 32 60  1  0
 33 61  1  0
M  END
$$$$
OCNT-0022012
     RDKit          3D

 53 55  0  0  0  0  0  0  0  0999 V2000
   -1.5511    0.0599    2.3559 O   0  0  0  0  0  0  0  0  0  0  0  0
   -1.0893    0.2544    0.9846 C   0  0  0  0  0  0  0  0  0  0  0  0
    0.4391   -0.0609    1.0769 C   0  0  0  0  0  0  0  0  0  0  0  0
    1.3595    0.3780   -0.0711 C   0  0  0  0  0  0  0  0  0  0  0  0
    2.7533   -0.0670    0.1196 N   0  0  0  0  0  0  0  0  0  0  0  0
    2.8914   -1.5339    0.0644 C   0  0  0  0  0  0  0  0  0  0  0  0
    4.2707   -2.0229   -0.3999 C   0  0  0  0  0  0  0  0  0  0  0  0
    5.3738   -1.0830    0.0599 C   0  0  0  0  0  0  0  0  0  0  0  0
    5.1189    0.3424   -0.4323 C   0  0  0  0  0  0  0  0  0  0  0  0
    3.6583    0.5971   -0.8221 C   0  0  0  0  0  0  0  0  0  0  0  0
   -1.4138    1.7046    0.5876 C   0  0  0  0  0  0  0  0  0  0  0  0
   -2.0118    2.6021    1.4957 C   0  0  0  0  0  0  0  0  0  0  0  0
   -2.3178    3.9194    1.1367 C   0  0  0  0  0  0  0  0  0  0  0  0
   -2.0417    4.3753   -0.1459 C   0  0  0  0  0  0  0  0  0  0  0  0
   -1.4678    3.5108   -1.0694 C   0  0  0  0  0  0  0  0  0  0  0  0
   -1.1641    2.1935   -0.7072 C   0  0  0  0  0  0  0  0  0  0  0  0
   -1.9135   -0.8452    0.2088 C   0  0  0  0  0  0  0  0  0  0  0  0
   -3.4279   -0.5210    0.1657 C   0  0  0  0  0  0  0  0  0  0  0  0
   -4.2442   -1.6584   -0.4448 C   0  0  0  0  0  0  0  0  0  0  0  0
   -3.7352   -2.0294   -1.8314 C   0  0  0  0  0  0  0  0  0  0  0  0
   -2.2516   -2.3716   -1.7997 C   0  0  0  0  0  0  0  0  0  0  0  0
   -1.4167   -1.2423   -1.1910 C   0  0  0  0  0  0  0  0  0  0  0  0
   -0.9695    0.5795    2.9363 H   0  0  0  0  0  0  0  0  0  0  0  0
    0.8408    0.4031    1.9902 H   0  0  0  0  0  0  0  0  0  0  0  0
    0.5361   -1.1397    1.2554 H   0  0  0  0  0  0  0  0  0  0  0  0
    0.9951    0.0437   -1.0456 H   0  0  0  0  0  0  0  0  0  0  0  0
    1.3647    1.4738   -0.0845 H   0  0  0  0  0  0  0  0  0  0  0  0
    2.7061   -1.9292    1.0702 H   0  0  0  0  0  0  0  0  0  0  0  0
    2.1423   -1.9829   -0.6003 H   0  0  0  0  0  0  0  0  0  0  0  0
    4.2876   -2.0891   -1.4954 H   0  0  0  0  0  0  0  0  0  0  0  0
    4.4521   -3.0342   -0.0187 H   0  0  0  0  0  0  0  0  0  0  0  0
    6.3507   -1.4332   -0.2914 H   0  0  0  0  0  0  0  0  0  0  0  0
    5.4157   -1.0859    1.1565 H   0  0  0  0  0  0  0  0  0  0  0  0
    5.4272    1.0458    0.3513 H   0  0  0  0  0  0  0  0  0  0  0  0
    5.7540    0.5502   -1.3019 H   0  0  0  0  0  0  0  0  0  0  0  0
    3.4987    1.6825   -0.8191 H   0  0  0  0  0  0  0  0  0  0  0  0
    3.4713    0.2538   -1.8481 H   0  0  0  0  0  0  0  0  0  0  0  0
   -2.2769    2.2880    2.5027 H   0  0  0  0  0  0  0  0  0  0  0  0
   -2.7812    4.5833    1.8620 H   0  0  0  0  0  0  0  0  0  0  0  0
   -2.2811    5.3970   -0.4267 H   0  0  0  0  0  0  0  0  0  0  0  0
   -1.2570    3.8574   -2.0780 H   0  0  0  0  0  0  0  0  0  0  0  0
   -0.7215    1.5629   -1.4706 H   0  0  0  0  0  0  0  0  0  0  0  0
   -1.8297   -1.7606    0.8174 H   0  0  0  0  0  0  0  0  0  0  0  0
   -3.8061   -0.3240    1.1755 H   0  0  0  0  0  0  0  0  0  0  0  0
   -3.6037    0.3858   -0.4252 H   0  0  0  0  0  0  0  0  0  0  0  0
   -5.2977   -1.3627   -0.5064 H   0  0  0  0  0  0  0  0  0  0  0  0
   -4.1969   -2.5360    0.2116 H   0  0  0  0  0  0  0  0  0  0  0  0
   -4.3034   -2.8830   -2.2176 H   0  0  0  0  0  0  0  0  0  0  0  0
   -3.9044   -1.1933   -2.5209 H   0  0  0  0  0  0  0  0  0  0  0  0
   -2.1006   -3.2896   -1.2181 H   0  0  0  0  0  0  0  0  0  0  0  0
   -1.9001   -2.5792   -2.8168 H   0  0  0  0  0  0  0  0  0  0  0  0
   -0.3832   -1.5954   -1.1403 H   0  0  0  0  0  0  0  0  0  0  0  0
   -1.4479   -0.3903   -1.8742 H   0  0  0  0  0  0  0  0  0  0  0  0
  1  2  1  0
  2  3  1  0
  3  4  1  0
  4  5  1  0
  5  6  1  0
  6  7  1  0
  7  8  1  0
  8  9  1  0
  9 10  1  0
  2 11  1  0
 11 12  2  0
 12 13  1  0
 13 14  2  0
 14 15  1  0
 15 16  2  0
  2 17  1  0
 17 18  1  0
 18 19  1  0
 19 20  1  0
 20 21  1  0
 21 22  1  0
 10  5  1  0
 16 11  1  0
 22 17  1  0
  1 23  1  0
  3 24  1  0
  3 25  1  0
  4 26  1  0
  4 27  1  0
  6 28  1  0
  6 29  1  0
  7 30  1  0
  7 31  1  0
  8 32  1  0
  8 33  1  0
  9 34  1  0
  9 35  1  0
 10 36  1  0
 10 37  1  0
 12 38  1  0
 13 39  1  0
 14 40  1  0
 15 41  1  0
 16 42  1  0
 17 43  1  0
 18 44  1  0
 18 45  1  0
 19 46  1  0
 19 47  1  0
 20 48  1  0
 20 49  1  0
 21 50  1  0
 21 51  1  0
 22 52  1  0
 22 53  1  0
M  END
$$$$
OCNT-0022107
     RDKit          3D

 65 68  0  0  0  0  0  0  0  0999 V2000
   -4.9174   -1.2867    2.3826 C   0  0  0  0  0  0  0  0  0  0  0  0
   -4.3303    0.0911    2.6255 C   0  0  0  0  0  0  0  0  0  0  0  0
   -3.1026    0.3016    1.7872 C   0  0  0  0  0  0  0  0  0  0  0  0
   -1.9059    0.0718    2.2493 N   0  0  0  0  0  0  0  0  0  0  0  0
   -1.0810    0.3797    1.1972 N   0  0  0  0  0  0  0  0  0  0  0  0
    0.3504    0.1883    1.2433 C   0  0  0  0  0  0  0  0  0  0  0  0
    0.7289   -1.2699    1.0090 C   0  0  0  0  0  0  0  0  0  0  0  0
    2.2199   -1.5773    1.1957 C   0  0  0  0  0  0  0  0  0  0  0  0
    3.0594   -0.9598    0.1632 N   0  0  0  0  0  0  0  0  0  0  0  0
    4.1441   -1.8687   -0.2629 C   0  0  0  0  0  0  0  0  0  0  0  0
    5.2643   -1.1664   -1.0624 C   0  0  0  0  0  0  0  0  0  0  0  0
    5.9179   -0.1318   -0.2446 N   0  0  0  0  0  0  0  0  0  0  0  0
    7.2139    0.2845   -0.4980 C   0  0  0  0  0  0  0  0  0  0  0  0
    7.8339    0.0602   -1.7408 C   0  0  0  0  0  0  0  0  0  0  0  0
    9.1435    0.4780   -2.0094 C   0  0  0  0  0  0  0  0  0  0  0  0
    9.8749    1.1390   -1.0311 C   0  0  0  0  0  0  0  0  0  0  0  0
    9.2895    1.3739    0.2062 C   0  0  0  0  0  0  0  0  0  0  0  0
   10.1887    2.1867    1.4290 Cl  0  0  0  0  0  0  0  0  0  0  0  0
    7.9814    0.9533    0.4694 C   0  0  0  0  0  0  0  0  0  0  0  0
    5.1173    0.4311    0.8542 C   0  0  0  0  0  0  0  0  0  0  0  0
    3.6001    0.3645    0.5443 C   0  0  0  0  0  0  0  0  0  0  0  0
   -1.8327    0.7620    0.0885 C   0  0  0  0  0  0  0  0  0  0  0  0
   -1.4274    1.0727   -1.0195 O   0  0  0  0  0  0  0  0  0  0  0  0
   -3.1433    0.7047    0.5036 N   0  0  0  0  0  0  0  0  0  0  0  0
   -4.2611    1.0675   -0.3508 C   0  0  0  0  0  0  0  0  0  0  0  0
   -4.5106    0.0507   -1.4696 C   0  0  0  0  0  0  0  0  0  0  0  0
   -5.5156    0.5166   -2.3744 O   0  0  0  0  0  0  0  0  0  0  0  0
   -6.8233    0.4625   -1.9856 C   0  0  0  0  0  0  0  0  0  0  0  0
   -7.6747    1.3242   -2.6829 C   0  0  0  0  0  0  0  0  0  0  0  0
   -9.0376    1.3717   -2.3867 C   0  0  0  0  0  0  0  0  0  0  0  0
   -9.5603    0.5468   -1.3943 C   0  0  0  0  0  0  0  0  0  0  0  0
   -8.7202   -0.3274   -0.7068 C   0  0  0  0  0  0  0  0  0  0  0  0
   -7.3541   -0.3739   -1.0046 C   0  0  0  0  0  0  0  0  0  0  0  0
   -4.1843   -2.0689    2.6052 H   0  0  0  0  0  0  0  0  0  0  0  0
   -5.7911   -1.4465    3.0209 H   0  0  0  0  0  0  0  0  0  0  0  0
   -5.2247   -1.4118    1.3419 H   0  0  0  0  0  0  0  0  0  0  0  0
   -5.0720    0.8644    2.4078 H   0  0  0  0  0  0  0  0  0  0  0  0
   -4.0543    0.1919    3.6811 H   0  0  0  0  0  0  0  0  0  0  0  0
    0.7002    0.5306    2.2236 H   0  0  0  0  0  0  0  0  0  0  0  0
    0.7962    0.8264    0.4732 H   0  0  0  0  0  0  0  0  0  0  0  0
    0.1625   -1.9031    1.7054 H   0  0  0  0  0  0  0  0  0  0  0  0
    0.4106   -1.5741    0.0026 H   0  0  0  0  0  0  0  0  0  0  0  0
    2.5555   -1.3090    2.2052 H   0  0  0  0  0  0  0  0  0  0  0  0
    2.3060   -2.6705    1.1362 H   0  0  0  0  0  0  0  0  0  0  0  0
    4.6019   -2.3485    0.6138 H   0  0  0  0  0  0  0  0  0  0  0  0
    3.7150   -2.6640   -0.8837 H   0  0  0  0  0  0  0  0  0  0  0  0
    4.8512   -0.7138   -1.9718 H   0  0  0  0  0  0  0  0  0  0  0  0
    5.9843   -1.9382   -1.3591 H   0  0  0  0  0  0  0  0  0  0  0  0
    7.2927   -0.4309   -2.5452 H   0  0  0  0  0  0  0  0  0  0  0  0
    9.5833    0.2903   -2.9856 H   0  0  0  0  0  0  0  0  0  0  0  0
   10.8899    1.4647   -1.2370 H   0  0  0  0  0  0  0  0  0  0  0  0
    7.5753    1.1389    1.4593 H   0  0  0  0  0  0  0  0  0  0  0  0
    5.3651    1.4864    1.0190 H   0  0  0  0  0  0  0  0  0  0  0  0
    5.3321   -0.1169    1.7795 H   0  0  0  0  0  0  0  0  0  0  0  0
    3.0567    0.7976    1.3915 H   0  0  0  0  0  0  0  0  0  0  0  0
    3.4055    1.0324   -0.3051 H   0  0  0  0  0  0  0  0  0  0  0  0
   -5.1631    1.1975    0.2528 H   0  0  0  0  0  0  0  0  0  0  0  0
   -4.0390    2.0442   -0.7981 H   0  0  0  0  0  0  0  0  0  0  0  0
   -3.5997   -0.0614   -2.0675 H   0  0  0  0  0  0  0  0  0  0  0  0
   -4.7268   -0.9514   -1.0868 H   0  0  0  0  0  0  0  0  0  0  0  0
   -7.2720    1.9683   -3.4610 H   0  0  0  0  0  0  0  0  0  0  0  0
   -9.6883    2.0491   -2.9330 H   0  0  0  0  0  0  0  0  0  0  0  0
  -10.6226    0.5776   -1.1643 H   0  0  0  0  0  0  0  0  0  0  0  0
   -9.1320   -0.9830    0.0572 H   0  0  0  0  0  0  0  0  0  0  0  0
   -6.7442   -1.0894   -0.4673 H   0  0  0  0  0  0  0  0  0  0  0  0
  1  2  1  0
  2  3  1  0
  3  4  2  0
  4  5  1  0
  5  6  1  0
  6  7  1  0
  7  8  1  0
  8  9  1  0
  9 10  1  0
 10 11  1  0
 11 12  1  0
 12 13  1  0
 13 14  2  0
 14 15  1  0
 15 16  2  0
 16 17  1  0
 17 18  1  0
 17 19  2  0
 12 20  1  0
 20 21  1  0
  5 22  1  0
 22 23  2  0
 22 24  1  0
 24 25  1  0
 25 26  1  0
 26 27  1  0
 27 28  1  0
 28 29  2  0
 29 30  1  0
 30 31  2  0
 31 32  1  0
 32 33  2  0
 24  3  1  0
 33 28  1  0
 21  9  1  0
 19 13  1  0
  1 34  1  0
  1 35  1  0
  1 36  1  0
  2 37  1  0
  2 38  1  0
  6 39  1  0
  6 40  1  0
  7 41  1  0
  7 42  1  0
  8 43  1  0
  8 44  1  0
 10 45  1  0
 10 46  1  0
 11 47  1  0
 11 48  1  0
 14 49  1  0
 15 50  1  0
 16 51  1  0
 19 52  1  0
 20 53  1  0
 20 54  1  0
 21 55  1  0
 21 56  1  0
 25 57  1  0
 25 58  1  0
 26 59  1  0
 26 60  1  0
 29 61  1  0
 30 62  1  0
 31 63  1  0
 32 64  1  0
 33 65  1  0
M  END
$$$$
OCNT-0022119
     RDKit          3D

 53 56  0  0  0  0  0  0  0  0999 V2000
   -5.8960    2.0193    1.7162 O   0  0  0  0  0  0  0  0  0  0  0  0
   -5.4078    1.0377    2.6291 C   0  0  0  0  0  0  0  0  0  0  0  0
   -4.7906   -0.1343    1.8510 C   0  0  0  0  0  0  0  0  0  0  0  0
   -3.8308    0.3279    0.8233 N   0  0  0  0  0  0  0  0  0  0  0  0
   -2.5811    0.8383    1.4320 C   0  0  0  0  0  0  0  0  0  0  0  0
   -1.5275    1.2305    0.3711 C   0  0  0  0  0  0  0  0  0  0  0  0
   -1.1930    0.1066   -0.5272 N   0  0  0  0  0  0  0  0  0  0  0  0
   -0.2006    0.5325   -1.5255 C   0  0  0  0  0  0  0  0  0  0  0  0
    0.5026   -0.6376   -2.2238 C   0  0  0  0  0  0  0  0  0  0  0  0
    1.2241   -1.6067   -1.2721 C   0  0  0  0  0  0  0  0  0  0  0  0
    2.4112   -1.0080   -0.6040 N   0  0  0  0  0  0  0  0  0  0  0  0
    2.1980   -0.4952    0.7047 C   0  0  0  0  0  0  0  0  0  0  0  0
    2.7780    0.7157    1.1312 C   0  0  0  0  0  0  0  0  0  0  0  0
    2.5568    1.1974    2.4338 C   0  0  0  0  0  0  0  0  0  0  0  0
    1.7832    0.4769    3.3393 C   0  0  0  0  0  0  0  0  0  0  0  0
    1.2337   -0.7361    2.9514 C   0  0  0  0  0  0  0  0  0  0  0  0
    1.4469   -1.2166    1.6553 C   0  0  0  0  0  0  0  0  0  0  0  0
    3.7755    1.7339    0.0628 S   0  0  0  0  0  0  0  0  0  0  0  0
    4.1891    0.5896   -1.2376 C   0  0  0  0  0  0  0  0  0  0  0  0
    5.2469    0.9594   -2.0871 C   0  0  0  0  0  0  0  0  0  0  0  0
    5.6260    0.1427   -3.1493 C   0  0  0  0  0  0  0  0  0  0  0  0
    4.9494   -1.0497   -3.3605 C   0  0  0  0  0  0  0  0  0  0  0  0
    5.4187   -2.0783   -4.6584 Cl  0  0  0  0  0  0  0  0  0  0  0  0
    3.8946   -1.4249   -2.5258 C   0  0  0  0  0  0  0  0  0  0  0  0
    3.4770   -0.6080   -1.4553 C   0  0  0  0  0  0  0  0  0  0  0  0
   -2.4343   -0.3969   -1.1451 C   0  0  0  0  0  0  0  0  0  0  0  0
   -3.4899   -0.7897   -0.0850 C   0  0  0  0  0  0  0  0  0  0  0  0
   -5.2752    1.9822    0.9594 H   0  0  0  0  0  0  0  0  0  0  0  0
   -4.6781    1.5142    3.2902 H   0  0  0  0  0  0  0  0  0  0  0  0
   -6.2457    0.6917    3.2417 H   0  0  0  0  0  0  0  0  0  0  0  0
   -4.3372   -0.8551    2.5419 H   0  0  0  0  0  0  0  0  0  0  0  0
   -5.6175   -0.6437    1.3394 H   0  0  0  0  0  0  0  0  0  0  0  0
   -2.1474    0.0875    2.1063 H   0  0  0  0  0  0  0  0  0  0  0  0
   -2.7940    1.7314    2.0294 H   0  0  0  0  0  0  0  0  0  0  0  0
   -1.8991    2.0876   -0.2069 H   0  0  0  0  0  0  0  0  0  0  0  0
   -0.6250    1.5600    0.9000 H   0  0  0  0  0  0  0  0  0  0  0  0
    0.5703    1.1473   -1.0469 H   0  0  0  0  0  0  0  0  0  0  0  0
   -0.6674    1.1774   -2.2815 H   0  0  0  0  0  0  0  0  0  0  0  0
   -0.2298   -1.2093   -2.8063 H   0  0  0  0  0  0  0  0  0  0  0  0
    1.2055   -0.2281   -2.9586 H   0  0  0  0  0  0  0  0  0  0  0  0
    1.5292   -2.4927   -1.8404 H   0  0  0  0  0  0  0  0  0  0  0  0
    0.4929   -2.0085   -0.5645 H   0  0  0  0  0  0  0  0  0  0  0  0
    2.9945    2.1416    2.7508 H   0  0  0  0  0  0  0  0  0  0  0  0
    1.6247    0.8557    4.3452 H   0  0  0  0  0  0  0  0  0  0  0  0
    0.6475   -1.3209    3.6553 H   0  0  0  0  0  0  0  0  0  0  0  0
    1.0360   -2.1921    1.4124 H   0  0  0  0  0  0  0  0  0  0  0  0
    5.7833    1.8919   -1.9224 H   0  0  0  0  0  0  0  0  0  0  0  0
    6.4471    0.4392   -3.7957 H   0  0  0  0  0  0  0  0  0  0  0  0
    3.4222   -2.3853   -2.7049 H   0  0  0  0  0  0  0  0  0  0  0  0
   -2.2207   -1.2886   -1.7445 H   0  0  0  0  0  0  0  0  0  0  0  0
   -2.8650    0.3561   -1.8186 H   0  0  0  0  0  0  0  0  0  0  0  0
   -4.3938   -1.1164   -0.6135 H   0  0  0  0  0  0  0  0  0  0  0  0
   -3.1172   -1.6497    0.4883 H   0  0  0  0  0  0  0  0  0  0  0  0
  1  2  1  0
  2  3  1  0
  3  4  1  0
  4  5  1  0
  5  6  1  0
  6  7  1  0
  7  8  1  0
  8  9  1  0
  9 10  1  0
 10 11  1  0
 11 12  1  0
 12 13  1  0
 13 14  2  0
 14 15  1  0
 15 16  2  0
 16 17  1  0
 13 18  1  0
 18 19  1  0
 19 20  1  0
 20 21  2  0
 21 22  1  0
 22 23  1  0
 22 24  2  0
 24 25  1  0
  7 26  1  0
 26 27  1  0
 27  4  1  0
 25 11  1  0
 17 12  2  0
 25 19  2  0
  1 28  1  0
  2 29  1  0
  2 30  1  0
  3 31  1  0
  3 32  1  0
  5 33  1  0
  5 34  1  0
  6 35  1  0
  6 36  1  0
  8 37  1  0
  8 38  1  0
  9 39  1  0
  9 40  1  0
 10 41  1  0
 10 42  1  0
 14 43  1  0
 15 44  1  0
 16 45  1  0
 17 46  1  0
 20 47  1  0
 21 48  1  0
 24 49  1  0
 26 50  1  0
 26 51  1  0
 27 52  1  0
 27 53  1  0
M  END
$$$$
OCNT-0022126
     RDKit          3D

 58 61  0  0  0  0  0  0  0  0999 V2000
    5.6741    2.1748    3.4505 C   0  0  0  0  0  0  0  0  0  0  0  0
    4.6706    1.6078    2.6197 O   0  0  0  0  0  0  0  0  0  0  0  0
    5.0799    0.8989    1.5164 C   0  0  0  0  0  0  0  0  0  0  0  0
    4.0552    0.3370    0.7274 C   0  0  0  0  0  0  0  0  0  0  0  0
    2.7738    0.5753    1.1531 O   0  0  0  0  0  0  0  0  0  0  0  0
    1.6766   -0.0630    0.4979 C   0  0  0  0  0  0  0  0  0  0  0  0
    1.1675    0.8088   -0.6487 C   0  0  0  0  0  0  0  0  0  0  0  0
    0.0743    0.1282   -1.4793 C   0  0  0  0  0  0  0  0  0  0  0  0
   -1.0821   -0.3316   -0.7011 N   0  0  0  0  0  0  0  0  0  0  0  0
   -1.9063    0.7587   -0.1547 C   0  0  0  0  0  0  0  0  0  0  0  0
   -3.1829    1.0198   -0.9530 C   0  0  0  0  0  0  0  0  0  0  0  0
   -4.0751   -0.2325   -1.0294 C   0  0  0  0  0  0  0  0  0  0  0  0
   -5.2230   -0.1959   -0.0611 C   0  0  0  0  0  0  0  0  0  0  0  0
   -5.0088    0.0108    1.2469 N   0  0  0  0  0  0  0  0  0  0  0  0
   -6.2553   -0.0233    1.8465 O   0  0  0  0  0  0  0  0  0  0  0  0
   -7.2086   -0.2450    0.9043 C   0  0  0  0  0  0  0  0  0  0  0  0
   -6.6070   -0.3636   -0.3374 C   0  0  0  0  0  0  0  0  0  0  0  0
   -7.4171   -0.5986   -1.4635 C   0  0  0  0  0  0  0  0  0  0  0  0
   -8.8029   -0.6999   -1.2736 C   0  0  0  0  0  0  0  0  0  0  0  0
   -9.3573   -0.5723   -0.0003 C   0  0  0  0  0  0  0  0  0  0  0  0
  -10.6860   -0.6744    0.1392 F   0  0  0  0  0  0  0  0  0  0  0  0
   -8.5771   -0.3414    1.1304 C   0  0  0  0  0  0  0  0  0  0  0  0
   -3.2562   -1.5260   -0.8840 C   0  0  0  0  0  0  0  0  0  0  0  0
   -1.8521   -1.3357   -1.4493 C   0  0  0  0  0  0  0  0  0  0  0  0
    4.3920   -0.3918   -0.4172 C   0  0  0  0  0  0  0  0  0  0  0  0
    5.7317   -0.5728   -0.7779 C   0  0  0  0  0  0  0  0  0  0  0  0
    6.7502   -0.0219    0.0036 C   0  0  0  0  0  0  0  0  0  0  0  0
    8.1945   -0.1825   -0.3431 C   0  0  0  0  0  0  0  0  0  0  0  0
    8.5711   -1.0112   -1.5431 C   0  0  0  0  0  0  0  0  0  0  0  0
    9.0540    0.3624    0.3465 O   0  0  0  0  0  0  0  0  0  0  0  0
    6.4181    0.7145    1.1495 C   0  0  0  0  0  0  0  0  0  0  0  0
    5.1731    2.6913    4.2747 H   0  0  0  0  0  0  0  0  0  0  0  0
    6.2657    2.9166    2.9046 H   0  0  0  0  0  0  0  0  0  0  0  0
    6.3126    1.3989    3.8844 H   0  0  0  0  0  0  0  0  0  0  0  0
    0.8889   -0.1587    1.2539 H   0  0  0  0  0  0  0  0  0  0  0  0
    1.9169   -1.0858    0.1872 H   0  0  0  0  0  0  0  0  0  0  0  0
    0.8249    1.7694   -0.2464 H   0  0  0  0  0  0  0  0  0  0  0  0
    1.9982    1.0672   -1.3167 H   0  0  0  0  0  0  0  0  0  0  0  0
   -0.2480    0.8036   -2.2826 H   0  0  0  0  0  0  0  0  0  0  0  0
    0.5433   -0.7358   -1.9703 H   0  0  0  0  0  0  0  0  0  0  0  0
   -1.3453    1.6951   -0.0690 H   0  0  0  0  0  0  0  0  0  0  0  0
   -2.1747    0.4884    0.8739 H   0  0  0  0  0  0  0  0  0  0  0  0
   -2.9006    1.3195   -1.9718 H   0  0  0  0  0  0  0  0  0  0  0  0
   -3.7239    1.8736   -0.5267 H   0  0  0  0  0  0  0  0  0  0  0  0
   -4.5080   -0.2320   -2.0401 H   0  0  0  0  0  0  0  0  0  0  0  0
   -6.9899   -0.6988   -2.4564 H   0  0  0  0  0  0  0  0  0  0  0  0
   -9.4597   -0.8789   -2.1210 H   0  0  0  0  0  0  0  0  0  0  0  0
   -9.0090   -0.2435    2.1168 H   0  0  0  0  0  0  0  0  0  0  0  0
   -3.7643   -2.3433   -1.4110 H   0  0  0  0  0  0  0  0  0  0  0  0
   -3.1849   -1.8403    0.1659 H   0  0  0  0  0  0  0  0  0  0  0  0
   -1.3174   -2.2919   -1.4105 H   0  0  0  0  0  0  0  0  0  0  0  0
   -1.9366   -1.0564   -2.5084 H   0  0  0  0  0  0  0  0  0  0  0  0
    3.6341   -0.8256   -1.0607 H   0  0  0  0  0  0  0  0  0  0  0  0
    5.9474   -1.1431   -1.6769 H   0  0  0  0  0  0  0  0  0  0  0  0
    8.1996   -2.0332   -1.4318 H   0  0  0  0  0  0  0  0  0  0  0  0
    9.6619   -1.0563   -1.6199 H   0  0  0  0  0  0  0  0  0  0  0  0
    8.1852   -0.5514   -2.4565 H   0  0  0  0  0  0  0  0  0  0  0  0
    7.2246    1.1378    1.7413 H   0  0  0  0  0  0  0  0  0  0  0  0
  1  2  1  0
  2  3  1  0
  3  4  2  0
  4  5  1  0
  5  6  1  0
  6  7  1  0
  7  8  1  0
  8  9  1  0
  9 10  1  0
 10 11  1  0
 11 12  1  0
 12 13  1  0
 13 14  2  0
 14 15  1  0
 15 16  1  0
 16 17  1  0
 17 18  2  0
 18 19  1  0
 19 20  2  0
 20 21  1  0
 20 22  1  0
 12 23  1  0
 23 24  1  0
  4 25  1  0
 25 26  2  0
 26 27  1  0
 27 28  1  0
 28 29  1  0
 28 30  2  0
 27 31  2  0
 31  3  1  0
 24  9  1  0
 17 13  1  0
 22 16  2  0
  1 32  1  0
  1 33  1  0
  1 34  1  0
  6 35  1  0
  6 36  1  0
  7 37  1  0
  7 38  1  0
  8 39  1  0
  8 40  1  0
 10 41  1  0
 10 42  1  0
 11 43  1  0
 11 44  1  0
 12 45  1  0
 18 46  1  0
 19 47  1  0
 22 48  1  0
 23 49  1  0
 23 50  1  0
 24 51  1  0
 24 52  1  0
 25 53  1  0
 26 54  1  0
 29 55  1  0
 29 56  1  0
 29 57  1  0
 31 58  1  0
M  END
$$$$
OCNT-0022127
     RDKit          3D

 49 51  0  0  0  0  0  0  0  0999 V2000
    3.6336    2.4668    1.8007 O   0  0  0  0  0  0  0  0  0  0  0  0
    3.3373    1.8163    0.7994 C   0  0  0  0  0  0  0  0  0  0  0  0
    2.2757    2.2920   -0.1791 C   0  0  0  0  0  0  0  0  0  0  0  0
    1.2267    3.1807    0.5008 C   0  0  0  0  0  0  0  0  0  0  0  0
    0.3588    2.4165    1.5144 C   0  0  0  0  0  0  0  0  0  0  0  0
   -0.4543    1.3775    0.8563 N   0  0  0  0  0  0  0  0  0  0  0  0
   -0.7756    0.2950    1.8064 C   0  0  0  0  0  0  0  0  0  0  0  0
   -1.8663   -0.6557    1.2804 C   0  0  0  0  0  0  0  0  0  0  0  0
   -2.0451   -0.5417   -0.2457 C   0  0  0  0  0  0  0  0  0  0  0  0
   -0.7717   -0.8748   -0.8374 O   0  0  0  0  0  0  0  0  0  0  0  0
   -3.1024   -1.4812   -0.8278 C   0  0  0  0  0  0  0  0  0  0  0  0
   -2.9010   -2.0966   -2.0790 C   0  0  0  0  0  0  0  0  0  0  0  0
   -3.8734   -2.9257   -2.6472 C   0  0  0  0  0  0  0  0  0  0  0  0
   -5.0705   -3.1477   -1.9742 C   0  0  0  0  0  0  0  0  0  0  0  0
   -6.2748   -4.1602   -2.6731 Cl  0  0  0  0  0  0  0  0  0  0  0  0
   -5.3016   -2.5469   -0.7403 C   0  0  0  0  0  0  0  0  0  0  0  0
   -4.3269   -1.7164   -0.1742 C   0  0  0  0  0  0  0  0  0  0  0  0
   -2.3766    0.9170   -0.6282 C   0  0  0  0  0  0  0  0  0  0  0  0
   -1.7005    1.9325    0.3043 C   0  0  0  0  0  0  0  0  0  0  0  0
    4.0587    0.5349    0.5355 C   0  0  0  0  0  0  0  0  0  0  0  0
    4.0310   -0.1016   -0.7135 C   0  0  0  0  0  0  0  0  0  0  0  0
    4.7243   -1.3027   -0.9016 C   0  0  0  0  0  0  0  0  0  0  0  0
    5.4454   -1.8579    0.1519 C   0  0  0  0  0  0  0  0  0  0  0  0
    6.1092   -3.0067   -0.0357 F   0  0  0  0  0  0  0  0  0  0  0  0
    5.4929   -1.2343    1.3935 C   0  0  0  0  0  0  0  0  0  0  0  0
    4.8023   -0.0349    1.5860 C   0  0  0  0  0  0  0  0  0  0  0  0
    1.7791    1.4405   -0.6525 H   0  0  0  0  0  0  0  0  0  0  0  0
    2.7854    2.8661   -0.9606 H   0  0  0  0  0  0  0  0  0  0  0  0
    1.7242    4.0096    1.0193 H   0  0  0  0  0  0  0  0  0  0  0  0
    0.5946    3.6375   -0.2717 H   0  0  0  0  0  0  0  0  0  0  0  0
   -0.2768    3.1177    2.0667 H   0  0  0  0  0  0  0  0  0  0  0  0
    1.0231    1.9597    2.2573 H   0  0  0  0  0  0  0  0  0  0  0  0
    0.1364   -0.2817    1.9941 H   0  0  0  0  0  0  0  0  0  0  0  0
   -1.1020    0.7012    2.7732 H   0  0  0  0  0  0  0  0  0  0  0  0
   -2.8010   -0.4173    1.7977 H   0  0  0  0  0  0  0  0  0  0  0  0
   -1.5980   -1.6811    1.5559 H   0  0  0  0  0  0  0  0  0  0  0  0
   -0.1693   -0.1609   -0.5497 H   0  0  0  0  0  0  0  0  0  0  0  0
   -1.9725   -1.9316   -2.6252 H   0  0  0  0  0  0  0  0  0  0  0  0
   -3.6872   -3.3889   -3.6116 H   0  0  0  0  0  0  0  0  0  0  0  0
   -6.2390   -2.7142   -0.2150 H   0  0  0  0  0  0  0  0  0  0  0  0
   -4.5520   -1.2506    0.7822 H   0  0  0  0  0  0  0  0  0  0  0  0
   -2.0506    1.1072   -1.6607 H   0  0  0  0  0  0  0  0  0  0  0  0
   -3.4591    1.1025   -0.5949 H   0  0  0  0  0  0  0  0  0  0  0  0
   -1.5199    2.8460   -0.2704 H   0  0  0  0  0  0  0  0  0  0  0  0
   -2.3856    2.2081    1.1177 H   0  0  0  0  0  0  0  0  0  0  0  0
    3.4912    0.3191   -1.5586 H   0  0  0  0  0  0  0  0  0  0  0  0
    4.7109   -1.8078   -1.8636 H   0  0  0  0  0  0  0  0  0  0  0  0
    6.0656   -1.6806    2.2029 H   0  0  0  0  0  0  0  0  0  0  0  0
    4.8472    0.4552    2.5616 H   0  0  0  0  0  0  0  0  0  0  0  0
  1  2  2  0
  2  3  1  0
  3  4  1  0
  4  5  1  0
  5  6  1  0
  6  7  1  0
  7  8  1  0
  8  9  1  0
  9 10  1  0
  9 11  1  0
 11 12  1  0
 12 13  2  0
 13 14  1  0
 14 15  1  0
 14 16  2  0
 16 17  1  0
  9 18  1  0
 18 19  1  0
  2 20  1  0
 20 21  1  0
 21 22  2  0
 22 23  1  0
 23 24  1  0
 23 25  2  0
 25 26  1  0
 19  6  1  0
 26 20  2  0
 17 11  2  0
  3 27  1  0
  3 28  1  0
  4 29  1  0
  4 30  1  0
  5 31  1  0
  5 32  1  0
  7 33  1  0
  7 34  1  0
  8 35  1  0
  8 36  1  0
 10 37  1  0
 12 38  1  0
 13 39  1  0
 16 40  1  0
 17 41  1  0
 18 42  1  0
 18 43  1  0
 19 44  1  0
 19 45  1  0
 21 46  1  0
 22 47  1  0
 25 48  1  0
 26 49  1  0
M  END
$$$$
OCNT-0022128
     RDKit          3D

 57 60  0  0  0  0  0  0  0  0999 V2000
   -8.4915   -2.0575    0.9147 O   0  0  0  0  0  0  0  0  0  0  0  0
   -7.2757   -1.8844    0.8667 C   0  0  0  0  0  0  0  0  0  0  0  0
   -6.2897   -2.9907    1.1669 C   0  0  0  0  0  0  0  0  0  0  0  0
   -5.0113   -2.4605    1.7954 C   0  0  0  0  0  0  0  0  0  0  0  0
   -4.4816   -1.2772    1.0357 C   0  0  0  0  0  0  0  0  0  0  0  0
   -5.3799   -0.4091    0.4104 C   0  0  0  0  0  0  0  0  0  0  0  0
   -4.9270    0.7550   -0.2089 C   0  0  0  0  0  0  0  0  0  0  0  0
   -3.5628    1.0609   -0.2241 C   0  0  0  0  0  0  0  0  0  0  0  0
   -3.2523    2.2217   -0.8776 O   0  0  0  0  0  0  0  0  0  0  0  0
   -1.9102    2.7087   -0.8121 C   0  0  0  0  0  0  0  0  0  0  0  0
   -1.0768    2.1287   -1.9542 C   0  0  0  0  0  0  0  0  0  0  0  0
    0.3674    2.6357   -1.9888 C   0  0  0  0  0  0  0  0  0  0  0  0
    1.1848    2.1840   -0.7695 C   0  0  0  0  0  0  0  0  0  0  0  0
    2.5952    2.5965   -0.8534 N   0  0  0  0  0  0  0  0  0  0  0  0
    3.2633    2.4747    0.4691 C   0  0  0  0  0  0  0  0  0  0  0  0
    3.4847    1.0234    0.9619 C   0  0  0  0  0  0  0  0  0  0  0  0
    4.2018    0.2386   -0.0609 N   0  0  0  0  0  0  0  0  0  0  0  0
    4.5986   -1.0496    0.3449 C   0  0  0  0  0  0  0  0  0  0  0  0
    3.7541   -2.1470    0.6434 C   0  0  0  0  0  0  0  0  0  0  0  0
    2.0214   -2.0103    0.5265 Cl  0  0  0  0  0  0  0  0  0  0  0  0
    4.3184   -3.3755    1.0431 C   0  0  0  0  0  0  0  0  0  0  0  0
    3.3552   -4.7644    1.4304 Cl  0  0  0  0  0  0  0  0  0  0  0  0
    5.7042   -3.5247    1.1491 C   0  0  0  0  0  0  0  0  0  0  0  0
    6.5417   -2.4550    0.8525 C   0  0  0  0  0  0  0  0  0  0  0  0
    5.9911   -1.2368    0.4570 C   0  0  0  0  0  0  0  0  0  0  0  0
    3.6204    0.3117   -1.4160 C   0  0  0  0  0  0  0  0  0  0  0  0
    3.3780    1.7874   -1.8231 C   0  0  0  0  0  0  0  0  0  0  0  0
   -2.6608    0.1904    0.3903 C   0  0  0  0  0  0  0  0  0  0  0  0
   -3.1186   -0.9689    1.0268 C   0  0  0  0  0  0  0  0  0  0  0  0
   -6.7479   -0.6991    0.4290 N   0  0  0  0  0  0  0  0  0  0  0  0
   -6.0725   -3.5004    0.2199 H   0  0  0  0  0  0  0  0  0  0  0  0
   -6.7595   -3.7146    1.8416 H   0  0  0  0  0  0  0  0  0  0  0  0
   -4.2658   -3.2635    1.8259 H   0  0  0  0  0  0  0  0  0  0  0  0
   -5.2042   -2.1451    2.8285 H   0  0  0  0  0  0  0  0  0  0  0  0
   -5.6253    1.4333   -0.6914 H   0  0  0  0  0  0  0  0  0  0  0  0
   -1.9710    3.7960   -0.9394 H   0  0  0  0  0  0  0  0  0  0  0  0
   -1.4737    2.5484    0.1789 H   0  0  0  0  0  0  0  0  0  0  0  0
   -1.5657    2.3828   -2.9037 H   0  0  0  0  0  0  0  0  0  0  0  0
   -1.0807    1.0333   -1.9142 H   0  0  0  0  0  0  0  0  0  0  0  0
    0.8197    2.2605   -2.9130 H   0  0  0  0  0  0  0  0  0  0  0  0
    0.3729    3.7307   -2.0552 H   0  0  0  0  0  0  0  0  0  0  0  0
    0.7431    2.6596    0.1146 H   0  0  0  0  0  0  0  0  0  0  0  0
    1.0783    1.1028   -0.6266 H   0  0  0  0  0  0  0  0  0  0  0  0
    4.2395    2.9731    0.3983 H   0  0  0  0  0  0  0  0  0  0  0  0
    2.7026    3.0375    1.2255 H   0  0  0  0  0  0  0  0  0  0  0  0
    2.5162    0.5807    1.2116 H   0  0  0  0  0  0  0  0  0  0  0  0
    4.0783    1.0582    1.8840 H   0  0  0  0  0  0  0  0  0  0  0  0
    6.1358   -4.4735    1.4594 H   0  0  0  0  0  0  0  0  0  0  0  0
    7.6208   -2.5644    0.9319 H   0  0  0  0  0  0  0  0  0  0  0  0
    6.6568   -0.4043    0.2319 H   0  0  0  0  0  0  0  0  0  0  0  0
    4.3152   -0.1340   -2.1387 H   0  0  0  0  0  0  0  0  0  0  0  0
    2.6794   -0.2418   -1.4851 H   0  0  0  0  0  0  0  0  0  0  0  0
    4.3554    2.2751   -1.9432 H   0  0  0  0  0  0  0  0  0  0  0  0
    2.9221    1.8197   -2.8181 H   0  0  0  0  0  0  0  0  0  0  0  0
   -1.5929    0.3790    0.3960 H   0  0  0  0  0  0  0  0  0  0  0  0
   -2.4031   -1.6242    1.5188 H   0  0  0  0  0  0  0  0  0  0  0  0
   -7.4159   -0.0115    0.1036 H   0  0  0  0  0  0  0  0  0  0  0  0
  1  2  2  0
  2  3  1  0
  3  4  1  0
  4  5  1  0
  5  6  2  0
  6  7  1  0
  7  8  2  0
  8  9  1  0
  9 10  1  0
 10 11  1  0
 11 12  1  0
 12 13  1  0
 13 14  1  0
 14 15  1  0
 15 16  1  0
 16 17  1  0
 17 18  1  0
 18 19  1  0
 19 20  1  0
 19 21  2  0
 21 22  1  0
 21 23  1  0
 23 24  2  0
 24 25  1  0
 17 26  1  0
 26 27  1  0
  8 28  1  0
 28 29  2  0
  6 30  1  0
 30  2  1  0
 29  5  1  0
 27 14  1  0
 25 18  2  0
  3 31  1  0
  3 32  1  0
  4 33  1  0
  4 34  1  0
  7 35  1  0
 10 36  1  0
 10 37  1  0
 11 38  1  0
 11 39  1  0
 12 40  1  0
 12 41  1  0
 13 42  1  0
 13 43  1  0
 15 44  1  0
 15 45  1  0
 16 46  1  0
 16 47  1  0
 23 48  1  0
 24 49  1  0
 25 50  1  0
 26 51  1  0
 26 52  1  0
 27 53  1  0
 27 54  1  0
 28 55  1  0
 29 56  1  0
 30 57  1  0
M  END
$$$$
OCNT-0022137
     RDKit          3D

 57 61  0  0  0  0  0  0  0  0999 V2000
   -3.6084   -2.5054    1.7643 C   0  0  0  0  0  0  0  0  0  0  0  0
   -3.8926   -1.3708    0.8124 C   0  0  0  0  0  0  0  0  0  0  0  0
   -2.9810   -0.8896   -0.0548 C   0  0  0  0  0  0  0  0  0  0  0  0
   -1.5867   -1.4217   -0.2791 C   0  0  0  0  0  0  0  0  0  0  0  0
   -0.5307   -0.5701    0.4472 C   0  0  0  0  0  0  0  0  0  0  0  0
    0.8162   -1.1823    0.4340 N   0  0  0  0  0  0  0  0  0  0  0  0
    1.6875   -0.4714    1.3854 C   0  0  0  0  0  0  0  0  0  0  0  0
    3.0534   -1.1495    1.4841 C   0  0  0  0  0  0  0  0  0  0  0  0
    3.7501   -1.2849    0.1258 C   0  0  0  0  0  0  0  0  0  0  0  0
    4.4694   -0.0264   -0.2816 C   0  0  0  0  0  0  0  0  0  0  0  0
    3.8049    1.0370   -0.7559 N   0  0  0  0  0  0  0  0  0  0  0  0
    4.7607    2.0001   -1.0229 O   0  0  0  0  0  0  0  0  0  0  0  0
    5.9909    1.5215   -0.7050 C   0  0  0  0  0  0  0  0  0  0  0  0
    5.8682    0.2294   -0.2227 C   0  0  0  0  0  0  0  0  0  0  0  0
    7.0299   -0.4587    0.1735 C   0  0  0  0  0  0  0  0  0  0  0  0
    8.2624    0.2000    0.0580 C   0  0  0  0  0  0  0  0  0  0  0  0
    8.3294    1.5022   -0.4368 C   0  0  0  0  0  0  0  0  0  0  0  0
    9.5262    2.0970   -0.5321 F   0  0  0  0  0  0  0  0  0  0  0  0
    7.1946    2.2053   -0.8343 C   0  0  0  0  0  0  0  0  0  0  0  0
    2.7815   -1.8173   -0.9380 C   0  0  0  0  0  0  0  0  0  0  0  0
    1.4096   -1.1381   -0.9139 C   0  0  0  0  0  0  0  0  0  0  0  0
   -3.3879    0.2579   -0.9138 C   0  0  0  0  0  0  0  0  0  0  0  0
   -2.6186    0.7063   -1.7610 O   0  0  0  0  0  0  0  0  0  0  0  0
   -4.6498    0.7564   -0.6862 N   0  0  0  0  0  0  0  0  0  0  0  0
   -5.1583    1.8555   -1.4907 C   0  0  0  0  0  0  0  0  0  0  0  0
   -5.8838    2.8842   -0.6271 C   0  0  0  0  0  0  0  0  0  0  0  0
   -6.8019    2.2514    0.4237 C   0  0  0  0  0  0  0  0  0  0  0  0
   -6.8809    0.7342    0.3132 C   0  0  0  0  0  0  0  0  0  0  0  0
   -5.4912    0.1475    0.2124 C   0  0  0  0  0  0  0  0  0  0  0  0
   -5.1652   -0.8687    0.9388 N   0  0  0  0  0  0  0  0  0  0  0  0
   -4.0433   -3.4346    1.3823 H   0  0  0  0  0  0  0  0  0  0  0  0
   -4.0529   -2.2982    2.7446 H   0  0  0  0  0  0  0  0  0  0  0  0
   -2.5412   -2.6644    1.9391 H   0  0  0  0  0  0  0  0  0  0  0  0
   -1.5124   -2.4640    0.0519 H   0  0  0  0  0  0  0  0  0  0  0  0
   -1.3857   -1.4555   -1.3565 H   0  0  0  0  0  0  0  0  0  0  0  0
   -0.8554   -0.4689    1.4919 H   0  0  0  0  0  0  0  0  0  0  0  0
   -0.4992    0.4450    0.0298 H   0  0  0  0  0  0  0  0  0  0  0  0
    1.7976    0.5853    1.1119 H   0  0  0  0  0  0  0  0  0  0  0  0
    1.2370   -0.4953    2.3857 H   0  0  0  0  0  0  0  0  0  0  0  0
    2.9112   -2.1540    1.9057 H   0  0  0  0  0  0  0  0  0  0  0  0
    3.6850   -0.6022    2.1946 H   0  0  0  0  0  0  0  0  0  0  0  0
    4.5287   -2.0521    0.2439 H   0  0  0  0  0  0  0  0  0  0  0  0
    6.9826   -1.4725    0.5595 H   0  0  0  0  0  0  0  0  0  0  0  0
    9.1800   -0.3015    0.3544 H   0  0  0  0  0  0  0  0  0  0  0  0
    7.2486    3.2152   -1.2169 H   0  0  0  0  0  0  0  0  0  0  0  0
    3.2177   -1.7299   -1.9409 H   0  0  0  0  0  0  0  0  0  0  0  0
    2.6313   -2.8913   -0.7593 H   0  0  0  0  0  0  0  0  0  0  0  0
    0.7767   -1.6815   -1.6239 H   0  0  0  0  0  0  0  0  0  0  0  0
    1.4799   -0.1075   -1.2808 H   0  0  0  0  0  0  0  0  0  0  0  0
   -5.8539    1.4277   -2.2232 H   0  0  0  0  0  0  0  0  0  0  0  0
   -4.3546    2.3425   -2.0523 H   0  0  0  0  0  0  0  0  0  0  0  0
   -5.1425    3.5057   -0.1089 H   0  0  0  0  0  0  0  0  0  0  0  0
   -6.4566    3.5629   -1.2696 H   0  0  0  0  0  0  0  0  0  0  0  0
   -6.4255    2.5173    1.4200 H   0  0  0  0  0  0  0  0  0  0  0  0
   -7.8068    2.6827    0.3508 H   0  0  0  0  0  0  0  0  0  0  0  0
   -7.3981    0.3190    1.1848 H   0  0  0  0  0  0  0  0  0  0  0  0
   -7.4461    0.4392   -0.5785 H   0  0  0  0  0  0  0  0  0  0  0  0
  1  2  1  0
  2  3  2  0
  3  4  1  0
  4  5  1  0
  5  6  1  0
  6  7  1  0
  7  8  1  0
  8  9  1  0
  9 10  1  0
 10 11  2  0
 11 12  1  0
 12 13  1  0
 13 14  1  0
 14 15  2  0
 15 16  1  0
 16 17  2  0
 17 18  1  0
 17 19  1  0
  9 20  1  0
 20 21  1  0
  3 22  1  0
 22 23  2  0
 22 24  1  0
 24 25  1  0
 25 26  1  0
 26 27  1  0
 27 28  1  0
 28 29  1  0
 29 30  2  0
 30  2  1  0
 21  6  1  0
 29 24  1  0
 14 10  1  0
 19 13  2  0
  1 31  1  0
  1 32  1  0
  1 33  1  0
  4 34  1  0
  4 35  1  0
  5 36  1  0
  5 37  1  0
  7 38  1  0
  7 39  1  0
  8 40  1  0
  8 41  1  0
  9 42  1  0
 15 43  1  0
 16 44  1  0
 19 45  1  0
 20 46  1  0
 20 47  1  0
 21 48  1  0
 21 49  1  0
 25 50  1  0
 25 51  1  0
 26 52  1  0
 26 53  1  0
 27 54  1  0
 27 55  1  0
 28 56  1  0
 28 57  1  0
M  END
$$$$
OCNT-0022139
     RDKit          3D

 41 44  0  0  0  0  0  0  0  0999 V2000
    5.1424    1.0435   -0.0480 C   0  0  0  0  0  0  0  0  0  0  0  0
    3.8325    1.6567    0.1503 N   0  0  0  0  0  0  0  0  0  0  0  0
    3.1944    1.1414    1.3824 C   0  0  0  0  0  0  0  0  0  0  0  0
    1.6533    1.1729    1.3420 C   0  0  0  0  0  0  0  0  0  0  0  0
    1.1444    0.3031    0.2600 N   0  0  0  0  0  0  0  0  0  0  0  0
   -0.2292    0.0445    0.1916 C   0  0  0  0  0  0  0  0  0  0  0  0
   -1.0328    0.7633    0.9280 N   0  0  0  0  0  0  0  0  0  0  0  0
   -2.4278    0.6232    0.9340 C   0  0  0  0  0  0  0  0  0  0  0  0
   -3.0887    0.8254    2.1505 C   0  0  0  0  0  0  0  0  0  0  0  0
   -4.4842    0.7947    2.2296 C   0  0  0  0  0  0  0  0  0  0  0  0
   -5.2424    0.5782    1.0810 C   0  0  0  0  0  0  0  0  0  0  0  0
   -4.6041    0.3849   -0.1424 C   0  0  0  0  0  0  0  0  0  0  0  0
   -3.2068    0.3946   -0.2076 C   0  0  0  0  0  0  0  0  0  0  0  0
   -2.6406    0.1878   -1.4449 O   0  0  0  0  0  0  0  0  0  0  0  0
   -1.8453   -0.9296   -1.4846 C   0  0  0  0  0  0  0  0  0  0  0  0
   -2.2171   -1.9425   -2.3733 C   0  0  0  0  0  0  0  0  0  0  0  0
   -1.4666   -3.1168   -2.4421 C   0  0  0  0  0  0  0  0  0  0  0  0
   -0.3479   -3.2703   -1.6242 C   0  0  0  0  0  0  0  0  0  0  0  0
    0.5721   -4.7220   -1.7018 Cl  0  0  0  0  0  0  0  0  0  0  0  0
    0.0385   -2.2544   -0.7523 C   0  0  0  0  0  0  0  0  0  0  0  0
   -0.7014   -1.0657   -0.6966 C   0  0  0  0  0  0  0  0  0  0  0  0
    1.9921    0.2731   -0.9513 C   0  0  0  0  0  0  0  0  0  0  0  0
    2.9527    1.4806   -1.0225 C   0  0  0  0  0  0  0  0  0  0  0  0
    5.6551    1.5014   -0.9011 H   0  0  0  0  0  0  0  0  0  0  0  0
    5.7809    1.2087    0.8270 H   0  0  0  0  0  0  0  0  0  0  0  0
    5.0725   -0.0353   -0.2273 H   0  0  0  0  0  0  0  0  0  0  0  0
    3.4997    0.1019    1.5666 H   0  0  0  0  0  0  0  0  0  0  0  0
    3.5470    1.7371    2.2320 H   0  0  0  0  0  0  0  0  0  0  0  0
    1.2745    0.8161    2.3072 H   0  0  0  0  0  0  0  0  0  0  0  0
    1.2991    2.2015    1.1993 H   0  0  0  0  0  0  0  0  0  0  0  0
   -2.5019    1.0231    3.0441 H   0  0  0  0  0  0  0  0  0  0  0  0
   -4.9747    0.9550    3.1861 H   0  0  0  0  0  0  0  0  0  0  0  0
   -6.3276    0.5656    1.1383 H   0  0  0  0  0  0  0  0  0  0  0  0
   -5.1892    0.2202   -1.0423 H   0  0  0  0  0  0  0  0  0  0  0  0
   -3.0987   -1.8214   -2.9974 H   0  0  0  0  0  0  0  0  0  0  0  0
   -1.7634   -3.9079   -3.1258 H   0  0  0  0  0  0  0  0  0  0  0  0
    0.9088   -2.3832   -0.1145 H   0  0  0  0  0  0  0  0  0  0  0  0
    1.3744    0.2823   -1.8569 H   0  0  0  0  0  0  0  0  0  0  0  0
    2.5728   -0.6565   -0.9532 H   0  0  0  0  0  0  0  0  0  0  0  0
    3.5372    1.4328   -1.9498 H   0  0  0  0  0  0  0  0  0  0  0  0
    2.3459    2.3919   -1.1086 H   0  0  0  0  0  0  0  0  0  0  0  0
  1  2  1  0
  2  3  1  0
  3  4  1  0
  4  5  1  0
  5  6  1  0
  6  7  2  0
  7  8  1  0
  8  9  2  0
  9 10  1  0
 10 11  2  0
 11 12  1  0
 12 13  2  0
 13 14  1  0
 14 15  1  0
 15 16  1  0
 16 17  2  0
 17 18  1  0
 18 19  1  0
 18 20  2  0
 20 21  1  0
  5 22  1  0
 22 23  1  0
 23  2  1  0
 21  6  1  0
 13  8  1  0
 21 15  2  0
  1 24  1  0
  1 25  1  0
  1 26  1  0
  3 27  1  0
  3 28  1  0
  4 29  1  0
  4 30  1  0
  9 31  1  0
 10 32  1  0
 11 33  1  0
 12 34  1  0
 16 35  1  0
 17 36  1  0
 20 37  1  0
 22 38  1  0
 22 39  1  0
 23 40  1  0
 23 41  1  0
M  END
$$$$
OCNT-0022141
     RDKit          3D

 51 54  0  0  0  0  0  0  0  0999 V2000
    2.0137    4.0526    3.1080 C   0  0  0  0  0  0  0  0  0  0  0  0
    1.8800    2.3808    3.7958 S   0  0  0  0  0  0  0  0  0  0  0  0
    2.3534    1.4022    2.3792 C   0  0  0  0  0  0  0  0  0  0  0  0
    3.4962    1.6783    1.6341 C   0  0  0  0  0  0  0  0  0  0  0  0
    3.8337    0.8666    0.5503 C   0  0  0  0  0  0  0  0  0  0  0  0
    3.0319   -0.2289    0.1930 C   0  0  0  0  0  0  0  0  0  0  0  0
    3.5382   -1.1604   -1.2371 S   0  0  0  0  0  0  0  0  0  0  0  0
    2.5574   -2.6381   -1.0733 C   0  0  0  0  0  0  0  0  0  0  0  0
    1.4383   -2.7194   -0.2241 C   0  0  0  0  0  0  0  0  0  0  0  0
    0.7502   -3.9481   -0.1693 C   0  0  0  0  0  0  0  0  0  0  0  0
    1.1269   -5.0387   -0.9582 C   0  0  0  0  0  0  0  0  0  0  0  0
    2.2140   -4.9307   -1.8143 C   0  0  0  0  0  0  0  0  0  0  0  0
    2.9282   -3.7363   -1.8685 C   0  0  0  0  0  0  0  0  0  0  0  0
    1.0347   -1.6346    0.6032 N   0  0  0  0  0  0  0  0  0  0  0  0
   -0.4149   -1.2981    0.5085 C   0  0  0  0  0  0  0  0  0  0  0  0
   -0.7206   -0.4703   -0.7516 C   0  0  0  0  0  0  0  0  0  0  0  0
   -2.2305   -0.1870   -0.9201 C   0  0  0  0  0  0  0  0  0  0  0  0
   -2.5068    0.5553   -2.2434 C   0  0  0  0  0  0  0  0  0  0  0  0
   -2.0860    2.0210   -2.1954 C   0  0  0  0  0  0  0  0  0  0  0  0
   -2.6781    2.7128   -0.9736 C   0  0  0  0  0  0  0  0  0  0  0  0
   -2.3902    1.9323    0.3098 C   0  0  0  0  0  0  0  0  0  0  0  0
   -2.7841    0.5158    0.2558 N   0  0  0  0  0  0  0  0  0  0  0  0
   -4.2358    0.3558    0.3602 C   0  0  0  0  0  0  0  0  0  0  0  0
    1.8676   -0.5237    0.9246 C   0  0  0  0  0  0  0  0  0  0  0  0
    1.5664    0.2959    2.0335 C   0  0  0  0  0  0  0  0  0  0  0  0
    1.4616    4.1307    2.1669 H   0  0  0  0  0  0  0  0  0  0  0  0
    1.5858    4.7650    3.8193 H   0  0  0  0  0  0  0  0  0  0  0  0
    3.0614    4.3220    2.9461 H   0  0  0  0  0  0  0  0  0  0  0  0
    4.1522    2.5037    1.8947 H   0  0  0  0  0  0  0  0  0  0  0  0
    4.7343    1.0950   -0.0170 H   0  0  0  0  0  0  0  0  0  0  0  0
   -0.0735   -4.0860    0.5262 H   0  0  0  0  0  0  0  0  0  0  0  0
    0.5764   -5.9737   -0.8879 H   0  0  0  0  0  0  0  0  0  0  0  0
    2.5147   -5.7744   -2.4294 H   0  0  0  0  0  0  0  0  0  0  0  0
    3.7853   -3.6662   -2.5347 H   0  0  0  0  0  0  0  0  0  0  0  0
   -1.0360   -2.2011    0.4987 H   0  0  0  0  0  0  0  0  0  0  0  0
   -0.7470   -0.7638    1.4039 H   0  0  0  0  0  0  0  0  0  0  0  0
   -0.3695   -1.0171   -1.6364 H   0  0  0  0  0  0  0  0  0  0  0  0
   -0.1488    0.4635   -0.7315 H   0  0  0  0  0  0  0  0  0  0  0  0
   -2.7093   -1.1740   -0.9957 H   0  0  0  0  0  0  0  0  0  0  0  0
   -1.9940    0.0540   -3.0730 H   0  0  0  0  0  0  0  0  0  0  0  0
   -3.5787    0.5034   -2.4724 H   0  0  0  0  0  0  0  0  0  0  0  0
   -0.9926    2.0967   -2.1682 H   0  0  0  0  0  0  0  0  0  0  0  0
   -2.4140    2.5333   -3.1069 H   0  0  0  0  0  0  0  0  0  0  0  0
   -2.2629    3.7236   -0.8897 H   0  0  0  0  0  0  0  0  0  0  0  0
   -3.7603    2.8291   -1.1076 H   0  0  0  0  0  0  0  0  0  0  0  0
   -2.8795    2.4292    1.1571 H   0  0  0  0  0  0  0  0  0  0  0  0
   -1.3170    1.9934    0.5308 H   0  0  0  0  0  0  0  0  0  0  0  0
   -4.7813    0.8027   -0.4769 H   0  0  0  0  0  0  0  0  0  0  0  0
   -4.5003   -0.7069    0.4110 H   0  0  0  0  0  0  0  0  0  0  0  0
   -4.6046    0.8077    1.2877 H   0  0  0  0  0  0  0  0  0  0  0  0
    0.7138    0.0549    2.6633 H   0  0  0  0  0  0  0  0  0  0  0  0
  1  2  1  0
  2  3  1  0
  3  4  1  0
  4  5  2  0
  5  6  1  0
  6  7  1  0
  7  8  1  0
  8  9  1  0
  9 10  2  0
 10 11  1  0
 11 12  2  0
 12 13  1  0
  9 14  1  0
 14 15  1  0
 15 16  1  0
 16 17  1  0
 17 18  1  0
 18 19  1  0
 19 20  1  0
 20 21  1  0
 21 22  1  0
 22 23  1  0
 14 24  1  0
 24 25  1  0
 25  3  2  0
 24  6  2  0
 13  8  2  0
 22 17  1  0
  1 26  1  0
  1 27  1  0
  1 28  1  0
  4 29  1  0
  5 30  1  0
 10 31  1  0
 11 32  1  0
 12 33  1  0
 13 34  1  0
 15 35  1  0
 15 36  1  0
 16 37  1  0
 16 38  1  0
 17 39  1  0
 18 40  1  0
 18 41  1  0
 19 42  1  0
 19 43  1  0
 20 44  1  0
 20 45  1  0
 21 46  1  0
 21 47  1  0
 23 48  1  0
 23 49  1  0
 23 50  1  0
 25 51  1  0
M  END
$$$$
OCNT-0022142
     RDKit          3D

 44 46  0  0  0  0  0  0  0  0999 V2000
    3.6932    2.5421    1.3024 C   0  0  0  0  0  0  0  0  0  0  0  0
    3.6645    1.9237   -0.0869 C   0  0  0  0  0  0  0  0  0  0  0  0
    3.2486    0.4847   -0.0620 C   0  0  0  0  0  0  0  0  0  0  0  0
    4.0908   -0.6216   -0.0370 C   0  0  0  0  0  0  0  0  0  0  0  0
    5.5753   -0.7033   -0.0271 C   0  0  0  0  0  0  0  0  0  0  0  0
    3.3119   -1.7543   -0.0265 N   0  0  0  0  0  0  0  0  0  0  0  0
    1.9953   -1.3952   -0.0402 C   0  0  0  0  0  0  0  0  0  0  0  0
    1.9123   -0.0176   -0.0543 C   0  0  0  0  0  0  0  0  0  0  0  0
    0.6153    0.6585   -0.0643 C   0  0  0  0  0  0  0  0  0  0  0  0
    0.5199    1.8833   -0.1097 O   0  0  0  0  0  0  0  0  0  0  0  0
   -0.6218   -0.2537    0.0658 C   0  0  0  0  0  0  0  0  0  0  0  0
   -1.8439    0.4671   -0.5371 C   0  0  0  0  0  0  0  0  0  0  0  0
   -3.1029   -0.2991   -0.4491 N   0  0  0  0  0  0  0  0  0  0  0  0
   -4.1891    0.3542   -1.2167 C   0  0  0  0  0  0  0  0  0  0  0  0
   -5.1469    1.1806   -0.3443 C   0  0  0  0  0  0  0  0  0  0  0  0
   -5.8024    0.4006    0.6653 O   0  0  0  0  0  0  0  0  0  0  0  0
   -5.0360   -0.7382    1.0802 C   0  0  0  0  0  0  0  0  0  0  0  0
   -3.5218   -0.5092    0.9567 C   0  0  0  0  0  0  0  0  0  0  0  0
   -0.3827   -1.6302   -0.6047 C   0  0  0  0  0  0  0  0  0  0  0  0
    0.8549   -2.3456   -0.0419 C   0  0  0  0  0  0  0  0  0  0  0  0
    4.0053    3.5896    1.2449 H   0  0  0  0  0  0  0  0  0  0  0  0
    4.3956    2.0132    1.9556 H   0  0  0  0  0  0  0  0  0  0  0  0
    2.7059    2.5072    1.7747 H   0  0  0  0  0  0  0  0  0  0  0  0
    4.6599    2.0129   -0.5385 H   0  0  0  0  0  0  0  0  0  0  0  0
    2.9882    2.4965   -0.7314 H   0  0  0  0  0  0  0  0  0  0  0  0
    5.9894   -0.0522    0.7493 H   0  0  0  0  0  0  0  0  0  0  0  0
    5.9778   -0.3872   -0.9946 H   0  0  0  0  0  0  0  0  0  0  0  0
    5.9220   -1.7230    0.1696 H   0  0  0  0  0  0  0  0  0  0  0  0
    3.6637   -2.7035   -0.0141 H   0  0  0  0  0  0  0  0  0  0  0  0
   -0.7724   -0.4030    1.1431 H   0  0  0  0  0  0  0  0  0  0  0  0
   -1.9750    1.4508   -0.0665 H   0  0  0  0  0  0  0  0  0  0  0  0
   -1.6213    0.6620   -1.5954 H   0  0  0  0  0  0  0  0  0  0  0  0
   -4.7655   -0.4488   -1.6936 H   0  0  0  0  0  0  0  0  0  0  0  0
   -3.7958    0.9715   -2.0329 H   0  0  0  0  0  0  0  0  0  0  0  0
   -5.9276    1.6303   -0.9662 H   0  0  0  0  0  0  0  0  0  0  0  0
   -4.6129    2.0003    0.1502 H   0  0  0  0  0  0  0  0  0  0  0  0
   -5.3519   -1.6025    0.4843 H   0  0  0  0  0  0  0  0  0  0  0  0
   -5.3007   -0.9482    2.1215 H   0  0  0  0  0  0  0  0  0  0  0  0
   -2.9921   -1.3770    1.3641 H   0  0  0  0  0  0  0  0  0  0  0  0
   -3.2617    0.3651    1.5678 H   0  0  0  0  0  0  0  0  0  0  0  0
   -0.2509   -1.4863   -1.6860 H   0  0  0  0  0  0  0  0  0  0  0  0
   -1.2525   -2.2835   -0.4727 H   0  0  0  0  0  0  0  0  0  0  0  0
    1.0801   -3.2298   -0.6479 H   0  0  0  0  0  0  0  0  0  0  0  0
    0.6578   -2.6810    0.9829 H   0  0  0  0  0  0  0  0  0  0  0  0
  1  2  1  0
  2  3  1  0
  3  4  2  0
  4  5  1  0
  4  6  1  0
  6  7  1  0
  7  8  2  0
  8  9  1  0
  9 10  2  0
  9 11  1  0
 11 12  1  0
 12 13  1  0
 13 14  1  0
 14 15  1  0
 15 16  1  0
 16 17  1  0
 17 18  1  0
 11 19  1  0
 19 20  1  0
  8  3  1  0
 18 13  1  0
 20  7  1  0
  1 21  1  0
  1 22  1  0
  1 23  1  0
  2 24  1  0
  2 25  1  0
  5 26  1  0
  5 27  1  0
  5 28  1  0
  6 29  1  0
 11 30  1  0
 12 31  1  0
 12 32  1  0
 14 33  1  0
 14 34  1  0
 15 35  1  0
 15 36  1  0
 17 37  1  0
 17 38  1  0
 18 39  1  0
 18 40  1  0
 19 41  1  0
 19 42  1  0
 20 43  1  0
 20 44  1  0
M  END
$$$$
OCNT-0022215
     RDKit          3D

 62 66  0  0  0  0  0  0  0  0999 V2000
   -1.4233   -1.2679   -2.6484 N   0  0  0  0  0  0  0  0  0  0  0  0
   -2.4880   -1.6274   -1.8553 C   0  0  0  0  0  0  0  0  0  0  0  0
   -3.1019   -2.6445   -2.1687 O   0  0  0  0  0  0  0  0  0  0  0  0
   -2.7849   -0.7027   -0.5924 C   0  0  0  0  0  0  0  0  0  0  0  0
   -2.8311    0.7642   -1.1308 C   0  0  0  0  0  0  0  0  0  0  0  0
   -3.6734    1.0513   -2.2323 C   0  0  0  0  0  0  0  0  0  0  0  0
   -3.7633    2.3359   -2.7717 C   0  0  0  0  0  0  0  0  0  0  0  0
   -3.0210    3.3721   -2.2195 C   0  0  0  0  0  0  0  0  0  0  0  0
   -2.1994    3.1228   -1.1252 C   0  0  0  0  0  0  0  0  0  0  0  0
   -2.1096    1.8353   -0.5837 C   0  0  0  0  0  0  0  0  0  0  0  0
   -4.1532   -1.0839    0.0870 C   0  0  0  0  0  0  0  0  0  0  0  0
   -4.4877   -2.4283    0.3481 C   0  0  0  0  0  0  0  0  0  0  0  0
   -5.6782   -2.7766    0.9935 C   0  0  0  0  0  0  0  0  0  0  0  0
   -6.5601   -1.7884    1.4141 C   0  0  0  0  0  0  0  0  0  0  0  0
   -6.2464   -0.4519    1.1974 C   0  0  0  0  0  0  0  0  0  0  0  0
   -5.0556   -0.1037    0.5511 C   0  0  0  0  0  0  0  0  0  0  0  0
   -1.6656   -1.0654    0.4602 C   0  0  2  0  0  0  0  0  0  0  0  0
   -1.7977   -0.4488    1.8652 C   0  0  0  0  0  0  0  0  0  0  0  0
   -0.3751   -0.1075    2.2931 C   0  0  0  0  0  0  0  0  0  0  0  0
    0.4763   -0.8692    1.3783 N   0  0  0  0  0  0  0  0  0  0  0  0
    1.8502   -0.3524    1.3501 C   0  0  0  0  0  0  0  0  0  0  0  0
    2.8041   -1.2391    0.5337 C   0  0  0  0  0  0  0  0  0  0  0  0
    4.2243   -0.7232    0.5883 C   0  0  0  0  0  0  0  0  0  0  0  0
    5.0875   -1.1400    1.6253 C   0  0  0  0  0  0  0  0  0  0  0  0
    6.3953   -0.6557    1.7091 C   0  0  0  0  0  0  0  0  0  0  0  0
    6.8162    0.2338    0.7444 C   0  0  0  0  0  0  0  0  0  0  0  0
    8.0659    0.7957    0.7032 O   0  0  0  0  0  0  0  0  0  0  0  0
    8.1182    1.4094   -0.6059 C   0  0  0  0  0  0  0  0  0  0  0  0
    6.6930    1.6577   -1.1023 C   0  0  0  0  0  0  0  0  0  0  0  0
    5.9812    0.6582   -0.2762 C   0  0  0  0  0  0  0  0  0  0  0  0
    4.6792    0.1985   -0.3688 C   0  0  0  0  0  0  0  0  0  0  0  0
   -0.2009   -0.8305    0.0773 C   0  0  0  0  0  0  0  0  0  0  0  0
   -1.3375   -1.8120   -3.4988 H   0  0  0  0  0  0  0  0  0  0  0  0
   -1.1623   -0.2920   -2.7209 H   0  0  0  0  0  0  0  0  0  0  0  0
   -4.2867    0.2648   -2.6749 H   0  0  0  0  0  0  0  0  0  0  0  0
   -4.4213    2.5252   -3.6161 H   0  0  0  0  0  0  0  0  0  0  0  0
   -3.0920    4.3749   -2.6325 H   0  0  0  0  0  0  0  0  0  0  0  0
   -1.6294    3.9364   -0.6822 H   0  0  0  0  0  0  0  0  0  0  0  0
   -1.4656    1.7132    0.2788 H   0  0  0  0  0  0  0  0  0  0  0  0
   -3.8220   -3.2370    0.0507 H   0  0  0  0  0  0  0  0  0  0  0  0
   -5.9106   -3.8243    1.1666 H   0  0  0  0  0  0  0  0  0  0  0  0
   -7.4851   -2.0592    1.9151 H   0  0  0  0  0  0  0  0  0  0  0  0
   -6.9255    0.3267    1.5351 H   0  0  0  0  0  0  0  0  0  0  0  0
   -4.8501    0.9573    0.4296 H   0  0  0  0  0  0  0  0  0  0  0  0
   -1.7354   -2.1551    0.6202 H   0  0  0  0  0  0  0  0  0  0  0  0
   -2.4313    0.4416    1.8995 H   0  0  0  0  0  0  0  0  0  0  0  0
   -2.2363   -1.1845    2.5505 H   0  0  0  0  0  0  0  0  0  0  0  0
   -0.2115    0.9725    2.1917 H   0  0  0  0  0  0  0  0  0  0  0  0
   -0.1952   -0.3828    3.3372 H   0  0  0  0  0  0  0  0  0  0  0  0
    2.2251   -0.3048    2.3813 H   0  0  0  0  0  0  0  0  0  0  0  0
    1.8706    0.6756    0.9636 H   0  0  0  0  0  0  0  0  0  0  0  0
    2.7784   -2.2704    0.9088 H   0  0  0  0  0  0  0  0  0  0  0  0
    2.4886   -1.2897   -0.5157 H   0  0  0  0  0  0  0  0  0  0  0  0
    4.7361   -1.8456    2.3758 H   0  0  0  0  0  0  0  0  0  0  0  0
    7.0614   -0.9708    2.5040 H   0  0  0  0  0  0  0  0  0  0  0  0
    8.6918    2.3402   -0.5467 H   0  0  0  0  0  0  0  0  0  0  0  0
    8.6553    0.7243   -1.2746 H   0  0  0  0  0  0  0  0  0  0  0  0
    6.3566    2.6680   -0.8492 H   0  0  0  0  0  0  0  0  0  0  0  0
    6.6019    1.4894   -2.1779 H   0  0  0  0  0  0  0  0  0  0  0  0
    4.0264    0.5481   -1.1620 H   0  0  0  0  0  0  0  0  0  0  0  0
   -0.0387    0.1244   -0.4294 H   0  0  0  0  0  0  0  0  0  0  0  0
    0.1691   -1.6345   -0.5663 H   0  0  0  0  0  0  0  0  0  0  0  0
  1  2  1  0
  2  3  2  0
  2  4  1  0
  4  5  1  0
  5  6  2  0
  6  7  1  0
  7  8  2  0
  8  9  1  0
  9 10  2  0
  4 11  1  0
 11 12  2  0
 12 13  1  0
 13 14  2  0
 14 15  1  0
 15 16  2  0
  4 17  1  0
 17 18  1  0
 18 19  1  0
 19 20  1  0
 20 21  1  0
 21 22  1  0
 22 23  1  0
 23 24  1  0
 24 25  2  0
 25 26  1  0
 26 27  1  0
 27 28  1  0
 28 29  1  0
 29 30  1  0
 30 31  1  0
 20 32  1  0
 10  5  1  0
 16 11  1  0
 32 17  1  0
 31 23  2  0
 30 26  2  0
  1 33  1  0
  1 34  1  0
  6 35  1  0
  7 36  1  0
  8 37  1  0
  9 38  1  0
 10 39  1  0
 12 40  1  0
 13 41  1  0
 14 42  1  0
 15 43  1  0
 16 44  1  0
 17 45  1  1
 18 46  1  0
 18 47  1  0
 19 48  1  0
 19 49  1  0
 21 50  1  0
 21 51  1  0
 22 52  1  0
 22 53  1  0
 24 54  1  0
 25 55  1  0
 28 56  1  0
 28 57  1  0
 29 58  1  0
 29 59  1  0
 31 60  1  0
 32 61  1  0
 32 62  1  0
M  END
$$$$
OCNT-0022237
     RDKit          3D

 43 47  0  0  0  0  0  0  0  0999 V2000
   -6.0468   -0.4788    2.1631 C   0  0  0  0  0  0  0  0  0  0  0  0
   -5.2973   -0.3244    0.9630 O   0  0  0  0  0  0  0  0  0  0  0  0
   -3.9370   -0.2193    1.0530 C   0  0  0  0  0  0  0  0  0  0  0  0
   -3.2433   -0.2101    2.2663 C   0  0  0  0  0  0  0  0  0  0  0  0
   -1.8470   -0.1594    2.2940 C   0  0  0  0  0  0  0  0  0  0  0  0
   -1.1085   -0.1274    1.1060 C   0  0  0  0  0  0  0  0  0  0  0  0
    0.2894   -0.0972    1.1194 C   0  0  0  0  0  0  0  0  0  0  0  0
    1.0195   -0.0726   -0.0777 C   0  0  0  0  0  0  0  0  0  0  0  0
    2.4951   -0.0612   -0.1528 C   0  0  0  0  0  0  0  0  0  0  0  0
    3.1464   -0.5057   -1.3389 C   0  0  0  0  0  0  0  0  0  0  0  0
    4.5469   -0.5651   -1.4332 C   0  0  0  0  0  0  0  0  0  0  0  0
    5.2801   -0.1457   -0.3484 C   0  0  0  0  0  0  0  0  0  0  0  0
    6.6347   -0.1209   -0.2639 O   0  0  0  0  0  0  0  0  0  0  0  0
    6.8188    0.4025    1.0696 C   0  0  0  0  0  0  0  0  0  0  0  0
    5.5711    0.6846    1.7428 O   0  0  0  0  0  0  0  0  0  0  0  0
    4.6739    0.3112    0.7927 C   0  0  0  0  0  0  0  0  0  0  0  0
    3.2996    0.3665    0.9217 C   0  0  0  0  0  0  0  0  0  0  0  0
    2.2956   -0.9424   -2.4991 C   0  0  0  0  0  0  0  0  0  0  0  0
    1.0665   -0.0533   -2.5578 C   0  0  0  0  0  0  0  0  0  0  0  0
    0.3423   -0.0977   -1.2601 N   0  0  0  0  0  0  0  0  0  0  0  0
   -1.0115   -0.1124   -1.2881 C   0  0  0  0  0  0  0  0  0  0  0  0
   -1.7845   -0.1295   -0.1226 C   0  0  0  0  0  0  0  0  0  0  0  0
   -3.2037   -0.1467   -0.1478 C   0  0  0  0  0  0  0  0  0  0  0  0
   -3.7458   -0.1466   -1.4151 O   0  0  0  0  0  0  0  0  0  0  0  0
   -4.9975    0.5182   -1.5816 C   0  0  0  0  0  0  0  0  0  0  0  0
   -5.7568   -1.3904    2.6955 H   0  0  0  0  0  0  0  0  0  0  0  0
   -5.9498    0.4043    2.8029 H   0  0  0  0  0  0  0  0  0  0  0  0
   -7.1013   -0.5754    1.8871 H   0  0  0  0  0  0  0  0  0  0  0  0
   -3.7612   -0.2514    3.2209 H   0  0  0  0  0  0  0  0  0  0  0  0
   -1.3491   -0.1580    3.2636 H   0  0  0  0  0  0  0  0  0  0  0  0
    0.8085   -0.1139    2.0761 H   0  0  0  0  0  0  0  0  0  0  0  0
    5.0531   -0.9214   -2.3257 H   0  0  0  0  0  0  0  0  0  0  0  0
    7.4011    1.3288    1.0067 H   0  0  0  0  0  0  0  0  0  0  0  0
    7.3796   -0.3302    1.6612 H   0  0  0  0  0  0  0  0  0  0  0  0
    2.8879    0.7454    1.8521 H   0  0  0  0  0  0  0  0  0  0  0  0
    2.0119   -1.9918   -2.3573 H   0  0  0  0  0  0  0  0  0  0  0  0
    2.8476   -0.8604   -3.4419 H   0  0  0  0  0  0  0  0  0  0  0  0
    1.3170    1.0005   -2.7309 H   0  0  0  0  0  0  0  0  0  0  0  0
    0.3970   -0.3953   -3.3537 H   0  0  0  0  0  0  0  0  0  0  0  0
   -1.4776   -0.1092   -2.2706 H   0  0  0  0  0  0  0  0  0  0  0  0
   -5.8249   -0.1736   -1.3998 H   0  0  0  0  0  0  0  0  0  0  0  0
   -5.0629    0.8341   -2.6276 H   0  0  0  0  0  0  0  0  0  0  0  0
   -5.0772    1.4186   -0.9629 H   0  0  0  0  0  0  0  0  0  0  0  0
  1  2  1  0
  2  3  1  0
  3  4  2  0
  4  5  1  0
  5  6  2  0
  6  7  1  0
  7  8  2  0
  8  9  1  0
  9 10  2  0
 10 11  1  0
 11 12  2  0
 12 13  1  0
 13 14  1  0
 14 15  1  0
 15 16  1  0
 16 17  2  0
 10 18  1  0
 18 19  1  0
 19 20  1  0
 20 21  2  0
 21 22  1  0
 22 23  2  0
 23 24  1  0
 24 25  1  0
 23  3  1  0
 22  6  1  0
 20  8  1  0
 17  9  1  0
 16 12  1  0
  1 26  1  0
  1 27  1  0
  1 28  1  0
  4 29  1  0
  5 30  1  0
  7 31  1  0
 11 32  1  0
 14 33  1  0
 14 34  1  0
 17 35  1  0
 18 36  1  0
 18 37  1  0
 19 38  1  0
 19 39  1  0
 21 40  1  0
 25 41  1  0
 25 42  1  0
 25 43  1  0
M  CHG  1  20   1
M  END
$$$$
OCNT-0022246
     RDKit          3D

 52 55  0  0  0  0  0  0  0  0999 V2000
    6.4782   -0.3970   -0.5834 C   0  0  0  0  0  0  0  0  0  0  0  0
    5.1465   -0.9893   -0.5077 N   0  0  0  0  0  0  0  0  0  0  0  0
    4.4191   -0.4925    0.6751 C   0  0  0  0  0  0  0  0  0  0  0  0
    2.8901   -0.6977    0.5731 C   0  0  0  0  0  0  0  0  0  0  0  0
    2.2558   -0.0487   -0.5968 N   0  0  0  0  0  0  0  0  0  0  0  0
    1.4583    1.1315   -0.2474 C   0  0  0  0  0  0  0  0  0  0  0  0
    0.1350    0.7816    0.4438 C   0  0  0  0  0  0  0  0  0  0  0  0
   -0.7706   -0.0886   -0.4420 C   0  0  0  0  0  0  0  0  0  0  0  0
   -2.0782   -0.3468    0.2122 N   0  0  0  0  0  0  0  0  0  0  0  0
   -2.1817   -1.5319    1.0010 C   0  0  0  0  0  0  0  0  0  0  0  0
   -1.0461   -2.2692    1.4106 C   0  0  0  0  0  0  0  0  0  0  0  0
   -1.1365   -3.4264    2.1942 C   0  0  0  0  0  0  0  0  0  0  0  0
   -2.3747   -3.8898    2.6028 C   0  0  0  0  0  0  0  0  0  0  0  0
   -3.5149   -3.1910    2.2254 C   0  0  0  0  0  0  0  0  0  0  0  0
   -3.4282   -2.0248    1.4377 C   0  0  0  0  0  0  0  0  0  0  0  0
   -4.9834   -1.2733    1.0230 S   0  0  0  0  0  0  0  0  0  0  0  0
   -4.4786    0.2547    0.2722 C   0  0  0  0  0  0  0  0  0  0  0  0
   -3.1444    0.5571   -0.0644 C   0  0  0  0  0  0  0  0  0  0  0  0
   -2.9270    1.8179   -0.6688 C   0  0  0  0  0  0  0  0  0  0  0  0
   -3.9630    2.7365   -0.9352 C   0  0  0  0  0  0  0  0  0  0  0  0
   -3.6569    4.0554   -1.6001 C   0  0  0  0  0  0  0  0  0  0  0  0
   -3.6135    3.9529   -2.9567 F   0  0  0  0  0  0  0  0  0  0  0  0
   -2.4513    4.5704   -1.2268 F   0  0  0  0  0  0  0  0  0  0  0  0
   -4.5743    5.0240   -1.3257 F   0  0  0  0  0  0  0  0  0  0  0  0
   -5.2695    2.3898   -0.6032 C   0  0  0  0  0  0  0  0  0  0  0  0
   -5.5215    1.1614   -0.0019 C   0  0  0  0  0  0  0  0  0  0  0  0
    3.2608    0.2839   -1.6290 C   0  0  0  0  0  0  0  0  0  0  0  0
    4.3741   -0.7802   -1.7479 C   0  0  0  0  0  0  0  0  0  0  0  0
    7.0523   -0.8465   -1.4012 H   0  0  0  0  0  0  0  0  0  0  0  0
    7.0395   -0.5913    0.3373 H   0  0  0  0  0  0  0  0  0  0  0  0
    6.4398    0.6865   -0.7434 H   0  0  0  0  0  0  0  0  0  0  0  0
    4.6102    0.5780    0.8325 H   0  0  0  0  0  0  0  0  0  0  0  0
    4.7898   -1.0184    1.5628 H   0  0  0  0  0  0  0  0  0  0  0  0
    2.6892   -1.7741    0.4955 H   0  0  0  0  0  0  0  0  0  0  0  0
    2.4331   -0.3789    1.5166 H   0  0  0  0  0  0  0  0  0  0  0  0
    2.0373    1.8159    0.3859 H   0  0  0  0  0  0  0  0  0  0  0  0
    1.2082    1.6893   -1.1599 H   0  0  0  0  0  0  0  0  0  0  0  0
    0.3198    0.2925    1.4056 H   0  0  0  0  0  0  0  0  0  0  0  0
   -0.3738    1.7196    0.6951 H   0  0  0  0  0  0  0  0  0  0  0  0
   -0.9095    0.3816   -1.4240 H   0  0  0  0  0  0  0  0  0  0  0  0
   -0.2758   -1.0300   -0.7104 H   0  0  0  0  0  0  0  0  0  0  0  0
   -0.0404   -1.9618    1.1427 H   0  0  0  0  0  0  0  0  0  0  0  0
   -0.2326   -3.9576    2.4813 H   0  0  0  0  0  0  0  0  0  0  0  0
   -2.4563   -4.7870    3.2096 H   0  0  0  0  0  0  0  0  0  0  0  0
   -4.4853   -3.5631    2.5483 H   0  0  0  0  0  0  0  0  0  0  0  0
   -1.9250    2.1395   -0.9401 H   0  0  0  0  0  0  0  0  0  0  0  0
   -6.0956    3.0695   -0.8047 H   0  0  0  0  0  0  0  0  0  0  0  0
   -6.5488    0.9069    0.2549 H   0  0  0  0  0  0  0  0  0  0  0  0
    3.7289    1.2555   -1.4189 H   0  0  0  0  0  0  0  0  0  0  0  0
    2.7531    0.3728   -2.5968 H   0  0  0  0  0  0  0  0  0  0  0  0
    3.9095   -1.7395   -2.0110 H   0  0  0  0  0  0  0  0  0  0  0  0
    5.0287   -0.5289   -2.5919 H   0  0  0  0  0  0  0  0  0  0  0  0
  1  2  1  0
  2  3  1  0
  3  4  1  0
  4  5  1  0
  5  6  1  0
  6  7  1  0
  7  8  1  0
  8  9  1  0
  9 10  1  0
 10 11  2  0
 11 12  1  0
 12 13  2  0
 13 14  1  0
 14 15  2  0
 15 16  1  0
 16 17  1  0
 17 18  2  0
 18 19  1  0
 19 20  2  0
 20 21  1  0
 21 22  1  0
 21 23  1  0
 21 24  1  0
 20 25  1  0
 25 26  2  0
  5 27  1  0
 27 28  1  0
 28  2  1  0
 18  9  1  0
 15 10  1  0
 26 17  1  0
  1 29  1  0
  1 30  1  0
  1 31  1  0
  3 32  1  0
  3 33  1  0
  4 34  1  0
  4 35  1  0
  6 36  1  0
  6 37  1  0
  7 38  1  0
  7 39  1  0
  8 40  1  0
  8 41  1  0
 11 42  1  0
 12 43  1  0
 13 44  1  0
 14 45  1  0
 19 46  1  0
 25 47  1  0
 26 48  1  0
 27 49  1  0
 27 50  1  0
 28 51  1  0
 28 52  1  0
M  END
$$$$
OCNT-0022254
     RDKit          3D

 43 45  0  0  0  0  0  0  0  0999 V2000
    4.5455   -0.7979    1.1133 C   0  0  0  0  0  0  0  0  0  0  0  0
    3.1007   -0.8395    0.8662 N   0  0  0  0  0  0  0  0  0  0  0  0
    2.5476   -2.0806    1.4171 C   0  0  0  0  0  0  0  0  0  0  0  0
    2.4571    0.3528    1.4430 C   0  0  0  0  0  0  0  0  0  0  0  0
    0.9867    0.5289    1.0442 C   0  0  0  0  0  0  0  0  0  0  0  0
    0.8007    0.6047   -0.4787 C   0  0  0  0  0  0  0  0  0  0  0  0
   -0.6285    0.8105   -0.8496 N   0  0  0  0  0  0  0  0  0  0  0  0
   -1.0881    2.1458   -0.6732 C   0  0  0  0  0  0  0  0  0  0  0  0
   -2.2748    2.4435    0.0225 C   0  0  0  0  0  0  0  0  0  0  0  0
   -2.6996    3.7756    0.1655 C   0  0  0  0  0  0  0  0  0  0  0  0
   -1.9713    4.8214   -0.3968 C   0  0  0  0  0  0  0  0  0  0  0  0
   -0.8160    4.5427   -1.1140 C   0  0  0  0  0  0  0  0  0  0  0  0
   -0.3854    3.2207   -1.2546 C   0  0  0  0  0  0  0  0  0  0  0  0
   -3.2790    1.1917    0.7955 S   0  0  0  0  0  0  0  0  0  0  0  0
   -2.6682   -0.2913    0.0220 C   0  0  0  0  0  0  0  0  0  0  0  0
   -3.4465   -1.4508    0.1714 C   0  0  0  0  0  0  0  0  0  0  0  0
   -3.0373   -2.6635   -0.3816 C   0  0  0  0  0  0  0  0  0  0  0  0
   -1.8475   -2.7348   -1.1093 C   0  0  0  0  0  0  0  0  0  0  0  0
   -1.3881   -4.0403   -1.7078 C   0  0  0  0  0  0  0  0  0  0  0  0
   -0.6504   -4.7760   -0.8308 F   0  0  0  0  0  0  0  0  0  0  0  0
   -0.6069   -3.8838   -2.8127 F   0  0  0  0  0  0  0  0  0  0  0  0
   -2.4190   -4.8430   -2.0934 F   0  0  0  0  0  0  0  0  0  0  0  0
   -1.0677   -1.5733   -1.2455 C   0  0  0  0  0  0  0  0  0  0  0  0
   -1.4461   -0.3410   -0.6727 C   0  0  0  0  0  0  0  0  0  0  0  0
    4.7825   -0.7996    2.1838 H   0  0  0  0  0  0  0  0  0  0  0  0
    5.0414   -1.6568    0.6472 H   0  0  0  0  0  0  0  0  0  0  0  0
    4.9871    0.0980    0.6626 H   0  0  0  0  0  0  0  0  0  0  0  0
    2.6492   -2.1294    2.5077 H   0  0  0  0  0  0  0  0  0  0  0  0
    1.4901   -2.1938    1.1591 H   0  0  0  0  0  0  0  0  0  0  0  0
    3.0572   -2.9505    0.9873 H   0  0  0  0  0  0  0  0  0  0  0  0
    2.9934    1.2484    1.1027 H   0  0  0  0  0  0  0  0  0  0  0  0
    2.5331    0.3409    2.5382 H   0  0  0  0  0  0  0  0  0  0  0  0
    0.3794   -0.2776    1.4696 H   0  0  0  0  0  0  0  0  0  0  0  0
    0.6180    1.4532    1.5070 H   0  0  0  0  0  0  0  0  0  0  0  0
    1.1959   -0.2997   -0.9519 H   0  0  0  0  0  0  0  0  0  0  0  0
    1.4355    1.4040   -0.8769 H   0  0  0  0  0  0  0  0  0  0  0  0
   -3.6088    4.0046    0.7171 H   0  0  0  0  0  0  0  0  0  0  0  0
   -2.3138    5.8465   -0.2849 H   0  0  0  0  0  0  0  0  0  0  0  0
   -0.2536    5.3490   -1.5775 H   0  0  0  0  0  0  0  0  0  0  0  0
    0.4960    3.0361   -1.8632 H   0  0  0  0  0  0  0  0  0  0  0  0
   -4.3825   -1.4145    0.7254 H   0  0  0  0  0  0  0  0  0  0  0  0
   -3.6586   -3.5480   -0.2500 H   0  0  0  0  0  0  0  0  0  0  0  0
   -0.1593   -1.6332   -1.8432 H   0  0  0  0  0  0  0  0  0  0  0  0
  1  2  1  0
  2  3  1  0
  2  4  1  0
  4  5  1  0
  5  6  1  0
  6  7  1  0
  7  8  1  0
  8  9  1  0
  9 10  2  0
 10 11  1  0
 11 12  2  0
 12 13  1  0
  9 14  1  0
 14 15  1  0
 15 16  1  0
 16 17  2  0
 17 18  1  0
 18 19  1  0
 19 20  1  0
 19 21  1  0
 19 22  1  0
 18 23  2  0
 23 24  1  0
 24  7  1  0
 13  8  2  0
 24 15  2  0
  1 25  1  0
  1 26  1  0
  1 27  1  0
  3 28  1  0
  3 29  1  0
  3 30  1  0
  4 31  1  0
  4 32  1  0
  5 33  1  0
  5 34  1  0
  6 35  1  0
  6 36  1  0
 10 37  1  0
 11 38  1  0
 12 39  1  0
 13 40  1  0
 16 41  1  0
 17 42  1  0
 23 43  1  0
M  END
$$$$
OCNT-0022266
     RDKit          3D

 40 42  0  0  0  0  0  0  0  0999 V2000
   -1.5705   -1.3515   -0.9232 C   0  0  0  0  0  0  0  0  0  0  0  0
   -1.6471   -0.1465    0.0254 C   0  0  0  0  0  0  0  0  0  0  0  0
   -0.4923   -0.1490    1.0831 C   0  0  0  0  0  0  0  0  0  0  0  0
    0.8439    0.1441    0.4920 N   0  0  0  0  0  0  0  0  0  0  0  0
    1.1450    1.5265    0.2608 C   0  0  0  0  0  0  0  0  0  0  0  0
    0.2193    2.5650    0.5309 C   0  0  0  0  0  0  0  0  0  0  0  0
    0.5039    3.9189    0.3078 C   0  0  0  0  0  0  0  0  0  0  0  0
    1.7348    4.2920   -0.1983 C   0  0  0  0  0  0  0  0  0  0  0  0
    2.6715    3.3061   -0.4785 C   0  0  0  0  0  0  0  0  0  0  0  0
    2.3891    1.9411   -0.2556 C   0  0  0  0  0  0  0  0  0  0  0  0
    3.7093    0.8344   -0.6736 S   0  0  0  0  0  0  0  0  0  0  0  0
    3.0300   -0.7521   -0.2629 C   0  0  0  0  0  0  0  0  0  0  0  0
    3.9015   -1.8383   -0.4958 C   0  0  0  0  0  0  0  0  0  0  0  0
    3.5132   -3.1438   -0.2302 C   0  0  0  0  0  0  0  0  0  0  0  0
    2.2452   -3.3725    0.2690 C   0  0  0  0  0  0  0  0  0  0  0  0
    1.3773   -2.2960    0.5020 C   0  0  0  0  0  0  0  0  0  0  0  0
    1.7310   -0.9487    0.2517 C   0  0  0  0  0  0  0  0  0  0  0  0
   -2.9649    0.0148    0.7000 N   0  0  0  0  0  0  0  0  0  0  0  0
   -3.4341   -1.1779    1.4031 C   0  0  0  0  0  0  0  0  0  0  0  0
   -3.9976    0.5044   -0.2147 C   0  0  0  0  0  0  0  0  0  0  0  0
   -1.6156   -2.3026   -0.3840 H   0  0  0  0  0  0  0  0  0  0  0  0
   -0.6394   -1.3324   -1.4984 H   0  0  0  0  0  0  0  0  0  0  0  0
   -2.3851   -1.3401   -1.6541 H   0  0  0  0  0  0  0  0  0  0  0  0
   -1.5033    0.7406   -0.6035 H   0  0  0  0  0  0  0  0  0  0  0  0
   -0.7054    0.5805    1.8762 H   0  0  0  0  0  0  0  0  0  0  0  0
   -0.5072   -1.0779    1.6585 H   0  0  0  0  0  0  0  0  0  0  0  0
   -0.7734    2.3654    0.9228 H   0  0  0  0  0  0  0  0  0  0  0  0
   -0.2459    4.6732    0.5332 H   0  0  0  0  0  0  0  0  0  0  0  0
    1.9672    5.3380   -0.3750 H   0  0  0  0  0  0  0  0  0  0  0  0
    3.6388    3.6069   -0.8772 H   0  0  0  0  0  0  0  0  0  0  0  0
    4.9004   -1.6637   -0.8918 H   0  0  0  0  0  0  0  0  0  0  0  0
    4.1943   -3.9692   -0.4145 H   0  0  0  0  0  0  0  0  0  0  0  0
    1.9176   -4.3874    0.4801 H   0  0  0  0  0  0  0  0  0  0  0  0
    0.4030   -2.5785    0.8812 H   0  0  0  0  0  0  0  0  0  0  0  0
   -2.6927   -1.5365    2.1235 H   0  0  0  0  0  0  0  0  0  0  0  0
   -4.3336   -0.9433    1.9840 H   0  0  0  0  0  0  0  0  0  0  0  0
   -3.6825   -1.9986    0.7216 H   0  0  0  0  0  0  0  0  0  0  0  0
   -4.2523   -0.2227   -0.9927 H   0  0  0  0  0  0  0  0  0  0  0  0
   -3.6801    1.4347   -0.6986 H   0  0  0  0  0  0  0  0  0  0  0  0
   -4.9134    0.7425    0.3382 H   0  0  0  0  0  0  0  0  0  0  0  0
  1  2  1  0
  2  3  1  0
  3  4  1  0
  4  5  1  0
  5  6  2  0
  6  7  1  0
  7  8  2  0
  8  9  1  0
  9 10  2  0
 10 11  1  0
 11 12  1  0
 12 13  2  0
 13 14  1  0
 14 15  2  0
 15 16  1  0
 16 17  2  0
  2 18  1  0
 18 19  1  0
 18 20  1  0
 17  4  1  0
 10  5  1  0
 17 12  1  0
  1 21  1  0
  1 22  1  0
  1 23  1  0
  2 24  1  0
  3 25  1  0
  3 26  1  0
  6 27  1  0
  7 28  1  0
  8 29  1  0
  9 30  1  0
 13 31  1  0
 14 32  1  0
 15 33  1  0
 16 34  1  0
 19 35  1  0
 19 36  1  0
 19 37  1  0
 20 38  1  0
 20 39  1  0
 20 40  1  0
M  END
$$$$
OCNT-0022267
     RDKit          3D

 40 42  0  0  0  0  0  0  0  0999 V2000
    3.6274   -1.5966    0.4495 C   0  0  0  0  0  0  0  0  0  0  0  0
    3.3778   -0.3590   -0.2957 N   0  0  0  0  0  0  0  0  0  0  0  0
    4.6464    0.1537   -0.8240 C   0  0  0  0  0  0  0  0  0  0  0  0
    2.7315    0.6623    0.5442 C   0  0  0  0  0  0  0  0  0  0  0  0
    1.2614    0.3649    0.8630 C   0  0  0  0  0  0  0  0  0  0  0  0
    0.4028    0.2520   -0.4063 C   0  0  0  0  0  0  0  0  0  0  0  0
   -1.0419    0.1660   -0.0760 N   0  0  0  0  0  0  0  0  0  0  0  0
   -1.6017   -1.1375    0.0680 C   0  0  0  0  0  0  0  0  0  0  0  0
   -0.7991   -2.2933    0.2067 C   0  0  0  0  0  0  0  0  0  0  0  0
   -1.3382   -3.5767    0.3614 C   0  0  0  0  0  0  0  0  0  0  0  0
   -2.7105   -3.7518    0.3864 C   0  0  0  0  0  0  0  0  0  0  0  0
   -3.5344   -2.6404    0.2578 C   0  0  0  0  0  0  0  0  0  0  0  0
   -2.9955   -1.3466    0.1035 C   0  0  0  0  0  0  0  0  0  0  0  0
   -4.1914   -0.0452   -0.0751 S   0  0  0  0  0  0  0  0  0  0  0  0
   -3.1808    1.4133    0.0083 C   0  0  0  0  0  0  0  0  0  0  0  0
   -3.8883    2.6310    0.0758 C   0  0  0  0  0  0  0  0  0  0  0  0
   -3.2208    3.8485    0.1284 C   0  0  0  0  0  0  0  0  0  0  0  0
   -1.8372    3.8571    0.1149 C   0  0  0  0  0  0  0  0  0  0  0  0
   -1.1304    2.6498    0.0458 C   0  0  0  0  0  0  0  0  0  0  0  0
   -1.7715    1.3903   -0.0165 C   0  0  0  0  0  0  0  0  0  0  0  0
    4.2683   -1.4312    1.3232 H   0  0  0  0  0  0  0  0  0  0  0  0
    2.6929   -2.0530    0.7882 H   0  0  0  0  0  0  0  0  0  0  0  0
    4.1115   -2.3397   -0.1945 H   0  0  0  0  0  0  0  0  0  0  0  0
    5.3522    0.4123   -0.0262 H   0  0  0  0  0  0  0  0  0  0  0  0
    4.4756    1.0453   -1.4377 H   0  0  0  0  0  0  0  0  0  0  0  0
    5.1193   -0.5873   -1.4783 H   0  0  0  0  0  0  0  0  0  0  0  0
    2.7568    1.6294    0.0241 H   0  0  0  0  0  0  0  0  0  0  0  0
    3.2865    0.8022    1.4811 H   0  0  0  0  0  0  0  0  0  0  0  0
    0.8857    1.1735    1.5012 H   0  0  0  0  0  0  0  0  0  0  0  0
    1.1757   -0.5403    1.4728 H   0  0  0  0  0  0  0  0  0  0  0  0
    0.5983    1.0973   -1.0786 H   0  0  0  0  0  0  0  0  0  0  0  0
    0.7189   -0.6021   -1.0178 H   0  0  0  0  0  0  0  0  0  0  0  0
    0.2838   -2.2348    0.2114 H   0  0  0  0  0  0  0  0  0  0  0  0
   -0.6766   -4.4330    0.4640 H   0  0  0  0  0  0  0  0  0  0  0  0
   -3.1396   -4.7424    0.5049 H   0  0  0  0  0  0  0  0  0  0  0  0
   -4.6129   -2.7855    0.2759 H   0  0  0  0  0  0  0  0  0  0  0  0
   -4.9767    2.6318    0.0865 H   0  0  0  0  0  0  0  0  0  0  0  0
   -3.7792    4.7786    0.1812 H   0  0  0  0  0  0  0  0  0  0  0  0
   -1.2972    4.7993    0.1618 H   0  0  0  0  0  0  0  0  0  0  0  0
   -0.0493    2.7374    0.0589 H   0  0  0  0  0  0  0  0  0  0  0  0
  1  2  1  0
  2  3  1  0
  2  4  1  0
  4  5  1  0
  5  6  1  0
  6  7  1  0
  7  8  1  0
  8  9  2  0
  9 10  1  0
 10 11  2  0
 11 12  1  0
 12 13  2  0
 13 14  1  0
 14 15  1  0
 15 16  2  0
 16 17  1  0
 17 18  2  0
 18 19  1  0
 19 20  2  0
 20  7  1  0
 13  8  1  0
 20 15  1  0
  1 21  1  0
  1 22  1  0
  1 23  1  0
  3 24  1  0
  3 25  1  0
  3 26  1  0
  4 27  1  0
  4 28  1  0
  5 29  1  0
  5 30  1  0
  6 31  1  0
  6 32  1  0
  9 33  1  0
 10 34  1  0
 11 35  1  0
 12 36  1  0
 16 37  1  0
 17 38  1  0
 18 39  1  0
 19 40  1  0
M  END
$$$$
OCNT-0022268
     RDKit          3D

 49 52  0  0  0  0  0  0  0  0999 V2000
    5.8094    1.1044    0.2964 C   0  0  0  0  0  0  0  0  0  0  0  0
    4.4657    0.7955    0.7649 N   0  0  0  0  0  0  0  0  0  0  0  0
    3.4317    1.4038   -0.0946 C   0  0  0  0  0  0  0  0  0  0  0  0
    2.0704    0.6541   -0.1329 C   0  0  0  0  0  0  0  0  0  0  0  0
    1.7784   -0.0426    1.1123 N   0  0  0  0  0  0  0  0  0  0  0  0
    0.4204   -0.5563    1.2765 C   0  0  0  0  0  0  0  0  0  0  0  0
   -0.0591   -1.6508    0.3086 C   0  0  0  0  0  0  0  0  0  0  0  0
   -0.7211   -1.1570   -0.9887 C   0  0  0  0  0  0  0  0  0  0  0  0
   -2.0037   -0.4411   -0.7720 N   0  0  0  0  0  0  0  0  0  0  0  0
   -1.9795    0.9695   -0.9264 C   0  0  0  0  0  0  0  0  0  0  0  0
   -1.2870    1.5723   -1.9961 C   0  0  0  0  0  0  0  0  0  0  0  0
   -1.2588    2.9595   -2.1690 C   0  0  0  0  0  0  0  0  0  0  0  0
   -1.9401    3.7818   -1.2827 C   0  0  0  0  0  0  0  0  0  0  0  0
   -2.6641    3.2131   -0.2382 C   0  0  0  0  0  0  0  0  0  0  0  0
   -2.7017    1.8192   -0.0652 C   0  0  0  0  0  0  0  0  0  0  0  0
   -3.6655    1.2014    1.3010 S   0  0  0  0  0  0  0  0  0  0  0  0
   -3.8736   -0.5074    0.8388 C   0  0  0  0  0  0  0  0  0  0  0  0
   -4.8946   -1.2205    1.4902 C   0  0  0  0  0  0  0  0  0  0  0  0
   -5.1091   -2.5682    1.2118 C   0  0  0  0  0  0  0  0  0  0  0  0
   -4.3034   -3.2040    0.2778 C   0  0  0  0  0  0  0  0  0  0  0  0
   -4.5673   -4.8653   -0.0868 Cl  0  0  0  0  0  0  0  0  0  0  0  0
   -3.2829   -2.5064   -0.3718 C   0  0  0  0  0  0  0  0  0  0  0  0
   -3.0331   -1.1472   -0.0961 C   0  0  0  0  0  0  0  0  0  0  0  0
    2.8459   -0.9731    1.5047 C   0  0  0  0  0  0  0  0  0  0  0  0
    4.2446   -0.6461    0.9140 C   0  0  0  0  0  0  0  0  0  0  0  0
    6.5591    0.7212    0.9974 H   0  0  0  0  0  0  0  0  0  0  0  0
    5.9569    2.1885    0.2382 H   0  0  0  0  0  0  0  0  0  0  0  0
    6.0119    0.6744   -0.6911 H   0  0  0  0  0  0  0  0  0  0  0  0
    3.2609    2.4232    0.2727 H   0  0  0  0  0  0  0  0  0  0  0  0
    3.7820    1.4919   -1.1315 H   0  0  0  0  0  0  0  0  0  0  0  0
    1.2877    1.3869   -0.3570 H   0  0  0  0  0  0  0  0  0  0  0  0
    2.1012   -0.0646   -0.9609 H   0  0  0  0  0  0  0  0  0  0  0  0
   -0.2771    0.2872    1.2765 H   0  0  0  0  0  0  0  0  0  0  0  0
    0.3499   -0.9632    2.2945 H   0  0  0  0  0  0  0  0  0  0  0  0
    0.7769   -2.3043    0.0341 H   0  0  0  0  0  0  0  0  0  0  0  0
   -0.7549   -2.2979    0.8554 H   0  0  0  0  0  0  0  0  0  0  0  0
   -0.8951   -2.0163   -1.6476 H   0  0  0  0  0  0  0  0  0  0  0  0
    0.0073   -0.5559   -1.5364 H   0  0  0  0  0  0  0  0  0  0  0  0
   -0.7847    0.9642   -2.7433 H   0  0  0  0  0  0  0  0  0  0  0  0
   -0.7145    3.3919   -3.0045 H   0  0  0  0  0  0  0  0  0  0  0  0
   -1.9227    4.8608   -1.4100 H   0  0  0  0  0  0  0  0  0  0  0  0
   -3.2068    3.8653    0.4427 H   0  0  0  0  0  0  0  0  0  0  0  0
   -5.5300   -0.7252    2.2217 H   0  0  0  0  0  0  0  0  0  0  0  0
   -5.9035   -3.1071    1.7204 H   0  0  0  0  0  0  0  0  0  0  0  0
   -2.6993   -3.0339   -1.1194 H   0  0  0  0  0  0  0  0  0  0  0  0
    2.9172   -0.9489    2.5991 H   0  0  0  0  0  0  0  0  0  0  0  0
    2.6077   -2.0053    1.2248 H   0  0  0  0  0  0  0  0  0  0  0  0
    5.0039   -1.0808    1.5755 H   0  0  0  0  0  0  0  0  0  0  0  0
    4.3442   -1.1409   -0.0617 H   0  0  0  0  0  0  0  0  0  0  0  0
  1  2  1  0
  2  3  1  0
  3  4  1  0
  4  5  1  0
  5  6  1  0
  6  7  1  0
  7  8  1  0
  8  9  1  0
  9 10  1  0
 10 11  2  0
 11 12  1  0
 12 13  2  0
 13 14  1  0
 14 15  2  0
 15 16  1  0
 16 17  1  0
 17 18  1  0
 18 19  2  0
 19 20  1  0
 20 21  1  0
 20 22  2  0
 22 23  1  0
  5 24  1  0
 24 25  1  0
 25  2  1  0
 23  9  1  0
 15 10  1  0
 23 17  2  0
  1 26  1  0
  1 27  1  0
  1 28  1  0
  3 29  1  0
  3 30  1  0
  4 31  1  0
  4 32  1  0
  6 33  1  0
  6 34  1  0
  7 35  1  0
  7 36  1  0
  8 37  1  0
  8 38  1  0
 11 39  1  0
 12 40  1  0
 13 41  1  0
 14 42  1  0
 18 43  1  0
 19 44  1  0
 22 45  1  0
 24 46  1  0
 24 47  1  0
 25 48  1  0
 25 49  1  0
M  END
$$$$
OCNT-0022269
     RDKit          3D

 59 62  0  0  0  0  0  0  0  0999 V2000
   -4.0391    5.0363   -0.2218 C   0  0  0  0  0  0  0  0  0  0  0  0
   -3.3427    3.8133    0.3153 C   0  0  0  0  0  0  0  0  0  0  0  0
   -2.3301    3.9090    1.0057 O   0  0  0  0  0  0  0  0  0  0  0  0
   -3.9094    2.4661    0.0106 C   0  0  0  0  0  0  0  0  0  0  0  0
   -5.1738    2.3064   -0.5425 C   0  0  0  0  0  0  0  0  0  0  0  0
   -5.6456    1.0213   -0.7940 C   0  0  0  0  0  0  0  0  0  0  0  0
   -4.8681   -0.1157   -0.4966 C   0  0  0  0  0  0  0  0  0  0  0  0
   -5.6415   -1.6743   -0.8511 S   0  0  0  0  0  0  0  0  0  0  0  0
   -4.3092   -2.8234   -0.6050 C   0  0  0  0  0  0  0  0  0  0  0  0
   -3.0711   -2.4713   -0.0299 C   0  0  0  0  0  0  0  0  0  0  0  0
   -2.1295   -3.5182    0.1026 C   0  0  0  0  0  0  0  0  0  0  0  0
   -2.3991   -4.8337   -0.2956 C   0  0  0  0  0  0  0  0  0  0  0  0
   -3.6273   -5.1513   -0.8482 C   0  0  0  0  0  0  0  0  0  0  0  0
   -4.5773   -4.1492   -1.0022 C   0  0  0  0  0  0  0  0  0  0  0  0
   -2.7839   -1.1325    0.3695 N   0  0  0  0  0  0  0  0  0  0  0  0
   -1.6041   -0.9238    1.2429 C   0  0  0  0  0  0  0  0  0  0  0  0
   -0.3350   -0.6321    0.4283 C   0  0  0  0  0  0  0  0  0  0  0  0
    0.8625   -0.4237    1.3629 C   0  0  0  0  0  0  0  0  0  0  0  0
    2.0901   -0.0699    0.6389 N   0  0  0  0  0  0  0  0  0  0  0  0
    3.0667    0.5575    1.5463 C   0  0  0  0  0  0  0  0  0  0  0  0
    4.5220    0.4959    1.0552 C   0  0  0  0  0  0  0  0  0  0  0  0
    4.5996    0.5000   -0.4733 C   0  0  0  0  0  0  0  0  0  0  0  0
    6.0434    0.4540   -1.0107 C   0  0  0  0  0  0  0  0  0  0  0  0
    6.9075    1.6512   -0.6263 C   0  0  0  0  0  0  0  0  0  0  0  0
    6.3136    2.8523   -1.0929 O   0  0  0  0  0  0  0  0  0  0  0  0
    3.7849   -0.6843   -1.0360 C   0  0  0  0  0  0  0  0  0  0  0  0
    2.6885   -1.1879   -0.0872 C   0  0  0  0  0  0  0  0  0  0  0  0
   -3.5850    0.0090    0.0719 C   0  0  0  0  0  0  0  0  0  0  0  0
   -3.1351    1.3293    0.3070 C   0  0  0  0  0  0  0  0  0  0  0  0
   -4.9719    5.2055    0.3219 H   0  0  0  0  0  0  0  0  0  0  0  0
   -4.2266    4.9321   -1.2937 H   0  0  0  0  0  0  0  0  0  0  0  0
   -3.3914    5.9076   -0.0827 H   0  0  0  0  0  0  0  0  0  0  0  0
   -5.8128    3.1513   -0.7784 H   0  0  0  0  0  0  0  0  0  0  0  0
   -6.6394    0.9050   -1.2245 H   0  0  0  0  0  0  0  0  0  0  0  0
   -1.1379   -3.3444    0.5066 H   0  0  0  0  0  0  0  0  0  0  0  0
   -1.6402   -5.6027   -0.1751 H   0  0  0  0  0  0  0  0  0  0  0  0
   -3.8466   -6.1682   -1.1607 H   0  0  0  0  0  0  0  0  0  0  0  0
   -5.5409   -4.4065   -1.4380 H   0  0  0  0  0  0  0  0  0  0  0  0
   -1.7880   -0.1210    1.9686 H   0  0  0  0  0  0  0  0  0  0  0  0
   -1.4439   -1.7892    1.8990 H   0  0  0  0  0  0  0  0  0  0  0  0
   -0.1450   -1.4545   -0.2676 H   0  0  0  0  0  0  0  0  0  0  0  0
   -0.4740    0.2606   -0.1924 H   0  0  0  0  0  0  0  0  0  0  0  0
    0.6013    0.3969    2.0447 H   0  0  0  0  0  0  0  0  0  0  0  0
    1.0231   -1.3142    1.9842 H   0  0  0  0  0  0  0  0  0  0  0  0
    2.7803    1.6089    1.6724 H   0  0  0  0  0  0  0  0  0  0  0  0
    3.0354    0.0978    2.5431 H   0  0  0  0  0  0  0  0  0  0  0  0
    4.9978   -0.4157    1.4402 H   0  0  0  0  0  0  0  0  0  0  0  0
    5.0686    1.3431    1.4828 H   0  0  0  0  0  0  0  0  0  0  0  0
    4.1283    1.4258   -0.8314 H   0  0  0  0  0  0  0  0  0  0  0  0
    5.9947    0.4057   -2.1065 H   0  0  0  0  0  0  0  0  0  0  0  0
    6.5389   -0.4630   -0.6694 H   0  0  0  0  0  0  0  0  0  0  0  0
    7.8958    1.5557   -1.0877 H   0  0  0  0  0  0  0  0  0  0  0  0
    7.0437    1.7184    0.4567 H   0  0  0  0  0  0  0  0  0  0  0  0
    6.8956    3.5841   -0.8270 H   0  0  0  0  0  0  0  0  0  0  0  0
    4.4408   -1.5306   -1.2755 H   0  0  0  0  0  0  0  0  0  0  0  0
    3.3325   -0.3689   -1.9854 H   0  0  0  0  0  0  0  0  0  0  0  0
    1.9521   -1.7215   -0.6968 H   0  0  0  0  0  0  0  0  0  0  0  0
    3.1039   -1.9248    0.6131 H   0  0  0  0  0  0  0  0  0  0  0  0
   -2.1461    1.5165    0.7156 H   0  0  0  0  0  0  0  0  0  0  0  0
  1  2  1  0
  2  3  2  0
  2  4  1  0
  4  5  1  0
  5  6  2  0
  6  7  1  0
  7  8  1  0
  8  9  1  0
  9 10  1  0
 10 11  2  0
 11 12  1  0
 12 13  2  0
 13 14  1  0
 10 15  1  0
 15 16  1  0
 16 17  1  0
 17 18  1  0
 18 19  1  0
 19 20  1  0
 20 21  1  0
 21 22  1  0
 22 23  1  0
 23 24  1  0
 24 25  1  0
 22 26  1  0
 26 27  1  0
 15 28  1  0
 28 29  1  0
 29  4  2  0
 28  7  2  0
 14  9  2  0
 27 19  1  0
  1 30  1  0
  1 31  1  0
  1 32  1  0
  5 33  1  0
  6 34  1  0
 11 35  1  0
 12 36  1  0
 13 37  1  0
 14 38  1  0
 16 39  1  0
 16 40  1  0
 17 41  1  0
 17 42  1  0
 18 43  1  0
 18 44  1  0
 20 45  1  0
 20 46  1  0
 21 47  1  0
 21 48  1  0
 22 49  1  0
 23 50  1  0
 23 51  1  0
 24 52  1  0
 24 53  1  0
 25 54  1  0
 26 55  1  0
 26 56  1  0
 27 57  1  0
 27 58  1  0
 29 59  1  0
M  END
$$$$
OCNT-0022271
     RDKit          3D

 63 67  0  0  0  0  0  0  0  0999 V2000
    3.2865   -2.7933    0.9395 O   0  0  0  0  0  0  0  0  0  0  0  0
    4.3181   -2.1446    0.9015 C   0  0  0  0  0  0  0  0  0  0  0  0
    5.5664   -2.5950    1.3556 N   0  0  0  0  0  0  0  0  0  0  0  0
    6.5091   -1.5957    1.1603 C   0  0  0  0  0  0  0  0  0  0  0  0
    7.8522   -1.6071    1.4608 C   0  0  0  0  0  0  0  0  0  0  0  0
    8.5754   -0.4512    1.1558 C   0  0  0  0  0  0  0  0  0  0  0  0
    7.9431    0.6645    0.5687 C   0  0  0  0  0  0  0  0  0  0  0  0
    6.5736    0.6490    0.2733 C   0  0  0  0  0  0  0  0  0  0  0  0
    5.8724   -0.4984    0.5790 C   0  0  0  0  0  0  0  0  0  0  0  0
    4.5158   -0.8318    0.4136 N   0  0  0  0  0  0  0  0  0  0  0  0
    3.4933    0.0340   -0.1497 C   0  0  0  0  0  0  0  0  0  0  0  0
    2.8603   -0.5605   -1.4096 C   0  0  0  0  0  0  0  0  0  0  0  0
    1.7933    0.3801   -1.9671 C   0  0  0  0  0  0  0  0  0  0  0  0
    0.7597    0.6838   -0.9651 N   0  0  0  0  0  0  0  0  0  0  0  0
   -0.2896    1.5283   -1.5589 C   0  0  0  0  0  0  0  0  0  0  0  0
   -1.5583    1.6677   -0.7029 C   0  0  0  0  0  0  0  0  0  0  0  0
   -2.1863    0.3119   -0.3413 C   0  0  0  0  0  0  0  0  0  0  0  0
   -3.4899    0.4556    0.4841 C   0  0  0  0  0  0  0  0  0  0  0  0
   -4.6116    1.1067   -0.3237 C   0  0  0  0  0  0  0  0  0  0  0  0
   -5.1357    0.4928   -1.4750 C   0  0  0  0  0  0  0  0  0  0  0  0
   -6.1614    1.1015   -2.1998 C   0  0  0  0  0  0  0  0  0  0  0  0
   -6.6682    2.3231   -1.7764 C   0  0  0  0  0  0  0  0  0  0  0  0
   -7.6523    2.9065   -2.4728 F   0  0  0  0  0  0  0  0  0  0  0  0
   -6.1703    2.9483   -0.6406 C   0  0  0  0  0  0  0  0  0  0  0  0
   -5.1445    2.3418    0.0862 C   0  0  0  0  0  0  0  0  0  0  0  0
   -3.9633   -0.8417    1.1454 C   0  0  0  0  0  0  0  0  0  0  0  0
   -3.6639   -2.1142    0.6285 C   0  0  0  0  0  0  0  0  0  0  0  0
   -4.1321   -3.2689    1.2609 C   0  0  0  0  0  0  0  0  0  0  0  0
   -4.9063   -3.1591    2.4082 C   0  0  0  0  0  0  0  0  0  0  0  0
   -5.3550   -4.2674    3.0116 F   0  0  0  0  0  0  0  0  0  0  0  0
   -5.2246   -1.9157    2.9366 C   0  0  0  0  0  0  0  0  0  0  0  0
   -4.7570   -0.7612    2.3067 C   0  0  0  0  0  0  0  0  0  0  0  0
    1.3453    1.2862    0.2412 C   0  0  0  0  0  0  0  0  0  0  0  0
    2.4026    0.3760    0.8672 C   0  0  0  0  0  0  0  0  0  0  0  0
    5.7139   -3.5057    1.7571 H   0  0  0  0  0  0  0  0  0  0  0  0
    8.3311   -2.4672    1.9122 H   0  0  0  0  0  0  0  0  0  0  0  0
    9.6409   -0.4089    1.3734 H   0  0  0  0  0  0  0  0  0  0  0  0
    8.5313    1.5518    0.3421 H   0  0  0  0  0  0  0  0  0  0  0  0
    6.1046    1.5142   -0.1772 H   0  0  0  0  0  0  0  0  0  0  0  0
    3.9735    0.9755   -0.4418 H   0  0  0  0  0  0  0  0  0  0  0  0
    2.4069   -1.5361   -1.1957 H   0  0  0  0  0  0  0  0  0  0  0  0
    3.6312   -0.7345   -2.1700 H   0  0  0  0  0  0  0  0  0  0  0  0
    2.2661    1.3033   -2.3274 H   0  0  0  0  0  0  0  0  0  0  0  0
    1.3362   -0.1098   -2.8356 H   0  0  0  0  0  0  0  0  0  0  0  0
    0.1029    2.5281   -1.7855 H   0  0  0  0  0  0  0  0  0  0  0  0
   -0.6008    1.0918   -2.5172 H   0  0  0  0  0  0  0  0  0  0  0  0
   -1.3446    2.2347    0.2101 H   0  0  0  0  0  0  0  0  0  0  0  0
   -2.2763    2.2677   -1.2746 H   0  0  0  0  0  0  0  0  0  0  0  0
   -2.3640   -0.2548   -1.2636 H   0  0  0  0  0  0  0  0  0  0  0  0
   -1.4610   -0.2639    0.2479 H   0  0  0  0  0  0  0  0  0  0  0  0
   -3.2333    1.1285    1.3163 H   0  0  0  0  0  0  0  0  0  0  0  0
   -4.7531   -0.4685   -1.8105 H   0  0  0  0  0  0  0  0  0  0  0  0
   -6.5690    0.6285   -3.0871 H   0  0  0  0  0  0  0  0  0  0  0  0
   -6.5843    3.9011   -0.3274 H   0  0  0  0  0  0  0  0  0  0  0  0
   -4.7633    2.8394    0.9753 H   0  0  0  0  0  0  0  0  0  0  0  0
   -3.0638   -2.2281   -0.2706 H   0  0  0  0  0  0  0  0  0  0  0  0
   -3.8969   -4.2511    0.8636 H   0  0  0  0  0  0  0  0  0  0  0  0
   -5.8351   -1.8514    3.8314 H   0  0  0  0  0  0  0  0  0  0  0  0
   -5.0193    0.2089    2.7248 H   0  0  0  0  0  0  0  0  0  0  0  0
    0.5739    1.4534    1.0004 H   0  0  0  0  0  0  0  0  0  0  0  0
    1.7899    2.2627    0.0093 H   0  0  0  0  0  0  0  0  0  0  0  0
    2.8458    0.8738    1.7384 H   0  0  0  0  0  0  0  0  0  0  0  0
    1.9202   -0.5356    1.2413 H   0  0  0  0  0  0  0  0  0  0  0  0
  1  2  2  0
  2  3  1  0
  3  4  1  0
  4  5  2  0
  5  6  1  0
  6  7  2  0
  7  8  1  0
  8  9  2  0
  9 10  1  0
 10 11  1  0
 11 12  1  0
 12 13  1  0
 13 14  1  0
 14 15  1  0
 15 16  1  0
 16 17  1  0
 17 18  1  0
 18 19  1  0
 19 20  1  0
 20 21  2  0
 21 22  1  0
 22 23  1  0
 22 24  2  0
 24 25  1  0
 18 26  1  0
 26 27  1  0
 27 28  2  0
 28 29  1  0
 29 30  1  0
 29 31  2  0
 31 32  1  0
 14 33  1  0
 33 34  1  0
 10  2  1  0
 34 11  1  0
  9  4  1  0
 25 19  2  0
 32 26  2  0
  3 35  1  0
  5 36  1  0
  6 37  1  0
  7 38  1  0
  8 39  1  0
 11 40  1  0
 12 41  1  0
 12 42  1  0
 13 43  1  0
 13 44  1  0
 15 45  1  0
 15 46  1  0
 16 47  1  0
 16 48  1  0
 17 49  1  0
 17 50  1  0
 18 51  1  0
 20 52  1  0
 21 53  1  0
 24 54  1  0
 25 55  1  0
 27 56  1  0
 28 57  1  0
 31 58  1  0
 32 59  1  0
 33 60  1  0
 33 61  1  0
 34 62  1  0
 34 63  1  0
M  END
$$$$
OCNT-0022281
     RDKit          3D

 41 42  0  0  0  0  0  0  0  0999 V2000
   -4.6929    1.3923    1.3686 C   0  0  0  0  0  0  0  0  0  0  0  0
   -4.4008    0.5877    0.1022 C   0  0  0  0  0  0  0  0  0  0  0  0
   -3.4210    1.3244   -0.8253 C   0  0  0  0  0  0  0  0  0  0  0  0
   -1.9892    0.8132   -0.6562 C   0  0  0  0  0  0  0  0  0  0  0  0
   -1.8561   -0.6082   -0.9992 N   0  0  0  0  0  0  0  0  0  0  0  0
   -0.6279   -1.2294   -0.4861 C   0  0  0  0  0  0  0  0  0  0  0  0
    0.6829   -0.6228   -1.0129 C   0  0  0  0  0  0  0  0  0  0  0  0
    1.2597    0.4736   -0.1212 C   0  0  0  0  0  0  0  0  0  0  0  0
    2.5990    0.9465   -0.6508 C   0  0  0  0  0  0  0  0  0  0  0  0
    2.6592    1.8625   -1.4706 O   0  0  0  0  0  0  0  0  0  0  0  0
    3.8644    0.2978   -0.1849 C   0  0  0  0  0  0  0  0  0  0  0  0
    5.0841    0.8765   -0.5748 C   0  0  0  0  0  0  0  0  0  0  0  0
    6.2974    0.3150   -0.1710 C   0  0  0  0  0  0  0  0  0  0  0  0
    6.2918   -0.8263    0.6197 C   0  0  0  0  0  0  0  0  0  0  0  0
    7.4530   -1.3677    1.0084 F   0  0  0  0  0  0  0  0  0  0  0  0
    5.0960   -1.4169    1.0121 C   0  0  0  0  0  0  0  0  0  0  0  0
    3.8788   -0.8572    0.6099 C   0  0  0  0  0  0  0  0  0  0  0  0
   -3.0512   -1.4038   -0.6705 C   0  0  0  0  0  0  0  0  0  0  0  0
   -3.8829   -0.8121    0.4657 C   0  0  0  0  0  0  0  0  0  0  0  0
   -5.1341    2.3629    1.1185 H   0  0  0  0  0  0  0  0  0  0  0  0
   -5.4009    0.8592    2.0120 H   0  0  0  0  0  0  0  0  0  0  0  0
   -3.7797    1.5747    1.9451 H   0  0  0  0  0  0  0  0  0  0  0  0
   -5.3496    0.4791   -0.4398 H   0  0  0  0  0  0  0  0  0  0  0  0
   -3.7303    1.1716   -1.8681 H   0  0  0  0  0  0  0  0  0  0  0  0
   -3.4557    2.4068   -0.6544 H   0  0  0  0  0  0  0  0  0  0  0  0
   -1.3379    1.4024   -1.3109 H   0  0  0  0  0  0  0  0  0  0  0  0
   -1.6780    0.9961    0.3803 H   0  0  0  0  0  0  0  0  0  0  0  0
   -0.6235   -2.2764   -0.8179 H   0  0  0  0  0  0  0  0  0  0  0  0
   -0.6287   -1.2523    0.6111 H   0  0  0  0  0  0  0  0  0  0  0  0
    1.4195   -1.4331   -1.0910 H   0  0  0  0  0  0  0  0  0  0  0  0
    0.5525   -0.2530   -2.0380 H   0  0  0  0  0  0  0  0  0  0  0  0
    1.3536    0.1447    0.9183 H   0  0  0  0  0  0  0  0  0  0  0  0
    0.6078    1.3519   -0.0890 H   0  0  0  0  0  0  0  0  0  0  0  0
    5.0938    1.7706   -1.1969 H   0  0  0  0  0  0  0  0  0  0  0  0
    7.2411    0.7605   -0.4702 H   0  0  0  0  0  0  0  0  0  0  0  0
    5.1194   -2.3121    1.6265 H   0  0  0  0  0  0  0  0  0  0  0  0
    2.9640   -1.3497    0.9236 H   0  0  0  0  0  0  0  0  0  0  0  0
   -3.6745   -1.4580   -1.5725 H   0  0  0  0  0  0  0  0  0  0  0  0
   -2.7957   -2.4436   -0.4319 H   0  0  0  0  0  0  0  0  0  0  0  0
   -4.7334   -1.4686    0.6856 H   0  0  0  0  0  0  0  0  0  0  0  0
   -3.2739   -0.7788    1.3786 H   0  0  0  0  0  0  0  0  0  0  0  0
  1  2  1  0
  2  3  1  0
  3  4  1  0
  4  5  1  0
  5  6  1  0
  6  7  1  0
  7  8  1  0
  8  9  1  0
  9 10  2  0
  9 11  1  0
 11 12  1  0
 12 13  2  0
 13 14  1  0
 14 15  1  0
 14 16  2  0
 16 17  1  0
  5 18  1  0
 18 19  1  0
 19  2  1  0
 17 11  2  0
  1 20  1  0
  1 21  1  0
  1 22  1  0
  2 23  1  0
  3 24  1  0
  3 25  1  0
  4 26  1  0
  4 27  1  0
  6 28  1  0
  6 29  1  0
  7 30  1  0
  7 31  1  0
  8 32  1  0
  8 33  1  0
 12 34  1  0
 13 35  1  0
 16 36  1  0
 17 37  1  0
 18 38  1  0
 18 39  1  0
 19 40  1  0
 19 41  1  0
M  END
$$$$
OCNT-0022288
     RDKit          3D

 56 59  0  0  0  0  0  0  0  0999 V2000
    4.7628   -2.5755   -0.6942 O   0  0  0  0  0  0  0  0  0  0  0  0
    5.6748   -1.5090   -0.9511 C   0  0  0  0  0  0  0  0  0  0  0  0
    5.3653   -0.3224   -0.0251 C   0  0  0  0  0  0  0  0  0  0  0  0
    3.9363    0.0453   -0.0662 N   0  0  0  0  0  0  0  0  0  0  0  0
    3.5309    0.5939   -1.3796 C   0  0  0  0  0  0  0  0  0  0  0  0
    2.2514    1.4746   -1.3453 C   0  0  0  0  0  0  0  0  0  0  0  0
    1.3338    1.2173   -0.2209 N   0  0  0  0  0  0  0  0  0  0  0  0
    0.6834   -0.1032   -0.3075 C   0  0  0  0  0  0  0  0  0  0  0  0
   -0.4271   -0.1634   -1.3650 C   0  0  0  0  0  0  0  0  0  0  0  0
   -1.5597    0.8560   -1.1571 C   0  0  0  0  0  0  0  0  0  0  0  0
   -2.4233    0.5518    0.0167 N   0  0  0  0  0  0  0  0  0  0  0  0
   -2.0766    1.2102    1.2286 C   0  0  0  0  0  0  0  0  0  0  0  0
   -1.7552    2.5827    1.2433 C   0  0  0  0  0  0  0  0  0  0  0  0
   -1.4226    3.2530    2.4244 C   0  0  0  0  0  0  0  0  0  0  0  0
   -1.4186    2.5689    3.6317 C   0  0  0  0  0  0  0  0  0  0  0  0
   -1.7590    1.2198    3.6537 C   0  0  0  0  0  0  0  0  0  0  0  0
   -2.0995    0.5431    2.4691 C   0  0  0  0  0  0  0  0  0  0  0  0
   -2.4986   -1.1857    2.6232 S   0  0  0  0  0  0  0  0  0  0  0  0
   -3.3010   -1.5063    1.0672 C   0  0  0  0  0  0  0  0  0  0  0  0
   -4.0548   -2.6886    0.9791 C   0  0  0  0  0  0  0  0  0  0  0  0
   -4.6972   -3.0404   -0.2060 C   0  0  0  0  0  0  0  0  0  0  0  0
   -4.5937   -2.2146   -1.3272 C   0  0  0  0  0  0  0  0  0  0  0  0
   -5.3096   -2.5565   -2.6100 C   0  0  0  0  0  0  0  0  0  0  0  0
   -5.5577   -3.8886   -2.7493 F   0  0  0  0  0  0  0  0  0  0  0  0
   -4.6078   -2.1933   -3.7203 F   0  0  0  0  0  0  0  0  0  0  0  0
   -6.5176   -1.9378   -2.7123 F   0  0  0  0  0  0  0  0  0  0  0  0
   -3.8415   -1.0292   -1.2295 C   0  0  0  0  0  0  0  0  0  0  0  0
   -3.1651   -0.6583   -0.0485 C   0  0  0  0  0  0  0  0  0  0  0  0
    2.0867    1.3531    1.0488 C   0  0  0  0  0  0  0  0  0  0  0  0
    3.5992    1.0024    1.0001 C   0  0  0  0  0  0  0  0  0  0  0  0
    3.9346   -2.1331   -0.4144 H   0  0  0  0  0  0  0  0  0  0  0  0
    6.6906   -1.8760   -0.7780 H   0  0  0  0  0  0  0  0  0  0  0  0
    5.5880   -1.2291   -2.0055 H   0  0  0  0  0  0  0  0  0  0  0  0
    5.6063   -0.6427    0.9968 H   0  0  0  0  0  0  0  0  0  0  0  0
    6.0135    0.5289   -0.2659 H   0  0  0  0  0  0  0  0  0  0  0  0
    3.3481   -0.2494   -2.0563 H   0  0  0  0  0  0  0  0  0  0  0  0
    4.3362    1.1974   -1.8182 H   0  0  0  0  0  0  0  0  0  0  0  0
    1.7307    1.4058   -2.3064 H   0  0  0  0  0  0  0  0  0  0  0  0
    2.5648    2.5252   -1.2717 H   0  0  0  0  0  0  0  0  0  0  0  0
    1.4090   -0.8997   -0.5101 H   0  0  0  0  0  0  0  0  0  0  0  0
    0.2286   -0.3621    0.6548 H   0  0  0  0  0  0  0  0  0  0  0  0
    0.0050   -0.0009   -2.3597 H   0  0  0  0  0  0  0  0  0  0  0  0
   -0.8292   -1.1833   -1.3845 H   0  0  0  0  0  0  0  0  0  0  0  0
   -2.1709    0.8849   -2.0665 H   0  0  0  0  0  0  0  0  0  0  0  0
   -1.1289    1.8609   -1.1207 H   0  0  0  0  0  0  0  0  0  0  0  0
   -1.7845    3.1690    0.3289 H   0  0  0  0  0  0  0  0  0  0  0  0
   -1.1759    4.3111    2.3945 H   0  0  0  0  0  0  0  0  0  0  0  0
   -1.1618    3.0834    4.5532 H   0  0  0  0  0  0  0  0  0  0  0  0
   -1.7595    0.6935    4.6055 H   0  0  0  0  0  0  0  0  0  0  0  0
   -4.1464   -3.3454    1.8426 H   0  0  0  0  0  0  0  0  0  0  0  0
   -5.2806   -3.9591   -0.2461 H   0  0  0  0  0  0  0  0  0  0  0  0
   -3.8198   -0.3742   -2.0979 H   0  0  0  0  0  0  0  0  0  0  0  0
    2.0012    2.3997    1.3679 H   0  0  0  0  0  0  0  0  0  0  0  0
    1.6067    0.7747    1.8481 H   0  0  0  0  0  0  0  0  0  0  0  0
    3.8817    0.5930    1.9780 H   0  0  0  0  0  0  0  0  0  0  0  0
    4.1745    1.9278    0.8605 H   0  0  0  0  0  0  0  0  0  0  0  0
  1  2  1  0
  2  3  1  0
  3  4  1  0
  4  5  1  0
  5  6  1  0
  6  7  1  0
  7  8  1  0
  8  9  1  0
  9 10  1  0
 10 11  1  0
 11 12  1  0
 12 13  2  0
 13 14  1  0
 14 15  2  0
 15 16  1  0
 16 17  2  0
 17 18  1  0
 18 19  1  0
 19 20  1  0
 20 21  2  0
 21 22  1  0
 22 23  1  0
 23 24  1  0
 23 25  1  0
 23 26  1  0
 22 27  2  0
 27 28  1  0
  7 29  1  0
 29 30  1  0
 30  4  1  0
 28 11  1  0
 17 12  1  0
 28 19  2  0
  1 31  1  0
  2 32  1  0
  2 33  1  0
  3 34  1  0
  3 35  1  0
  5 36  1  0
  5 37  1  0
  6 38  1  0
  6 39  1  0
  8 40  1  0
  8 41  1  0
  9 42  1  0
  9 43  1  0
 10 44  1  0
 10 45  1  0
 13 46  1  0
 14 47  1  0
 15 48  1  0
 16 49  1  0
 20 50  1  0
 21 51  1  0
 27 52  1  0
 29 53  1  0
 29 54  1  0
 30 55  1  0
 30 56  1  0
M  END
$$$$
OCNT-0022291
     RDKit          3D

 50 53  0  0  0  0  0  0  0  0999 V2000
    4.4534    1.3022    1.8762 O   0  0  0  0  0  0  0  0  0  0  0  0
    4.7367    0.6110    0.9004 C   0  0  0  0  0  0  0  0  0  0  0  0
    3.6835    0.1055   -0.0718 C   0  0  0  0  0  0  0  0  0  0  0  0
    2.2615    0.2959    0.4642 C   0  0  0  0  0  0  0  0  0  0  0  0
    1.2235   -0.1652   -0.5671 C   0  0  0  0  0  0  0  0  0  0  0  0
   -0.1470   -0.1999   -0.0372 N   0  0  0  0  0  0  0  0  0  0  0  0
   -1.0316   -0.9111   -0.9693 C   0  0  0  0  0  0  0  0  0  0  0  0
   -2.4938   -0.8094   -0.6377 C   0  0  0  0  0  0  0  0  0  0  0  0
   -3.0165    0.0806    0.2261 C   0  0  0  0  0  0  0  0  0  0  0  0
   -4.3728    0.1665    0.5369 N   0  0  0  0  0  0  0  0  0  0  0  0
   -4.8751    0.7618    1.7535 C   0  0  0  0  0  0  0  0  0  0  0  0
   -4.2718    1.3040    2.6672 O   0  0  0  0  0  0  0  0  0  0  0  0
   -6.2666    0.5982    1.7478 N   0  0  0  0  0  0  0  0  0  0  0  0
   -6.6515   -0.0329    0.5808 C   0  0  0  0  0  0  0  0  0  0  0  0
   -5.5139   -0.2916   -0.1849 C   0  0  0  0  0  0  0  0  0  0  0  0
   -5.6563   -0.8378   -1.4474 C   0  0  0  0  0  0  0  0  0  0  0  0
   -6.9468   -1.1697   -1.8875 C   0  0  0  0  0  0  0  0  0  0  0  0
   -8.0736   -0.9340   -1.0795 C   0  0  0  0  0  0  0  0  0  0  0  0
   -7.9327   -0.3455    0.1765 C   0  0  0  0  0  0  0  0  0  0  0  0
   -2.0648    1.0344    0.9238 C   0  0  0  0  0  0  0  0  0  0  0  0
   -0.6879    1.1359    0.2452 C   0  0  0  0  0  0  0  0  0  0  0  0
    6.1713    0.2720    0.6443 C   0  0  0  0  0  0  0  0  0  0  0  0
    7.1235    0.6297    1.6131 C   0  0  0  0  0  0  0  0  0  0  0  0
    8.4749    0.3344    1.4212 C   0  0  0  0  0  0  0  0  0  0  0  0
    8.8734   -0.3170    0.2616 C   0  0  0  0  0  0  0  0  0  0  0  0
   10.1676   -0.6060    0.0768 F   0  0  0  0  0  0  0  0  0  0  0  0
    7.9472   -0.6734   -0.7124 C   0  0  0  0  0  0  0  0  0  0  0  0
    6.5929   -0.3790   -0.5244 C   0  0  0  0  0  0  0  0  0  0  0  0
    3.8491   -0.9633   -0.2507 H   0  0  0  0  0  0  0  0  0  0  0  0
    3.7993    0.6527   -1.0141 H   0  0  0  0  0  0  0  0  0  0  0  0
    2.1088    1.3516    0.7164 H   0  0  0  0  0  0  0  0  0  0  0  0
    2.1467   -0.2765    1.3941 H   0  0  0  0  0  0  0  0  0  0  0  0
    1.2797    0.4701   -1.4610 H   0  0  0  0  0  0  0  0  0  0  0  0
    1.5016   -1.1801   -0.8818 H   0  0  0  0  0  0  0  0  0  0  0  0
   -0.8980   -0.5470   -1.9969 H   0  0  0  0  0  0  0  0  0  0  0  0
   -0.7599   -1.9741   -0.9622 H   0  0  0  0  0  0  0  0  0  0  0  0
   -3.1040   -1.5651   -1.1129 H   0  0  0  0  0  0  0  0  0  0  0  0
   -6.8602    0.9230    2.4926 H   0  0  0  0  0  0  0  0  0  0  0  0
   -4.8219   -0.9847   -2.1190 H   0  0  0  0  0  0  0  0  0  0  0  0
   -7.0803   -1.6045   -2.8761 H   0  0  0  0  0  0  0  0  0  0  0  0
   -9.0633   -1.1966   -1.4470 H   0  0  0  0  0  0  0  0  0  0  0  0
   -8.7954   -0.1353    0.7973 H   0  0  0  0  0  0  0  0  0  0  0  0
   -1.9217    0.7008    1.9600 H   0  0  0  0  0  0  0  0  0  0  0  0
   -2.4927    2.0437    0.9477 H   0  0  0  0  0  0  0  0  0  0  0  0
   -0.0354    1.6909    0.9279 H   0  0  0  0  0  0  0  0  0  0  0  0
   -0.7671    1.7267   -0.6778 H   0  0  0  0  0  0  0  0  0  0  0  0
    6.8150    1.1412    2.5233 H   0  0  0  0  0  0  0  0  0  0  0  0
    9.2131    0.6078    2.1687 H   0  0  0  0  0  0  0  0  0  0  0  0
    8.2859   -1.1789   -1.6115 H   0  0  0  0  0  0  0  0  0  0  0  0
    5.8936   -0.6623   -1.3052 H   0  0  0  0  0  0  0  0  0  0  0  0
  1  2  2  0
  2  3  1  0
  3  4  1  0
  4  5  1  0
  5  6  1  0
  6  7  1  0
  7  8  1  0
  8  9  2  0
  9 10  1  0
 10 11  1  0
 11 12  2  0
 11 13  1  0
 13 14  1  0
 14 15  1  0
 15 16  2  0
 16 17  1  0
 17 18  2  0
 18 19  1  0
  9 20  1  0
 20 21  1  0
  2 22  1  0
 22 23  1  0
 23 24  2  0
 24 25  1  0
 25 26  1  0
 25 27  2  0
 27 28  1  0
 21  6  1  0
 28 22  2  0
 15 10  1  0
 19 14  2  0
  3 29  1  0
  3 30  1  0
  4 31  1  0
  4 32  1  0
  5 33  1  0
  5 34  1  0
  7 35  1  0
  7 36  1  0
  8 37  1  0
 13 38  1  0
 16 39  1  0
 17 40  1  0
 18 41  1  0
 19 42  1  0
 20 43  1  0
 20 44  1  0
 21 45  1  0
 21 46  1  0
 23 47  1  0
 24 48  1  0
 27 49  1  0
 28 50  1  0
M  END
$$$$
OCNT-0022294
     RDKit          3D

 40 42  0  0  0  0  0  0  0  0999 V2000
    4.8751    1.3411    0.1321 C   0  0  0  0  0  0  0  0  0  0  0  0
    3.6391    0.8504   -0.4848 N   0  0  0  0  0  0  0  0  0  0  0  0
    3.9272   -0.3471   -1.2774 C   0  0  0  0  0  0  0  0  0  0  0  0
    2.6203    0.6067    0.5492 C   0  0  0  0  0  0  0  0  0  0  0  0
    1.2289    0.3227   -0.0304 C   0  0  0  0  0  0  0  0  0  0  0  0
    0.1868    0.2452    1.0956 C   0  0  0  0  0  0  0  0  0  0  0  0
   -1.1614   -0.0896    0.5797 N   0  0  0  0  0  0  0  0  0  0  0  0
   -1.5235   -1.4690    0.5560 C   0  0  0  0  0  0  0  0  0  0  0  0
   -0.5634   -2.5028    0.6537 C   0  0  0  0  0  0  0  0  0  0  0  0
   -0.9072   -3.8601    0.6190 C   0  0  0  0  0  0  0  0  0  0  0  0
   -2.2322   -4.2347    0.4806 C   0  0  0  0  0  0  0  0  0  0  0  0
   -3.2051   -3.2483    0.3744 C   0  0  0  0  0  0  0  0  0  0  0  0
   -2.8633   -1.8811    0.4062 C   0  0  0  0  0  0  0  0  0  0  0  0
   -4.2307   -0.7535    0.2862 S   0  0  0  0  0  0  0  0  0  0  0  0
   -3.4149    0.8110    0.0829 C   0  0  0  0  0  0  0  0  0  0  0  0
   -2.0274    0.9976    0.2605 C   0  0  0  0  0  0  0  0  0  0  0  0
   -1.5469    2.3146    0.0784 C   0  0  0  0  0  0  0  0  0  0  0  0
   -2.3937    3.3796   -0.2464 C   0  0  0  0  0  0  0  0  0  0  0  0
   -1.7404    4.9594   -0.4511 Cl  0  0  0  0  0  0  0  0  0  0  0  0
   -3.7528    3.1745   -0.4071 C   0  0  0  0  0  0  0  0  0  0  0  0
   -4.2604    1.8912   -0.2428 C   0  0  0  0  0  0  0  0  0  0  0  0
    4.6905    2.2728    0.6785 H   0  0  0  0  0  0  0  0  0  0  0  0
    5.6231    1.5741   -0.6341 H   0  0  0  0  0  0  0  0  0  0  0  0
    5.3071    0.6120    0.8272 H   0  0  0  0  0  0  0  0  0  0  0  0
    4.2525   -1.1869   -0.6529 H   0  0  0  0  0  0  0  0  0  0  0  0
    4.7149   -0.1420   -2.0117 H   0  0  0  0  0  0  0  0  0  0  0  0
    3.0534   -0.6605   -1.8566 H   0  0  0  0  0  0  0  0  0  0  0  0
    2.9253   -0.2166    1.2086 H   0  0  0  0  0  0  0  0  0  0  0  0
    2.5383    1.5037    1.1771 H   0  0  0  0  0  0  0  0  0  0  0  0
    1.2355   -0.6142   -0.5961 H   0  0  0  0  0  0  0  0  0  0  0  0
    0.9614    1.1072   -0.7471 H   0  0  0  0  0  0  0  0  0  0  0  0
    0.5044   -0.4772    1.8589 H   0  0  0  0  0  0  0  0  0  0  0  0
    0.1683    1.1854    1.6623 H   0  0  0  0  0  0  0  0  0  0  0  0
    0.4963   -2.2886    0.7424 H   0  0  0  0  0  0  0  0  0  0  0  0
   -0.1317   -4.6181    0.6952 H   0  0  0  0  0  0  0  0  0  0  0  0
   -2.5099   -5.2845    0.4522 H   0  0  0  0  0  0  0  0  0  0  0  0
   -4.2451   -3.5507    0.2660 H   0  0  0  0  0  0  0  0  0  0  0  0
   -0.4915    2.5481    0.1665 H   0  0  0  0  0  0  0  0  0  0  0  0
   -4.4170    3.9958   -0.6592 H   0  0  0  0  0  0  0  0  0  0  0  0
   -5.3300    1.7322   -0.3692 H   0  0  0  0  0  0  0  0  0  0  0  0
  1  2  1  0
  2  3  1  0
  2  4  1  0
  4  5  1  0
  5  6  1  0
  6  7  1  0
  7  8  1  0
  8  9  2  0
  9 10  1  0
 10 11  2  0
 11 12  1  0
 12 13  2  0
 13 14  1  0
 14 15  1  0
 15 16  2  0
 16 17  1  0
 17 18  2  0
 18 19  1  0
 18 20  1  0
 20 21  2  0
 16  7  1  0
 13  8  1  0
 21 15  1  0
  1 22  1  0
  1 23  1  0
  1 24  1  0
  3 25  1  0
  3 26  1  0
  3 27  1  0
  4 28  1  0
  4 29  1  0
  5 30  1  0
  5 31  1  0
  6 32  1  0
  6 33  1  0
  9 34  1  0
 10 35  1  0
 11 36  1  0
 12 37  1  0
 17 38  1  0
 20 39  1  0
 21 40  1  0
M  END
$$$$
OCNT-0022297
     RDKit          3D

 58 62  0  0  0  0  0  0  0  0999 V2000
  -10.8661   -1.0479   -1.6371 O   0  0  0  0  0  0  0  0  0  0  0  0
   -9.8558   -0.5523   -1.1511 C   0  0  0  0  0  0  0  0  0  0  0  0
   -9.9340    0.6818   -0.3311 C   0  0  0  0  0  0  0  0  0  0  0  0
   -8.8380    1.2326    0.2077 C   0  0  0  0  0  0  0  0  0  0  0  0
   -7.5293    0.6166   -0.0088 C   0  0  0  0  0  0  0  0  0  0  0  0
   -7.4443   -0.5463   -0.7838 C   0  0  0  0  0  0  0  0  0  0  0  0
   -6.2134   -1.1578   -1.0146 C   0  0  0  0  0  0  0  0  0  0  0  0
   -5.0470   -0.6155   -0.4667 C   0  0  0  0  0  0  0  0  0  0  0  0
   -3.9082   -1.3042   -0.7758 O   0  0  0  0  0  0  0  0  0  0  0  0
   -2.6845   -0.9430   -0.1327 C   0  0  0  0  0  0  0  0  0  0  0  0
   -1.9430    0.1141   -0.9518 C   0  0  0  0  0  0  0  0  0  0  0  0
   -0.6249    0.5601   -0.3144 C   0  0  0  0  0  0  0  0  0  0  0  0
    0.4732   -0.5099   -0.4019 C   0  0  0  0  0  0  0  0  0  0  0  0
    1.7078   -0.0952    0.2694 N   0  0  0  0  0  0  0  0  0  0  0  0
    2.3532    1.0861   -0.3509 C   0  0  0  0  0  0  0  0  0  0  0  0
    3.9003    1.0463   -0.4618 C   0  0  0  0  0  0  0  0  0  0  0  0
    4.4982    0.4785    0.7524 N   0  0  0  0  0  0  0  0  0  0  0  0
    5.9084    0.5463    0.7854 C   0  0  0  0  0  0  0  0  0  0  0  0
    6.7962   -0.1902   -0.0608 C   0  0  0  0  0  0  0  0  0  0  0  0
    6.5342   -1.1562   -1.1010 C   0  0  0  0  0  0  0  0  0  0  0  0
    7.6723   -1.6493   -1.6917 C   0  0  0  0  0  0  0  0  0  0  0  0
    9.0795   -0.9718   -1.0159 S   0  0  0  0  0  0  0  0  0  0  0  0
    8.1760   -0.0025    0.0892 C   0  0  0  0  0  0  0  0  0  0  0  0
    8.7107    0.8837    1.0443 C   0  0  0  0  0  0  0  0  0  0  0  0
    7.8396    1.5917    1.8655 C   0  0  0  0  0  0  0  0  0  0  0  0
    6.4676    1.4249    1.7357 C   0  0  0  0  0  0  0  0  0  0  0  0
    3.9362   -0.8105    1.1929 C   0  0  0  0  0  0  0  0  0  0  0  0
    2.6630   -1.2057    0.4044 C   0  0  0  0  0  0  0  0  0  0  0  0
   -5.1270    0.5463    0.3041 C   0  0  0  0  0  0  0  0  0  0  0  0
   -6.3646    1.1608    0.5337 C   0  0  0  0  0  0  0  0  0  0  0  0
   -8.6126   -1.0948   -1.3302 N   0  0  0  0  0  0  0  0  0  0  0  0
  -10.9210    1.1047   -0.1976 H   0  0  0  0  0  0  0  0  0  0  0  0
   -8.9032    2.1346    0.8051 H   0  0  0  0  0  0  0  0  0  0  0  0
   -6.1470   -2.0585   -1.6185 H   0  0  0  0  0  0  0  0  0  0  0  0
   -2.8353   -0.6439    0.9108 H   0  0  0  0  0  0  0  0  0  0  0  0
   -2.0878   -1.8602   -0.0970 H   0  0  0  0  0  0  0  0  0  0  0  0
   -1.7674   -0.2630   -1.9677 H   0  0  0  0  0  0  0  0  0  0  0  0
   -2.5856    0.9936   -1.0770 H   0  0  0  0  0  0  0  0  0  0  0  0
   -0.2985    1.4697   -0.8319 H   0  0  0  0  0  0  0  0  0  0  0  0
   -0.7985    0.8375    0.7329 H   0  0  0  0  0  0  0  0  0  0  0  0
    0.6689   -0.7648   -1.4515 H   0  0  0  0  0  0  0  0  0  0  0  0
    0.1042   -1.4205    0.0833 H   0  0  0  0  0  0  0  0  0  0  0  0
    2.0716    1.9580    0.2523 H   0  0  0  0  0  0  0  0  0  0  0  0
    1.9706    1.2657   -1.3640 H   0  0  0  0  0  0  0  0  0  0  0  0
    4.2640    2.0681   -0.6239 H   0  0  0  0  0  0  0  0  0  0  0  0
    4.1739    0.4570   -1.3444 H   0  0  0  0  0  0  0  0  0  0  0  0
    5.5427   -1.4742   -1.3949 H   0  0  0  0  0  0  0  0  0  0  0  0
    7.7422   -2.3776   -2.4885 H   0  0  0  0  0  0  0  0  0  0  0  0
    9.7851    1.0119    1.1423 H   0  0  0  0  0  0  0  0  0  0  0  0
    8.2333    2.2778    2.6112 H   0  0  0  0  0  0  0  0  0  0  0  0
    5.7997    1.9872    2.3855 H   0  0  0  0  0  0  0  0  0  0  0  0
    3.6818   -0.7149    2.2533 H   0  0  0  0  0  0  0  0  0  0  0  0
    4.6590   -1.6294    1.1152 H   0  0  0  0  0  0  0  0  0  0  0  0
    2.9517   -1.5733   -0.5873 H   0  0  0  0  0  0  0  0  0  0  0  0
    2.1911   -2.0435    0.9289 H   0  0  0  0  0  0  0  0  0  0  0  0
   -4.2460    1.0107    0.7346 H   0  0  0  0  0  0  0  0  0  0  0  0
   -6.4034    2.0658    1.1352 H   0  0  0  0  0  0  0  0  0  0  0  0
   -8.5702   -1.9349   -1.8904 H   0  0  0  0  0  0  0  0  0  0  0  0
  1  2  2  0
  2  3  1  0
  3  4  2  0
  4  5  1  0
  5  6  2  0
  6  7  1  0
  7  8  2  0
  8  9  1  0
  9 10  1  0
 10 11  1  0
 11 12  1  0
 12 13  1  0
 13 14  1  0
 14 15  1  0
 15 16  1  0
 16 17  1  0
 17 18  1  0
 18 19  2  0
 19 20  1  0
 20 21  2  0
 21 22  1  0
 22 23  1  0
 23 24  2  0
 24 25  1  0
 25 26  2  0
 17 27  1  0
 27 28  1  0
  8 29  1  0
 29 30  2  0
  6 31  1  0
 31  2  1  0
 30  5  1  0
 28 14  1  0
 26 18  1  0
 23 19  1  0
  3 32  1  0
  4 33  1  0
  7 34  1  0
 10 35  1  0
 10 36  1  0
 11 37  1  0
 11 38  1  0
 12 39  1  0
 12 40  1  0
 13 41  1  0
 13 42  1  0
 15 43  1  0
 15 44  1  0
 16 45  1  0
 16 46  1  0
 20 47  1  0
 21 48  1  0
 24 49  1  0
 25 50  1  0
 26 51  1  0
 27 52  1  0
 27 53  1  0
 28 54  1  0
 28 55  1  0
 29 56  1  0
 30 57  1  0
 31 58  1  0
M  END
$$$$
OCNT-0022301
     RDKit          3D

 52 55  0  0  0  0  0  0  0  0999 V2000
    3.3535    1.5619    1.3351 O   0  0  0  0  0  0  0  0  0  0  0  0
    4.0384    0.7644    0.6989 C   0  0  0  0  0  0  0  0  0  0  0  0
    3.4313   -0.3828   -0.0914 C   0  0  0  0  0  0  0  0  0  0  0  0
    1.9016   -0.3166   -0.1357 C   0  0  0  0  0  0  0  0  0  0  0  0
    1.3320   -1.5213   -0.8989 C   0  0  0  0  0  0  0  0  0  0  0  0
   -0.1260   -1.5822   -1.0731 N   0  0  0  0  0  0  0  0  0  0  0  0
   -0.6282   -0.5275   -1.9598 C   0  0  0  0  0  0  0  0  0  0  0  0
   -2.1110   -0.7290   -2.2790 C   0  0  0  0  0  0  0  0  0  0  0  0
   -3.0057   -1.0522   -1.0706 C   0  0  0  0  0  0  0  0  0  0  0  0
   -3.6510    0.1099   -0.4597 N   0  0  0  0  0  0  0  0  0  0  0  0
   -3.0573    1.3316   -0.0739 C   0  0  0  0  0  0  0  0  0  0  0  0
   -1.9137    1.7155   -0.2414 O   0  0  0  0  0  0  0  0  0  0  0  0
   -4.0487    2.0793    0.5768 N   0  0  0  0  0  0  0  0  0  0  0  0
   -5.2148    1.3338    0.6382 C   0  0  0  0  0  0  0  0  0  0  0  0
   -6.4203    1.6640    1.2146 C   0  0  0  0  0  0  0  0  0  0  0  0
   -7.4322    0.7030    1.1523 C   0  0  0  0  0  0  0  0  0  0  0  0
   -7.2096   -0.5418    0.5283 C   0  0  0  0  0  0  0  0  0  0  0  0
   -5.9711   -0.8509   -0.0492 C   0  0  0  0  0  0  0  0  0  0  0  0
   -4.9826    0.1097    0.0130 C   0  0  0  0  0  0  0  0  0  0  0  0
   -2.3065   -1.9409   -0.0359 C   0  0  0  0  0  0  0  0  0  0  0  0
   -0.8503   -1.5583    0.2009 C   0  0  0  0  0  0  0  0  0  0  0  0
    5.5268    0.9173    0.7110 C   0  0  0  0  0  0  0  0  0  0  0  0
    6.3828   -0.0159    0.1081 C   0  0  0  0  0  0  0  0  0  0  0  0
    7.7675    0.1750    0.1494 C   0  0  0  0  0  0  0  0  0  0  0  0
    8.2923    1.2914    0.7908 C   0  0  0  0  0  0  0  0  0  0  0  0
    9.6191    1.4678    0.8266 F   0  0  0  0  0  0  0  0  0  0  0  0
    7.4598    2.2242    1.3953 C   0  0  0  0  0  0  0  0  0  0  0  0
    6.0764    2.0373    1.3566 C   0  0  0  0  0  0  0  0  0  0  0  0
    3.7415   -1.3230    0.3784 H   0  0  0  0  0  0  0  0  0  0  0  0
    3.8161   -0.3453   -1.1167 H   0  0  0  0  0  0  0  0  0  0  0  0
    1.5990    0.6229   -0.6118 H   0  0  0  0  0  0  0  0  0  0  0  0
    1.5117   -0.2981    0.8887 H   0  0  0  0  0  0  0  0  0  0  0  0
    1.8023   -1.5764   -1.8895 H   0  0  0  0  0  0  0  0  0  0  0  0
    1.6471   -2.4401   -0.3865 H   0  0  0  0  0  0  0  0  0  0  0  0
   -0.0811   -0.5571   -2.9109 H   0  0  0  0  0  0  0  0  0  0  0  0
   -0.4531    0.4657   -1.5422 H   0  0  0  0  0  0  0  0  0  0  0  0
   -2.1767   -1.5801   -2.9719 H   0  0  0  0  0  0  0  0  0  0  0  0
   -2.4959    0.1388   -2.8281 H   0  0  0  0  0  0  0  0  0  0  0  0
   -3.8287   -1.6453   -1.4888 H   0  0  0  0  0  0  0  0  0  0  0  0
   -3.8860    2.9941    0.9634 H   0  0  0  0  0  0  0  0  0  0  0  0
   -6.5815    2.6196    1.6983 H   0  0  0  0  0  0  0  0  0  0  0  0
   -8.4042    0.9140    1.5933 H   0  0  0  0  0  0  0  0  0  0  0  0
   -8.0142   -1.2740    0.4966 H   0  0  0  0  0  0  0  0  0  0  0  0
   -5.8168   -1.8131   -0.5211 H   0  0  0  0  0  0  0  0  0  0  0  0
   -2.3326   -2.9779   -0.3986 H   0  0  0  0  0  0  0  0  0  0  0  0
   -2.8496   -1.9363    0.9168 H   0  0  0  0  0  0  0  0  0  0  0  0
   -0.4183   -2.2942    0.8902 H   0  0  0  0  0  0  0  0  0  0  0  0
   -0.7891   -0.5805    0.6922 H   0  0  0  0  0  0  0  0  0  0  0  0
    6.0021   -0.8996   -0.3951 H   0  0  0  0  0  0  0  0  0  0  0  0
    8.4406   -0.5405   -0.3135 H   0  0  0  0  0  0  0  0  0  0  0  0
    7.8883    3.0890    1.8923 H   0  0  0  0  0  0  0  0  0  0  0  0
    5.4266    2.7707    1.8321 H   0  0  0  0  0  0  0  0  0  0  0  0
  1  2  2  0
  2  3  1  0
  3  4  1  0
  4  5  1  0
  5  6  1  0
  6  7  1  0
  7  8  1  0
  8  9  1  0
  9 10  1  0
 10 11  1  0
 11 12  2  0
 11 13  1  0
 13 14  1  0
 14 15  2  0
 15 16  1  0
 16 17  2  0
 17 18  1  0
 18 19  2  0
  9 20  1  0
 20 21  1  0
  2 22  1  0
 22 23  1  0
 23 24  2  0
 24 25  1  0
 25 26  1  0
 25 27  2  0
 27 28  1  0
 21  6  1  0
 28 22  2  0
 19 10  1  0
 19 14  1  0
  3 29  1  0
  3 30  1  0
  4 31  1  0
  4 32  1  0
  5 33  1  0
  5 34  1  0
  7 35  1  0
  7 36  1  0
  8 37  1  0
  8 38  1  0
  9 39  1  0
 13 40  1  0
 15 41  1  0
 16 42  1  0
 17 43  1  0
 18 44  1  0
 20 45  1  0
 20 46  1  0
 21 47  1  0
 21 48  1  0
 23 49  1  0
 24 50  1  0
 27 51  1  0
 28 52  1  0
M  END
$$$$
OCNT-0022303
     RDKit          3D

 38 41  0  0  0  0  0  0  0  0999 V2000
   -0.7320   -5.1384   -0.0555 Cl  0  0  0  0  0  0  0  0  0  0  0  0
   -1.0548   -3.5159    0.4170 C   0  0  0  0  0  0  0  0  0  0  0  0
   -2.0374   -3.2571    1.3718 C   0  0  0  0  0  0  0  0  0  0  0  0
   -2.3023   -1.9409    1.7518 C   0  0  0  0  0  0  0  0  0  0  0  0
   -1.5863   -0.8903    1.1704 C   0  0  0  0  0  0  0  0  0  0  0  0
   -1.9086    0.3807    1.5740 O   0  0  0  0  0  0  0  0  0  0  0  0
   -2.3587    1.1714    0.5420 C   0  0  0  0  0  0  0  0  0  0  0  0
   -3.6580    1.6775    0.6546 C   0  0  0  0  0  0  0  0  0  0  0  0
   -4.1805    2.4790   -0.3582 C   0  0  0  0  0  0  0  0  0  0  0  0
   -3.3991    2.7835   -1.4707 C   0  0  0  0  0  0  0  0  0  0  0  0
   -2.0936    2.2919   -1.5634 C   0  0  0  0  0  0  0  0  0  0  0  0
   -1.5536    1.4769   -0.5624 C   0  0  0  0  0  0  0  0  0  0  0  0
   -0.2082    1.1047   -0.6924 N   0  0  0  0  0  0  0  0  0  0  0  0
    0.2679   -0.0537   -0.3266 C   0  0  0  0  0  0  0  0  0  0  0  0
    1.6393   -0.3088   -0.4859 N   0  0  0  0  0  0  0  0  0  0  0  0
    2.3929   -0.7679    0.7118 C   0  0  0  0  0  0  0  0  0  0  0  0
    3.9174   -0.5856    0.5563 C   0  0  0  0  0  0  0  0  0  0  0  0
    4.3386    0.8005    0.2849 N   0  0  0  0  0  0  0  0  0  0  0  0
    3.3434    1.5076   -0.5482 C   0  0  0  0  0  0  0  0  0  0  0  0
    2.4292    0.5791   -1.3698 C   0  0  0  0  0  0  0  0  0  0  0  0
   -0.5776   -1.1520    0.2423 C   0  0  0  0  0  0  0  0  0  0  0  0
   -0.3240   -2.4735   -0.1492 C   0  0  0  0  0  0  0  0  0  0  0  0
   -2.6024   -4.0718    1.8174 H   0  0  0  0  0  0  0  0  0  0  0  0
   -3.0737   -1.7307    2.4880 H   0  0  0  0  0  0  0  0  0  0  0  0
   -4.2600    1.4401    1.5268 H   0  0  0  0  0  0  0  0  0  0  0  0
   -5.1915    2.8696   -0.2784 H   0  0  0  0  0  0  0  0  0  0  0  0
   -3.7962    3.4149   -2.2612 H   0  0  0  0  0  0  0  0  0  0  0  0
   -1.4782    2.5549   -2.4201 H   0  0  0  0  0  0  0  0  0  0  0  0
    2.1878   -1.8280    0.8928 H   0  0  0  0  0  0  0  0  0  0  0  0
    2.0550   -0.2061    1.5923 H   0  0  0  0  0  0  0  0  0  0  0  0
    4.4198   -0.9283    1.4672 H   0  0  0  0  0  0  0  0  0  0  0  0
    4.2707   -1.2281   -0.2604 H   0  0  0  0  0  0  0  0  0  0  0  0
    5.2377    0.7831   -0.1947 H   0  0  0  0  0  0  0  0  0  0  0  0
    2.7284    2.1285    0.1143 H   0  0  0  0  0  0  0  0  0  0  0  0
    3.8725    2.1917   -1.2209 H   0  0  0  0  0  0  0  0  0  0  0  0
    3.0393   -0.0498   -2.0308 H   0  0  0  0  0  0  0  0  0  0  0  0
    1.7941    1.1736   -2.0360 H   0  0  0  0  0  0  0  0  0  0  0  0
    0.4425   -2.6821   -0.8910 H   0  0  0  0  0  0  0  0  0  0  0  0
  1  2  1  0
  2  3  1  0
  3  4  2  0
  4  5  1  0
  5  6  1  0
  6  7  1  0
  7  8  2  0
  8  9  1  0
  9 10  2  0
 10 11  1  0
 11 12  2  0
 12 13  1  0
 13 14  2  0
 14 15  1  0
 15 16  1  0
 16 17  1  0
 17 18  1  0
 18 19  1  0
 19 20  1  0
 14 21  1  0
 21 22  1  0
 22  2  2  0
 21  5  2  0
 12  7  1  0
 20 15  1  0
  3 23  1  0
  4 24  1  0
  8 25  1  0
  9 26  1  0
 10 27  1  0
 11 28  1  0
 16 29  1  0
 16 30  1  0
 17 31  1  0
 17 32  1  0
 18 33  1  0
 19 34  1  0
 19 35  1  0
 20 36  1  0
 20 37  1  0
 22 38  1  0
M  END
$$$$
OCNT-0022315
     RDKit          3D

 57 60  0  0  0  0  0  0  0  0999 V2000
   -5.2874   -2.1281   -1.0256 C   0  0  0  0  0  0  0  0  0  0  0  0
   -4.8758   -1.1285   -1.9587 O   0  0  0  0  0  0  0  0  0  0  0  0
   -5.2773    0.1108   -1.5071 C   0  0  0  0  0  0  0  0  0  0  0  0
   -4.5101    0.8489   -0.5744 C   0  0  0  0  0  0  0  0  0  0  0  0
   -3.2798    0.4016   -0.0902 N   0  0  0  0  0  0  0  0  0  0  0  0
   -2.3328   -0.1936   -1.0579 C   0  0  0  0  0  0  0  0  0  0  0  0
   -0.8735    0.2262   -0.7613 C   0  0  0  0  0  0  0  0  0  0  0  0
   -0.3921   -0.0347    0.6155 N   0  0  0  0  0  0  0  0  0  0  0  0
    0.2577   -1.3545    0.7146 C   0  0  0  0  0  0  0  0  0  0  0  0
    1.0189   -1.5906    2.0394 C   0  0  0  0  0  0  0  0  0  0  0  0
    1.5078   -2.9418    2.0576 O   0  0  0  0  0  0  0  0  0  0  0  0
    2.1997   -0.6262    2.2310 C   0  0  0  0  0  0  0  0  0  0  0  0
    3.1474   -0.8678    1.1829 O   0  0  0  0  0  0  0  0  0  0  0  0
    4.2186   -0.0128    1.0805 C   0  0  0  0  0  0  0  0  0  0  0  0
    4.5648    0.9230    2.0607 C   0  0  0  0  0  0  0  0  0  0  0  0
    5.6748    1.7475    1.8860 C   0  0  0  0  0  0  0  0  0  0  0  0
    6.4504    1.6412    0.7344 C   0  0  0  0  0  0  0  0  0  0  0  0
    6.1299    0.7086   -0.2619 C   0  0  0  0  0  0  0  0  0  0  0  0
    6.9161    0.6045   -1.4222 C   0  0  0  0  0  0  0  0  0  0  0  0
    6.6045   -0.3194   -2.4199 C   0  0  0  0  0  0  0  0  0  0  0  0
    5.5028   -1.1525   -2.2700 C   0  0  0  0  0  0  0  0  0  0  0  0
    4.7122   -1.0600   -1.1223 C   0  0  0  0  0  0  0  0  0  0  0  0
    5.0034   -0.1340   -0.0956 C   0  0  0  0  0  0  0  0  0  0  0  0
   -1.5016    0.0970    1.5927 C   0  0  0  0  0  0  0  0  0  0  0  0
   -2.6754    0.9841    1.1163 C   0  0  0  0  0  0  0  0  0  0  0  0
   -5.0725    2.0635   -0.1426 C   0  0  0  0  0  0  0  0  0  0  0  0
   -6.2955    2.5372   -0.6389 C   0  0  0  0  0  0  0  0  0  0  0  0
   -6.9970    1.8057   -1.5899 C   0  0  0  0  0  0  0  0  0  0  0  0
   -6.4849    0.5920   -2.0295 C   0  0  0  0  0  0  0  0  0  0  0  0
   -6.3798   -2.1735   -0.9570 H   0  0  0  0  0  0  0  0  0  0  0  0
   -4.8515   -1.9655   -0.0349 H   0  0  0  0  0  0  0  0  0  0  0  0
   -4.9313   -3.0960   -1.3941 H   0  0  0  0  0  0  0  0  0  0  0  0
   -2.5588    0.1212   -2.0838 H   0  0  0  0  0  0  0  0  0  0  0  0
   -2.4079   -1.2854   -1.0081 H   0  0  0  0  0  0  0  0  0  0  0  0
   -0.7938    1.3104   -0.9241 H   0  0  0  0  0  0  0  0  0  0  0  0
   -0.2042   -0.2217   -1.5066 H   0  0  0  0  0  0  0  0  0  0  0  0
   -0.4739   -2.1611    0.5669 H   0  0  0  0  0  0  0  0  0  0  0  0
    0.9775   -1.4742   -0.1062 H   0  0  0  0  0  0  0  0  0  0  0  0
    0.3341   -1.4983    2.8886 H   0  0  0  0  0  0  0  0  0  0  0  0
    2.3091   -2.9444    1.4989 H   0  0  0  0  0  0  0  0  0  0  0  0
    2.6786   -0.8477    3.1924 H   0  0  0  0  0  0  0  0  0  0  0  0
    1.8492    0.4119    2.2127 H   0  0  0  0  0  0  0  0  0  0  0  0
    3.9950    1.0311    2.9767 H   0  0  0  0  0  0  0  0  0  0  0  0
    5.9384    2.4733    2.6505 H   0  0  0  0  0  0  0  0  0  0  0  0
    7.3128    2.2946    0.6199 H   0  0  0  0  0  0  0  0  0  0  0  0
    7.7832    1.2481   -1.5583 H   0  0  0  0  0  0  0  0  0  0  0  0
    7.2221   -0.3863   -3.3119 H   0  0  0  0  0  0  0  0  0  0  0  0
    5.2544   -1.8745   -3.0437 H   0  0  0  0  0  0  0  0  0  0  0  0
    3.8531   -1.7213   -1.0314 H   0  0  0  0  0  0  0  0  0  0  0  0
   -1.9192   -0.8900    1.8348 H   0  0  0  0  0  0  0  0  0  0  0  0
   -1.0966    0.5133    2.5219 H   0  0  0  0  0  0  0  0  0  0  0  0
   -3.4142    1.0292    1.9246 H   0  0  0  0  0  0  0  0  0  0  0  0
   -2.3186    2.0021    0.9201 H   0  0  0  0  0  0  0  0  0  0  0  0
   -4.5525    2.6916    0.5758 H   0  0  0  0  0  0  0  0  0  0  0  0
   -6.6895    3.4856   -0.2838 H   0  0  0  0  0  0  0  0  0  0  0  0
   -7.9410    2.1763   -1.9809 H   0  0  0  0  0  0  0  0  0  0  0  0
   -7.0278    0.0041   -2.7646 H   0  0  0  0  0  0  0  0  0  0  0  0
  1  2  1  0
  2  3  1  0
  3  4  1  0
  4  5  1  0
  5  6  1  0
  6  7  1  0
  7  8  1  0
  8  9  1  0
  9 10  1  0
 10 11  1  0
 10 12  1  0
 12 13  1  0
 13 14  1  0
 14 15  2  0
 15 16  1  0
 16 17  2  0
 17 18  1  0
 18 19  2  0
 19 20  1  0
 20 21  2  0
 21 22  1  0
 22 23  2  0
  8 24  1  0
 24 25  1  0
  4 26  2  0
 26 27  1  0
 27 28  2  0
 28 29  1  0
 29  3  2  0
 25  5  1  0
 23 14  1  0
 23 18  1  0
  1 30  1  0
  1 31  1  0
  1 32  1  0
  6 33  1  0
  6 34  1  0
  7 35  1  0
  7 36  1  0
  9 37  1  0
  9 38  1  0
 10 39  1  0
 11 40  1  0
 12 41  1  0
 12 42  1  0
 15 43  1  0
 16 44  1  0
 17 45  1  0
 19 46  1  0
 20 47  1  0
 21 48  1  0
 22 49  1  0
 24 50  1  0
 24 51  1  0
 25 52  1  0
 25 53  1  0
 26 54  1  0
 27 55  1  0
 28 56  1  0
 29 57  1  0
M  END
$$$$
OCNT-0022317
     RDKit          3D

 67 69  0  0  0  0  0  0  0  0999 V2000
    1.2207   -1.2777   -0.1466 C   0  0  0  0  0  0  0  0  0  0  0  0
    1.4685    0.2249   -0.3191 C   0  0  2  0  0  0  0  0  0  0  0  0
    0.5594    1.0681    0.6103 C   0  0  0  0  0  0  0  0  0  0  0  0
   -0.9327    0.9007    0.4322 C   0  0  0  0  0  0  0  0  0  0  0  0
   -1.6469   -0.0229    1.2164 C   0  0  0  0  0  0  0  0  0  0  0  0
   -3.0427   -0.1889    1.0833 C   0  0  0  0  0  0  0  0  0  0  0  0
   -3.6558   -1.1369    2.0312 C   0  0  0  0  0  0  0  0  0  0  0  0
   -3.6323   -0.7403    3.3408 N   0  0  0  0  0  0  0  0  0  0  0  0
   -4.1159   -2.2174    1.6901 O   0  0  0  0  0  0  0  0  0  0  0  0
   -3.7424    0.5605    0.1404 C   0  0  0  0  0  0  0  0  0  0  0  0
   -3.0034    1.4888   -0.6249 C   0  0  0  0  0  0  0  0  0  0  0  0
   -1.6300    1.6725   -0.4979 C   0  0  0  0  0  0  0  0  0  0  0  0
   -3.9191    2.2584   -1.5180 C   0  0  0  0  0  0  0  0  0  0  0  0
   -5.1500    1.3526   -1.4673 C   0  0  0  0  0  0  0  0  0  0  0  0
   -5.1151    0.6491   -0.1694 N   0  0  0  0  0  0  0  0  0  0  0  0
   -6.0282   -0.4859   -0.0121 C   0  0  0  0  0  0  0  0  0  0  0  0
   -6.8376   -0.3560    1.2780 C   0  0  0  0  0  0  0  0  0  0  0  0
   -7.7671    0.8538    1.2568 C   0  0  0  0  0  0  0  0  0  0  0  0
   -8.5897    0.8512    2.4223 O   0  0  0  0  0  0  0  0  0  0  0  0
    1.3073    0.6518   -1.7242 N   0  0  0  0  0  0  0  0  0  0  0  0
    2.4088    0.2427   -2.6113 C   0  0  0  0  0  0  0  0  0  0  0  0
    3.7289    1.0150   -2.4064 C   0  0  0  0  0  0  0  0  0  0  0  0
    4.4831    0.5674   -1.2803 O   0  0  0  0  0  0  0  0  0  0  0  0
    5.1157   -0.6433   -1.3368 C   0  0  0  0  0  0  0  0  0  0  0  0
    5.4135   -1.2366   -0.0987 C   0  0  0  0  0  0  0  0  0  0  0  0
    4.9853   -0.6196    1.0492 O   0  0  0  0  0  0  0  0  0  0  0  0
    6.0701   -0.1067    1.8399 C   0  0  0  0  0  0  0  0  0  0  0  0
    6.8316    1.0680    1.2349 C   0  0  0  0  0  0  0  0  0  0  0  0
    6.0152    2.0664    0.8383 F   0  0  0  0  0  0  0  0  0  0  0  0
    7.6678    1.5898    2.1711 F   0  0  0  0  0  0  0  0  0  0  0  0
    7.6026    0.6982    0.1874 F   0  0  0  0  0  0  0  0  0  0  0  0
    6.0481   -2.4782   -0.0324 C   0  0  0  0  0  0  0  0  0  0  0  0
    6.4399   -3.1138   -1.2081 C   0  0  0  0  0  0  0  0  0  0  0  0
    6.1772   -2.5171   -2.4424 C   0  0  0  0  0  0  0  0  0  0  0  0
    5.5176   -1.2865   -2.5081 C   0  0  0  0  0  0  0  0  0  0  0  0
    0.2350   -1.5725   -0.5199 H   0  0  0  0  0  0  0  0  0  0  0  0
    1.9639   -1.8710   -0.6834 H   0  0  0  0  0  0  0  0  0  0  0  0
    1.2809   -1.5637    0.9101 H   0  0  0  0  0  0  0  0  0  0  0  0
    2.4848    0.4380    0.0185 H   0  0  0  0  0  0  0  0  0  0  0  0
    0.8066    2.1320    0.4910 H   0  0  0  0  0  0  0  0  0  0  0  0
    0.8143    0.8392    1.6540 H   0  0  0  0  0  0  0  0  0  0  0  0
   -1.1108   -0.6240    1.9505 H   0  0  0  0  0  0  0  0  0  0  0  0
   -3.4375    0.2190    3.5918 H   0  0  0  0  0  0  0  0  0  0  0  0
   -4.1272   -1.3228    4.0028 H   0  0  0  0  0  0  0  0  0  0  0  0
   -1.1112    2.4146   -1.1024 H   0  0  0  0  0  0  0  0  0  0  0  0
   -3.5393    2.3622   -2.5372 H   0  0  0  0  0  0  0  0  0  0  0  0
   -4.1308    3.2427   -1.0861 H   0  0  0  0  0  0  0  0  0  0  0  0
   -5.1039    0.6220   -2.2889 H   0  0  0  0  0  0  0  0  0  0  0  0
   -6.0764    1.9291   -1.5822 H   0  0  0  0  0  0  0  0  0  0  0  0
   -5.5006   -1.4409   -0.0829 H   0  0  0  0  0  0  0  0  0  0  0  0
   -6.7424   -0.5027   -0.8498 H   0  0  0  0  0  0  0  0  0  0  0  0
   -6.1848   -0.2713    2.1535 H   0  0  0  0  0  0  0  0  0  0  0  0
   -7.4348   -1.2662    1.4304 H   0  0  0  0  0  0  0  0  0  0  0  0
   -7.2115    1.7941    1.2447 H   0  0  0  0  0  0  0  0  0  0  0  0
   -8.4315    0.8288    0.3867 H   0  0  0  0  0  0  0  0  0  0  0  0
   -7.9980    0.8574    3.1933 H   0  0  0  0  0  0  0  0  0  0  0  0
    0.4326    0.2582   -2.0768 H   0  0  0  0  0  0  0  0  0  0  0  0
    2.0707    0.4621   -3.6312 H   0  0  0  0  0  0  0  0  0  0  0  0
    2.5668   -0.8386   -2.5655 H   0  0  0  0  0  0  0  0  0  0  0  0
    4.3379    1.0037   -3.3147 H   0  0  0  0  0  0  0  0  0  0  0  0
    3.5007    2.0720   -2.2291 H   0  0  0  0  0  0  0  0  0  0  0  0
    5.6087    0.2424    2.7717 H   0  0  0  0  0  0  0  0  0  0  0  0
    6.7554   -0.9151    2.1283 H   0  0  0  0  0  0  0  0  0  0  0  0
    6.2322   -2.9554    0.9264 H   0  0  0  0  0  0  0  0  0  0  0  0
    6.9491   -4.0729   -1.1645 H   0  0  0  0  0  0  0  0  0  0  0  0
    6.4954   -3.0047   -3.3587 H   0  0  0  0  0  0  0  0  0  0  0  0
    5.3531   -0.8477   -3.4876 H   0  0  0  0  0  0  0  0  0  0  0  0
  1  2  1  0
  2  3  1  0
  3  4  1  0
  4  5  1  0
  5  6  2  0
  6  7  1  0
  7  8  1  0
  7  9  2  0
  6 10  1  0
 10 11  2  0
 11 12  1  0
 11 13  1  0
 13 14  1  0
 14 15  1  0
 15 16  1  0
 16 17  1  0
 17 18  1  0
 18 19  1  0
  2 20  1  0
 20 21  1  0
 21 22  1  0
 22 23  1  0
 23 24  1  0
 24 25  1  0
 25 26  1  0
 26 27  1  0
 27 28  1  0
 28 29  1  0
 28 30  1  0
 28 31  1  0
 25 32  2  0
 32 33  1  0
 33 34  2  0
 34 35  1  0
 12  4  2  0
 35 24  2  0
 15 10  1  0
  1 36  1  0
  1 37  1  0
  1 38  1  0
  2 39  1  1
  3 40  1  0
  3 41  1  0
  5 42  1  0
  8 43  1  0
  8 44  1  0
 12 45  1  0
 13 46  1  0
 13 47  1  0
 14 48  1  0
 14 49  1  0
 16 50  1  0
 16 51  1  0
 17 52  1  0
 17 53  1  0
 18 54  1  0
 18 55  1  0
 19 56  1  0
 20 57  1  0
 21 58  1  0
 21 59  1  0
 22 60  1  0
 22 61  1  0
 27 62  1  0
 27 63  1  0
 32 64  1  0
 33 65  1  0
 34 66  1  0
 35 67  1  0
M  END
$$$$
OCNT-0283087
     RDKit          3D

 41 44  0  0  0  0  0  0  0  0999 V2000
    6.8697   -0.8839   -0.6977 C   0  0  0  0  0  0  0  0  0  0  0  0
    5.8737   -0.3651    0.1742 O   0  0  0  0  0  0  0  0  0  0  0  0
    4.6008   -0.2685   -0.3240 C   0  0  0  0  0  0  0  0  0  0  0  0
    4.1936   -0.6584   -1.5973 C   0  0  0  0  0  0  0  0  0  0  0  0
    2.8584   -0.5081   -1.9983 C   0  0  0  0  0  0  0  0  0  0  0  0
    1.9175    0.0357   -1.1036 C   0  0  0  0  0  0  0  0  0  0  0  0
    0.5323    0.3253   -1.1940 C   0  0  0  0  0  0  0  0  0  0  0  0
    0.1070    0.8461    0.0182 C   0  0  0  0  0  0  0  0  0  0  0  0
   -1.2073    1.3299    0.3995 C   0  0  0  0  0  0  0  0  0  0  0  0
   -1.3412    2.4433    0.9059 O   0  0  0  0  0  0  0  0  0  0  0  0
   -2.3132    0.4977    0.1956 N   0  0  0  0  0  0  0  0  0  0  0  0
   -2.2481   -0.8702   -0.3406 C   0  0  0  0  0  0  0  0  0  0  0  0
   -3.2678   -1.7954    0.3164 C   0  0  0  0  0  0  0  0  0  0  0  0
   -4.5655   -1.1666    0.3210 N   0  0  0  0  0  0  0  0  0  0  0  0
   -5.7847   -1.7644    0.3483 C   0  0  0  0  0  0  0  0  0  0  0  0
   -6.7465   -0.8683    0.3393 N   0  0  0  0  0  0  0  0  0  0  0  0
   -6.1117    0.3499    0.3101 C   0  0  0  0  0  0  0  0  0  0  0  0
   -4.7431    0.1889    0.2946 C   0  0  0  0  0  0  0  0  0  0  0  0
   -3.6209    1.1573    0.2518 C   0  0  0  0  0  0  0  0  0  0  0  0
    1.2308    0.9314    0.8213 N   0  0  0  0  0  0  0  0  0  0  0  0
    1.2345    1.4764    2.1647 C   0  0  0  0  0  0  0  0  0  0  0  0
    2.3368    0.4220    0.1686 C   0  0  0  0  0  0  0  0  0  0  0  0
    3.6752    0.2793    0.5740 C   0  0  0  0  0  0  0  0  0  0  0  0
    6.9895   -0.2503   -1.5827 H   0  0  0  0  0  0  0  0  0  0  0  0
    7.8209   -0.8825   -0.1567 H   0  0  0  0  0  0  0  0  0  0  0  0
    6.6482   -1.9190   -0.9780 H   0  0  0  0  0  0  0  0  0  0  0  0
    4.8888   -1.0825   -2.3140 H   0  0  0  0  0  0  0  0  0  0  0  0
    2.5555   -0.8089   -2.9972 H   0  0  0  0  0  0  0  0  0  0  0  0
   -0.0908    0.1799   -2.0667 H   0  0  0  0  0  0  0  0  0  0  0  0
   -2.4290   -0.7994   -1.4202 H   0  0  0  0  0  0  0  0  0  0  0  0
   -1.2576   -1.3052   -0.1887 H   0  0  0  0  0  0  0  0  0  0  0  0
   -3.0071   -1.9864    1.3634 H   0  0  0  0  0  0  0  0  0  0  0  0
   -3.3366   -2.7477   -0.2184 H   0  0  0  0  0  0  0  0  0  0  0  0
   -5.9237   -2.8373    0.3748 H   0  0  0  0  0  0  0  0  0  0  0  0
   -6.6754    1.2742    0.2990 H   0  0  0  0  0  0  0  0  0  0  0  0
   -3.7067    1.7860   -0.6425 H   0  0  0  0  0  0  0  0  0  0  0  0
   -3.6634    1.8129    1.1289 H   0  0  0  0  0  0  0  0  0  0  0  0
    0.3205    1.1694    2.6795 H   0  0  0  0  0  0  0  0  0  0  0  0
    2.0902    1.0903    2.7220 H   0  0  0  0  0  0  0  0  0  0  0  0
    1.2920    2.5649    2.0886 H   0  0  0  0  0  0  0  0  0  0  0  0
    4.0043    0.5889    1.5610 H   0  0  0  0  0  0  0  0  0  0  0  0
  1  2  1  0
  2  3  1  0
  3  4  2  0
  4  5  1  0
  5  6  2  0
  6  7  1  0
  7  8  2  0
  8  9  1  0
  9 10  2  0
  9 11  1  0
 11 12  1  0
 12 13  1  0
 13 14  1  0
 14 15  1  0
 15 16  2  0
 16 17  1  0
 17 18  2  0
 18 19  1  0
  8 20  1  0
 20 21  1  0
 20 22  1  0
 22 23  2  0
 23  3  1  0
 22  6  1  0
 19 11  1  0
 18 14  1  0
  1 24  1  0
  1 25  1  0
  1 26  1  0
  4 27  1  0
  5 28  1  0
  7 29  1  0
 12 30  1  0
 12 31  1  0
 13 32  1  0
 13 33  1  0
 15 34  1  0
 17 35  1  0
 19 36  1  0
 19 37  1  0
 21 38  1  0
 21 39  1  0
 21 40  1  0
 23 41  1  0
M  END
$$$$
OCNT-0381046
     RDKit          3D

 52 53  0  0  0  0  0  0  0  0999 V2000
    6.0239   -1.2040    0.1122 C   0  0  0  0  0  0  0  0  0  0  0  0
    5.3766   -0.1202    0.9619 C   0  0  0  0  0  0  0  0  0  0  0  0
    4.3485    0.7152    0.1921 C   0  0  0  0  0  0  0  0  0  0  0  0
    3.2321   -0.0412   -0.3686 N   0  0  0  0  0  0  0  0  0  0  0  0
    2.3388   -0.6880    0.6054 C   0  0  0  0  0  0  0  0  0  0  0  0
    1.5722    0.1995    1.6207 C   0  0  0  0  0  0  0  0  0  0  0  0
    2.4733    0.7246    2.6075 O   0  0  0  0  0  0  0  0  0  0  0  0
    0.7894    1.3638    0.9971 C   0  0  0  0  0  0  0  0  0  0  0  0
   -0.3954    0.9111    0.3361 O   0  0  0  0  0  0  0  0  0  0  0  0
   -0.3320    0.7803   -1.0215 C   0  0  0  0  0  0  0  0  0  0  0  0
    0.1647    1.7931   -1.8462 C   0  0  0  0  0  0  0  0  0  0  0  0
    0.1640    1.6356   -3.2348 C   0  0  0  0  0  0  0  0  0  0  0  0
   -0.3558    0.4769   -3.8102 C   0  0  0  0  0  0  0  0  0  0  0  0
   -0.8933   -0.5212   -2.9988 C   0  0  0  0  0  0  0  0  0  0  0  0
   -0.8946   -0.3629   -1.6064 C   0  0  0  0  0  0  0  0  0  0  0  0
   -1.4863   -1.4308   -0.7636 C   0  0  0  0  0  0  0  0  0  0  0  0
   -0.8297   -1.9349    0.1444 O   0  0  0  0  0  0  0  0  0  0  0  0
   -2.8891   -1.8939   -1.1107 C   0  0  0  0  0  0  0  0  0  0  0  0
   -3.7486   -2.0868    0.1372 C   0  0  0  0  0  0  0  0  0  0  0  0
   -4.2071   -0.7741    0.7267 C   0  0  0  0  0  0  0  0  0  0  0  0
   -3.4298   -0.1201    1.6912 C   0  0  0  0  0  0  0  0  0  0  0  0
   -3.8378    1.1059    2.2170 C   0  0  0  0  0  0  0  0  0  0  0  0
   -5.0266    1.6897    1.7849 C   0  0  0  0  0  0  0  0  0  0  0  0
   -5.8070    1.0489    0.8248 C   0  0  0  0  0  0  0  0  0  0  0  0
   -5.3987   -0.1767    0.2957 C   0  0  0  0  0  0  0  0  0  0  0  0
    6.5076   -0.7707   -0.7697 H   0  0  0  0  0  0  0  0  0  0  0  0
    5.2904   -1.9430   -0.2248 H   0  0  0  0  0  0  0  0  0  0  0  0
    6.7886   -1.7309    0.6925 H   0  0  0  0  0  0  0  0  0  0  0  0
    4.9252   -0.5753    1.8497 H   0  0  0  0  0  0  0  0  0  0  0  0
    6.1630    0.5518    1.3273 H   0  0  0  0  0  0  0  0  0  0  0  0
    3.9906    1.5389    0.8165 H   0  0  0  0  0  0  0  0  0  0  0  0
    4.8680    1.1938   -0.6476 H   0  0  0  0  0  0  0  0  0  0  0  0
    2.6817    0.5676   -0.9735 H   0  0  0  0  0  0  0  0  0  0  0  0
    2.9128   -1.4413    1.1576 H   0  0  0  0  0  0  0  0  0  0  0  0
    1.6111   -1.2559    0.0200 H   0  0  0  0  0  0  0  0  0  0  0  0
    0.8645   -0.4442    2.1561 H   0  0  0  0  0  0  0  0  0  0  0  0
    2.9297   -0.0374    3.0046 H   0  0  0  0  0  0  0  0  0  0  0  0
    0.4513    2.0253    1.8045 H   0  0  0  0  0  0  0  0  0  0  0  0
    1.4404    1.9914    0.3805 H   0  0  0  0  0  0  0  0  0  0  0  0
    0.5240    2.7284   -1.4285 H   0  0  0  0  0  0  0  0  0  0  0  0
    0.5579    2.4262   -3.8692 H   0  0  0  0  0  0  0  0  0  0  0  0
   -0.3508    0.3577   -4.8910 H   0  0  0  0  0  0  0  0  0  0  0  0
   -1.2935   -1.4215   -3.4574 H   0  0  0  0  0  0  0  0  0  0  0  0
   -3.3682   -1.1865   -1.7975 H   0  0  0  0  0  0  0  0  0  0  0  0
   -2.7857   -2.8500   -1.6376 H   0  0  0  0  0  0  0  0  0  0  0  0
   -3.2172   -2.6674    0.9012 H   0  0  0  0  0  0  0  0  0  0  0  0
   -4.6332   -2.6811   -0.1256 H   0  0  0  0  0  0  0  0  0  0  0  0
   -2.4929   -0.5583    2.0310 H   0  0  0  0  0  0  0  0  0  0  0  0
   -3.2232    1.6055    2.9606 H   0  0  0  0  0  0  0  0  0  0  0  0
   -5.3429    2.6447    2.1949 H   0  0  0  0  0  0  0  0  0  0  0  0
   -6.7334    1.5047    0.4867 H   0  0  0  0  0  0  0  0  0  0  0  0
   -6.0174   -0.6622   -0.4551 H   0  0  0  0  0  0  0  0  0  0  0  0
  1  2  1  0
  2  3  1  0
  3  4  1  0
  4  5  1  0
  5  6  1  0
  6  7  1  0
  6  8  1  0
  8  9  1  0
  9 10  1  0
 10 11  2  0
 11 12  1  0
 12 13  2  0
 13 14  1  0
 14 15  2  0
 15 16  1  0
 16 17  2  0
 16 18  1  0
 18 19  1  0
 19 20  1  0
 20 21  2  0
 21 22  1  0
 22 23  2  0
 23 24  1  0
 24 25  2  0
 15 10  1  0
 25 20  1  0
  1 26  1  0
  1 27  1  0
  1 28  1  0
  2 29  1  0
  2 30  1  0
  3 31  1  0
  3 32  1  0
  4 33  1  0
  5 34  1  0
  5 35  1  0
  6 36  1  0
  7 37  1  0
  8 38  1  0
  8 39  1  0
 11 40  1  0
 12 41  1  0
 13 42  1  0
 14 43  1  0
 18 44  1  0
 18 45  1  0
 19 46  1  0
 19 47  1  0
 21 48  1  0
 22 49  1  0
 23 50  1  0
 24 51  1  0
 25 52  1  0
M  END
$$$$
OCNT-0476550
     RDKit          3D

 58 60  0  0  0  0  0  0  0  0999 V2000
    4.7962   -0.7671    2.9518 C   0  0  0  0  0  0  0  0  0  0  0  0
    4.1209    0.4508    2.3284 C   0  0  0  0  0  0  0  0  0  0  0  0
    4.3218    0.5039    0.8661 N   0  0  0  0  0  0  0  0  0  0  0  0
    5.6680    1.0201    0.5475 C   0  0  0  0  0  0  0  0  0  0  0  0
    6.1115    0.6247   -0.8584 C   0  0  0  0  0  0  0  0  0  0  0  0
    3.2787    1.3331    0.2299 C   0  0  0  0  0  0  0  0  0  0  0  0
    1.9916    0.5234    0.0140 C   0  0  0  0  0  0  0  0  0  0  0  0
    0.9211    1.3643   -0.6935 C   0  0  0  0  0  0  0  0  0  0  0  0
   -0.3534    0.5611   -1.0345 C   0  0  0  0  0  0  0  0  0  0  0  0
   -1.2093    1.3848   -2.0023 C   0  0  0  0  0  0  0  0  0  0  0  0
   -1.0988    0.2758    0.2159 N   0  0  0  0  0  0  0  0  0  0  0  0
   -2.1294   -0.7117    0.0689 C   0  0  0  0  0  0  0  0  0  0  0  0
   -3.4812   -0.2799    0.0103 C   0  0  0  0  0  0  0  0  0  0  0  0
   -3.8821    1.0710    0.1774 C   0  0  0  0  0  0  0  0  0  0  0  0
   -5.2213    1.4470    0.1009 C   0  0  0  0  0  0  0  0  0  0  0  0
   -5.7154    2.7130    0.2383 O   0  0  0  0  0  0  0  0  0  0  0  0
   -4.7694    3.7490    0.4723 C   0  0  0  0  0  0  0  0  0  0  0  0
   -6.1763    0.4659   -0.1354 C   0  0  0  0  0  0  0  0  0  0  0  0
   -5.7920   -0.8688   -0.2860 C   0  0  0  0  0  0  0  0  0  0  0  0
   -4.4634   -1.2594   -0.2123 C   0  0  0  0  0  0  0  0  0  0  0  0
   -4.1769   -2.5607   -0.3548 N   0  0  0  0  0  0  0  0  0  0  0  0
   -2.9067   -2.9740   -0.2661 C   0  0  0  0  0  0  0  0  0  0  0  0
   -1.8240   -2.0974   -0.0485 C   0  0  0  0  0  0  0  0  0  0  0  0
   -0.5210   -2.6501    0.0489 C   0  0  0  0  0  0  0  0  0  0  0  0
   -0.3022   -4.0207   -0.0818 C   0  0  0  0  0  0  0  0  0  0  0  0
   -1.3831   -4.8583   -0.3069 C   0  0  0  0  0  0  0  0  0  0  0  0
   -1.1323   -6.5519   -0.4720 Cl  0  0  0  0  0  0  0  0  0  0  0  0
   -2.6692   -4.3343   -0.3957 C   0  0  0  0  0  0  0  0  0  0  0  0
    4.4510   -1.6921    2.4776 H   0  0  0  0  0  0  0  0  0  0  0  0
    4.5473   -0.8253    4.0167 H   0  0  0  0  0  0  0  0  0  0  0  0
    5.8860   -0.7260    2.8723 H   0  0  0  0  0  0  0  0  0  0  0  0
    4.4740    1.3711    2.8108 H   0  0  0  0  0  0  0  0  0  0  0  0
    3.0553    0.3671    2.5695 H   0  0  0  0  0  0  0  0  0  0  0  0
    6.4145    0.6015    1.2311 H   0  0  0  0  0  0  0  0  0  0  0  0
    5.7134    2.1098    0.6691 H   0  0  0  0  0  0  0  0  0  0  0  0
    7.1470    0.9410   -1.0236 H   0  0  0  0  0  0  0  0  0  0  0  0
    6.0694   -0.4617   -0.9913 H   0  0  0  0  0  0  0  0  0  0  0  0
    5.4993    1.0897   -1.6359 H   0  0  0  0  0  0  0  0  0  0  0  0
    3.6062    1.6792   -0.7568 H   0  0  0  0  0  0  0  0  0  0  0  0
    3.0784    2.2369    0.8201 H   0  0  0  0  0  0  0  0  0  0  0  0
    2.2185   -0.3606   -0.5953 H   0  0  0  0  0  0  0  0  0  0  0  0
    1.6052    0.1639    0.9719 H   0  0  0  0  0  0  0  0  0  0  0  0
    0.6644    2.2288   -0.0677 H   0  0  0  0  0  0  0  0  0  0  0  0
    1.3535    1.7595   -1.6217 H   0  0  0  0  0  0  0  0  0  0  0  0
   -0.0557   -0.3655   -1.5393 H   0  0  0  0  0  0  0  0  0  0  0  0
   -0.6383    1.6444   -2.9005 H   0  0  0  0  0  0  0  0  0  0  0  0
   -2.0906    0.8272   -2.3340 H   0  0  0  0  0  0  0  0  0  0  0  0
   -1.5513    2.3170   -1.5399 H   0  0  0  0  0  0  0  0  0  0  0  0
   -0.4626   -0.0708    0.9327 H   0  0  0  0  0  0  0  0  0  0  0  0
   -3.1105    1.8088    0.3740 H   0  0  0  0  0  0  0  0  0  0  0  0
   -4.2403    3.5938    1.4184 H   0  0  0  0  0  0  0  0  0  0  0  0
   -4.0682    3.8403   -0.3639 H   0  0  0  0  0  0  0  0  0  0  0  0
   -5.3192    4.6920    0.5497 H   0  0  0  0  0  0  0  0  0  0  0  0
   -7.2277    0.7343   -0.1985 H   0  0  0  0  0  0  0  0  0  0  0  0
   -6.5541   -1.6243   -0.4626 H   0  0  0  0  0  0  0  0  0  0  0  0
    0.3409   -2.0153    0.2314 H   0  0  0  0  0  0  0  0  0  0  0  0
    0.7054   -4.4208   -0.0058 H   0  0  0  0  0  0  0  0  0  0  0  0
   -3.5137   -4.9978   -0.5669 H   0  0  0  0  0  0  0  0  0  0  0  0
  1  2  1  0
  2  3  1  0
  3  4  1  0
  4  5  1  0
  3  6  1  0
  6  7  1  0
  7  8  1  0
  8  9  1  0
  9 10  1  0
  9 11  1  0
 11 12  1  0
 12 13  1  0
 13 14  2  0
 14 15  1  0
 15 16  1  0
 16 17  1  0
 15 18  2  0
 18 19  1  0
 19 20  2  0
 20 21  1  0
 21 22  2  0
 22 23  1  0
 23 24  1  0
 24 25  2  0
 25 26  1  0
 26 27  1  0
 26 28  2  0
 23 12  2  0
 20 13  1  0
 28 22  1  0
  1 29  1  0
  1 30  1  0
  1 31  1  0
  2 32  1  0
  2 33  1  0
  4 34  1  0
  4 35  1  0
  5 36  1  0
  5 37  1  0
  5 38  1  0
  6 39  1  0
  6 40  1  0
  7 41  1  0
  7 42  1  0
  8 43  1  0
  8 44  1  0
  9 45  1  0
 10 46  1  0
 10 47  1  0
 10 48  1  0
 11 49  1  0
 14 50  1  0
 17 51  1  0
 17 52  1  0
 17 53  1  0
 18 54  1  0
 19 55  1  0
 24 56  1  0
 25 57  1  0
 28 58  1  0
M  END
$$$$
OCNT-0476578
     RDKit          3D

 38 40  0  0  0  0  0  0  0  0999 V2000
    6.2509   -0.3295   -0.5138 C   0  0  0  0  0  0  0  0  0  0  0  0
    5.1167    0.0099    0.3460 N   0  0  0  0  0  0  0  0  0  0  0  0
    5.3672    1.0645    1.3288 C   0  0  0  0  0  0  0  0  0  0  0  0
    3.8141   -0.1911   -0.1191 C   0  0  0  0  0  0  0  0  0  0  0  0
    3.5404   -0.8746   -1.3119 C   0  0  0  0  0  0  0  0  0  0  0  0
    2.2309   -1.0901   -1.7616 C   0  0  0  0  0  0  0  0  0  0  0  0
    1.1314   -0.6417   -1.0320 C   0  0  0  0  0  0  0  0  0  0  0  0
   -0.1342   -0.9131   -1.5692 N   0  0  0  0  0  0  0  0  0  0  0  0
   -1.2148   -0.5616   -0.9564 C   0  0  0  0  0  0  0  0  0  0  0  0
   -2.4861   -0.9193   -1.6311 C   0  0  0  0  0  0  0  0  0  0  0  0
   -3.6906   -0.6479   -1.1223 C   0  0  0  0  0  0  0  0  0  0  0  0
   -3.8471    0.0514    0.1846 C   0  0  0  0  0  0  0  0  0  0  0  0
   -5.0154    0.3127    0.7031 N   0  0  0  0  0  0  0  0  0  0  0  0
   -5.1826    1.1161    1.9577 C   0  0  0  0  0  0  0  0  0  0  0  0
   -6.2961   -0.1688    0.0904 C   0  0  0  0  0  0  0  0  0  0  0  0
   -2.5659    0.4316    0.8529 C   0  0  0  0  0  0  0  0  0  0  0  0
   -1.3572    0.1547    0.3390 C   0  0  0  0  0  0  0  0  0  0  0  0
    0.0532    0.6422    1.2021 S   0  0  0  0  0  0  0  0  0  0  0  0
    1.3646    0.0293    0.1675 C   0  0  0  0  0  0  0  0  0  0  0  0
    2.6887    0.2413    0.6063 C   0  0  0  0  0  0  0  0  0  0  0  0
    6.2308   -1.3871   -0.7985 H   0  0  0  0  0  0  0  0  0  0  0  0
    7.2027   -0.1782    0.0079 H   0  0  0  0  0  0  0  0  0  0  0  0
    6.2616    0.2950   -1.4138 H   0  0  0  0  0  0  0  0  0  0  0  0
    4.8788    0.8392    2.2827 H   0  0  0  0  0  0  0  0  0  0  0  0
    6.4359    1.1588    1.5522 H   0  0  0  0  0  0  0  0  0  0  0  0
    5.0222    2.0365    0.9591 H   0  0  0  0  0  0  0  0  0  0  0  0
    4.3407   -1.2615   -1.9359 H   0  0  0  0  0  0  0  0  0  0  0  0
    2.0724   -1.6220   -2.6970 H   0  0  0  0  0  0  0  0  0  0  0  0
   -2.3800   -1.4272   -2.5871 H   0  0  0  0  0  0  0  0  0  0  0  0
   -4.5605   -0.9418   -1.7001 H   0  0  0  0  0  0  0  0  0  0  0  0
   -6.2300    1.4077    2.0726 H   0  0  0  0  0  0  0  0  0  0  0  0
   -4.5817    2.0262    1.8797 H   0  0  0  0  0  0  0  0  0  0  0  0
   -4.8718    0.4969    2.8028 H   0  0  0  0  0  0  0  0  0  0  0  0
   -6.5003    0.4403   -0.7936 H   0  0  0  0  0  0  0  0  0  0  0  0
   -6.1948   -1.2276   -0.1626 H   0  0  0  0  0  0  0  0  0  0  0  0
   -7.1110   -0.0678    0.8122 H   0  0  0  0  0  0  0  0  0  0  0  0
   -2.6118    0.9450    1.8088 H   0  0  0  0  0  0  0  0  0  0  0  0
    2.8285    0.7518    1.5552 H   0  0  0  0  0  0  0  0  0  0  0  0
  1  2  1  0
  2  3  1  0
  2  4  1  0
  4  5  1  0
  5  6  2  0
  6  7  1  0
  7  8  1  0
  8  9  2  0
  9 10  1  0
 10 11  2  0
 11 12  1  0
 12 13  2  3
 13 14  1  0
 13 15  1  0
 12 16  1  0
 16 17  2  0
 17 18  1  0
 18 19  1  0
 19 20  1  0
 20  4  2  0
 19  7  2  0
 17  9  1  0
  1 21  1  0
  1 22  1  0
  1 23  1  0
  3 24  1  0
  3 25  1  0
  3 26  1  0
  5 27  1  0
  6 28  1  0
 10 29  1  0
 11 30  1  0
 14 31  1  0
 14 32  1  0
 14 33  1  0
 15 34  1  0
 15 35  1  0
 15 36  1  0
 16 37  1  0
 20 38  1  0
M  CHG  1  13   1
M  END
$$$$
OCNT-0477348
     RDKit          3D

 45 47  0  0  0  0  0  0  0  0999 V2000
    4.7751    0.8690    1.7761 C   0  0  0  0  0  0  0  0  0  0  0  0
    3.4273    0.3000    1.6866 N   0  0  0  0  0  0  0  0  0  0  0  0
    3.4866   -1.1445    1.9216 C   0  0  0  0  0  0  0  0  0  0  0  0
    2.8270    0.6286    0.3820 C   0  0  0  0  0  0  0  0  0  0  0  0
    1.3385    0.2699    0.2930 C   0  0  0  0  0  0  0  0  0  0  0  0
    0.7398    0.7768   -1.0265 C   0  0  0  0  0  0  0  0  0  0  0  0
   -0.6841    0.3700   -1.1838 N   0  0  0  0  0  0  0  0  0  0  0  0
   -0.9183   -1.0056   -1.4471 C   0  0  0  0  0  0  0  0  0  0  0  0
   -1.9058   -1.7937   -0.8182 C   0  0  0  0  0  0  0  0  0  0  0  0
   -2.0872   -3.1415   -1.2187 C   0  0  0  0  0  0  0  0  0  0  0  0
   -1.3063   -3.7259   -2.2095 C   0  0  0  0  0  0  0  0  0  0  0  0
   -0.3388   -2.9661   -2.8394 C   0  0  0  0  0  0  0  0  0  0  0  0
   -0.1606   -1.6306   -2.4689 C   0  0  0  0  0  0  0  0  0  0  0  0
   -2.8411   -1.3205    0.2720 C   0  0  0  0  0  0  0  0  0  0  0  0
   -2.3008   -0.2377    1.1925 C   0  0  0  0  0  0  0  0  0  0  0  0
   -2.3466    1.0965    0.5051 C   0  0  0  0  0  0  0  0  0  0  0  0
   -3.1780    2.1106    1.0162 C   0  0  0  0  0  0  0  0  0  0  0  0
   -3.2524    3.3533    0.3903 C   0  0  0  0  0  0  0  0  0  0  0  0
   -2.4986    3.5866   -0.7518 C   0  0  0  0  0  0  0  0  0  0  0  0
   -2.5888    5.1139   -1.5397 Cl  0  0  0  0  0  0  0  0  0  0  0  0
   -1.6679    2.5911   -1.2621 C   0  0  0  0  0  0  0  0  0  0  0  0
   -1.5702    1.3323   -0.6382 C   0  0  0  0  0  0  0  0  0  0  0  0
    5.4472    0.4612    1.0122 H   0  0  0  0  0  0  0  0  0  0  0  0
    5.2122    0.6731    2.7617 H   0  0  0  0  0  0  0  0  0  0  0  0
    4.7427    1.9584    1.6623 H   0  0  0  0  0  0  0  0  0  0  0  0
    4.0374   -1.6691    1.1326 H   0  0  0  0  0  0  0  0  0  0  0  0
    2.4842   -1.5771    1.9950 H   0  0  0  0  0  0  0  0  0  0  0  0
    3.9751   -1.3584    2.8794 H   0  0  0  0  0  0  0  0  0  0  0  0
    2.9155    1.7109    0.2194 H   0  0  0  0  0  0  0  0  0  0  0  0
    3.3779    0.1391   -0.4320 H   0  0  0  0  0  0  0  0  0  0  0  0
    0.8022    0.7183    1.1378 H   0  0  0  0  0  0  0  0  0  0  0  0
    1.2057   -0.8149    0.3636 H   0  0  0  0  0  0  0  0  0  0  0  0
    0.8452    1.8696   -1.0587 H   0  0  0  0  0  0  0  0  0  0  0  0
    1.3490    0.4298   -1.8675 H   0  0  0  0  0  0  0  0  0  0  0  0
   -2.8569   -3.7492   -0.7450 H   0  0  0  0  0  0  0  0  0  0  0  0
   -1.4666   -4.7615   -2.4948 H   0  0  0  0  0  0  0  0  0  0  0  0
    0.2642   -3.3952   -3.6345 H   0  0  0  0  0  0  0  0  0  0  0  0
    0.5635   -1.0597   -3.0434 H   0  0  0  0  0  0  0  0  0  0  0  0
   -3.0799   -2.1795    0.9140 H   0  0  0  0  0  0  0  0  0  0  0  0
   -3.7839   -1.0049   -0.1942 H   0  0  0  0  0  0  0  0  0  0  0  0
   -1.2838   -0.4600    1.5345 H   0  0  0  0  0  0  0  0  0  0  0  0
   -2.9239   -0.2058    2.0953 H   0  0  0  0  0  0  0  0  0  0  0  0
   -3.7777    1.9330    1.9064 H   0  0  0  0  0  0  0  0  0  0  0  0
   -3.9007    4.1257    0.7940 H   0  0  0  0  0  0  0  0  0  0  0  0
   -1.0975    2.7838   -2.1672 H   0  0  0  0  0  0  0  0  0  0  0  0
  1  2  1  0
  2  3  1  0
  2  4  1  0
  4  5  1  0
  5  6  1  0
  6  7  1  0
  7  8  1  0
  8  9  1  0
  9 10  2  0
 10 11  1  0
 11 12  2  0
 12 13  1  0
  9 14  1  0
 14 15  1  0
 15 16  1  0
 16 17  1  0
 17 18  2  0
 18 19  1  0
 19 20  1  0
 19 21  2  0
 21 22  1  0
 22  7  1  0
 13  8  2  0
 22 16  2  0
  1 23  1  0
  1 24  1  0
  1 25  1  0
  3 26  1  0
  3 27  1  0
  3 28  1  0
  4 29  1  0
  4 30  1  0
  5 31  1  0
  5 32  1  0
  6 33  1  0
  6 34  1  0
 10 35  1  0
 11 36  1  0
 12 37  1  0
 13 38  1  0
 14 39  1  0
 14 40  1  0
 15 41  1  0
 15 42  1  0
 17 43  1  0
 18 44  1  0
 21 45  1  0
M  END
$$$$
OCNT-0477587
     RDKit          3D

 48 49  0  0  0  0  0  0  0  0999 V2000
   -4.9727   -2.8384    1.2028 C   0  0  0  0  0  0  0  0  0  0  0  0
   -3.6507   -2.1168    0.9592 C   0  0  0  0  0  0  0  0  0  0  0  0
   -3.7530   -1.0551   -0.0591 N   0  0  0  0  0  0  0  0  0  0  0  0
   -4.5397    0.0937    0.4189 C   0  0  0  0  0  0  0  0  0  0  0  0
   -4.7711    1.1637   -0.6448 C   0  0  0  0  0  0  0  0  0  0  0  0
   -2.4186   -0.6905   -0.5742 C   0  0  0  0  0  0  0  0  0  0  0  0
   -1.4612    0.0336    0.3855 C   0  0  0  0  0  0  0  0  0  0  0  0
   -0.1987    0.1999   -0.2821 O   0  0  0  0  0  0  0  0  0  0  0  0
    0.6798    1.0221    0.3600 C   0  0  0  0  0  0  0  0  0  0  0  0
    0.4369    1.6005    1.4123 O   0  0  0  0  0  0  0  0  0  0  0  0
    2.0247    1.0946   -0.3785 C   0  0  0  0  0  0  0  0  0  0  0  0
    2.9680    0.0093    0.1642 C   0  0  0  0  0  0  0  0  0  0  0  0
    4.0842    0.2981    0.9664 C   0  0  0  0  0  0  0  0  0  0  0  0
    4.9095   -0.7203    1.4540 C   0  0  0  0  0  0  0  0  0  0  0  0
    4.6320   -2.0505    1.1579 C   0  0  0  0  0  0  0  0  0  0  0  0
    3.5240   -2.3650    0.3789 C   0  0  0  0  0  0  0  0  0  0  0  0
    2.7000   -1.3477   -0.1076 C   0  0  0  0  0  0  0  0  0  0  0  0
    1.8594    0.9997   -1.9171 C   0  0  0  0  0  0  0  0  0  0  0  0
    3.0891    1.6954   -2.4959 C   0  0  0  0  0  0  0  0  0  0  0  0
    3.5079    2.7265   -1.4544 C   0  0  0  0  0  0  0  0  0  0  0  0
    2.5351    2.5547   -0.2905 C   0  0  0  0  0  0  0  0  0  0  0  0
   -4.8066   -3.7098    1.8447 H   0  0  0  0  0  0  0  0  0  0  0  0
   -5.7035   -2.1984    1.7058 H   0  0  0  0  0  0  0  0  0  0  0  0
   -5.4085   -3.1936    0.2627 H   0  0  0  0  0  0  0  0  0  0  0  0
   -2.9407   -2.8804    0.6156 H   0  0  0  0  0  0  0  0  0  0  0  0
   -3.2644   -1.7256    1.9089 H   0  0  0  0  0  0  0  0  0  0  0  0
   -4.0809    0.5505    1.3031 H   0  0  0  0  0  0  0  0  0  0  0  0
   -5.5342   -0.2483    0.7248 H   0  0  0  0  0  0  0  0  0  0  0  0
   -5.1933    0.7289   -1.5574 H   0  0  0  0  0  0  0  0  0  0  0  0
   -3.8485    1.6915   -0.9043 H   0  0  0  0  0  0  0  0  0  0  0  0
   -5.4796    1.9108   -0.2717 H   0  0  0  0  0  0  0  0  0  0  0  0
   -2.5307   -0.0831   -1.4825 H   0  0  0  0  0  0  0  0  0  0  0  0
   -1.9211   -1.5970   -0.9487 H   0  0  0  0  0  0  0  0  0  0  0  0
   -1.2944   -0.5617    1.2886 H   0  0  0  0  0  0  0  0  0  0  0  0
   -1.8673    1.0133    0.6582 H   0  0  0  0  0  0  0  0  0  0  0  0
    4.3424    1.3168    1.2378 H   0  0  0  0  0  0  0  0  0  0  0  0
    5.7701   -0.4694    2.0706 H   0  0  0  0  0  0  0  0  0  0  0  0
    5.2734   -2.8403    1.5390 H   0  0  0  0  0  0  0  0  0  0  0  0
    3.2957   -3.4033    0.1516 H   0  0  0  0  0  0  0  0  0  0  0  0
    1.8340   -1.6345   -0.7022 H   0  0  0  0  0  0  0  0  0  0  0  0
    0.9608    1.5456   -2.2383 H   0  0  0  0  0  0  0  0  0  0  0  0
    1.7623   -0.0185   -2.3076 H   0  0  0  0  0  0  0  0  0  0  0  0
    3.8978    0.9741   -2.6547 H   0  0  0  0  0  0  0  0  0  0  0  0
    2.8680    2.1582   -3.4631 H   0  0  0  0  0  0  0  0  0  0  0  0
    3.4688    3.7452   -1.8540 H   0  0  0  0  0  0  0  0  0  0  0  0
    4.5385    2.5398   -1.1339 H   0  0  0  0  0  0  0  0  0  0  0  0
    1.6972    3.2512   -0.4378 H   0  0  0  0  0  0  0  0  0  0  0  0
    2.9801    2.8305    0.6691 H   0  0  0  0  0  0  0  0  0  0  0  0
  1  2  1  0
  2  3  1  0
  3  4  1  0
  4  5  1  0
  3  6  1  0
  6  7  1  0
  7  8  1  0
  8  9  1  0
  9 10  2  0
  9 11  1  0
 11 12  1  0
 12 13  2  0
 13 14  1  0
 14 15  2  0
 15 16  1  0
 16 17  2  0
 11 18  1  0
 18 19  1  0
 19 20  1  0
 20 21  1  0
 21 11  1  0
 17 12  1  0
  1 22  1  0
  1 23  1  0
  1 24  1  0
  2 25  1  0
  2 26  1  0
  4 27  1  0
  4 28  1  0
  5 29  1  0
  5 30  1  0
  5 31  1  0
  6 32  1  0
  6 33  1  0
  7 34  1  0
  7 35  1  0
 13 36  1  0
 14 37  1  0
 15 38  1  0
 16 39  1  0
 17 40  1  0
 18 41  1  0
 18 42  1  0
 19 43  1  0
 19 44  1  0
 20 45  1  0
 20 46  1  0
 21 47  1  0
 21 48  1  0
M  END
$$$$
OCNT-0478484
     RDKit          3D

 42 44  0  0  0  0  0  0  0  0999 V2000
    5.4169   -0.2477   -0.3632 C   0  0  0  0  0  0  0  0  0  0  0  0
    4.0313   -0.4576    0.0392 N   0  0  0  0  0  0  0  0  0  0  0  0
    3.3876    0.8111    0.3814 C   0  0  0  0  0  0  0  0  0  0  0  0
    1.9190    0.6000    0.7538 C   0  0  0  0  0  0  0  0  0  0  0  0
    1.0814    0.1042   -0.4409 C   0  0  0  0  0  0  0  0  0  0  0  0
   -0.3774    0.0356   -0.1165 N   0  0  0  0  0  0  0  0  0  0  0  0
   -1.1140    1.1307   -0.6832 C   0  0  0  0  0  0  0  0  0  0  0  0
   -2.4131    1.0063   -1.2091 C   0  0  0  0  0  0  0  0  0  0  0  0
   -3.0609    2.1046   -1.8220 C   0  0  0  0  0  0  0  0  0  0  0  0
   -2.4537    3.3506   -1.8978 C   0  0  0  0  0  0  0  0  0  0  0  0
   -1.1946    3.5154   -1.3523 C   0  0  0  0  0  0  0  0  0  0  0  0
   -0.5460    2.4266   -0.7572 C   0  0  0  0  0  0  0  0  0  0  0  0
   -3.1825   -0.2765   -1.1117 C   0  0  0  0  0  0  0  0  0  0  0  0
   -3.3425   -0.6254    0.3565 C   0  0  0  0  0  0  0  0  0  0  0  0
   -2.1778   -1.4381    0.8574 C   0  0  0  0  0  0  0  0  0  0  0  0
   -0.8240   -1.1481    0.5641 C   0  0  0  0  0  0  0  0  0  0  0  0
    0.1034   -2.1151    1.0371 C   0  0  0  0  0  0  0  0  0  0  0  0
   -0.2561   -3.2442    1.7861 C   0  0  0  0  0  0  0  0  0  0  0  0
   -1.5795   -3.4645    2.1035 C   0  0  0  0  0  0  0  0  0  0  0  0
   -2.5309   -2.5691    1.6406 C   0  0  0  0  0  0  0  0  0  0  0  0
    5.8728   -1.2106   -0.6138 H   0  0  0  0  0  0  0  0  0  0  0  0
    5.4785    0.3872   -1.2530 H   0  0  0  0  0  0  0  0  0  0  0  0
    6.0047    0.2045    0.4421 H   0  0  0  0  0  0  0  0  0  0  0  0
    4.0148   -1.0753    0.8516 H   0  0  0  0  0  0  0  0  0  0  0  0
    3.4493    1.5109   -0.4608 H   0  0  0  0  0  0  0  0  0  0  0  0
    3.9035    1.2708    1.2330 H   0  0  0  0  0  0  0  0  0  0  0  0
    1.8546   -0.0888    1.6028 H   0  0  0  0  0  0  0  0  0  0  0  0
    1.5216    1.5478    1.1320 H   0  0  0  0  0  0  0  0  0  0  0  0
    1.4377   -0.8650   -0.8118 H   0  0  0  0  0  0  0  0  0  0  0  0
    1.2649    0.7559   -1.3068 H   0  0  0  0  0  0  0  0  0  0  0  0
   -4.0615    1.9887   -2.2340 H   0  0  0  0  0  0  0  0  0  0  0  0
   -2.9673    4.1854   -2.3650 H   0  0  0  0  0  0  0  0  0  0  0  0
   -0.7076    4.4861   -1.3831 H   0  0  0  0  0  0  0  0  0  0  0  0
    0.4313    2.6331   -0.3361 H   0  0  0  0  0  0  0  0  0  0  0  0
   -2.6908   -1.0647   -1.6949 H   0  0  0  0  0  0  0  0  0  0  0  0
   -4.1808   -0.1479   -1.5489 H   0  0  0  0  0  0  0  0  0  0  0  0
   -3.4774    0.2561    0.9963 H   0  0  0  0  0  0  0  0  0  0  0  0
   -4.2637   -1.2161    0.4466 H   0  0  0  0  0  0  0  0  0  0  0  0
    1.1677   -2.0283    0.8476 H   0  0  0  0  0  0  0  0  0  0  0  0
    0.5102   -3.9376    2.1215 H   0  0  0  0  0  0  0  0  0  0  0  0
   -1.8734   -4.3286    2.6911 H   0  0  0  0  0  0  0  0  0  0  0  0
   -3.5758   -2.7628    1.8779 H   0  0  0  0  0  0  0  0  0  0  0  0
  1  2  1  0
  2  3  1  0
  3  4  1  0
  4  5  1  0
  5  6  1  0
  6  7  1  0
  7  8  1  0
  8  9  2  0
  9 10  1  0
 10 11  2  0
 11 12  1  0
  8 13  1  0
 13 14  1  0
 14 15  1  0
 15 16  1  0
 16 17  2  0
 17 18  1  0
 18 19  2  0
 19 20  1  0
 16  6  1  0
 12  7  2  0
 20 15  2  0
  1 21  1  0
  1 22  1  0
  1 23  1  0
  2 24  1  0
  3 25  1  0
  3 26  1  0
  4 27  1  0
  4 28  1  0
  5 29  1  0
  5 30  1  0
  9 31  1  0
 10 32  1  0
 11 33  1  0
 12 34  1  0
 13 35  1  0
 13 36  1  0
 14 37  1  0
 14 38  1  0
 17 39  1  0
 18 40  1  0
 19 41  1  0
 20 42  1  0
M  END
$$$$
OCNT-0478585
     RDKit          3D

 29 31  0  0  0  0  0  0  0  0999 V2000
    0.5048    2.4125   -0.8620 N   0  0  0  0  0  0  0  0  0  0  0  0
    0.4854    1.0293   -0.5529 C   0  0  0  0  0  0  0  0  0  0  0  0
   -0.7528    0.3833   -0.4639 C   0  0  0  0  0  0  0  0  0  0  0  0
   -2.0652    1.0136   -0.8499 C   0  0  0  0  0  0  0  0  0  0  0  0
   -3.1819    0.6339    0.1285 C   0  0  0  0  0  0  0  0  0  0  0  0
   -3.1710   -0.8322    0.5846 C   0  0  0  0  0  0  0  0  0  0  0  0
   -2.0879   -1.6837   -0.0731 C   0  0  0  0  0  0  0  0  0  0  0  0
   -0.7697   -0.9553   -0.0764 C   0  0  0  0  0  0  0  0  0  0  0  0
    0.3341   -1.6480    0.2722 N   0  0  0  0  0  0  0  0  0  0  0  0
    1.5119   -1.0087    0.2621 C   0  0  0  0  0  0  0  0  0  0  0  0
    1.6553    0.3432   -0.1268 C   0  0  0  0  0  0  0  0  0  0  0  0
    2.9470    0.9260   -0.0707 C   0  0  0  0  0  0  0  0  0  0  0  0
    4.0589    0.1916    0.3423 C   0  0  0  0  0  0  0  0  0  0  0  0
    3.9030   -1.1364    0.7083 C   0  0  0  0  0  0  0  0  0  0  0  0
    2.6353   -1.7184    0.6649 C   0  0  0  0  0  0  0  0  0  0  0  0
    1.3887    2.7136   -1.2584 H   0  0  0  0  0  0  0  0  0  0  0  0
    0.2989    2.9584   -0.0272 H   0  0  0  0  0  0  0  0  0  0  0  0
   -2.3250    0.6753   -1.8610 H   0  0  0  0  0  0  0  0  0  0  0  0
   -2.0004    2.1061   -0.8885 H   0  0  0  0  0  0  0  0  0  0  0  0
   -4.1526    0.8767   -0.3203 H   0  0  0  0  0  0  0  0  0  0  0  0
   -3.1000    1.2679    1.0216 H   0  0  0  0  0  0  0  0  0  0  0  0
   -3.0233   -0.8503    1.6729 H   0  0  0  0  0  0  0  0  0  0  0  0
   -4.1535   -1.2857    0.4082 H   0  0  0  0  0  0  0  0  0  0  0  0
   -2.3635   -1.9130   -1.1096 H   0  0  0  0  0  0  0  0  0  0  0  0
   -1.9960   -2.6384    0.4571 H   0  0  0  0  0  0  0  0  0  0  0  0
    3.1029    1.9640   -0.3479 H   0  0  0  0  0  0  0  0  0  0  0  0
    5.0406    0.6569    0.3757 H   0  0  0  0  0  0  0  0  0  0  0  0
    4.7589   -1.7231    1.0309 H   0  0  0  0  0  0  0  0  0  0  0  0
    2.5171   -2.7590    0.9593 H   0  0  0  0  0  0  0  0  0  0  0  0
  1  2  1  0
  2  3  2  0
  3  4  1  0
  4  5  1  0
  5  6  1  0
  6  7  1  0
  7  8  1  0
  8  9  2  0
  9 10  1  0
 10 11  1  0
 11 12  2  0
 12 13  1  0
 13 14  2  0
 14 15  1  0
 11  2  1  0
  8  3  1  0
 15 10  2  0
  1 16  1  0
  1 17  1  0
  4 18  1  0
  4 19  1  0
  5 20  1  0
  5 21  1  0
  6 22  1  0
  6 23  1  0
  7 24  1  0
  7 25  1  0
 12 26  1  0
 13 27  1  0
 14 28  1  0
 15 29  1  0
M  END
$$$$
OCNT-0483502
     RDKit          3D

 37 40  0  0  0  0  0  0  0  0999 V2000
    0.9702   -0.9090    2.8474 O   0  0  0  0  0  0  0  0  0  0  0  0
    1.6478   -0.4886    1.9164 C   0  0  0  0  0  0  0  0  0  0  0  0
    2.8424   -1.1049    1.5746 O   0  0  0  0  0  0  0  0  0  0  0  0
    3.6064   -0.6742    0.4787 C   0  0  0  0  0  0  0  0  0  0  0  0
    4.7895   -1.3654    0.2191 C   0  0  0  0  0  0  0  0  0  0  0  0
    5.5802   -0.9780   -0.8598 C   0  0  0  0  0  0  0  0  0  0  0  0
    5.1817    0.0908   -1.6632 C   0  0  0  0  0  0  0  0  0  0  0  0
    3.9912    0.7727   -1.3881 C   0  0  0  0  0  0  0  0  0  0  0  0
    3.1868    0.3925   -0.3073 C   0  0  0  0  0  0  0  0  0  0  0  0
    1.9348    1.0615    0.0383 C   0  0  0  0  0  0  0  0  0  0  0  0
    1.5614    2.0867   -0.8074 O   0  0  0  0  0  0  0  0  0  0  0  0
    1.2112    0.6759    1.1043 C   0  0  0  0  0  0  0  0  0  0  0  0
   -0.0234    1.3954    1.6072 C   0  0  0  0  0  0  0  0  0  0  0  0
   -1.3240    0.7320    1.2204 C   0  0  0  0  0  0  0  0  0  0  0  0
   -1.7616    0.6345   -0.0458 C   0  0  0  0  0  0  0  0  0  0  0  0
   -1.0121    1.1405   -1.0932 O   0  0  0  0  0  0  0  0  0  0  0  0
   -3.0260   -0.0355   -0.3614 C   0  0  0  0  0  0  0  0  0  0  0  0
   -3.6079   -0.0768   -1.6358 C   0  0  0  0  0  0  0  0  0  0  0  0
   -4.8034   -0.7740   -1.8515 C   0  0  0  0  0  0  0  0  0  0  0  0
   -5.4368   -1.4300   -0.7968 C   0  0  0  0  0  0  0  0  0  0  0  0
   -4.8860   -1.3754    0.4795 C   0  0  0  0  0  0  0  0  0  0  0  0
   -3.6976   -0.6730    0.6792 C   0  0  0  0  0  0  0  0  0  0  0  0
   -3.2273   -0.5969    2.0007 O   0  0  0  0  0  0  0  0  0  0  0  0
   -2.1544    0.2157    2.3387 C   0  0  0  0  0  0  0  0  0  0  0  0
   -1.9196    0.4933    3.5090 O   0  0  0  0  0  0  0  0  0  0  0  0
    5.0906   -2.1951    0.8520 H   0  0  0  0  0  0  0  0  0  0  0  0
    6.5063   -1.5054   -1.0740 H   0  0  0  0  0  0  0  0  0  0  0  0
    5.7988    0.3982   -2.5041 H   0  0  0  0  0  0  0  0  0  0  0  0
    3.7012    1.6073   -2.0227 H   0  0  0  0  0  0  0  0  0  0  0  0
    0.5842    2.1447   -0.7990 H   0  0  0  0  0  0  0  0  0  0  0  0
    0.0649    1.5228    2.6931 H   0  0  0  0  0  0  0  0  0  0  0  0
   -0.0419    2.4291    1.2358 H   0  0  0  0  0  0  0  0  0  0  0  0
   -1.1699    0.5786   -1.8747 H   0  0  0  0  0  0  0  0  0  0  0  0
   -3.1652    0.4408   -2.4820 H   0  0  0  0  0  0  0  0  0  0  0  0
   -5.2449   -0.7997   -2.8456 H   0  0  0  0  0  0  0  0  0  0  0  0
   -6.3657   -1.9689   -0.9668 H   0  0  0  0  0  0  0  0  0  0  0  0
   -5.3821   -1.8623    1.3146 H   0  0  0  0  0  0  0  0  0  0  0  0
  1  2  2  0
  2  3  1  0
  3  4  1  0
  4  5  2  0
  5  6  1  0
  6  7  2  0
  7  8  1  0
  8  9  2  0
  9 10  1  0
 10 11  1  0
 10 12  2  0
 12 13  1  0
 13 14  1  0
 14 15  2  0
 15 16  1  0
 15 17  1  0
 17 18  2  0
 18 19  1  0
 19 20  2  0
 20 21  1  0
 21 22  2  0
 22 23  1  0
 23 24  1  0
 24 25  2  0
 12  2  1  0
 24 14  1  0
  9  4  1  0
 22 17  1  0
  5 26  1  0
  6 27  1  0
  7 28  1  0
  8 29  1  0
 11 30  1  0
 13 31  1  0
 13 32  1  0
 16 33  1  0
 18 34  1  0
 19 35  1  0
 20 36  1  0
 21 37  1  0
M  END
$$$$
OCNT-0483505
     RDKit          3D

 24 26  0  0  0  0  0  0  0  0999 V2000
    0.5808    3.1211    0.9755 C   0  0  0  0  0  0  0  0  0  0  0  0
   -0.3375    2.0431    1.0882 O   0  0  0  0  0  0  0  0  0  0  0  0
   -0.0232    0.8876    0.3954 C   0  0  0  0  0  0  0  0  0  0  0  0
   -0.9302   -0.1823    0.5046 C   0  0  0  0  0  0  0  0  0  0  0  0
   -2.0803    0.0217    1.3127 O   0  0  0  0  0  0  0  0  0  0  0  0
   -3.0404   -0.9604    1.4927 C   0  0  0  0  0  0  0  0  0  0  0  0
   -4.0364   -0.7962    2.1872 O   0  0  0  0  0  0  0  0  0  0  0  0
   -2.8121   -2.2396    0.8007 C   0  0  0  0  0  0  0  0  0  0  0  0
   -1.7399   -2.4592    0.0347 C   0  0  0  0  0  0  0  0  0  0  0  0
   -0.7461   -1.4096   -0.1375 C   0  0  0  0  0  0  0  0  0  0  0  0
    0.3868   -1.6148   -0.9353 C   0  0  0  0  0  0  0  0  0  0  0  0
    1.3221   -0.5708   -1.0733 C   0  0  0  0  0  0  0  0  0  0  0  0
    1.0961    0.6384   -0.4128 C   0  0  0  0  0  0  0  0  0  0  0  0
    2.1236    1.4980   -0.6876 O   0  0  0  0  0  0  0  0  0  0  0  0
    2.9915    0.8551   -1.5072 C   0  0  0  0  0  0  0  0  0  0  0  0
    2.5482   -0.4169   -1.7754 C   0  0  0  0  0  0  0  0  0  0  0  0
    1.5597    2.8521    1.3847 H   0  0  0  0  0  0  0  0  0  0  0  0
    0.6553    3.4715   -0.0588 H   0  0  0  0  0  0  0  0  0  0  0  0
    0.1927    3.9507    1.5746 H   0  0  0  0  0  0  0  0  0  0  0  0
   -3.5718   -2.9968    0.9518 H   0  0  0  0  0  0  0  0  0  0  0  0
   -1.5969   -3.4119   -0.4637 H   0  0  0  0  0  0  0  0  0  0  0  0
    0.5519   -2.5601   -1.4444 H   0  0  0  0  0  0  0  0  0  0  0  0
    3.8603    1.4248   -1.8071 H   0  0  0  0  0  0  0  0  0  0  0  0
    3.0458   -1.1454   -2.3997 H   0  0  0  0  0  0  0  0  0  0  0  0
  1  2  1  0
  2  3  1  0
  3  4  1  0
  4  5  1  0
  5  6  1  0
  6  7  2  0
  6  8  1  0
  8  9  2  0
  9 10  1  0
 10 11  1  0
 11 12  2  0
 12 13  1  0
 13 14  1  0
 14 15  1  0
 15 16  2  0
 13  3  2  0
 10  4  2  0
 16 12  1  0
  1 17  1  0
  1 18  1  0
  1 19  1  0
  8 20  1  0
  9 21  1  0
 11 22  1  0
 15 23  1  0
 16 24  1  0
M  END
$$$$
OCNT-0493312
     RDKit          3D

 50 53  0  0  0  0  0  0  0  0999 V2000
    5.0342   -0.4336   -3.5330 C   0  0  0  0  0  0  0  0  0  0  0  0
    5.3493   -1.0902   -2.2020 C   0  0  0  0  0  0  0  0  0  0  0  0
    4.1952   -1.0628   -1.3508 O   0  0  0  0  0  0  0  0  0  0  0  0
    4.0323    0.0633   -0.6019 C   0  0  0  0  0  0  0  0  0  0  0  0
    4.8003    1.0173   -0.6288 O   0  0  0  0  0  0  0  0  0  0  0  0
    2.8984    0.0021    0.1833 N   0  0  0  0  0  0  0  0  0  0  0  0
    2.5506    1.1140    1.0572 C   0  0  0  0  0  0  0  0  0  0  0  0
    1.0476    1.4272    1.0261 C   0  0  0  0  0  0  0  0  0  0  0  0
    0.1464    0.1978    1.1520 C   0  0  0  0  0  0  0  0  0  0  0  0
   -1.2126    0.2672    1.0682 C   0  0  0  0  0  0  0  0  0  0  0  0
   -2.0118   -0.9795    1.1240 C   0  0  0  0  0  0  0  0  0  0  0  0
   -2.1857   -1.6730    2.3294 C   0  0  0  0  0  0  0  0  0  0  0  0
   -2.9435   -2.8443    2.3603 C   0  0  0  0  0  0  0  0  0  0  0  0
   -3.5344   -3.3155    1.1895 C   0  0  0  0  0  0  0  0  0  0  0  0
   -4.4689   -4.7602    1.2281 Cl  0  0  0  0  0  0  0  0  0  0  0  0
   -3.3835   -2.6226   -0.0124 C   0  0  0  0  0  0  0  0  0  0  0  0
   -2.6255   -1.4443   -0.0520 C   0  0  0  0  0  0  0  0  0  0  0  0
   -2.4853   -0.6487   -1.3261 C   0  0  0  0  0  0  0  0  0  0  0  0
   -3.2356    0.6868   -1.2544 C   0  0  0  0  0  0  0  0  0  0  0  0
   -2.8117    1.7375   -0.2475 C   0  0  0  0  0  0  0  0  0  0  0  0
   -3.4198    3.0011   -0.3630 C   0  0  0  0  0  0  0  0  0  0  0  0
   -3.1239    4.0166    0.5375 C   0  0  0  0  0  0  0  0  0  0  0  0
   -2.2261    3.7421    1.5469 C   0  0  0  0  0  0  0  0  0  0  0  0
   -1.6202    2.5482    1.7019 N   0  0  0  0  0  0  0  0  0  0  0  0
   -1.9043    1.5624    0.8080 C   0  0  0  0  0  0  0  0  0  0  0  0
    0.9396   -1.0956    1.2865 C   0  0  0  0  0  0  0  0  0  0  0  0
    2.0417   -1.1794    0.2241 C   0  0  0  0  0  0  0  0  0  0  0  0
    4.7788    0.6224   -3.4001 H   0  0  0  0  0  0  0  0  0  0  0  0
    5.8889   -0.5033   -4.2117 H   0  0  0  0  0  0  0  0  0  0  0  0
    4.1695   -0.9135   -4.0030 H   0  0  0  0  0  0  0  0  0  0  0  0
    6.2155   -0.6245   -1.7182 H   0  0  0  0  0  0  0  0  0  0  0  0
    5.6014   -2.1435   -2.3634 H   0  0  0  0  0  0  0  0  0  0  0  0
    3.1183    2.0116    0.7895 H   0  0  0  0  0  0  0  0  0  0  0  0
    2.8590    0.8330    2.0720 H   0  0  0  0  0  0  0  0  0  0  0  0
    0.8484    2.1297    1.8421 H   0  0  0  0  0  0  0  0  0  0  0  0
    0.8265    1.9272    0.0744 H   0  0  0  0  0  0  0  0  0  0  0  0
   -1.7313   -1.2999    3.2448 H   0  0  0  0  0  0  0  0  0  0  0  0
   -3.0710   -3.3792    3.2974 H   0  0  0  0  0  0  0  0  0  0  0  0
   -3.8639   -2.9966   -0.9131 H   0  0  0  0  0  0  0  0  0  0  0  0
   -2.8878   -1.2300   -2.1655 H   0  0  0  0  0  0  0  0  0  0  0  0
   -1.4238   -0.4931   -1.5565 H   0  0  0  0  0  0  0  0  0  0  0  0
   -4.2996    0.4775   -1.0767 H   0  0  0  0  0  0  0  0  0  0  0  0
   -3.1644    1.1426   -2.2515 H   0  0  0  0  0  0  0  0  0  0  0  0
   -4.1369    3.1936   -1.1586 H   0  0  0  0  0  0  0  0  0  0  0  0
   -3.5882    4.9926    0.4564 H   0  0  0  0  0  0  0  0  0  0  0  0
   -1.9614    4.4947    2.2836 H   0  0  0  0  0  0  0  0  0  0  0  0
    0.3249   -1.9948    1.1953 H   0  0  0  0  0  0  0  0  0  0  0  0
    1.3860   -1.1241    2.2888 H   0  0  0  0  0  0  0  0  0  0  0  0
    1.5990   -1.2973   -0.7729 H   0  0  0  0  0  0  0  0  0  0  0  0
    2.6692   -2.0587    0.4109 H   0  0  0  0  0  0  0  0  0  0  0  0
  1  2  1  0
  2  3  1  0
  3  4  1  0
  4  5  2  0
  4  6  1  0
  6  7  1  0
  7  8  1  0
  8  9  1  0
  9 10  2  3
 10 11  1  0
 11 12  1  0
 12 13  2  0
 13 14  1  0
 14 15  1  0
 14 16  2  0
 16 17  1  0
 17 18  1  0
 18 19  1  0
 19 20  1  0
 20 21  1  0
 21 22  2  0
 22 23  1  0
 23 24  2  0
 24 25  1  0
  9 26  1  0
 26 27  1  0
 27  6  1  0
 25 10  1  0
 17 11  2  0
 25 20  2  0
  1 28  1  0
  1 29  1  0
  1 30  1  0
  2 31  1  0
  2 32  1  0
  7 33  1  0
  7 34  1  0
  8 35  1  0
  8 36  1  0
 12 37  1  0
 13 38  1  0
 16 39  1  0
 18 40  1  0
 18 41  1  0
 19 42  1  0
 19 43  1  0
 21 44  1  0
 22 45  1  0
 23 46  1  0
 26 47  1  0
 26 48  1  0
 27 49  1  0
 27 50  1  0
M  END
$$$$
OCNT-0493664
     RDKit          3D

 39 41  0  0  0  0  0  0  0  0999 V2000
    0.2520   -2.6335   -1.0462 C   0  0  0  0  0  0  0  0  0  0  0  0
   -0.2965   -1.2977   -0.6601 C   0  0  0  0  0  0  0  0  0  0  0  0
    0.3727   -0.1998   -0.2718 C   0  0  0  0  0  0  0  0  0  0  0  0
    1.6929    0.1455   -0.1505 N   0  0  0  0  0  0  0  0  0  0  0  0
    2.7935   -0.4663   -0.7077 C   0  0  0  0  0  0  0  0  0  0  0  0
    2.7686   -1.3943   -1.5064 O   0  0  0  0  0  0  0  0  0  0  0  0
    4.1074    0.1176   -0.3363 C   0  0  0  0  0  0  0  0  0  0  0  0
    4.3363    0.8003    0.8621 C   0  0  0  0  0  0  0  0  0  0  0  0
    5.6067    1.3114    1.1257 C   0  0  0  0  0  0  0  0  0  0  0  0
    6.6064    1.1164    0.1854 C   0  0  0  0  0  0  0  0  0  0  0  0
    6.4230    0.4507   -0.9747 N   0  0  0  0  0  0  0  0  0  0  0  0
    5.1797   -0.0417   -1.2064 C   0  0  0  0  0  0  0  0  0  0  0  0
   -0.6756    0.7923    0.1301 C   0  0  0  0  0  0  0  0  0  0  0  0
   -0.3811    1.8812    0.6046 O   0  0  0  0  0  0  0  0  0  0  0  0
   -1.9117    0.1815   -0.0869 N   0  0  0  0  0  0  0  0  0  0  0  0
   -3.1270    0.5247    0.5601 C   0  0  0  0  0  0  0  0  0  0  0  0
   -3.3654    1.8375    0.9896 C   0  0  0  0  0  0  0  0  0  0  0  0
   -4.5636    2.1822    1.6244 C   0  0  0  0  0  0  0  0  0  0  0  0
   -5.5413    1.2166    1.8445 C   0  0  0  0  0  0  0  0  0  0  0  0
   -5.3203   -0.0940    1.4331 C   0  0  0  0  0  0  0  0  0  0  0  0
   -4.1225   -0.4359    0.7972 C   0  0  0  0  0  0  0  0  0  0  0  0
   -1.6953   -1.1196   -0.6291 N   0  0  0  0  0  0  0  0  0  0  0  0
   -2.4272   -1.3556   -1.8890 C   0  0  0  0  0  0  0  0  0  0  0  0
   -0.4730   -3.4254   -0.8261 H   0  0  0  0  0  0  0  0  0  0  0  0
    1.1495   -2.8834   -0.4737 H   0  0  0  0  0  0  0  0  0  0  0  0
    0.4729   -2.6679   -2.1171 H   0  0  0  0  0  0  0  0  0  0  0  0
    1.8205    1.0629    0.2702 H   0  0  0  0  0  0  0  0  0  0  0  0
    3.5563    0.9216    1.6077 H   0  0  0  0  0  0  0  0  0  0  0  0
    5.8155    1.8432    2.0480 H   0  0  0  0  0  0  0  0  0  0  0  0
    7.6115    1.4962    0.3478 H   0  0  0  0  0  0  0  0  0  0  0  0
    5.0706   -0.5793   -2.1456 H   0  0  0  0  0  0  0  0  0  0  0  0
   -2.6336    2.6238    0.8235 H   0  0  0  0  0  0  0  0  0  0  0  0
   -4.7287    3.2078    1.9451 H   0  0  0  0  0  0  0  0  0  0  0  0
   -6.4705    1.4844    2.3407 H   0  0  0  0  0  0  0  0  0  0  0  0
   -6.0744   -0.8557    1.6139 H   0  0  0  0  0  0  0  0  0  0  0  0
   -3.9678   -1.4751    0.5202 H   0  0  0  0  0  0  0  0  0  0  0  0
   -3.4971   -1.1555   -1.7839 H   0  0  0  0  0  0  0  0  0  0  0  0
   -2.3242   -2.4012   -2.1977 H   0  0  0  0  0  0  0  0  0  0  0  0
   -2.0393   -0.7158   -2.6902 H   0  0  0  0  0  0  0  0  0  0  0  0
  1  2  1  0
  2  3  2  0
  3  4  1  0
  4  5  1  0
  5  6  2  0
  5  7  1  0
  7  8  1  0
  8  9  2  0
  9 10  1  0
 10 11  2  0
 11 12  1  0
  3 13  1  0
 13 14  2  0
 13 15  1  0
 15 16  1  0
 16 17  2  0
 17 18  1  0
 18 19  2  0
 19 20  1  0
 20 21  2  0
 15 22  1  0
 22 23  1  0
 22  2  1  0
 12  7  2  0
 21 16  1  0
  1 24  1  0
  1 25  1  0
  1 26  1  0
  4 27  1  0
  8 28  1  0
  9 29  1  0
 10 30  1  0
 12 31  1  0
 17 32  1  0
 18 33  1  0
 19 34  1  0
 20 35  1  0
 21 36  1  0
 23 37  1  0
 23 38  1  0
 23 39  1  0
M  END
$$$$
OCNT-0493764
     RDKit          3D

 52 53  0  0  0  0  0  0  0  0999 V2000
    7.2127   -2.6331    1.3654 C   0  0  0  0  0  0  0  0  0  0  0  0
    6.6749   -1.3279    1.5176 O   0  0  0  0  0  0  0  0  0  0  0  0
    5.7390   -0.9144    0.6013 C   0  0  0  0  0  0  0  0  0  0  0  0
    5.2486   -1.7083   -0.4403 C   0  0  0  0  0  0  0  0  0  0  0  0
    4.2922   -1.2040   -1.3249 C   0  0  0  0  0  0  0  0  0  0  0  0
    3.8109    0.1007   -1.1831 C   0  0  0  0  0  0  0  0  0  0  0  0
    2.7643    0.6380   -2.1336 C   0  0  0  0  0  0  0  0  0  0  0  0
    1.3643    0.7724   -1.5076 C   0  0  0  0  0  0  0  0  0  0  0  0
    0.7867   -0.5374   -1.1727 N   0  0  0  0  0  0  0  0  0  0  0  0
   -0.4462   -0.4237   -0.3718 C   0  0  0  0  0  0  0  0  0  0  0  0
   -1.6202    0.3068   -1.0563 C   0  0  0  0  0  0  0  0  0  0  0  0
   -1.4209    1.7297   -0.9907 O   0  0  0  0  0  0  0  0  0  0  0  0
   -2.9457   -0.0217   -0.3531 C   0  0  0  0  0  0  0  0  0  0  0  0
   -3.9919    0.6427   -1.0744 O   0  0  0  0  0  0  0  0  0  0  0  0
   -5.2704    0.4611   -0.6232 C   0  0  0  0  0  0  0  0  0  0  0  0
   -6.2529    1.0863   -1.3938 C   0  0  0  0  0  0  0  0  0  0  0  0
   -7.5990    0.9900   -1.0422 C   0  0  0  0  0  0  0  0  0  0  0  0
   -7.9725    0.2616    0.0856 C   0  0  0  0  0  0  0  0  0  0  0  0
   -7.0026   -0.3825    0.8620 C   0  0  0  0  0  0  0  0  0  0  0  0
   -7.4002   -1.1375    2.0966 C   0  0  0  0  0  0  0  0  0  0  0  0
   -5.6485   -0.2668    0.5073 C   0  0  0  0  0  0  0  0  0  0  0  0
    4.3026    0.8985   -0.1388 C   0  0  0  0  0  0  0  0  0  0  0  0
    5.2606    0.4022    0.7546 C   0  0  0  0  0  0  0  0  0  0  0  0
    5.7880    1.1169    1.8025 O   0  0  0  0  0  0  0  0  0  0  0  0
    5.3369    2.4509    1.9841 C   0  0  0  0  0  0  0  0  0  0  0  0
    7.7297   -2.7394    0.4060 H   0  0  0  0  0  0  0  0  0  0  0  0
    6.4365   -3.3961    1.4846 H   0  0  0  0  0  0  0  0  0  0  0  0
    7.9512   -2.7851    2.1585 H   0  0  0  0  0  0  0  0  0  0  0  0
    5.5886   -2.7269   -0.5918 H   0  0  0  0  0  0  0  0  0  0  0  0
    3.9215   -1.8413   -2.1256 H   0  0  0  0  0  0  0  0  0  0  0  0
    3.0950    1.6238   -2.4857 H   0  0  0  0  0  0  0  0  0  0  0  0
    2.7101    0.0067   -3.0301 H   0  0  0  0  0  0  0  0  0  0  0  0
    0.7274    1.2737   -2.2441 H   0  0  0  0  0  0  0  0  0  0  0  0
    1.4210    1.4063   -0.6146 H   0  0  0  0  0  0  0  0  0  0  0  0
    1.4736   -1.0542   -0.6199 H   0  0  0  0  0  0  0  0  0  0  0  0
   -0.2091    0.0609    0.5836 H   0  0  0  0  0  0  0  0  0  0  0  0
   -0.7544   -1.4510   -0.1446 H   0  0  0  0  0  0  0  0  0  0  0  0
   -1.6863    0.0333   -2.1161 H   0  0  0  0  0  0  0  0  0  0  0  0
   -2.2464    2.1238   -1.3321 H   0  0  0  0  0  0  0  0  0  0  0  0
   -2.9180    0.3583    0.6754 H   0  0  0  0  0  0  0  0  0  0  0  0
   -3.1140   -1.1049   -0.3629 H   0  0  0  0  0  0  0  0  0  0  0  0
   -5.9677    1.6558   -2.2747 H   0  0  0  0  0  0  0  0  0  0  0  0
   -8.3545    1.4851   -1.6461 H   0  0  0  0  0  0  0  0  0  0  0  0
   -9.0245    0.1993    0.3549 H   0  0  0  0  0  0  0  0  0  0  0  0
   -8.4092   -1.5509    1.9950 H   0  0  0  0  0  0  0  0  0  0  0  0
   -7.3766   -0.4724    2.9653 H   0  0  0  0  0  0  0  0  0  0  0  0
   -6.7219   -1.9786    2.2746 H   0  0  0  0  0  0  0  0  0  0  0  0
   -4.9102   -0.7549    1.1352 H   0  0  0  0  0  0  0  0  0  0  0  0
    3.9192    1.9093   -0.0432 H   0  0  0  0  0  0  0  0  0  0  0  0
    5.8589    2.8652    2.8521 H   0  0  0  0  0  0  0  0  0  0  0  0
    4.2634    2.4795    2.1982 H   0  0  0  0  0  0  0  0  0  0  0  0
    5.5861    3.0740    1.1189 H   0  0  0  0  0  0  0  0  0  0  0  0
  1  2  1  0
  2  3  1  0
  3  4  1  0
  4  5  2  0
  5  6  1  0
  6  7  1  0
  7  8  1  0
  8  9  1  0
  9 10  1  0
 10 11  1  0
 11 12  1  0
 11 13  1  0
 13 14  1  0
 14 15  1  0
 15 16  1  0
 16 17  2  0
 17 18  1  0
 18 19  2  0
 19 20  1  0
 19 21  1  0
  6 22  2  0
 22 23  1  0
 23 24  1  0
 24 25  1  0
 23  3  2  0
 21 15  2  0
  1 26  1  0
  1 27  1  0
  1 28  1  0
  4 29  1  0
  5 30  1  0
  7 31  1  0
  7 32  1  0
  8 33  1  0
  8 34  1  0
  9 35  1  0
 10 36  1  0
 10 37  1  0
 11 38  1  0
 12 39  1  0
 13 40  1  0
 13 41  1  0
 16 42  1  0
 17 43  1  0
 18 44  1  0
 20 45  1  0
 20 46  1  0
 20 47  1  0
 21 48  1  0
 22 49  1  0
 25 50  1  0
 25 51  1  0
 25 52  1  0
M  END
$$$$
OCNT-0493927
     RDKit          3D

 30 32  0  0  0  0  0  0  0  0999 V2000
   -1.9797   -3.9690   -0.7559 O   0  0  0  0  0  0  0  0  0  0  0  0
   -1.7194   -2.7828   -0.5992 C   0  0  0  0  0  0  0  0  0  0  0  0
   -2.6230   -1.8117   -0.9229 N   0  0  0  0  0  0  0  0  0  0  0  0
   -2.3634   -0.4501   -0.8682 C   0  0  0  0  0  0  0  0  0  0  0  0
   -3.2558    0.4566   -1.4404 C   0  0  0  0  0  0  0  0  0  0  0  0
   -2.9788    1.8228   -1.3844 C   0  0  0  0  0  0  0  0  0  0  0  0
   -1.8232    2.2680   -0.7459 C   0  0  0  0  0  0  0  0  0  0  0  0
   -1.4870    3.9527   -0.6661 Cl  0  0  0  0  0  0  0  0  0  0  0  0
   -0.9435    1.3578   -0.1573 C   0  0  0  0  0  0  0  0  0  0  0  0
   -1.2070   -0.0219   -0.2214 C   0  0  0  0  0  0  0  0  0  0  0  0
   -0.3637   -1.0800    0.4735 C   0  0  1  0  0  0  0  0  0  0  0  0
    1.0821   -0.7449    0.3947 C   0  0  0  0  0  0  0  0  0  0  0  0
    2.2496   -0.4684    0.3315 C   0  0  0  0  0  0  0  0  0  0  0  0
    3.6394   -0.1300    0.2564 C   0  0  0  0  0  0  0  0  0  0  0  0
    4.1353    1.0591    1.0366 C   0  0  0  0  0  0  0  0  0  0  0  0
    4.0364    1.1346   -0.4593 C   0  0  0  0  0  0  0  0  0  0  0  0
   -0.7970   -1.2154    1.9619 C   0  0  0  0  0  0  0  0  0  0  0  0
   -0.6283   -0.0569    2.6490 F   0  0  0  0  0  0  0  0  0  0  0  0
   -0.0870   -2.1679    2.6153 F   0  0  0  0  0  0  0  0  0  0  0  0
   -2.1055   -1.5542    2.0828 F   0  0  0  0  0  0  0  0  0  0  0  0
   -0.5021   -2.3681   -0.1771 O   0  0  0  0  0  0  0  0  0  0  0  0
   -3.4782   -2.1569   -1.3407 H   0  0  0  0  0  0  0  0  0  0  0  0
   -4.1598    0.1164   -1.9388 H   0  0  0  0  0  0  0  0  0  0  0  0
   -3.6669    2.5331   -1.8359 H   0  0  0  0  0  0  0  0  0  0  0  0
   -0.0634    1.7335    0.3619 H   0  0  0  0  0  0  0  0  0  0  0  0
    4.3202   -0.9719    0.1662 H   0  0  0  0  0  0  0  0  0  0  0  0
    3.4276    1.6360    1.6218 H   0  0  0  0  0  0  0  0  0  0  0  0
    5.1229    0.9954    1.4792 H   0  0  0  0  0  0  0  0  0  0  0  0
    4.9575    1.1227   -1.0312 H   0  0  0  0  0  0  0  0  0  0  0  0
    3.2616    1.7616   -0.8862 H   0  0  0  0  0  0  0  0  0  0  0  0
  1  2  2  0
  2  3  1  0
  3  4  1  0
  4  5  1  0
  5  6  2  0
  6  7  1  0
  7  8  1  0
  7  9  2  0
  9 10  1  0
 10 11  1  0
 11 12  1  1
 12 13  3  0
 13 14  1  0
 14 15  1  0
 15 16  1  0
 11 17  1  0
 17 18  1  0
 17 19  1  0
 17 20  1  0
 11 21  1  0
 21  2  1  0
 10  4  2  0
 16 14  1  0
  3 22  1  0
  5 23  1  0
  6 24  1  0
  9 25  1  0
 14 26  1  0
 15 27  1  0
 15 28  1  0
 16 29  1  0
 16 30  1  0
M  END
$$$$
OCNT-0493940
     RDKit          3D

 40 42  0  0  0  0  0  0  0  0999 V2000
    4.5831    2.2176   -1.9085 C   0  0  0  0  0  0  0  0  0  0  0  0
    3.4313    1.4631   -1.3155 C   0  0  0  0  0  0  0  0  0  0  0  0
    2.6703    0.5872   -2.0890 C   0  0  0  0  0  0  0  0  0  0  0  0
    1.6139   -0.1390   -1.5181 C   0  0  0  0  0  0  0  0  0  0  0  0
    1.2819   -0.0213   -0.1577 C   0  0  0  0  0  0  0  0  0  0  0  0
    0.2330   -0.7544    0.4528 N   0  0  0  0  0  0  0  0  0  0  0  0
   -0.2751   -1.9581   -0.2470 C   0  0  0  0  0  0  0  0  0  0  0  0
   -1.3317   -1.6236   -1.2992 C   0  0  0  0  0  0  0  0  0  0  0  0
   -1.6033   -2.4689   -2.2679 N   0  0  0  0  0  0  0  0  0  0  0  0
   -2.6981   -1.7976   -3.0315 C   0  0  0  0  0  0  0  0  0  0  0  0
   -3.2420   -0.6981   -2.1151 C   0  0  0  0  0  0  0  0  0  0  0  0
   -2.1011   -0.4818   -1.2678 N   0  0  0  0  0  0  0  0  0  0  0  0
   -0.4493   -0.4029    1.6433 C   0  0  0  0  0  0  0  0  0  0  0  0
   -0.6774   -1.3386    2.6647 C   0  0  0  0  0  0  0  0  0  0  0  0
   -1.3547   -0.9842    3.8373 C   0  0  0  0  0  0  0  0  0  0  0  0
   -1.8155    0.3183    4.0101 C   0  0  0  0  0  0  0  0  0  0  0  0
   -1.5888    1.2568    3.0096 C   0  0  0  0  0  0  0  0  0  0  0  0
   -2.0211    2.5450    3.1376 O   0  0  0  0  0  0  0  0  0  0  0  0
   -0.9122    0.9091    1.8436 C   0  0  0  0  0  0  0  0  0  0  0  0
    2.0748    0.8564    0.6040 C   0  0  0  0  0  0  0  0  0  0  0  0
    3.1300    1.5854    0.0422 C   0  0  0  0  0  0  0  0  0  0  0  0
    5.5259    1.7370   -1.6295 H   0  0  0  0  0  0  0  0  0  0  0  0
    4.5189    2.2476   -3.0015 H   0  0  0  0  0  0  0  0  0  0  0  0
    4.5878    3.2539   -1.5521 H   0  0  0  0  0  0  0  0  0  0  0  0
    2.8872    0.4556   -3.1471 H   0  0  0  0  0  0  0  0  0  0  0  0
    1.0551   -0.7890   -2.1827 H   0  0  0  0  0  0  0  0  0  0  0  0
   -0.7454   -2.6727    0.4383 H   0  0  0  0  0  0  0  0  0  0  0  0
    0.5418   -2.5157   -0.7201 H   0  0  0  0  0  0  0  0  0  0  0  0
   -2.2772   -1.3759   -3.9538 H   0  0  0  0  0  0  0  0  0  0  0  0
   -3.4792   -2.5189   -3.2962 H   0  0  0  0  0  0  0  0  0  0  0  0
   -4.0851   -1.0760   -1.5244 H   0  0  0  0  0  0  0  0  0  0  0  0
   -3.5536    0.2003   -2.6562 H   0  0  0  0  0  0  0  0  0  0  0  0
   -2.2283   -0.0415   -0.3612 H   0  0  0  0  0  0  0  0  0  0  0  0
   -0.2923   -2.3534    2.5748 H   0  0  0  0  0  0  0  0  0  0  0  0
   -1.5081   -1.7269    4.6160 H   0  0  0  0  0  0  0  0  0  0  0  0
   -2.3381    0.5821    4.9226 H   0  0  0  0  0  0  0  0  0  0  0  0
   -2.4178    2.6491    4.0175 H   0  0  0  0  0  0  0  0  0  0  0  0
   -0.7538    1.6655    1.0780 H   0  0  0  0  0  0  0  0  0  0  0  0
    1.8954    0.9673    1.6713 H   0  0  0  0  0  0  0  0  0  0  0  0
    3.7188    2.2415    0.6785 H   0  0  0  0  0  0  0  0  0  0  0  0
  1  2  1  0
  2  3  1  0
  3  4  2  0
  4  5  1  0
  5  6  1  0
  6  7  1  0
  7  8  1  0
  8  9  2  0
  9 10  1  0
 10 11  1  0
 11 12  1  0
  6 13  1  0
 13 14  2  0
 14 15  1  0
 15 16  2  0
 16 17  1  0
 17 18  1  0
 17 19  2  0
  5 20  2  0
 20 21  1  0
 21  2  2  0
 12  8  1  0
 19 13  1  0
  1 22  1  0
  1 23  1  0
  1 24  1  0
  3 25  1  0
  4 26  1  0
  7 27  1  0
  7 28  1  0
 10 29  1  0
 10 30  1  0
 11 31  1  0
 11 32  1  0
 12 33  1  0
 14 34  1  0
 15 35  1  0
 16 36  1  0
 18 37  1  0
 19 38  1  0
 20 39  1  0
 21 40  1  0
M  END
$$$$
OCNT-0493990
     RDKit          3D

 48 50  0  0  0  0  0  0  0  0999 V2000
   -9.9055    0.1223    1.0861 C   0  0  0  0  0  0  0  0  0  0  0  0
   -8.6353    0.2164    0.4208 N   0  0  0  0  0  0  0  0  0  0  0  0
   -7.5560    0.8727    0.9735 C   0  0  0  0  0  0  0  0  0  0  0  0
   -7.5963    1.5030    2.0234 O   0  0  0  0  0  0  0  0  0  0  0  0
   -6.2884    0.7448    0.1837 C   0  0  0  0  0  0  0  0  0  0  0  0
   -5.1467    1.4072    0.6042 C   0  0  0  0  0  0  0  0  0  0  0  0
   -3.9944    1.2406   -0.1522 C   0  0  0  0  0  0  0  0  0  0  0  0
   -2.8731    1.9285    0.2539 O   0  0  0  0  0  0  0  0  0  0  0  0
   -1.6887    1.2300    0.2744 C   0  0  0  0  0  0  0  0  0  0  0  0
   -0.5913    1.8062   -0.3595 C   0  0  0  0  0  0  0  0  0  0  0  0
    0.6473    1.1557   -0.3458 C   0  0  0  0  0  0  0  0  0  0  0  0
    0.8015   -0.0620    0.3214 C   0  0  0  0  0  0  0  0  0  0  0  0
    2.0122   -0.7841    0.3760 N   0  0  0  0  0  0  0  0  0  0  0  0
    3.2632   -0.3696   -0.0579 C   0  0  0  0  0  0  0  0  0  0  0  0
    3.5270    0.7434   -0.4911 O   0  0  0  0  0  0  0  0  0  0  0  0
    4.1789   -1.4065    0.0655 N   0  0  0  0  0  0  0  0  0  0  0  0
    5.5708   -1.3476   -0.1519 C   0  0  0  0  0  0  0  0  0  0  0  0
    6.2653   -2.5601   -0.1813 C   0  0  0  0  0  0  0  0  0  0  0  0
    7.6471   -2.5809   -0.3835 C   0  0  0  0  0  0  0  0  0  0  0  0
    8.3534   -1.3877   -0.5516 C   0  0  0  0  0  0  0  0  0  0  0  0
   10.0579   -1.5007   -0.7968 Cl  0  0  0  0  0  0  0  0  0  0  0  0
    7.6839   -0.1606   -0.5145 C   0  0  0  0  0  0  0  0  0  0  0  0
    8.4214    1.1408   -0.6823 C   0  0  0  0  0  0  0  0  0  0  0  0
    9.3761    1.3347    0.2698 F   0  0  0  0  0  0  0  0  0  0  0  0
    7.6130    2.2370   -0.6060 F   0  0  0  0  0  0  0  0  0  0  0  0
    9.0526    1.2427   -1.8846 F   0  0  0  0  0  0  0  0  0  0  0  0
    6.2869   -0.1572   -0.3104 C   0  0  0  0  0  0  0  0  0  0  0  0
   -0.3071   -0.6232    0.9716 C   0  0  0  0  0  0  0  0  0  0  0  0
   -1.5470    0.0227    0.9573 C   0  0  0  0  0  0  0  0  0  0  0  0
   -4.0208    0.4632   -1.3084 C   0  0  0  0  0  0  0  0  0  0  0  0
   -5.2104   -0.1580   -1.6471 C   0  0  0  0  0  0  0  0  0  0  0  0
   -6.3474   -0.0464   -0.9278 N   0  0  0  0  0  0  0  0  0  0  0  0
  -10.1173    1.0395    1.6417 H   0  0  0  0  0  0  0  0  0  0  0  0
  -10.6796   -0.0471    0.3345 H   0  0  0  0  0  0  0  0  0  0  0  0
   -9.8732   -0.7229    1.7786 H   0  0  0  0  0  0  0  0  0  0  0  0
   -8.4387   -0.3514   -0.4000 H   0  0  0  0  0  0  0  0  0  0  0  0
   -5.1527    2.0287    1.4930 H   0  0  0  0  0  0  0  0  0  0  0  0
   -0.6935    2.7602   -0.8703 H   0  0  0  0  0  0  0  0  0  0  0  0
    1.4727    1.6312   -0.8669 H   0  0  0  0  0  0  0  0  0  0  0  0
    1.9946   -1.6298    0.9249 H   0  0  0  0  0  0  0  0  0  0  0  0
    3.7819   -2.3292    0.1578 H   0  0  0  0  0  0  0  0  0  0  0  0
    5.7458   -3.5067   -0.0538 H   0  0  0  0  0  0  0  0  0  0  0  0
    8.1685   -3.5354   -0.4092 H   0  0  0  0  0  0  0  0  0  0  0  0
    5.7775    0.8040   -0.2691 H   0  0  0  0  0  0  0  0  0  0  0  0
   -0.2221   -1.5646    1.5081 H   0  0  0  0  0  0  0  0  0  0  0  0
   -2.3879   -0.4150    1.4880 H   0  0  0  0  0  0  0  0  0  0  0  0
   -3.1444    0.3486   -1.9363 H   0  0  0  0  0  0  0  0  0  0  0  0
   -5.2816   -0.7773   -2.5373 H   0  0  0  0  0  0  0  0  0  0  0  0
  1  2  1  0
  2  3  1  0
  3  4  2  0
  3  5  1  0
  5  6  2  0
  6  7  1  0
  7  8  1  0
  8  9  1  0
  9 10  1  0
 10 11  2  0
 11 12  1  0
 12 13  1  0
 13 14  1  0
 14 15  2  0
 14 16  1  0
 16 17  1  0
 17 18  1  0
 18 19  2  0
 19 20  1  0
 20 21  1  0
 20 22  2  0
 22 23  1  0
 23 24  1  0
 23 25  1  0
 23 26  1  0
 22 27  1  0
 12 28  2  0
 28 29  1  0
  7 30  2  0
 30 31  1  0
 31 32  2  0
 32  5  1  0
 29  9  2  0
 27 17  2  0
  1 33  1  0
  1 34  1  0
  1 35  1  0
  2 36  1  0
  6 37  1  0
 10 38  1  0
 11 39  1  0
 13 40  1  0
 16 41  1  0
 18 42  1  0
 19 43  1  0
 27 44  1  0
 28 45  1  0
 29 46  1  0
 30 47  1  0
 31 48  1  0
M  END
$$$$
OCNT-0494023
     RDKit          3D

 55 58  0  0  0  0  0  0  0  0999 V2000
   -0.1668   -5.6436   -3.0804 C   0  0  0  0  0  0  0  0  0  0  0  0
    0.3217   -4.4825   -2.4218 O   0  0  0  0  0  0  0  0  0  0  0  0
   -0.5944   -3.5275   -2.0657 C   0  0  0  0  0  0  0  0  0  0  0  0
   -1.9841   -3.6772   -2.1540 C   0  0  0  0  0  0  0  0  0  0  0  0
   -2.8618   -2.6655   -1.7762 C   0  0  0  0  0  0  0  0  0  0  0  0
   -4.1746   -2.8890   -1.8919 N   0  0  0  0  0  0  0  0  0  0  0  0
   -4.9899   -1.8961   -1.5209 C   0  0  0  0  0  0  0  0  0  0  0  0
   -4.6151   -0.7010   -1.0540 N   0  0  0  0  0  0  0  0  0  0  0  0
   -3.2924   -0.4743   -0.9504 C   0  0  0  0  0  0  0  0  0  0  0  0
   -2.8350    0.7947   -0.4916 N   0  0  0  0  0  0  0  0  0  0  0  0
   -3.5839    1.8117    0.1429 C   0  0  0  0  0  0  0  0  0  0  0  0
   -3.1349    3.1415    0.0539 C   0  0  0  0  0  0  0  0  0  0  0  0
   -3.8118    4.1745    0.7083 C   0  0  0  0  0  0  0  0  0  0  0  0
   -4.9311    3.8816    1.4804 C   0  0  0  0  0  0  0  0  0  0  0  0
   -5.5695    4.8872    2.0984 F   0  0  0  0  0  0  0  0  0  0  0  0
   -5.3668    2.5673    1.6196 C   0  0  0  0  0  0  0  0  0  0  0  0
   -6.7317    2.1940    2.6061 Cl  0  0  0  0  0  0  0  0  0  0  0  0
   -4.6887    1.5365    0.9642 C   0  0  0  0  0  0  0  0  0  0  0  0
   -2.3405   -1.4543   -1.2980 C   0  0  0  0  0  0  0  0  0  0  0  0
   -0.9361   -1.2975   -1.1921 C   0  0  0  0  0  0  0  0  0  0  0  0
   -0.0749   -2.3328   -1.5563 C   0  0  0  0  0  0  0  0  0  0  0  0
    1.2864   -2.1745   -1.5100 O   0  0  0  0  0  0  0  0  0  0  0  0
    1.7877   -1.7954   -0.2218 C   0  0  0  0  0  0  0  0  0  0  0  0
    2.4654   -0.4313   -0.3355 C   0  0  0  0  0  0  0  0  0  0  0  0
    2.9849    0.0450    1.0237 C   0  0  0  0  0  0  0  0  0  0  0  0
    3.5112    1.4128    0.9503 N   0  0  0  0  0  0  0  0  0  0  0  0
    4.8247    1.5105    0.2733 C   0  0  0  0  0  0  0  0  0  0  0  0
    6.0008    1.7925    1.2261 C   0  0  0  0  0  0  0  0  0  0  0  0
    5.8336    2.9857    1.9997 O   0  0  0  0  0  0  0  0  0  0  0  0
    4.4606    3.2783    2.2950 C   0  0  0  0  0  0  0  0  0  0  0  0
    3.5692    2.0295    2.2931 C   0  0  0  0  0  0  0  0  0  0  0  0
   -0.7039   -5.3829   -3.9987 H   0  0  0  0  0  0  0  0  0  0  0  0
    0.6956   -6.2557   -3.3621 H   0  0  0  0  0  0  0  0  0  0  0  0
   -0.7937   -6.2413   -2.4103 H   0  0  0  0  0  0  0  0  0  0  0  0
   -2.4277   -4.5985   -2.5214 H   0  0  0  0  0  0  0  0  0  0  0  0
   -6.0567   -2.0767   -1.6125 H   0  0  0  0  0  0  0  0  0  0  0  0
   -2.1955    1.1764   -1.1844 H   0  0  0  0  0  0  0  0  0  0  0  0
   -2.2531    3.3886   -0.5335 H   0  0  0  0  0  0  0  0  0  0  0  0
   -3.4722    5.2023    0.6225 H   0  0  0  0  0  0  0  0  0  0  0  0
   -5.0261    0.5126    1.1044 H   0  0  0  0  0  0  0  0  0  0  0  0
   -0.5194   -0.3633   -0.8274 H   0  0  0  0  0  0  0  0  0  0  0  0
    1.0138   -1.7964    0.5567 H   0  0  0  0  0  0  0  0  0  0  0  0
    2.5274   -2.5513    0.0669 H   0  0  0  0  0  0  0  0  0  0  0  0
    1.7548    0.2984   -0.7440 H   0  0  0  0  0  0  0  0  0  0  0  0
    3.2750   -0.5000   -1.0731 H   0  0  0  0  0  0  0  0  0  0  0  0
    3.7401   -0.6476    1.4168 H   0  0  0  0  0  0  0  0  0  0  0  0
    2.1387    0.0242    1.7235 H   0  0  0  0  0  0  0  0  0  0  0  0
    5.0550    0.6188   -0.3181 H   0  0  0  0  0  0  0  0  0  0  0  0
    4.7534    2.3454   -0.4336 H   0  0  0  0  0  0  0  0  0  0  0  0
    6.9282    1.9043    0.6519 H   0  0  0  0  0  0  0  0  0  0  0  0
    6.1471    0.9543    1.9187 H   0  0  0  0  0  0  0  0  0  0  0  0
    4.1013    4.0134    1.5639 H   0  0  0  0  0  0  0  0  0  0  0  0
    4.4348    3.7568    3.2802 H   0  0  0  0  0  0  0  0  0  0  0  0
    2.5545    2.3032    2.6057 H   0  0  0  0  0  0  0  0  0  0  0  0
    3.9665    1.3141    3.0263 H   0  0  0  0  0  0  0  0  0  0  0  0
  1  2  1  0
  2  3  1  0
  3  4  2  0
  4  5  1  0
  5  6  2  0
  6  7  1  0
  7  8  2  0
  8  9  1  0
  9 10  1  0
 10 11  1  0
 11 12  1  0
 12 13  2  0
 13 14  1  0
 14 15  1  0
 14 16  2  0
 16 17  1  0
 16 18  1  0
  9 19  2  0
 19 20  1  0
 20 21  2  0
 21 22  1  0
 22 23  1  0
 23 24  1  0
 24 25  1  0
 25 26  1  0
 26 27  1  0
 27 28  1  0
 28 29  1  0
 29 30  1  0
 30 31  1  0
 21  3  1  0
 31 26  1  0
 19  5  1  0
 18 11  2  0
  1 32  1  0
  1 33  1  0
  1 34  1  0
  4 35  1  0
  7 36  1  0
 10 37  1  0
 12 38  1  0
 13 39  1  0
 18 40  1  0
 20 41  1  0
 23 42  1  0
 23 43  1  0
 24 44  1  0
 24 45  1  0
 25 46  1  0
 25 47  1  0
 27 48  1  0
 27 49  1  0
 28 50  1  0
 28 51  1  0
 30 52  1  0
 30 53  1  0
 31 54  1  0
 31 55  1  0
M  END
$$$$
OCNT-0494139
     RDKit          3D

 40 42  0  0  0  0  0  0  0  0999 V2000
   -3.6359    3.8743   -0.9523 C   0  0  0  0  0  0  0  0  0  0  0  0
   -3.0459    2.5252   -0.6646 C   0  0  0  0  0  0  0  0  0  0  0  0
   -3.2590    1.9081    0.5735 C   0  0  0  0  0  0  0  0  0  0  0  0
   -2.7372    0.6378    0.8314 C   0  0  0  0  0  0  0  0  0  0  0  0
   -1.9934   -0.0328   -0.1459 C   0  0  0  0  0  0  0  0  0  0  0  0
   -1.4622   -1.3655    0.1208 C   0  0  0  0  0  0  0  0  0  0  0  0
   -2.1973   -2.5189    0.3239 C   0  0  0  0  0  0  0  0  0  0  0  0
   -1.2689   -3.5793    0.3685 C   0  0  0  0  0  0  0  0  0  0  0  0
   -1.5821   -5.0422    0.5321 C   0  0  0  0  0  0  0  0  0  0  0  0
   -0.9731   -5.5870    1.6184 F   0  0  0  0  0  0  0  0  0  0  0  0
   -2.9180   -5.2560    0.6955 F   0  0  0  0  0  0  0  0  0  0  0  0
   -1.2071   -5.7781   -0.5476 F   0  0  0  0  0  0  0  0  0  0  0  0
   -0.0182   -3.1177    0.2101 N   0  0  0  0  0  0  0  0  0  0  0  0
   -0.1225   -1.7581    0.1467 N   0  0  0  0  0  0  0  0  0  0  0  0
    1.0824   -0.9824    0.1331 C   0  0  0  0  0  0  0  0  0  0  0  0
    1.0924    0.3978    0.3765 C   0  0  0  0  0  0  0  0  0  0  0  0
    2.2952    1.1144    0.3554 C   0  0  0  0  0  0  0  0  0  0  0  0
    3.4957    0.4520    0.0938 C   0  0  0  0  0  0  0  0  0  0  0  0
    5.0165    1.3538    0.1006 S   0  0  0  0  0  0  0  0  0  0  0  0
    5.1811    1.7665   -1.5186 N   0  0  0  0  0  0  0  0  0  0  0  0
    6.1052    0.4516    0.3936 O   0  0  0  0  0  0  0  0  0  0  0  0
    4.8293    2.5987    0.8087 O   0  0  0  0  0  0  0  0  0  0  0  0
    3.5103   -0.9261   -0.1177 C   0  0  0  0  0  0  0  0  0  0  0  0
    2.3077   -1.6385   -0.0966 C   0  0  0  0  0  0  0  0  0  0  0  0
   -1.8066    0.5699   -1.3957 C   0  0  0  0  0  0  0  0  0  0  0  0
   -2.3292    1.8400   -1.6523 C   0  0  0  0  0  0  0  0  0  0  0  0
   -3.0163    4.4271   -1.6664 H   0  0  0  0  0  0  0  0  0  0  0  0
   -4.6416    3.7617   -1.3688 H   0  0  0  0  0  0  0  0  0  0  0  0
   -3.6955    4.4770   -0.0400 H   0  0  0  0  0  0  0  0  0  0  0  0
   -3.8350    2.4127    1.3464 H   0  0  0  0  0  0  0  0  0  0  0  0
   -2.9124    0.1801    1.8025 H   0  0  0  0  0  0  0  0  0  0  0  0
   -3.2765   -2.5916    0.3753 H   0  0  0  0  0  0  0  0  0  0  0  0
    0.1953    0.9532    0.6258 H   0  0  0  0  0  0  0  0  0  0  0  0
    2.2839    2.1843    0.5549 H   0  0  0  0  0  0  0  0  0  0  0  0
    6.0195    1.3291   -1.9020 H   0  0  0  0  0  0  0  0  0  0  0  0
    5.1638    2.7817   -1.6191 H   0  0  0  0  0  0  0  0  0  0  0  0
    4.4446   -1.4540   -0.2964 H   0  0  0  0  0  0  0  0  0  0  0  0
    2.3435   -2.7138   -0.2693 H   0  0  0  0  0  0  0  0  0  0  0  0
   -1.2570    0.0553   -2.1811 H   0  0  0  0  0  0  0  0  0  0  0  0
   -2.1757    2.2896   -2.6311 H   0  0  0  0  0  0  0  0  0  0  0  0
  1  2  1  0
  2  3  1  0
  3  4  2  0
  4  5  1  0
  5  6  1  0
  6  7  2  0
  7  8  1  0
  8  9  1  0
  9 10  1  0
  9 11  1  0
  9 12  1  0
  8 13  2  0
 13 14  1  0
 14 15  1  0
 15 16  1  0
 16 17  2  0
 17 18  1  0
 18 19  1  0
 19 20  1  0
 19 21  2  0
 19 22  2  0
 18 23  2  0
 23 24  1  0
  5 25  2  0
 25 26  1  0
 26  2  2  0
 14  6  1  0
 24 15  2  0
  1 27  1  0
  1 28  1  0
  1 29  1  0
  3 30  1  0
  4 31  1  0
  7 32  1  0
 16 33  1  0
 17 34  1  0
 20 35  1  0
 20 36  1  0
 23 37  1  0
 24 38  1  0
 25 39  1  0
 26 40  1  0
M  END
$$$$
OCNT-0494161
     RDKit          3D

 48 51  0  0  0  0  0  0  0  0999 V2000
    5.1502   -0.7703    0.8758 C   0  0  0  0  0  0  0  0  0  0  0  0
    4.3592   -1.0814   -0.1594 C   0  0  0  0  0  0  0  0  0  0  0  0
    3.3775   -0.1798   -0.8794 C   0  0  1  0  0  0  0  0  0  0  0  0
    2.0305   -0.9081   -1.1721 C   0  0  0  0  0  0  0  0  0  0  0  0
    0.8575   -0.1512   -0.6603 N   0  0  0  0  0  0  0  0  0  0  0  0
    0.8142    1.1579   -1.3478 C   0  0  0  0  0  0  0  0  0  0  0  0
    2.1272    1.9396   -1.1980 C   0  0  0  0  0  0  0  0  0  0  0  0
    3.0498    1.1885   -0.2210 C   0  0  1  0  0  0  0  0  0  0  0  0
    2.2308    1.0045    1.0727 C   0  0  0  0  0  0  0  0  0  0  0  0
    1.0603    0.0252    0.8123 C   0  0  1  0  0  0  0  0  0  0  0  0
   -0.2322    0.4098    1.6018 C   0  0  2  0  0  0  0  0  0  0  0  0
    0.1110    0.7494    2.9576 O   0  0  0  0  0  0  0  0  0  0  0  0
   -1.2647   -0.7115    1.6362 C   0  0  0  0  0  0  0  0  0  0  0  0
   -1.0281   -1.7955    2.4980 C   0  0  0  0  0  0  0  0  0  0  0  0
   -1.9484   -2.8199    2.5598 C   0  0  0  0  0  0  0  0  0  0  0  0
   -3.0795   -2.8475    1.8336 N   0  0  0  0  0  0  0  0  0  0  0  0
   -3.3141   -1.8318    0.9894 C   0  0  0  0  0  0  0  0  0  0  0  0
   -4.4782   -1.8857    0.2398 C   0  0  0  0  0  0  0  0  0  0  0  0
   -4.8141   -0.8847   -0.6720 C   0  0  0  0  0  0  0  0  0  0  0  0
   -3.9715    0.2030   -0.8545 C   0  0  0  0  0  0  0  0  0  0  0  0
   -4.4008    1.1129   -1.7792 O   0  0  0  0  0  0  0  0  0  0  0  0
   -3.5195    2.1842   -2.0908 C   0  0  0  0  0  0  0  0  0  0  0  0
   -2.7982    0.2808   -0.1022 C   0  0  0  0  0  0  0  0  0  0  0  0
   -2.4415   -0.7260    0.8349 C   0  0  0  0  0  0  0  0  0  0  0  0
    5.8265   -1.5111    1.2932 H   0  0  0  0  0  0  0  0  0  0  0  0
    5.1633    0.2140    1.3305 H   0  0  0  0  0  0  0  0  0  0  0  0
    4.4454   -2.0903   -0.5644 H   0  0  0  0  0  0  0  0  0  0  0  0
    3.8436    0.0298   -1.8535 H   0  0  0  0  0  0  0  0  0  0  0  0
    1.9192   -1.0488   -2.2556 H   0  0  0  0  0  0  0  0  0  0  0  0
    2.0152   -1.9218   -0.7507 H   0  0  0  0  0  0  0  0  0  0  0  0
   -0.0174    1.7612   -0.9690 H   0  0  0  0  0  0  0  0  0  0  0  0
    0.5950    1.0052   -2.4121 H   0  0  0  0  0  0  0  0  0  0  0  0
    1.9192    2.9495   -0.8247 H   0  0  0  0  0  0  0  0  0  0  0  0
    2.6163    2.0513   -2.1731 H   0  0  0  0  0  0  0  0  0  0  0  0
    3.9539    1.7782   -0.0360 H   0  0  0  0  0  0  0  0  0  0  0  0
    1.8607    1.9835    1.4029 H   0  0  0  0  0  0  0  0  0  0  0  0
    2.8583    0.6173    1.8823 H   0  0  0  0  0  0  0  0  0  0  0  0
    1.3784   -0.9454    1.2220 H   0  0  0  0  0  0  0  0  0  0  0  0
   -0.6582    1.3296    1.1956 H   0  0  0  0  0  0  0  0  0  0  0  0
   -0.7250    0.7885    3.4548 H   0  0  0  0  0  0  0  0  0  0  0  0
   -0.1347   -1.8395    3.1145 H   0  0  0  0  0  0  0  0  0  0  0  0
   -1.7971   -3.6716    3.2164 H   0  0  0  0  0  0  0  0  0  0  0  0
   -5.1452   -2.7355    0.3651 H   0  0  0  0  0  0  0  0  0  0  0  0
   -5.7345   -0.9640   -1.2446 H   0  0  0  0  0  0  0  0  0  0  0  0
   -3.3706    2.8354   -1.2233 H   0  0  0  0  0  0  0  0  0  0  0  0
   -3.9860    2.7825   -2.8793 H   0  0  0  0  0  0  0  0  0  0  0  0
   -2.5638    1.8128   -2.4758 H   0  0  0  0  0  0  0  0  0  0  0  0
   -2.1398    1.1267   -0.2429 H   0  0  0  0  0  0  0  0  0  0  0  0
  1  2  2  0
  2  3  1  0
  3  4  1  0
  4  5  1  0
  5  6  1  0
  6  7  1  0
  7  8  1  0
  8  9  1  0
  9 10  1  0
 10 11  1  0
 11 12  1  0
 11 13  1  0
 13 14  2  0
 14 15  1  0
 15 16  2  0
 16 17  1  0
 17 18  2  0
 18 19  1  0
 19 20  2  0
 20 21  1  0
 21 22  1  0
 20 23  1  0
 23 24  2  0
  8  3  1  0
 24 13  1  0
 10  5  1  0
 24 17  1  0
  1 25  1  0
  1 26  1  0
  2 27  1  0
  3 28  1  6
  4 29  1  0
  4 30  1  0
  6 31  1  0
  6 32  1  0
  7 33  1  0
  7 34  1  0
  8 35  1  1
  9 36  1  0
  9 37  1  0
 10 38  1  1
 11 39  1  6
 12 40  1  0
 14 41  1  0
 15 42  1  0
 18 43  1  0
 19 44  1  0
 22 45  1  0
 22 46  1  0
 22 47  1  0
 23 48  1  0
M  END
$$$$
OCNT-0494166
     RDKit          3D

 51 54  0  0  0  0  0  0  0  0999 V2000
    3.2261    2.2353   -2.2124 C   0  0  0  0  0  0  0  0  0  0  0  0
    3.2549    1.3224   -1.4316 C   0  0  0  0  0  0  0  0  0  0  0  0
    3.3090    0.2011   -0.4641 C   0  0  2  0  0  0  0  0  0  0  0  0
    4.4477    0.4084    0.3497 O   0  0  0  0  0  0  0  0  0  0  0  0
    3.4471   -1.1599   -1.2114 C   0  0  0  0  0  0  0  0  0  0  0  0
    2.0297   -1.7772   -1.2902 C   0  0  0  0  0  0  0  0  0  0  0  0
    1.1383   -0.6556   -0.7851 C   0  0  1  0  0  0  0  0  0  0  0  0
   -0.2927   -0.8764   -0.3285 C   0  0  2  0  0  0  0  0  0  0  0  0
   -1.1164   -1.8461   -1.1714 C   0  0  0  0  0  0  0  0  0  0  0  0
   -2.4991   -2.0142   -0.5360 C   0  0  0  0  0  0  0  0  0  0  0  0
   -3.1968   -0.6999   -0.2456 C   0  0  0  0  0  0  0  0  0  0  0  0
   -4.5052   -0.5726   -0.5292 C   0  0  0  0  0  0  0  0  0  0  0  0
   -5.2646    0.6372   -0.1403 C   0  0  0  0  0  0  0  0  0  0  0  0
   -6.4429    0.7464   -0.4688 O   0  0  0  0  0  0  0  0  0  0  0  0
   -4.5710    1.6465    0.7348 C   0  0  0  0  0  0  0  0  0  0  0  0
   -3.1075    1.7701    0.3427 C   0  0  0  0  0  0  0  0  0  0  0  0
   -2.3609    0.4201    0.3869 C   0  0  2  0  0  0  0  0  0  0  0  0
   -0.9862    0.5145   -0.3336 C   0  0  1  0  0  0  0  0  0  0  0  0
   -0.0334    1.6695    0.0956 C   0  0  0  0  0  0  0  0  0  0  0  0
    1.2376    1.2736    0.8653 C   0  0  0  0  0  0  0  0  0  0  0  0
    1.9825    0.0146    0.3438 C   0  0  2  0  0  0  0  0  0  0  0  0
    2.2076   -0.9436    1.5869 C   0  0  0  0  0  0  0  0  0  0  0  0
    3.0490   -0.3969    2.7419 C   0  0  0  0  0  0  0  0  0  0  0  0
    3.2060    3.0420   -2.9086 H   0  0  0  0  0  0  0  0  0  0  0  0
    4.3809    1.3105    0.7060 H   0  0  0  0  0  0  0  0  0  0  0  0
    4.1182   -1.8436   -0.6775 H   0  0  0  0  0  0  0  0  0  0  0  0
    3.8655   -1.0344   -2.2174 H   0  0  0  0  0  0  0  0  0  0  0  0
    1.9569   -2.6760   -0.6695 H   0  0  0  0  0  0  0  0  0  0  0  0
    1.7808   -2.0657   -2.3168 H   0  0  0  0  0  0  0  0  0  0  0  0
    1.0611    0.0255   -1.6482 H   0  0  0  0  0  0  0  0  0  0  0  0
   -0.2980   -1.2703    0.6927 H   0  0  0  0  0  0  0  0  0  0  0  0
   -0.6258   -2.8248   -1.2205 H   0  0  0  0  0  0  0  0  0  0  0  0
   -1.2132   -1.4809   -2.2012 H   0  0  0  0  0  0  0  0  0  0  0  0
   -3.1089   -2.6521   -1.1874 H   0  0  0  0  0  0  0  0  0  0  0  0
   -2.3898   -2.5536    0.4140 H   0  0  0  0  0  0  0  0  0  0  0  0
   -5.0897   -1.3594   -0.9933 H   0  0  0  0  0  0  0  0  0  0  0  0
   -5.0640    2.6167    0.6106 H   0  0  0  0  0  0  0  0  0  0  0  0
   -4.6774    1.3351    1.7796 H   0  0  0  0  0  0  0  0  0  0  0  0
   -2.6360    2.4890    1.0208 H   0  0  0  0  0  0  0  0  0  0  0  0
   -3.0447    2.1944   -0.6685 H   0  0  0  0  0  0  0  0  0  0  0  0
   -2.1906    0.1531    1.4388 H   0  0  0  0  0  0  0  0  0  0  0  0
   -1.2260    0.7481   -1.3849 H   0  0  0  0  0  0  0  0  0  0  0  0
   -0.5586    2.4346    0.6731 H   0  0  0  0  0  0  0  0  0  0  0  0
    0.2910    2.1831   -0.8199 H   0  0  0  0  0  0  0  0  0  0  0  0
    1.9203    2.1299    0.9182 H   0  0  0  0  0  0  0  0  0  0  0  0
    0.9014    1.1081    1.8970 H   0  0  0  0  0  0  0  0  0  0  0  0
    2.6542   -1.8958    1.2831 H   0  0  0  0  0  0  0  0  0  0  0  0
    1.2355   -1.2048    2.0192 H   0  0  0  0  0  0  0  0  0  0  0  0
    2.8016    0.6370    2.9942 H   0  0  0  0  0  0  0  0  0  0  0  0
    4.1190   -0.4577    2.5301 H   0  0  0  0  0  0  0  0  0  0  0  0
    2.8775   -1.0056    3.6368 H   0  0  0  0  0  0  0  0  0  0  0  0
  1  2  3  0
  3  2  1  6
  3  4  1  0
  3  5  1  0
  5  6  1  0
  6  7  1  0
  7  8  1  0
  8  9  1  0
  9 10  1  0
 10 11  1  0
 11 12  2  0
 12 13  1  0
 13 14  2  0
 13 15  1  0
 15 16  1  0
 16 17  1  0
 17 18  1  0
 18 19  1  0
 19 20  1  0
 20 21  1  0
 21 22  1  1
 22 23  1  0
 21  3  1  0
 21  7  1  0
 18  8  1  0
 17 11  1  0
  1 24  1  0
  4 25  1  0
  5 26  1  0
  5 27  1  0
  6 28  1  0
  6 29  1  0
  7 30  1  6
  8 31  1  1
  9 32  1  0
  9 33  1  0
 10 34  1  0
 10 35  1  0
 12 36  1  0
 15 37  1  0
 15 38  1  0
 16 39  1  0
 16 40  1  0
 17 41  1  1
 18 42  1  6
 19 43  1  0
 19 44  1  0
 20 45  1  0
 20 46  1  0
 22 47  1  0
 22 48  1  0
 23 49  1  0
 23 50  1  0
 23 51  1  0
M  END
$$$$
OCNT-0494811
     RDKit          3D

 35 36  0  0  0  0  0  0  0  0999 V2000
   -2.1996    0.0579    2.2878 O   0  0  0  0  0  0  0  0  0  0  0  0
   -1.9864    0.4291    1.1391 C   0  0  0  0  0  0  0  0  0  0  0  0
   -0.9148    1.2216    0.7815 N   0  0  0  0  0  0  0  0  0  0  0  0
    0.1399    1.5087    1.7399 C   0  0  0  0  0  0  0  0  0  0  0  0
    1.1882    0.3795    1.7768 C   0  0  0  0  0  0  0  0  0  0  0  0
    1.7642    0.1016    0.4428 N   0  0  0  0  0  0  0  0  0  0  0  0
    2.3735   -1.2474    0.4204 C   0  0  0  0  0  0  0  0  0  0  0  0
    3.3744   -1.3973   -0.7341 C   0  0  0  0  0  0  0  0  0  0  0  0
    4.5000   -0.5165   -0.6129 O   0  0  0  0  0  0  0  0  0  0  0  0
    4.2100    0.6671    0.1408 C   0  0  0  0  0  0  0  0  0  0  0  0
    2.7464    1.1213    0.0116 C   0  0  0  0  0  0  0  0  0  0  0  0
   -2.8821   -0.0101    0.0317 C   0  0  0  0  0  0  0  0  0  0  0  0
   -3.0065    0.7196   -1.1588 C   0  0  0  0  0  0  0  0  0  0  0  0
   -3.8626    0.2699   -2.1693 C   0  0  0  0  0  0  0  0  0  0  0  0
   -4.5977   -0.9013   -1.9881 C   0  0  0  0  0  0  0  0  0  0  0  0
   -5.6490   -1.4503   -3.2341 Cl  0  0  0  0  0  0  0  0  0  0  0  0
   -4.4914   -1.6258   -0.8025 C   0  0  0  0  0  0  0  0  0  0  0  0
   -3.6372   -1.1780    0.2088 C   0  0  0  0  0  0  0  0  0  0  0  0
   -0.6023    1.1725   -0.1799 H   0  0  0  0  0  0  0  0  0  0  0  0
    0.5902    2.4608    1.4438 H   0  0  0  0  0  0  0  0  0  0  0  0
   -0.2969    1.6399    2.7359 H   0  0  0  0  0  0  0  0  0  0  0  0
    1.9750    0.6194    2.5026 H   0  0  0  0  0  0  0  0  0  0  0  0
    0.6808   -0.5236    2.1415 H   0  0  0  0  0  0  0  0  0  0  0  0
    1.5799   -1.9956    0.3172 H   0  0  0  0  0  0  0  0  0  0  0  0
    2.9024   -1.4428    1.3628 H   0  0  0  0  0  0  0  0  0  0  0  0
    2.8901   -1.2020   -1.6982 H   0  0  0  0  0  0  0  0  0  0  0  0
    3.7620   -2.4206   -0.7666 H   0  0  0  0  0  0  0  0  0  0  0  0
    4.4664    0.4781    1.1898 H   0  0  0  0  0  0  0  0  0  0  0  0
    4.8796    1.4550   -0.2190 H   0  0  0  0  0  0  0  0  0  0  0  0
    2.5440    1.3222   -1.0480 H   0  0  0  0  0  0  0  0  0  0  0  0
    2.6122    2.0728    0.5367 H   0  0  0  0  0  0  0  0  0  0  0  0
   -2.4658    1.6504   -1.3056 H   0  0  0  0  0  0  0  0  0  0  0  0
   -3.9578    0.8409   -3.0895 H   0  0  0  0  0  0  0  0  0  0  0  0
   -5.0696   -2.5344   -0.6559 H   0  0  0  0  0  0  0  0  0  0  0  0
   -3.5596   -1.7425    1.1365 H   0  0  0  0  0  0  0  0  0  0  0  0
  1  2  2  0
  2  3  1  0
  3  4  1  0
  4  5  1  0
  5  6  1  0
  6  7  1  0
  7  8  1  0
  8  9  1  0
  9 10  1  0
 10 11  1  0
  2 12  1  0
 12 13  1  0
 13 14  2  0
 14 15  1  0
 15 16  1  0
 15 17  2  0
 17 18  1  0
 11  6  1  0
 18 12  2  0
  3 19  1  0
  4 20  1  0
  4 21  1  0
  5 22  1  0
  5 23  1  0
  7 24  1  0
  7 25  1  0
  8 26  1  0
  8 27  1  0
 10 28  1  0
 10 29  1  0
 11 30  1  0
 11 31  1  0
 13 32  1  0
 14 33  1  0
 17 34  1  0
 18 35  1  0
M  END
$$$$
OCNT-0495153
     RDKit          3D

 55 58  0  0  0  0  0  0  0  0999 V2000
    6.2581    1.4783    1.7594 C   0  0  0  0  0  0  0  0  0  0  0  0
    5.6986    0.6339    0.6531 C   0  0  0  0  0  0  0  0  0  0  0  0
    6.2236   -0.6367    0.3962 C   0  0  0  0  0  0  0  0  0  0  0  0
    5.6854   -1.4300   -0.6163 C   0  0  0  0  0  0  0  0  0  0  0  0
    4.6084   -0.9660   -1.3715 C   0  0  0  0  0  0  0  0  0  0  0  0
    4.0489    0.2940   -1.1177 C   0  0  0  0  0  0  0  0  0  0  0  0
    2.8757    0.7978   -1.9333 C   0  0  0  0  0  0  0  0  0  0  0  0
    1.5397    0.5567   -1.3896 N   0  0  0  0  0  0  0  0  0  0  0  0
    1.1089   -0.8460   -1.4048 C   0  0  0  0  0  0  0  0  0  0  0  0
   -0.1099   -1.1544   -0.4910 C   0  0  0  0  0  0  0  0  0  0  0  0
   -1.0179    0.0002   -0.3425 N   0  0  0  0  0  0  0  0  0  0  0  0
   -2.2347   -0.3313    0.4491 C   0  0  0  0  0  0  0  0  0  0  0  0
   -3.0649   -1.4748   -0.1504 C   0  0  0  0  0  0  0  0  0  0  0  0
   -3.3543   -1.5364   -1.5249 C   0  0  0  0  0  0  0  0  0  0  0  0
   -4.1284   -2.5740   -2.0468 C   0  0  0  0  0  0  0  0  0  0  0  0
   -4.6306   -3.5617   -1.2027 C   0  0  0  0  0  0  0  0  0  0  0  0
   -4.3608   -3.5128    0.1633 C   0  0  0  0  0  0  0  0  0  0  0  0
   -3.5859   -2.4759    0.6874 C   0  0  0  0  0  0  0  0  0  0  0  0
   -3.1493    0.8781    0.7026 C   0  0  0  0  0  0  0  0  0  0  0  0
   -3.6479    1.1208    1.9947 C   0  0  0  0  0  0  0  0  0  0  0  0
   -4.4961    2.2040    2.2397 C   0  0  0  0  0  0  0  0  0  0  0  0
   -4.8578    3.0514    1.1950 C   0  0  0  0  0  0  0  0  0  0  0  0
   -5.9008    4.3857    1.4998 Cl  0  0  0  0  0  0  0  0  0  0  0  0
   -4.3810    2.8256   -0.0932 C   0  0  0  0  0  0  0  0  0  0  0  0
   -3.5338    1.7426   -0.3383 C   0  0  0  0  0  0  0  0  0  0  0  0
   -0.2551    1.1276    0.2554 C   0  0  0  0  0  0  0  0  0  0  0  0
    1.2563    1.1892   -0.1057 C   0  0  0  0  0  0  0  0  0  0  0  0
    4.6069    1.0861   -0.1009 C   0  0  0  0  0  0  0  0  0  0  0  0
    6.1641    2.5434    1.5229 H   0  0  0  0  0  0  0  0  0  0  0  0
    7.3232    1.2722    1.9087 H   0  0  0  0  0  0  0  0  0  0  0  0
    5.7241    1.2739    2.6924 H   0  0  0  0  0  0  0  0  0  0  0  0
    7.0593   -1.0147    0.9806 H   0  0  0  0  0  0  0  0  0  0  0  0
    6.1057   -2.4120   -0.8171 H   0  0  0  0  0  0  0  0  0  0  0  0
    4.2034   -1.5957   -2.1605 H   0  0  0  0  0  0  0  0  0  0  0  0
    3.0037    1.8770   -2.0937 H   0  0  0  0  0  0  0  0  0  0  0  0
    2.9347    0.3715   -2.9440 H   0  0  0  0  0  0  0  0  0  0  0  0
    0.8446   -1.1022   -2.4380 H   0  0  0  0  0  0  0  0  0  0  0  0
    1.9115   -1.5245   -1.0980 H   0  0  0  0  0  0  0  0  0  0  0  0
    0.2563   -1.4630    0.4981 H   0  0  0  0  0  0  0  0  0  0  0  0
   -0.6195   -2.0216   -0.9236 H   0  0  0  0  0  0  0  0  0  0  0  0
   -1.8753   -0.6764    1.4305 H   0  0  0  0  0  0  0  0  0  0  0  0
   -2.9645   -0.7745   -2.1967 H   0  0  0  0  0  0  0  0  0  0  0  0
   -4.3396   -2.6085   -3.1122 H   0  0  0  0  0  0  0  0  0  0  0  0
   -5.2355   -4.3676   -1.6095 H   0  0  0  0  0  0  0  0  0  0  0  0
   -4.7580   -4.2805    0.8221 H   0  0  0  0  0  0  0  0  0  0  0  0
   -3.3943   -2.4521    1.7575 H   0  0  0  0  0  0  0  0  0  0  0  0
   -3.3816    0.4637    2.8195 H   0  0  0  0  0  0  0  0  0  0  0  0
   -4.8728    2.3778    3.2439 H   0  0  0  0  0  0  0  0  0  0  0  0
   -4.6623    3.4838   -0.9103 H   0  0  0  0  0  0  0  0  0  0  0  0
   -3.1614    1.5764   -1.3474 H   0  0  0  0  0  0  0  0  0  0  0  0
   -0.7126    2.0629   -0.0874 H   0  0  0  0  0  0  0  0  0  0  0  0
   -0.3224    1.1112    1.3512 H   0  0  0  0  0  0  0  0  0  0  0  0
    1.5587    2.2433   -0.1181 H   0  0  0  0  0  0  0  0  0  0  0  0
    1.8233    0.6950    0.6937 H   0  0  0  0  0  0  0  0  0  0  0  0
    4.1863    2.0692    0.1024 H   0  0  0  0  0  0  0  0  0  0  0  0
  1  2  1  0
  2  3  1  0
  3  4  2  0
  4  5  1  0
  5  6  2  0
  6  7  1  0
  7  8  1  0
  8  9  1  0
  9 10  1  0
 10 11  1  0
 11 12  1  0
 12 13  1  0
 13 14  2  0
 14 15  1  0
 15 16  2  0
 16 17  1  0
 17 18  2  0
 12 19  1  0
 19 20  1  0
 20 21  2  0
 21 22  1  0
 22 23  1  0
 22 24  2  0
 24 25  1  0
 11 26  1  0
 26 27  1  0
  6 28  1  0
 28  2  2  0
 27  8  1  0
 18 13  1  0
 25 19  2  0
  1 29  1  0
  1 30  1  0
  1 31  1  0
  3 32  1  0
  4 33  1  0
  5 34  1  0
  7 35  1  0
  7 36  1  0
  9 37  1  0
  9 38  1  0
 10 39  1  0
 10 40  1  0
 12 41  1  0
 14 42  1  0
 15 43  1  0
 16 44  1  0
 17 45  1  0
 18 46  1  0
 20 47  1  0
 21 48  1  0
 24 49  1  0
 25 50  1  0
 26 51  1  0
 26 52  1  0
 27 53  1  0
 27 54  1  0
 28 55  1  0
M  END
$$$$
OCNT-0495216
     RDKit          3D

 57 58  0  0  0  0  0  0  0  0999 V2000
    4.2794   -2.7901   -1.3751 C   0  0  0  0  0  0  0  0  0  0  0  0
    4.9855   -1.4821   -1.0336 C   0  0  0  0  0  0  0  0  0  0  0  0
    5.0857   -1.2371    0.4079 N   0  0  0  0  0  0  0  0  0  0  0  0
    6.0418   -0.1808    0.7561 C   0  0  0  0  0  0  0  0  0  0  0  0
    5.7304    1.2329    0.2782 C   0  0  0  0  0  0  0  0  0  0  0  0
    3.8117   -1.1630    1.1306 C   0  0  0  0  0  0  0  0  0  0  0  0
    2.8400   -0.2027    0.5862 C   0  0  0  0  0  0  0  0  0  0  0  0
    2.0274    0.5618    0.1396 C   0  0  0  0  0  0  0  0  0  0  0  0
    1.0187    1.4739   -0.4075 C   0  0  0  0  0  0  0  0  0  0  0  0
   -0.2731    0.8605   -0.3312 O   0  0  0  0  0  0  0  0  0  0  0  0
   -0.9873    1.1287    0.7925 C   0  0  0  0  0  0  0  0  0  0  0  0
   -0.6504    1.9168    1.6743 O   0  0  0  0  0  0  0  0  0  0  0  0
   -2.3105    0.3162    0.8664 C   0  0  0  0  0  0  0  0  0  0  0  0
   -2.8094    0.4112    2.2234 O   0  0  0  0  0  0  0  0  0  0  0  0
   -2.0713   -1.1900    0.6891 C   0  0  0  0  0  0  0  0  0  0  0  0
   -0.9684   -1.7993    1.3244 C   0  0  0  0  0  0  0  0  0  0  0  0
   -0.7197   -3.1691    1.2035 C   0  0  0  0  0  0  0  0  0  0  0  0
   -1.5798   -3.9691    0.4607 C   0  0  0  0  0  0  0  0  0  0  0  0
   -2.6931   -3.4006   -0.1483 C   0  0  0  0  0  0  0  0  0  0  0  0
   -2.9416   -2.0286   -0.0264 C   0  0  0  0  0  0  0  0  0  0  0  0
   -3.3987    0.9826   -0.0450 C   0  0  0  0  0  0  0  0  0  0  0  0
   -3.7559    2.4219    0.4037 C   0  0  0  0  0  0  0  0  0  0  0  0
   -4.8947    3.0089   -0.4314 C   0  0  0  0  0  0  0  0  0  0  0  0
   -4.5881    2.9663   -1.9240 C   0  0  0  0  0  0  0  0  0  0  0  0
   -4.2095    1.5614   -2.3797 C   0  0  0  0  0  0  0  0  0  0  0  0
   -3.0554    0.9992   -1.5501 C   0  0  0  0  0  0  0  0  0  0  0  0
    4.3591   -2.9872   -2.4498 H   0  0  0  0  0  0  0  0  0  0  0  0
    3.2146   -2.7561   -1.1259 H   0  0  0  0  0  0  0  0  0  0  0  0
    4.7338   -3.6342   -0.8463 H   0  0  0  0  0  0  0  0  0  0  0  0
    5.9972   -1.5506   -1.4533 H   0  0  0  0  0  0  0  0  0  0  0  0
    4.4885   -0.6569   -1.5555 H   0  0  0  0  0  0  0  0  0  0  0  0
    7.0254   -0.4648    0.3604 H   0  0  0  0  0  0  0  0  0  0  0  0
    6.1763   -0.1616    1.8449 H   0  0  0  0  0  0  0  0  0  0  0  0
    4.8495    1.6446    0.7765 H   0  0  0  0  0  0  0  0  0  0  0  0
    5.5782    1.2760   -0.8037 H   0  0  0  0  0  0  0  0  0  0  0  0
    6.5712    1.8935    0.5158 H   0  0  0  0  0  0  0  0  0  0  0  0
    3.9985   -0.9338    2.1873 H   0  0  0  0  0  0  0  0  0  0  0  0
    3.3537   -2.1596    1.1442 H   0  0  0  0  0  0  0  0  0  0  0  0
    1.2206    1.6562   -1.4683 H   0  0  0  0  0  0  0  0  0  0  0  0
    1.0408    2.4508    0.0878 H   0  0  0  0  0  0  0  0  0  0  0  0
   -2.3801    1.1944    2.6204 H   0  0  0  0  0  0  0  0  0  0  0  0
   -0.2898   -1.2099    1.9387 H   0  0  0  0  0  0  0  0  0  0  0  0
    0.1397   -3.6093    1.7008 H   0  0  0  0  0  0  0  0  0  0  0  0
   -1.3925   -5.0357    0.3697 H   0  0  0  0  0  0  0  0  0  0  0  0
   -3.3796   -4.0266   -0.7127 H   0  0  0  0  0  0  0  0  0  0  0  0
   -3.8392   -1.6417   -0.4979 H   0  0  0  0  0  0  0  0  0  0  0  0
   -4.3274    0.4083    0.0852 H   0  0  0  0  0  0  0  0  0  0  0  0
   -2.8780    3.0737    0.3162 H   0  0  0  0  0  0  0  0  0  0  0  0
   -4.0613    2.4343    1.4560 H   0  0  0  0  0  0  0  0  0  0  0  0
   -5.8167    2.4482   -0.2331 H   0  0  0  0  0  0  0  0  0  0  0  0
   -5.0805    4.0442   -0.1234 H   0  0  0  0  0  0  0  0  0  0  0  0
   -5.4582    3.3163   -2.4901 H   0  0  0  0  0  0  0  0  0  0  0  0
   -3.7643    3.6562   -2.1450 H   0  0  0  0  0  0  0  0  0  0  0  0
   -3.9249    1.5837   -3.4380 H   0  0  0  0  0  0  0  0  0  0  0  0
   -5.0795    0.8982   -2.2964 H   0  0  0  0  0  0  0  0  0  0  0  0
   -2.1733    1.6232   -1.7332 H   0  0  0  0  0  0  0  0  0  0  0  0
   -2.8154   -0.0036   -1.9156 H   0  0  0  0  0  0  0  0  0  0  0  0
  1  2  1  0
  2  3  1  0
  3  4  1  0
  4  5  1  0
  3  6  1  0
  6  7  1  0
  7  8  3  0
  8  9  1  0
  9 10  1  0
 10 11  1  0
 11 12  2  0
 11 13  1  0
 13 14  1  0
 13 15  1  0
 15 16  2  0
 16 17  1  0
 17 18  2  0
 18 19  1  0
 19 20  2  0
 13 21  1  0
 21 22  1  0
 22 23  1  0
 23 24  1  0
 24 25  1  0
 25 26  1  0
 20 15  1  0
 26 21  1  0
  1 27  1  0
  1 28  1  0
  1 29  1  0
  2 30  1  0
  2 31  1  0
  4 32  1  0
  4 33  1  0
  5 34  1  0
  5 35  1  0
  5 36  1  0
  6 37  1  0
  6 38  1  0
  9 39  1  0
  9 40  1  0
 14 41  1  0
 16 42  1  0
 17 43  1  0
 18 44  1  0
 19 45  1  0
 20 46  1  0
 21 47  1  0
 22 48  1  0
 22 49  1  0
 23 50  1  0
 23 51  1  0
 24 52  1  0
 24 53  1  0
 25 54  1  0
 25 55  1  0
 26 56  1  0
 26 57  1  0
M  END
$$$$
OCNT-0495340
     RDKit          3D

 98101  0  0  0  0  0  0  0  0999 V2000
   -7.7741    1.8812    1.4462 C   0  0  0  0  0  0  0  0  0  0  0  0
   -8.4968    1.3512    0.2055 C   0  0  0  0  0  0  0  0  0  0  0  0
   -7.8854    1.9376   -1.0658 C   0  0  0  0  0  0  0  0  0  0  0  0
   -8.4440   -0.1556    0.1754 C   0  0  0  0  0  0  0  0  0  0  0  0
   -7.3677   -0.8576   -0.1246 N   0  0  0  0  0  0  0  0  0  0  0  0
   -7.6410   -2.2213   -0.0167 C   0  0  0  0  0  0  0  0  0  0  0  0
   -6.5362   -3.2014   -0.2739 C   0  0  0  0  0  0  0  0  0  0  0  0
   -5.6327   -3.2194    0.8737 N   0  0  0  0  0  0  0  0  0  0  0  0
   -5.8042   -4.2969    1.8298 C   0  0  0  0  0  0  0  0  0  0  0  0
   -4.5368   -2.3825    1.0058 C   0  0  0  0  0  0  0  0  0  0  0  0
   -3.6659   -2.5594    1.8525 O   0  0  0  0  0  0  0  0  0  0  0  0
   -4.5158   -1.3313    0.1257 N   0  0  0  0  0  0  0  0  0  0  0  0
   -3.4344   -0.3450    0.1004 C   0  0  2  0  0  0  0  0  0  0  0  0
   -2.1383   -0.9375   -0.5326 C   0  0  0  0  0  0  0  0  0  0  0  0
   -2.0322   -2.0979   -0.9270 O   0  0  0  0  0  0  0  0  0  0  0  0
   -1.1156   -0.0188   -0.6969 N   0  0  0  0  0  0  0  0  0  0  0  0
    0.1911   -0.3906   -1.2669 C   0  0  1  0  0  0  0  0  0  0  0  0
    0.0847   -0.3586   -2.8116 C   0  0  0  0  0  0  0  0  0  0  0  0
    1.3142   -0.7990   -3.5653 C   0  0  0  0  0  0  0  0  0  0  0  0
    1.7783   -2.1158   -3.4549 C   0  0  0  0  0  0  0  0  0  0  0  0
    2.9220   -2.5237   -4.1425 C   0  0  0  0  0  0  0  0  0  0  0  0
    3.6066   -1.6243   -4.9589 C   0  0  0  0  0  0  0  0  0  0  0  0
    3.1461   -0.3156   -5.0864 C   0  0  0  0  0  0  0  0  0  0  0  0
    2.0047    0.0970   -4.3938 C   0  0  0  0  0  0  0  0  0  0  0  0
    1.2542    0.5864   -0.7079 C   0  0  0  0  0  0  0  0  0  0  0  0
    2.6861    0.0280   -0.6279 C   0  0  2  0  0  0  0  0  0  0  0  0
    2.6508   -1.1562    0.1792 O   0  0  0  0  0  0  0  0  0  0  0  0
    3.6982    1.0601   -0.0422 C   0  0  2  0  0  0  0  0  0  0  0  0
    3.8829    2.2874   -0.9612 C   0  0  0  0  0  0  0  0  0  0  0  0
    4.7715    3.3542   -0.3580 C   0  0  0  0  0  0  0  0  0  0  0  0
    4.3180    4.1328    0.7171 C   0  0  0  0  0  0  0  0  0  0  0  0
    5.1414    5.1079    1.2827 C   0  0  0  0  0  0  0  0  0  0  0  0
    6.4242    5.3148    0.7821 C   0  0  0  0  0  0  0  0  0  0  0  0
    6.8847    4.5467   -0.2857 C   0  0  0  0  0  0  0  0  0  0  0  0
    6.0634    3.5704   -0.8543 C   0  0  0  0  0  0  0  0  0  0  0  0
    4.9898    0.4210    0.2142 N   0  0  0  0  0  0  0  0  0  0  0  0
    5.2712   -0.2387    1.3672 C   0  0  0  0  0  0  0  0  0  0  0  0
    4.5027   -0.3524    2.3110 O   0  0  0  0  0  0  0  0  0  0  0  0
    6.5211   -0.7461    1.2992 O   0  0  0  0  0  0  0  0  0  0  0  0
    6.9494   -1.3687    2.5123 C   0  0  0  0  0  0  0  0  0  0  0  0
    8.3754   -1.7495    2.3083 C   0  0  0  0  0  0  0  0  0  0  0  0
    8.9117   -2.9815    1.9913 C   0  0  0  0  0  0  0  0  0  0  0  0
   10.2882   -3.0282    1.8815 N   0  0  0  0  0  0  0  0  0  0  0  0
   10.7794   -1.8296    2.1036 C   0  0  0  0  0  0  0  0  0  0  0  0
    9.6410   -0.5980    2.4570 S   0  0  0  0  0  0  0  0  0  0  0  0
   -3.2919    0.4163    1.4508 C   0  0  0  0  0  0  0  0  0  0  0  0
   -3.4021    1.9319    1.2397 C   0  0  0  0  0  0  0  0  0  0  0  0
   -2.0243    0.1066    2.2558 C   0  0  0  0  0  0  0  0  0  0  0  0
   -8.9417   -2.5193    0.3487 C   0  0  0  0  0  0  0  0  0  0  0  0
   -9.8377   -1.0811    0.5785 S   0  0  0  0  0  0  0  0  0  0  0  0
   -6.7249    1.5617    1.4711 H   0  0  0  0  0  0  0  0  0  0  0  0
   -8.2489    1.5168    2.3630 H   0  0  0  0  0  0  0  0  0  0  0  0
   -7.7947    2.9758    1.4761 H   0  0  0  0  0  0  0  0  0  0  0  0
   -9.5400    1.6844    0.2553 H   0  0  0  0  0  0  0  0  0  0  0  0
   -7.9367    3.0302   -1.0488 H   0  0  0  0  0  0  0  0  0  0  0  0
   -6.8355    1.6454   -1.1843 H   0  0  0  0  0  0  0  0  0  0  0  0
   -8.4267    1.5903   -1.9518 H   0  0  0  0  0  0  0  0  0  0  0  0
   -5.9876   -2.9174   -1.1803 H   0  0  0  0  0  0  0  0  0  0  0  0
   -6.9339   -4.2096   -0.4372 H   0  0  0  0  0  0  0  0  0  0  0  0
   -5.2029   -4.1458    2.7286 H   0  0  0  0  0  0  0  0  0  0  0  0
   -5.5052   -5.2361    1.3565 H   0  0  0  0  0  0  0  0  0  0  0  0
   -6.8548   -4.3548    2.1226 H   0  0  0  0  0  0  0  0  0  0  0  0
   -5.4430   -0.9704   -0.0813 H   0  0  0  0  0  0  0  0  0  0  0  0
   -3.7860    0.3699   -0.6576 H   0  0  0  0  0  0  0  0  0  0  0  0
   -1.3223    0.9610   -0.5708 H   0  0  0  0  0  0  0  0  0  0  0  0
    0.4038   -1.4119   -0.9302 H   0  0  0  0  0  0  0  0  0  0  0  0
   -0.1994    0.6544   -3.1285 H   0  0  0  0  0  0  0  0  0  0  0  0
   -0.7463   -0.9968   -3.1391 H   0  0  0  0  0  0  0  0  0  0  0  0
    1.2556   -2.8308   -2.8210 H   0  0  0  0  0  0  0  0  0  0  0  0
    3.2777   -3.5454   -4.0403 H   0  0  0  0  0  0  0  0  0  0  0  0
    4.4913   -1.9483   -5.5001 H   0  0  0  0  0  0  0  0  0  0  0  0
    3.6753    0.3835   -5.7287 H   0  0  0  0  0  0  0  0  0  0  0  0
    1.6563    1.1203   -4.5115 H   0  0  0  0  0  0  0  0  0  0  0  0
    0.9627    0.8589    0.3165 H   0  0  0  0  0  0  0  0  0  0  0  0
    1.2212    1.5108   -1.2929 H   0  0  0  0  0  0  0  0  0  0  0  0
    3.0456   -0.2827   -1.6116 H   0  0  0  0  0  0  0  0  0  0  0  0
    2.8357   -0.9102    1.1096 H   0  0  0  0  0  0  0  0  0  0  0  0
    3.3145    1.3894    0.9339 H   0  0  0  0  0  0  0  0  0  0  0  0
    2.9203    2.7604   -1.1828 H   0  0  0  0  0  0  0  0  0  0  0  0
    4.2968    1.9663   -1.9260 H   0  0  0  0  0  0  0  0  0  0  0  0
    3.3216    3.9827    1.1262 H   0  0  0  0  0  0  0  0  0  0  0  0
    4.7820    5.7026    2.1185 H   0  0  0  0  0  0  0  0  0  0  0  0
    7.0654    6.0736    1.2252 H   0  0  0  0  0  0  0  0  0  0  0  0
    7.8860    4.7081   -0.6762 H   0  0  0  0  0  0  0  0  0  0  0  0
    6.4443    2.9793   -1.6836 H   0  0  0  0  0  0  0  0  0  0  0  0
    5.6639    0.3081   -0.5328 H   0  0  0  0  0  0  0  0  0  0  0  0
    6.3417   -2.2618    2.7083 H   0  0  0  0  0  0  0  0  0  0  0  0
    6.8544   -0.6734    3.3570 H   0  0  0  0  0  0  0  0  0  0  0  0
    8.3413   -3.8886    1.8305 H   0  0  0  0  0  0  0  0  0  0  0  0
   11.8413   -1.6259    2.0656 H   0  0  0  0  0  0  0  0  0  0  0  0
   -4.1451    0.1479    2.0867 H   0  0  0  0  0  0  0  0  0  0  0  0
   -2.6024    2.3151    0.6005 H   0  0  0  0  0  0  0  0  0  0  0  0
   -3.3484    2.4655    2.1942 H   0  0  0  0  0  0  0  0  0  0  0  0
   -4.3569    2.1891    0.7741 H   0  0  0  0  0  0  0  0  0  0  0  0
   -2.1545    0.4310    3.2944 H   0  0  0  0  0  0  0  0  0  0  0  0
   -1.7876   -0.9576    2.2718 H   0  0  0  0  0  0  0  0  0  0  0  0
   -1.1587    0.6447    1.8641 H   0  0  0  0  0  0  0  0  0  0  0  0
   -9.3904   -3.4906    0.4984 H   0  0  0  0  0  0  0  0  0  0  0  0
  1  2  1  0
  2  3  1  0
  2  4  1  0
  4  5  2  0
  5  6  1  0
  6  7  1  0
  7  8  1  0
  8  9  1  0
  8 10  1  0
 10 11  2  0
 10 12  1  0
 12 13  1  0
 13 14  1  0
 14 15  2  0
 14 16  1  0
 16 17  1  0
 17 18  1  0
 18 19  1  0
 19 20  2  0
 20 21  1  0
 21 22  2  0
 22 23  1  0
 23 24  2  0
 17 25  1  0
 25 26  1  0
 26 27  1  0
 26 28  1  0
 28 29  1  0
 29 30  1  0
 30 31  2  0
 31 32  1  0
 32 33  2  0
 33 34  1  0
 34 35  2  0
 28 36  1  0
 36 37  1  0
 37 38  2  0
 37 39  1  0
 39 40  1  0
 40 41  1  0
 41 42  2  0
 42 43  1  0
 43 44  2  0
 44 45  1  0
 13 46  1  0
 46 47  1  0
 46 48  1  0
  6 49  2  0
 49 50  1  0
 50  4  1  0
 24 19  1  0
 35 30  1  0
 45 41  1  0
  1 51  1  0
  1 52  1  0
  1 53  1  0
  2 54  1  0
  3 55  1  0
  3 56  1  0
  3 57  1  0
  7 58  1  0
  7 59  1  0
  9 60  1  0
  9 61  1  0
  9 62  1  0
 12 63  1  0
 13 64  1  6
 16 65  1  0
 17 66  1  6
 18 67  1  0
 18 68  1  0
 20 69  1  0
 21 70  1  0
 22 71  1  0
 23 72  1  0
 24 73  1  0
 25 74  1  0
 25 75  1  0
 26 76  1  6
 27 77  1  0
 28 78  1  1
 29 79  1  0
 29 80  1  0
 31 81  1  0
 32 82  1  0
 33 83  1  0
 34 84  1  0
 35 85  1  0
 36 86  1  0
 40 87  1  0
 40 88  1  0
 42 89  1  0
 44 90  1  0
 46 91  1  0
 47 92  1  0
 47 93  1  0
 47 94  1  0
 48 95  1  0
 48 96  1  0
 48 97  1  0
 49 98  1  0
M  END
$$$$
OCNT-0495493
     RDKit          3D

 38 41  0  0  0  0  0  0  0  0999 V2000
   -0.7056    1.9089    3.5357 O   0  0  0  0  0  0  0  0  0  0  0  0
   -0.6164    1.5046    2.3941 C   0  0  0  0  0  0  0  0  0  0  0  0
   -0.0225    0.3508    1.9849 O   0  0  0  0  0  0  0  0  0  0  0  0
   -0.0387    0.1821    0.5317 C   0  0  0  0  0  0  0  0  0  0  0  0
    1.4487    0.2036    0.1361 C   0  0  0  0  0  0  0  0  0  0  0  0
    2.3182   -0.7625    0.6904 C   0  0  0  0  0  0  0  0  0  0  0  0
    3.6761   -0.7967    0.3626 C   0  0  0  0  0  0  0  0  0  0  0  0
    4.1851    0.1412   -0.5246 C   0  0  0  0  0  0  0  0  0  0  0  0
    5.5018    0.1487   -0.8758 O   0  0  0  0  0  0  0  0  0  0  0  0
    3.3605    1.1086   -1.0815 C   0  0  0  0  0  0  0  0  0  0  0  0
    2.0017    1.1432   -0.7526 C   0  0  0  0  0  0  0  0  0  0  0  0
   -0.7385   -1.1433    0.1790 C   0  0  0  0  0  0  0  0  0  0  0  0
   -0.5572   -1.7369   -1.0867 C   0  0  0  0  0  0  0  0  0  0  0  0
   -1.2088   -2.9251   -1.4239 C   0  0  0  0  0  0  0  0  0  0  0  0
   -2.0540   -3.5317   -0.5057 C   0  0  0  0  0  0  0  0  0  0  0  0
   -2.6698   -4.6897   -0.8767 O   0  0  0  0  0  0  0  0  0  0  0  0
   -2.2611   -2.9694    0.7475 C   0  0  0  0  0  0  0  0  0  0  0  0
   -1.6088   -1.7797    1.0859 C   0  0  0  0  0  0  0  0  0  0  0  0
   -0.8633    1.3619    0.1047 C   0  0  0  0  0  0  0  0  0  0  0  0
   -1.3428    1.7344   -1.1465 C   0  0  0  0  0  0  0  0  0  0  0  0
   -2.1008    2.9057   -1.2552 C   0  0  0  0  0  0  0  0  0  0  0  0
   -2.3818    3.6862   -0.1227 C   0  0  0  0  0  0  0  0  0  0  0  0
   -1.9140    3.2983    1.1322 C   0  0  0  0  0  0  0  0  0  0  0  0
   -1.1651    2.1354    1.2074 C   0  0  0  0  0  0  0  0  0  0  0  0
    1.9317   -1.5009    1.3928 H   0  0  0  0  0  0  0  0  0  0  0  0
    4.3105   -1.5556    0.8093 H   0  0  0  0  0  0  0  0  0  0  0  0
    5.9544   -0.5616   -0.3920 H   0  0  0  0  0  0  0  0  0  0  0  0
    3.7748    1.8412   -1.7690 H   0  0  0  0  0  0  0  0  0  0  0  0
    1.3988    1.9259   -1.2043 H   0  0  0  0  0  0  0  0  0  0  0  0
    0.1010   -1.2817   -1.8246 H   0  0  0  0  0  0  0  0  0  0  0  0
   -1.0556   -3.3755   -2.4008 H   0  0  0  0  0  0  0  0  0  0  0  0
   -3.2177   -4.9998   -0.1371 H   0  0  0  0  0  0  0  0  0  0  0  0
   -2.9221   -3.4350    1.4720 H   0  0  0  0  0  0  0  0  0  0  0  0
   -1.7891   -1.3565    2.0727 H   0  0  0  0  0  0  0  0  0  0  0  0
   -1.1385    1.1360   -2.0301 H   0  0  0  0  0  0  0  0  0  0  0  0
   -2.4812    3.2141   -2.2273 H   0  0  0  0  0  0  0  0  0  0  0  0
   -2.9755    4.5921   -0.2244 H   0  0  0  0  0  0  0  0  0  0  0  0
   -2.1346    3.8789    2.0226 H   0  0  0  0  0  0  0  0  0  0  0  0
  1  2  2  0
  2  3  1  0
  3  4  1  0
  4  5  1  0
  5  6  1  0
  6  7  2  0
  7  8  1  0
  8  9  1  0
  8 10  2  0
 10 11  1  0
  4 12  1  0
 12 13  1  0
 13 14  2  0
 14 15  1  0
 15 16  1  0
 15 17  2  0
 17 18  1  0
  4 19  1  0
 19 20  2  0
 20 21  1  0
 21 22  2  0
 22 23  1  0
 23 24  2  0
 24  2  1  0
 11  5  2  0
 18 12  2  0
 24 19  1  0
  6 25  1  0
  7 26  1  0
  9 27  1  0
 10 28  1  0
 11 29  1  0
 13 30  1  0
 14 31  1  0
 16 32  1  0
 17 33  1  0
 18 34  1  0
 20 35  1  0
 21 36  1  0
 22 37  1  0
 23 38  1  0
M  END
$$$$
OCNT-0495620
     RDKit          3D

 68 71  0  0  0  0  0  0  0  0999 V2000
   -5.0335   -1.3822   -1.2081 C   0  0  0  0  0  0  0  0  0  0  0  0
   -3.9216   -1.3145   -0.1486 C   0  0  2  0  0  0  0  0  0  0  0  0
   -4.5016   -0.9824    1.2425 C   0  0  0  0  0  0  0  0  0  0  0  0
   -5.0997    0.4012    1.4834 C   0  0  0  0  0  0  0  0  0  0  0  0
   -6.4721    0.5791    0.8936 C   0  0  0  0  0  0  0  0  0  0  0  0
   -7.3586   -0.2553    0.8287 O   0  0  0  0  0  0  0  0  0  0  0  0
   -6.6786    1.8327    0.4462 O   0  0  0  0  0  0  0  0  0  0  0  0
   -2.6985   -0.5425   -0.7105 C   0  0  1  0  0  0  0  0  0  0  0  0
   -2.9310    0.8529   -1.3392 C   0  0  0  0  0  0  0  0  0  0  0  0
   -1.5398    1.5185   -1.4049 C   0  0  0  0  0  0  0  0  0  0  0  0
   -0.5722    0.4211   -0.9544 C   0  0  1  0  0  0  0  0  0  0  0  0
    0.8349    0.8282   -0.4963 C   0  0  2  0  0  0  0  0  0  0  0  0
    1.5748    1.5806   -1.6173 C   0  0  0  0  0  0  0  0  0  0  0  0
    3.0428    1.2003   -1.7540 C   0  0  0  0  0  0  0  0  0  0  0  0
    3.7419    1.0473   -0.3980 C   0  0  2  0  0  0  0  0  0  0  0  0
    5.2390    0.7807   -0.6587 C   0  0  0  0  0  0  0  0  0  0  0  0
    5.9704    0.2849    0.5786 C   0  0  2  0  0  0  0  0  0  0  0  0
    7.3481    0.0794    0.2785 O   0  0  0  0  0  0  0  0  0  0  0  0
    5.3833   -1.0271    1.0937 C   0  0  0  0  0  0  0  0  0  0  0  0
    3.9491   -1.2891    0.6240 C   0  0  0  0  0  0  0  0  0  0  0  0
    3.0562   -0.0214    0.5346 C   0  0  1  0  0  0  0  0  0  0  0  0
    2.9311    0.5866    1.9581 C   0  0  0  0  0  0  0  0  0  0  0  0
    1.6301   -0.4258   -0.0226 C   0  0  1  0  0  0  0  0  0  0  0  0
    0.8096   -1.3349    0.9417 C   0  0  0  0  0  0  0  0  0  0  0  0
   -0.6161   -1.6546    0.4496 C   0  0  2  0  0  0  0  0  0  0  0  0
   -0.5260   -2.5036   -0.6933 O   0  0  0  0  0  0  0  0  0  0  0  0
   -1.3852   -0.3625    0.1118 C   0  0  2  0  0  0  0  0  0  0  0  0
   -1.5832    0.4704    1.4040 C   0  0  0  0  0  0  0  0  0  0  0  0
   -5.4419   -0.3941   -1.4378 H   0  0  0  0  0  0  0  0  0  0  0  0
   -5.8553   -2.0243   -0.8733 H   0  0  0  0  0  0  0  0  0  0  0  0
   -4.6517   -1.8079   -2.1429 H   0  0  0  0  0  0  0  0  0  0  0  0
   -3.5668   -2.3514   -0.0414 H   0  0  0  0  0  0  0  0  0  0  0  0
   -3.7292   -1.1667    1.9934 H   0  0  0  0  0  0  0  0  0  0  0  0
   -5.2713   -1.7339    1.4694 H   0  0  0  0  0  0  0  0  0  0  0  0
   -5.2123    0.5572    2.5633 H   0  0  0  0  0  0  0  0  0  0  0  0
   -4.4398    1.1889    1.1238 H   0  0  0  0  0  0  0  0  0  0  0  0
   -7.5988    1.8144    0.1090 H   0  0  0  0  0  0  0  0  0  0  0  0
   -2.4170   -1.1648   -1.5782 H   0  0  0  0  0  0  0  0  0  0  0  0
   -3.6157    1.4788   -0.7654 H   0  0  0  0  0  0  0  0  0  0  0  0
   -3.3521    0.7552   -2.3464 H   0  0  0  0  0  0  0  0  0  0  0  0
   -1.3184    1.8690   -2.4180 H   0  0  0  0  0  0  0  0  0  0  0  0
   -1.4999    2.3877   -0.7389 H   0  0  0  0  0  0  0  0  0  0  0  0
   -0.4243   -0.2300   -1.8320 H   0  0  0  0  0  0  0  0  0  0  0  0
    0.7426    1.5287    0.3401 H   0  0  0  0  0  0  0  0  0  0  0  0
    1.4969    2.6579   -1.4220 H   0  0  0  0  0  0  0  0  0  0  0  0
    1.0963    1.4197   -2.5909 H   0  0  0  0  0  0  0  0  0  0  0  0
    3.5496    1.9639   -2.3575 H   0  0  0  0  0  0  0  0  0  0  0  0
    3.1230    0.2636   -2.3210 H   0  0  0  0  0  0  0  0  0  0  0  0
    3.6751    2.0265    0.0980 H   0  0  0  0  0  0  0  0  0  0  0  0
    5.3683    0.0488   -1.4678 H   0  0  0  0  0  0  0  0  0  0  0  0
    5.7164    1.6974   -1.0289 H   0  0  0  0  0  0  0  0  0  0  0  0
    5.9271    1.0466    1.3649 H   0  0  0  0  0  0  0  0  0  0  0  0
    7.7095    0.9253   -0.0367 H   0  0  0  0  0  0  0  0  0  0  0  0
    5.4117   -1.0132    2.1909 H   0  0  0  0  0  0  0  0  0  0  0  0
    6.0109   -1.8788    0.8022 H   0  0  0  0  0  0  0  0  0  0  0  0
    3.9928   -1.7626   -0.3663 H   0  0  0  0  0  0  0  0  0  0  0  0
    3.5092   -2.0360    1.2945 H   0  0  0  0  0  0  0  0  0  0  0  0
    2.1860    1.3874    1.9928 H   0  0  0  0  0  0  0  0  0  0  0  0
    3.8727    1.0231    2.3044 H   0  0  0  0  0  0  0  0  0  0  0  0
    2.6488   -0.1689    2.6989 H   0  0  0  0  0  0  0  0  0  0  0  0
    1.7991   -1.0422   -0.9191 H   0  0  0  0  0  0  0  0  0  0  0  0
    1.3445   -2.2822    1.0731 H   0  0  0  0  0  0  0  0  0  0  0  0
    0.7372   -0.8764    1.9316 H   0  0  0  0  0  0  0  0  0  0  0  0
   -1.1545   -2.2177    1.2208 H   0  0  0  0  0  0  0  0  0  0  0  0
   -0.0814   -3.3234   -0.4168 H   0  0  0  0  0  0  0  0  0  0  0  0
   -2.2392    1.3309    1.2573 H   0  0  0  0  0  0  0  0  0  0  0  0
   -0.6449    0.8711    1.7966 H   0  0  0  0  0  0  0  0  0  0  0  0
   -1.9965   -0.1356    2.2125 H   0  0  0  0  0  0  0  0  0  0  0  0
  1  2  1  0
  2  3  1  0
  3  4  1  0
  4  5  1  0
  5  6  2  0
  5  7  1  0
  2  8  1  0
  8  9  1  0
  9 10  1  0
 10 11  1  0
 11 12  1  0
 12 13  1  0
 13 14  1  0
 14 15  1  0
 15 16  1  0
 16 17  1  0
 17 18  1  0
 17 19  1  0
 19 20  1  0
 20 21  1  0
 21 22  1  1
 21 23  1  0
 23 24  1  0
 24 25  1  0
 25 26  1  0
 25 27  1  0
 27 28  1  1
 27  8  1  0
 27 11  1  0
 23 12  1  0
 21 15  1  0
  1 29  1  0
  1 30  1  0
  1 31  1  0
  2 32  1  1
  3 33  1  0
  3 34  1  0
  4 35  1  0
  4 36  1  0
  7 37  1  0
  8 38  1  6
  9 39  1  0
  9 40  1  0
 10 41  1  0
 10 42  1  0
 11 43  1  6
 12 44  1  1
 13 45  1  0
 13 46  1  0
 14 47  1  0
 14 48  1  0
 15 49  1  1
 16 50  1  0
 16 51  1  0
 17 52  1  1
 18 53  1  0
 19 54  1  0
 19 55  1  0
 20 56  1  0
 20 57  1  0
 22 58  1  0
 22 59  1  0
 22 60  1  0
 23 61  1  6
 24 62  1  0
 24 63  1  0
 25 64  1  1
 26 65  1  0
 28 66  1  0
 28 67  1  0
 28 68  1  0
M  END
$$$$
OCNT-0496415
     RDKit          3D

126129  0  0  0  0  0  0  0  0999 V2000
   -1.7380    6.7842    2.8506 C   0  0  0  0  0  0  0  0  0  0  0  0
   -0.7807    6.4819    1.9617 C   0  0  0  0  0  0  0  0  0  0  0  0
   -0.5343    5.0925    1.4224 C   0  0  0  0  0  0  0  0  0  0  0  0
   -0.6880    4.9863   -0.1099 C   0  0  2  0  0  0  0  0  0  0  0  0
   -2.1074    5.3006   -0.5515 C   0  0  0  0  0  0  0  0  0  0  0  0
   -3.1687    4.5268   -0.8656 C   0  0  0  0  0  0  0  0  0  0  0  0
   -4.4538    5.1842   -1.3140 C   0  0  0  0  0  0  0  0  0  0  0  0
   -3.2050    3.0174   -0.8754 C   0  0  0  0  0  0  0  0  0  0  0  0
   -4.2239    2.3462    0.0837 C   0  0  2  0  0  0  0  0  0  0  0  0
   -3.8799    2.6651    1.5452 C   0  0  0  0  0  0  0  0  0  0  0  0
   -4.2077    0.8228   -0.1779 C   0  0  0  0  0  0  0  0  0  0  0  0
   -5.5587    0.1086    0.0675 C   0  0  2  0  0  0  0  0  0  0  0  0
   -5.7863    0.0199    1.4789 O   0  0  0  0  0  0  0  0  0  0  0  0
   -7.0292    0.5922    1.8670 C   0  0  0  0  0  0  0  0  0  0  0  0
   -5.4880   -1.3088   -0.5602 C   0  0  1  0  0  0  0  0  0  0  0  0
   -4.3626   -2.0037   -0.0016 O   0  0  0  0  0  0  0  0  0  0  0  0
   -4.0100   -3.1981   -0.6988 C   0  0  1  0  0  0  0  0  0  0  0  0
   -3.7104   -2.8879   -2.0500 O   0  0  0  0  0  0  0  0  0  0  0  0
   -2.7789   -3.7548    0.0640 C   0  0  0  0  0  0  0  0  0  0  0  0
   -2.7670   -4.8216    0.6726 O   0  0  0  0  0  0  0  0  0  0  0  0
   -1.5612   -2.8168    0.0549 C   0  0  0  0  0  0  0  0  0  0  0  0
   -1.6082   -1.8255   -0.6724 O   0  0  0  0  0  0  0  0  0  0  0  0
   -0.4694   -3.0731    0.8856 N   0  0  0  0  0  0  0  0  0  0  0  0
   -0.1627   -4.3741    1.4816 C   0  0  0  0  0  0  0  0  0  0  0  0
    1.3331   -4.5660    1.7157 C   0  0  0  0  0  0  0  0  0  0  0  0
    1.9584   -3.4481    2.5466 C   0  0  0  0  0  0  0  0  0  0  0  0
    1.1470   -2.1530    2.5259 C   0  0  0  0  0  0  0  0  0  0  0  0
    0.4033   -1.9317    1.2044 C   0  0  1  0  0  0  0  0  0  0  0  0
    1.3908   -1.5873    0.0765 C   0  0  0  0  0  0  0  0  0  0  0  0
    1.8263   -2.3787   -0.7514 O   0  0  0  0  0  0  0  0  0  0  0  0
    1.7467   -0.2699    0.1853 O   0  0  0  0  0  0  0  0  0  0  0  0
    2.8083    0.1790   -0.6778 C   0  0  2  0  0  0  0  0  0  0  0  0
    4.1550   -0.0902    0.0199 C   0  0  0  0  0  0  0  0  0  0  0  0
    4.3057    0.4410    1.4159 C   0  0  0  0  0  0  0  0  0  0  0  0
    5.0942   -0.8044   -0.6414 C   0  0  0  0  0  0  0  0  0  0  0  0
    6.5219   -1.2175   -0.3317 C   0  0  2  0  0  0  0  0  0  0  0  0
    7.2383   -0.5201    0.8431 C   0  0  0  0  0  0  0  0  0  0  0  0
    8.7712   -0.5375    0.7478 C   0  0  0  0  0  0  0  0  0  0  0  0
    9.2968   -1.7427   -0.0303 C   0  0  1  0  0  0  0  0  0  0  0  0
    8.9013   -2.9416    0.6483 O   0  0  0  0  0  0  0  0  0  0  0  0
    8.7529   -1.7518   -1.4747 C   0  0  2  0  0  0  0  0  0  0  0  0
    9.7089   -1.0778   -2.3118 O   0  0  0  0  0  0  0  0  0  0  0  0
    9.5282   -1.3514   -3.6962 C   0  0  0  0  0  0  0  0  0  0  0  0
    7.3825   -1.0564   -1.5987 C   0  0  0  0  0  0  0  0  0  0  0  0
    2.5637    1.6659   -1.1073 C   0  0  2  0  0  0  0  0  0  0  0  0
    3.7921    2.2375   -1.8321 C   0  0  0  0  0  0  0  0  0  0  0  0
    2.0168    2.5682    0.0363 C   0  0  1  0  0  0  0  0  0  0  0  0
    2.5229    3.9049   -0.0080 O   0  0  0  0  0  0  0  0  0  0  0  0
    0.4781    2.6062    0.0926 C   0  0  0  0  0  0  0  0  0  0  0  0
   -0.0772    3.7297   -0.7664 C   0  0  0  0  0  0  0  0  0  0  0  0
    0.0287    3.6483   -1.9979 O   0  0  0  0  0  0  0  0  0  0  0  0
   -5.2058   -4.1825   -0.6408 C   0  0  2  0  0  0  0  0  0  0  0  0
   -4.9852   -5.4369   -1.4942 C   0  0  0  0  0  0  0  0  0  0  0  0
   -6.5246   -3.5072   -1.0745 C   0  0  0  0  0  0  0  0  0  0  0  0
   -6.7562   -2.1553   -0.3797 C   0  0  2  0  0  0  0  0  0  0  0  0
   -7.8678   -1.4639   -0.9609 O   0  0  0  0  0  0  0  0  0  0  0  0
   -9.1265   -2.0544   -0.6659 C   0  0  0  0  0  0  0  0  0  0  0  0
   -2.4213    6.0307    3.2375 H   0  0  0  0  0  0  0  0  0  0  0  0
   -1.8659    7.8042    3.2059 H   0  0  0  0  0  0  0  0  0  0  0  0
   -0.1221    7.2727    1.5995 H   0  0  0  0  0  0  0  0  0  0  0  0
   -1.2027    4.3702    1.9152 H   0  0  0  0  0  0  0  0  0  0  0  0
    0.4899    4.8287    1.7135 H   0  0  0  0  0  0  0  0  0  0  0  0
   -0.0599    5.7879   -0.5304 H   0  0  0  0  0  0  0  0  0  0  0  0
   -2.2677    6.3810   -0.6064 H   0  0  0  0  0  0  0  0  0  0  0  0
   -4.7775    4.7688   -2.2722 H   0  0  0  0  0  0  0  0  0  0  0  0
   -4.3504    6.2655   -1.4442 H   0  0  0  0  0  0  0  0  0  0  0  0
   -5.2463    5.0219   -0.5767 H   0  0  0  0  0  0  0  0  0  0  0  0
   -3.4281    2.7176   -1.9090 H   0  0  0  0  0  0  0  0  0  0  0  0
   -2.2251    2.5921   -0.6586 H   0  0  0  0  0  0  0  0  0  0  0  0
   -5.2285    2.7316   -0.1397 H   0  0  0  0  0  0  0  0  0  0  0  0
   -2.8304    2.4292    1.7601 H   0  0  0  0  0  0  0  0  0  0  0  0
   -4.0327    3.7290    1.7552 H   0  0  0  0  0  0  0  0  0  0  0  0
   -4.5041    2.1025    2.2402 H   0  0  0  0  0  0  0  0  0  0  0  0
   -3.9336    0.6493   -1.2249 H   0  0  0  0  0  0  0  0  0  0  0  0
   -3.4167    0.3676    0.4301 H   0  0  0  0  0  0  0  0  0  0  0  0
   -6.3570    0.6761   -0.4263 H   0  0  0  0  0  0  0  0  0  0  0  0
   -7.1300    0.4874    2.9490 H   0  0  0  0  0  0  0  0  0  0  0  0
   -7.8638    0.0725    1.3952 H   0  0  0  0  0  0  0  0  0  0  0  0
   -7.0615    1.6555    1.6179 H   0  0  0  0  0  0  0  0  0  0  0  0
   -5.3278   -1.1477   -1.6353 H   0  0  0  0  0  0  0  0  0  0  0  0
   -2.9645   -2.2558   -2.0062 H   0  0  0  0  0  0  0  0  0  0  0  0
   -0.5036   -5.1719    0.8152 H   0  0  0  0  0  0  0  0  0  0  0  0
   -0.7149   -4.4430    2.4273 H   0  0  0  0  0  0  0  0  0  0  0  0
    1.8354   -4.6041    0.7399 H   0  0  0  0  0  0  0  0  0  0  0  0
    1.5216   -5.5346    2.1932 H   0  0  0  0  0  0  0  0  0  0  0  0
    2.9723   -3.2583    2.1712 H   0  0  0  0  0  0  0  0  0  0  0  0
    2.0714   -3.7772    3.5887 H   0  0  0  0  0  0  0  0  0  0  0  0
    1.8055   -1.3106    2.7629 H   0  0  0  0  0  0  0  0  0  0  0  0
    0.4053   -2.1997    3.3371 H   0  0  0  0  0  0  0  0  0  0  0  0
   -0.2562   -1.0552    1.3183 H   0  0  0  0  0  0  0  0  0  0  0  0
    2.7658   -0.3918   -1.6150 H   0  0  0  0  0  0  0  0  0  0  0  0
    4.9705   -0.1778    2.0308 H   0  0  0  0  0  0  0  0  0  0  0  0
    3.3482    0.4353    1.9541 H   0  0  0  0  0  0  0  0  0  0  0  0
    4.6879    1.4697    1.3969 H   0  0  0  0  0  0  0  0  0  0  0  0
    4.7841   -1.1853   -1.6177 H   0  0  0  0  0  0  0  0  0  0  0  0
    6.4612   -2.2944   -0.1094 H   0  0  0  0  0  0  0  0  0  0  0  0
    6.9457   -1.0210    1.7763 H   0  0  0  0  0  0  0  0  0  0  0  0
    6.9355    0.5315    0.9290 H   0  0  0  0  0  0  0  0  0  0  0  0
    9.1835   -0.5310    1.7626 H   0  0  0  0  0  0  0  0  0  0  0  0
    9.1173    0.3817    0.2607 H   0  0  0  0  0  0  0  0  0  0  0  0
   10.3941   -1.7260   -0.0434 H   0  0  0  0  0  0  0  0  0  0  0  0
    9.3290   -2.9303    1.5230 H   0  0  0  0  0  0  0  0  0  0  0  0
    8.6608   -2.7977   -1.8008 H   0  0  0  0  0  0  0  0  0  0  0  0
    8.5740   -0.9554   -4.0610 H   0  0  0  0  0  0  0  0  0  0  0  0
    9.5895   -2.4260   -3.8920 H   0  0  0  0  0  0  0  0  0  0  0  0
   10.3371   -0.8558   -4.2384 H   0  0  0  0  0  0  0  0  0  0  0  0
    6.8663   -1.4659   -2.4782 H   0  0  0  0  0  0  0  0  0  0  0  0
    7.5217    0.0127   -1.8163 H   0  0  0  0  0  0  0  0  0  0  0  0
    1.7698    1.6185   -1.8684 H   0  0  0  0  0  0  0  0  0  0  0  0
    3.5440    3.1597   -2.3657 H   0  0  0  0  0  0  0  0  0  0  0  0
    4.6081    2.4635   -1.1372 H   0  0  0  0  0  0  0  0  0  0  0  0
    4.1627    1.5315   -2.5813 H   0  0  0  0  0  0  0  0  0  0  0  0
    2.3537    2.1777    0.9973 H   0  0  0  0  0  0  0  0  0  0  0  0
    2.4451    4.2298   -0.9237 H   0  0  0  0  0  0  0  0  0  0  0  0
    0.0367    1.6633   -0.2450 H   0  0  0  0  0  0  0  0  0  0  0  0
    0.1458    2.7156    1.1285 H   0  0  0  0  0  0  0  0  0  0  0  0
   -5.3473   -4.4981    0.4033 H   0  0  0  0  0  0  0  0  0  0  0  0
   -5.8375   -6.1173   -1.4014 H   0  0  0  0  0  0  0  0  0  0  0  0
   -4.8814   -5.1937   -2.5549 H   0  0  0  0  0  0  0  0  0  0  0  0
   -4.0937   -5.9890   -1.1838 H   0  0  0  0  0  0  0  0  0  0  0  0
   -6.5372   -3.3548   -2.1639 H   0  0  0  0  0  0  0  0  0  0  0  0
   -7.3612   -4.1850   -0.8658 H   0  0  0  0  0  0  0  0  0  0  0  0
   -6.9395   -2.3246    0.6881 H   0  0  0  0  0  0  0  0  0  0  0  0
   -9.2528   -2.1879    0.4116 H   0  0  0  0  0  0  0  0  0  0  0  0
   -9.2390   -3.0092   -1.1904 H   0  0  0  0  0  0  0  0  0  0  0  0
   -9.9075   -1.3753   -1.0269 H   0  0  0  0  0  0  0  0  0  0  0  0
  1  2  2  0
  2  3  1  0
  3  4  1  0
  4  5  1  0
  5  6  2  3
  6  7  1  0
  6  8  1  0
  8  9  1  0
  9 10  1  0
  9 11  1  0
 11 12  1  0
 12 13  1  0
 13 14  1  0
 12 15  1  0
 15 16  1  0
 16 17  1  0
 17 18  1  6
 17 19  1  0
 19 20  2  0
 19 21  1  0
 21 22  2  0
 21 23  1  0
 23 24  1  0
 24 25  1  0
 25 26  1  0
 26 27  1  0
 27 28  1  0
 28 29  1  0
 29 30  2  0
 29 31  1  0
 31 32  1  0
 32 33  1  0
 33 34  1  0
 33 35  2  3
 35 36  1  0
 36 37  1  0
 37 38  1  0
 38 39  1  0
 39 40  1  0
 39 41  1  0
 41 42  1  0
 42 43  1  0
 41 44  1  0
 32 45  1  0
 45 46  1  0
 45 47  1  0
 47 48  1  0
 47 49  1  0
 49 50  1  0
 50 51  2  0
 17 52  1  0
 52 53  1  0
 52 54  1  0
 54 55  1  0
 55 56  1  0
 56 57  1  0
 50  4  1  0
 55 15  1  0
 28 23  1  0
 44 36  1  0
  1 58  1  0
  1 59  1  0
  2 60  1  0
  3 61  1  0
  3 62  1  0
  4 63  1  6
  5 64  1  0
  7 65  1  0
  7 66  1  0
  7 67  1  0
  8 68  1  0
  8 69  1  0
  9 70  1  6
 10 71  1  0
 10 72  1  0
 10 73  1  0
 11 74  1  0
 11 75  1  0
 12 76  1  6
 14 77  1  0
 14 78  1  0
 14 79  1  0
 15 80  1  6
 18 81  1  0
 24 82  1  0
 24 83  1  0
 25 84  1  0
 25 85  1  0
 26 86  1  0
 26 87  1  0
 27 88  1  0
 27 89  1  0
 28 90  1  1
 32 91  1  6
 34 92  1  0
 34 93  1  0
 34 94  1  0
 35 95  1  0
 36 96  1  1
 37 97  1  0
 37 98  1  0
 38 99  1  0
 38100  1  0
 39101  1  6
 40102  1  0
 41103  1  6
 43104  1  0
 43105  1  0
 43106  1  0
 44107  1  0
 44108  1  0
 45109  1  6
 46110  1  0
 46111  1  0
 46112  1  0
 47113  1  1
 48114  1  0
 49115  1  0
 49116  1  0
 52117  1  1
 53118  1  0
 53119  1  0
 53120  1  0
 54121  1  0
 54122  1  0
 55123  1  1
 57124  1  0
 57125  1  0
 57126  1  0
M  END
$$$$
OCNT-0496475
     RDKit          3D

 31 33  0  0  0  0  0  0  0  0999 V2000
   -1.9728   -1.2532   -2.4681 Cl  0  0  0  0  0  0  0  0  0  0  0  0
   -2.6045   -0.5020   -1.0452 C   0  0  0  0  0  0  0  0  0  0  0  0
   -3.7606    0.2734   -1.1862 C   0  0  0  0  0  0  0  0  0  0  0  0
   -4.3319    0.8947   -0.0764 C   0  0  0  0  0  0  0  0  0  0  0  0
   -3.7503    0.7413    1.1786 C   0  0  0  0  0  0  0  0  0  0  0  0
   -2.5964   -0.0311    1.3240 C   0  0  0  0  0  0  0  0  0  0  0  0
   -2.0039   -0.6639    0.2145 C   0  0  0  0  0  0  0  0  0  0  0  0
   -0.7448   -1.4810    0.4191 C   0  0  0  0  0  0  0  0  0  0  0  0
    0.4747   -0.8209   -0.0744 N   0  0  0  0  0  0  0  0  0  0  0  0
    1.6027   -1.7804   -0.0906 C   0  0  0  0  0  0  0  0  0  0  0  0
    2.8441   -1.2088   -0.8088 C   0  0  0  0  0  0  0  0  0  0  0  0
    3.0839    0.1891   -0.3463 C   0  0  0  0  0  0  0  0  0  0  0  0
    2.1433    0.9354    0.3341 C   0  0  0  0  0  0  0  0  0  0  0  0
    2.6416    2.2453    0.6167 C   0  0  0  0  0  0  0  0  0  0  0  0
    3.9226    2.4297    0.1399 C   0  0  0  0  0  0  0  0  0  0  0  0
    4.5264    1.0314   -0.6431 S   0  0  0  0  0  0  0  0  0  0  0  0
    0.8003    0.3817    0.7263 C   0  0  0  0  0  0  0  0  0  0  0  0
   -4.2211    0.3964   -2.1634 H   0  0  0  0  0  0  0  0  0  0  0  0
   -5.2295    1.4967   -0.1926 H   0  0  0  0  0  0  0  0  0  0  0  0
   -4.1940    1.2248    2.0457 H   0  0  0  0  0  0  0  0  0  0  0  0
   -2.1561   -0.1346    2.3138 H   0  0  0  0  0  0  0  0  0  0  0  0
   -0.6356   -1.7437    1.4806 H   0  0  0  0  0  0  0  0  0  0  0  0
   -0.8941   -2.4405   -0.0939 H   0  0  0  0  0  0  0  0  0  0  0  0
    1.3138   -2.6987   -0.6170 H   0  0  0  0  0  0  0  0  0  0  0  0
    1.8666   -2.0683    0.9365 H   0  0  0  0  0  0  0  0  0  0  0  0
    2.6710   -1.2040   -1.8921 H   0  0  0  0  0  0  0  0  0  0  0  0
    3.7107   -1.8482   -0.6070 H   0  0  0  0  0  0  0  0  0  0  0  0
    2.0891    3.0148    1.1418 H   0  0  0  0  0  0  0  0  0  0  0  0
    4.5351    3.3177    0.2110 H   0  0  0  0  0  0  0  0  0  0  0  0
    0.8225    0.1466    1.7983 H   0  0  0  0  0  0  0  0  0  0  0  0
    0.0471    1.1600    0.5593 H   0  0  0  0  0  0  0  0  0  0  0  0
  1  2  1  0
  2  3  2  0
  3  4  1  0
  4  5  2  0
  5  6  1  0
  6  7  2  0
  7  8  1  0
  8  9  1  0
  9 10  1  0
 10 11  1  0
 11 12  1  0
 12 13  2  0
 13 14  1  0
 14 15  2  0
 15 16  1  0
 13 17  1  0
  7  2  1  0
 17  9  1  0
 16 12  1  0
  3 18  1  0
  4 19  1  0
  5 20  1  0
  6 21  1  0
  8 22  1  0
  8 23  1  0
 10 24  1  0
 10 25  1  0
 11 26  1  0
 11 27  1  0
 14 28  1  0
 15 29  1  0
 17 30  1  0
 17 31  1  0
M  END
$$$$
OCNT-0496647
     RDKit          3D

 41 44  0  0  0  0  0  0  0  0999 V2000
    4.0179   -2.6832   -0.1800 C   0  0  0  0  0  0  0  0  0  0  0  0
    2.9199   -1.8540    0.3102 N   0  0  0  0  0  0  0  0  0  0  0  0
    1.6165   -2.5230    0.0826 C   0  0  0  0  0  0  0  0  0  0  0  0
    0.4366   -1.7660    0.7454 C   0  0  0  0  0  0  0  0  0  0  0  0
    0.5849   -0.3053    0.4904 C   0  0  0  0  0  0  0  0  0  0  0  0
    1.7453    0.2711    0.0160 C   0  0  0  0  0  0  0  0  0  0  0  0
    2.9649   -0.5203   -0.3424 C   0  0  0  0  0  0  0  0  0  0  0  0
    1.5115    1.6711   -0.0785 C   0  0  0  0  0  0  0  0  0  0  0  0
    2.2969    2.7642   -0.4999 C   0  0  0  0  0  0  0  0  0  0  0  0
    1.7607    4.0551   -0.4722 C   0  0  0  0  0  0  0  0  0  0  0  0
    0.4589    4.2691   -0.0331 C   0  0  0  0  0  0  0  0  0  0  0  0
   -0.3417    3.2039    0.3902 C   0  0  0  0  0  0  0  0  0  0  0  0
    0.2014    1.9072    0.3609 C   0  0  0  0  0  0  0  0  0  0  0  0
   -0.3433    0.6789    0.7087 N   0  0  0  0  0  0  0  0  0  0  0  0
   -1.6694    0.4756    1.2871 C   0  0  0  0  0  0  0  0  0  0  0  0
   -2.6706   -0.0823    0.3020 C   0  0  0  0  0  0  0  0  0  0  0  0
   -2.8429    0.4774   -0.9733 C   0  0  0  0  0  0  0  0  0  0  0  0
   -3.7964   -0.0371   -1.8541 C   0  0  0  0  0  0  0  0  0  0  0  0
   -4.5980   -1.1088   -1.4686 C   0  0  0  0  0  0  0  0  0  0  0  0
   -4.4495   -1.6658   -0.2008 C   0  0  0  0  0  0  0  0  0  0  0  0
   -3.4959   -1.1533    0.6811 C   0  0  0  0  0  0  0  0  0  0  0  0
    4.0348   -3.6462    0.3423 H   0  0  0  0  0  0  0  0  0  0  0  0
    4.9822   -2.2022    0.0186 H   0  0  0  0  0  0  0  0  0  0  0  0
    3.9435   -2.8768   -1.2562 H   0  0  0  0  0  0  0  0  0  0  0  0
    1.6359   -3.5379    0.4989 H   0  0  0  0  0  0  0  0  0  0  0  0
    1.4289   -2.6217   -0.9957 H   0  0  0  0  0  0  0  0  0  0  0  0
    0.4479   -1.9443    1.8272 H   0  0  0  0  0  0  0  0  0  0  0  0
   -0.5071   -2.1488    0.3451 H   0  0  0  0  0  0  0  0  0  0  0  0
    3.8601    0.0164   -0.0072 H   0  0  0  0  0  0  0  0  0  0  0  0
    3.0111   -0.6187   -1.4347 H   0  0  0  0  0  0  0  0  0  0  0  0
    3.3152    2.6076   -0.8425 H   0  0  0  0  0  0  0  0  0  0  0  0
    2.3684    4.8960   -0.7961 H   0  0  0  0  0  0  0  0  0  0  0  0
    0.0561    5.2791   -0.0180 H   0  0  0  0  0  0  0  0  0  0  0  0
   -1.3571    3.3892    0.7248 H   0  0  0  0  0  0  0  0  0  0  0  0
   -2.0354    1.4252    1.6895 H   0  0  0  0  0  0  0  0  0  0  0  0
   -1.5329   -0.2007    2.1398 H   0  0  0  0  0  0  0  0  0  0  0  0
   -2.2299    1.3159   -1.2985 H   0  0  0  0  0  0  0  0  0  0  0  0
   -3.9117    0.4008   -2.8424 H   0  0  0  0  0  0  0  0  0  0  0  0
   -5.3394   -1.5079   -2.1557 H   0  0  0  0  0  0  0  0  0  0  0  0
   -5.0780   -2.4991    0.1026 H   0  0  0  0  0  0  0  0  0  0  0  0
   -3.4004   -1.6006    1.6683 H   0  0  0  0  0  0  0  0  0  0  0  0
  1  2  1  0
  2  3  1  0
  3  4  1  0
  4  5  1  0
  5  6  2  0
  6  7  1  0
  6  8  1  0
  8  9  2  0
  9 10  1  0
 10 11  2  0
 11 12  1  0
 12 13  2  0
 13 14  1  0
 14 15  1  0
 15 16  1  0
 16 17  2  0
 17 18  1  0
 18 19  2  0
 19 20  1  0
 20 21  2  0
  7  2  1  0
 13  8  1  0
 21 16  1  0
 14  5  1  0
  1 22  1  0
  1 23  1  0
  1 24  1  0
  3 25  1  0
  3 26  1  0
  4 27  1  0
  4 28  1  0
  7 29  1  0
  7 30  1  0
  9 31  1  0
 10 32  1  0
 11 33  1  0
 12 34  1  0
 15 35  1  0
 15 36  1  0
 17 37  1  0
 18 38  1  0
 19 39  1  0
 20 40  1  0
 21 41  1  0
M  END
$$$$
OCNT-0497719
     RDKit          3D

 38 40  0  0  0  0  0  0  0  0999 V2000
    2.9634    2.5007   -1.0155 O   0  0  0  0  0  0  0  0  0  0  0  0
    2.5206    1.3659   -1.1738 C   0  0  0  0  0  0  0  0  0  0  0  0
    1.4257    1.0911   -2.1937 C   0  0  0  0  0  0  0  0  0  0  0  0
    0.1166    0.6782   -1.5656 C   0  0  0  0  0  0  0  0  0  0  0  0
   -0.5328    1.5237   -0.6599 C   0  0  0  0  0  0  0  0  0  0  0  0
   -1.7449    1.1426   -0.0760 C   0  0  0  0  0  0  0  0  0  0  0  0
   -2.3464   -0.0872   -0.3859 C   0  0  0  0  0  0  0  0  0  0  0  0
   -3.6266   -0.4810    0.2264 C   0  0  0  0  0  0  0  0  0  0  0  0
   -3.7964   -0.4733    1.6206 C   0  0  0  0  0  0  0  0  0  0  0  0
   -5.0161   -0.8330    2.2022 C   0  0  0  0  0  0  0  0  0  0  0  0
   -6.0870   -1.2099    1.4000 C   0  0  0  0  0  0  0  0  0  0  0  0
   -5.9399   -1.2270    0.0159 C   0  0  0  0  0  0  0  0  0  0  0  0
   -4.7199   -0.8657   -0.5645 C   0  0  0  0  0  0  0  0  0  0  0  0
   -1.6914   -0.9243   -1.3017 C   0  0  0  0  0  0  0  0  0  0  0  0
   -0.4767   -0.5492   -1.8862 C   0  0  0  0  0  0  0  0  0  0  0  0
    2.9321    0.2331   -0.5114 N   0  0  0  0  0  0  0  0  0  0  0  0
    3.9150    0.1089    0.4689 C   0  0  0  0  0  0  0  0  0  0  0  0
    4.6720    1.1657    0.9571 C   0  0  0  0  0  0  0  0  0  0  0  0
    5.6274    0.9095    1.9403 C   0  0  0  0  0  0  0  0  0  0  0  0
    5.7995   -0.3879    2.4041 C   0  0  0  0  0  0  0  0  0  0  0  0
    5.0020   -1.3799    1.8625 C   0  0  0  0  0  0  0  0  0  0  0  0
    4.0683   -1.1596    0.9097 N   0  0  0  0  0  0  0  0  0  0  0  0
    1.7909    0.3212   -2.8859 H   0  0  0  0  0  0  0  0  0  0  0  0
    1.2660    1.9947   -2.7938 H   0  0  0  0  0  0  0  0  0  0  0  0
   -0.1009    2.4875   -0.3962 H   0  0  0  0  0  0  0  0  0  0  0  0
   -2.2266    1.8245    0.6209 H   0  0  0  0  0  0  0  0  0  0  0  0
   -2.9683   -0.1932    2.2708 H   0  0  0  0  0  0  0  0  0  0  0  0
   -5.1275   -0.8174    3.2819 H   0  0  0  0  0  0  0  0  0  0  0  0
   -7.0362   -1.4873    1.8516 H   0  0  0  0  0  0  0  0  0  0  0  0
   -6.7756   -1.5136   -0.6159 H   0  0  0  0  0  0  0  0  0  0  0  0
   -4.6322   -0.8686   -1.6488 H   0  0  0  0  0  0  0  0  0  0  0  0
   -2.1238   -1.8882   -1.5617 H   0  0  0  0  0  0  0  0  0  0  0  0
   -0.0043   -1.2269   -2.5920 H   0  0  0  0  0  0  0  0  0  0  0  0
    2.4734   -0.6483   -0.7046 H   0  0  0  0  0  0  0  0  0  0  0  0
    4.5434    2.1821    0.6035 H   0  0  0  0  0  0  0  0  0  0  0  0
    6.2288    1.7223    2.3382 H   0  0  0  0  0  0  0  0  0  0  0  0
    6.5347   -0.6186    3.1668 H   0  0  0  0  0  0  0  0  0  0  0  0
    5.0935   -2.4117    2.1904 H   0  0  0  0  0  0  0  0  0  0  0  0
  1  2  2  0
  2  3  1  0
  3  4  1  0
  4  5  1  0
  5  6  2  0
  6  7  1  0
  7  8  1  0
  8  9  2  0
  9 10  1  0
 10 11  2  0
 11 12  1  0
 12 13  2  0
  7 14  2  0
 14 15  1  0
  2 16  1  0
 16 17  1  0
 17 18  2  0
 18 19  1  0
 19 20  2  0
 20 21  1  0
 21 22  2  0
 15  4  2  0
 22 17  1  0
 13  8  1  0
  3 23  1  0
  3 24  1  0
  5 25  1  0
  6 26  1  0
  9 27  1  0
 10 28  1  0
 11 29  1  0
 12 30  1  0
 13 31  1  0
 14 32  1  0
 15 33  1  0
 16 34  1  0
 18 35  1  0
 19 36  1  0
 20 37  1  0
 21 38  1  0
M  END
$$$$
OCNT-0497954
     RDKit          3D

 39 41  0  0  0  0  0  0  0  0999 V2000
    4.0774    0.4688    0.0778 C   0  0  0  0  0  0  0  0  0  0  0  0
    3.8011   -0.9539    0.2616 N   0  0  0  0  0  0  0  0  0  0  0  0
    4.3035   -1.7351   -0.8646 C   0  0  0  0  0  0  0  0  0  0  0  0
    2.3859   -1.2236    0.5590 C   0  0  0  0  0  0  0  0  0  0  0  0
    1.3694   -0.9376   -0.5622 C   0  0  0  0  0  0  0  0  0  0  0  0
   -0.0478   -1.1599   -0.0918 C   0  0  0  0  0  0  0  0  0  0  0  0
   -1.0390   -0.2576    0.0957 C   0  0  0  0  0  0  0  0  0  0  0  0
   -2.4051   -0.7869    0.3702 C   0  0  0  0  0  0  0  0  0  0  0  0
   -2.6399   -1.7810    1.3339 C   0  0  0  0  0  0  0  0  0  0  0  0
   -3.9335   -2.2519    1.5671 C   0  0  0  0  0  0  0  0  0  0  0  0
   -5.0061   -1.7304    0.8479 C   0  0  0  0  0  0  0  0  0  0  0  0
   -4.7902   -0.7275   -0.0981 C   0  0  0  0  0  0  0  0  0  0  0  0
   -3.4973   -0.2424   -0.3338 C   0  0  0  0  0  0  0  0  0  0  0  0
   -3.2883    1.0656   -1.5441 S   0  0  0  0  0  0  0  0  0  0  0  0
   -1.8308    1.8871   -0.9000 C   0  0  0  0  0  0  0  0  0  0  0  0
   -1.6823    3.2588   -1.1466 C   0  0  0  0  0  0  0  0  0  0  0  0
   -0.5941    3.9560   -0.6194 C   0  0  0  0  0  0  0  0  0  0  0  0
    0.3367    3.2855    0.1688 C   0  0  0  0  0  0  0  0  0  0  0  0
    1.6657    4.1470    0.8413 Cl  0  0  0  0  0  0  0  0  0  0  0  0
    0.2020    1.9207    0.4192 C   0  0  0  0  0  0  0  0  0  0  0  0
   -0.8596    1.1983   -0.1458 C   0  0  0  0  0  0  0  0  0  0  0  0
    3.7248    1.0472    0.9389 H   0  0  0  0  0  0  0  0  0  0  0  0
    5.1577    0.6397    0.0096 H   0  0  0  0  0  0  0  0  0  0  0  0
    3.6144    0.8771   -0.8266 H   0  0  0  0  0  0  0  0  0  0  0  0
    5.3900   -1.6218   -0.9508 H   0  0  0  0  0  0  0  0  0  0  0  0
    3.8567   -1.4347   -1.8185 H   0  0  0  0  0  0  0  0  0  0  0  0
    4.1119   -2.8030   -0.7123 H   0  0  0  0  0  0  0  0  0  0  0  0
    2.1101   -0.6579    1.4588 H   0  0  0  0  0  0  0  0  0  0  0  0
    2.2961   -2.2777    0.8554 H   0  0  0  0  0  0  0  0  0  0  0  0
    1.5443   -1.6216   -1.4019 H   0  0  0  0  0  0  0  0  0  0  0  0
    1.5024    0.0671   -0.9695 H   0  0  0  0  0  0  0  0  0  0  0  0
   -0.2760   -2.2194    0.0323 H   0  0  0  0  0  0  0  0  0  0  0  0
   -1.8188   -2.1899    1.9178 H   0  0  0  0  0  0  0  0  0  0  0  0
   -4.1035   -3.0243    2.3132 H   0  0  0  0  0  0  0  0  0  0  0  0
   -6.0131   -2.0981    1.0286 H   0  0  0  0  0  0  0  0  0  0  0  0
   -5.6388   -0.3223   -0.6444 H   0  0  0  0  0  0  0  0  0  0  0  0
   -2.4197    3.7953   -1.7398 H   0  0  0  0  0  0  0  0  0  0  0  0
   -0.4895    5.0201   -0.8138 H   0  0  0  0  0  0  0  0  0  0  0  0
    0.9234    1.4239    1.0611 H   0  0  0  0  0  0  0  0  0  0  0  0
  1  2  1  0
  2  3  1  0
  2  4  1  0
  4  5  1  0
  5  6  1  0
  6  7  2  0
  7  8  1  0
  8  9  2  0
  9 10  1  0
 10 11  2  0
 11 12  1  0
 12 13  2  0
 13 14  1  0
 14 15  1  0
 15 16  1  0
 16 17  2  0
 17 18  1  0
 18 19  1  0
 18 20  2  0
 20 21  1  0
 21  7  1  0
 13  8  1  0
 21 15  2  0
  1 22  1  0
  1 23  1  0
  1 24  1  0
  3 25  1  0
  3 26  1  0
  3 27  1  0
  4 28  1  0
  4 29  1  0
  5 30  1  0
  5 31  1  0
  6 32  1  0
  9 33  1  0
 10 34  1  0
 11 35  1  0
 12 36  1  0
 16 37  1  0
 17 38  1  0
 20 39  1  0
M  END
$$$$
OCNT-0497979
     RDKit          3D

 47 48  0  0  0  0  0  0  0  0999 V2000
    0.8234    2.2452   -0.3426 C   0  0  0  0  0  0  0  0  0  0  0  0
    0.8212    0.7930   -0.2657 N   0  0  0  0  0  0  0  0  0  0  0  0
    0.1520    0.2378    0.9036 C   0  0  0  0  0  0  0  0  0  0  0  0
   -1.3374    0.0699    0.7553 C   0  0  0  0  0  0  0  0  0  0  0  0
   -2.0639    0.2381   -0.3600 C   0  0  0  0  0  0  0  0  0  0  0  0
   -3.4702    0.0417   -0.3626 C   0  0  0  0  0  0  0  0  0  0  0  0
   -4.6598   -0.1239   -0.3671 C   0  0  0  0  0  0  0  0  0  0  0  0
   -6.1254   -0.3287   -0.3710 C   0  0  0  0  0  0  0  0  0  0  0  0
   -6.4335   -1.8003   -0.6810 C   0  0  0  0  0  0  0  0  0  0  0  0
   -6.6943    0.0359    1.0074 C   0  0  0  0  0  0  0  0  0  0  0  0
   -6.7625    0.5665   -1.4429 C   0  0  0  0  0  0  0  0  0  0  0  0
    2.0866    0.1511   -0.6358 C   0  0  0  0  0  0  0  0  0  0  0  0
    3.3289    0.2458    0.2469 C   0  0  0  0  0  0  0  0  0  0  0  0
    3.3309    0.9088    1.4855 C   0  0  0  0  0  0  0  0  0  0  0  0
    4.4774    0.9768    2.2733 C   0  0  0  0  0  0  0  0  0  0  0  0
    5.6543    0.3791    1.8422 C   0  0  0  0  0  0  0  0  0  0  0  0
    5.7039   -0.2973    0.6190 C   0  0  0  0  0  0  0  0  0  0  0  0
    6.9067   -0.8961    0.2076 C   0  0  0  0  0  0  0  0  0  0  0  0
    6.9925   -1.5801   -1.0021 C   0  0  0  0  0  0  0  0  0  0  0  0
    5.8738   -1.6739   -1.8160 C   0  0  0  0  0  0  0  0  0  0  0  0
    4.6709   -1.0823   -1.4192 C   0  0  0  0  0  0  0  0  0  0  0  0
    4.5437   -0.3765   -0.1968 C   0  0  0  0  0  0  0  0  0  0  0  0
    1.4324    2.7191    0.4314 H   0  0  0  0  0  0  0  0  0  0  0  0
    1.1955    2.5796   -1.3174 H   0  0  0  0  0  0  0  0  0  0  0  0
   -0.1931    2.6434   -0.2512 H   0  0  0  0  0  0  0  0  0  0  0  0
    0.5473   -0.7590    1.1390 H   0  0  0  0  0  0  0  0  0  0  0  0
    0.3336    0.8560    1.7904 H   0  0  0  0  0  0  0  0  0  0  0  0
   -1.8478   -0.2328    1.6682 H   0  0  0  0  0  0  0  0  0  0  0  0
   -1.5930    0.5246   -1.2954 H   0  0  0  0  0  0  0  0  0  0  0  0
   -5.9866   -2.4673    0.0659 H   0  0  0  0  0  0  0  0  0  0  0  0
   -7.5135   -1.9859   -0.6911 H   0  0  0  0  0  0  0  0  0  0  0  0
   -6.0346   -2.0939   -1.6593 H   0  0  0  0  0  0  0  0  0  0  0  0
   -6.2540   -0.5842    1.7974 H   0  0  0  0  0  0  0  0  0  0  0  0
   -7.7806   -0.1053    1.0382 H   0  0  0  0  0  0  0  0  0  0  0  0
   -6.4858    1.0822    1.2610 H   0  0  0  0  0  0  0  0  0  0  0  0
   -6.3720    0.3335   -2.4408 H   0  0  0  0  0  0  0  0  0  0  0  0
   -6.5557    1.6263   -1.2521 H   0  0  0  0  0  0  0  0  0  0  0  0
   -7.8504    0.4382   -1.4716 H   0  0  0  0  0  0  0  0  0  0  0  0
    2.3586    0.5393   -1.6266 H   0  0  0  0  0  0  0  0  0  0  0  0
    1.8714   -0.9161   -0.7824 H   0  0  0  0  0  0  0  0  0  0  0  0
    2.4416    1.3932    1.8697 H   0  0  0  0  0  0  0  0  0  0  0  0
    4.4512    1.4987    3.2265 H   0  0  0  0  0  0  0  0  0  0  0  0
    6.5370    0.4454    2.4742 H   0  0  0  0  0  0  0  0  0  0  0  0
    7.7943   -0.8337    0.8340 H   0  0  0  0  0  0  0  0  0  0  0  0
    7.9302   -2.0378   -1.3050 H   0  0  0  0  0  0  0  0  0  0  0  0
    5.9303   -2.2067   -2.7616 H   0  0  0  0  0  0  0  0  0  0  0  0
    3.8245   -1.1871   -2.0937 H   0  0  0  0  0  0  0  0  0  0  0  0
  1  2  1  0
  2  3  1  0
  3  4  1  0
  4  5  2  0
  5  6  1  0
  6  7  3  0
  7  8  1  0
  8  9  1  0
  8 10  1  0
  8 11  1  0
  2 12  1  0
 12 13  1  0
 13 14  2  0
 14 15  1  0
 15 16  2  0
 16 17  1  0
 17 18  2  0
 18 19  1  0
 19 20  2  0
 20 21  1  0
 21 22  2  0
 22 13  1  0
 22 17  1  0
  1 23  1  0
  1 24  1  0
  1 25  1  0
  3 26  1  0
  3 27  1  0
  4 28  1  0
  5 29  1  0
  9 30  1  0
  9 31  1  0
  9 32  1  0
 10 33  1  0
 10 34  1  0
 10 35  1  0
 11 36  1  0
 11 37  1  0
 11 38  1  0
 12 39  1  0
 12 40  1  0
 14 41  1  0
 15 42  1  0
 16 43  1  0
 18 44  1  0
 19 45  1  0
 20 46  1  0
 21 47  1  0
M  END
$$$$
OCNT-0497986
     RDKit          3D

 28 29  0  0  0  0  0  0  0  0999 V2000
    3.3130    1.7108    0.7264 N   0  0  0  0  0  0  0  0  0  0  0  0
    3.1806    0.1531    0.1155 S   0  0  0  0  0  0  0  0  0  0  0  0
    3.7165    0.2012   -1.2214 O   0  0  0  0  0  0  0  0  0  0  0  0
    3.6991   -0.6940    1.1602 O   0  0  0  0  0  0  0  0  0  0  0  0
    1.4296   -0.1214   -0.0097 C   0  0  0  0  0  0  0  0  0  0  0  0
    0.5692    0.9809   -0.0436 C   0  0  0  0  0  0  0  0  0  0  0  0
   -0.8119    0.7710   -0.1106 C   0  0  0  0  0  0  0  0  0  0  0  0
   -1.3735   -0.5048   -0.1592 C   0  0  0  0  0  0  0  0  0  0  0  0
   -0.4932   -1.5935   -0.0878 C   0  0  0  0  0  0  0  0  0  0  0  0
    0.9108   -1.4284   -0.0377 C   0  0  0  0  0  0  0  0  0  0  0  0
    1.7851   -2.6621    0.0109 C   0  0  0  0  0  0  0  0  0  0  0  0
    2.9094   -2.5658   -0.7419 F   0  0  0  0  0  0  0  0  0  0  0  0
    1.1367   -3.7674   -0.4627 F   0  0  0  0  0  0  0  0  0  0  0  0
    2.1670   -2.9845    1.2726 F   0  0  0  0  0  0  0  0  0  0  0  0
   -2.7515   -0.7441   -0.1171 N   0  0  0  0  0  0  0  0  0  0  0  0
   -3.6293    0.3196   -0.5462 C   0  0  0  0  0  0  0  0  0  0  0  0
   -3.3614    1.4793    0.2573 N   0  0  0  0  0  0  0  0  0  0  0  0
   -1.8807    2.1691   -0.0931 S   0  0  0  0  0  0  0  0  0  0  0  0
   -1.9234    2.6879   -1.4413 O   0  0  0  0  0  0  0  0  0  0  0  0
   -1.5234    2.9880    1.0431 O   0  0  0  0  0  0  0  0  0  0  0  0
    3.7583    1.6817    1.6460 H   0  0  0  0  0  0  0  0  0  0  0  0
    3.8115    2.3021    0.0584 H   0  0  0  0  0  0  0  0  0  0  0  0
    0.9518    1.9992   -0.0108 H   0  0  0  0  0  0  0  0  0  0  0  0
   -0.9039   -2.6045   -0.0687 H   0  0  0  0  0  0  0  0  0  0  0  0
   -3.0053   -1.6385   -0.5331 H   0  0  0  0  0  0  0  0  0  0  0  0
   -4.6652    0.0101   -0.3720 H   0  0  0  0  0  0  0  0  0  0  0  0
   -3.5366    0.5196   -1.6197 H   0  0  0  0  0  0  0  0  0  0  0  0
   -3.4793    1.3355    1.2571 H   0  0  0  0  0  0  0  0  0  0  0  0
  1  2  1  0
  2  3  2  0
  2  4  2  0
  2  5  1  0
  5  6  1  0
  6  7  2  0
  7  8  1  0
  8  9  2  0
  9 10  1  0
 10 11  1  0
 11 12  1  0
 11 13  1  0
 11 14  1  0
  8 15  1  0
 15 16  1  0
 16 17  1  0
 17 18  1  0
 18 19  2  0
 18 20  2  0
 10  5  2  0
 18  7  1  0
  1 21  1  0
  1 22  1  0
  6 23  1  0
  9 24  1  0
 15 25  1  0
 16 26  1  0
 16 27  1  0
 17 28  1  0
M  END
$$$$
OCNT-0497994
     RDKit          3D

 44 45  0  0  0  0  0  0  0  0999 V2000
    4.2815   -2.7866    0.9659 C   0  0  0  0  0  0  0  0  0  0  0  0
    2.8810   -2.5984    1.5174 C   0  0  0  0  0  0  0  0  0  0  0  0
    2.2634   -1.4521    0.9155 O   0  0  0  0  0  0  0  0  0  0  0  0
    1.6198   -1.6754   -0.2551 C   0  0  0  0  0  0  0  0  0  0  0  0
    1.5426   -2.7375   -0.8517 O   0  0  0  0  0  0  0  0  0  0  0  0
    1.0139   -0.4104   -0.7216 C   0  0  0  0  0  0  0  0  0  0  0  0
    1.1890    0.0257   -1.9897 C   0  0  0  0  0  0  0  0  0  0  0  0
    2.0372   -0.6687   -3.0253 C   0  0  0  0  0  0  0  0  0  0  0  0
    0.5892    1.2090   -2.3948 N   0  0  0  0  0  0  0  0  0  0  0  0
   -0.1189    2.0572   -1.5571 C   0  0  0  0  0  0  0  0  0  0  0  0
   -0.5327    3.3771   -2.1557 C   0  0  0  0  0  0  0  0  0  0  0  0
   -0.3543    1.6842   -0.2792 C   0  0  0  0  0  0  0  0  0  0  0  0
   -1.0741    2.5351    0.6886 C   0  0  0  0  0  0  0  0  0  0  0  0
   -0.6224    2.8484    1.7780 O   0  0  0  0  0  0  0  0  0  0  0  0
   -2.3086    2.8345    0.2121 O   0  0  0  0  0  0  0  0  0  0  0  0
   -3.1057    3.5942    1.1205 C   0  0  0  0  0  0  0  0  0  0  0  0
    0.1514    0.3563    0.2809 C   0  0  0  0  0  0  0  0  0  0  0  0
   -1.0210   -0.5127    0.7691 C   0  0  0  0  0  0  0  0  0  0  0  0
   -1.9874   -0.9319   -0.1739 C   0  0  0  0  0  0  0  0  0  0  0  0
   -3.0735   -1.7200    0.2011 C   0  0  0  0  0  0  0  0  0  0  0  0
   -3.2196   -2.1090    1.5277 C   0  0  0  0  0  0  0  0  0  0  0  0
   -2.2794   -1.7117    2.4821 C   0  0  0  0  0  0  0  0  0  0  0  0
   -2.5424   -2.2475    4.1082 Cl  0  0  0  0  0  0  0  0  0  0  0  0
   -1.1787   -0.9154    2.1138 C   0  0  0  0  0  0  0  0  0  0  0  0
   -0.0243   -0.4429    3.3206 Cl  0  0  0  0  0  0  0  0  0  0  0  0
    4.8778   -1.8803    1.1138 H   0  0  0  0  0  0  0  0  0  0  0  0
    4.7833   -3.6239    1.4590 H   0  0  0  0  0  0  0  0  0  0  0  0
    4.2571   -2.9791   -0.1114 H   0  0  0  0  0  0  0  0  0  0  0  0
    2.9314   -2.4068    2.5942 H   0  0  0  0  0  0  0  0  0  0  0  0
    2.2704   -3.4980    1.3784 H   0  0  0  0  0  0  0  0  0  0  0  0
    2.7628   -1.3632   -2.5936 H   0  0  0  0  0  0  0  0  0  0  0  0
    1.3998   -1.2183   -3.7253 H   0  0  0  0  0  0  0  0  0  0  0  0
    2.6175    0.0653   -3.5960 H   0  0  0  0  0  0  0  0  0  0  0  0
    0.8014    1.5437   -3.3319 H   0  0  0  0  0  0  0  0  0  0  0  0
   -0.7906    4.1285   -1.4045 H   0  0  0  0  0  0  0  0  0  0  0  0
   -1.3936    3.2360   -2.8170 H   0  0  0  0  0  0  0  0  0  0  0  0
    0.2875    3.7996   -2.7472 H   0  0  0  0  0  0  0  0  0  0  0  0
   -4.0724    3.7837    0.6460 H   0  0  0  0  0  0  0  0  0  0  0  0
   -2.6308    4.5567    1.3353 H   0  0  0  0  0  0  0  0  0  0  0  0
   -3.2772    3.0309    2.0432 H   0  0  0  0  0  0  0  0  0  0  0  0
    0.8143    0.6254    1.1104 H   0  0  0  0  0  0  0  0  0  0  0  0
   -1.8941   -0.6434   -1.2215 H   0  0  0  0  0  0  0  0  0  0  0  0
   -3.8024   -2.0322   -0.5433 H   0  0  0  0  0  0  0  0  0  0  0  0
   -4.0681   -2.7259    1.8141 H   0  0  0  0  0  0  0  0  0  0  0  0
  1  2  1  0
  2  3  1  0
  3  4  1  0
  4  5  2  0
  4  6  1  0
  6  7  2  0
  7  8  1  0
  7  9  1  0
  9 10  1  0
 10 11  1  0
 10 12  2  0
 12 13  1  0
 13 14  2  0
 13 15  1  0
 15 16  1  0
 12 17  1  0
 17 18  1  0
 18 19  2  0
 19 20  1  0
 20 21  2  0
 21 22  1  0
 22 23  1  0
 22 24  2  0
 24 25  1  0
 17  6  1  0
 24 18  1  0
  1 26  1  0
  1 27  1  0
  1 28  1  0
  2 29  1  0
  2 30  1  0
  8 31  1  0
  8 32  1  0
  8 33  1  0
  9 34  1  0
 11 35  1  0
 11 36  1  0
 11 37  1  0
 16 38  1  0
 16 39  1  0
 16 40  1  0
 17 41  1  0
 19 42  1  0
 20 43  1  0
 21 44  1  0
M  END
$$$$
OCNT-0498030
     RDKit          3D

 46 48  0  0  0  0  0  0  0  0999 V2000
    3.5574    2.5845   -3.4482 C   0  0  0  0  0  0  0  0  0  0  0  0
    3.7989    1.6932   -2.2686 C   0  0  0  0  0  0  0  0  0  0  0  0
    4.9751    0.9526   -2.1517 C   0  0  0  0  0  0  0  0  0  0  0  0
    5.1475    0.1707   -1.0223 C   0  0  0  0  0  0  0  0  0  0  0  0
    4.2419    0.0779   -0.0228 N   0  0  0  0  0  0  0  0  0  0  0  0
    3.1109    0.8095   -0.1387 C   0  0  0  0  0  0  0  0  0  0  0  0
    2.2411    0.6403    0.9398 N   0  0  0  0  0  0  0  0  0  0  0  0
    0.9938    1.1904    1.1315 C   0  0  0  0  0  0  0  0  0  0  0  0
    0.4283    1.9685    0.3633 O   0  0  0  0  0  0  0  0  0  0  0  0
    0.2771    0.7089    2.4035 C   0  0  0  0  0  0  0  0  0  0  0  0
    1.1283    0.8877    3.6646 C   0  0  0  0  0  0  0  0  0  0  0  0
   -0.2982   -0.6855    2.1952 C   0  0  0  0  0  0  0  0  0  0  0  0
    0.3712   -1.8559    2.5785 C   0  0  0  0  0  0  0  0  0  0  0  0
   -0.1838   -3.1117    2.3166 C   0  0  0  0  0  0  0  0  0  0  0  0
   -1.4082   -3.2169    1.6556 C   0  0  0  0  0  0  0  0  0  0  0  0
   -2.0838   -2.0636    1.2514 C   0  0  0  0  0  0  0  0  0  0  0  0
   -3.3918   -2.2087    0.5572 C   0  0  0  0  0  0  0  0  0  0  0  0
   -4.1216   -3.1567    0.8380 O   0  0  0  0  0  0  0  0  0  0  0  0
   -3.8411   -1.2274   -0.4614 C   0  0  0  0  0  0  0  0  0  0  0  0
   -2.9487   -0.6556   -1.3759 C   0  0  0  0  0  0  0  0  0  0  0  0
   -3.4105    0.2799   -2.3044 C   0  0  0  0  0  0  0  0  0  0  0  0
   -4.7620    0.6307   -2.3339 C   0  0  0  0  0  0  0  0  0  0  0  0
   -5.6576    0.0408   -1.4421 C   0  0  0  0  0  0  0  0  0  0  0  0
   -5.1993   -0.8922   -0.5090 C   0  0  0  0  0  0  0  0  0  0  0  0
   -1.5372   -0.8051    1.5345 C   0  0  0  0  0  0  0  0  0  0  0  0
    2.8613    1.6313   -1.2295 C   0  0  0  0  0  0  0  0  0  0  0  0
    4.1986    2.3141   -4.2944 H   0  0  0  0  0  0  0  0  0  0  0  0
    3.7596    3.6253   -3.1762 H   0  0  0  0  0  0  0  0  0  0  0  0
    2.5191    2.4991   -3.7854 H   0  0  0  0  0  0  0  0  0  0  0  0
    5.7431    0.9807   -2.9198 H   0  0  0  0  0  0  0  0  0  0  0  0
    6.0550   -0.4133   -0.8787 H   0  0  0  0  0  0  0  0  0  0  0  0
    2.5988   -0.0397    1.5970 H   0  0  0  0  0  0  0  0  0  0  0  0
   -0.5750    1.3928    2.5410 H   0  0  0  0  0  0  0  0  0  0  0  0
    2.0317    0.2693    3.6665 H   0  0  0  0  0  0  0  0  0  0  0  0
    1.4534    1.9301    3.7564 H   0  0  0  0  0  0  0  0  0  0  0  0
    0.5482    0.6332    4.5596 H   0  0  0  0  0  0  0  0  0  0  0  0
    1.3322   -1.8175    3.0849 H   0  0  0  0  0  0  0  0  0  0  0  0
    0.3432   -4.0135    2.6222 H   0  0  0  0  0  0  0  0  0  0  0  0
   -1.8342   -4.1990    1.4551 H   0  0  0  0  0  0  0  0  0  0  0  0
   -1.8973   -0.9285   -1.3819 H   0  0  0  0  0  0  0  0  0  0  0  0
   -2.7147    0.7336   -3.0082 H   0  0  0  0  0  0  0  0  0  0  0  0
   -5.1196    1.3616   -3.0581 H   0  0  0  0  0  0  0  0  0  0  0  0
   -6.7130    0.3074   -1.4712 H   0  0  0  0  0  0  0  0  0  0  0  0
   -5.9017   -1.3490    0.1852 H   0  0  0  0  0  0  0  0  0  0  0  0
   -2.0753    0.0992    1.2506 H   0  0  0  0  0  0  0  0  0  0  0  0
    1.9589    2.2262   -1.2966 H   0  0  0  0  0  0  0  0  0  0  0  0
  1  2  1  0
  2  3  2  0
  3  4  1  0
  4  5  2  0
  5  6  1  0
  6  7  1  0
  7  8  1  0
  8  9  2  0
  8 10  1  0
 10 11  1  0
 10 12  1  0
 12 13  2  0
 13 14  1  0
 14 15  2  0
 15 16  1  0
 16 17  1  0
 17 18  2  0
 17 19  1  0
 19 20  2  0
 20 21  1  0
 21 22  2  0
 22 23  1  0
 23 24  2  0
 16 25  2  0
  6 26  2  0
 26  2  1  0
 25 12  1  0
 24 19  1  0
  1 27  1  0
  1 28  1  0
  1 29  1  0
  3 30  1  0
  4 31  1  0
  7 32  1  0
 10 33  1  0
 11 34  1  0
 11 35  1  0
 11 36  1  0
 13 37  1  0
 14 38  1  0
 15 39  1  0
 20 40  1  0
 21 41  1  0
 22 42  1  0
 23 43  1  0
 24 44  1  0
 25 45  1  0
 26 46  1  0
M  END
$$$$
OCNT-0498067
     RDKit          3D

 51 54  0  0  0  0  0  0  0  0999 V2000
    0.7889    1.5317    0.7358 O   0  0  0  0  0  0  0  0  0  0  0  0
   -0.0562    0.7241    0.4228 C   0  0  0  0  0  0  0  0  0  0  0  0
   -0.0785   -0.8016    0.2357 C   0  0  2  0  0  0  0  0  0  0  0  0
    0.8154   -1.4041   -0.8453 C   0  0  0  0  0  0  0  0  0  0  0  0
    2.2994   -1.3287   -0.4591 C   0  0  0  0  0  0  0  0  0  0  0  0
    3.0214   -0.1320   -1.0958 C   0  0  2  0  0  0  0  0  0  0  0  0
    3.0943   -0.3310   -2.5092 O   0  0  0  0  0  0  0  0  0  0  0  0
    4.4134    0.0525   -0.5281 C   0  0  0  0  0  0  0  0  0  0  0  0
    5.4685   -0.8013   -0.8932 C   0  0  0  0  0  0  0  0  0  0  0  0
    6.7418   -0.6245   -0.3503 C   0  0  0  0  0  0  0  0  0  0  0  0
    6.9615    0.4004    0.5618 C   0  0  0  0  0  0  0  0  0  0  0  0
    8.1840    0.5684    1.0831 F   0  0  0  0  0  0  0  0  0  0  0  0
    5.9316    1.2511    0.9438 C   0  0  0  0  0  0  0  0  0  0  0  0
    4.6572    1.0769    0.4019 C   0  0  0  0  0  0  0  0  0  0  0  0
   -1.5763   -0.6031   -0.1717 C   0  0  1  0  0  0  0  0  0  0  0  0
   -2.6588   -1.3845    0.6959 C   0  0  0  0  0  0  0  0  0  0  0  0
   -3.0311   -0.9848    1.9970 C   0  0  0  0  0  0  0  0  0  0  0  0
   -3.9807   -1.6867    2.7449 C   0  0  0  0  0  0  0  0  0  0  0  0
   -4.5816   -2.8137    2.2073 C   0  0  0  0  0  0  0  0  0  0  0  0
   -5.5011   -3.4704    2.9681 O   0  0  0  0  0  0  0  0  0  0  0  0
   -4.2477   -3.2493    0.9333 C   0  0  0  0  0  0  0  0  0  0  0  0
   -3.2965   -2.5390    0.1926 C   0  0  0  0  0  0  0  0  0  0  0  0
   -1.3665    0.8247    0.0914 N   0  0  0  0  0  0  0  0  0  0  0  0
   -2.2035    1.9218   -0.1064 C   0  0  0  0  0  0  0  0  0  0  0  0
   -1.7592    3.2230    0.1638 C   0  0  0  0  0  0  0  0  0  0  0  0
   -2.6036    4.3191   -0.0352 C   0  0  0  0  0  0  0  0  0  0  0  0
   -3.8938    4.1143   -0.5039 C   0  0  0  0  0  0  0  0  0  0  0  0
   -4.7036    5.1638   -0.6943 F   0  0  0  0  0  0  0  0  0  0  0  0
   -4.3556    2.8339   -0.7770 C   0  0  0  0  0  0  0  0  0  0  0  0
   -3.5108    1.7381   -0.5788 C   0  0  0  0  0  0  0  0  0  0  0  0
    0.0502   -1.3215    1.1955 H   0  0  0  0  0  0  0  0  0  0  0  0
    0.5413   -2.4606   -0.9576 H   0  0  0  0  0  0  0  0  0  0  0  0
    0.6351   -0.9298   -1.8168 H   0  0  0  0  0  0  0  0  0  0  0  0
    2.7790   -2.2502   -0.8158 H   0  0  0  0  0  0  0  0  0  0  0  0
    2.4099   -1.3116    0.6320 H   0  0  0  0  0  0  0  0  0  0  0  0
    2.4495    0.7881   -0.9522 H   0  0  0  0  0  0  0  0  0  0  0  0
    3.7627    0.2932   -2.8428 H   0  0  0  0  0  0  0  0  0  0  0  0
    5.2975   -1.6085   -1.6032 H   0  0  0  0  0  0  0  0  0  0  0  0
    7.5604   -1.2795   -0.6303 H   0  0  0  0  0  0  0  0  0  0  0  0
    6.1247    2.0412    1.6622 H   0  0  0  0  0  0  0  0  0  0  0  0
    3.8516    1.7416    0.7126 H   0  0  0  0  0  0  0  0  0  0  0  0
   -1.7471   -0.7565   -1.2483 H   0  0  0  0  0  0  0  0  0  0  0  0
   -2.5741   -0.1014    2.4411 H   0  0  0  0  0  0  0  0  0  0  0  0
   -4.2473   -1.3508    3.7432 H   0  0  0  0  0  0  0  0  0  0  0  0
   -5.8333   -4.2334    2.4675 H   0  0  0  0  0  0  0  0  0  0  0  0
   -4.7092   -4.1308    0.4997 H   0  0  0  0  0  0  0  0  0  0  0  0
   -3.0431   -2.8941   -0.8056 H   0  0  0  0  0  0  0  0  0  0  0  0
   -0.7544    3.4079    0.5358 H   0  0  0  0  0  0  0  0  0  0  0  0
   -2.2600    5.3267    0.1756 H   0  0  0  0  0  0  0  0  0  0  0  0
   -5.3688    2.6943   -1.1401 H   0  0  0  0  0  0  0  0  0  0  0  0
   -3.8965    0.7467   -0.7982 H   0  0  0  0  0  0  0  0  0  0  0  0
  1  2  2  0
  2  3  1  0
  3  4  1  0
  4  5  1  0
  5  6  1  0
  6  7  1  0
  6  8  1  0
  8  9  1  0
  9 10  2  0
 10 11  1  0
 11 12  1  0
 11 13  2  0
 13 14  1  0
  3 15  1  0
 15 16  1  0
 16 17  1  0
 17 18  2  0
 18 19  1  0
 19 20  1  0
 19 21  2  0
 21 22  1  0
 15 23  1  0
 23 24  1  0
 24 25  1  0
 25 26  2  0
 26 27  1  0
 27 28  1  0
 27 29  2  0
 29 30  1  0
 23  2  1  0
 30 24  2  0
 14  8  2  0
 22 16  2  0
  3 31  1  1
  4 32  1  0
  4 33  1  0
  5 34  1  0
  5 35  1  0
  6 36  1  6
  7 37  1  0
  9 38  1  0
 10 39  1  0
 13 40  1  0
 14 41  1  0
 15 42  1  6
 17 43  1  0
 18 44  1  0
 20 45  1  0
 21 46  1  0
 22 47  1  0
 25 48  1  0
 26 49  1  0
 29 50  1  0
 30 51  1  0
M  END
$$$$
OCNT-0713834
     RDKit          3D

 57 59  0  0  0  0  0  0  0  0999 V2000
   -5.6665   -0.4911    0.7315 C   0  0  0  0  0  0  0  0  0  0  0  0
   -4.9273   -1.2621   -0.3930 C   0  0  0  0  0  0  0  0  0  0  0  0
   -5.6037   -0.8402   -1.7168 C   0  0  0  0  0  0  0  0  0  0  0  0
   -5.1873   -2.7622   -0.1286 C   0  0  0  0  0  0  0  0  0  0  0  0
   -3.4086   -0.9825   -0.4498 C   0  0  0  0  0  0  0  0  0  0  0  0
   -2.7795   -0.1103    0.4640 C   0  0  0  0  0  0  0  0  0  0  0  0
   -1.3864    0.1963    0.4700 C   0  0  0  0  0  0  0  0  0  0  0  0
   -0.8546    1.1889    1.5447 C   0  0  0  0  0  0  0  0  0  0  0  0
   -1.9537    1.7766    2.4834 C   0  0  0  0  0  0  0  0  0  0  0  0
   -0.2248    2.4347    0.8783 C   0  0  0  0  0  0  0  0  0  0  0  0
    0.1231    0.4731    2.5039 C   0  0  0  0  0  0  0  0  0  0  0  0
   -0.5821   -0.4331   -0.5197 C   0  0  0  0  0  0  0  0  0  0  0  0
    0.8219   -0.2103   -0.5930 N   0  0  0  0  0  0  0  0  0  0  0  0
    1.7260   -0.6780   -1.5307 C   0  0  0  0  0  0  0  0  0  0  0  0
    1.4575   -1.3619   -2.5168 O   0  0  0  0  0  0  0  0  0  0  0  0
    3.1526   -0.2858   -1.2865 C   0  0  0  0  0  0  0  0  0  0  0  0
    4.0918   -0.7323   -2.1405 C   0  0  0  0  0  0  0  0  0  0  0  0
    5.4353   -0.4698   -2.0576 N   0  0  0  0  0  0  0  0  0  0  0  0
    5.9594    0.2490   -0.9782 C   0  0  0  0  0  0  0  0  0  0  0  0
    5.0926    0.7958   -0.0179 C   0  0  0  0  0  0  0  0  0  0  0  0
    5.5892    1.5517    1.0501 C   0  0  0  0  0  0  0  0  0  0  0  0
    6.9621    1.7689    1.1598 C   0  0  0  0  0  0  0  0  0  0  0  0
    7.8303    1.2377    0.2049 C   0  0  0  0  0  0  0  0  0  0  0  0
    7.3311    0.4862   -0.8641 C   0  0  0  0  0  0  0  0  0  0  0  0
    3.6316    0.5568   -0.1542 C   0  0  0  0  0  0  0  0  0  0  0  0
    2.8464    1.0425    0.6555 O   0  0  0  0  0  0  0  0  0  0  0  0
   -1.1998   -1.3052   -1.4294 C   0  0  0  0  0  0  0  0  0  0  0  0
   -2.5724   -1.5706   -1.3973 C   0  0  0  0  0  0  0  0  0  0  0  0
   -3.0855   -2.4386   -2.3230 O   0  0  0  0  0  0  0  0  0  0  0  0
   -6.7393   -0.7198    0.7289 H   0  0  0  0  0  0  0  0  0  0  0  0
   -5.5716    0.5943    0.6068 H   0  0  0  0  0  0  0  0  0  0  0  0
   -5.2868   -0.7599    1.7248 H   0  0  0  0  0  0  0  0  0  0  0  0
   -5.2766   -1.4401   -2.5712 H   0  0  0  0  0  0  0  0  0  0  0  0
   -6.6930   -0.9531   -1.6565 H   0  0  0  0  0  0  0  0  0  0  0  0
   -5.3905    0.2099   -1.9506 H   0  0  0  0  0  0  0  0  0  0  0  0
   -4.6827   -3.0936    0.7864 H   0  0  0  0  0  0  0  0  0  0  0  0
   -4.8410   -3.4031   -0.9442 H   0  0  0  0  0  0  0  0  0  0  0  0
   -6.2585   -2.9615   -0.0085 H   0  0  0  0  0  0  0  0  0  0  0  0
   -3.4098    0.3533    1.2122 H   0  0  0  0  0  0  0  0  0  0  0  0
   -2.4552    0.9946    3.0661 H   0  0  0  0  0  0  0  0  0  0  0  0
   -2.7141    2.3330    1.9220 H   0  0  0  0  0  0  0  0  0  0  0  0
   -1.5194    2.4769    3.2080 H   0  0  0  0  0  0  0  0  0  0  0  0
    0.1584    3.1323    1.6329 H   0  0  0  0  0  0  0  0  0  0  0  0
    0.6024    2.2216    0.2026 H   0  0  0  0  0  0  0  0  0  0  0  0
   -0.9745    2.9722    0.2835 H   0  0  0  0  0  0  0  0  0  0  0  0
   -0.3929   -0.3225    3.0557 H   0  0  0  0  0  0  0  0  0  0  0  0
    0.9712   -0.0035    2.0137 H   0  0  0  0  0  0  0  0  0  0  0  0
    0.5333    1.1730    3.2414 H   0  0  0  0  0  0  0  0  0  0  0  0
    1.2259    0.3836    0.1242 H   0  0  0  0  0  0  0  0  0  0  0  0
    3.8353   -1.3605   -2.9911 H   0  0  0  0  0  0  0  0  0  0  0  0
    6.0663   -0.9659   -2.6778 H   0  0  0  0  0  0  0  0  0  0  0  0
    4.9127    1.9705    1.7912 H   0  0  0  0  0  0  0  0  0  0  0  0
    7.3548    2.3554    1.9866 H   0  0  0  0  0  0  0  0  0  0  0  0
    8.9003    1.4143    0.2887 H   0  0  0  0  0  0  0  0  0  0  0  0
    8.0230    0.0922   -1.6036 H   0  0  0  0  0  0  0  0  0  0  0  0
   -0.6175   -1.8182   -2.1842 H   0  0  0  0  0  0  0  0  0  0  0  0
   -2.3791   -2.6995   -2.9369 H   0  0  0  0  0  0  0  0  0  0  0  0
  1  2  1  0
  2  3  1  0
  2  4  1  0
  2  5  1  0
  5  6  2  0
  6  7  1  0
  7  8  1  0
  8  9  1  0
  8 10  1  0
  8 11  1  0
  7 12  2  0
 12 13  1  0
 13 14  1  0
 14 15  2  0
 14 16  1  0
 16 17  2  0
 17 18  1  0
 18 19  1  0
 19 20  1  0
 20 21  2  0
 21 22  1  0
 22 23  2  0
 23 24  1  0
 20 25  1  0
 25 26  2  0
 12 27  1  0
 27 28  2  0
 28 29  1  0
 28  5  1  0
 25 16  1  0
 24 19  2  0
  1 30  1  0
  1 31  1  0
  1 32  1  0
  3 33  1  0
  3 34  1  0
  3 35  1  0
  4 36  1  0
  4 37  1  0
  4 38  1  0
  6 39  1  0
  9 40  1  0
  9 41  1  0
  9 42  1  0
 10 43  1  0
 10 44  1  0
 10 45  1  0
 11 46  1  0
 11 47  1  0
 11 48  1  0
 13 49  1  0
 17 50  1  0
 18 51  1  0
 21 52  1  0
 22 53  1  0
 23 54  1  0
 24 55  1  0
 27 56  1  0
 29 57  1  0
M  END
$$$$
OCNT-0713835
     RDKit          3D

 75 78  0  0  0  0  0  0  0  0999 V2000
   -5.7156    2.0761   -1.9741 C   0  0  0  0  0  0  0  0  0  0  0  0
   -5.5984    2.9079   -0.7481 C   0  0  0  0  0  0  0  0  0  0  0  0
   -5.7386    4.2406   -0.8594 N   0  0  0  0  0  0  0  0  0  0  0  0
   -5.6137    4.6980    0.3969 N   0  0  0  0  0  0  0  0  0  0  0  0
   -5.7477    6.1113    0.6562 C   0  0  0  0  0  0  0  0  0  0  0  0
   -5.3388    3.7239    1.3039 C   0  0  0  0  0  0  0  0  0  0  0  0
   -5.3260    2.5394    0.5909 C   0  0  0  0  0  0  0  0  0  0  0  0
   -5.0065    0.9790    1.2313 S   0  0  0  0  0  0  0  0  0  0  0  0
   -5.1140    1.1640    2.6659 O   0  0  0  0  0  0  0  0  0  0  0  0
   -5.8732    0.0616    0.5325 O   0  0  0  0  0  0  0  0  0  0  0  0
   -3.4090    0.6142    0.9745 N   0  0  0  0  0  0  0  0  0  0  0  0
   -2.8645    0.1711   -0.2356 C   0  0  0  0  0  0  0  0  0  0  0  0
   -3.4774    0.1012   -1.2855 O   0  0  0  0  0  0  0  0  0  0  0  0
   -1.4191   -0.0911   -0.1652 C   0  0  0  0  0  0  0  0  0  0  0  0
   -0.5564    0.9712    0.1311 C   0  0  0  0  0  0  0  0  0  0  0  0
    0.8163    0.7528    0.1185 C   0  0  0  0  0  0  0  0  0  0  0  0
    1.2764   -0.5225   -0.1924 C   0  0  0  0  0  0  0  0  0  0  0  0
    2.6822   -0.7657   -0.2362 N   0  0  0  0  0  0  0  0  0  0  0  0
    3.2885   -1.9717   -0.5200 C   0  0  0  0  0  0  0  0  0  0  0  0
    4.6451   -1.7594   -0.4752 C   0  0  0  0  0  0  0  0  0  0  0  0
    4.7697   -0.4040   -0.1512 C   0  0  0  0  0  0  0  0  0  0  0  0
    5.9378    0.2564   -0.0118 O   0  0  0  0  0  0  0  0  0  0  0  0
    5.8130    1.6082    0.4330 C   0  0  0  0  0  0  0  0  0  0  0  0
    7.2043    2.2407    0.6275 C   0  0  0  0  0  0  0  0  0  0  0  0
    7.0242    3.7204    1.0175 C   0  0  0  0  0  0  0  0  0  0  0  0
    8.0252    2.1579   -0.6719 C   0  0  0  0  0  0  0  0  0  0  0  0
    7.9441    1.5099    1.7483 C   0  0  0  0  0  0  0  0  0  0  0  0
    7.2474    1.5561    2.9076 F   0  0  0  0  0  0  0  0  0  0  0  0
    9.1471    2.0858    1.9862 F   0  0  0  0  0  0  0  0  0  0  0  0
    8.1770    0.2110    1.4629 F   0  0  0  0  0  0  0  0  0  0  0  0
    3.5998    0.2143   -0.0007 N   0  0  0  0  0  0  0  0  0  0  0  0
    0.4403   -1.5619   -0.4690 N   0  0  0  0  0  0  0  0  0  0  0  0
   -0.8994   -1.3539   -0.4601 C   0  0  0  0  0  0  0  0  0  0  0  0
   -1.7341   -2.4383   -0.7064 N   0  0  0  0  0  0  0  0  0  0  0  0
   -1.3721   -3.1998   -1.9158 C   0  0  0  0  0  0  0  0  0  0  0  0
   -2.0414   -4.5569   -1.7111 C   0  0  1  0  0  0  0  0  0  0  0  0
   -1.4578   -5.6549   -2.5846 C   0  0  0  0  0  0  0  0  0  0  0  0
   -1.8163   -4.7809   -0.2184 C   0  0  0  0  0  0  0  0  0  0  0  0
   -2.0647   -3.3830    0.3989 C   0  0  0  0  0  0  0  0  0  0  0  0
   -3.5539   -3.2086    0.7422 C   0  0  0  0  0  0  0  0  0  0  0  0
   -1.2355   -3.2215    1.6804 C   0  0  0  0  0  0  0  0  0  0  0  0
   -6.0960    1.0746   -1.7599 H   0  0  0  0  0  0  0  0  0  0  0  0
   -4.7409    1.9929   -2.4655 H   0  0  0  0  0  0  0  0  0  0  0  0
   -6.4089    2.5341   -2.6897 H   0  0  0  0  0  0  0  0  0  0  0  0
   -6.5525    6.5106    0.0330 H   0  0  0  0  0  0  0  0  0  0  0  0
   -5.9880    6.2601    1.7122 H   0  0  0  0  0  0  0  0  0  0  0  0
   -4.7987    6.5945    0.4101 H   0  0  0  0  0  0  0  0  0  0  0  0
   -5.1894    3.9306    2.3557 H   0  0  0  0  0  0  0  0  0  0  0  0
   -2.8822    0.5585    1.8409 H   0  0  0  0  0  0  0  0  0  0  0  0
   -0.9463    1.9659    0.3319 H   0  0  0  0  0  0  0  0  0  0  0  0
    1.5004    1.5705    0.3281 H   0  0  0  0  0  0  0  0  0  0  0  0
    2.6967   -2.8523   -0.7273 H   0  0  0  0  0  0  0  0  0  0  0  0
    5.4312   -2.4793   -0.6524 H   0  0  0  0  0  0  0  0  0  0  0  0
    5.2579    2.1875   -0.3183 H   0  0  0  0  0  0  0  0  0  0  0  0
    5.2600    1.6437    1.3818 H   0  0  0  0  0  0  0  0  0  0  0  0
    6.5043    4.2761    0.2298 H   0  0  0  0  0  0  0  0  0  0  0  0
    7.9891    4.2106    1.1863 H   0  0  0  0  0  0  0  0  0  0  0  0
    6.4387    3.8199    1.9390 H   0  0  0  0  0  0  0  0  0  0  0  0
    7.4938    2.6302   -1.5048 H   0  0  0  0  0  0  0  0  0  0  0  0
    8.2334    1.1199   -0.9533 H   0  0  0  0  0  0  0  0  0  0  0  0
    8.9876    2.6690   -0.5631 H   0  0  0  0  0  0  0  0  0  0  0  0
   -0.2875   -3.3293   -2.0205 H   0  0  0  0  0  0  0  0  0  0  0  0
   -1.7517   -2.7042   -2.8161 H   0  0  0  0  0  0  0  0  0  0  0  0
   -3.1172   -4.4725   -1.9151 H   0  0  0  0  0  0  0  0  0  0  0  0
   -1.9192   -6.6185   -2.3488 H   0  0  0  0  0  0  0  0  0  0  0  0
   -0.3767   -5.7560   -2.4470 H   0  0  0  0  0  0  0  0  0  0  0  0
   -1.6442   -5.4385   -3.6419 H   0  0  0  0  0  0  0  0  0  0  0  0
   -2.4807   -5.5522    0.1870 H   0  0  0  0  0  0  0  0  0  0  0  0
   -0.7822   -5.1060   -0.0400 H   0  0  0  0  0  0  0  0  0  0  0  0
   -4.1864   -3.2539   -0.1524 H   0  0  0  0  0  0  0  0  0  0  0  0
   -3.7384   -2.2414    1.2224 H   0  0  0  0  0  0  0  0  0  0  0  0
   -3.8967   -3.9892    1.4320 H   0  0  0  0  0  0  0  0  0  0  0  0
   -1.5343   -3.9625    2.4330 H   0  0  0  0  0  0  0  0  0  0  0  0
   -0.1658   -3.3636    1.4918 H   0  0  0  0  0  0  0  0  0  0  0  0
   -1.3736   -2.2291    2.1267 H   0  0  0  0  0  0  0  0  0  0  0  0
  1  2  1  0
  2  3  2  0
  3  4  1  0
  4  5  1  0
  4  6  1  0
  6  7  2  0
  7  8  1  0
  8  9  2  0
  8 10  2  0
  8 11  1  0
 11 12  1  0
 12 13  2  0
 12 14  1  0
 14 15  2  0
 15 16  1  0
 16 17  2  0
 17 18  1  0
 18 19  1  0
 19 20  2  0
 20 21  1  0
 21 22  1  0
 22 23  1  0
 23 24  1  0
 24 25  1  0
 24 26  1  0
 24 27  1  0
 27 28  1  0
 27 29  1  0
 27 30  1  0
 21 31  2  0
 17 32  1  0
 32 33  2  0
 33 34  1  0
 34 35  1  0
 35 36  1  0
 36 37  1  0
 36 38  1  0
 38 39  1  0
 39 40  1  0
 39 41  1  0
  7  2  1  0
 33 14  1  0
 39 34  1  0
 31 18  1  0
  1 42  1  0
  1 43  1  0
  1 44  1  0
  5 45  1  0
  5 46  1  0
  5 47  1  0
  6 48  1  0
 11 49  1  0
 15 50  1  0
 16 51  1  0
 19 52  1  0
 20 53  1  0
 23 54  1  0
 23 55  1  0
 25 56  1  0
 25 57  1  0
 25 58  1  0
 26 59  1  0
 26 60  1  0
 26 61  1  0
 35 62  1  0
 35 63  1  0
 36 64  1  1
 37 65  1  0
 37 66  1  0
 37 67  1  0
 38 68  1  0
 38 69  1  0
 40 70  1  0
 40 71  1  0
 40 72  1  0
 41 73  1  0
 41 74  1  0
 41 75  1  0
M  END
$$$$
OCNT-1411118
     RDKit          3D

 50 52  0  0  0  0  0  0  0  0999 V2000
   -3.5144   -1.5435    1.8910 C   0  0  0  0  0  0  0  0  0  0  0  0
   -3.0541   -1.9757    0.5335 C   0  0  0  0  0  0  0  0  0  0  0  0
   -2.3652   -1.1873   -0.3881 C   0  0  0  0  0  0  0  0  0  0  0  0
   -1.9185    0.1756   -0.2999 C   0  0  0  0  0  0  0  0  0  0  0  0
   -0.8531    0.4908    0.4713 C   0  0  0  0  0  0  0  0  0  0  0  0
    0.0184   -0.4273    1.2902 C   0  0  0  0  0  0  0  0  0  0  0  0
    1.2233   -1.0272    0.5367 C   0  0  0  0  0  0  0  0  0  0  0  0
    2.4009   -0.1418    0.4303 N   0  0  0  0  0  0  0  0  0  0  0  0
    2.1765    0.9814   -0.4968 C   0  0  0  0  0  0  0  0  0  0  0  0
    3.4560    1.5458   -1.1284 C   0  0  0  0  0  0  0  0  0  0  0  0
    4.6374    1.4223   -0.1777 C   0  0  0  0  0  0  0  0  0  0  0  0
    4.8835   -0.0521    0.1800 C   0  0  1  0  0  0  0  0  0  0  0  0
    5.5331   -0.1935    1.5404 C   0  0  0  0  0  0  0  0  0  0  0  0
    5.7639    0.6856    2.3545 O   0  0  0  0  0  0  0  0  0  0  0  0
    5.9415   -1.4571    1.7913 O   0  0  0  0  0  0  0  0  0  0  0  0
    3.6065   -0.9071    0.0766 C   0  0  0  0  0  0  0  0  0  0  0  0
   -2.5413    1.2468   -1.0371 C   0  0  0  0  0  0  0  0  0  0  0  0
   -3.8287    1.7699   -0.9298 C   0  0  0  0  0  0  0  0  0  0  0  0
   -4.8680    1.3090    0.0390 C   0  0  0  0  0  0  0  0  0  0  0  0
   -4.0513    2.8304   -1.8712 C   0  0  0  0  0  0  0  0  0  0  0  0
   -2.9569    3.0770   -2.6636 C   0  0  0  0  0  0  0  0  0  0  0  0
   -1.6577    2.0383   -2.2969 S   0  0  0  0  0  0  0  0  0  0  0  0
   -2.0642   -2.0595   -1.8488 S   0  0  0  0  0  0  0  0  0  0  0  0
   -2.8154   -3.4678   -1.2554 C   0  0  0  0  0  0  0  0  0  0  0  0
   -3.2978   -3.2949    0.0197 C   0  0  0  0  0  0  0  0  0  0  0  0
   -2.9787   -0.6603    2.2495 H   0  0  0  0  0  0  0  0  0  0  0  0
   -3.3572   -2.3445    2.6218 H   0  0  0  0  0  0  0  0  0  0  0  0
   -4.5832   -1.3072    1.8646 H   0  0  0  0  0  0  0  0  0  0  0  0
   -0.5483    1.5356    0.5282 H   0  0  0  0  0  0  0  0  0  0  0  0
   -0.5765   -1.2555    1.6903 H   0  0  0  0  0  0  0  0  0  0  0  0
    0.3669    0.1184    2.1765 H   0  0  0  0  0  0  0  0  0  0  0  0
    1.5172   -1.9096    1.1216 H   0  0  0  0  0  0  0  0  0  0  0  0
    0.9247   -1.4034   -0.4501 H   0  0  0  0  0  0  0  0  0  0  0  0
    1.5023    0.7023   -1.3169 H   0  0  0  0  0  0  0  0  0  0  0  0
    1.6958    1.7902    0.0647 H   0  0  0  0  0  0  0  0  0  0  0  0
    3.3001    2.5963   -1.4028 H   0  0  0  0  0  0  0  0  0  0  0  0
    3.6802    1.0042   -2.0570 H   0  0  0  0  0  0  0  0  0  0  0  0
    4.4389    2.0293    0.7168 H   0  0  0  0  0  0  0  0  0  0  0  0
    5.5388    1.8432   -0.6421 H   0  0  0  0  0  0  0  0  0  0  0  0
    5.6124   -0.4458   -0.5419 H   0  0  0  0  0  0  0  0  0  0  0  0
    6.3518   -1.3893    2.6804 H   0  0  0  0  0  0  0  0  0  0  0  0
    3.6963   -1.7858    0.7276 H   0  0  0  0  0  0  0  0  0  0  0  0
    3.5088   -1.2946   -0.9479 H   0  0  0  0  0  0  0  0  0  0  0  0
   -5.2268    0.3123   -0.2334 H   0  0  0  0  0  0  0  0  0  0  0  0
   -5.7295    1.9836    0.0467 H   0  0  0  0  0  0  0  0  0  0  0  0
   -4.4641    1.2748    1.0552 H   0  0  0  0  0  0  0  0  0  0  0  0
   -4.9786    3.3847   -1.9610 H   0  0  0  0  0  0  0  0  0  0  0  0
   -2.8605    3.8160   -3.4469 H   0  0  0  0  0  0  0  0  0  0  0  0
   -2.8704   -4.3563   -1.8688 H   0  0  0  0  0  0  0  0  0  0  0  0
   -3.8153   -4.0768    0.5643 H   0  0  0  0  0  0  0  0  0  0  0  0
  1  2  1  0
  2  3  2  0
  3  4  1  0
  4  5  2  3
  5  6  1  0
  6  7  1  0
  7  8  1  0
  8  9  1  0
  9 10  1  0
 10 11  1  0
 11 12  1  0
 12 13  1  0
 13 14  2  0
 13 15  1  0
 12 16  1  0
  4 17  1  0
 17 18  2  0
 18 19  1  0
 18 20  1  0
 20 21  2  0
 21 22  1  0
  3 23  1  0
 23 24  1  0
 24 25  2  0
 25  2  1  0
 16  8  1  0
 22 17  1  0
  1 26  1  0
  1 27  1  0
  1 28  1  0
  5 29  1  0
  6 30  1  0
  6 31  1  0
  7 32  1  0
  7 33  1  0
  9 34  1  0
  9 35  1  0
 10 36  1  0
 10 37  1  0
 11 38  1  0
 11 39  1  0
 12 40  1  6
 15 41  1  0
 16 42  1  0
 16 43  1  0
 19 44  1  0
 19 45  1  0
 19 46  1  0
 20 47  1  0
 21 48  1  0
 24 49  1  0
 25 50  1  0
M  END
$$$$
OCNT-1893991
     RDKit          3D

 51 54  0  0  0  0  0  0  0  0999 V2000
    4.1859    0.1604   -2.3540 O   0  0  0  0  0  0  0  0  0  0  0  0
    4.1898    0.0559   -1.1327 C   0  0  0  0  0  0  0  0  0  0  0  0
    3.2682   -0.6935   -0.4297 N   0  0  0  0  0  0  0  0  0  0  0  0
    2.1424   -1.3458   -1.0940 C   0  0  0  0  0  0  0  0  0  0  0  0
    1.6203   -2.5281   -0.2684 C   0  0  0  0  0  0  0  0  0  0  0  0
    0.3281   -2.1714    0.4615 C   0  0  0  0  0  0  0  0  0  0  0  0
   -0.7474   -1.8389   -0.4817 N   0  0  0  0  0  0  0  0  0  0  0  0
   -1.9109   -1.2782    0.2298 C   0  0  0  0  0  0  0  0  0  0  0  0
   -3.2174   -1.3921   -0.5764 C   0  0  0  0  0  0  0  0  0  0  0  0
   -4.3876   -0.8263    0.1699 C   0  0  0  0  0  0  0  0  0  0  0  0
   -5.3232   -1.5408    0.8929 C   0  0  0  0  0  0  0  0  0  0  0  0
   -6.2254   -0.6574    1.4207 N   0  0  0  0  0  0  0  0  0  0  0  0
   -5.8999    0.6290    1.0598 C   0  0  0  0  0  0  0  0  0  0  0  0
   -6.5316    1.8398    1.3683 C   0  0  0  0  0  0  0  0  0  0  0  0
   -5.9713    3.0125    0.8533 C   0  0  0  0  0  0  0  0  0  0  0  0
   -4.8270    2.9725    0.0606 C   0  0  0  0  0  0  0  0  0  0  0  0
   -4.2089    1.7528   -0.2385 C   0  0  0  0  0  0  0  0  0  0  0  0
   -4.7524    0.5552    0.2702 C   0  0  0  0  0  0  0  0  0  0  0  0
   -0.3054   -1.0050   -1.6114 C   0  0  0  0  0  0  0  0  0  0  0  0
    1.0409   -0.3216   -1.3906 C   0  0  0  0  0  0  0  0  0  0  0  0
    5.2437    0.7348   -0.3296 C   0  0  0  0  0  0  0  0  0  0  0  0
    6.4949    0.9459   -0.9226 C   0  0  0  0  0  0  0  0  0  0  0  0
    7.5133    1.5795   -0.2085 C   0  0  0  0  0  0  0  0  0  0  0  0
    7.2829    2.0131    1.0964 C   0  0  0  0  0  0  0  0  0  0  0  0
    6.0333    1.8225    1.6864 C   0  0  0  0  0  0  0  0  0  0  0  0
    5.0112    1.1880    0.9755 C   0  0  0  0  0  0  0  0  0  0  0  0
    3.3417   -0.7638    0.5751 H   0  0  0  0  0  0  0  0  0  0  0  0
    2.5207   -1.7423   -2.0452 H   0  0  0  0  0  0  0  0  0  0  0  0
    1.4204   -3.3729   -0.9414 H   0  0  0  0  0  0  0  0  0  0  0  0
    2.3724   -2.8800    0.4478 H   0  0  0  0  0  0  0  0  0  0  0  0
    0.0187   -3.0321    1.0666 H   0  0  0  0  0  0  0  0  0  0  0  0
    0.5196   -1.3413    1.1546 H   0  0  0  0  0  0  0  0  0  0  0  0
   -2.0613   -1.8301    1.1681 H   0  0  0  0  0  0  0  0  0  0  0  0
   -1.7165   -0.2360    0.5159 H   0  0  0  0  0  0  0  0  0  0  0  0
   -3.4105   -2.4473   -0.8089 H   0  0  0  0  0  0  0  0  0  0  0  0
   -3.1347   -0.8754   -1.5392 H   0  0  0  0  0  0  0  0  0  0  0  0
   -5.4224   -2.6031    1.0732 H   0  0  0  0  0  0  0  0  0  0  0  0
   -7.0196   -0.9074    1.9927 H   0  0  0  0  0  0  0  0  0  0  0  0
   -7.4246    1.8742    1.9834 H   0  0  0  0  0  0  0  0  0  0  0  0
   -6.4385    3.9695    1.0737 H   0  0  0  0  0  0  0  0  0  0  0  0
   -4.4089    3.8960   -0.3321 H   0  0  0  0  0  0  0  0  0  0  0  0
   -3.3184    1.7335   -0.8595 H   0  0  0  0  0  0  0  0  0  0  0  0
   -1.0431   -0.2380   -1.8726 H   0  0  0  0  0  0  0  0  0  0  0  0
   -0.2288   -1.6562   -2.4911 H   0  0  0  0  0  0  0  0  0  0  0  0
    0.9510    0.3988   -0.5660 H   0  0  0  0  0  0  0  0  0  0  0  0
    1.3098    0.2659   -2.2769 H   0  0  0  0  0  0  0  0  0  0  0  0
    6.6773    0.6145   -1.9431 H   0  0  0  0  0  0  0  0  0  0  0  0
    8.4836    1.7373   -0.6727 H   0  0  0  0  0  0  0  0  0  0  0  0
    8.0758    2.5101    1.6504 H   0  0  0  0  0  0  0  0  0  0  0  0
    5.8531    2.1782    2.6978 H   0  0  0  0  0  0  0  0  0  0  0  0
    4.0367    1.0851    1.4424 H   0  0  0  0  0  0  0  0  0  0  0  0
  1  2  2  0
  2  3  1  0
  3  4  1  0
  4  5  1  0
  5  6  1  0
  6  7  1  0
  7  8  1  0
  8  9  1  0
  9 10  1  0
 10 11  2  0
 11 12  1  0
 12 13  1  0
 13 14  2  0
 14 15  1  0
 15 16  2  0
 16 17  1  0
 17 18  2  0
  7 19  1  0
 19 20  1  0
  2 21  1  0
 21 22  2  0
 22 23  1  0
 23 24  2  0
 24 25  1  0
 25 26  2  0
 20  4  1  0
 26 21  1  0
 18 10  1  0
 18 13  1  0
  3 27  1  0
  4 28  1  0
  5 29  1  0
  5 30  1  0
  6 31  1  0
  6 32  1  0
  8 33  1  0
  8 34  1  0
  9 35  1  0
  9 36  1  0
 11 37  1  0
 12 38  1  0
 14 39  1  0
 15 40  1  0
 16 41  1  0
 17 42  1  0
 19 43  1  0
 19 44  1  0
 20 45  1  0
 20 46  1  0
 22 47  1  0
 23 48  1  0
 24 49  1  0
 25 50  1  0
 26 51  1  0
M  END
$$$$
OCNT-1893994
     RDKit          3D

 46 47  0  0  0  0  0  0  0  0999 V2000
   -2.3576   -2.6666   -2.2324 C   0  0  0  0  0  0  0  0  0  0  0  0
   -2.7727   -1.2498   -1.8607 C   0  0  0  0  0  0  0  0  0  0  0  0
   -1.6862   -0.5544   -1.0262 C   0  0  0  0  0  0  0  0  0  0  0  0
   -1.9710    0.8567   -0.7383 N   0  0  0  0  0  0  0  0  0  0  0  0
   -3.2684    1.0496   -0.0682 C   0  0  0  0  0  0  0  0  0  0  0  0
   -3.4180    2.4329    0.5648 C   0  0  0  0  0  0  0  0  0  0  0  0
   -2.3655    2.6742    1.6446 C   0  0  0  0  0  0  0  0  0  0  0  0
   -1.0860    1.8779    1.3919 C   0  0  0  0  0  0  0  0  0  0  0  0
   -0.8685    1.6408   -0.1098 C   0  0  1  0  0  0  0  0  0  0  0  0
    0.5590    1.1401   -0.4443 C   0  0  0  0  0  0  0  0  0  0  0  0
    1.1428    1.5290   -1.4539 O   0  0  0  0  0  0  0  0  0  0  0  0
    1.0457    0.1909    0.4451 N   0  0  0  0  0  0  0  0  0  0  0  0
    2.3283   -0.4110    0.4060 C   0  0  0  0  0  0  0  0  0  0  0  0
    3.5132    0.3087    0.1377 C   0  0  0  0  0  0  0  0  0  0  0  0
    3.5808    1.8012   -0.0491 C   0  0  0  0  0  0  0  0  0  0  0  0
    4.7381   -0.3833    0.0768 C   0  0  0  0  0  0  0  0  0  0  0  0
    4.8096   -1.7465    0.3386 C   0  0  0  0  0  0  0  0  0  0  0  0
    3.6557   -2.4432    0.6726 C   0  0  0  0  0  0  0  0  0  0  0  0
    2.4115   -1.7921    0.7180 C   0  0  0  0  0  0  0  0  0  0  0  0
    1.1992   -2.6209    1.0556 C   0  0  0  0  0  0  0  0  0  0  0  0
   -1.4409   -2.6636   -2.8307 H   0  0  0  0  0  0  0  0  0  0  0  0
   -3.1444   -3.1499   -2.8201 H   0  0  0  0  0  0  0  0  0  0  0  0
   -2.1818   -3.2709   -1.3367 H   0  0  0  0  0  0  0  0  0  0  0  0
   -2.9623   -0.6798   -2.7780 H   0  0  0  0  0  0  0  0  0  0  0  0
   -3.7151   -1.3040   -1.3047 H   0  0  0  0  0  0  0  0  0  0  0  0
   -1.5439   -1.1088   -0.0907 H   0  0  0  0  0  0  0  0  0  0  0  0
   -0.7586   -0.6327   -1.6040 H   0  0  0  0  0  0  0  0  0  0  0  0
   -4.0753    0.9239   -0.7989 H   0  0  0  0  0  0  0  0  0  0  0  0
   -3.4123    0.2941    0.7157 H   0  0  0  0  0  0  0  0  0  0  0  0
   -4.4196    2.5463    0.9953 H   0  0  0  0  0  0  0  0  0  0  0  0
   -3.3282    3.2013   -0.2140 H   0  0  0  0  0  0  0  0  0  0  0  0
   -2.1397    3.7463    1.6886 H   0  0  0  0  0  0  0  0  0  0  0  0
   -2.7656    2.4025    2.6287 H   0  0  0  0  0  0  0  0  0  0  0  0
   -0.2321    2.4047    1.8350 H   0  0  0  0  0  0  0  0  0  0  0  0
   -1.1591    0.9177    1.9190 H   0  0  0  0  0  0  0  0  0  0  0  0
   -0.9031    2.6350   -0.5810 H   0  0  0  0  0  0  0  0  0  0  0  0
    0.3237   -0.3367    0.9127 H   0  0  0  0  0  0  0  0  0  0  0  0
    4.5213    2.1946    0.3549 H   0  0  0  0  0  0  0  0  0  0  0  0
    3.5396    2.0585   -1.1111 H   0  0  0  0  0  0  0  0  0  0  0  0
    2.7868    2.3176    0.4979 H   0  0  0  0  0  0  0  0  0  0  0  0
    5.6552    0.1541   -0.1580 H   0  0  0  0  0  0  0  0  0  0  0  0
    5.7661   -2.2602    0.2948 H   0  0  0  0  0  0  0  0  0  0  0  0
    3.7310   -3.5072    0.8869 H   0  0  0  0  0  0  0  0  0  0  0  0
    0.4939   -2.6192    0.2187 H   0  0  0  0  0  0  0  0  0  0  0  0
    0.7096   -2.2333    1.9546 H   0  0  0  0  0  0  0  0  0  0  0  0
    1.4646   -3.6646    1.2563 H   0  0  0  0  0  0  0  0  0  0  0  0
  1  2  1  0
  2  3  1  0
  3  4  1  0
  4  5  1  0
  5  6  1  0
  6  7  1  0
  7  8  1  0
  8  9  1  0
  9 10  1  0
 10 11  2  0
 10 12  1  0
 12 13  1  0
 13 14  2  0
 14 15  1  0
 14 16  1  0
 16 17  2  0
 17 18  1  0
 18 19  2  0
 19 20  1  0
  9  4  1  0
 19 13  1  0
  1 21  1  0
  1 22  1  0
  1 23  1  0
  2 24  1  0
  2 25  1  0
  3 26  1  0
  3 27  1  0
  5 28  1  0
  5 29  1  0
  6 30  1  0
  6 31  1  0
  7 32  1  0
  7 33  1  0
  8 34  1  0
  8 35  1  0
  9 36  1  6
 12 37  1  0
 15 38  1  0
 15 39  1  0
 15 40  1  0
 16 41  1  0
 17 42  1  0
 18 43  1  0
 20 44  1  0
 20 45  1  0
 20 46  1  0
M  END
$$$$
OCNT-1893998
     RDKit          3D

 48 48  0  0  0  0  0  0  0  0999 V2000
    6.8322   -2.3002   -0.6723 C   0  0  0  0  0  0  0  0  0  0  0  0
    6.8264   -0.8618   -1.1663 C   0  0  0  0  0  0  0  0  0  0  0  0
    5.4210   -0.2713   -1.3087 C   0  0  0  0  0  0  0  0  0  0  0  0
    4.6845   -0.1404    0.0272 C   0  0  0  0  0  0  0  0  0  0  0  0
    3.3759    0.6520   -0.0745 C   0  0  0  0  0  0  0  0  0  0  0  0
    2.3045   -0.0525   -0.9109 C   0  0  0  0  0  0  0  0  0  0  0  0
    0.9969    0.7390   -1.0122 C   0  0  0  0  0  0  0  0  0  0  0  0
    0.2556    0.8644    0.3179 C   0  0  0  0  0  0  0  0  0  0  0  0
   -1.0997    1.5296    0.1586 C   0  0  0  0  0  0  0  0  0  0  0  0
   -1.5291    1.9553   -0.9075 O   0  0  0  0  0  0  0  0  0  0  0  0
   -1.7925    1.6134    1.3474 N   0  0  0  0  0  0  0  0  0  0  0  0
   -3.1508    2.1046    1.4018 C   0  0  0  0  0  0  0  0  0  0  0  0
   -4.1320    0.9597    1.4116 C   0  0  0  0  0  0  0  0  0  0  0  0
   -4.7036    0.5146    2.6104 C   0  0  0  0  0  0  0  0  0  0  0  0
   -5.5930   -0.5602    2.6100 C   0  0  0  0  0  0  0  0  0  0  0  0
   -5.9064   -1.1980    1.4094 C   0  0  0  0  0  0  0  0  0  0  0  0
   -6.7782   -2.2550    1.4109 O   0  0  0  0  0  0  0  0  0  0  0  0
   -5.3418   -0.7786    0.1975 C   0  0  0  0  0  0  0  0  0  0  0  0
   -5.7124   -1.4781   -0.9207 O   0  0  0  0  0  0  0  0  0  0  0  0
   -5.1373   -1.0817   -2.1580 C   0  0  0  0  0  0  0  0  0  0  0  0
   -4.4554    0.3024    0.2101 C   0  0  0  0  0  0  0  0  0  0  0  0
    7.8530   -2.6958   -0.6802 H   0  0  0  0  0  0  0  0  0  0  0  0
    6.4569   -2.3738    0.3526 H   0  0  0  0  0  0  0  0  0  0  0  0
    6.2166   -2.9387   -1.3138 H   0  0  0  0  0  0  0  0  0  0  0  0
    7.3183   -0.8275   -2.1457 H   0  0  0  0  0  0  0  0  0  0  0  0
    7.4255   -0.2414   -0.4896 H   0  0  0  0  0  0  0  0  0  0  0  0
    5.5112    0.7203   -1.7688 H   0  0  0  0  0  0  0  0  0  0  0  0
    4.8417   -0.8923   -2.0011 H   0  0  0  0  0  0  0  0  0  0  0  0
    5.3367    0.3707    0.7462 H   0  0  0  0  0  0  0  0  0  0  0  0
    4.4717   -1.1328    0.4407 H   0  0  0  0  0  0  0  0  0  0  0  0
    3.0033    0.8062    0.9444 H   0  0  0  0  0  0  0  0  0  0  0  0
    3.5789    1.6457   -0.4916 H   0  0  0  0  0  0  0  0  0  0  0  0
    2.6775   -0.2064   -1.9296 H   0  0  0  0  0  0  0  0  0  0  0  0
    2.1015   -1.0462   -0.4938 H   0  0  0  0  0  0  0  0  0  0  0  0
    1.1985    1.7367   -1.4216 H   0  0  0  0  0  0  0  0  0  0  0  0
    0.3477    0.2335   -1.7387 H   0  0  0  0  0  0  0  0  0  0  0  0
    0.0994   -0.1304    0.7515 H   0  0  0  0  0  0  0  0  0  0  0  0
    0.8380    1.4634    1.0261 H   0  0  0  0  0  0  0  0  0  0  0  0
   -1.4562    1.0857    2.1410 H   0  0  0  0  0  0  0  0  0  0  0  0
   -3.2441    2.6968    2.3188 H   0  0  0  0  0  0  0  0  0  0  0  0
   -3.3581    2.7747    0.5600 H   0  0  0  0  0  0  0  0  0  0  0  0
   -4.4620    1.0032    3.5517 H   0  0  0  0  0  0  0  0  0  0  0  0
   -6.0287   -0.8880    3.5486 H   0  0  0  0  0  0  0  0  0  0  0  0
   -7.0977   -2.4024    2.3137 H   0  0  0  0  0  0  0  0  0  0  0  0
   -5.5305   -1.7428   -2.9363 H   0  0  0  0  0  0  0  0  0  0  0  0
   -5.4243   -0.0572   -2.4169 H   0  0  0  0  0  0  0  0  0  0  0  0
   -4.0484   -1.1974   -2.1435 H   0  0  0  0  0  0  0  0  0  0  0  0
   -3.9914    0.6593   -0.7059 H   0  0  0  0  0  0  0  0  0  0  0  0
  1  2  1  0
  2  3  1  0
  3  4  1  0
  4  5  1  0
  5  6  1  0
  6  7  1  0
  7  8  1  0
  8  9  1  0
  9 10  2  0
  9 11  1  0
 11 12  1  0
 12 13  1  0
 13 14  1  0
 14 15  2  0
 15 16  1  0
 16 17  1  0
 16 18  2  0
 18 19  1  0
 19 20  1  0
 18 21  1  0
 21 13  2  0
  1 22  1  0
  1 23  1  0
  1 24  1  0
  2 25  1  0
  2 26  1  0
  3 27  1  0
  3 28  1  0
  4 29  1  0
  4 30  1  0
  5 31  1  0
  5 32  1  0
  6 33  1  0
  6 34  1  0
  7 35  1  0
  7 36  1  0
  8 37  1  0
  8 38  1  0
 11 39  1  0
 12 40  1  0
 12 41  1  0
 14 42  1  0
 15 43  1  0
 17 44  1  0
 20 45  1  0
 20 46  1  0
 20 47  1  0
 21 48  1  0
M  END
$$$$
OCNT-1911794
     RDKit          3D

 48 51  0  0  0  0  0  0  0  0999 V2000
    3.4508    0.3225    3.3707 C   0  0  0  0  0  0  0  0  0  0  0  0
    2.6623   -0.0078    2.3396 C   0  0  0  0  0  0  0  0  0  0  0  0
    3.1641   -0.2432    0.9344 C   0  0  1  0  0  0  0  0  0  0  0  0
    2.7783   -1.6502    0.4081 C   0  0  0  0  0  0  0  0  0  0  0  0
    2.3304   -1.6271   -1.0129 N   0  0  0  0  0  0  0  0  0  0  0  0
    3.3721   -0.8972   -1.7863 C   0  0  0  0  0  0  0  0  0  0  0  0
    3.4240    0.5907   -1.3873 C   0  0  0  0  0  0  0  0  0  0  0  0
    2.6301    0.7949   -0.0812 C   0  0  1  0  0  0  0  0  0  0  0  0
    1.1479    0.4829   -0.3799 C   0  0  0  0  0  0  0  0  0  0  0  0
    1.0498   -0.8477   -1.1605 C   0  0  2  0  0  0  0  0  0  0  0  0
   -0.2415   -1.6894   -0.8860 C   0  0  1  0  0  0  0  0  0  0  0  0
   -0.4124   -2.0332    0.4832 O   0  0  0  0  0  0  0  0  0  0  0  0
   -1.4962   -1.0479   -1.4784 C   0  0  0  0  0  0  0  0  0  0  0  0
   -2.3860   -0.1626   -0.7991 C   0  0  0  0  0  0  0  0  0  0  0  0
   -2.2816    0.2380    0.5587 C   0  0  0  0  0  0  0  0  0  0  0  0
   -3.1860    1.1219    1.1560 C   0  0  0  0  0  0  0  0  0  0  0  0
   -2.9329    1.4064    2.4687 O   0  0  0  0  0  0  0  0  0  0  0  0
   -3.8456    2.2761    3.1263 C   0  0  0  0  0  0  0  0  0  0  0  0
   -4.2303    1.6246    0.3974 C   0  0  0  0  0  0  0  0  0  0  0  0
   -4.3579    1.2373   -0.9388 C   0  0  0  0  0  0  0  0  0  0  0  0
   -3.4684    0.3634   -1.5465 C   0  0  0  0  0  0  0  0  0  0  0  0
   -3.6936    0.0693   -2.8354 N   0  0  0  0  0  0  0  0  0  0  0  0
   -2.8472   -0.7734   -3.4493 C   0  0  0  0  0  0  0  0  0  0  0  0
   -1.7555   -1.3428   -2.8289 C   0  0  0  0  0  0  0  0  0  0  0  0
    4.5228    0.4491    3.2567 H   0  0  0  0  0  0  0  0  0  0  0  0
    3.0312    0.4780    4.3603 H   0  0  0  0  0  0  0  0  0  0  0  0
    1.5941   -0.1200    2.5204 H   0  0  0  0  0  0  0  0  0  0  0  0
    4.2616   -0.1721    0.9423 H   0  0  0  0  0  0  0  0  0  0  0  0
    3.6546   -2.3083    0.4845 H   0  0  0  0  0  0  0  0  0  0  0  0
    2.0266   -2.1266    1.0422 H   0  0  0  0  0  0  0  0  0  0  0  0
    3.1737   -0.9889   -2.8614 H   0  0  0  0  0  0  0  0  0  0  0  0
    4.3508   -1.3684   -1.6285 H   0  0  0  0  0  0  0  0  0  0  0  0
    2.9973    1.2120   -2.1840 H   0  0  0  0  0  0  0  0  0  0  0  0
    4.4666    0.9024   -1.2546 H   0  0  0  0  0  0  0  0  0  0  0  0
    2.7455    1.8199    0.2879 H   0  0  0  0  0  0  0  0  0  0  0  0
    0.5843    0.4513    0.5542 H   0  0  0  0  0  0  0  0  0  0  0  0
    0.7181    1.2901   -0.9859 H   0  0  0  0  0  0  0  0  0  0  0  0
    0.9837   -0.5865   -2.2280 H   0  0  0  0  0  0  0  0  0  0  0  0
   -0.1198   -2.6521   -1.4038 H   0  0  0  0  0  0  0  0  0  0  0  0
    0.1625   -2.8019    0.6371 H   0  0  0  0  0  0  0  0  0  0  0  0
   -1.4858   -0.1470    1.1887 H   0  0  0  0  0  0  0  0  0  0  0  0
   -4.8541    1.8499    3.1451 H   0  0  0  0  0  0  0  0  0  0  0  0
   -3.8442    3.2698    2.6664 H   0  0  0  0  0  0  0  0  0  0  0  0
   -3.5125    2.3887    4.1626 H   0  0  0  0  0  0  0  0  0  0  0  0
   -4.9632    2.3128    0.8030 H   0  0  0  0  0  0  0  0  0  0  0  0
   -5.1828    1.6335   -1.5276 H   0  0  0  0  0  0  0  0  0  0  0  0
   -3.0746   -0.9833   -4.4904 H   0  0  0  0  0  0  0  0  0  0  0  0
   -1.1114   -2.0082   -3.3964 H   0  0  0  0  0  0  0  0  0  0  0  0
  1  2  2  0
  2  3  1  0
  3  4  1  0
  4  5  1  0
  5  6  1  0
  6  7  1  0
  7  8  1  0
  8  9  1  0
  9 10  1  0
 10 11  1  0
 11 12  1  0
 11 13  1  0
 13 14  1  0
 14 15  2  0
 15 16  1  0
 16 17  1  0
 17 18  1  0
 16 19  2  0
 19 20  1  0
 20 21  2  0
 21 22  1  0
 22 23  2  0
 23 24  1  0
  8  3  1  0
 24 13  2  0
 10  5  1  0
 21 14  1  0
  1 25  1  0
  1 26  1  0
  2 27  1  0
  3 28  1  1
  4 29  1  0
  4 30  1  0
  6 31  1  0
  6 32  1  0
  7 33  1  0
  7 34  1  0
  8 35  1  1
  9 36  1  0
  9 37  1  0
 10 38  1  6
 11 39  1  6
 12 40  1  0
 15 41  1  0
 18 42  1  0
 18 43  1  0
 18 44  1  0
 19 45  1  0
 20 46  1  0
 23 47  1  0
 24 48  1  0
M  END
$$$$
OCNT-1911799
     RDKit          3D

 24 26  0  0  0  0  0  0  0  0999 V2000
   -1.0872   -0.7878   -3.0959 Cl  0  0  0  0  0  0  0  0  0  0  0  0
   -1.7359   -0.3381   -1.5455 C   0  0  0  0  0  0  0  0  0  0  0  0
   -0.9750   -0.6048   -0.3761 C   0  0  0  0  0  0  0  0  0  0  0  0
    0.3274   -1.1455   -0.4424 N   0  0  0  0  0  0  0  0  0  0  0  0
    1.4122   -0.3788   -0.1483 C   0  0  0  0  0  0  0  0  0  0  0  0
    1.4497    0.8661    0.2313 N   0  0  0  0  0  0  0  0  0  0  0  0
    2.8990    1.1579    0.3827 C   0  0  0  0  0  0  0  0  0  0  0  0
    3.6151   -0.1925    0.3261 C   0  0  0  0  0  0  0  0  0  0  0  0
    2.6023   -1.0361   -0.2775 N   0  0  0  0  0  0  0  0  0  0  0  0
   -1.6111   -0.2090    0.8420 C   0  0  0  0  0  0  0  0  0  0  0  0
   -1.1335   -0.3815    2.0891 N   0  0  0  0  0  0  0  0  0  0  0  0
   -2.2450    0.2758    3.1267 S   0  0  0  0  0  0  0  0  0  0  0  0
   -3.4263    0.7496    2.0608 N   0  0  0  0  0  0  0  0  0  0  0  0
   -2.9743    0.4432    0.8354 C   0  0  0  0  0  0  0  0  0  0  0  0
   -3.6690    0.6799   -0.3728 C   0  0  0  0  0  0  0  0  0  0  0  0
   -3.0174    0.2695   -1.5462 C   0  0  0  0  0  0  0  0  0  0  0  0
    0.4669   -1.7436   -1.2478 H   0  0  0  0  0  0  0  0  0  0  0  0
    3.2189    1.8093   -0.4382 H   0  0  0  0  0  0  0  0  0  0  0  0
    3.0922    1.6712    1.3297 H   0  0  0  0  0  0  0  0  0  0  0  0
    4.5304   -0.1557   -0.2706 H   0  0  0  0  0  0  0  0  0  0  0  0
    3.8532   -0.5499    1.3337 H   0  0  0  0  0  0  0  0  0  0  0  0
    2.5766   -1.9819    0.0858 H   0  0  0  0  0  0  0  0  0  0  0  0
   -4.6459    1.1479   -0.3843 H   0  0  0  0  0  0  0  0  0  0  0  0
   -3.5234    0.4349   -2.4978 H   0  0  0  0  0  0  0  0  0  0  0  0
  1  2  1  0
  2  3  2  0
  3  4  1  0
  4  5  1  0
  5  6  2  0
  6  7  1  0
  7  8  1  0
  8  9  1  0
  3 10  1  0
 10 11  2  0
 11 12  1  0
 12 13  1  0
 13 14  2  0
 14 15  1  0
 15 16  2  0
 16  2  1  0
  9  5  1  0
 14 10  1  0
  4 17  1  0
  7 18  1  0
  7 19  1  0
  8 20  1  0
  8 21  1  0
  9 22  1  0
 15 23  1  0
 16 24  1  0
M  END
$$$$
OCNT-1911800
     RDKit          3D

 44 47  0  0  0  0  0  0  0  0999 V2000
   -4.1314    4.2936    1.1415 F   0  0  0  0  0  0  0  0  0  0  0  0
   -3.7005    3.0925    0.7345 C   0  0  0  0  0  0  0  0  0  0  0  0
   -3.3748    2.1264    1.6774 C   0  0  0  0  0  0  0  0  0  0  0  0
   -2.9260    0.8741    1.2544 C   0  0  0  0  0  0  0  0  0  0  0  0
   -2.7968    0.5870   -0.1155 C   0  0  0  0  0  0  0  0  0  0  0  0
   -2.3073   -0.7695   -0.6015 C   0  0  2  0  0  0  0  0  0  0  0  0
   -3.3932   -1.8464   -0.3721 C   0  0  0  0  0  0  0  0  0  0  0  0
   -2.8143   -3.2191   -0.0320 C   0  0  0  0  0  0  0  0  0  0  0  0
   -1.6518   -3.4966   -0.8592 N   0  0  0  0  0  0  0  0  0  0  0  0
   -0.5385   -2.5800   -0.5930 C   0  0  0  0  0  0  0  0  0  0  0  0
   -0.9527   -1.2123   -0.0025 C   0  0  1  0  0  0  0  0  0  0  0  0
    0.1658   -0.1797   -0.2309 C   0  0  0  0  0  0  0  0  0  0  0  0
    1.3724   -0.6757    0.3550 O   0  0  0  0  0  0  0  0  0  0  0  0
    2.4933    0.1002    0.2316 C   0  0  0  0  0  0  0  0  0  0  0  0
    3.6504   -0.4644    0.7813 C   0  0  0  0  0  0  0  0  0  0  0  0
    4.8259    0.2509    0.7015 C   0  0  0  0  0  0  0  0  0  0  0  0
    4.8799    1.4864    0.1037 C   0  0  0  0  0  0  0  0  0  0  0  0
    3.7611    2.0725   -0.4454 C   0  0  0  0  0  0  0  0  0  0  0  0
    2.5523    1.3674   -0.3787 C   0  0  0  0  0  0  0  0  0  0  0  0
    6.1285    2.0228    0.1296 O   0  0  0  0  0  0  0  0  0  0  0  0
    6.8560    0.9816    0.8143 C   0  0  0  0  0  0  0  0  0  0  0  0
    6.0351   -0.1472    1.1798 O   0  0  0  0  0  0  0  0  0  0  0  0
   -3.1394    1.5787   -1.0501 C   0  0  0  0  0  0  0  0  0  0  0  0
   -3.5886    2.8300   -0.6246 C   0  0  0  0  0  0  0  0  0  0  0  0
   -3.4743    2.3523    2.7341 H   0  0  0  0  0  0  0  0  0  0  0  0
   -2.6818    0.1242    2.0036 H   0  0  0  0  0  0  0  0  0  0  0  0
   -2.1556   -0.6968   -1.6891 H   0  0  0  0  0  0  0  0  0  0  0  0
   -4.0036   -1.9192   -1.2825 H   0  0  0  0  0  0  0  0  0  0  0  0
   -4.0882   -1.5645    0.4286 H   0  0  0  0  0  0  0  0  0  0  0  0
   -3.5801   -3.9822   -0.2103 H   0  0  0  0  0  0  0  0  0  0  0  0
   -2.5541   -3.2805    1.0319 H   0  0  0  0  0  0  0  0  0  0  0  0
   -1.3394   -4.4584   -0.7261 H   0  0  0  0  0  0  0  0  0  0  0  0
    0.0020   -2.4422   -1.5368 H   0  0  0  0  0  0  0  0  0  0  0  0
    0.1608   -3.0645    0.1000 H   0  0  0  0  0  0  0  0  0  0  0  0
   -1.0596   -1.3486    1.0831 H   0  0  0  0  0  0  0  0  0  0  0  0
    0.3078   -0.0216   -1.3074 H   0  0  0  0  0  0  0  0  0  0  0  0
   -0.0985    0.7691    0.2487 H   0  0  0  0  0  0  0  0  0  0  0  0
    3.6249   -1.4381    1.2571 H   0  0  0  0  0  0  0  0  0  0  0  0
    3.8162    3.0493   -0.9128 H   0  0  0  0  0  0  0  0  0  0  0  0
    1.6715    1.8336   -0.8089 H   0  0  0  0  0  0  0  0  0  0  0  0
    7.2979    1.4031    1.7245 H   0  0  0  0  0  0  0  0  0  0  0  0
    7.6636    0.6309    0.1614 H   0  0  0  0  0  0  0  0  0  0  0  0
   -3.0613    1.3826   -2.1176 H   0  0  0  0  0  0  0  0  0  0  0  0
   -3.8538    3.5983   -1.3436 H   0  0  0  0  0  0  0  0  0  0  0  0
  1  2  1  0
  2  3  1  0
  3  4  2  0
  4  5  1  0
  5  6  1  0
  6  7  1  0
  7  8  1  0
  8  9  1  0
  9 10  1  0
 10 11  1  0
 11 12  1  0
 12 13  1  0
 13 14  1  0
 14 15  2  0
 15 16  1  0
 16 17  2  0
 17 18  1  0
 18 19  2  0
 17 20  1  0
 20 21  1  0
 21 22  1  0
  5 23  2  0
 23 24  1  0
 24  2  2  0
 11  6  1  0
 19 14  1  0
 22 16  1  0
  3 25  1  0
  4 26  1  0
  6 27  1  6
  7 28  1  0
  7 29  1  0
  8 30  1  0
  8 31  1  0
  9 32  1  0
 10 33  1  0
 10 34  1  0
 11 35  1  1
 12 36  1  0
 12 37  1  0
 15 38  1  0
 18 39  1  0
 19 40  1  0
 21 41  1  0
 21 42  1  0
 23 43  1  0
 24 44  1  0
M  END
$$$$
OCNT-1965934
     RDKit          3D

 49 50  0  0  0  0  0  0  0  0999 V2000
    2.8039    2.4572   -1.0727 C   0  0  0  0  0  0  0  0  0  0  0  0
    3.4116    1.9534    0.2306 C   0  0  0  0  0  0  0  0  0  0  0  0
    2.5374    0.9530    0.9936 C   0  0  0  0  0  0  0  0  0  0  0  0
    2.5730   -0.4834    0.4355 C   0  0  0  0  0  0  0  0  0  0  0  0
    1.7828   -0.6325   -0.8045 N   0  0  0  0  0  0  0  0  0  0  0  0
    2.5380   -1.3930   -1.8176 C   0  0  0  0  0  0  0  0  0  0  0  0
    2.6873   -2.8870   -1.4968 C   0  0  0  0  0  0  0  0  0  0  0  0
    1.3281   -3.5485   -1.2766 C   0  0  0  0  0  0  0  0  0  0  0  0
    0.5123   -2.7743   -0.2499 C   0  0  0  0  0  0  0  0  0  0  0  0
    0.4470   -1.2752   -0.6044 C   0  0  0  0  0  0  0  0  0  0  0  0
   -0.4268   -0.5445    0.4397 C   0  0  0  0  0  0  0  0  0  0  0  0
   -0.2028   -0.6221    1.6495 O   0  0  0  0  0  0  0  0  0  0  0  0
   -1.4644    0.1761   -0.1494 N   0  0  0  0  0  0  0  0  0  0  0  0
   -2.5879    0.7406    0.5036 C   0  0  0  0  0  0  0  0  0  0  0  0
   -3.1133    1.9452   -0.0332 C   0  0  0  0  0  0  0  0  0  0  0  0
   -2.5040    2.6407   -1.2258 C   0  0  0  0  0  0  0  0  0  0  0  0
   -4.2142    2.5617    0.5845 C   0  0  0  0  0  0  0  0  0  0  0  0
   -4.8086    1.9991    1.7081 C   0  0  0  0  0  0  0  0  0  0  0  0
   -4.3258    0.7961    2.2113 C   0  0  0  0  0  0  0  0  0  0  0  0
   -3.2408    0.1343    1.6060 C   0  0  0  0  0  0  0  0  0  0  0  0
   -2.8866   -1.2159    2.1779 C   0  0  0  0  0  0  0  0  0  0  0  0
    3.4475    3.2375   -1.4948 H   0  0  0  0  0  0  0  0  0  0  0  0
    2.7107    1.6652   -1.8241 H   0  0  0  0  0  0  0  0  0  0  0  0
    1.8115    2.8991   -0.8980 H   0  0  0  0  0  0  0  0  0  0  0  0
    4.3966    1.5106    0.0354 H   0  0  0  0  0  0  0  0  0  0  0  0
    3.5838    2.8268    0.8775 H   0  0  0  0  0  0  0  0  0  0  0  0
    2.9198    0.9026    2.0255 H   0  0  0  0  0  0  0  0  0  0  0  0
    1.5093    1.3309    1.0705 H   0  0  0  0  0  0  0  0  0  0  0  0
    3.6310   -0.7245    0.2635 H   0  0  0  0  0  0  0  0  0  0  0  0
    2.2552   -1.1884    1.2122 H   0  0  0  0  0  0  0  0  0  0  0  0
    2.0273   -1.2817   -2.7853 H   0  0  0  0  0  0  0  0  0  0  0  0
    3.5304   -0.9439   -1.9624 H   0  0  0  0  0  0  0  0  0  0  0  0
    3.2053   -3.3879   -2.3212 H   0  0  0  0  0  0  0  0  0  0  0  0
    3.3141   -3.0247   -0.6038 H   0  0  0  0  0  0  0  0  0  0  0  0
    0.7782   -3.5833   -2.2290 H   0  0  0  0  0  0  0  0  0  0  0  0
    1.4594   -4.5860   -0.9412 H   0  0  0  0  0  0  0  0  0  0  0  0
    0.9390   -2.9269    0.7510 H   0  0  0  0  0  0  0  0  0  0  0  0
   -0.5045   -3.1901   -0.2080 H   0  0  0  0  0  0  0  0  0  0  0  0
   -0.0796   -1.2018   -1.5706 H   0  0  0  0  0  0  0  0  0  0  0  0
   -1.2129    0.5825   -1.0429 H   0  0  0  0  0  0  0  0  0  0  0  0
   -1.5055    3.0114   -0.9729 H   0  0  0  0  0  0  0  0  0  0  0  0
   -3.1077    3.4972   -1.5459 H   0  0  0  0  0  0  0  0  0  0  0  0
   -2.4433    1.9614   -2.0814 H   0  0  0  0  0  0  0  0  0  0  0  0
   -4.6126    3.4967    0.1944 H   0  0  0  0  0  0  0  0  0  0  0  0
   -5.6556    2.4881    2.1815 H   0  0  0  0  0  0  0  0  0  0  0  0
   -4.8177    0.3553    3.0774 H   0  0  0  0  0  0  0  0  0  0  0  0
   -2.1202   -1.1103    2.9551 H   0  0  0  0  0  0  0  0  0  0  0  0
   -3.7621   -1.6965    2.6320 H   0  0  0  0  0  0  0  0  0  0  0  0
   -2.5438   -1.9001    1.3963 H   0  0  0  0  0  0  0  0  0  0  0  0
  1  2  1  0
  2  3  1  0
  3  4  1  0
  4  5  1  0
  5  6  1  0
  6  7  1  0
  7  8  1  0
  8  9  1  0
  9 10  1  0
 10 11  1  0
 11 12  2  0
 11 13  1  0
 13 14  1  0
 14 15  2  0
 15 16  1  0
 15 17  1  0
 17 18  2  0
 18 19  1  0
 19 20  2  0
 20 21  1  0
 10  5  1  0
 20 14  1  0
  1 22  1  0
  1 23  1  0
  1 24  1  0
  2 25  1  0
  2 26  1  0
  3 27  1  0
  3 28  1  0
  4 29  1  0
  4 30  1  0
  6 31  1  0
  6 32  1  0
  7 33  1  0
  7 34  1  0
  8 35  1  0
  8 36  1  0
  9 37  1  0
  9 38  1  0
 10 39  1  0
 13 40  1  0
 16 41  1  0
 16 42  1  0
 16 43  1  0
 17 44  1  0
 18 45  1  0
 19 46  1  0
 21 47  1  0
 21 48  1  0
 21 49  1  0
M  END
$$$$
OCNT-2077048
     RDKit          3D

 43 43  0  0  0  0  0  0  0  0999 V2000
   -4.7450   -0.2764    1.1927 C   0  0  0  0  0  0  0  0  0  0  0  0
   -3.8221   -1.2974    1.5455 O   0  0  0  0  0  0  0  0  0  0  0  0
   -3.5161   -2.1837    0.4725 C   0  0  0  0  0  0  0  0  0  0  0  0
   -2.6064   -1.5575   -0.5850 C   0  0  0  0  0  0  0  0  0  0  0  0
   -1.3172   -0.9890    0.0129 C   0  0  0  0  0  0  0  0  0  0  0  0
   -0.4030   -0.4320   -1.0784 C   0  0  0  0  0  0  0  0  0  0  0  0
    0.8390    0.2229   -0.4782 C   0  0  0  0  0  0  0  0  0  0  0  0
    0.8456    1.4419   -0.0174 N   0  0  0  0  0  0  0  0  0  0  0  0
   -0.4096    2.0542   -0.1332 O   0  0  0  0  0  0  0  0  0  0  0  0
   -0.3462    3.3434    0.4806 C   0  0  0  0  0  0  0  0  0  0  0  0
   -1.7203    4.0031    0.3531 C   0  0  0  0  0  0  0  0  0  0  0  0
   -1.7524    5.3616    0.8959 N   0  0  0  0  0  0  0  0  0  0  0  0
    2.1151   -0.5654   -0.4171 C   0  0  0  0  0  0  0  0  0  0  0  0
    3.3266    0.1220   -0.2592 C   0  0  0  0  0  0  0  0  0  0  0  0
    4.5386   -0.5727   -0.1956 C   0  0  0  0  0  0  0  0  0  0  0  0
    4.5632   -1.9706   -0.2905 C   0  0  0  0  0  0  0  0  0  0  0  0
    5.8652   -2.7296   -0.1984 C   0  0  0  0  0  0  0  0  0  0  0  0
    5.8959   -3.8257   -1.0074 F   0  0  0  0  0  0  0  0  0  0  0  0
    6.9509   -1.9827   -0.5446 F   0  0  0  0  0  0  0  0  0  0  0  0
    6.1099   -3.1865    1.0603 F   0  0  0  0  0  0  0  0  0  0  0  0
    3.3484   -2.6578   -0.4319 C   0  0  0  0  0  0  0  0  0  0  0  0
    2.1349   -1.9625   -0.4961 C   0  0  0  0  0  0  0  0  0  0  0  0
   -5.6646   -0.7081    0.7862 H   0  0  0  0  0  0  0  0  0  0  0  0
   -4.3024    0.4186    0.4744 H   0  0  0  0  0  0  0  0  0  0  0  0
   -4.9957    0.2834    2.0982 H   0  0  0  0  0  0  0  0  0  0  0  0
   -3.0088   -3.0498    0.9122 H   0  0  0  0  0  0  0  0  0  0  0  0
   -4.4415   -2.5545    0.0160 H   0  0  0  0  0  0  0  0  0  0  0  0
   -3.1406   -0.7549   -1.1060 H   0  0  0  0  0  0  0  0  0  0  0  0
   -2.3640   -2.3188   -1.3360 H   0  0  0  0  0  0  0  0  0  0  0  0
   -1.5579   -0.2007    0.7356 H   0  0  0  0  0  0  0  0  0  0  0  0
   -0.7936   -1.7715    0.5745 H   0  0  0  0  0  0  0  0  0  0  0  0
   -0.1162   -1.2223   -1.7797 H   0  0  0  0  0  0  0  0  0  0  0  0
   -0.9371    0.3088   -1.6850 H   0  0  0  0  0  0  0  0  0  0  0  0
   -0.0709    3.2322    1.5362 H   0  0  0  0  0  0  0  0  0  0  0  0
    0.4163    3.9457   -0.0277 H   0  0  0  0  0  0  0  0  0  0  0  0
   -2.0215    4.0240   -0.7009 H   0  0  0  0  0  0  0  0  0  0  0  0
   -2.4663    3.3883    0.8702 H   0  0  0  0  0  0  0  0  0  0  0  0
   -1.1106    5.9543    0.3696 H   0  0  0  0  0  0  0  0  0  0  0  0
   -2.6822    5.7558    0.7568 H   0  0  0  0  0  0  0  0  0  0  0  0
    3.3366    1.2081   -0.1829 H   0  0  0  0  0  0  0  0  0  0  0  0
    5.4645   -0.0125   -0.0696 H   0  0  0  0  0  0  0  0  0  0  0  0
    3.3414   -3.7461   -0.4877 H   0  0  0  0  0  0  0  0  0  0  0  0
    1.2201   -2.5398   -0.5889 H   0  0  0  0  0  0  0  0  0  0  0  0
  1  2  1  0
  2  3  1  0
  3  4  1  0
  4  5  1  0
  5  6  1  0
  6  7  1  0
  7  8  2  0
  8  9  1  0
  9 10  1  0
 10 11  1  0
 11 12  1  0
  7 13  1  0
 13 14  1  0
 14 15  2  0
 15 16  1  0
 16 17  1  0
 17 18  1  0
 17 19  1  0
 17 20  1  0
 16 21  2  0
 21 22  1  0
 22 13  2  0
  1 23  1  0
  1 24  1  0
  1 25  1  0
  3 26  1  0
  3 27  1  0
  4 28  1  0
  4 29  1  0
  5 30  1  0
  5 31  1  0
  6 32  1  0
  6 33  1  0
 10 34  1  0
 10 35  1  0
 11 36  1  0
 11 37  1  0
 12 38  1  0
 12 39  1  0
 14 40  1  0
 15 41  1  0
 21 42  1  0
 22 43  1  0
M  END
$$$$
OCNT-2127780
     RDKit          3D

 40 41  0  0  0  0  0  0  0  0999 V2000
    4.5644   -1.2926    0.2152 C   0  0  0  0  0  0  0  0  0  0  0  0
    3.4735   -1.4112   -0.7483 N   0  0  0  0  0  0  0  0  0  0  0  0
    3.7070   -0.5639   -1.9135 C   0  0  0  0  0  0  0  0  0  0  0  0
    2.1539   -1.1874   -0.1359 C   0  0  0  0  0  0  0  0  0  0  0  0
    1.8569    0.2201    0.4193 C   0  0  0  0  0  0  0  0  0  0  0  0
    0.5780    0.2796    1.0546 O   0  0  0  0  0  0  0  0  0  0  0  0
   -0.5285    0.3369    0.1389 C   0  0  0  0  0  0  0  0  0  0  0  0
   -1.4255   -0.8656    0.3865 C   0  0  0  0  0  0  0  0  0  0  0  0
   -1.9197   -1.6156   -0.6934 C   0  0  0  0  0  0  0  0  0  0  0  0
   -2.7511   -2.7161   -0.4747 C   0  0  0  0  0  0  0  0  0  0  0  0
   -3.1020   -3.0793    0.8238 C   0  0  0  0  0  0  0  0  0  0  0  0
   -2.6232   -2.3434    1.9053 C   0  0  0  0  0  0  0  0  0  0  0  0
   -1.7918   -1.2435    1.6885 C   0  0  0  0  0  0  0  0  0  0  0  0
   -1.2672    1.6610    0.2874 C   0  0  0  0  0  0  0  0  0  0  0  0
   -2.0458    2.1489   -0.7763 C   0  0  0  0  0  0  0  0  0  0  0  0
   -2.7404    3.3547   -0.6593 C   0  0  0  0  0  0  0  0  0  0  0  0
   -2.6708    4.0881    0.5228 C   0  0  0  0  0  0  0  0  0  0  0  0
   -1.9101    3.6156    1.5897 C   0  0  0  0  0  0  0  0  0  0  0  0
   -1.2156    2.4098    1.4742 C   0  0  0  0  0  0  0  0  0  0  0  0
    4.6943   -0.2686    0.5812 H   0  0  0  0  0  0  0  0  0  0  0  0
    4.3961   -1.9500    1.0753 H   0  0  0  0  0  0  0  0  0  0  0  0
    5.5092   -1.6103   -0.2401 H   0  0  0  0  0  0  0  0  0  0  0  0
    3.7996    0.4958   -1.6525 H   0  0  0  0  0  0  0  0  0  0  0  0
    4.6273   -0.8669   -2.4255 H   0  0  0  0  0  0  0  0  0  0  0  0
    2.8947   -0.6722   -2.6407 H   0  0  0  0  0  0  0  0  0  0  0  0
    2.0045   -1.9184    0.6702 H   0  0  0  0  0  0  0  0  0  0  0  0
    1.3884   -1.4542   -0.8750 H   0  0  0  0  0  0  0  0  0  0  0  0
    1.9216    0.9940   -0.3538 H   0  0  0  0  0  0  0  0  0  0  0  0
    2.5896    0.4731    1.1920 H   0  0  0  0  0  0  0  0  0  0  0  0
   -0.1487    0.2908   -0.8911 H   0  0  0  0  0  0  0  0  0  0  0  0
   -1.6594   -1.3488   -1.7149 H   0  0  0  0  0  0  0  0  0  0  0  0
   -3.1258   -3.2902   -1.3181 H   0  0  0  0  0  0  0  0  0  0  0  0
   -3.7493   -3.9356    0.9935 H   0  0  0  0  0  0  0  0  0  0  0  0
   -2.8962   -2.6240    2.9190 H   0  0  0  0  0  0  0  0  0  0  0  0
   -1.4234   -0.6774    2.5417 H   0  0  0  0  0  0  0  0  0  0  0  0
   -2.1211    1.5866   -1.7043 H   0  0  0  0  0  0  0  0  0  0  0  0
   -3.3400    3.7189   -1.4894 H   0  0  0  0  0  0  0  0  0  0  0  0
   -3.2134    5.0250    0.6150 H   0  0  0  0  0  0  0  0  0  0  0  0
   -1.8589    4.1830    2.5152 H   0  0  0  0  0  0  0  0  0  0  0  0
   -0.6313    2.0534    2.3203 H   0  0  0  0  0  0  0  0  0  0  0  0
  1  2  1  0
  2  3  1  0
  2  4  1  0
  4  5  1  0
  5  6  1  0
  6  7  1  0
  7  8  1  0
  8  9  2  0
  9 10  1  0
 10 11  2  0
 11 12  1  0
 12 13  2  0
  7 14  1  0
 14 15  2  0
 15 16  1  0
 16 17  2  0
 17 18  1  0
 18 19  2  0
 13  8  1  0
 19 14  1  0
  1 20  1  0
  1 21  1  0
  1 22  1  0
  3 23  1  0
  3 24  1  0
  3 25  1  0
  4 26  1  0
  4 27  1  0
  5 28  1  0
  5 29  1  0
  7 30  1  0
  9 31  1  0
 10 32  1  0
 11 33  1  0
 12 34  1  0
 13 35  1  0
 15 36  1  0
 16 37  1  0
 17 38  1  0
 18 39  1  0
 19 40  1  0
M  END
$$$$
OCNT-2308466
     RDKit          3D

 50 53  0  0  0  0  0  0  0  0999 V2000
   -0.9844    0.7606    2.6011 O   0  0  0  0  0  0  0  0  0  0  0  0
   -1.7216    0.7817    1.6229 C   0  0  0  0  0  0  0  0  0  0  0  0
   -1.3426    1.1953    0.3642 N   0  0  0  0  0  0  0  0  0  0  0  0
   -0.0052    1.6256    0.0251 C   0  0  0  0  0  0  0  0  0  0  0  0
    0.7496    0.5617   -0.7866 C   0  0  0  0  0  0  0  0  0  0  0  0
    1.0003   -0.7095    0.0450 C   0  0  0  0  0  0  0  0  0  0  0  0
    2.2234   -1.4650   -0.4677 C   0  0  0  0  0  0  0  0  0  0  0  0
    3.4589   -0.6844   -0.3057 N   0  0  0  0  0  0  0  0  0  0  0  0
    4.5276   -1.2314   -1.1578 C   0  0  0  0  0  0  0  0  0  0  0  0
    5.8985   -0.7908   -0.7153 C   0  0  0  0  0  0  0  0  0  0  0  0
    6.4191   -0.7506    0.5650 C   0  0  0  0  0  0  0  0  0  0  0  0
    7.7648   -0.2861    0.5926 C   0  0  0  0  0  0  0  0  0  0  0  0
    8.2331    0.0064   -0.6683 C   0  0  0  0  0  0  0  0  0  0  0  0
    7.0550   -0.2797   -1.8741 S   0  0  0  0  0  0  0  0  0  0  0  0
    3.2665    0.7635   -0.4797 C   0  0  0  0  0  0  0  0  0  0  0  0
    2.0662    1.1220   -1.3553 C   0  0  0  0  0  0  0  0  0  0  0  0
   -3.1505    0.3397    1.7113 C   0  0  0  0  0  0  0  0  0  0  0  0
   -3.6776   -0.0867    2.9197 C   0  0  0  0  0  0  0  0  0  0  0  0
   -5.0082   -0.4874    2.9438 C   0  0  0  0  0  0  0  0  0  0  0  0
   -5.7630   -0.4503    1.7690 C   0  0  0  0  0  0  0  0  0  0  0  0
   -5.1593   -0.0092    0.5904 C   0  0  0  0  0  0  0  0  0  0  0  0
   -5.9066    0.0389   -0.6334 N   0  0  0  0  0  0  0  0  0  0  0  0
   -7.2286   -0.3045   -0.8493 C   0  0  0  0  0  0  0  0  0  0  0  0
   -7.4930   -0.0898   -2.1815 C   0  0  0  0  0  0  0  0  0  0  0  0
   -6.2843    0.3831   -2.7086 C   0  0  0  0  0  0  0  0  0  0  0  0
   -5.3229    0.4647   -1.7901 N   0  0  0  0  0  0  0  0  0  0  0  0
   -3.8591    0.3863    0.5517 N   0  0  0  0  0  0  0  0  0  0  0  0
   -2.0635    1.1458   -0.3556 H   0  0  0  0  0  0  0  0  0  0  0  0
   -0.1241    2.5379   -0.5697 H   0  0  0  0  0  0  0  0  0  0  0  0
    0.5460    1.8894    0.9345 H   0  0  0  0  0  0  0  0  0  0  0  0
    0.1192    0.2890   -1.6447 H   0  0  0  0  0  0  0  0  0  0  0  0
    1.1509   -0.4617    1.1037 H   0  0  0  0  0  0  0  0  0  0  0  0
    0.1176   -1.3586   -0.0004 H   0  0  0  0  0  0  0  0  0  0  0  0
    2.3235   -2.4051    0.0874 H   0  0  0  0  0  0  0  0  0  0  0  0
    2.0566   -1.7279   -1.5212 H   0  0  0  0  0  0  0  0  0  0  0  0
    4.3426   -0.9785   -2.2099 H   0  0  0  0  0  0  0  0  0  0  0  0
    4.5235   -2.3283   -1.0919 H   0  0  0  0  0  0  0  0  0  0  0  0
    5.8470   -1.0353    1.4406 H   0  0  0  0  0  0  0  0  0  0  0  0
    8.3573   -0.1722    1.4917 H   0  0  0  0  0  0  0  0  0  0  0  0
    9.2122    0.3743   -0.9421 H   0  0  0  0  0  0  0  0  0  0  0  0
    4.1611    1.2548   -0.8795 H   0  0  0  0  0  0  0  0  0  0  0  0
    3.1171    1.2009    0.5158 H   0  0  0  0  0  0  0  0  0  0  0  0
    2.2266    0.7091   -2.3603 H   0  0  0  0  0  0  0  0  0  0  0  0
    2.0082    2.2093   -1.4824 H   0  0  0  0  0  0  0  0  0  0  0  0
   -3.0672   -0.1056    3.8170 H   0  0  0  0  0  0  0  0  0  0  0  0
   -5.4569   -0.8279    3.8739 H   0  0  0  0  0  0  0  0  0  0  0  0
   -6.7982   -0.7681    1.8133 H   0  0  0  0  0  0  0  0  0  0  0  0
   -7.8676   -0.6665   -0.0595 H   0  0  0  0  0  0  0  0  0  0  0  0
   -8.4284   -0.2524   -2.6978 H   0  0  0  0  0  0  0  0  0  0  0  0
   -6.0599    0.6735   -3.7273 H   0  0  0  0  0  0  0  0  0  0  0  0
  1  2  2  0
  2  3  1  0
  3  4  1  0
  4  5  1  0
  5  6  1  0
  6  7  1  0
  7  8  1  0
  8  9  1  0
  9 10  1  0
 10 11  2  0
 11 12  1  0
 12 13  2  0
 13 14  1  0
  8 15  1  0
 15 16  1  0
  2 17  1  0
 17 18  1  0
 18 19  2  0
 19 20  1  0
 20 21  2  0
 21 22  1  0
 22 23  1  0
 23 24  2  0
 24 25  1  0
 25 26  2  0
 21 27  1  0
 16  5  1  0
 27 17  2  0
 14 10  1  0
 26 22  1  0
  3 28  1  0
  4 29  1  0
  4 30  1  0
  5 31  1  0
  6 32  1  0
  6 33  1  0
  7 34  1  0
  7 35  1  0
  9 36  1  0
  9 37  1  0
 11 38  1  0
 12 39  1  0
 13 40  1  0
 15 41  1  0
 15 42  1  0
 16 43  1  0
 16 44  1  0
 18 45  1  0
 19 46  1  0
 20 47  1  0
 23 48  1  0
 24 49  1  0
 25 50  1  0
M  END
$$$$
OCNT-2308478
     RDKit          3D

 55 58  0  0  0  0  0  0  0  0999 V2000
    6.1334    2.1305    0.8254 C   0  0  0  0  0  0  0  0  0  0  0  0
    4.9232    1.9447   -0.0932 C   0  0  0  0  0  0  0  0  0  0  0  0
    5.2440    2.4029   -1.5181 C   0  0  0  0  0  0  0  0  0  0  0  0
    4.4183    0.5126   -0.0680 C   0  0  0  0  0  0  0  0  0  0  0  0
    5.2149   -0.5572   -0.4982 C   0  0  0  0  0  0  0  0  0  0  0  0
    4.7283   -1.8654   -0.4640 C   0  0  0  0  0  0  0  0  0  0  0  0
    3.4381   -2.1246   -0.0068 C   0  0  0  0  0  0  0  0  0  0  0  0
    3.0567   -3.4386   -0.0054 O   0  0  0  0  0  0  0  0  0  0  0  0
    1.6551   -3.6627    0.1642 C   0  0  0  0  0  0  0  0  0  0  0  0
    1.0718   -2.8275    1.2901 C   0  0  0  0  0  0  0  0  0  0  0  0
    1.2375   -1.3446    0.9583 C   0  0  2  0  0  0  0  0  0  0  0  0
    0.2652   -0.8956   -0.0253 N   0  0  0  0  0  0  0  0  0  0  0  0
   -1.0444   -0.6363    0.3066 C   0  0  0  0  0  0  0  0  0  0  0  0
   -1.4634   -0.7523    1.4534 O   0  0  0  0  0  0  0  0  0  0  0  0
   -1.8967   -0.2245   -0.8029 C   0  0  0  0  0  0  0  0  0  0  0  0
   -1.5217    0.1010   -2.0948 C   0  0  0  0  0  0  0  0  0  0  0  0
   -2.6603    0.4471   -2.7570 N   0  0  0  0  0  0  0  0  0  0  0  0
   -3.7600    0.3772   -2.0007 N   0  0  0  0  0  0  0  0  0  0  0  0
   -3.3173   -0.0416   -0.8037 C   0  0  0  0  0  0  0  0  0  0  0  0
   -4.2808   -0.2468    0.3486 C   0  0  0  0  0  0  0  0  0  0  0  0
   -4.4100    1.0153    1.2181 C   0  0  0  0  0  0  0  0  0  0  0  0
   -5.3247    2.0614    0.5809 C   0  0  0  0  0  0  0  0  0  0  0  0
   -6.6657    1.4570    0.1676 C   0  0  0  0  0  0  0  0  0  0  0  0
   -6.5051    0.3071   -0.7242 N   0  0  0  0  0  0  0  0  0  0  0  0
   -5.6816   -0.7344   -0.0856 C   0  0  0  0  0  0  0  0  0  0  0  0
    2.6293   -1.0789    0.4448 C   0  0  0  0  0  0  0  0  0  0  0  0
    3.1250    0.2366    0.4027 C   0  0  0  0  0  0  0  0  0  0  0  0
    6.9986    1.5508    0.4859 H   0  0  0  0  0  0  0  0  0  0  0  0
    5.9004    1.8144    1.8484 H   0  0  0  0  0  0  0  0  0  0  0  0
    6.4321    3.1838    0.8599 H   0  0  0  0  0  0  0  0  0  0  0  0
    4.1285    2.6018    0.2843 H   0  0  0  0  0  0  0  0  0  0  0  0
    6.0730    1.8352   -1.9545 H   0  0  0  0  0  0  0  0  0  0  0  0
    4.3744    2.2811   -2.1735 H   0  0  0  0  0  0  0  0  0  0  0  0
    5.5252    3.4616   -1.5276 H   0  0  0  0  0  0  0  0  0  0  0  0
    6.2251   -0.3844   -0.8622 H   0  0  0  0  0  0  0  0  0  0  0  0
    5.3584   -2.6858   -0.7978 H   0  0  0  0  0  0  0  0  0  0  0  0
    1.5266   -4.7255    0.3955 H   0  0  0  0  0  0  0  0  0  0  0  0
    1.1457   -3.4785   -0.7896 H   0  0  0  0  0  0  0  0  0  0  0  0
    1.6217   -3.0488    2.2143 H   0  0  0  0  0  0  0  0  0  0  0  0
    0.0219   -3.0903    1.4576 H   0  0  0  0  0  0  0  0  0  0  0  0
    1.0741   -0.7716    1.8803 H   0  0  0  0  0  0  0  0  0  0  0  0
    0.5532   -0.8623   -0.9917 H   0  0  0  0  0  0  0  0  0  0  0  0
   -0.5660    0.1364   -2.5965 H   0  0  0  0  0  0  0  0  0  0  0  0
   -2.7605    0.7466   -3.7220 H   0  0  0  0  0  0  0  0  0  0  0  0
   -3.8662   -1.0461    0.9758 H   0  0  0  0  0  0  0  0  0  0  0  0
   -3.4286    1.4587    1.4235 H   0  0  0  0  0  0  0  0  0  0  0  0
   -4.8352    0.7296    2.1892 H   0  0  0  0  0  0  0  0  0  0  0  0
   -5.4948    2.8783    1.2916 H   0  0  0  0  0  0  0  0  0  0  0  0
   -4.8319    2.5039   -0.2933 H   0  0  0  0  0  0  0  0  0  0  0  0
   -7.2369    1.1591    1.0553 H   0  0  0  0  0  0  0  0  0  0  0  0
   -7.2625    2.2191   -0.3456 H   0  0  0  0  0  0  0  0  0  0  0  0
   -5.9663    0.6151   -1.5452 H   0  0  0  0  0  0  0  0  0  0  0  0
   -5.5879   -1.5771   -0.7812 H   0  0  0  0  0  0  0  0  0  0  0  0
   -6.2217   -1.1191    0.7891 H   0  0  0  0  0  0  0  0  0  0  0  0
    2.4908    1.0516    0.7496 H   0  0  0  0  0  0  0  0  0  0  0  0
  1  2  1  0
  2  3  1  0
  2  4  1  0
  4  5  1  0
  5  6  2  0
  6  7  1  0
  7  8  1  0
  8  9  1  0
  9 10  1  0
 10 11  1  0
 11 12  1  0
 12 13  1  0
 13 14  2  0
 13 15  1  0
 15 16  2  0
 16 17  1  0
 17 18  1  0
 18 19  2  0
 19 20  1  0
 20 21  1  0
 21 22  1  0
 22 23  1  0
 23 24  1  0
 24 25  1  0
 11 26  1  0
 26 27  1  0
 27  4  2  0
 26  7  2  0
 19 15  1  0
 25 20  1  0
  1 28  1  0
  1 29  1  0
  1 30  1  0
  2 31  1  0
  3 32  1  0
  3 33  1  0
  3 34  1  0
  5 35  1  0
  6 36  1  0
  9 37  1  0
  9 38  1  0
 10 39  1  0
 10 40  1  0
 11 41  1  1
 12 42  1  0
 16 43  1  0
 17 44  1  0
 20 45  1  0
 21 46  1  0
 21 47  1  0
 22 48  1  0
 22 49  1  0
 23 50  1  0
 23 51  1  0
 24 52  1  0
 25 53  1  0
 25 54  1  0
 27 55  1  0
M  END
$$$$
OCNT-2308483
     RDKit          3D

 36 39  0  0  0  0  0  0  0  0999 V2000
    5.5301    0.7544   -0.3735 C   0  0  0  0  0  0  0  0  0  0  0  0
    4.0814    0.3687   -0.5070 C   0  0  0  0  0  0  0  0  0  0  0  0
    3.6374   -0.1781   -1.7145 C   0  0  0  0  0  0  0  0  0  0  0  0
    2.3041   -0.5397   -1.8745 C   0  0  0  0  0  0  0  0  0  0  0  0
    1.3895   -0.3578   -0.8292 C   0  0  0  0  0  0  0  0  0  0  0  0
    0.0397   -0.7061   -0.9941 C   0  0  0  0  0  0  0  0  0  0  0  0
   -0.8673   -0.5132    0.0444 C   0  0  0  0  0  0  0  0  0  0  0  0
   -2.2709   -0.8525   -0.0943 C   0  0  0  0  0  0  0  0  0  0  0  0
   -2.7049   -2.0669   -0.5891 C   0  0  0  0  0  0  0  0  0  0  0  0
   -4.0748   -2.0738   -0.5635 N   0  0  0  0  0  0  0  0  0  0  0  0
   -4.5456   -0.8815   -0.0669 C   0  0  0  0  0  0  0  0  0  0  0  0
   -5.8476   -0.4421    0.1366 C   0  0  0  0  0  0  0  0  0  0  0  0
   -6.0550    0.7956    0.6386 N   0  0  0  0  0  0  0  0  0  0  0  0
   -4.9881    1.5728    0.9249 C   0  0  0  0  0  0  0  0  0  0  0  0
   -3.6646    1.1971    0.7483 C   0  0  0  0  0  0  0  0  0  0  0  0
   -3.4368   -0.0898    0.2352 C   0  0  0  0  0  0  0  0  0  0  0  0
   -0.3687    0.0240    1.2191 C   0  0  0  0  0  0  0  0  0  0  0  0
    0.9272    0.3715    1.4121 N   0  0  0  0  0  0  0  0  0  0  0  0
    1.8089    0.1843    0.4068 C   0  0  0  0  0  0  0  0  0  0  0  0
    3.1654    0.5240    0.5630 C   0  0  0  0  0  0  0  0  0  0  0  0
    3.6246    1.1196    1.8739 C   0  0  0  0  0  0  0  0  0  0  0  0
    6.0451    0.0602    0.2980 H   0  0  0  0  0  0  0  0  0  0  0  0
    6.0427    0.7282   -1.3412 H   0  0  0  0  0  0  0  0  0  0  0  0
    5.6235    1.7752    0.0106 H   0  0  0  0  0  0  0  0  0  0  0  0
    4.3273   -0.3217   -2.5436 H   0  0  0  0  0  0  0  0  0  0  0  0
    1.9827   -0.9581   -2.8256 H   0  0  0  0  0  0  0  0  0  0  0  0
   -0.3042   -1.1148   -1.9412 H   0  0  0  0  0  0  0  0  0  0  0  0
   -2.1601   -2.9328   -0.9427 H   0  0  0  0  0  0  0  0  0  0  0  0
   -4.6585   -2.8431   -0.8632 H   0  0  0  0  0  0  0  0  0  0  0  0
   -6.7250   -1.0364   -0.0866 H   0  0  0  0  0  0  0  0  0  0  0  0
   -5.2325    2.5563    1.3179 H   0  0  0  0  0  0  0  0  0  0  0  0
   -2.8558    1.8756    0.9907 H   0  0  0  0  0  0  0  0  0  0  0  0
   -1.0086    0.1905    2.0816 H   0  0  0  0  0  0  0  0  0  0  0  0
    3.6226    2.2119    1.8055 H   0  0  0  0  0  0  0  0  0  0  0  0
    2.9850    0.8201    2.7102 H   0  0  0  0  0  0  0  0  0  0  0  0
    4.6317    0.7782    2.1331 H   0  0  0  0  0  0  0  0  0  0  0  0
  1  2  1  0
  2  3  2  0
  3  4  1  0
  4  5  2  0
  5  6  1  0
  6  7  2  0
  7  8  1  0
  8  9  2  0
  9 10  1  0
 10 11  1  0
 11 12  2  0
 12 13  1  0
 13 14  2  0
 14 15  1  0
 15 16  2  0
  7 17  1  0
 17 18  2  0
 18 19  1  0
 19 20  2  0
 20 21  1  0
 20  2  1  0
 19  5  1  0
 16  8  1  0
 16 11  1  0
  1 22  1  0
  1 23  1  0
  1 24  1  0
  3 25  1  0
  4 26  1  0
  6 27  1  0
  9 28  1  0
 10 29  1  0
 12 30  1  0
 14 31  1  0
 15 32  1  0
 17 33  1  0
 21 34  1  0
 21 35  1  0
 21 36  1  0
M  END
$$$$
OCNT-2308499
     RDKit          3D

 33 35  0  0  0  0  0  0  0  0999 V2000
    6.1322   -0.7271   -0.9656 C   0  0  0  0  0  0  0  0  0  0  0  0
    4.8045   -0.6298   -0.4096 N   0  0  0  0  0  0  0  0  0  0  0  0
    3.9965    0.4692   -0.4025 C   0  0  0  0  0  0  0  0  0  0  0  0
    2.8456    0.0802    0.2338 C   0  0  0  0  0  0  0  0  0  0  0  0
    1.8142    0.9234    0.4222 O   0  0  0  0  0  0  0  0  0  0  0  0
    0.6428    0.3152    1.0048 C   0  0  0  0  0  0  0  0  0  0  0  0
   -0.2472   -0.5375    0.0823 C   0  0  0  0  0  0  0  0  0  0  0  0
   -1.3886    0.1160    0.6696 N   0  0  0  0  0  0  0  0  0  0  0  0
   -2.7167    0.1124    0.1688 C   0  0  0  0  0  0  0  0  0  0  0  0
   -3.1000   -0.9247   -0.7097 C   0  0  0  0  0  0  0  0  0  0  0  0
   -4.3920   -0.9974   -1.2363 C   0  0  0  0  0  0  0  0  0  0  0  0
   -4.8477   -2.4013   -2.4164 Br  0  0  0  0  0  0  0  0  0  0  0  0
   -5.3420   -0.0481   -0.8971 C   0  0  0  0  0  0  0  0  0  0  0  0
   -4.9872    0.9681   -0.0190 C   0  0  0  0  0  0  0  0  0  0  0  0
   -5.9239    1.8715    0.3086 F   0  0  0  0  0  0  0  0  0  0  0  0
   -3.6981    1.0619    0.5232 C   0  0  0  0  0  0  0  0  0  0  0  0
   -3.4558    2.1338    1.4399 C   0  0  0  0  0  0  0  0  0  0  0  0
   -3.2590    3.0090    2.1778 N   0  0  0  0  0  0  0  0  0  0  0  0
   -0.5916    1.2308    1.1098 C   0  0  0  0  0  0  0  0  0  0  0  0
    3.0549   -1.2684    0.5815 C   0  0  0  0  0  0  0  0  0  0  0  0
    4.2510   -1.7098    0.1785 N   0  0  0  0  0  0  0  0  0  0  0  0
    6.4173    0.2353   -1.3974 H   0  0  0  0  0  0  0  0  0  0  0  0
    6.8231   -0.9954   -0.1625 H   0  0  0  0  0  0  0  0  0  0  0  0
    6.1253   -1.4970   -1.7411 H   0  0  0  0  0  0  0  0  0  0  0  0
    4.2971    1.4113   -0.8372 H   0  0  0  0  0  0  0  0  0  0  0  0
    0.8644   -0.1577    1.9731 H   0  0  0  0  0  0  0  0  0  0  0  0
   -0.2239   -1.6133    0.2734 H   0  0  0  0  0  0  0  0  0  0  0  0
   -0.1405   -0.3318   -0.9883 H   0  0  0  0  0  0  0  0  0  0  0  0
   -2.3809   -1.6925   -0.9873 H   0  0  0  0  0  0  0  0  0  0  0  0
   -6.3521   -0.0843   -1.2928 H   0  0  0  0  0  0  0  0  0  0  0  0
   -0.6081    2.0730    0.4103 H   0  0  0  0  0  0  0  0  0  0  0  0
   -0.8165    1.5582    2.1270 H   0  0  0  0  0  0  0  0  0  0  0  0
    2.4029   -1.9534    1.1056 H   0  0  0  0  0  0  0  0  0  0  0  0
  1  2  1  0
  2  3  1  0
  3  4  2  0
  4  5  1  0
  5  6  1  0
  6  7  1  0
  7  8  1  0
  8  9  1  0
  9 10  1  0
 10 11  2  0
 11 12  1  0
 11 13  1  0
 13 14  2  0
 14 15  1  0
 14 16  1  0
 16 17  1  0
 17 18  3  0
  8 19  1  0
  4 20  1  0
 20 21  2  0
 21  2  1  0
 19  6  1  0
 16  9  2  0
  1 22  1  0
  1 23  1  0
  1 24  1  0
  3 25  1  0
  6 26  1  0
  7 27  1  0
  7 28  1  0
 10 29  1  0
 13 30  1  0
 19 31  1  0
 19 32  1  0
 20 33  1  0
M  END
$$$$
OCNT-2308519
     RDKit          3D

 44 48  0  0  0  0  0  0  0  0999 V2000
    1.5572   -1.9387   -2.1787 O   0  0  0  0  0  0  0  0  0  0  0  0
    2.0548   -1.2213   -1.3140 C   0  0  0  0  0  0  0  0  0  0  0  0
    3.2499   -0.4746   -1.5516 C   0  0  0  0  0  0  0  0  0  0  0  0
    4.0633   -0.3853   -2.6581 C   0  0  0  0  0  0  0  0  0  0  0  0
    5.1096    0.4700   -2.4248 N   0  0  0  0  0  0  0  0  0  0  0  0
    4.9315    0.8955   -1.1916 C   0  0  0  0  0  0  0  0  0  0  0  0
    3.8126    0.3485   -0.6191 N   0  0  0  0  0  0  0  0  0  0  0  0
    3.2582    0.5241    0.6575 C   0  0  0  0  0  0  0  0  0  0  0  0
    3.8561    1.3814    1.5915 C   0  0  0  0  0  0  0  0  0  0  0  0
    3.2801    1.5300    2.8496 C   0  0  0  0  0  0  0  0  0  0  0  0
    2.1227    0.8272    3.1680 C   0  0  0  0  0  0  0  0  0  0  0  0
    1.5316   -0.0282    2.2302 C   0  0  0  0  0  0  0  0  0  0  0  0
    2.0821   -0.1969    0.9528 C   0  0  0  0  0  0  0  0  0  0  0  0
    1.4962   -1.0685   -0.0316 N   0  0  0  0  0  0  0  0  0  0  0  0
    0.2508   -1.7884    0.2276 C   0  0  0  0  0  0  0  0  0  0  0  0
   -0.9389   -0.9575   -0.1648 C   0  0  0  0  0  0  0  0  0  0  0  0
   -2.3341   -1.4509    0.1586 C   0  0  0  0  0  0  0  0  0  0  0  0
   -3.4384   -1.4363   -0.8569 C   0  0  0  0  0  0  0  0  0  0  0  0
   -3.6442   -0.1472   -1.6415 C   0  0  0  0  0  0  0  0  0  0  0  0
   -4.3283    0.9703   -0.8538 C   0  0  0  0  0  0  0  0  0  0  0  0
   -3.7569    1.2714    0.5318 C   0  0  0  0  0  0  0  0  0  0  0  0
   -2.2382    1.1712    0.5992 C   0  0  0  0  0  0  0  0  0  0  0  0
   -1.7817   -0.2309    0.8670 C   0  0  0  0  0  0  0  0  0  0  0  0
    3.9455   -0.8935   -3.6074 H   0  0  0  0  0  0  0  0  0  0  0  0
    5.5836    1.5918   -0.6834 H   0  0  0  0  0  0  0  0  0  0  0  0
    4.7601    1.9413    1.3716 H   0  0  0  0  0  0  0  0  0  0  0  0
    3.7334    2.1924    3.5836 H   0  0  0  0  0  0  0  0  0  0  0  0
    1.6737    0.9412    4.1524 H   0  0  0  0  0  0  0  0  0  0  0  0
    0.6355   -0.5500    2.5446 H   0  0  0  0  0  0  0  0  0  0  0  0
    0.2055   -2.1327    1.2654 H   0  0  0  0  0  0  0  0  0  0  0  0
    0.2357   -2.7051   -0.3747 H   0  0  0  0  0  0  0  0  0  0  0  0
   -0.7929   -0.5044   -1.1394 H   0  0  0  0  0  0  0  0  0  0  0  0
   -2.4046   -2.3610    0.7511 H   0  0  0  0  0  0  0  0  0  0  0  0
   -4.3767   -1.7084   -0.3579 H   0  0  0  0  0  0  0  0  0  0  0  0
   -3.2294   -2.2420   -1.5718 H   0  0  0  0  0  0  0  0  0  0  0  0
   -2.6978    0.2146   -2.0568 H   0  0  0  0  0  0  0  0  0  0  0  0
   -4.2782   -0.3701   -2.5095 H   0  0  0  0  0  0  0  0  0  0  0  0
   -5.3952    0.7382   -0.7445 H   0  0  0  0  0  0  0  0  0  0  0  0
   -4.2817    1.8839   -1.4605 H   0  0  0  0  0  0  0  0  0  0  0  0
   -4.0641    2.2878    0.8075 H   0  0  0  0  0  0  0  0  0  0  0  0
   -4.2135    0.6018    1.2715 H   0  0  0  0  0  0  0  0  0  0  0  0
   -1.8846    1.7960    1.4291 H   0  0  0  0  0  0  0  0  0  0  0  0
   -1.7750    1.5847   -0.3041 H   0  0  0  0  0  0  0  0  0  0  0  0
   -1.5752   -0.3710    1.9229 H   0  0  0  0  0  0  0  0  0  0  0  0
  1  2  2  0
  2  3  1  0
  3  4  2  0
  4  5  1  0
  5  6  2  0
  6  7  1  0
  7  8  1  0
  8  9  2  0
  9 10  1  0
 10 11  2  0
 11 12  1  0
 12 13  2  0
 13 14  1  0
 14 15  1  0
 15 16  1  0
 16 17  1  0
 17 18  1  0
 18 19  1  0
 19 20  1  0
 20 21  1  0
 21 22  1  0
 22 23  1  0
 14  2  1  0
 23 16  1  0
  7  3  1  0
 13  8  1  0
 23 17  1  0
  4 24  1  0
  6 25  1  0
  9 26  1  0
 10 27  1  0
 11 28  1  0
 12 29  1  0
 15 30  1  0
 15 31  1  0
 16 32  1  0
 17 33  1  0
 18 34  1  0
 18 35  1  0
 19 36  1  0
 19 37  1  0
 20 38  1  0
 20 39  1  0
 21 40  1  0
 21 41  1  0
 22 42  1  0
 22 43  1  0
 23 44  1  0
M  END
$$$$
OCNT-2308520
     RDKit          3D

 42 45  0  0  0  0  0  0  0  0999 V2000
   -0.6341    2.2959   -0.6110 O   0  0  0  0  0  0  0  0  0  0  0  0
   -1.0164    1.4711    0.2071 C   0  0  0  0  0  0  0  0  0  0  0  0
   -0.4421    1.2615    1.4308 N   0  0  0  0  0  0  0  0  0  0  0  0
    0.7571    1.9681    1.8244 C   0  0  0  0  0  0  0  0  0  0  0  0
    1.9947    1.1837    1.4960 C   0  0  0  0  0  0  0  0  0  0  0  0
    2.5095    1.1411    0.1986 C   0  0  0  0  0  0  0  0  0  0  0  0
    3.6511    0.3883   -0.0782 C   0  0  0  0  0  0  0  0  0  0  0  0
    4.2533   -0.3141    0.9610 C   0  0  0  0  0  0  0  0  0  0  0  0
    5.4171   -1.0955    0.7234 N   0  0  0  0  0  0  0  0  0  0  0  0
    6.1076   -1.2920   -0.4530 C   0  0  0  0  0  0  0  0  0  0  0  0
    7.1515   -2.1316   -0.1392 C   0  0  0  0  0  0  0  0  0  0  0  0
    7.1317   -2.4612    1.1863 N   0  0  0  0  0  0  0  0  0  0  0  0
    6.0876   -1.8289    1.6776 C   0  0  0  0  0  0  0  0  0  0  0  0
    3.7686   -0.2921    2.2304 N   0  0  0  0  0  0  0  0  0  0  0  0
    2.6618    0.4486    2.4662 C   0  0  0  0  0  0  0  0  0  0  0  0
   -2.0840    0.6393    0.0078 N   0  0  0  0  0  0  0  0  0  0  0  0
   -2.8817    0.7779   -1.1966 C   0  0  0  0  0  0  0  0  0  0  0  0
   -3.8212    2.0010   -1.1747 C   0  0  0  0  0  0  0  0  0  0  0  0
   -5.1213    1.5840   -0.6770 O   0  0  0  0  0  0  0  0  0  0  0  0
   -5.1473    0.2386   -0.9403 C   0  0  0  0  0  0  0  0  0  0  0  0
   -6.2801   -0.5446   -0.8652 C   0  0  0  0  0  0  0  0  0  0  0  0
   -6.1518   -1.9063   -1.1479 C   0  0  0  0  0  0  0  0  0  0  0  0
   -4.9013   -2.4512   -1.4858 C   0  0  0  0  0  0  0  0  0  0  0  0
   -3.7635   -1.6418   -1.5422 C   0  0  0  0  0  0  0  0  0  0  0  0
   -3.9078   -0.2919   -1.2682 C   0  0  0  0  0  0  0  0  0  0  0  0
   -0.5779    0.3393    1.8178 H   0  0  0  0  0  0  0  0  0  0  0  0
    0.6877    2.1361    2.9049 H   0  0  0  0  0  0  0  0  0  0  0  0
    0.7963    2.9538    1.3464 H   0  0  0  0  0  0  0  0  0  0  0  0
    2.0206    1.6926   -0.6035 H   0  0  0  0  0  0  0  0  0  0  0  0
    4.0284    0.3742   -1.0937 H   0  0  0  0  0  0  0  0  0  0  0  0
    5.8237   -0.8419   -1.3913 H   0  0  0  0  0  0  0  0  0  0  0  0
    7.9167   -2.5152   -0.8022 H   0  0  0  0  0  0  0  0  0  0  0  0
    5.7629   -1.8593    2.7098 H   0  0  0  0  0  0  0  0  0  0  0  0
    2.3182    0.4280    3.4976 H   0  0  0  0  0  0  0  0  0  0  0  0
   -2.5871    0.3698    0.8413 H   0  0  0  0  0  0  0  0  0  0  0  0
   -2.2241    0.8085   -2.0718 H   0  0  0  0  0  0  0  0  0  0  0  0
   -3.4507    2.8196   -0.5491 H   0  0  0  0  0  0  0  0  0  0  0  0
   -3.9759    2.3900   -2.1897 H   0  0  0  0  0  0  0  0  0  0  0  0
   -7.2388   -0.1134   -0.5997 H   0  0  0  0  0  0  0  0  0  0  0  0
   -7.0263   -2.5512   -1.1039 H   0  0  0  0  0  0  0  0  0  0  0  0
   -4.8191   -3.5148   -1.6988 H   0  0  0  0  0  0  0  0  0  0  0  0
   -2.7936   -2.0640   -1.7862 H   0  0  0  0  0  0  0  0  0  0  0  0
  1  2  2  0
  2  3  1  0
  3  4  1  0
  4  5  1  0
  5  6  2  0
  6  7  1  0
  7  8  2  0
  8  9  1  0
  9 10  1  0
 10 11  2  0
 11 12  1  0
 12 13  2  0
  8 14  1  0
 14 15  2  0
  2 16  1  0
 16 17  1  0
 17 18  1  0
 18 19  1  0
 19 20  1  0
 20 21  2  0
 21 22  1  0
 22 23  2  0
 23 24  1  0
 24 25  2  0
 15  5  1  0
 25 17  1  0
 13  9  1  0
 25 20  1  0
  3 26  1  0
  4 27  1  0
  4 28  1  0
  6 29  1  0
  7 30  1  0
 10 31  1  0
 11 32  1  0
 13 33  1  0
 15 34  1  0
 16 35  1  0
 17 36  1  0
 18 37  1  0
 18 38  1  0
 21 39  1  0
 22 40  1  0
 23 41  1  0
 24 42  1  0
M  END
$$$$
OCNT-2308523
     RDKit          3D

 48 50  0  0  0  0  0  0  0  0999 V2000
   -4.9006   -0.5875   -2.1145 C   0  0  0  0  0  0  0  0  0  0  0  0
   -5.3490   -1.1224   -0.7590 C   0  0  0  0  0  0  0  0  0  0  0  0
   -4.3483   -0.9108    0.2964 N   0  0  0  0  0  0  0  0  0  0  0  0
   -4.7266   -1.6592    1.5154 C   0  0  0  0  0  0  0  0  0  0  0  0
   -3.7266   -1.4252    2.6561 C   0  0  0  0  0  0  0  0  0  0  0  0
   -3.6084   -0.0315    2.9705 O   0  0  0  0  0  0  0  0  0  0  0  0
   -3.2011    0.7329    1.8316 C   0  0  0  0  0  0  0  0  0  0  0  0
   -1.7104    0.5920    1.4025 C   0  0  0  0  0  0  0  0  0  0  0  0
   -0.9564   -0.2292    1.9184 O   0  0  0  0  0  0  0  0  0  0  0  0
   -1.3245    1.5345    0.4537 N   0  0  0  0  0  0  0  0  0  0  0  0
   -0.0734    1.6325   -0.1917 C   0  0  0  0  0  0  0  0  0  0  0  0
    0.1474    2.7702   -0.9821 C   0  0  0  0  0  0  0  0  0  0  0  0
    1.3550    2.9497   -1.6623 C   0  0  0  0  0  0  0  0  0  0  0  0
    2.3582    1.9898   -1.5609 C   0  0  0  0  0  0  0  0  0  0  0  0
    2.1456    0.8503   -0.7767 C   0  0  0  0  0  0  0  0  0  0  0  0
    3.1909   -0.2008   -0.6716 C   0  0  0  0  0  0  0  0  0  0  0  0
    2.8570   -1.3717   -0.7910 O   0  0  0  0  0  0  0  0  0  0  0  0
    4.4623    0.2869   -0.4265 N   0  0  0  0  0  0  0  0  0  0  0  0
    5.6535   -0.4618   -0.3119 C   0  0  0  0  0  0  0  0  0  0  0  0
    5.7279   -1.8374   -0.5041 C   0  0  0  0  0  0  0  0  0  0  0  0
    6.9606   -2.4573   -0.3699 C   0  0  0  0  0  0  0  0  0  0  0  0
    8.1040   -1.8074   -0.0652 N   0  0  0  0  0  0  0  0  0  0  0  0
    8.0069   -0.4759    0.1170 C   0  0  0  0  0  0  0  0  0  0  0  0
    6.8213    0.2333    0.0051 C   0  0  0  0  0  0  0  0  0  0  0  0
    0.9294    0.6651   -0.1049 C   0  0  0  0  0  0  0  0  0  0  0  0
   -4.1805    0.5136    0.6511 C   0  0  0  0  0  0  0  0  0  0  0  0
   -4.8514    0.5052   -2.1271 H   0  0  0  0  0  0  0  0  0  0  0  0
   -5.6128   -0.8919   -2.8887 H   0  0  0  0  0  0  0  0  0  0  0  0
   -3.9174   -0.9834   -2.3901 H   0  0  0  0  0  0  0  0  0  0  0  0
   -6.3147   -0.6783   -0.4869 H   0  0  0  0  0  0  0  0  0  0  0  0
   -5.5162   -2.2001   -0.8812 H   0  0  0  0  0  0  0  0  0  0  0  0
   -4.7656   -2.7331    1.2994 H   0  0  0  0  0  0  0  0  0  0  0  0
   -5.7244   -1.3445    1.8490 H   0  0  0  0  0  0  0  0  0  0  0  0
   -2.7459   -1.8470    2.4146 H   0  0  0  0  0  0  0  0  0  0  0  0
   -4.0805   -1.9320    3.5599 H   0  0  0  0  0  0  0  0  0  0  0  0
   -3.3021    1.7794    2.1491 H   0  0  0  0  0  0  0  0  0  0  0  0
   -1.9835    2.2734    0.2487 H   0  0  0  0  0  0  0  0  0  0  0  0
   -0.6186    3.5357   -1.0805 H   0  0  0  0  0  0  0  0  0  0  0  0
    1.5053    3.8329   -2.2787 H   0  0  0  0  0  0  0  0  0  0  0  0
    3.2817    2.1188   -2.1195 H   0  0  0  0  0  0  0  0  0  0  0  0
    4.5421    1.2798   -0.2481 H   0  0  0  0  0  0  0  0  0  0  0  0
    4.8661   -2.4433   -0.7541 H   0  0  0  0  0  0  0  0  0  0  0  0
    7.0597   -3.5301   -0.5102 H   0  0  0  0  0  0  0  0  0  0  0  0
    8.9382    0.0256    0.3641 H   0  0  0  0  0  0  0  0  0  0  0  0
    6.8258    1.3045    0.1675 H   0  0  0  0  0  0  0  0  0  0  0  0
    0.7931   -0.2488    0.4672 H   0  0  0  0  0  0  0  0  0  0  0  0
   -3.8362    1.0780   -0.2204 H   0  0  0  0  0  0  0  0  0  0  0  0
   -5.1567    0.9266    0.9404 H   0  0  0  0  0  0  0  0  0  0  0  0
  1  2  1  0
  2  3  1  0
  3  4  1  0
  4  5  1  0
  5  6  1  0
  6  7  1  0
  7  8  1  0
  8  9  2  0
  8 10  1  0
 10 11  1  0
 11 12  2  0
 12 13  1  0
 13 14  2  0
 14 15  1  0
 15 16  1  0
 16 17  2  0
 16 18  1  0
 18 19  1  0
 19 20  2  0
 20 21  1  0
 21 22  2  0
 22 23  1  0
 23 24  2  0
 15 25  2  0
  7 26  1  0
 26  3  1  0
 25 11  1  0
 24 19  1  0
  1 27  1  0
  1 28  1  0
  1 29  1  0
  2 30  1  0
  2 31  1  0
  4 32  1  0
  4 33  1  0
  5 34  1  0
  5 35  1  0
  7 36  1  0
 10 37  1  0
 12 38  1  0
 13 39  1  0
 14 40  1  0
 18 41  1  0
 20 42  1  0
 21 43  1  0
 23 44  1  0
 24 45  1  0
 25 46  1  0
 26 47  1  0
 26 48  1  0
M  END
$$$$
OCNT-2308526
     RDKit          3D

 60 62  0  0  0  0  0  0  0  0999 V2000
    6.1861    0.9421   -0.4353 C   0  0  0  0  0  0  0  0  0  0  0  0
    5.1040    1.9542   -0.0412 C   0  0  0  0  0  0  0  0  0  0  0  0
    5.1120    3.1126   -1.0504 C   0  0  0  0  0  0  0  0  0  0  0  0
    3.6876    1.3293    0.1587 C   0  0  0  0  0  0  0  0  0  0  0  0
    2.8539    2.3474    0.7415 O   0  0  0  0  0  0  0  0  0  0  0  0
    3.0277    0.8571   -1.1581 C   0  0  0  0  0  0  0  0  0  0  0  0
    1.9816   -0.2537   -0.9723 C   0  0  0  0  0  0  0  0  0  0  0  0
    1.2786   -0.1769    0.3858 C   0  0  0  0  0  0  0  0  0  0  0  0
    0.2293   -1.2014    0.4273 N   0  0  0  0  0  0  0  0  0  0  0  0
   -0.6997   -1.0088    1.5473 C   0  0  0  0  0  0  0  0  0  0  0  0
   -1.7690   -2.0850    1.5712 C   0  0  0  0  0  0  0  0  0  0  0  0
   -1.4291   -3.3205    2.1664 C   0  0  0  0  0  0  0  0  0  0  0  0
   -2.3660   -4.3410    2.2924 C   0  0  0  0  0  0  0  0  0  0  0  0
   -3.6571   -4.1409    1.8282 C   0  0  0  0  0  0  0  0  0  0  0  0
   -4.0045   -2.9268    1.2278 C   0  0  0  0  0  0  0  0  0  0  0  0
   -3.0777   -1.8794    1.0681 C   0  0  0  0  0  0  0  0  0  0  0  0
   -3.4352   -0.6845    0.4339 N   0  0  0  0  0  0  0  0  0  0  0  0
   -2.7249   -0.4137   -0.8415 C   0  0  0  0  0  0  0  0  0  0  0  0
   -3.6955    0.0263   -1.9644 C   0  0  0  0  0  0  0  0  0  0  0  0
   -4.5957    1.1554   -1.6359 N   0  0  0  0  0  0  0  0  0  0  0  0
   -4.0242    2.4358   -2.0443 C   0  0  0  0  0  0  0  0  0  0  0  0
   -4.9251    1.1743   -0.1900 C   0  0  0  0  0  0  0  0  0  0  0  0
   -4.8299   -0.2134    0.4831 C   0  0  0  0  0  0  0  0  0  0  0  0
    2.2984   -0.3352    1.5290 C   0  0  0  0  0  0  0  0  0  0  0  0
    3.7038    0.1770    1.1779 C   0  0  0  0  0  0  0  0  0  0  0  0
    7.1535    1.4423   -0.5562 H   0  0  0  0  0  0  0  0  0  0  0  0
    5.9552    0.4405   -1.3793 H   0  0  0  0  0  0  0  0  0  0  0  0
    6.3213    0.1788    0.3365 H   0  0  0  0  0  0  0  0  0  0  0  0
    5.4063    2.3915    0.9209 H   0  0  0  0  0  0  0  0  0  0  0  0
    6.1130    3.5536   -1.1201 H   0  0  0  0  0  0  0  0  0  0  0  0
    4.4307    3.9141   -0.7488 H   0  0  0  0  0  0  0  0  0  0  0  0
    4.8286    2.7787   -2.0535 H   0  0  0  0  0  0  0  0  0  0  0  0
    2.6821    3.0310    0.0729 H   0  0  0  0  0  0  0  0  0  0  0  0
    2.5363    1.7071   -1.6487 H   0  0  0  0  0  0  0  0  0  0  0  0
    3.7748    0.4808   -1.8648 H   0  0  0  0  0  0  0  0  0  0  0  0
    1.2540   -0.1934   -1.7918 H   0  0  0  0  0  0  0  0  0  0  0  0
    2.4786   -1.2283   -1.0747 H   0  0  0  0  0  0  0  0  0  0  0  0
    0.8025    0.8100    0.4528 H   0  0  0  0  0  0  0  0  0  0  0  0
    0.6416   -2.1296    0.4954 H   0  0  0  0  0  0  0  0  0  0  0  0
   -1.1602   -0.0154    1.5077 H   0  0  0  0  0  0  0  0  0  0  0  0
   -0.1636   -1.0452    2.5045 H   0  0  0  0  0  0  0  0  0  0  0  0
   -0.4236   -3.4790    2.5499 H   0  0  0  0  0  0  0  0  0  0  0  0
   -2.0905   -5.2833    2.7571 H   0  0  0  0  0  0  0  0  0  0  0  0
   -4.3991   -4.9289    1.9222 H   0  0  0  0  0  0  0  0  0  0  0  0
   -5.0199   -2.8289    0.8574 H   0  0  0  0  0  0  0  0  0  0  0  0
   -2.1797   -1.2969   -1.1974 H   0  0  0  0  0  0  0  0  0  0  0  0
   -1.9973    0.3885   -0.6738 H   0  0  0  0  0  0  0  0  0  0  0  0
   -4.3374   -0.8307   -2.2087 H   0  0  0  0  0  0  0  0  0  0  0  0
   -3.1286    0.2310   -2.8814 H   0  0  0  0  0  0  0  0  0  0  0  0
   -3.8741    2.4598   -3.1293 H   0  0  0  0  0  0  0  0  0  0  0  0
   -4.7099    3.2564   -1.8048 H   0  0  0  0  0  0  0  0  0  0  0  0
   -3.0619    2.6359   -1.5595 H   0  0  0  0  0  0  0  0  0  0  0  0
   -5.9421    1.5649   -0.0727 H   0  0  0  0  0  0  0  0  0  0  0  0
   -4.2520    1.8534    0.3511 H   0  0  0  0  0  0  0  0  0  0  0  0
   -5.1533   -0.1248    1.5270 H   0  0  0  0  0  0  0  0  0  0  0  0
   -5.5097   -0.9053   -0.0288 H   0  0  0  0  0  0  0  0  0  0  0  0
    1.9256    0.2002    2.4116 H   0  0  0  0  0  0  0  0  0  0  0  0
    2.3915   -1.3860    1.8337 H   0  0  0  0  0  0  0  0  0  0  0  0
    4.1938    0.4915    2.1078 H   0  0  0  0  0  0  0  0  0  0  0  0
    4.2842   -0.6647    0.7810 H   0  0  0  0  0  0  0  0  0  0  0  0
  1  2  1  0
  2  3  1  0
  2  4  1  0
  4  5  1  0
  4  6  1  0
  6  7  1  0
  7  8  1  0
  8  9  1  0
  9 10  1  0
 10 11  1  0
 11 12  2  0
 12 13  1  0
 13 14  2  0
 14 15  1  0
 15 16  2  0
 16 17  1  0
 17 18  1  0
 18 19  1  0
 19 20  1  0
 20 21  1  0
 20 22  1  0
 22 23  1  0
  8 24  1  0
 24 25  1  0
 25  4  1  0
 16 11  1  0
 23 17  1  0
  1 26  1  0
  1 27  1  0
  1 28  1  0
  2 29  1  0
  3 30  1  0
  3 31  1  0
  3 32  1  0
  5 33  1  0
  6 34  1  0
  6 35  1  0
  7 36  1  0
  7 37  1  0
  8 38  1  0
  9 39  1  0
 10 40  1  0
 10 41  1  0
 12 42  1  0
 13 43  1  0
 14 44  1  0
 15 45  1  0
 18 46  1  0
 18 47  1  0
 19 48  1  0
 19 49  1  0
 21 50  1  0
 21 51  1  0
 21 52  1  0
 22 53  1  0
 22 54  1  0
 23 55  1  0
 23 56  1  0
 24 57  1  0
 24 58  1  0
 25 59  1  0
 25 60  1  0
M  END
$$$$
OCNT-2308537
     RDKit          3D

 51 55  0  0  0  0  0  0  0  0999 V2000
    5.2268    2.6893    0.8977 C   0  0  0  0  0  0  0  0  0  0  0  0
    6.0850    1.5703    0.9576 C   0  0  0  0  0  0  0  0  0  0  0  0
    5.6366    0.2810    0.6334 C   0  0  0  0  0  0  0  0  0  0  0  0
    4.2951    0.1959    0.2625 C   0  0  0  0  0  0  0  0  0  0  0  0
    3.6114   -0.9273   -0.0957 O   0  0  0  0  0  0  0  0  0  0  0  0
    2.3359   -0.4736   -0.3489 C   0  0  0  0  0  0  0  0  0  0  0  0
    1.3043   -1.4942   -0.7951 C   0  0  0  0  0  0  0  0  0  0  0  0
    1.7961   -2.9550   -0.7583 C   0  0  0  0  0  0  0  0  0  0  0  0
    1.7931   -3.5881    0.6392 C   0  0  0  0  0  0  0  0  0  0  0  0
    1.2713   -2.6377    1.7120 C   0  0  0  0  0  0  0  0  0  0  0  0
   -0.0260   -1.9619    1.2569 C   0  0  0  0  0  0  0  0  0  0  0  0
    0.0276   -1.3120   -0.0671 N   0  0  0  0  0  0  0  0  0  0  0  0
   -1.1364   -1.6552   -0.9019 C   0  0  0  0  0  0  0  0  0  0  0  0
   -2.4265   -1.1622   -0.3353 C   0  0  0  0  0  0  0  0  0  0  0  0
   -3.4156   -1.9135    0.1068 N   0  0  0  0  0  0  0  0  0  0  0  0
   -4.4285   -1.0877    0.5245 N   0  0  0  0  0  0  0  0  0  0  0  0
   -4.0453    0.1554    0.3346 C   0  0  0  0  0  0  0  0  0  0  0  0
   -4.8306    1.3796    0.6334 C   0  0  0  0  0  0  0  0  0  0  0  0
   -5.0936    2.2237   -0.6122 C   0  0  0  0  0  0  0  0  0  0  0  0
   -3.8777    3.0268   -1.0830 C   0  0  0  0  0  0  0  0  0  0  0  0
   -2.7146    2.1899   -1.6239 C   0  0  0  0  0  0  0  0  0  0  0  0
   -2.0224    1.3288   -0.5662 C   0  0  0  0  0  0  0  0  0  0  0  0
   -2.7857    0.1551   -0.2082 N   0  0  0  0  0  0  0  0  0  0  0  0
    2.1848    0.8348   -0.2149 N   0  0  0  0  0  0  0  0  0  0  0  0
    3.4193    1.2701    0.1900 C   0  0  0  0  0  0  0  0  0  0  0  0
    3.8905    2.5501    0.5081 C   0  0  0  0  0  0  0  0  0  0  0  0
    5.6064    3.6798    1.1568 H   0  0  0  0  0  0  0  0  0  0  0  0
    7.1135    1.7125    1.2654 H   0  0  0  0  0  0  0  0  0  0  0  0
    6.2793   -0.5893    0.6767 H   0  0  0  0  0  0  0  0  0  0  0  0
    1.1535   -1.2386   -1.8563 H   0  0  0  0  0  0  0  0  0  0  0  0
    1.1461   -3.5639   -1.4065 H   0  0  0  0  0  0  0  0  0  0  0  0
    2.7970   -3.0393   -1.2025 H   0  0  0  0  0  0  0  0  0  0  0  0
    2.7981   -3.9419    0.9031 H   0  0  0  0  0  0  0  0  0  0  0  0
    1.1541   -4.4832    0.6110 H   0  0  0  0  0  0  0  0  0  0  0  0
    1.0928   -3.1912    2.6441 H   0  0  0  0  0  0  0  0  0  0  0  0
    2.0289   -1.8838    1.9566 H   0  0  0  0  0  0  0  0  0  0  0  0
   -0.2935   -1.1998    2.0003 H   0  0  0  0  0  0  0  0  0  0  0  0
   -0.8207   -2.7214    1.2993 H   0  0  0  0  0  0  0  0  0  0  0  0
   -1.1968   -2.7383   -1.0636 H   0  0  0  0  0  0  0  0  0  0  0  0
   -1.0369   -1.2010   -1.8961 H   0  0  0  0  0  0  0  0  0  0  0  0
   -4.3244    1.9704    1.4051 H   0  0  0  0  0  0  0  0  0  0  0  0
   -5.7984    1.0761    1.0551 H   0  0  0  0  0  0  0  0  0  0  0  0
   -5.8915    2.9381   -0.3741 H   0  0  0  0  0  0  0  0  0  0  0  0
   -5.4683    1.5991   -1.4310 H   0  0  0  0  0  0  0  0  0  0  0  0
   -3.5203    3.6664   -0.2682 H   0  0  0  0  0  0  0  0  0  0  0  0
   -4.2097    3.7017   -1.8820 H   0  0  0  0  0  0  0  0  0  0  0  0
   -1.9696    2.8838   -2.0336 H   0  0  0  0  0  0  0  0  0  0  0  0
   -3.0605    1.5697   -2.4593 H   0  0  0  0  0  0  0  0  0  0  0  0
   -1.8327    1.8918    0.3558 H   0  0  0  0  0  0  0  0  0  0  0  0
   -1.0504    1.0103   -0.9585 H   0  0  0  0  0  0  0  0  0  0  0  0
    3.2289    3.4099    0.4565 H   0  0  0  0  0  0  0  0  0  0  0  0
  1  2  2  0
  2  3  1  0
  3  4  2  0
  4  5  1  0
  5  6  1  0
  6  7  1  0
  7  8  1  0
  8  9  1  0
  9 10  1  0
 10 11  1  0
 11 12  1  0
 12 13  1  0
 13 14  1  0
 14 15  2  0
 15 16  1  0
 16 17  2  0
 17 18  1  0
 18 19  1  0
 19 20  1  0
 20 21  1  0
 21 22  1  0
 22 23  1  0
  6 24  2  0
 24 25  1  0
 25 26  2  0
 26  1  1  0
 25  4  1  0
 12  7  1  0
 23 14  1  0
 23 17  1  0
  1 27  1  0
  2 28  1  0
  3 29  1  0
  7 30  1  0
  8 31  1  0
  8 32  1  0
  9 33  1  0
  9 34  1  0
 10 35  1  0
 10 36  1  0
 11 37  1  0
 11 38  1  0
 13 39  1  0
 13 40  1  0
 18 41  1  0
 18 42  1  0
 19 43  1  0
 19 44  1  0
 20 45  1  0
 20 46  1  0
 21 47  1  0
 21 48  1  0
 22 49  1  0
 22 50  1  0
 26 51  1  0
M  END
$$$$
OCNT-2308543
     RDKit          3D

 46 48  0  0  0  0  0  0  0  0999 V2000
    1.2253    1.4532   -2.5721 C   0  0  0  0  0  0  0  0  0  0  0  0
    1.8394    0.5274   -1.6052 C   0  0  0  0  0  0  0  0  0  0  0  0
    1.3627   -0.3785   -0.6801 C   0  0  0  0  0  0  0  0  0  0  0  0
   -0.0327   -0.7812   -0.3596 C   0  0  0  0  0  0  0  0  0  0  0  0
   -0.9054    0.3579    0.1584 C   0  0  0  0  0  0  0  0  0  0  0  0
   -0.5664    1.5395    0.0796 O   0  0  0  0  0  0  0  0  0  0  0  0
   -2.1444   -0.0038    0.6816 N   0  0  0  0  0  0  0  0  0  0  0  0
   -2.5992   -1.3857    0.8538 C   0  0  0  0  0  0  0  0  0  0  0  0
   -4.0438   -1.4798    1.3772 C   0  0  0  0  0  0  0  0  0  0  0  0
   -4.9608   -0.5805    0.6623 N   0  0  0  0  0  0  0  0  0  0  0  0
   -4.5071    0.8380    0.7297 C   0  0  0  0  0  0  0  0  0  0  0  0
   -4.6536    1.4513   -0.6764 C   0  0  0  0  0  0  0  0  0  0  0  0
   -5.4538    1.5742    1.6906 C   0  0  0  0  0  0  0  0  0  0  0  0
   -3.0360    1.0270    1.2195 C   0  0  0  0  0  0  0  0  0  0  0  0
    2.4298   -0.9877   -0.0493 N   0  0  0  0  0  0  0  0  0  0  0  0
    3.4950   -0.4166   -0.5811 C   0  0  0  0  0  0  0  0  0  0  0  0
    4.9081   -0.6501   -0.2943 C   0  0  0  0  0  0  0  0  0  0  0  0
    5.9272    0.0514   -0.9566 C   0  0  0  0  0  0  0  0  0  0  0  0
    7.2716   -0.1925   -0.6609 C   0  0  0  0  0  0  0  0  0  0  0  0
    7.6142   -1.1415    0.3000 C   0  0  0  0  0  0  0  0  0  0  0  0
    6.6150   -1.8469    0.9665 C   0  0  0  0  0  0  0  0  0  0  0  0
    5.2715   -1.6018    0.6710 C   0  0  0  0  0  0  0  0  0  0  0  0
    3.2040    0.5139   -1.5440 O   0  0  0  0  0  0  0  0  0  0  0  0
    1.2294    2.4742   -2.1787 H   0  0  0  0  0  0  0  0  0  0  0  0
    1.7758    1.4466   -3.5176 H   0  0  0  0  0  0  0  0  0  0  0  0
    0.1899    1.1708   -2.7865 H   0  0  0  0  0  0  0  0  0  0  0  0
   -0.5034   -1.1881   -1.2618 H   0  0  0  0  0  0  0  0  0  0  0  0
    0.0057   -1.5747    0.3941 H   0  0  0  0  0  0  0  0  0  0  0  0
   -1.9213   -1.8876    1.5522 H   0  0  0  0  0  0  0  0  0  0  0  0
   -2.5196   -1.8877   -0.1168 H   0  0  0  0  0  0  0  0  0  0  0  0
   -4.4005   -2.5114    1.2774 H   0  0  0  0  0  0  0  0  0  0  0  0
   -4.0742   -1.2462    2.4484 H   0  0  0  0  0  0  0  0  0  0  0  0
   -4.9896   -0.8717   -0.3156 H   0  0  0  0  0  0  0  0  0  0  0  0
   -4.3960    2.5169   -0.6713 H   0  0  0  0  0  0  0  0  0  0  0  0
   -3.9965    0.9546   -1.4001 H   0  0  0  0  0  0  0  0  0  0  0  0
   -5.6823    1.3660   -1.0458 H   0  0  0  0  0  0  0  0  0  0  0  0
   -5.4045    1.1523    2.7009 H   0  0  0  0  0  0  0  0  0  0  0  0
   -6.4957    1.5119    1.3549 H   0  0  0  0  0  0  0  0  0  0  0  0
   -5.1933    2.6366    1.7621 H   0  0  0  0  0  0  0  0  0  0  0  0
   -2.9779    0.9361    2.3120 H   0  0  0  0  0  0  0  0  0  0  0  0
   -2.6766    2.0314    0.9707 H   0  0  0  0  0  0  0  0  0  0  0  0
    5.6823    0.7980   -1.7093 H   0  0  0  0  0  0  0  0  0  0  0  0
    8.0497    0.3601   -1.1812 H   0  0  0  0  0  0  0  0  0  0  0  0
    8.6596   -1.3303    0.5301 H   0  0  0  0  0  0  0  0  0  0  0  0
    6.8784   -2.5869    1.7177 H   0  0  0  0  0  0  0  0  0  0  0  0
    4.5002   -2.1586    1.2008 H   0  0  0  0  0  0  0  0  0  0  0  0
  1  2  1  0
  2  3  2  0
  3  4  1  0
  4  5  1  0
  5  6  2  0
  5  7  1  0
  7  8  1  0
  8  9  1  0
  9 10  1  0
 10 11  1  0
 11 12  1  0
 11 13  1  0
 11 14  1  0
  3 15  1  0
 15 16  2  0
 16 17  1  0
 17 18  2  0
 18 19  1  0
 19 20  2  0
 20 21  1  0
 21 22  2  0
 16 23  1  0
 23  2  1  0
 14  7  1  0
 22 17  1  0
  1 24  1  0
  1 25  1  0
  1 26  1  0
  4 27  1  0
  4 28  1  0
  8 29  1  0
  8 30  1  0
  9 31  1  0
  9 32  1  0
 10 33  1  0
 12 34  1  0
 12 35  1  0
 12 36  1  0
 13 37  1  0
 13 38  1  0
 13 39  1  0
 14 40  1  0
 14 41  1  0
 18 42  1  0
 19 43  1  0
 20 44  1  0
 21 45  1  0
 22 46  1  0
M  END
$$$$
OCNT-2308546
     RDKit          3D

  0  0  0  0  0  0  0  0  0  0999 V3000
M  V30 BEGIN CTAB
M  V30 COUNTS 37 40 0 0 0
M  V30 BEGIN ATOM
M  V30 1 C -4.867533 -1.436969 1.292485 0
M  V30 2 N -4.374810 -0.670471 0.177600 0
M  V30 3 C -5.067188 -0.381216 -0.963321 0
M  V30 4 N -4.340056 0.322832 -1.803002 0
M  V30 5 C -3.132017 0.498387 -1.177703 0
M  V30 6 C -3.135573 -0.106608 0.057020 0
M  V30 7 C -1.969630 -0.165246 1.069955 0 CFG=2
M  V30 8 C -2.133201 0.489562 2.411758 0
M  V30 9 C -1.207123 1.103359 1.389892 0 CFG=1
M  V30 10 C 0.266946 1.044995 1.585766 0
M  V30 11 O 0.736425 1.338974 2.674892 0
M  V30 12 N 0.932507 0.659556 0.445036 0
M  V30 13 C 2.302837 0.513101 0.318100 0
M  V30 14 C 3.259326 0.723987 1.282944 0
M  V30 15 N 4.486621 0.465087 0.734490 0
M  V30 16 C 4.349664 0.083530 -0.580109 0
M  V30 17 C 5.322642 -0.273588 -1.521285 0
M  V30 18 C 4.887299 -0.620947 -2.803091 0
M  V30 19 C 3.533270 -0.610942 -3.128036 0
M  V30 20 C 2.572765 -0.251193 -2.174888 0
M  V30 21 C 2.984331 0.104562 -0.872210 0
M  V30 22 H -5.793057 -1.943465 1.006680 0
M  V30 23 H -5.057840 -0.753307 2.123402 0
M  V30 24 H -4.115751 -2.180011 1.570442 0
M  V30 25 H -6.086118 -0.704180 -1.134029 0
M  V30 26 H -2.333712 1.050807 -1.654747 0
M  V30 27 H -1.411570 -1.097955 1.052316 0
M  V30 28 H -3.048016 1.026498 2.634183 0
M  V30 29 H -1.686792 0.007639 3.275244 0
M  V30 30 H -1.546689 2.041126 0.961578 0
M  V30 31 H 0.387592 0.458962 -0.382055 0
M  V30 32 H 3.180135 1.038240 2.315352 0
M  V30 33 H 5.368021 0.542654 1.222493 0
M  V30 34 H 6.378666 -0.281947 -1.271671 0
M  V30 35 H 5.618461 -0.902673 -3.557595 0
M  V30 36 H 3.217310 -0.884424 -4.131914 0
M  V30 37 H 1.521859 -0.248718 -2.445969 0
M  V30 END ATOM
M  V30 BEGIN BOND
M  V30 1 1 1 2
M  V30 2 1 2 3
M  V30 3 2 3 4
M  V30 4 1 4 5
M  V30 5 2 5 6
M  V30 6 1 6 7
M  V30 7 1 7 8
M  V30 8 1 8 9
M  V30 9 1 9 10
M  V30 10 2 10 11
M  V30 11 1 10 12
M  V30 12 1 12 13
M  V30 13 2 13 14
M  V30 14 1 14 15
M  V30 15 1 15 16
M  V30 16 2 16 17
M  V30 17 1 17 18
M  V30 18 2 18 19
M  V30 19 1 19 20
M  V30 20 2 20 21
M  V30 21 1 6 2
M  V30 22 1 9 7
M  V30 23 1 21 13
M  V30 24 1 21 16
M  V30 25 1 1 22
M  V30 26 1 1 23
M  V30 27 1 1 24
M  V30 28 1 3 25
M  V30 29 1 5 26
M  V30 30 1 7 27 CFG=1
M  V30 31 1 8 28
M  V30 32 1 8 29
M  V30 33 1 9 30 CFG=3
M  V30 34 1 12 31
M  V30 35 1 14 32
M  V30 36 1 15 33
M  V30 37 1 17 34
M  V30 38 1 18 35
M  V30 39 1 19 36
M  V30 40 1 20 37
M  V30 END BOND
M  V30 BEGIN COLLECTION
M  V30 MDLV30/STERAC1 ATOMS=(2 7 9)
M  V30 END COLLECTION
M  V30 END CTAB
M  END
>  <_CXSMILES_Data>  (91) 
|&1:6,8|

$$$$
OCNT-2308571
     RDKit          3D

 37 39  0  0  0  0  0  0  0  0999 V2000
    1.9670    0.0467   -1.5245 O   0  0  0  0  0  0  0  0  0  0  0  0
    2.7524    0.1337   -0.5881 C   0  0  0  0  0  0  0  0  0  0  0  0
    2.3592    0.4234    0.7016 N   0  0  0  0  0  0  0  0  0  0  0  0
    0.9614    0.6606    1.0258 C   0  0  0  0  0  0  0  0  0  0  0  0
    0.1384   -0.6248    1.0652 C   0  0  0  0  0  0  0  0  0  0  0  0
   -1.2484   -0.3395    1.4884 C   0  0  0  0  0  0  0  0  0  0  0  0
   -1.7281   -0.1483    2.6979 N   0  0  0  0  0  0  0  0  0  0  0  0
   -3.0774    0.0950    2.5417 N   0  0  0  0  0  0  0  0  0  0  0  0
   -3.3266    0.0353    1.2476 C   0  0  0  0  0  0  0  0  0  0  0  0
   -4.5777    0.2137    0.5222 C   0  0  0  0  0  0  0  0  0  0  0  0
   -4.6430    0.1267   -0.8772 C   0  0  0  0  0  0  0  0  0  0  0  0
   -5.8567    0.3028   -1.5479 C   0  0  0  0  0  0  0  0  0  0  0  0
   -7.0199    0.5679   -0.8284 C   0  0  0  0  0  0  0  0  0  0  0  0
   -6.9724    0.6575    0.5607 C   0  0  0  0  0  0  0  0  0  0  0  0
   -5.7591    0.4817    1.2311 C   0  0  0  0  0  0  0  0  0  0  0  0
   -2.2003   -0.2374    0.5120 O   0  0  0  0  0  0  0  0  0  0  0  0
    4.2028   -0.1194   -0.8058 C   0  0  0  0  0  0  0  0  0  0  0  0
    4.5788   -0.9432   -1.8782 C   0  0  0  0  0  0  0  0  0  0  0  0
    5.9276   -1.2056   -2.1253 C   0  0  0  0  0  0  0  0  0  0  0  0
    6.8986   -0.6373   -1.3069 C   0  0  0  0  0  0  0  0  0  0  0  0
    8.1887   -0.9017   -1.5588 F   0  0  0  0  0  0  0  0  0  0  0  0
    6.5350    0.1956   -0.2496 C   0  0  0  0  0  0  0  0  0  0  0  0
    7.7367    0.9115    0.7548 Cl  0  0  0  0  0  0  0  0  0  0  0  0
    5.1875    0.4621    0.0039 C   0  0  0  0  0  0  0  0  0  0  0  0
    3.0075    0.3085    1.4693 H   0  0  0  0  0  0  0  0  0  0  0  0
    0.5485    1.3554    0.2842 H   0  0  0  0  0  0  0  0  0  0  0  0
    0.9447    1.1655    1.9984 H   0  0  0  0  0  0  0  0  0  0  0  0
    0.1394   -1.1158    0.0855 H   0  0  0  0  0  0  0  0  0  0  0  0
    0.5915   -1.3341    1.7682 H   0  0  0  0  0  0  0  0  0  0  0  0
   -3.7484   -0.0786   -1.4620 H   0  0  0  0  0  0  0  0  0  0  0  0
   -5.8923    0.2330   -2.6323 H   0  0  0  0  0  0  0  0  0  0  0  0
   -7.9637    0.7048   -1.3505 H   0  0  0  0  0  0  0  0  0  0  0  0
   -7.8786    0.8644    1.1247 H   0  0  0  0  0  0  0  0  0  0  0  0
   -5.7401    0.5552    2.3177 H   0  0  0  0  0  0  0  0  0  0  0  0
    3.8186   -1.3823   -2.5233 H   0  0  0  0  0  0  0  0  0  0  0  0
    6.2260   -1.8449   -2.9510 H   0  0  0  0  0  0  0  0  0  0  0  0
    4.9225    1.1412    0.8087 H   0  0  0  0  0  0  0  0  0  0  0  0
  1  2  2  0
  2  3  1  0
  3  4  1  0
  4  5  1  0
  5  6  1  0
  6  7  2  0
  7  8  1  0
  8  9  2  0
  9 10  1  0
 10 11  2  0
 11 12  1  0
 12 13  2  0
 13 14  1  0
 14 15  2  0
  9 16  1  0
  2 17  1  0
 17 18  1  0
 18 19  2  0
 19 20  1  0
 20 21  1  0
 20 22  2  0
 22 23  1  0
 22 24  1  0
 16  6  1  0
 24 17  2  0
 15 10  1  0
  3 25  1  0
  4 26  1  0
  4 27  1  0
  5 28  1  0
  5 29  1  0
 11 30  1  0
 12 31  1  0
 13 32  1  0
 14 33  1  0
 15 34  1  0
 18 35  1  0
 19 36  1  0
 24 37  1  0
M  END
$$$$
OCNT-2308588
     RDKit          3D

 47 49  0  0  0  0  0  0  0  0999 V2000
    5.8203   -1.2756   -0.0441 C   0  0  0  0  0  0  0  0  0  0  0  0
    4.8636   -0.2534    0.5870 C   0  0  0  0  0  0  0  0  0  0  0  0
    4.6498   -0.5980    2.0629 C   0  0  0  0  0  0  0  0  0  0  0  0
    3.6615   -0.1566   -0.2503 N   0  0  0  0  0  0  0  0  0  0  0  0
    3.1565    1.1941   -0.4877 C   0  0  0  0  0  0  0  0  0  0  0  0
    2.2573    1.7955    0.5943 C   0  0  0  0  0  0  0  0  0  0  0  0
    0.7870    1.4124    0.4335 C   0  0  0  0  0  0  0  0  0  0  0  0
    0.5254   -0.0176    0.4616 N   0  0  0  0  0  0  0  0  0  0  0  0
   -0.5961   -0.4829   -0.1985 C   0  0  0  0  0  0  0  0  0  0  0  0
   -0.7285   -1.8057   -0.4075 N   0  0  0  0  0  0  0  0  0  0  0  0
   -1.8253   -2.2415   -1.0541 C   0  0  0  0  0  0  0  0  0  0  0  0
   -2.8154   -1.4118   -1.4989 C   0  0  0  0  0  0  0  0  0  0  0  0
   -2.6107   -0.0837   -1.2224 C   0  0  0  0  0  0  0  0  0  0  0  0
   -3.5216    0.8597   -1.6537 O   0  0  0  0  0  0  0  0  0  0  0  0
   -4.7557    0.8284   -1.0433 C   0  0  0  0  0  0  0  0  0  0  0  0
   -4.9219    0.6690    0.3353 C   0  0  0  0  0  0  0  0  0  0  0  0
   -6.2052    0.6719    0.8838 C   0  0  0  0  0  0  0  0  0  0  0  0
   -7.3172    0.8482    0.0598 C   0  0  0  0  0  0  0  0  0  0  0  0
   -7.1486    1.0311   -1.3129 C   0  0  0  0  0  0  0  0  0  0  0  0
   -5.8668    1.0286   -1.8641 C   0  0  0  0  0  0  0  0  0  0  0  0
   -1.5215    0.3996   -0.6008 N   0  0  0  0  0  0  0  0  0  0  0  0
    1.5218   -0.9719    0.9260 C   0  0  0  0  0  0  0  0  0  0  0  0
    2.6367   -1.1999   -0.1167 C   0  0  0  0  0  0  0  0  0  0  0  0
    6.0255   -1.0264   -1.0914 H   0  0  0  0  0  0  0  0  0  0  0  0
    5.4189   -2.2939   -0.0088 H   0  0  0  0  0  0  0  0  0  0  0  0
    6.7802   -1.2790    0.4843 H   0  0  0  0  0  0  0  0  0  0  0  0
    5.3991    0.7047    0.5581 H   0  0  0  0  0  0  0  0  0  0  0  0
    5.6110   -0.6181    2.5895 H   0  0  0  0  0  0  0  0  0  0  0  0
    4.1901   -1.5825    2.1957 H   0  0  0  0  0  0  0  0  0  0  0  0
    4.0297    0.1483    2.5656 H   0  0  0  0  0  0  0  0  0  0  0  0
    4.0070    1.8699   -0.6453 H   0  0  0  0  0  0  0  0  0  0  0  0
    2.6256    1.2032   -1.4487 H   0  0  0  0  0  0  0  0  0  0  0  0
    2.3198    2.8890    0.5168 H   0  0  0  0  0  0  0  0  0  0  0  0
    2.6195    1.5559    1.5979 H   0  0  0  0  0  0  0  0  0  0  0  0
    0.4462    1.8564   -0.5115 H   0  0  0  0  0  0  0  0  0  0  0  0
    0.2105    1.8921    1.2341 H   0  0  0  0  0  0  0  0  0  0  0  0
   -1.8768   -3.3150   -1.2072 H   0  0  0  0  0  0  0  0  0  0  0  0
   -3.6868   -1.7727   -2.0236 H   0  0  0  0  0  0  0  0  0  0  0  0
   -4.0617    0.5587    0.9911 H   0  0  0  0  0  0  0  0  0  0  0  0
   -6.3367    0.5470    1.9558 H   0  0  0  0  0  0  0  0  0  0  0  0
   -8.3157    0.8547    0.4900 H   0  0  0  0  0  0  0  0  0  0  0  0
   -8.0145    1.1822   -1.9520 H   0  0  0  0  0  0  0  0  0  0  0  0
   -5.7348    1.1816   -2.9317 H   0  0  0  0  0  0  0  0  0  0  0  0
    1.0670   -1.9401    1.1725 H   0  0  0  0  0  0  0  0  0  0  0  0
    1.9355   -0.6298    1.8798 H   0  0  0  0  0  0  0  0  0  0  0  0
    3.1190   -2.1596    0.1033 H   0  0  0  0  0  0  0  0  0  0  0  0
    2.1771   -1.3410   -1.1036 H   0  0  0  0  0  0  0  0  0  0  0  0
  1  2  1  0
  2  3  1  0
  2  4  1  0
  4  5  1  0
  5  6  1  0
  6  7  1  0
  7  8  1  0
  8  9  1  0
  9 10  2  0
 10 11  1  0
 11 12  2  0
 12 13  1  0
 13 14  1  0
 14 15  1  0
 15 16  2  0
 16 17  1  0
 17 18  2  0
 18 19  1  0
 19 20  2  0
 13 21  2  0
  8 22  1  0
 22 23  1  0
 23  4  1  0
 21  9  1  0
 20 15  1  0
  1 24  1  0
  1 25  1  0
  1 26  1  0
  2 27  1  0
  3 28  1  0
  3 29  1  0
  3 30  1  0
  5 31  1  0
  5 32  1  0
  6 33  1  0
  6 34  1  0
  7 35  1  0
  7 36  1  0
 11 37  1  0
 12 38  1  0
 16 39  1  0
 17 40  1  0
 18 41  1  0
 19 42  1  0
 20 43  1  0
 22 44  1  0
 22 45  1  0
 23 46  1  0
 23 47  1  0
M  END
$$$$
OCNT-2308589
     RDKit          3D

 42 45  0  0  0  0  0  0  0  0999 V2000
    2.9620    1.8530    1.0769 C   0  0  0  0  0  0  0  0  0  0  0  0
    3.5767    0.7778    0.2140 C   0  0  0  0  0  0  0  0  0  0  0  0
    4.9745    0.6865    0.0737 C   0  0  0  0  0  0  0  0  0  0  0  0
    6.0476    1.7861    0.8701 Cl  0  0  0  0  0  0  0  0  0  0  0  0
    5.5525   -0.3112   -0.7082 C   0  0  0  0  0  0  0  0  0  0  0  0
    4.7416   -1.2388   -1.3493 C   0  0  0  0  0  0  0  0  0  0  0  0
    3.3495   -1.1751   -1.1993 C   0  0  0  0  0  0  0  0  0  0  0  0
    2.5208   -2.1064   -1.8259 C   0  0  0  0  0  0  0  0  0  0  0  0
    1.1432   -2.0315   -1.6498 C   0  0  0  0  0  0  0  0  0  0  0  0
    0.6048   -1.0326   -0.8460 C   0  0  0  0  0  0  0  0  0  0  0  0
   -0.7857   -0.9459   -0.6645 N   0  0  0  0  0  0  0  0  0  0  0  0
   -1.4201   -2.2052   -0.2437 C   0  0  0  0  0  0  0  0  0  0  0  0
   -2.6821   -1.9632    0.5887 C   0  0  0  0  0  0  0  0  0  0  0  0
   -3.5432   -0.8535   -0.0065 C   0  0  0  0  0  0  0  0  0  0  0  0
   -2.7511    0.4594   -0.1893 C   0  0  0  0  0  0  0  0  0  0  0  0
   -3.2851    1.5552    0.6877 C   0  0  0  0  0  0  0  0  0  0  0  0
   -3.4433    1.6639    2.0534 C   0  0  0  0  0  0  0  0  0  0  0  0
   -3.9913    2.9411    2.2521 C   0  0  0  0  0  0  0  0  0  0  0  0
   -4.1658    3.6016    1.1089 N   0  0  0  0  0  0  0  0  0  0  0  0
   -3.7274    2.7437    0.1749 N   0  0  0  0  0  0  0  0  0  0  0  0
   -1.2323    0.2696    0.0280 C   0  0  0  0  0  0  0  0  0  0  0  0
    1.4095   -0.1209   -0.2573 N   0  0  0  0  0  0  0  0  0  0  0  0
    2.7498   -0.1701   -0.4110 C   0  0  0  0  0  0  0  0  0  0  0  0
    1.8955    1.9942    0.8767 H   0  0  0  0  0  0  0  0  0  0  0  0
    3.4299    2.8233    0.8866 H   0  0  0  0  0  0  0  0  0  0  0  0
    3.0788    1.5950    2.1332 H   0  0  0  0  0  0  0  0  0  0  0  0
    6.6329   -0.3731   -0.8160 H   0  0  0  0  0  0  0  0  0  0  0  0
    5.2015   -2.0151   -1.9563 H   0  0  0  0  0  0  0  0  0  0  0  0
    2.9330   -2.8902   -2.4557 H   0  0  0  0  0  0  0  0  0  0  0  0
    0.4995   -2.7411   -2.1573 H   0  0  0  0  0  0  0  0  0  0  0  0
   -0.7365   -2.8312    0.3486 H   0  0  0  0  0  0  0  0  0  0  0  0
   -1.6952   -2.7720   -1.1438 H   0  0  0  0  0  0  0  0  0  0  0  0
   -2.4030   -1.6972    1.6176 H   0  0  0  0  0  0  0  0  0  0  0  0
   -3.2592   -2.8931    0.6540 H   0  0  0  0  0  0  0  0  0  0  0  0
   -4.4437   -0.7143    0.6068 H   0  0  0  0  0  0  0  0  0  0  0  0
   -3.8990   -1.1874   -0.9925 H   0  0  0  0  0  0  0  0  0  0  0  0
   -2.8961    0.7659   -1.2358 H   0  0  0  0  0  0  0  0  0  0  0  0
   -3.1980    0.9259    2.8014 H   0  0  0  0  0  0  0  0  0  0  0  0
   -4.2689    3.4198    3.1819 H   0  0  0  0  0  0  0  0  0  0  0  0
   -3.7609    3.0353   -0.7958 H   0  0  0  0  0  0  0  0  0  0  0  0
   -0.9857    0.2098    1.0974 H   0  0  0  0  0  0  0  0  0  0  0  0
   -0.7300    1.1619   -0.3708 H   0  0  0  0  0  0  0  0  0  0  0  0
  1  2  1  0
  2  3  1  0
  3  4  1  0
  3  5  2  0
  5  6  1  0
  6  7  2  0
  7  8  1  0
  8  9  2  0
  9 10  1  0
 10 11  1  0
 11 12  1  0
 12 13  1  0
 13 14  1  0
 14 15  1  0
 15 16  1  0
 16 17  2  0
 17 18  1  0
 18 19  2  0
 19 20  1  0
 15 21  1  0
 10 22  2  0
 22 23  1  0
 23  2  2  0
 23  7  1  0
 21 11  1  0
 20 16  1  0
  1 24  1  0
  1 25  1  0
  1 26  1  0
  5 27  1  0
  6 28  1  0
  8 29  1  0
  9 30  1  0
 12 31  1  0
 12 32  1  0
 13 33  1  0
 13 34  1  0
 14 35  1  0
 14 36  1  0
 15 37  1  0
 17 38  1  0
 18 39  1  0
 20 40  1  0
 21 41  1  0
 21 42  1  0
M  END
$$$$
OCNT-2308599
     RDKit          3D

 55 58  0  0  0  0  0  0  0  0999 V2000
    2.8768    2.9686   -2.1302 C   0  0  0  0  0  0  0  0  0  0  0  0
    2.2455    1.7037   -2.2987 O   0  0  0  0  0  0  0  0  0  0  0  0
    1.3194    1.3432   -1.3501 C   0  0  0  0  0  0  0  0  0  0  0  0
    0.8065    2.1865   -0.3627 C   0  0  0  0  0  0  0  0  0  0  0  0
   -0.1361    1.7022    0.5493 C   0  0  0  0  0  0  0  0  0  0  0  0
   -0.5717    0.3747    0.4677 C   0  0  0  0  0  0  0  0  0  0  0  0
   -1.7400   -0.2466    1.6622 S   0  0  0  0  0  0  0  0  0  0  0  0
   -1.3647   -1.6110    1.9597 O   0  0  0  0  0  0  0  0  0  0  0  0
   -1.8419    0.7457    2.7126 O   0  0  0  0  0  0  0  0  0  0  0  0
   -3.2080   -0.2505    0.8060 N   0  0  0  0  0  0  0  0  0  0  0  0
   -3.4106   -1.2907   -0.2216 C   0  0  0  0  0  0  0  0  0  0  0  0
   -4.7751   -1.9714   -0.0555 C   0  0  0  0  0  0  0  0  0  0  0  0
   -5.8043   -1.2270    0.7960 C   0  0  0  0  0  0  0  0  0  0  0  0
   -6.2149    0.1468    0.2706 C   0  0  0  0  0  0  0  0  0  0  0  0
   -5.0955    1.0116   -0.3045 C   0  0  0  0  0  0  0  0  0  0  0  0
   -3.8219    1.0747    0.5386 C   0  0  0  0  0  0  0  0  0  0  0  0
   -0.0540   -0.4843   -0.5022 C   0  0  0  0  0  0  0  0  0  0  0  0
    0.8778    0.0066   -1.4147 C   0  0  0  0  0  0  0  0  0  0  0  0
    1.4298   -0.8465   -2.4236 N   0  0  0  0  0  0  0  0  0  0  0  0
    2.4135   -2.1350   -1.9393 S   0  0  0  0  0  0  0  0  0  0  0  0
    3.1183   -2.5769   -3.1243 O   0  0  0  0  0  0  0  0  0  0  0  0
    1.6271   -3.0567   -1.1487 O   0  0  0  0  0  0  0  0  0  0  0  0
    3.6055   -1.3596   -0.8699 C   0  0  0  0  0  0  0  0  0  0  0  0
    4.7269   -0.7213   -1.4413 C   0  0  0  0  0  0  0  0  0  0  0  0
    5.6723   -0.1025   -0.6195 C   0  0  0  0  0  0  0  0  0  0  0  0
    5.4666   -0.1532    0.7436 C   0  0  0  0  0  0  0  0  0  0  0  0
    6.2780    0.3943    1.6875 O   0  0  0  0  0  0  0  0  0  0  0  0
    5.5914    0.0060    2.8966 C   0  0  0  0  0  0  0  0  0  0  0  0
    4.3735   -0.7269    2.6523 O   0  0  0  0  0  0  0  0  0  0  0  0
    4.3790   -0.7934    1.2946 C   0  0  0  0  0  0  0  0  0  0  0  0
    3.4279   -1.4163    0.5174 C   0  0  0  0  0  0  0  0  0  0  0  0
    3.6431    3.0650   -2.9060 H   0  0  0  0  0  0  0  0  0  0  0  0
    2.1596    3.7845   -2.2672 H   0  0  0  0  0  0  0  0  0  0  0  0
    3.3760    3.0357   -1.1575 H   0  0  0  0  0  0  0  0  0  0  0  0
    1.1172    3.2226   -0.2722 H   0  0  0  0  0  0  0  0  0  0  0  0
   -0.5203    2.3647    1.3236 H   0  0  0  0  0  0  0  0  0  0  0  0
   -2.6444   -2.0702   -0.1623 H   0  0  0  0  0  0  0  0  0  0  0  0
   -3.3050   -0.8591   -1.2231 H   0  0  0  0  0  0  0  0  0  0  0  0
   -4.6110   -2.9519    0.4102 H   0  0  0  0  0  0  0  0  0  0  0  0
   -5.1925   -2.1819   -1.0475 H   0  0  0  0  0  0  0  0  0  0  0  0
   -5.4245   -1.1245    1.8208 H   0  0  0  0  0  0  0  0  0  0  0  0
   -6.7053   -1.8472    0.8829 H   0  0  0  0  0  0  0  0  0  0  0  0
   -6.9760    0.0151   -0.5095 H   0  0  0  0  0  0  0  0  0  0  0  0
   -6.7100    0.6924    1.0835 H   0  0  0  0  0  0  0  0  0  0  0  0
   -5.4800    2.0321   -0.4296 H   0  0  0  0  0  0  0  0  0  0  0  0
   -4.8614    0.6701   -1.3195 H   0  0  0  0  0  0  0  0  0  0  0  0
   -3.1016    1.7138    0.0171 H   0  0  0  0  0  0  0  0  0  0  0  0
   -4.0628    1.5479    1.4972 H   0  0  0  0  0  0  0  0  0  0  0  0
   -0.3698   -1.5237   -0.5447 H   0  0  0  0  0  0  0  0  0  0  0  0
    1.8722   -0.3367   -3.1920 H   0  0  0  0  0  0  0  0  0  0  0  0
    4.8629   -0.7074   -2.5208 H   0  0  0  0  0  0  0  0  0  0  0  0
    6.5430    0.3939   -1.0347 H   0  0  0  0  0  0  0  0  0  0  0  0
    6.2635   -0.6190    3.4969 H   0  0  0  0  0  0  0  0  0  0  0  0
    5.3484    0.9102    3.4669 H   0  0  0  0  0  0  0  0  0  0  0  0
    2.5818   -1.9213    0.9722 H   0  0  0  0  0  0  0  0  0  0  0  0
  1  2  1  0
  2  3  1  0
  3  4  1  0
  4  5  2  0
  5  6  1  0
  6  7  1  0
  7  8  2  0
  7  9  2  0
  7 10  1  0
 10 11  1  0
 11 12  1  0
 12 13  1  0
 13 14  1  0
 14 15  1  0
 15 16  1  0
  6 17  2  0
 17 18  1  0
 18 19  1  0
 19 20  1  0
 20 21  2  0
 20 22  2  0
 20 23  1  0
 23 24  1  0
 24 25  2  0
 25 26  1  0
 26 27  1  0
 27 28  1  0
 28 29  1  0
 29 30  1  0
 30 31  1  0
 18  3  2  0
 31 23  2  0
 16 10  1  0
 30 26  2  0
  1 32  1  0
  1 33  1  0
  1 34  1  0
  4 35  1  0
  5 36  1  0
 11 37  1  0
 11 38  1  0
 12 39  1  0
 12 40  1  0
 13 41  1  0
 13 42  1  0
 14 43  1  0
 14 44  1  0
 15 45  1  0
 15 46  1  0
 16 47  1  0
 16 48  1  0
 17 49  1  0
 19 50  1  0
 24 51  1  0
 25 52  1  0
 28 53  1  0
 28 54  1  0
 31 55  1  0
M  END
$$$$
OCNT-2308603
     RDKit          3D

 43 45  0  0  0  0  0  0  0  0999 V2000
   -2.2200    1.5639   -2.1625 O   0  0  0  0  0  0  0  0  0  0  0  0
   -0.9403    1.2235   -1.6505 C   0  0  0  0  0  0  0  0  0  0  0  0
   -0.9889    0.2014   -0.4864 C   0  0  0  0  0  0  0  0  0  0  0  0
   -1.7989    0.7448    0.7209 C   0  0  0  0  0  0  0  0  0  0  0  0
   -3.2985    0.5959    0.5819 C   0  0  0  0  0  0  0  0  0  0  0  0
   -3.8996   -0.6650    0.7269 C   0  0  0  0  0  0  0  0  0  0  0  0
   -5.2816   -0.8071    0.5975 C   0  0  0  0  0  0  0  0  0  0  0  0
   -6.0627    0.3091    0.3250 C   0  0  0  0  0  0  0  0  0  0  0  0
   -7.3890    0.1706    0.1982 F   0  0  0  0  0  0  0  0  0  0  0  0
   -5.4882    1.5656    0.1809 C   0  0  0  0  0  0  0  0  0  0  0  0
   -4.1064    1.7104    0.3120 C   0  0  0  0  0  0  0  0  0  0  0  0
    0.3626   -0.1439    0.0022 N   0  0  0  0  0  0  0  0  0  0  0  0
    1.1262   -0.9854   -0.9095 C   0  0  0  0  0  0  0  0  0  0  0  0
    2.4070   -1.4731   -0.2604 C   0  0  0  0  0  0  0  0  0  0  0  0
    2.4094   -2.8394    0.1185 C   0  0  0  0  0  0  0  0  0  0  0  0
    3.4797   -3.4198    0.7987 C   0  0  0  0  0  0  0  0  0  0  0  0
    4.5746   -2.6416    1.1324 C   0  0  0  0  0  0  0  0  0  0  0  0
    5.8962   -3.3431    1.9806 Cl  0  0  0  0  0  0  0  0  0  0  0  0
    4.6073   -1.2946    0.7815 C   0  0  0  0  0  0  0  0  0  0  0  0
    3.5410   -0.6907    0.0708 C   0  0  0  0  0  0  0  0  0  0  0  0
    3.7062    0.6954   -0.2384 N   0  0  0  0  0  0  0  0  0  0  0  0
    3.0559    1.5166   -1.1276 C   0  0  0  0  0  0  0  0  0  0  0  0
    3.4933    2.7524   -1.0400 N   0  0  0  0  0  0  0  0  0  0  0  0
    4.4783    2.6516   -0.1128 C   0  0  0  0  0  0  0  0  0  0  0  0
    4.6689    1.4317    0.3841 N   0  0  0  0  0  0  0  0  0  0  0  0
   -2.7509    0.7515   -2.2377 H   0  0  0  0  0  0  0  0  0  0  0  0
   -0.4543    2.1511   -1.3287 H   0  0  0  0  0  0  0  0  0  0  0  0
   -0.3617    0.8255   -2.4897 H   0  0  0  0  0  0  0  0  0  0  0  0
   -1.4823   -0.7125   -0.8419 H   0  0  0  0  0  0  0  0  0  0  0  0
   -1.5357    1.7930    0.9152 H   0  0  0  0  0  0  0  0  0  0  0  0
   -1.5176    0.2020    1.6350 H   0  0  0  0  0  0  0  0  0  0  0  0
   -3.2932   -1.5405    0.9504 H   0  0  0  0  0  0  0  0  0  0  0  0
   -5.7537   -1.7775    0.7119 H   0  0  0  0  0  0  0  0  0  0  0  0
   -6.1168    2.4238   -0.0338 H   0  0  0  0  0  0  0  0  0  0  0  0
   -3.6617    2.6962    0.1882 H   0  0  0  0  0  0  0  0  0  0  0  0
    0.8677    0.7006    0.2649 H   0  0  0  0  0  0  0  0  0  0  0  0
    1.3475   -0.5175   -1.8698 H   0  0  0  0  0  0  0  0  0  0  0  0
    0.5114   -1.8559   -1.1748 H   0  0  0  0  0  0  0  0  0  0  0  0
    1.5468   -3.4699   -0.0985 H   0  0  0  0  0  0  0  0  0  0  0  0
    3.4413   -4.4700    1.0753 H   0  0  0  0  0  0  0  0  0  0  0  0
    5.4890   -0.7172    1.0596 H   0  0  0  0  0  0  0  0  0  0  0  0
    2.3095    1.1969   -1.8308 H   0  0  0  0  0  0  0  0  0  0  0  0
    5.0824    3.4910    0.2087 H   0  0  0  0  0  0  0  0  0  0  0  0
  1  2  1  0
  2  3  1  0
  3  4  1  0
  4  5  1  0
  5  6  1  0
  6  7  2  0
  7  8  1  0
  8  9  1  0
  8 10  2  0
 10 11  1  0
  3 12  1  0
 12 13  1  0
 13 14  1  0
 14 15  1  0
 15 16  2  0
 16 17  1  0
 17 18  1  0
 17 19  2  0
 19 20  1  0
 20 21  1  0
 21 22  1  0
 22 23  2  0
 23 24  1  0
 24 25  2  0
 11  5  2  0
 20 14  2  0
 25 21  1  0
  1 26  1  0
  2 27  1  0
  2 28  1  0
  3 29  1  0
  4 30  1  0
  4 31  1  0
  6 32  1  0
  7 33  1  0
 10 34  1  0
 11 35  1  0
 12 36  1  0
 13 37  1  0
 13 38  1  0
 15 39  1  0
 16 40  1  0
 19 41  1  0
 22 42  1  0
 24 43  1  0
M  END
$$$$
OCNT-2308609
     RDKit          3D

 46 48  0  0  0  0  0  0  0  0999 V2000
    6.2533   -1.7773    0.5361 C   0  0  0  0  0  0  0  0  0  0  0  0
    5.2674   -0.9695   -0.0933 O   0  0  0  0  0  0  0  0  0  0  0  0
    3.9684   -1.1042    0.3266 C   0  0  0  0  0  0  0  0  0  0  0  0
    3.5539   -1.9785    1.3316 C   0  0  0  0  0  0  0  0  0  0  0  0
    2.2112   -2.0372    1.6990 C   0  0  0  0  0  0  0  0  0  0  0  0
    1.2713   -1.2188    1.0713 C   0  0  0  0  0  0  0  0  0  0  0  0
   -0.3768   -1.3950    1.5761 Cl  0  0  0  0  0  0  0  0  0  0  0  0
    1.6570   -0.3154    0.0599 C   0  0  0  0  0  0  0  0  0  0  0  0
    3.0231   -0.2771   -0.3254 C   0  0  0  0  0  0  0  0  0  0  0  0
    3.5190    0.6848   -1.3891 C   0  0  0  0  0  0  0  0  0  0  0  0
    2.4234    1.3715   -2.1952 C   0  0  0  0  0  0  0  0  0  0  0  0
    1.2926    1.7987   -1.2744 C   0  0  0  0  0  0  0  0  0  0  0  0
    0.6198    0.5725   -0.6315 C   0  0  0  0  0  0  0  0  0  0  0  0
   -0.1267   -0.2510   -1.6054 N   0  0  0  0  0  0  0  0  0  0  0  0
   -1.2973    0.4107   -2.1927 C   0  0  0  0  0  0  0  0  0  0  0  0
   -2.3332    0.8061   -1.2007 C   0  0  0  0  0  0  0  0  0  0  0  0
   -2.6992    2.0252   -0.8666 N   0  0  0  0  0  0  0  0  0  0  0  0
   -3.6624    1.9288    0.1092 N   0  0  0  0  0  0  0  0  0  0  0  0
   -3.8668    0.6526    0.3573 C   0  0  0  0  0  0  0  0  0  0  0  0
   -4.7954    0.0511    1.3597 C   0  0  0  0  0  0  0  0  0  0  0  0
   -4.3475    0.3980    2.7789 C   0  0  0  0  0  0  0  0  0  0  0  0
   -6.2295    0.5185    1.1157 C   0  0  0  0  0  0  0  0  0  0  0  0
   -3.0597   -0.0890   -0.4625 N   0  0  0  0  0  0  0  0  0  0  0  0
    6.3251   -1.5515    1.6051 H   0  0  0  0  0  0  0  0  0  0  0  0
    6.0587   -2.8414    0.3668 H   0  0  0  0  0  0  0  0  0  0  0  0
    7.2196   -1.5400    0.0810 H   0  0  0  0  0  0  0  0  0  0  0  0
    4.2497   -2.6291    1.8504 H   0  0  0  0  0  0  0  0  0  0  0  0
    1.9041   -2.7288    2.4799 H   0  0  0  0  0  0  0  0  0  0  0  0
    4.1774    0.1595   -2.0915 H   0  0  0  0  0  0  0  0  0  0  0  0
    4.1179    1.4550   -0.8856 H   0  0  0  0  0  0  0  0  0  0  0  0
    2.0482    0.6953   -2.9726 H   0  0  0  0  0  0  0  0  0  0  0  0
    2.8417    2.2425   -2.7125 H   0  0  0  0  0  0  0  0  0  0  0  0
    1.6950    2.4489   -0.4853 H   0  0  0  0  0  0  0  0  0  0  0  0
    0.5717    2.4122   -1.8240 H   0  0  0  0  0  0  0  0  0  0  0  0
   -0.0527    0.9594    0.1437 H   0  0  0  0  0  0  0  0  0  0  0  0
   -0.4256   -1.1028   -1.1368 H   0  0  0  0  0  0  0  0  0  0  0  0
   -0.9975    1.2762   -2.7922 H   0  0  0  0  0  0  0  0  0  0  0  0
   -1.7506   -0.2890   -2.9057 H   0  0  0  0  0  0  0  0  0  0  0  0
   -4.7755   -1.0416    1.2568 H   0  0  0  0  0  0  0  0  0  0  0  0
   -5.0048   -0.0705    3.5191 H   0  0  0  0  0  0  0  0  0  0  0  0
   -4.3605    1.4802    2.9524 H   0  0  0  0  0  0  0  0  0  0  0  0
   -3.3268    0.0452    2.9650 H   0  0  0  0  0  0  0  0  0  0  0  0
   -6.3242    1.6049    1.2252 H   0  0  0  0  0  0  0  0  0  0  0  0
   -6.5596    0.2573    0.1038 H   0  0  0  0  0  0  0  0  0  0  0  0
   -6.9175    0.0469    1.8255 H   0  0  0  0  0  0  0  0  0  0  0  0
   -2.9798   -1.0944   -0.4842 H   0  0  0  0  0  0  0  0  0  0  0  0
  1  2  1  0
  2  3  1  0
  3  4  1  0
  4  5  2  0
  5  6  1  0
  6  7  1  0
  6  8  2  0
  8  9  1  0
  9 10  1  0
 10 11  1  0
 11 12  1  0
 12 13  1  0
 13 14  1  0
 14 15  1  0
 15 16  1  0
 16 17  2  0
 17 18  1  0
 18 19  2  0
 19 20  1  0
 20 21  1  0
 20 22  1  0
 19 23  1  0
  9  3  2  0
 23 16  1  0
 13  8  1  0
  1 24  1  0
  1 25  1  0
  1 26  1  0
  4 27  1  0
  5 28  1  0
 10 29  1  0
 10 30  1  0
 11 31  1  0
 11 32  1  0
 12 33  1  0
 12 34  1  0
 13 35  1  0
 14 36  1  0
 15 37  1  0
 15 38  1  0
 20 39  1  0
 21 40  1  0
 21 41  1  0
 21 42  1  0
 22 43  1  0
 22 44  1  0
 22 45  1  0
 23 46  1  0
M  END
$$$$
OCNT-2308610
     RDKit          3D

 51 55  0  0  0  0  0  0  0  0999 V2000
    0.5764   -1.0104    1.9914 O   0  0  0  0  0  0  0  0  0  0  0  0
    0.1143   -0.4152    1.0179 C   0  0  0  0  0  0  0  0  0  0  0  0
    0.4140   -0.8184   -0.4052 C   0  0  0  0  0  0  0  0  0  0  0  0
    1.7408   -1.3773   -0.5806 N   0  0  0  0  0  0  0  0  0  0  0  0
    2.9291   -0.9639   -0.0496 C   0  0  0  0  0  0  0  0  0  0  0  0
    3.8656   -1.7804   -0.6448 C   0  0  0  0  0  0  0  0  0  0  0  0
    5.2951   -1.7945   -0.4178 C   0  0  0  0  0  0  0  0  0  0  0  0
    6.1068   -2.6949   -1.1114 C   0  0  0  0  0  0  0  0  0  0  0  0
    7.4563   -2.7838   -0.9721 N   0  0  0  0  0  0  0  0  0  0  0  0
    8.0246   -1.9295   -0.0919 C   0  0  0  0  0  0  0  0  0  0  0  0
    7.3050   -1.0031    0.6406 C   0  0  0  0  0  0  0  0  0  0  0  0
    7.9255   -0.1772    1.4926 F   0  0  0  0  0  0  0  0  0  0  0  0
    5.9270   -0.9304    0.4810 C   0  0  0  0  0  0  0  0  0  0  0  0
    3.2305   -2.6096   -1.5330 N   0  0  0  0  0  0  0  0  0  0  0  0
    1.9335   -2.3391   -1.5031 N   0  0  0  0  0  0  0  0  0  0  0  0
   -0.7013    0.6774    1.1800 N   0  0  0  0  0  0  0  0  0  0  0  0
   -1.4185    1.0275    2.4237 C   0  0  0  0  0  0  0  0  0  0  0  0
   -1.9967    2.1727    1.5809 C   0  0  0  0  0  0  0  0  0  0  0  0
   -3.3437    2.8577    1.5432 C   0  0  0  0  0  0  0  0  0  0  0  0
   -3.6016    3.3329    0.0977 C   0  0  0  0  0  0  0  0  0  0  0  0
   -2.3342    3.4840   -0.7732 C   0  0  0  0  0  0  0  0  0  0  0  0
   -1.3058    2.3207   -0.6986 C   0  0  0  0  0  0  0  0  0  0  0  0
   -1.7486    1.2720    0.3312 C   0  0  0  0  0  0  0  0  0  0  0  0
   -2.8435    0.2123   -0.2421 C   0  0  0  0  0  0  0  0  0  0  0  0
   -2.8252   -0.2517   -1.5792 C   0  0  0  0  0  0  0  0  0  0  0  0
   -3.7540   -1.1731   -2.0801 C   0  0  0  0  0  0  0  0  0  0  0  0
   -4.7473   -1.6775   -1.2547 C   0  0  0  0  0  0  0  0  0  0  0  0
   -4.8040   -1.2637    0.0676 C   0  0  0  0  0  0  0  0  0  0  0  0
   -3.8682   -0.3434    0.5577 C   0  0  0  0  0  0  0  0  0  0  0  0
   -0.3124   -1.5798   -0.7069 H   0  0  0  0  0  0  0  0  0  0  0  0
    0.3591    0.0373   -1.0831 H   0  0  0  0  0  0  0  0  0  0  0  0
    2.9912   -0.1796    0.6892 H   0  0  0  0  0  0  0  0  0  0  0  0
    5.6847   -3.3976   -1.8278 H   0  0  0  0  0  0  0  0  0  0  0  0
    9.1012   -2.0065    0.0145 H   0  0  0  0  0  0  0  0  0  0  0  0
    5.3764   -0.2012    1.0639 H   0  0  0  0  0  0  0  0  0  0  0  0
   -2.1019    0.2506    2.7706 H   0  0  0  0  0  0  0  0  0  0  0  0
   -0.7559    1.3378    3.2364 H   0  0  0  0  0  0  0  0  0  0  0  0
   -1.2744    3.0100    1.6706 H   0  0  0  0  0  0  0  0  0  0  0  0
   -3.3432    3.7174    2.2235 H   0  0  0  0  0  0  0  0  0  0  0  0
   -4.1560    2.2041    1.8726 H   0  0  0  0  0  0  0  0  0  0  0  0
   -4.1574    4.2777    0.1156 H   0  0  0  0  0  0  0  0  0  0  0  0
   -4.2705    2.6155   -0.3934 H   0  0  0  0  0  0  0  0  0  0  0  0
   -1.8229    4.4097   -0.4784 H   0  0  0  0  0  0  0  0  0  0  0  0
   -2.6327    3.6312   -1.8182 H   0  0  0  0  0  0  0  0  0  0  0  0
   -1.1469    1.9011   -1.6960 H   0  0  0  0  0  0  0  0  0  0  0  0
   -0.3300    2.7461   -0.4242 H   0  0  0  0  0  0  0  0  0  0  0  0
   -2.0626    0.0972   -2.2720 H   0  0  0  0  0  0  0  0  0  0  0  0
   -3.6938   -1.4958   -3.1168 H   0  0  0  0  0  0  0  0  0  0  0  0
   -5.4711   -2.3912   -1.6389 H   0  0  0  0  0  0  0  0  0  0  0  0
   -5.5746   -1.6561    0.7272 H   0  0  0  0  0  0  0  0  0  0  0  0
   -3.9582   -0.0628    1.6037 H   0  0  0  0  0  0  0  0  0  0  0  0
  1  2  2  0
  2  3  1  0
  3  4  1  0
  4  5  1  0
  5  6  2  0
  6  7  1  0
  7  8  2  0
  8  9  1  0
  9 10  2  0
 10 11  1  0
 11 12  1  0
 11 13  2  0
  6 14  1  0
 14 15  2  0
  2 16  1  0
 16 17  1  0
 17 18  1  0
 18 19  1  0
 19 20  1  0
 20 21  1  0
 21 22  1  0
 22 23  1  0
 23 24  1  0
 24 25  2  0
 25 26  1  0
 26 27  2  0
 27 28  1  0
 28 29  2  0
 15  4  1  0
 23 16  1  0
 29 24  1  0
 13  7  1  0
 23 18  1  0
  3 30  1  0
  3 31  1  0
  5 32  1  0
  8 33  1  0
 10 34  1  0
 13 35  1  0
 17 36  1  0
 17 37  1  0
 18 38  1  0
 19 39  1  0
 19 40  1  0
 20 41  1  0
 20 42  1  0
 21 43  1  0
 21 44  1  0
 22 45  1  0
 22 46  1  0
 25 47  1  0
 26 48  1  0
 27 49  1  0
 28 50  1  0
 29 51  1  0
M  END
$$$$
OCNT-2308624
     RDKit          3D

 44 46  0  0  0  0  0  0  0  0999 V2000
    0.8080   -2.4114   -1.4362 C   0  0  0  0  0  0  0  0  0  0  0  0
    0.7410   -2.0596   -0.0264 N   0  0  0  0  0  0  0  0  0  0  0  0
    1.8201   -2.5515    0.8358 C   0  0  0  0  0  0  0  0  0  0  0  0
    3.1710   -1.8565    0.5943 C   0  0  0  0  0  0  0  0  0  0  0  0
    3.1861   -0.3648    0.8285 C   0  0  0  0  0  0  0  0  0  0  0  0
    2.7788    0.1850    2.0487 C   0  0  0  0  0  0  0  0  0  0  0  0
    2.8242    1.5622    2.2113 C   0  0  0  0  0  0  0  0  0  0  0  0
    3.2552    2.4196    1.2597 N   0  0  0  0  0  0  0  0  0  0  0  0
    3.6587    1.8701    0.0932 C   0  0  0  0  0  0  0  0  0  0  0  0
    3.6443    0.5065   -0.1663 C   0  0  0  0  0  0  0  0  0  0  0  0
   -0.2317   -1.2187    0.5300 C   0  0  0  0  0  0  0  0  0  0  0  0
   -0.2856   -1.0346    1.7518 O   0  0  0  0  0  0  0  0  0  0  0  0
   -1.2760   -0.5479   -0.4399 C   0  0  0  0  0  0  0  0  0  0  0  0
   -2.3902   -1.5204   -0.5208 N   0  0  0  0  0  0  0  0  0  0  0  0
   -3.3011   -1.2818   -1.6388 C   0  0  0  0  0  0  0  0  0  0  0  0
   -3.8108    0.1494   -1.7606 C   0  0  0  0  0  0  0  0  0  0  0  0
   -4.0712    0.6888   -0.4610 O   0  0  0  0  0  0  0  0  0  0  0  0
   -2.9802    1.3635    0.0264 C   0  0  0  0  0  0  0  0  0  0  0  0
   -3.2683    2.6340    0.5397 C   0  0  0  0  0  0  0  0  0  0  0  0
   -2.2438    3.4630    0.9858 C   0  0  0  0  0  0  0  0  0  0  0  0
   -0.9271    3.0222    0.9168 C   0  0  0  0  0  0  0  0  0  0  0  0
   -0.6440    1.7402    0.4380 C   0  0  0  0  0  0  0  0  0  0  0  0
   -1.6668    0.8599    0.0245 C   0  0  0  0  0  0  0  0  0  0  0  0
    1.4777   -1.7110   -1.9414 H   0  0  0  0  0  0  0  0  0  0  0  0
   -0.1739   -2.3812   -1.9135 H   0  0  0  0  0  0  0  0  0  0  0  0
    1.1950   -3.4309   -1.5384 H   0  0  0  0  0  0  0  0  0  0  0  0
    1.9282   -3.6255    0.6448 H   0  0  0  0  0  0  0  0  0  0  0  0
    1.5376   -2.4601    1.8897 H   0  0  0  0  0  0  0  0  0  0  0  0
    3.4996   -2.0713   -0.4314 H   0  0  0  0  0  0  0  0  0  0  0  0
    3.9254   -2.3066    1.2529 H   0  0  0  0  0  0  0  0  0  0  0  0
    2.4065   -0.4362    2.8574 H   0  0  0  0  0  0  0  0  0  0  0  0
    2.4961    2.0213    3.1394 H   0  0  0  0  0  0  0  0  0  0  0  0
    4.0100    2.5778   -0.6529 H   0  0  0  0  0  0  0  0  0  0  0  0
    3.9889    0.1402   -1.1275 H   0  0  0  0  0  0  0  0  0  0  0  0
   -0.8119   -0.4189   -1.4243 H   0  0  0  0  0  0  0  0  0  0  0  0
   -2.9115   -1.4299    0.3577 H   0  0  0  0  0  0  0  0  0  0  0  0
   -4.1586   -1.9433   -1.4896 H   0  0  0  0  0  0  0  0  0  0  0  0
   -2.8397   -1.5947   -2.5819 H   0  0  0  0  0  0  0  0  0  0  0  0
   -3.1206    0.7788   -2.3334 H   0  0  0  0  0  0  0  0  0  0  0  0
   -4.7567    0.1479   -2.3115 H   0  0  0  0  0  0  0  0  0  0  0  0
   -4.2969    2.9831    0.5689 H   0  0  0  0  0  0  0  0  0  0  0  0
   -2.4710    4.4519    1.3735 H   0  0  0  0  0  0  0  0  0  0  0  0
   -0.1141    3.6661    1.2477 H   0  0  0  0  0  0  0  0  0  0  0  0
    0.3991    1.4253    0.4160 H   0  0  0  0  0  0  0  0  0  0  0  0
  1  2  1  0
  2  3  1  0
  3  4  1  0
  4  5  1  0
  5  6  2  0
  6  7  1  0
  7  8  2  0
  8  9  1  0
  9 10  2  0
  2 11  1  0
 11 12  2  0
 11 13  1  0
 13 14  1  0
 14 15  1  0
 15 16  1  0
 16 17  1  0
 17 18  1  0
 18 19  2  0
 19 20  1  0
 20 21  2  0
 21 22  1  0
 22 23  2  0
 10  5  1  0
 23 13  1  0
 23 18  1  0
  1 24  1  0
  1 25  1  0
  1 26  1  0
  3 27  1  0
  3 28  1  0
  4 29  1  0
  4 30  1  0
  6 31  1  0
  7 32  1  0
  9 33  1  0
 10 34  1  0
 13 35  1  0
 14 36  1  0
 15 37  1  0
 15 38  1  0
 16 39  1  0
 16 40  1  0
 19 41  1  0
 20 42  1  0
 21 43  1  0
 22 44  1  0
M  END
$$$$
OCNT-2308630
     RDKit          3D

 41 44  0  0  0  0  0  0  0  0999 V2000
    6.8261   -1.3008   -0.3986 N   0  0  0  0  0  0  0  0  0  0  0  0
    5.7817   -1.8469   -1.0911 C   0  0  0  0  0  0  0  0  0  0  0  0
    5.9954   -2.7925   -1.8460 O   0  0  0  0  0  0  0  0  0  0  0  0
    4.4699   -1.2582   -0.8793 C   0  0  0  0  0  0  0  0  0  0  0  0
    3.2850   -1.6526   -1.4709 C   0  0  0  0  0  0  0  0  0  0  0  0
    2.1731   -0.8671   -1.0496 C   0  0  0  0  0  0  0  0  0  0  0  0
    2.5282    0.0952   -0.1211 C   0  0  0  0  0  0  0  0  0  0  0  0
    1.7085    1.1073    0.5394 C   0  0  0  0  0  0  0  0  0  0  0  0
    2.1541    2.2186    0.8387 O   0  0  0  0  0  0  0  0  0  0  0  0
    0.3483    0.8627    0.6656 N   0  0  0  0  0  0  0  0  0  0  0  0
   -0.6093    1.9643    0.5647 C   0  0  0  0  0  0  0  0  0  0  0  0
   -1.9473    1.3142    0.1685 C   0  0  0  0  0  0  0  0  0  0  0  0
   -3.1619    2.0603    0.7231 C   0  0  0  0  0  0  0  0  0  0  0  0
   -4.3081    1.7924   -0.2559 C   0  0  0  0  0  0  0  0  0  0  0  0
   -3.6897    1.1597   -1.5004 C   0  0  0  0  0  0  0  0  0  0  0  0
   -2.1839    1.3343   -1.3471 C   0  0  0  0  0  0  0  0  0  0  0  0
   -1.7303   -0.0887    0.7044 C   0  0  0  0  0  0  0  0  0  0  0  0
   -2.6787   -1.0829    0.9190 C   0  0  0  0  0  0  0  0  0  0  0  0
   -2.2649   -2.3051    1.4442 C   0  0  0  0  0  0  0  0  0  0  0  0
   -0.9224   -2.5098    1.7852 C   0  0  0  0  0  0  0  0  0  0  0  0
    0.0336   -1.5058    1.5820 C   0  0  0  0  0  0  0  0  0  0  0  0
    1.5955   -1.7788    2.2538 Cl  0  0  0  0  0  0  0  0  0  0  0  0
   -0.3680   -0.3098    0.9893 C   0  0  0  0  0  0  0  0  0  0  0  0
    4.2191    0.0717    0.1695 S   0  0  0  0  0  0  0  0  0  0  0  0
    7.7442   -1.7006   -0.5264 H   0  0  0  0  0  0  0  0  0  0  0  0
    6.6954   -0.5285    0.2394 H   0  0  0  0  0  0  0  0  0  0  0  0
    3.2278   -2.4697   -2.1818 H   0  0  0  0  0  0  0  0  0  0  0  0
    1.1631   -1.0078   -1.4149 H   0  0  0  0  0  0  0  0  0  0  0  0
   -0.2606    2.7154   -0.1528 H   0  0  0  0  0  0  0  0  0  0  0  0
   -0.6598    2.4379    1.5543 H   0  0  0  0  0  0  0  0  0  0  0  0
   -3.4264    1.7618    1.7432 H   0  0  0  0  0  0  0  0  0  0  0  0
   -2.9681    3.1406    0.7408 H   0  0  0  0  0  0  0  0  0  0  0  0
   -5.0570    1.1244    0.1830 H   0  0  0  0  0  0  0  0  0  0  0  0
   -4.8202    2.7284   -0.5054 H   0  0  0  0  0  0  0  0  0  0  0  0
   -3.9479    0.0960   -1.5494 H   0  0  0  0  0  0  0  0  0  0  0  0
   -4.0597    1.6235   -2.4202 H   0  0  0  0  0  0  0  0  0  0  0  0
   -1.6304    0.5616   -1.8915 H   0  0  0  0  0  0  0  0  0  0  0  0
   -1.8991    2.3074   -1.7671 H   0  0  0  0  0  0  0  0  0  0  0  0
   -3.7286   -0.9255    0.6932 H   0  0  0  0  0  0  0  0  0  0  0  0
   -2.9927   -3.0942    1.6215 H   0  0  0  0  0  0  0  0  0  0  0  0
   -0.6340   -3.4523    2.2466 H   0  0  0  0  0  0  0  0  0  0  0  0
  1  2  1  0
  2  3  2  0
  2  4  1  0
  4  5  2  0
  5  6  1  0
  6  7  2  0
  7  8  1  0
  8  9  2  0
  8 10  1  0
 10 11  1  0
 11 12  1  0
 12 13  1  0
 13 14  1  0
 14 15  1  0
 15 16  1  0
 12 17  1  0
 17 18  2  0
 18 19  1  0
 19 20  2  0
 20 21  1  0
 21 22  1  0
 21 23  2  0
  7 24  1  0
 24  4  1  0
 23 10  1  0
 16 12  1  0
 23 17  1  0
  1 25  1  0
  1 26  1  0
  5 27  1  0
  6 28  1  0
 11 29  1  0
 11 30  1  0
 13 31  1  0
 13 32  1  0
 14 33  1  0
 14 34  1  0
 15 35  1  0
 15 36  1  0
 16 37  1  0
 16 38  1  0
 18 39  1  0
 19 40  1  0
 20 41  1  0
M  END
$$$$
