OCNT-2317309
     RDKit          3D

 51 54  0  0  0  0  0  0  0  0999 V2000
   -7.1848   -0.4604   -1.5523 C   0  0  0  0  0  0  0  0  0  0  0  0
   -5.9848   -1.0340   -0.8657 C   0  0  0  0  0  0  0  0  0  0  0  0
   -6.0633   -2.3019   -0.4310 N   0  0  0  0  0  0  0  0  0  0  0  0
   -4.9839   -2.7636    0.2168 C   0  0  0  0  0  0  0  0  0  0  0  0
   -3.8493   -2.0157    0.4306 C   0  0  0  0  0  0  0  0  0  0  0  0
   -3.8434   -0.7201   -0.0566 C   0  0  0  0  0  0  0  0  0  0  0  0
   -2.7223    0.1029    0.1433 N   0  0  0  0  0  0  0  0  0  0  0  0
   -2.9045    1.4985   -0.2818 C   0  0  0  0  0  0  0  0  0  0  0  0
   -1.7509    2.3868    0.2574 C   0  0  0  0  0  0  0  0  0  0  0  0
   -0.3945    1.7738    0.3398 N   0  0  0  0  0  0  0  0  0  0  0  0
   -0.1011    1.3950    1.7513 C   0  0  0  0  0  0  0  0  0  0  0  0
    1.3853    1.0627    1.9708 C   0  0  0  0  0  0  0  0  0  0  0  0
    1.7474    0.4255    2.9562 O   0  0  0  0  0  0  0  0  0  0  0  0
    2.2113    1.6465    1.0286 N   0  0  0  0  0  0  0  0  0  0  0  0
    3.5919    1.6376    1.0613 C   0  0  0  0  0  0  0  0  0  0  0  0
    4.4035    2.6448    0.5806 C   0  0  0  0  0  0  0  0  0  0  0  0
    5.7115    2.2524    0.8919 C   0  0  0  0  0  0  0  0  0  0  0  0
    5.7567    1.0533    1.4687 N   0  0  0  0  0  0  0  0  0  0  0  0
    4.4549    0.6454    1.4938 N   0  0  0  0  0  0  0  0  0  0  0  0
    4.2144   -0.7765    1.7179 C   0  0  0  0  0  0  0  0  0  0  0  0
    4.2855   -1.5465    0.4255 C   0  0  0  0  0  0  0  0  0  0  0  0
    5.4062   -1.8462   -0.3300 C   0  0  0  0  0  0  0  0  0  0  0  0
    5.0905   -2.6029   -1.4955 C   0  0  0  0  0  0  0  0  0  0  0  0
    3.7406   -2.8673   -1.5880 C   0  0  0  0  0  0  0  0  0  0  0  0
    2.8618   -2.1994   -0.2809 S   0  0  0  0  0  0  0  0  0  0  0  0
   -0.3604    0.5838   -0.5489 C   0  0  0  0  0  0  0  0  0  0  0  0
   -1.4396   -0.4978   -0.2771 C   0  0  0  0  0  0  0  0  0  0  0  0
   -4.9220   -0.2250   -0.6924 N   0  0  0  0  0  0  0  0  0  0  0  0
   -7.8469    0.0003   -0.8126 H   0  0  0  0  0  0  0  0  0  0  0  0
   -7.7374   -1.2433   -2.0819 H   0  0  0  0  0  0  0  0  0  0  0  0
   -6.8850    0.2993   -2.2808 H   0  0  0  0  0  0  0  0  0  0  0  0
   -5.0587   -3.7845    0.5795 H   0  0  0  0  0  0  0  0  0  0  0  0
   -3.0166   -2.4271    0.9829 H   0  0  0  0  0  0  0  0  0  0  0  0
   -2.9275    1.5559   -1.3785 H   0  0  0  0  0  0  0  0  0  0  0  0
   -3.8459    1.9141    0.0996 H   0  0  0  0  0  0  0  0  0  0  0  0
   -2.0498    2.7969    1.2318 H   0  0  0  0  0  0  0  0  0  0  0  0
   -1.6742    3.2610   -0.4031 H   0  0  0  0  0  0  0  0  0  0  0  0
   -0.7108    0.5546    2.0971 H   0  0  0  0  0  0  0  0  0  0  0  0
   -0.2943    2.2503    2.4110 H   0  0  0  0  0  0  0  0  0  0  0  0
    1.7475    2.3582    0.4665 H   0  0  0  0  0  0  0  0  0  0  0  0
    4.0892    3.5718    0.1239 H   0  0  0  0  0  0  0  0  0  0  0  0
    6.6358    2.7893    0.7231 H   0  0  0  0  0  0  0  0  0  0  0  0
    4.9929   -1.1296    2.4079 H   0  0  0  0  0  0  0  0  0  0  0  0
    3.2641   -0.9325    2.2201 H   0  0  0  0  0  0  0  0  0  0  0  0
    6.4073   -1.5229   -0.0578 H   0  0  0  0  0  0  0  0  0  0  0  0
    5.8182   -2.9378   -2.2258 H   0  0  0  0  0  0  0  0  0  0  0  0
    3.2272   -3.4207   -2.3634 H   0  0  0  0  0  0  0  0  0  0  0  0
   -0.4805    0.9427   -1.5810 H   0  0  0  0  0  0  0  0  0  0  0  0
    0.6282    0.1127   -0.5347 H   0  0  0  0  0  0  0  0  0  0  0  0
   -1.5597   -1.0967   -1.1906 H   0  0  0  0  0  0  0  0  0  0  0  0
   -1.0798   -1.1636    0.5177 H   0  0  0  0  0  0  0  0  0  0  0  0
  1  2  1  0
  2  3  2  0
  3  4  1  0
  4  5  2  0
  5  6  1  0
  6  7  1  0
  7  8  1  0
  8  9  1  0
  9 10  1  0
 10 11  1  0
 11 12  1  0
 12 13  2  0
 12 14  1  0
 14 15  1  0
 15 16  2  0
 16 17  1  0
 17 18  2  0
 18 19  1  0
 19 20  1  0
 20 21  1  0
 21 22  2  0
 22 23  1  0
 23 24  2  0
 24 25  1  0
 10 26  1  0
 26 27  1  0
  6 28  2  0
 28  2  1  0
 27  7  1  0
 19 15  1  0
 25 21  1  0
  1 29  1  0
  1 30  1  0
  1 31  1  0
  4 32  1  0
  5 33  1  0
  8 34  1  0
  8 35  1  0
  9 36  1  0
  9 37  1  0
 11 38  1  0
 11 39  1  0
 14 40  1  0
 16 41  1  0
 17 42  1  0
 20 43  1  0
 20 44  1  0
 22 45  1  0
 23 46  1  0
 24 47  1  0
 26 48  1  0
 26 49  1  0
 27 50  1  0
 27 51  1  0
M  END
$$$$
OCNT-2317310
     RDKit          3D

 45 47  0  0  0  0  0  0  0  0999 V2000
    3.0860   -1.5643   -0.6389 O   0  0  0  0  0  0  0  0  0  0  0  0
    2.6074   -0.6158   -0.0291 C   0  0  0  0  0  0  0  0  0  0  0  0
    1.1446   -0.5737    0.3862 C   0  0  0  0  0  0  0  0  0  0  0  0
    0.3923   -1.8269   -0.0738 C   0  0  0  0  0  0  0  0  0  0  0  0
   -1.0329   -1.9173    0.2798 N   0  0  0  0  0  0  0  0  0  0  0  0
   -1.2810   -1.9905    1.7288 C   0  0  0  0  0  0  0  0  0  0  0  0
   -2.7804   -2.1751    2.0150 C   0  0  0  0  0  0  0  0  0  0  0  0
   -3.5520   -1.1046    1.4534 O   0  0  0  0  0  0  0  0  0  0  0  0
   -3.3641   -1.0496    0.0248 C   0  0  0  0  0  0  0  0  0  0  0  0
   -4.2017    0.0767   -0.5515 C   0  0  0  0  0  0  0  0  0  0  0  0
   -4.4413    1.2600    0.1679 C   0  0  0  0  0  0  0  0  0  0  0  0
   -5.1940    2.2983   -0.3885 C   0  0  0  0  0  0  0  0  0  0  0  0
   -5.7126    2.1685   -1.6746 C   0  0  0  0  0  0  0  0  0  0  0  0
   -5.4745    1.0029   -2.3920 C   0  0  0  0  0  0  0  0  0  0  0  0
   -5.9695    0.8787   -3.6306 F   0  0  0  0  0  0  0  0  0  0  0  0
   -4.7270   -0.0371   -1.8476 C   0  0  0  0  0  0  0  0  0  0  0  0
   -1.8627   -0.8510   -0.3152 C   0  0  0  0  0  0  0  0  0  0  0  0
    3.2775    0.5294    0.3747 N   0  0  0  0  0  0  0  0  0  0  0  0
    4.6371    0.8473    0.1743 C   0  0  0  0  0  0  0  0  0  0  0  0
    5.5458    0.0187   -0.4857 C   0  0  0  0  0  0  0  0  0  0  0  0
    6.8797    0.4109   -0.6415 C   0  0  0  0  0  0  0  0  0  0  0  0
    7.3160    1.6342   -0.1390 C   0  0  0  0  0  0  0  0  0  0  0  0
    6.4185    2.4683    0.5209 C   0  0  0  0  0  0  0  0  0  0  0  0
    5.0861    2.0765    0.6765 C   0  0  0  0  0  0  0  0  0  0  0  0
    1.1121   -0.4829    1.4773 H   0  0  0  0  0  0  0  0  0  0  0  0
    0.6998    0.3254   -0.0540 H   0  0  0  0  0  0  0  0  0  0  0  0
    0.8982   -2.7179    0.3214 H   0  0  0  0  0  0  0  0  0  0  0  0
    0.4784   -1.9168   -1.1649 H   0  0  0  0  0  0  0  0  0  0  0  0
   -0.9450   -1.0701    2.2209 H   0  0  0  0  0  0  0  0  0  0  0  0
   -0.7318   -2.8324    2.1648 H   0  0  0  0  0  0  0  0  0  0  0  0
   -2.9521   -2.1717    3.0961 H   0  0  0  0  0  0  0  0  0  0  0  0
   -3.1471   -3.1319    1.6239 H   0  0  0  0  0  0  0  0  0  0  0  0
   -3.7243   -2.0004   -0.3918 H   0  0  0  0  0  0  0  0  0  0  0  0
   -4.0465    1.3729    1.1765 H   0  0  0  0  0  0  0  0  0  0  0  0
   -5.3770    3.2036    0.1844 H   0  0  0  0  0  0  0  0  0  0  0  0
   -6.3002    2.9642   -2.1205 H   0  0  0  0  0  0  0  0  0  0  0  0
   -4.5633   -0.9306   -2.4435 H   0  0  0  0  0  0  0  0  0  0  0  0
   -1.7345   -0.8473   -1.4046 H   0  0  0  0  0  0  0  0  0  0  0  0
   -1.5399    0.1281    0.0612 H   0  0  0  0  0  0  0  0  0  0  0  0
    2.7332    1.2243    0.8699 H   0  0  0  0  0  0  0  0  0  0  0  0
    5.2516   -0.9430   -0.8938 H   0  0  0  0  0  0  0  0  0  0  0  0
    7.5758   -0.2454   -1.1581 H   0  0  0  0  0  0  0  0  0  0  0  0
    8.3531    1.9347   -0.2626 H   0  0  0  0  0  0  0  0  0  0  0  0
    6.7544    3.4241    0.9146 H   0  0  0  0  0  0  0  0  0  0  0  0
    4.4077    2.7482    1.1957 H   0  0  0  0  0  0  0  0  0  0  0  0
  1  2  2  0
  2  3  1  0
  3  4  1  0
  4  5  1  0
  5  6  1  0
  6  7  1  0
  7  8  1  0
  8  9  1  0
  9 10  1  0
 10 11  2  0
 11 12  1  0
 12 13  2  0
 13 14  1  0
 14 15  1  0
 14 16  2  0
  9 17  1  0
  2 18  1  0
 18 19  1  0
 19 20  2  0
 20 21  1  0
 21 22  2  0
 22 23  1  0
 23 24  2  0
 17  5  1  0
 24 19  1  0
 16 10  1  0
  3 25  1  0
  3 26  1  0
  4 27  1  0
  4 28  1  0
  6 29  1  0
  6 30  1  0
  7 31  1  0
  7 32  1  0
  9 33  1  0
 11 34  1  0
 12 35  1  0
 13 36  1  0
 16 37  1  0
 17 38  1  0
 17 39  1  0
 18 40  1  0
 20 41  1  0
 21 42  1  0
 22 43  1  0
 23 44  1  0
 24 45  1  0
M  END
$$$$
OCNT-2317311
     RDKit          3D

 48 50  0  0  0  0  0  0  0  0999 V2000
   -4.5993    1.4636    2.0051 C   0  0  0  0  0  0  0  0  0  0  0  0
   -5.0671    0.6654    0.8180 C   0  0  0  0  0  0  0  0  0  0  0  0
   -6.4508    0.5586    0.5927 C   0  0  0  0  0  0  0  0  0  0  0  0
   -6.9363   -0.1657   -0.4885 C   0  0  0  0  0  0  0  0  0  0  0  0
   -8.2586   -0.2545   -0.6837 F   0  0  0  0  0  0  0  0  0  0  0  0
   -6.0715   -0.7968   -1.3662 C   0  0  0  0  0  0  0  0  0  0  0  0
   -4.6961   -0.7011   -1.1579 C   0  0  0  0  0  0  0  0  0  0  0  0
   -4.1685    0.0269   -0.0700 C   0  0  0  0  0  0  0  0  0  0  0  0
   -2.6559    0.1014    0.1168 C   0  0  0  0  0  0  0  0  0  0  0  0
   -1.9565    0.7746   -1.0757 C   0  0  0  0  0  0  0  0  0  0  0  0
   -0.4464    0.8387   -0.8466 C   0  0  0  0  0  0  0  0  0  0  0  0
    0.0728   -0.5181   -0.6026 N   0  0  0  0  0  0  0  0  0  0  0  0
    1.4871   -0.5459   -0.5575 C   0  0  0  0  0  0  0  0  0  0  0  0
    2.1534   -1.7661   -0.6430 C   0  0  0  0  0  0  0  0  0  0  0  0
    3.5472   -1.8085   -0.6115 C   0  0  0  0  0  0  0  0  0  0  0  0
    4.2438   -0.6189   -0.4918 C   0  0  0  0  0  0  0  0  0  0  0  0
    5.7377   -0.6228   -0.4961 C   0  0  0  0  0  0  0  0  0  0  0  0
    6.2967   -1.5824   -1.0338 O   0  0  0  0  0  0  0  0  0  0  0  0
    6.4640    0.4205    0.0906 N   0  0  0  0  0  0  0  0  0  0  0  0
    7.8942    0.5020   -0.1522 C   0  0  0  0  0  0  0  0  0  0  0  0
    5.8915    1.4749    0.9154 C   0  0  0  0  0  0  0  0  0  0  0  0
    3.5969    0.5619   -0.4395 N   0  0  0  0  0  0  0  0  0  0  0  0
    2.2151    0.5908   -0.4692 N   0  0  0  0  0  0  0  0  0  0  0  0
   -0.5272   -1.1818    0.5667 C   0  0  0  0  0  0  0  0  0  0  0  0
   -2.0413   -1.2835    0.3797 C   0  0  0  0  0  0  0  0  0  0  0  0
   -4.0253    0.8290    2.6878 H   0  0  0  0  0  0  0  0  0  0  0  0
   -3.9851    2.3082    1.6771 H   0  0  0  0  0  0  0  0  0  0  0  0
   -5.4415    1.8739    2.5729 H   0  0  0  0  0  0  0  0  0  0  0  0
   -7.1657    1.0380    1.2557 H   0  0  0  0  0  0  0  0  0  0  0  0
   -6.4691   -1.3579   -2.2054 H   0  0  0  0  0  0  0  0  0  0  0  0
   -4.0330   -1.2045   -1.8591 H   0  0  0  0  0  0  0  0  0  0  0  0
   -2.4314    0.7154    0.9965 H   0  0  0  0  0  0  0  0  0  0  0  0
   -2.1515    0.2224   -2.0036 H   0  0  0  0  0  0  0  0  0  0  0  0
   -2.3484    1.7886   -1.2216 H   0  0  0  0  0  0  0  0  0  0  0  0
   -0.2309    1.5010    0.0027 H   0  0  0  0  0  0  0  0  0  0  0  0
    0.0138    1.2718   -1.7440 H   0  0  0  0  0  0  0  0  0  0  0  0
    1.5946   -2.6882   -0.7658 H   0  0  0  0  0  0  0  0  0  0  0  0
    4.0730   -2.7544   -0.6930 H   0  0  0  0  0  0  0  0  0  0  0  0
    8.1239    1.4867   -0.5706 H   0  0  0  0  0  0  0  0  0  0  0  0
    8.2418   -0.2635   -0.8504 H   0  0  0  0  0  0  0  0  0  0  0  0
    8.4193    0.3783    0.7995 H   0  0  0  0  0  0  0  0  0  0  0  0
    5.0294    1.1096    1.4780 H   0  0  0  0  0  0  0  0  0  0  0  0
    6.6382    1.8200    1.6376 H   0  0  0  0  0  0  0  0  0  0  0  0
    5.6022    2.3090    0.2704 H   0  0  0  0  0  0  0  0  0  0  0  0
   -0.2998   -0.6204    1.4828 H   0  0  0  0  0  0  0  0  0  0  0  0
   -0.1394   -2.1986    0.6987 H   0  0  0  0  0  0  0  0  0  0  0  0
   -2.4907   -1.7333    1.2735 H   0  0  0  0  0  0  0  0  0  0  0  0
   -2.2494   -1.9641   -0.4557 H   0  0  0  0  0  0  0  0  0  0  0  0
  1  2  1  0
  2  3  1  0
  3  4  2  0
  4  5  1  0
  4  6  1  0
  6  7  2  0
  7  8  1  0
  8  9  1  0
  9 10  1  0
 10 11  1  0
 11 12  1  0
 12 13  1  0
 13 14  2  0
 14 15  1  0
 15 16  2  0
 16 17  1  0
 17 18  2  0
 17 19  1  0
 19 20  1  0
 19 21  1  0
 16 22  1  0
 22 23  2  0
 12 24  1  0
 24 25  1  0
  8  2  2  0
 25  9  1  0
 23 13  1  0
  1 26  1  0
  1 27  1  0
  1 28  1  0
  3 29  1  0
  6 30  1  0
  7 31  1  0
  9 32  1  0
 10 33  1  0
 10 34  1  0
 11 35  1  0
 11 36  1  0
 14 37  1  0
 15 38  1  0
 20 39  1  0
 20 40  1  0
 20 41  1  0
 21 42  1  0
 21 43  1  0
 21 44  1  0
 24 45  1  0
 24 46  1  0
 25 47  1  0
 25 48  1  0
M  END
$$$$
OCNT-2317322
     RDKit          3D

 49 51  0  0  0  0  0  0  0  0999 V2000
   -3.5834    2.7306    0.9509 O   0  0  0  0  0  0  0  0  0  0  0  0
   -3.1698    1.5829    1.0845 C   0  0  0  0  0  0  0  0  0  0  0  0
   -1.8644    1.2967    1.8424 C   0  0  0  0  0  0  0  0  0  0  0  0
   -0.9313    0.5507    0.9724 N   0  0  0  0  0  0  0  0  0  0  0  0
   -0.3783    1.4233   -0.0840 C   0  0  0  0  0  0  0  0  0  0  0  0
    1.0781    1.0036   -0.2649 C   0  0  0  0  0  0  0  0  0  0  0  0
    1.2520   -0.2154    0.6301 C   0  0  0  0  0  0  0  0  0  0  0  0
    2.6591   -0.4336    1.2139 C   0  0  0  0  0  0  0  0  0  0  0  0
    3.7771   -0.6656    0.2977 N   0  0  0  0  0  0  0  0  0  0  0  0
    3.6324   -1.8471   -0.5579 C   0  0  0  0  0  0  0  0  0  0  0  0
    4.5869   -1.8574   -1.7570 C   0  0  0  0  0  0  0  0  0  0  0  0
    5.9105   -1.1874   -1.4267 C   0  0  0  0  0  0  0  0  0  0  0  0
    5.7040    0.2379   -0.9049 C   0  0  0  0  0  0  0  0  0  0  0  0
    4.2841    0.5070   -0.3998 C   0  0  0  0  0  0  0  0  0  0  0  0
    0.2164    0.0394    1.7282 C   0  0  0  0  0  0  0  0  0  0  0  0
   -3.7432    0.4056    0.6294 N   0  0  0  0  0  0  0  0  0  0  0  0
   -4.9688    0.2010   -0.0339 C   0  0  0  0  0  0  0  0  0  0  0  0
   -5.1848   -1.0944   -0.5321 C   0  0  0  0  0  0  0  0  0  0  0  0
   -6.3638   -1.4110   -1.2091 C   0  0  0  0  0  0  0  0  0  0  0  0
   -6.5495   -2.6603   -1.6693 F   0  0  0  0  0  0  0  0  0  0  0  0
   -7.3509   -0.4564   -1.4049 C   0  0  0  0  0  0  0  0  0  0  0  0
   -7.1574    0.8297   -0.9020 C   0  0  0  0  0  0  0  0  0  0  0  0
   -5.9811    1.1525   -0.2145 C   0  0  0  0  0  0  0  0  0  0  0  0
   -5.8939    2.3930    0.2824 F   0  0  0  0  0  0  0  0  0  0  0  0
   -1.4313    2.2399    2.1948 H   0  0  0  0  0  0  0  0  0  0  0  0
   -2.1305    0.7048    2.7251 H   0  0  0  0  0  0  0  0  0  0  0  0
   -0.9428    1.2871   -1.0125 H   0  0  0  0  0  0  0  0  0  0  0  0
   -0.4095    2.4907    0.1750 H   0  0  0  0  0  0  0  0  0  0  0  0
    1.7320    1.8250    0.0641 H   0  0  0  0  0  0  0  0  0  0  0  0
    1.3036    0.7746   -1.3135 H   0  0  0  0  0  0  0  0  0  0  0  0
    0.9386   -1.1090    0.0713 H   0  0  0  0  0  0  0  0  0  0  0  0
    2.9142    0.4094    1.8743 H   0  0  0  0  0  0  0  0  0  0  0  0
    2.6068   -1.2992    1.8906 H   0  0  0  0  0  0  0  0  0  0  0  0
    2.6212   -1.9474   -0.9581 H   0  0  0  0  0  0  0  0  0  0  0  0
    3.8182   -2.7356    0.0597 H   0  0  0  0  0  0  0  0  0  0  0  0
    4.1227   -1.3330   -2.6051 H   0  0  0  0  0  0  0  0  0  0  0  0
    4.7547   -2.8908   -2.0775 H   0  0  0  0  0  0  0  0  0  0  0  0
    6.4277   -1.7785   -0.6572 H   0  0  0  0  0  0  0  0  0  0  0  0
    6.5638   -1.1785   -2.3029 H   0  0  0  0  0  0  0  0  0  0  0  0
    6.4252    0.4150   -0.0978 H   0  0  0  0  0  0  0  0  0  0  0  0
    5.9356    0.9675   -1.6965 H   0  0  0  0  0  0  0  0  0  0  0  0
    4.3205    1.3741    0.2666 H   0  0  0  0  0  0  0  0  0  0  0  0
    3.6421    0.7798   -1.2463 H   0  0  0  0  0  0  0  0  0  0  0  0
   -0.0438   -0.8962    2.2495 H   0  0  0  0  0  0  0  0  0  0  0  0
    0.5832    0.7702    2.4747 H   0  0  0  0  0  0  0  0  0  0  0  0
   -3.1048   -0.3858    0.6750 H   0  0  0  0  0  0  0  0  0  0  0  0
   -4.4458   -1.8798   -0.4073 H   0  0  0  0  0  0  0  0  0  0  0  0
   -8.2608   -0.7218   -1.9343 H   0  0  0  0  0  0  0  0  0  0  0  0
   -7.9206    1.5921   -1.0242 H   0  0  0  0  0  0  0  0  0  0  0  0
  1  2  2  0
  2  3  1  0
  3  4  1  0
  4  5  1  0
  5  6  1  0
  6  7  1  0
  7  8  1  0
  8  9  1  0
  9 10  1  0
 10 11  1  0
 11 12  1  0
 12 13  1  0
 13 14  1  0
  7 15  1  0
  2 16  1  0
 16 17  1  0
 17 18  1  0
 18 19  2  0
 19 20  1  0
 19 21  1  0
 21 22  2  0
 22 23  1  0
 23 24  1  0
 15  4  1  0
 23 17  2  0
 14  9  1  0
  3 25  1  0
  3 26  1  0
  5 27  1  0
  5 28  1  0
  6 29  1  0
  6 30  1  0
  7 31  1  0
  8 32  1  0
  8 33  1  0
 10 34  1  0
 10 35  1  0
 11 36  1  0
 11 37  1  0
 12 38  1  0
 12 39  1  0
 13 40  1  0
 13 41  1  0
 14 42  1  0
 14 43  1  0
 15 44  1  0
 15 45  1  0
 16 46  1  0
 18 47  1  0
 21 48  1  0
 22 49  1  0
M  END
$$$$
OCNT-2317326
     RDKit          3D

 48 50  0  0  0  0  0  0  0  0999 V2000
   -1.3154    2.4316    1.2506 O   0  0  0  0  0  0  0  0  0  0  0  0
   -1.4574    1.3032    0.7594 C   0  0  0  0  0  0  0  0  0  0  0  0
   -0.3189    0.2725    0.9675 C   0  0  0  0  0  0  0  0  0  0  0  0
   -0.6069   -0.6470    2.1738 C   0  0  0  0  0  0  0  0  0  0  0  0
   -0.7871   -2.1261    1.8464 C   0  0  0  0  0  0  0  0  0  0  0  0
    0.1720   -2.6491    0.7780 C   0  0  0  0  0  0  0  0  0  0  0  0
    0.9556   -1.5592    0.0470 C   0  0  0  0  0  0  0  0  0  0  0  0
    0.0713   -0.4397   -0.2723 N   0  0  0  0  0  0  0  0  0  0  0  0
    0.5958    0.4386   -1.3367 C   0  0  0  0  0  0  0  0  0  0  0  0
    1.7641    1.4086   -1.0516 C   0  0  0  0  0  0  0  0  0  0  0  0
    3.1037    0.7708   -0.7739 C   0  0  0  0  0  0  0  0  0  0  0  0
    3.7520    0.0030   -1.7561 C   0  0  0  0  0  0  0  0  0  0  0  0
    4.9938   -0.5823   -1.4953 C   0  0  0  0  0  0  0  0  0  0  0  0
    5.5942   -0.3964   -0.2554 C   0  0  0  0  0  0  0  0  0  0  0  0
    6.7838   -0.9623   -0.0098 F   0  0  0  0  0  0  0  0  0  0  0  0
    4.9682    0.3692    0.7192 C   0  0  0  0  0  0  0  0  0  0  0  0
    5.5490    0.5479    1.9136 F   0  0  0  0  0  0  0  0  0  0  0  0
    3.7311    0.9566    0.4679 C   0  0  0  0  0  0  0  0  0  0  0  0
   -2.6230    0.9737    0.0897 N   0  0  0  0  0  0  0  0  0  0  0  0
   -3.6642    1.9957   -0.0598 C   0  0  0  0  0  0  0  0  0  0  0  0
   -4.4563    1.8019   -1.3561 C   0  0  0  0  0  0  0  0  0  0  0  0
   -5.0856    0.5171   -1.4605 O   0  0  0  0  0  0  0  0  0  0  0  0
   -4.4041   -0.5228   -0.7461 C   0  0  0  0  0  0  0  0  0  0  0  0
   -2.8968   -0.2850   -0.6070 C   0  0  0  0  0  0  0  0  0  0  0  0
    0.5401    0.8791    1.2864 H   0  0  0  0  0  0  0  0  0  0  0  0
    0.2500   -0.5754    2.8583 H   0  0  0  0  0  0  0  0  0  0  0  0
   -1.4768   -0.2963    2.7421 H   0  0  0  0  0  0  0  0  0  0  0  0
   -0.6720   -2.7183    2.7628 H   0  0  0  0  0  0  0  0  0  0  0  0
   -1.8182   -2.3072    1.5248 H   0  0  0  0  0  0  0  0  0  0  0  0
   -0.4042   -3.2358    0.0508 H   0  0  0  0  0  0  0  0  0  0  0  0
    0.8830   -3.3483    1.2348 H   0  0  0  0  0  0  0  0  0  0  0  0
    1.8002   -1.2415    0.6683 H   0  0  0  0  0  0  0  0  0  0  0  0
    1.3731   -2.0047   -0.8640 H   0  0  0  0  0  0  0  0  0  0  0  0
   -0.2410    1.0556   -1.6891 H   0  0  0  0  0  0  0  0  0  0  0  0
    0.8461   -0.1848   -2.2052 H   0  0  0  0  0  0  0  0  0  0  0  0
    1.4951    2.0989   -0.2437 H   0  0  0  0  0  0  0  0  0  0  0  0
    1.8919    2.0520   -1.9333 H   0  0  0  0  0  0  0  0  0  0  0  0
    3.2940   -0.1427   -2.7327 H   0  0  0  0  0  0  0  0  0  0  0  0
    5.4963   -1.1781   -2.2509 H   0  0  0  0  0  0  0  0  0  0  0  0
    3.2658    1.5515    1.2491 H   0  0  0  0  0  0  0  0  0  0  0  0
   -4.3283    1.8888    0.8058 H   0  0  0  0  0  0  0  0  0  0  0  0
   -3.2292    2.9998   -0.0348 H   0  0  0  0  0  0  0  0  0  0  0  0
   -3.7967    1.9172   -2.2242 H   0  0  0  0  0  0  0  0  0  0  0  0
   -5.2409    2.5606   -1.4383 H   0  0  0  0  0  0  0  0  0  0  0  0
   -4.5921   -1.4628   -1.2744 H   0  0  0  0  0  0  0  0  0  0  0  0
   -4.8689   -0.6039    0.2434 H   0  0  0  0  0  0  0  0  0  0  0  0
   -2.4418   -1.1214   -0.0860 H   0  0  0  0  0  0  0  0  0  0  0  0
   -2.4444   -0.2028   -1.6016 H   0  0  0  0  0  0  0  0  0  0  0  0
  1  2  2  0
  2  3  1  0
  3  4  1  0
  4  5  1  0
  5  6  1  0
  6  7  1  0
  7  8  1  0
  8  9  1  0
  9 10  1  0
 10 11  1  0
 11 12  1  0
 12 13  2  0
 13 14  1  0
 14 15  1  0
 14 16  2  0
 16 17  1  0
 16 18  1  0
  2 19  1  0
 19 20  1  0
 20 21  1  0
 21 22  1  0
 22 23  1  0
 23 24  1  0
  8  3  1  0
 18 11  2  0
 24 19  1  0
  3 25  1  0
  4 26  1  0
  4 27  1  0
  5 28  1  0
  5 29  1  0
  6 30  1  0
  6 31  1  0
  7 32  1  0
  7 33  1  0
  9 34  1  0
  9 35  1  0
 10 36  1  0
 10 37  1  0
 12 38  1  0
 13 39  1  0
 18 40  1  0
 20 41  1  0
 20 42  1  0
 21 43  1  0
 21 44  1  0
 23 45  1  0
 23 46  1  0
 24 47  1  0
 24 48  1  0
M  END
$$$$
OCNT-2317327
     RDKit          3D

 52 54  0  0  0  0  0  0  0  0999 V2000
    6.0918   -0.7869   -2.6423 C   0  0  0  0  0  0  0  0  0  0  0  0
    5.3239   -1.1021   -1.3744 C   0  0  0  0  0  0  0  0  0  0  0  0
    4.3962   -0.0445   -1.1369 O   0  0  0  0  0  0  0  0  0  0  0  0
    3.6589   -0.2208    0.0873 C   0  0  0  0  0  0  0  0  0  0  0  0
    2.1809   -0.1041   -0.2728 C   0  0  0  0  0  0  0  0  0  0  0  0
    1.1772   -1.0252    0.8793 S   0  0  0  0  0  0  0  0  0  0  0  0
    1.2724   -0.3918    2.1773 O   0  0  0  0  0  0  0  0  0  0  0  0
    1.4366   -2.4397    0.7178 O   0  0  0  0  0  0  0  0  0  0  0  0
   -0.3935   -0.7320    0.2906 N   0  0  0  0  0  0  0  0  0  0  0  0
   -0.7654   -1.3850   -0.9821 C   0  0  0  0  0  0  0  0  0  0  0  0
   -1.6152   -0.4437   -1.8265 C   0  0  0  0  0  0  0  0  0  0  0  0
   -2.5447    0.4866   -1.0484 C   0  0  0  0  0  0  0  0  0  0  0  0
   -3.4522   -0.2447   -0.1610 N   0  0  0  0  0  0  0  0  0  0  0  0
   -4.7179    0.2880    0.1073 C   0  0  0  0  0  0  0  0  0  0  0  0
   -5.7707   -0.5645    0.4979 C   0  0  0  0  0  0  0  0  0  0  0  0
   -7.0540   -0.0763    0.7674 C   0  0  0  0  0  0  0  0  0  0  0  0
   -7.3035    1.2818    0.6466 C   0  0  0  0  0  0  0  0  0  0  0  0
   -8.5308    1.7536    0.9039 F   0  0  0  0  0  0  0  0  0  0  0  0
   -6.2873    2.1420    0.2602 C   0  0  0  0  0  0  0  0  0  0  0  0
   -6.5248    3.4565    0.1459 F   0  0  0  0  0  0  0  0  0  0  0  0
   -5.0083    1.6554   -0.0099 C   0  0  0  0  0  0  0  0  0  0  0  0
   -2.8876   -1.1180    0.8948 C   0  0  0  0  0  0  0  0  0  0  0  0
   -1.4559   -0.7724    1.3575 C   0  0  0  0  0  0  0  0  0  0  0  0
    4.0769    0.8299    1.0921 C   0  0  0  0  0  0  0  0  0  0  0  0
    4.2623    2.2739    0.6909 C   0  0  0  0  0  0  0  0  0  0  0  0
    5.4543    1.4517    1.0974 C   0  0  0  0  0  0  0  0  0  0  0  0
    6.6281    0.1623   -2.5413 H   0  0  0  0  0  0  0  0  0  0  0  0
    6.8125   -1.5775   -2.8687 H   0  0  0  0  0  0  0  0  0  0  0  0
    5.4081   -0.6779   -3.4906 H   0  0  0  0  0  0  0  0  0  0  0  0
    4.7790   -2.0452   -1.4934 H   0  0  0  0  0  0  0  0  0  0  0  0
    6.0171   -1.1899   -0.5309 H   0  0  0  0  0  0  0  0  0  0  0  0
    3.8745   -1.2083    0.5143 H   0  0  0  0  0  0  0  0  0  0  0  0
    2.0021   -0.5205   -1.2684 H   0  0  0  0  0  0  0  0  0  0  0  0
    1.8358    0.9347   -0.2629 H   0  0  0  0  0  0  0  0  0  0  0  0
   -1.2794   -2.3334   -0.7969 H   0  0  0  0  0  0  0  0  0  0  0  0
    0.1210   -1.6516   -1.5669 H   0  0  0  0  0  0  0  0  0  0  0  0
   -2.1947   -1.0411   -2.5413 H   0  0  0  0  0  0  0  0  0  0  0  0
   -0.9462    0.1865   -2.4269 H   0  0  0  0  0  0  0  0  0  0  0  0
   -1.9751    1.2358   -0.4845 H   0  0  0  0  0  0  0  0  0  0  0  0
   -3.1158    1.0391   -1.8064 H   0  0  0  0  0  0  0  0  0  0  0  0
   -5.5998   -1.6368    0.5706 H   0  0  0  0  0  0  0  0  0  0  0  0
   -7.8532   -0.7489    1.0611 H   0  0  0  0  0  0  0  0  0  0  0  0
   -4.2469    2.3759   -0.2884 H   0  0  0  0  0  0  0  0  0  0  0  0
   -2.9340   -2.1548    0.5422 H   0  0  0  0  0  0  0  0  0  0  0  0
   -3.5100   -1.0883    1.7996 H   0  0  0  0  0  0  0  0  0  0  0  0
   -1.1765   -1.5126    2.1174 H   0  0  0  0  0  0  0  0  0  0  0  0
   -1.4679    0.2137    1.8378 H   0  0  0  0  0  0  0  0  0  0  0  0
    3.6392    0.6398    2.0679 H   0  0  0  0  0  0  0  0  0  0  0  0
    3.9145    3.0386    1.3760 H   0  0  0  0  0  0  0  0  0  0  0  0
    4.1722    2.5415   -0.3562 H   0  0  0  0  0  0  0  0  0  0  0  0
    6.1653    1.1893    0.3234 H   0  0  0  0  0  0  0  0  0  0  0  0
    5.9105    1.6619    2.0584 H   0  0  0  0  0  0  0  0  0  0  0  0
  1  2  1  0
  2  3  1  0
  3  4  1  0
  4  5  1  0
  5  6  1  0
  6  7  2  0
  6  8  2  0
  6  9  1  0
  9 10  1  0
 10 11  1  0
 11 12  1  0
 12 13  1  0
 13 14  1  0
 14 15  1  0
 15 16  2  0
 16 17  1  0
 17 18  1  0
 17 19  2  0
 19 20  1  0
 19 21  1  0
 13 22  1  0
 22 23  1  0
  4 24  1  0
 24 25  1  0
 25 26  1  0
 23  9  1  0
 26 24  1  0
 21 14  2  0
  1 27  1  0
  1 28  1  0
  1 29  1  0
  2 30  1  0
  2 31  1  0
  4 32  1  0
  5 33  1  0
  5 34  1  0
 10 35  1  0
 10 36  1  0
 11 37  1  0
 11 38  1  0
 12 39  1  0
 12 40  1  0
 15 41  1  0
 16 42  1  0
 21 43  1  0
 22 44  1  0
 22 45  1  0
 23 46  1  0
 23 47  1  0
 24 48  1  0
 25 49  1  0
 25 50  1  0
 26 51  1  0
 26 52  1  0
M  END
$$$$
OCNT-2317332
     RDKit          3D

 56 58  0  0  0  0  0  0  0  0999 V2000
    3.7874   -3.6395    1.5452 C   0  0  0  0  0  0  0  0  0  0  0  0
    4.3013   -2.2247    1.3272 C   0  0  0  0  0  0  0  0  0  0  0  0
    3.3543   -1.4094    0.5670 N   0  0  0  0  0  0  0  0  0  0  0  0
    3.3862   -1.5406   -0.8895 C   0  0  0  0  0  0  0  0  0  0  0  0
    3.8164   -0.2815   -1.6054 C   0  0  0  0  0  0  0  0  0  0  0  0
    3.1871    0.0928   -2.8050 C   0  0  0  0  0  0  0  0  0  0  0  0
    3.5886    1.2396   -3.4964 C   0  0  0  0  0  0  0  0  0  0  0  0
    4.6319    2.0195   -3.0027 C   0  0  0  0  0  0  0  0  0  0  0  0
    5.2668    1.6449   -1.8255 C   0  0  0  0  0  0  0  0  0  0  0  0
    6.2740    2.3913   -1.3546 F   0  0  0  0  0  0  0  0  0  0  0  0
    4.8751    0.5058   -1.1289 C   0  0  0  0  0  0  0  0  0  0  0  0
    2.3567   -0.7308    1.2770 C   0  0  0  0  0  0  0  0  0  0  0  0
    2.3108   -0.7924    2.5091 O   0  0  0  0  0  0  0  0  0  0  0  0
    1.3578    0.1233    0.4592 C   0  0  0  0  0  0  0  0  0  0  0  0
    0.1212    0.4409    1.2097 N   0  0  0  0  0  0  0  0  0  0  0  0
   -0.6322   -0.7872    1.5476 C   0  0  0  0  0  0  0  0  0  0  0  0
   -2.1568   -0.5615    1.6415 C   0  0  0  0  0  0  0  0  0  0  0  0
   -2.7325   -0.1462    0.3473 N   0  0  0  0  0  0  0  0  0  0  0  0
   -4.1419    0.2683    0.4602 C   0  0  0  0  0  0  0  0  0  0  0  0
   -4.3838    1.6456    1.1022 C   0  0  0  0  0  0  0  0  0  0  0  0
   -5.8752    1.9596    1.1215 C   0  0  0  0  0  0  0  0  0  0  0  0
   -6.4231    1.8992   -0.1943 O   0  0  0  0  0  0  0  0  0  0  0  0
   -6.3094    0.5968   -0.7656 C   0  0  0  0  0  0  0  0  0  0  0  0
   -4.8471    0.1940   -0.9055 C   0  0  0  0  0  0  0  0  0  0  0  0
   -1.8386    0.7714   -0.3825 C   0  0  0  0  0  0  0  0  0  0  0  0
   -0.7211    1.4056    0.4782 C   0  0  0  0  0  0  0  0  0  0  0  0
    4.5143   -4.2238    2.1174 H   0  0  0  0  0  0  0  0  0  0  0  0
    2.8413   -3.6356    2.0962 H   0  0  0  0  0  0  0  0  0  0  0  0
    3.6148   -4.1485    0.5914 H   0  0  0  0  0  0  0  0  0  0  0  0
    4.4901   -1.7564    2.2998 H   0  0  0  0  0  0  0  0  0  0  0  0
    5.2586   -2.2411    0.7941 H   0  0  0  0  0  0  0  0  0  0  0  0
    4.0780   -2.3442   -1.1701 H   0  0  0  0  0  0  0  0  0  0  0  0
    2.3915   -1.8585   -1.2206 H   0  0  0  0  0  0  0  0  0  0  0  0
    2.3741   -0.5068   -3.2120 H   0  0  0  0  0  0  0  0  0  0  0  0
    3.0897    1.5223   -4.4204 H   0  0  0  0  0  0  0  0  0  0  0  0
    4.9564    2.9123   -3.5276 H   0  0  0  0  0  0  0  0  0  0  0  0
    5.3997    0.2507   -0.2128 H   0  0  0  0  0  0  0  0  0  0  0  0
    1.8866    1.0547    0.2240 H   0  0  0  0  0  0  0  0  0  0  0  0
    1.0876   -0.3735   -0.4755 H   0  0  0  0  0  0  0  0  0  0  0  0
   -0.4553   -1.5762    0.8036 H   0  0  0  0  0  0  0  0  0  0  0  0
   -0.2777   -1.1691    2.5114 H   0  0  0  0  0  0  0  0  0  0  0  0
   -2.6295   -1.4994    1.9565 H   0  0  0  0  0  0  0  0  0  0  0  0
   -2.3531    0.1785    2.4268 H   0  0  0  0  0  0  0  0  0  0  0  0
   -4.6450   -0.4780    1.0928 H   0  0  0  0  0  0  0  0  0  0  0  0
   -3.9928    1.6831    2.1240 H   0  0  0  0  0  0  0  0  0  0  0  0
   -3.8761    2.4273    0.5256 H   0  0  0  0  0  0  0  0  0  0  0  0
   -6.0359    2.9732    1.5026 H   0  0  0  0  0  0  0  0  0  0  0  0
   -6.4206    1.2707    1.7774 H   0  0  0  0  0  0  0  0  0  0  0  0
   -6.7830    0.6234   -1.7522 H   0  0  0  0  0  0  0  0  0  0  0  0
   -6.8661   -0.1217   -0.1524 H   0  0  0  0  0  0  0  0  0  0  0  0
   -4.3685    0.8751   -1.6189 H   0  0  0  0  0  0  0  0  0  0  0  0
   -4.7804   -0.8184   -1.3205 H   0  0  0  0  0  0  0  0  0  0  0  0
   -1.3645    0.1889   -1.1829 H   0  0  0  0  0  0  0  0  0  0  0  0
   -2.3831    1.5727   -0.8925 H   0  0  0  0  0  0  0  0  0  0  0  0
   -1.1921    2.0608    1.2230 H   0  0  0  0  0  0  0  0  0  0  0  0
   -0.1125    2.0726   -0.1453 H   0  0  0  0  0  0  0  0  0  0  0  0
  1  2  1  0
  2  3  1  0
  3  4  1  0
  4  5  1  0
  5  6  2  0
  6  7  1  0
  7  8  2  0
  8  9  1  0
  9 10  1  0
  9 11  2  0
  3 12  1  0
 12 13  2  0
 12 14  1  0
 14 15  1  0
 15 16  1  0
 16 17  1  0
 17 18  1  0
 18 19  1  0
 19 20  1  0
 20 21  1  0
 21 22  1  0
 22 23  1  0
 23 24  1  0
 18 25  1  0
 25 26  1  0
 11  5  1  0
 26 15  1  0
 24 19  1  0
  1 27  1  0
  1 28  1  0
  1 29  1  0
  2 30  1  0
  2 31  1  0
  4 32  1  0
  4 33  1  0
  6 34  1  0
  7 35  1  0
  8 36  1  0
 11 37  1  0
 14 38  1  0
 14 39  1  0
 16 40  1  0
 16 41  1  0
 17 42  1  0
 17 43  1  0
 19 44  1  0
 20 45  1  0
 20 46  1  0
 21 47  1  0
 21 48  1  0
 23 49  1  0
 23 50  1  0
 24 51  1  0
 24 52  1  0
 25 53  1  0
 25 54  1  0
 26 55  1  0
 26 56  1  0
M  END
$$$$
OCNT-2317336
     RDKit          3D

 57 59  0  0  0  0  0  0  0  0999 V2000
    8.3816   -2.4041   -1.1811 C   0  0  0  0  0  0  0  0  0  0  0  0
    7.3715   -1.4875   -1.5879 O   0  0  0  0  0  0  0  0  0  0  0  0
    6.8152   -0.7119   -0.6017 C   0  0  0  0  0  0  0  0  0  0  0  0
    7.1377   -0.7498    0.7535 C   0  0  0  0  0  0  0  0  0  0  0  0
    6.4758    0.0936    1.6503 C   0  0  0  0  0  0  0  0  0  0  0  0
    5.4984    0.9822    1.1964 C   0  0  0  0  0  0  0  0  0  0  0  0
    5.1711    1.0499   -0.1644 C   0  0  0  0  0  0  0  0  0  0  0  0
    4.1046    2.0008   -0.6393 C   0  0  0  0  0  0  0  0  0  0  0  0
    2.8222    1.3414   -0.7512 N   0  0  0  0  0  0  0  0  0  0  0  0
    1.9588    1.2970    0.3105 C   0  0  0  0  0  0  0  0  0  0  0  0
    2.1286    1.8784    1.3732 O   0  0  0  0  0  0  0  0  0  0  0  0
    0.8635    0.5213    0.0194 N   0  0  0  0  0  0  0  0  0  0  0  0
   -0.2500    0.4089    0.9565 C   0  0  0  0  0  0  0  0  0  0  0  0
   -1.0440   -0.8700    0.6692 C   0  0  0  0  0  0  0  0  0  0  0  0
   -2.4824   -0.7351    1.1597 C   0  0  0  0  0  0  0  0  0  0  0  0
   -3.2136    0.3228    0.4440 N   0  0  0  0  0  0  0  0  0  0  0  0
   -4.4048    0.7791    1.1885 C   0  0  0  0  0  0  0  0  0  0  0  0
   -5.4979   -0.2871    1.4052 C   0  0  0  0  0  0  0  0  0  0  0  0
   -6.3068   -0.5909    0.1650 C   0  0  0  0  0  0  0  0  0  0  0  0
   -5.8166   -1.4659   -0.8130 C   0  0  0  0  0  0  0  0  0  0  0  0
   -6.5649   -1.7410   -1.9590 C   0  0  0  0  0  0  0  0  0  0  0  0
   -7.8104   -1.1430   -2.1399 C   0  0  0  0  0  0  0  0  0  0  0  0
   -8.3071   -0.2672   -1.1767 C   0  0  0  0  0  0  0  0  0  0  0  0
   -7.5590    0.0096   -0.0308 C   0  0  0  0  0  0  0  0  0  0  0  0
   -2.3609    1.4527    0.0386 C   0  0  0  0  0  0  0  0  0  0  0  0
   -1.1449    1.6580    0.9378 C   0  0  0  0  0  0  0  0  0  0  0  0
    5.8298    0.1853   -1.0432 C   0  0  0  0  0  0  0  0  0  0  0  0
    5.4990    0.2037   -2.3757 O   0  0  0  0  0  0  0  0  0  0  0  0
    8.7257   -2.9378   -2.0724 H   0  0  0  0  0  0  0  0  0  0  0  0
    9.2426   -1.8791   -0.7539 H   0  0  0  0  0  0  0  0  0  0  0  0
    7.9821   -3.1465   -0.4822 H   0  0  0  0  0  0  0  0  0  0  0  0
    7.8893   -1.4240    1.1487 H   0  0  0  0  0  0  0  0  0  0  0  0
    6.7163    0.0558    2.7104 H   0  0  0  0  0  0  0  0  0  0  0  0
    4.9794    1.6184    1.9128 H   0  0  0  0  0  0  0  0  0  0  0  0
    4.0268    2.8622    0.0344 H   0  0  0  0  0  0  0  0  0  0  0  0
    4.3589    2.3967   -1.6286 H   0  0  0  0  0  0  0  0  0  0  0  0
    2.8166    0.5313   -1.3528 H   0  0  0  0  0  0  0  0  0  0  0  0
    0.6404    0.4728   -0.9643 H   0  0  0  0  0  0  0  0  0  0  0  0
    0.1879    0.3333    1.9606 H   0  0  0  0  0  0  0  0  0  0  0  0
   -0.5559   -1.7221    1.1580 H   0  0  0  0  0  0  0  0  0  0  0  0
   -1.0468   -1.0989   -0.4053 H   0  0  0  0  0  0  0  0  0  0  0  0
   -2.4661   -0.5435    2.2408 H   0  0  0  0  0  0  0  0  0  0  0  0
   -2.9907   -1.6934    1.0079 H   0  0  0  0  0  0  0  0  0  0  0  0
   -4.8675    1.6209    0.6560 H   0  0  0  0  0  0  0  0  0  0  0  0
   -4.0919    1.1645    2.1681 H   0  0  0  0  0  0  0  0  0  0  0  0
   -5.0853   -1.2172    1.8131 H   0  0  0  0  0  0  0  0  0  0  0  0
   -6.1801    0.0810    2.1833 H   0  0  0  0  0  0  0  0  0  0  0  0
   -4.8414   -1.9311   -0.6912 H   0  0  0  0  0  0  0  0  0  0  0  0
   -6.1720   -2.4190   -2.7115 H   0  0  0  0  0  0  0  0  0  0  0  0
   -8.3920   -1.3572   -3.0326 H   0  0  0  0  0  0  0  0  0  0  0  0
   -9.2769    0.2027   -1.3184 H   0  0  0  0  0  0  0  0  0  0  0  0
   -7.9610    0.6980    0.7089 H   0  0  0  0  0  0  0  0  0  0  0  0
   -2.9306    2.3877   -0.0276 H   0  0  0  0  0  0  0  0  0  0  0  0
   -2.0132    1.2566   -0.9840 H   0  0  0  0  0  0  0  0  0  0  0  0
   -1.4931    1.8669    1.9580 H   0  0  0  0  0  0  0  0  0  0  0  0
   -0.5888    2.5453    0.6138 H   0  0  0  0  0  0  0  0  0  0  0  0
    6.0928   -0.4556   -2.7871 H   0  0  0  0  0  0  0  0  0  0  0  0
  1  2  1  0
  2  3  1  0
  3  4  1  0
  4  5  2  0
  5  6  1  0
  6  7  2  0
  7  8  1  0
  8  9  1  0
  9 10  1  0
 10 11  2  0
 10 12  1  0
 12 13  1  0
 13 14  1  0
 14 15  1  0
 15 16  1  0
 16 17  1  0
 17 18  1  0
 18 19  1  0
 19 20  2  0
 20 21  1  0
 21 22  2  0
 22 23  1  0
 23 24  2  0
 16 25  1  0
 25 26  1  0
  7 27  1  0
 27 28  1  0
 27  3  2  0
 26 13  1  0
 24 19  1  0
  1 29  1  0
  1 30  1  0
  1 31  1  0
  4 32  1  0
  5 33  1  0
  6 34  1  0
  8 35  1  0
  8 36  1  0
  9 37  1  0
 12 38  1  0
 13 39  1  0
 14 40  1  0
 14 41  1  0
 15 42  1  0
 15 43  1  0
 17 44  1  0
 17 45  1  0
 18 46  1  0
 18 47  1  0
 20 48  1  0
 21 49  1  0
 22 50  1  0
 23 51  1  0
 24 52  1  0
 25 53  1  0
 25 54  1  0
 26 55  1  0
 26 56  1  0
 28 57  1  0
M  END
$$$$
OCNT-2317343
     RDKit          3D

 58 60  0  0  0  0  0  0  0  0999 V2000
    2.9410   -0.7925    2.3349 O   0  0  0  0  0  0  0  0  0  0  0  0
    3.0203   -0.7379    1.1134 C   0  0  0  0  0  0  0  0  0  0  0  0
    4.2951   -0.4073    0.3662 C   0  0  0  0  0  0  0  0  0  0  0  0
    5.4419   -0.0872    1.3207 C   0  0  0  0  0  0  0  0  0  0  0  0
    6.7113    0.2277    0.5678 C   0  0  0  0  0  0  0  0  0  0  0  0
    6.9634    1.5306    0.1162 C   0  0  0  0  0  0  0  0  0  0  0  0
    8.1267    1.8164   -0.5995 C   0  0  0  0  0  0  0  0  0  0  0  0
    9.0379    0.8023   -0.8664 C   0  0  0  0  0  0  0  0  0  0  0  0
   10.1614    1.1261   -1.5680 O   0  0  0  0  0  0  0  0  0  0  0  0
    8.8052   -0.4978   -0.4304 C   0  0  0  0  0  0  0  0  0  0  0  0
    7.6399   -0.7842    0.2848 C   0  0  0  0  0  0  0  0  0  0  0  0
    1.9521   -0.9702    0.2690 N   0  0  0  0  0  0  0  0  0  0  0  0
    0.6802   -1.4283    0.7918 C   0  0  0  0  0  0  0  0  0  0  0  0
   -0.4746   -1.1510   -0.1765 C   0  0  0  0  0  0  0  0  0  0  0  0
   -0.7070    0.3564   -0.3651 C   0  0  0  0  0  0  0  0  0  0  0  0
   -1.9520    0.6299   -1.2136 C   0  0  0  0  0  0  0  0  0  0  0  0
   -3.1689   -0.0266   -0.7150 N   0  0  0  0  0  0  0  0  0  0  0  0
   -3.7012    0.6432    0.4896 C   0  0  0  0  0  0  0  0  0  0  0  0
   -5.0873    0.1692    1.0214 C   0  0  0  0  0  0  0  0  0  0  0  0
   -5.3568    0.8673    2.2491 O   0  0  0  0  0  0  0  0  0  0  0  0
   -6.3022    0.3545    0.1315 C   0  0  0  0  0  0  0  0  0  0  0  0
   -7.5460   -0.1256    0.5839 C   0  0  0  0  0  0  0  0  0  0  0  0
   -8.7000    0.0064   -0.1915 C   0  0  0  0  0  0  0  0  0  0  0  0
   -8.6325    0.6226   -1.4369 C   0  0  0  0  0  0  0  0  0  0  0  0
   -7.4132    1.1075   -1.9024 C   0  0  0  0  0  0  0  0  0  0  0  0
   -6.2585    0.9760   -1.1243 C   0  0  0  0  0  0  0  0  0  0  0  0
   -2.9550   -1.4697   -0.5667 C   0  0  0  0  0  0  0  0  0  0  0  0
   -1.7612   -1.8254    0.3214 C   0  0  0  0  0  0  0  0  0  0  0  0
    4.0974    0.4474   -0.2923 H   0  0  0  0  0  0  0  0  0  0  0  0
    4.5546   -1.2661   -0.2649 H   0  0  0  0  0  0  0  0  0  0  0  0
    5.1792    0.7628    1.9638 H   0  0  0  0  0  0  0  0  0  0  0  0
    5.6192   -0.9291    2.0025 H   0  0  0  0  0  0  0  0  0  0  0  0
    6.2569    2.3316    0.3214 H   0  0  0  0  0  0  0  0  0  0  0  0
    8.3220    2.8272   -0.9457 H   0  0  0  0  0  0  0  0  0  0  0  0
   10.7117    0.3306   -1.6530 H   0  0  0  0  0  0  0  0  0  0  0  0
    9.5118   -1.2955   -0.6350 H   0  0  0  0  0  0  0  0  0  0  0  0
    7.4612   -1.8024    0.6238 H   0  0  0  0  0  0  0  0  0  0  0  0
    2.1593   -1.1534   -0.7049 H   0  0  0  0  0  0  0  0  0  0  0  0
    0.7831   -2.5060    0.9643 H   0  0  0  0  0  0  0  0  0  0  0  0
    0.4953   -0.9572    1.7644 H   0  0  0  0  0  0  0  0  0  0  0  0
   -0.2219   -1.5801   -1.1563 H   0  0  0  0  0  0  0  0  0  0  0  0
    0.1616    0.8104   -0.8570 H   0  0  0  0  0  0  0  0  0  0  0  0
   -0.8039    0.8483    0.6105 H   0  0  0  0  0  0  0  0  0  0  0  0
   -1.7666    0.2804   -2.2378 H   0  0  0  0  0  0  0  0  0  0  0  0
   -2.1103    1.7118   -1.3021 H   0  0  0  0  0  0  0  0  0  0  0  0
   -3.7817    1.7215    0.2922 H   0  0  0  0  0  0  0  0  0  0  0  0
   -2.9834    0.5670    1.3165 H   0  0  0  0  0  0  0  0  0  0  0  0
   -5.0251   -0.8936    1.2827 H   0  0  0  0  0  0  0  0  0  0  0  0
   -4.6622    0.6172    2.8797 H   0  0  0  0  0  0  0  0  0  0  0  0
   -7.6178   -0.5982    1.5616 H   0  0  0  0  0  0  0  0  0  0  0  0
   -9.6495   -0.3670    0.1816 H   0  0  0  0  0  0  0  0  0  0  0  0
   -9.5282    0.7292   -2.0421 H   0  0  0  0  0  0  0  0  0  0  0  0
   -7.3564    1.5916   -2.8736 H   0  0  0  0  0  0  0  0  0  0  0  0
   -5.3268    1.3666   -1.5245 H   0  0  0  0  0  0  0  0  0  0  0  0
   -2.7889   -1.8954   -1.5655 H   0  0  0  0  0  0  0  0  0  0  0  0
   -3.8564   -1.9700   -0.1986 H   0  0  0  0  0  0  0  0  0  0  0  0
   -1.9660   -1.5344    1.3591 H   0  0  0  0  0  0  0  0  0  0  0  0
   -1.6282   -2.9142    0.3233 H   0  0  0  0  0  0  0  0  0  0  0  0
  1  2  2  0
  2  3  1  0
  3  4  1  0
  4  5  1  0
  5  6  1  0
  6  7  2  0
  7  8  1  0
  8  9  1  0
  8 10  2  0
 10 11  1  0
  2 12  1  0
 12 13  1  0
 13 14  1  0
 14 15  1  0
 15 16  1  0
 16 17  1  0
 17 18  1  0
 18 19  1  0
 19 20  1  0
 19 21  1  0
 21 22  2  0
 22 23  1  0
 23 24  2  0
 24 25  1  0
 25 26  2  0
 17 27  1  0
 27 28  1  0
 11  5  2  0
 28 14  1  0
 26 21  1  0
  3 29  1  0
  3 30  1  0
  4 31  1  0
  4 32  1  0
  6 33  1  0
  7 34  1  0
  9 35  1  0
 10 36  1  0
 11 37  1  0
 12 38  1  0
 13 39  1  0
 13 40  1  0
 14 41  1  0
 15 42  1  0
 15 43  1  0
 16 44  1  0
 16 45  1  0
 18 46  1  0
 18 47  1  0
 19 48  1  0
 20 49  1  0
 22 50  1  0
 23 51  1  0
 24 52  1  0
 25 53  1  0
 26 54  1  0
 27 55  1  0
 27 56  1  0
 28 57  1  0
 28 58  1  0
M  END
$$$$
OCNT-2317345
     RDKit          3D

 38 40  0  0  0  0  0  0  0  0999 V2000
    7.5442   -0.3819   -0.0847 C   0  0  0  0  0  0  0  0  0  0  0  0
    6.3469    0.1670    0.5029 N   0  0  0  0  0  0  0  0  0  0  0  0
    6.2661    1.0765    1.5133 C   0  0  0  0  0  0  0  0  0  0  0  0
    4.9214    1.2765    1.7207 C   0  0  0  0  0  0  0  0  0  0  0  0
    4.2650    0.4358    0.7865 C   0  0  0  0  0  0  0  0  0  0  0  0
    2.8947    0.3531    0.6677 N   0  0  0  0  0  0  0  0  0  0  0  0
    2.2158   -0.5607   -0.1036 C   0  0  0  0  0  0  0  0  0  0  0  0
    2.6689   -1.5121   -0.7245 O   0  0  0  0  0  0  0  0  0  0  0  0
    0.8556   -0.2866   -0.0848 N   0  0  0  0  0  0  0  0  0  0  0  0
   -0.0190   -1.1021   -0.8968 C   0  0  0  0  0  0  0  0  0  0  0  0
   -1.4591   -0.7480   -0.6404 C   0  0  0  0  0  0  0  0  0  0  0  0
   -2.1224   -1.2426    0.4878 C   0  0  0  0  0  0  0  0  0  0  0  0
   -3.4561   -0.8994    0.7448 C   0  0  0  0  0  0  0  0  0  0  0  0
   -4.1561   -0.0438   -0.1217 C   0  0  0  0  0  0  0  0  0  0  0  0
   -5.5132    0.3006    0.1495 N   0  0  0  0  0  0  0  0  0  0  0  0
   -6.2782   -0.1217    1.2210 C   0  0  0  0  0  0  0  0  0  0  0  0
   -7.5132    0.4624    1.0736 C   0  0  0  0  0  0  0  0  0  0  0  0
   -7.5499    1.2325   -0.0481 N   0  0  0  0  0  0  0  0  0  0  0  0
   -6.3519    1.1180   -0.5809 C   0  0  0  0  0  0  0  0  0  0  0  0
   -3.4807    0.4533   -1.2423 C   0  0  0  0  0  0  0  0  0  0  0  0
   -4.0653    1.2813   -2.1174 F   0  0  0  0  0  0  0  0  0  0  0  0
   -2.1511    0.1103   -1.4993 C   0  0  0  0  0  0  0  0  0  0  0  0
    5.1509   -0.2206    0.0385 N   0  0  0  0  0  0  0  0  0  0  0  0
    7.5276   -1.4666    0.0476 H   0  0  0  0  0  0  0  0  0  0  0  0
    8.4203    0.0411    0.4130 H   0  0  0  0  0  0  0  0  0  0  0  0
    7.5573   -0.1236   -1.1465 H   0  0  0  0  0  0  0  0  0  0  0  0
    7.1435    1.4922    1.9881 H   0  0  0  0  0  0  0  0  0  0  0  0
    4.4763    1.9358    2.4511 H   0  0  0  0  0  0  0  0  0  0  0  0
    2.3552    0.8939    1.3210 H   0  0  0  0  0  0  0  0  0  0  0  0
    0.6331    0.6967   -0.0590 H   0  0  0  0  0  0  0  0  0  0  0  0
    0.2412   -0.9461   -1.9506 H   0  0  0  0  0  0  0  0  0  0  0  0
    0.1586   -2.1614   -0.6752 H   0  0  0  0  0  0  0  0  0  0  0  0
   -1.5994   -1.9035    1.1787 H   0  0  0  0  0  0  0  0  0  0  0  0
   -3.9101   -1.3234    1.6355 H   0  0  0  0  0  0  0  0  0  0  0  0
   -5.9130   -0.7838    1.9897 H   0  0  0  0  0  0  0  0  0  0  0  0
   -8.3757    0.3647    1.7205 H   0  0  0  0  0  0  0  0  0  0  0  0
   -6.0592    1.6135   -1.4947 H   0  0  0  0  0  0  0  0  0  0  0  0
   -1.6690    0.5230   -2.3824 H   0  0  0  0  0  0  0  0  0  0  0  0
  1  2  1  0
  2  3  1  0
  3  4  2  0
  4  5  1  0
  5  6  1  0
  6  7  1  0
  7  8  2  0
  7  9  1  0
  9 10  1  0
 10 11  1  0
 11 12  1  0
 12 13  2  0
 13 14  1  0
 14 15  1  0
 15 16  1  0
 16 17  2  0
 17 18  1  0
 18 19  2  0
 14 20  2  0
 20 21  1  0
 20 22  1  0
  5 23  2  0
 23  2  1  0
 22 11  2  0
 19 15  1  0
  1 24  1  0
  1 25  1  0
  1 26  1  0
  3 27  1  0
  4 28  1  0
  6 29  1  0
  9 30  1  0
 10 31  1  0
 10 32  1  0
 12 33  1  0
 13 34  1  0
 16 35  1  0
 17 36  1  0
 19 37  1  0
 22 38  1  0
M  END
$$$$
OCNT-2317346
     RDKit          3D

 51 54  0  0  0  0  0  0  0  0999 V2000
    5.6224    0.0458   -2.3223 C   0  0  0  0  0  0  0  0  0  0  0  0
    5.1355    0.9296   -1.2151 C   0  0  0  0  0  0  0  0  0  0  0  0
    4.0272    0.5628   -0.4360 C   0  0  0  0  0  0  0  0  0  0  0  0
    3.5851    1.3739    0.6249 C   0  0  0  0  0  0  0  0  0  0  0  0
    2.4248    0.9758    1.4164 C   0  0  0  0  0  0  0  0  0  0  0  0
    1.9457    1.6791    2.4567 N   0  0  0  0  0  0  0  0  0  0  0  0
    0.8506    0.9354    2.8866 O   0  0  0  0  0  0  0  0  0  0  0  0
    0.7719   -0.1506    2.0653 C   0  0  0  0  0  0  0  0  0  0  0  0
   -0.3622   -1.1089    2.3296 C   0  0  0  0  0  0  0  0  0  0  0  0
    0.2606   -2.4225    2.8325 C   0  0  0  0  0  0  0  0  0  0  0  0
   -1.2367   -1.3056    1.1365 N   0  0  0  0  0  0  0  0  0  0  0  0
   -2.3368   -2.2437    1.3471 C   0  0  0  0  0  0  0  0  0  0  0  0
   -3.0003   -2.6089    0.0109 C   0  0  0  0  0  0  0  0  0  0  0  0
   -3.1106   -1.4370   -0.9869 C   0  0  0  0  0  0  0  0  0  0  0  0
   -4.3790   -1.5891   -1.8311 C   0  0  0  0  0  0  0  0  0  0  0  0
   -3.0409   -0.0974   -0.2288 C   0  0  0  0  0  0  0  0  0  0  0  0
   -3.1907    1.0769   -1.0773 N   0  0  0  0  0  0  0  0  0  0  0  0
   -2.4180    1.4266   -2.1504 C   0  0  0  0  0  0  0  0  0  0  0  0
   -2.9529    2.6093   -2.6045 C   0  0  0  0  0  0  0  0  0  0  0  0
   -4.0253    2.9837   -1.8385 N   0  0  0  0  0  0  0  0  0  0  0  0
   -4.1451    2.0444   -0.9283 C   0  0  0  0  0  0  0  0  0  0  0  0
   -1.7376   -0.0115    0.6090 C   0  0  0  0  0  0  0  0  0  0  0  0
    1.7155   -0.1759    1.1502 N   0  0  0  0  0  0  0  0  0  0  0  0
    4.2796    2.5616    0.9041 C   0  0  0  0  0  0  0  0  0  0  0  0
    5.3925    2.9265    0.1432 C   0  0  0  0  0  0  0  0  0  0  0  0
    5.8119    2.1098   -0.9020 C   0  0  0  0  0  0  0  0  0  0  0  0
    6.8878    2.4726   -1.6142 F   0  0  0  0  0  0  0  0  0  0  0  0
    5.9914    0.6424   -3.1631 H   0  0  0  0  0  0  0  0  0  0  0  0
    4.8148   -0.5867   -2.7047 H   0  0  0  0  0  0  0  0  0  0  0  0
    6.4296   -0.5988   -1.9602 H   0  0  0  0  0  0  0  0  0  0  0  0
    3.5013   -0.3655   -0.6585 H   0  0  0  0  0  0  0  0  0  0  0  0
   -0.9733   -0.6993    3.1457 H   0  0  0  0  0  0  0  0  0  0  0  0
   -0.4884   -3.0879    3.2722 H   0  0  0  0  0  0  0  0  0  0  0  0
    1.0057   -2.2296    3.6142 H   0  0  0  0  0  0  0  0  0  0  0  0
    0.7682   -2.9601    2.0227 H   0  0  0  0  0  0  0  0  0  0  0  0
   -3.0779   -1.8208    2.0378 H   0  0  0  0  0  0  0  0  0  0  0  0
   -1.9991   -3.1856    1.7888 H   0  0  0  0  0  0  0  0  0  0  0  0
   -3.9914   -3.0262    0.2311 H   0  0  0  0  0  0  0  0  0  0  0  0
   -2.4308   -3.4149   -0.4709 H   0  0  0  0  0  0  0  0  0  0  0  0
   -2.2531   -1.4976   -1.6721 H   0  0  0  0  0  0  0  0  0  0  0  0
   -4.4180   -0.8462   -2.6336 H   0  0  0  0  0  0  0  0  0  0  0  0
   -4.4132   -2.5780   -2.3008 H   0  0  0  0  0  0  0  0  0  0  0  0
   -5.2792   -1.4733   -1.2180 H   0  0  0  0  0  0  0  0  0  0  0  0
   -3.8894   -0.0705    0.4710 H   0  0  0  0  0  0  0  0  0  0  0  0
   -1.5819    0.8330   -2.4941 H   0  0  0  0  0  0  0  0  0  0  0  0
   -2.6225    3.2104   -3.4420 H   0  0  0  0  0  0  0  0  0  0  0  0
   -4.8970    2.0196   -0.1499 H   0  0  0  0  0  0  0  0  0  0  0  0
   -1.9320    0.6913    1.4313 H   0  0  0  0  0  0  0  0  0  0  0  0
   -0.9363    0.4291    0.0034 H   0  0  0  0  0  0  0  0  0  0  0  0
    3.9623    3.2112    1.7175 H   0  0  0  0  0  0  0  0  0  0  0  0
    5.9352    3.8413    0.3601 H   0  0  0  0  0  0  0  0  0  0  0  0
  1  2  1  0
  2  3  1  0
  3  4  2  0
  4  5  1  0
  5  6  2  0
  6  7  1  0
  7  8  1  0
  8  9  1  0
  9 10  1  0
  9 11  1  0
 11 12  1  0
 12 13  1  0
 13 14  1  0
 14 15  1  0
 14 16  1  0
 16 17  1  0
 17 18  1  0
 18 19  2  0
 19 20  1  0
 20 21  2  0
 16 22  1  0
  8 23  2  0
  4 24  1  0
 24 25  2  0
 25 26  1  0
 26 27  1  0
 26  2  2  0
 23  5  1  0
 22 11  1  0
 21 17  1  0
  1 28  1  0
  1 29  1  0
  1 30  1  0
  3 31  1  0
  9 32  1  0
 10 33  1  0
 10 34  1  0
 10 35  1  0
 12 36  1  0
 12 37  1  0
 13 38  1  0
 13 39  1  0
 14 40  1  0
 15 41  1  0
 15 42  1  0
 15 43  1  0
 16 44  1  0
 18 45  1  0
 19 46  1  0
 21 47  1  0
 22 48  1  0
 22 49  1  0
 24 50  1  0
 25 51  1  0
M  END
$$$$
OCNT-2317347
     RDKit          3D

 49 51  0  0  0  0  0  0  0  0999 V2000
    5.5527   -1.5830   -1.0546 C   0  0  0  0  0  0  0  0  0  0  0  0
    5.9938   -0.5597    0.3259 S   0  0  0  0  0  0  0  0  0  0  0  0
    6.4235    0.7322   -0.1710 O   0  0  0  0  0  0  0  0  0  0  0  0
    6.8558   -1.3503    1.1862 O   0  0  0  0  0  0  0  0  0  0  0  0
    4.4647   -0.3044    1.1920 C   0  0  0  0  0  0  0  0  0  0  0  0
    4.3537   -0.6817    2.5311 C   0  0  0  0  0  0  0  0  0  0  0  0
    3.1500   -0.4717    3.1981 C   0  0  0  0  0  0  0  0  0  0  0  0
    2.0692    0.1049    2.5246 C   0  0  0  0  0  0  0  0  0  0  0  0
    2.1770    0.4779    1.1773 C   0  0  0  0  0  0  0  0  0  0  0  0
    1.0366    1.0400    0.5724 N   0  0  0  0  0  0  0  0  0  0  0  0
    0.8631    1.3762   -0.7530 C   0  0  0  0  0  0  0  0  0  0  0  0
    1.6753    1.2246   -1.6555 O   0  0  0  0  0  0  0  0  0  0  0  0
   -0.3891    1.9161   -0.9593 N   0  0  0  0  0  0  0  0  0  0  0  0
   -0.8696    2.2574   -2.2856 C   0  0  0  0  0  0  0  0  0  0  0  0
   -1.9065    1.2714   -2.8532 C   0  0  0  0  0  0  0  0  0  0  0  0
   -1.4035   -0.1662   -2.9756 C   0  0  0  0  0  0  0  0  0  0  0  0
   -1.7305   -0.8245   -1.6326 C   0  0  0  0  0  0  0  0  0  0  0  0
   -2.7120    0.0692   -0.9996 N   0  0  0  0  0  0  0  0  0  0  0  0
   -3.4722   -0.3297    0.0811 C   0  0  0  0  0  0  0  0  0  0  0  0
   -3.0774   -1.4051    0.8988 C   0  0  0  0  0  0  0  0  0  0  0  0
   -3.8253   -1.8036    2.0128 C   0  0  0  0  0  0  0  0  0  0  0  0
   -4.9863   -1.1210    2.3340 C   0  0  0  0  0  0  0  0  0  0  0  0
   -5.7044   -1.4961    3.4000 F   0  0  0  0  0  0  0  0  0  0  0  0
   -5.4068   -0.0497    1.5642 C   0  0  0  0  0  0  0  0  0  0  0  0
   -4.6512    0.3408    0.4518 C   0  0  0  0  0  0  0  0  0  0  0  0
   -3.1250    1.1155   -1.9375 C   0  0  0  0  0  0  0  0  0  0  0  0
    3.3892    0.2825    0.5151 C   0  0  0  0  0  0  0  0  0  0  0  0
    6.4685   -1.8284   -1.5973 H   0  0  0  0  0  0  0  0  0  0  0  0
    4.8736   -1.0385   -1.7123 H   0  0  0  0  0  0  0  0  0  0  0  0
    5.0871   -2.4983   -0.6842 H   0  0  0  0  0  0  0  0  0  0  0  0
    5.1944   -1.1252    3.0605 H   0  0  0  0  0  0  0  0  0  0  0  0
    3.0518   -0.7540    4.2438 H   0  0  0  0  0  0  0  0  0  0  0  0
    1.1400    0.2549    3.0693 H   0  0  0  0  0  0  0  0  0  0  0  0
    0.2408    1.2052    1.1706 H   0  0  0  0  0  0  0  0  0  0  0  0
   -1.1099    1.6252   -0.3086 H   0  0  0  0  0  0  0  0  0  0  0  0
   -1.3281    3.2487   -2.1964 H   0  0  0  0  0  0  0  0  0  0  0  0
   -0.0262    2.3486   -2.9785 H   0  0  0  0  0  0  0  0  0  0  0  0
   -2.2179    1.6511   -3.8335 H   0  0  0  0  0  0  0  0  0  0  0  0
   -0.3416   -0.2398   -3.2289 H   0  0  0  0  0  0  0  0  0  0  0  0
   -1.9628   -0.6789   -3.7686 H   0  0  0  0  0  0  0  0  0  0  0  0
   -0.8328   -0.9135   -1.0129 H   0  0  0  0  0  0  0  0  0  0  0  0
   -2.1396   -1.8274   -1.8024 H   0  0  0  0  0  0  0  0  0  0  0  0
   -2.1654   -1.9563    0.6857 H   0  0  0  0  0  0  0  0  0  0  0  0
   -3.5035   -2.6387    2.6262 H   0  0  0  0  0  0  0  0  0  0  0  0
   -6.3171    0.4788    1.8278 H   0  0  0  0  0  0  0  0  0  0  0  0
   -5.0165    1.1851   -0.1256 H   0  0  0  0  0  0  0  0  0  0  0  0
   -3.9950    0.7783   -2.5142 H   0  0  0  0  0  0  0  0  0  0  0  0
   -3.3700    2.0587   -1.4373 H   0  0  0  0  0  0  0  0  0  0  0  0
    3.5251    0.6024   -0.5131 H   0  0  0  0  0  0  0  0  0  0  0  0
  1  2  1  0
  2  3  2  0
  2  4  2  0
  2  5  1  0
  5  6  2  0
  6  7  1  0
  7  8  2  0
  8  9  1  0
  9 10  1  0
 10 11  1  0
 11 12  2  0
 11 13  1  0
 13 14  1  0
 14 15  1  0
 15 16  1  0
 16 17  1  0
 17 18  1  0
 18 19  1  0
 19 20  1  0
 20 21  2  0
 21 22  1  0
 22 23  1  0
 22 24  2  0
 24 25  1  0
 18 26  1  0
  9 27  2  0
 27  5  1  0
 26 15  1  0
 25 19  2  0
  1 28  1  0
  1 29  1  0
  1 30  1  0
  6 31  1  0
  7 32  1  0
  8 33  1  0
 10 34  1  0
 13 35  1  0
 14 36  1  0
 14 37  1  0
 15 38  1  0
 16 39  1  0
 16 40  1  0
 17 41  1  0
 17 42  1  0
 20 43  1  0
 21 44  1  0
 24 45  1  0
 25 46  1  0
 26 47  1  0
 26 48  1  0
 27 49  1  0
M  END
$$$$
OCNT-2317349
     RDKit          3D

 48 51  0  0  0  0  0  0  0  0999 V2000
   -4.0759    2.3304    0.6404 C   0  0  0  0  0  0  0  0  0  0  0  0
   -4.0303    0.9048    0.1855 C   0  0  0  0  0  0  0  0  0  0  0  0
   -3.0482    0.3825   -0.6421 C   0  0  0  0  0  0  0  0  0  0  0  0
   -1.9342    1.0908   -1.2562 C   0  0  0  0  0  0  0  0  0  0  0  0
   -2.1214    2.0895   -1.9531 O   0  0  0  0  0  0  0  0  0  0  0  0
   -0.6387    0.6376   -1.0000 N   0  0  0  0  0  0  0  0  0  0  0  0
    0.4765    1.3008   -1.6706 C   0  0  0  0  0  0  0  0  0  0  0  0
    1.7513    0.4355   -1.7124 C   0  0  0  0  0  0  0  0  0  0  0  0
    2.1750   -0.1396   -0.4201 N   0  0  0  0  0  0  0  0  0  0  0  0
    3.4697    0.3735    0.0620 C   0  0  0  0  0  0  0  0  0  0  0  0
    4.6883   -0.1128   -0.7644 C   0  0  0  0  0  0  0  0  0  0  0  0
    5.9882    0.5363   -0.3002 C   0  0  0  0  0  0  0  0  0  0  0  0
    6.5015   -0.4373    0.7304 C   0  0  0  0  0  0  0  0  0  0  0  0
    6.0867   -1.7640    0.1375 C   0  0  0  0  0  0  0  0  0  0  0  0
    4.8698   -1.5334   -0.5814 O   0  0  0  0  0  0  0  0  0  0  0  0
    1.1338   -0.0359    0.6156 C   0  0  0  0  0  0  0  0  0  0  0  0
   -0.2789   -0.3051    0.0653 C   0  0  0  0  0  0  0  0  0  0  0  0
   -3.3310   -1.2535   -1.0297 S   0  0  0  0  0  0  0  0  0  0  0  0
   -4.7348   -1.3315   -0.0450 C   0  0  0  0  0  0  0  0  0  0  0  0
   -5.5533   -2.4590    0.1677 C   0  0  0  0  0  0  0  0  0  0  0  0
   -6.6735   -2.3390    0.9914 C   0  0  0  0  0  0  0  0  0  0  0  0
   -6.9786   -1.1257    1.5888 C   0  0  0  0  0  0  0  0  0  0  0  0
   -6.1633   -0.0100    1.3740 C   0  0  0  0  0  0  0  0  0  0  0  0
   -5.0117   -0.0977    0.5491 C   0  0  0  0  0  0  0  0  0  0  0  0
   -4.6999    2.9203   -0.0385 H   0  0  0  0  0  0  0  0  0  0  0  0
   -4.4904    2.4099    1.6501 H   0  0  0  0  0  0  0  0  0  0  0  0
   -3.0764    2.7761    0.6677 H   0  0  0  0  0  0  0  0  0  0  0  0
    0.6735    2.2333   -1.1272 H   0  0  0  0  0  0  0  0  0  0  0  0
    0.1814    1.5722   -2.6906 H   0  0  0  0  0  0  0  0  0  0  0  0
    2.5471    1.0236   -2.1833 H   0  0  0  0  0  0  0  0  0  0  0  0
    1.5622   -0.4118   -2.3837 H   0  0  0  0  0  0  0  0  0  0  0  0
    3.6123    0.0258    1.0936 H   0  0  0  0  0  0  0  0  0  0  0  0
    3.4452    1.4703    0.0889 H   0  0  0  0  0  0  0  0  0  0  0  0
    4.5367    0.0802   -1.8310 H   0  0  0  0  0  0  0  0  0  0  0  0
    5.8662    1.5536    0.0820 H   0  0  0  0  0  0  0  0  0  0  0  0
    6.6945    0.5773   -1.1388 H   0  0  0  0  0  0  0  0  0  0  0  0
    5.9908   -0.2751    1.6865 H   0  0  0  0  0  0  0  0  0  0  0  0
    7.5785   -0.3661    0.9030 H   0  0  0  0  0  0  0  0  0  0  0  0
    5.9264   -2.5332    0.8980 H   0  0  0  0  0  0  0  0  0  0  0  0
    6.8329   -2.1291   -0.5762 H   0  0  0  0  0  0  0  0  0  0  0  0
    1.3444   -0.7592    1.4119 H   0  0  0  0  0  0  0  0  0  0  0  0
    1.1472    0.9649    1.0682 H   0  0  0  0  0  0  0  0  0  0  0  0
   -1.0035   -0.2401    0.8831 H   0  0  0  0  0  0  0  0  0  0  0  0
   -0.3254   -1.3146   -0.3589 H   0  0  0  0  0  0  0  0  0  0  0  0
   -5.3199   -3.4082   -0.3066 H   0  0  0  0  0  0  0  0  0  0  0  0
   -7.3122   -3.2029    1.1596 H   0  0  0  0  0  0  0  0  0  0  0  0
   -7.8560   -1.0379    2.2249 H   0  0  0  0  0  0  0  0  0  0  0  0
   -6.4227    0.9333    1.8481 H   0  0  0  0  0  0  0  0  0  0  0  0
  1  2  1  0
  2  3  2  0
  3  4  1  0
  4  5  2  0
  4  6  1  0
  6  7  1  0
  7  8  1  0
  8  9  1  0
  9 10  1  0
 10 11  1  0
 11 12  1  0
 12 13  1  0
 13 14  1  0
 14 15  1  0
  9 16  1  0
 16 17  1  0
  3 18  1  0
 18 19  1  0
 19 20  2  0
 20 21  1  0
 21 22  2  0
 22 23  1  0
 23 24  2  0
 24  2  1  0
 17  6  1  0
 24 19  1  0
 15 11  1  0
  1 25  1  0
  1 26  1  0
  1 27  1  0
  7 28  1  0
  7 29  1  0
  8 30  1  0
  8 31  1  0
 10 32  1  0
 10 33  1  0
 11 34  1  0
 12 35  1  0
 12 36  1  0
 13 37  1  0
 13 38  1  0
 14 39  1  0
 14 40  1  0
 16 41  1  0
 16 42  1  0
 17 43  1  0
 17 44  1  0
 20 45  1  0
 21 46  1  0
 22 47  1  0
 23 48  1  0
M  END
$$$$
OCNT-2317353
     RDKit          3D

 43 45  0  0  0  0  0  0  0  0999 V2000
    2.3660   -1.9110    1.2206 C   0  0  0  0  0  0  0  0  0  0  0  0
    1.2049   -1.0245    1.6507 C   0  0  0  0  0  0  0  0  0  0  0  0
    1.5585    0.4651    1.6309 C   0  0  0  0  0  0  0  0  0  0  0  0
    1.8560    1.0107    0.3188 N   0  0  0  0  0  0  0  0  0  0  0  0
    3.1043    1.5078   -0.0300 C   0  0  0  0  0  0  0  0  0  0  0  0
    4.2696    1.7940    0.6974 C   0  0  0  0  0  0  0  0  0  0  0  0
    5.3769    2.2663   -0.0178 C   0  0  0  0  0  0  0  0  0  0  0  0
    5.3250    2.4389   -1.4004 C   0  0  0  0  0  0  0  0  0  0  0  0
    4.1563    2.1445   -2.1105 C   0  0  0  0  0  0  0  0  0  0  0  0
    3.0360    1.6758   -1.4077 C   0  0  0  0  0  0  0  0  0  0  0  0
    1.8035    1.3252   -1.8815 N   0  0  0  0  0  0  0  0  0  0  0  0
    1.0840    1.0000   -0.8286 C   0  0  0  0  0  0  0  0  0  0  0  0
   -0.2297    0.6475   -1.0175 N   0  0  0  0  0  0  0  0  0  0  0  0
   -1.2477    0.7215   -0.0956 C   0  0  0  0  0  0  0  0  0  0  0  0
   -1.1524    1.1886    1.0364 O   0  0  0  0  0  0  0  0  0  0  0  0
   -2.6090    0.2624   -0.6596 C   0  0  1  0  0  0  0  0  0  0  0  0
   -2.5731   -0.9436   -1.5898 C   0  0  0  0  0  0  0  0  0  0  0  0
   -3.9240   -1.6353   -1.4012 C   0  0  0  0  0  0  0  0  0  0  0  0
   -4.6095   -0.8858   -0.2631 C   0  0  1  0  0  0  0  0  0  0  0  0
   -5.4013   -1.7770    0.6895 C   0  0  0  0  0  0  0  0  0  0  0  0
   -5.4928   -1.6668    1.9023 O   0  0  0  0  0  0  0  0  0  0  0  0
   -6.1305   -2.7157    0.0486 O   0  0  0  0  0  0  0  0  0  0  0  0
   -3.4750   -0.2428    0.4163 N   0  0  0  0  0  0  0  0  0  0  0  0
    2.0890   -2.9657    1.3161 H   0  0  0  0  0  0  0  0  0  0  0  0
    3.2474   -1.7350    1.8454 H   0  0  0  0  0  0  0  0  0  0  0  0
    2.6410   -1.7310    0.1768 H   0  0  0  0  0  0  0  0  0  0  0  0
    0.9194   -1.2983    2.6734 H   0  0  0  0  0  0  0  0  0  0  0  0
    0.3409   -1.2405    1.0158 H   0  0  0  0  0  0  0  0  0  0  0  0
    0.7851    1.0821    2.0885 H   0  0  0  0  0  0  0  0  0  0  0  0
    2.4355    0.6104    2.2708 H   0  0  0  0  0  0  0  0  0  0  0  0
    4.3272    1.6653    1.7727 H   0  0  0  0  0  0  0  0  0  0  0  0
    6.2952    2.5016    0.5166 H   0  0  0  0  0  0  0  0  0  0  0  0
    6.1985    2.8055   -1.9337 H   0  0  0  0  0  0  0  0  0  0  0  0
    4.1067    2.2750   -3.1857 H   0  0  0  0  0  0  0  0  0  0  0  0
   -0.4702    0.6128   -1.9995 H   0  0  0  0  0  0  0  0  0  0  0  0
   -3.0772    1.1238   -1.1526 H   0  0  0  0  0  0  0  0  0  0  0  0
   -2.4261   -0.6444   -2.6332 H   0  0  0  0  0  0  0  0  0  0  0  0
   -1.7641   -1.6370   -1.3278 H   0  0  0  0  0  0  0  0  0  0  0  0
   -3.7691   -2.6974   -1.1781 H   0  0  0  0  0  0  0  0  0  0  0  0
   -4.5214   -1.5738   -2.3178 H   0  0  0  0  0  0  0  0  0  0  0  0
   -5.2922   -0.1225   -0.6561 H   0  0  0  0  0  0  0  0  0  0  0  0
   -6.5924   -3.1786    0.7796 H   0  0  0  0  0  0  0  0  0  0  0  0
   -3.7694    0.5018    1.0484 H   0  0  0  0  0  0  0  0  0  0  0  0
  1  2  1  0
  2  3  1  0
  3  4  1  0
  4  5  1  0
  5  6  2  0
  6  7  1  0
  7  8  2  0
  8  9  1  0
  9 10  2  0
 10 11  1  0
 11 12  2  0
 12 13  1  0
 13 14  1  0
 14 15  2  0
 14 16  1  0
 16 17  1  0
 17 18  1  0
 18 19  1  0
 19 20  1  0
 20 21  2  0
 20 22  1  0
 19 23  1  0
 12  4  1  0
 23 16  1  0
 10  5  1  0
  1 24  1  0
  1 25  1  0
  1 26  1  0
  2 27  1  0
  2 28  1  0
  3 29  1  0
  3 30  1  0
  6 31  1  0
  7 32  1  0
  8 33  1  0
  9 34  1  0
 13 35  1  0
 16 36  1  6
 17 37  1  0
 17 38  1  0
 18 39  1  0
 18 40  1  0
 19 41  1  6
 22 42  1  0
 23 43  1  0
M  END
$$$$
OCNT-2317361
     RDKit          3D

 51 55  0  0  0  0  0  0  0  0999 V2000
   -0.0227    0.3357   -2.0067 C   0  0  0  0  0  0  0  0  0  0  0  0
   -0.0852   -0.3250   -0.6585 C   0  0  0  0  0  0  0  0  0  0  0  0
    1.0704   -0.8162   -0.0372 C   0  0  0  0  0  0  0  0  0  0  0  0
    2.3391   -0.5719   -0.5750 N   0  0  0  0  0  0  0  0  0  0  0  0
    2.7502    0.8400   -0.6187 C   0  0  0  0  0  0  0  0  0  0  0  0
    4.1956    0.8553   -0.1156 C   0  0  0  0  0  0  0  0  0  0  0  0
    4.6890   -0.5547   -0.4197 C   0  0  0  0  0  0  0  0  0  0  0  0
    5.9309   -1.0255    0.2798 C   0  0  0  0  0  0  0  0  0  0  0  0
    6.2766   -0.6720    1.7049 C   0  0  0  0  0  0  0  0  0  0  0  0
    7.0789   -0.0918    0.5706 C   0  0  0  0  0  0  0  0  0  0  0  0
    3.4491   -1.3825   -0.0555 C   0  0  0  0  0  0  0  0  0  0  0  0
    0.9939   -1.5484    1.0852 N   0  0  0  0  0  0  0  0  0  0  0  0
   -0.2205   -1.7418    1.6006 C   0  0  0  0  0  0  0  0  0  0  0  0
   -1.3676   -1.2522    1.1288 N   0  0  0  0  0  0  0  0  0  0  0  0
   -1.3033   -0.5186    0.0057 C   0  0  0  0  0  0  0  0  0  0  0  0
   -2.4946    0.0228   -0.4882 N   0  0  0  0  0  0  0  0  0  0  0  0
   -2.5519    1.4894   -0.5780 C   0  0  0  0  0  0  0  0  0  0  0  0
   -3.9498    1.8700   -0.0880 C   0  0  0  0  0  0  0  0  0  0  0  0
   -4.7664    0.5973   -0.2970 C   0  0  0  0  0  0  0  0  0  0  0  0
   -6.0762    0.6349    0.4352 C   0  0  0  0  0  0  0  0  0  0  0  0
   -6.7280   -0.6143    0.9726 C   0  0  0  0  0  0  0  0  0  0  0  0
   -6.2025    0.4276    1.9244 C   0  0  0  0  0  0  0  0  0  0  0  0
   -3.7468   -0.4751    0.1004 C   0  0  0  0  0  0  0  0  0  0  0  0
    0.7949   -0.0671   -2.6140 H   0  0  0  0  0  0  0  0  0  0  0  0
    0.1130    1.4158   -1.8987 H   0  0  0  0  0  0  0  0  0  0  0  0
   -0.9307    0.1460   -2.5883 H   0  0  0  0  0  0  0  0  0  0  0  0
    2.7158    1.1938   -1.6555 H   0  0  0  0  0  0  0  0  0  0  0  0
    2.1291    1.5016   -0.0025 H   0  0  0  0  0  0  0  0  0  0  0  0
    4.1977    1.0650    0.9588 H   0  0  0  0  0  0  0  0  0  0  0  0
    4.7899    1.6320   -0.6069 H   0  0  0  0  0  0  0  0  0  0  0  0
    4.8628   -0.6335   -1.5025 H   0  0  0  0  0  0  0  0  0  0  0  0
    6.1937   -2.0285   -0.0489 H   0  0  0  0  0  0  0  0  0  0  0  0
    5.6340   -0.0074    2.2692 H   0  0  0  0  0  0  0  0  0  0  0  0
    6.7439   -1.4381    2.3156 H   0  0  0  0  0  0  0  0  0  0  0  0
    6.9746    0.9668    0.3673 H   0  0  0  0  0  0  0  0  0  0  0  0
    8.0849   -0.4670    0.4153 H   0  0  0  0  0  0  0  0  0  0  0  0
    3.4081   -1.5157    1.0339 H   0  0  0  0  0  0  0  0  0  0  0  0
    3.4746   -2.3699   -0.5290 H   0  0  0  0  0  0  0  0  0  0  0  0
   -0.2803   -2.3474    2.4973 H   0  0  0  0  0  0  0  0  0  0  0  0
   -2.4327    1.7948   -1.6233 H   0  0  0  0  0  0  0  0  0  0  0  0
   -1.7900    1.9970    0.0254 H   0  0  0  0  0  0  0  0  0  0  0  0
   -4.3580    2.7292   -0.6307 H   0  0  0  0  0  0  0  0  0  0  0  0
   -3.9111    2.1392    0.9754 H   0  0  0  0  0  0  0  0  0  0  0  0
   -4.9829    0.4910   -1.3692 H   0  0  0  0  0  0  0  0  0  0  0  0
   -6.7378    1.3751   -0.0097 H   0  0  0  0  0  0  0  0  0  0  0  0
   -6.2029   -1.5609    0.9169 H   0  0  0  0  0  0  0  0  0  0  0  0
   -7.8040   -0.7083    0.8685 H   0  0  0  0  0  0  0  0  0  0  0  0
   -5.3250    0.1873    2.5127 H   0  0  0  0  0  0  0  0  0  0  0  0
   -6.9250    1.0360    2.4583 H   0  0  0  0  0  0  0  0  0  0  0  0
   -4.0121   -1.4541   -0.3117 H   0  0  0  0  0  0  0  0  0  0  0  0
   -3.6826   -0.5558    1.1915 H   0  0  0  0  0  0  0  0  0  0  0  0
  1  2  1  0
  2  3  2  0
  3  4  1  0
  4  5  1  0
  5  6  1  0
  6  7  1  0
  7  8  1  0
  8  9  1  0
  9 10  1  0
  7 11  1  0
  3 12  1  0
 12 13  2  0
 13 14  1  0
 14 15  2  0
 15 16  1  0
 16 17  1  0
 17 18  1  0
 18 19  1  0
 19 20  1  0
 20 21  1  0
 21 22  1  0
 19 23  1  0
 15  2  1  0
 23 16  1  0
 11  4  1  0
 22 20  1  0
 10  8  1  0
  1 24  1  0
  1 25  1  0
  1 26  1  0
  5 27  1  0
  5 28  1  0
  6 29  1  0
  6 30  1  0
  7 31  1  0
  8 32  1  0
  9 33  1  0
  9 34  1  0
 10 35  1  0
 10 36  1  0
 11 37  1  0
 11 38  1  0
 13 39  1  0
 17 40  1  0
 17 41  1  0
 18 42  1  0
 18 43  1  0
 19 44  1  0
 20 45  1  0
 21 46  1  0
 21 47  1  0
 22 48  1  0
 22 49  1  0
 23 50  1  0
 23 51  1  0
M  END
$$$$
OCNT-2317363
     RDKit          3D

 41 43  0  0  0  0  0  0  0  0999 V2000
   -5.6059    3.2698    0.1067 C   0  0  0  0  0  0  0  0  0  0  0  0
   -4.7712    2.0872    0.3857 C   0  0  0  0  0  0  0  0  0  0  0  0
   -4.9472    1.3264    1.4732 N   0  0  0  0  0  0  0  0  0  0  0  0
   -3.9659    0.3437    1.3369 O   0  0  0  0  0  0  0  0  0  0  0  0
   -3.2993    0.6213    0.1771 C   0  0  0  0  0  0  0  0  0  0  0  0
   -2.1863   -0.2876   -0.2092 C   0  0  0  0  0  0  0  0  0  0  0  0
   -2.7081   -1.6771   -0.6074 C   0  0  0  0  0  0  0  0  0  0  0  0
   -1.6773   -2.7788   -0.3553 C   0  0  0  0  0  0  0  0  0  0  0  0
   -0.2491   -2.2475   -0.4630 C   0  0  0  0  0  0  0  0  0  0  0  0
    0.0437   -1.2151    0.5444 N   0  0  0  0  0  0  0  0  0  0  0  0
    1.1962   -0.3749    0.1695 C   0  0  0  0  0  0  0  0  0  0  0  0
    2.5076   -1.1645    0.0088 C   0  0  0  0  0  0  0  0  0  0  0  0
    3.6802   -0.2499   -0.2626 C   0  0  0  0  0  0  0  0  0  0  0  0
    3.9946    0.1342   -1.5766 C   0  0  0  0  0  0  0  0  0  0  0  0
    5.0684    0.9929   -1.8256 C   0  0  0  0  0  0  0  0  0  0  0  0
    5.8264    1.4717   -0.7627 C   0  0  0  0  0  0  0  0  0  0  0  0
    6.8544    2.2958   -1.0076 F   0  0  0  0  0  0  0  0  0  0  0  0
    5.5202    1.1019    0.5405 C   0  0  0  0  0  0  0  0  0  0  0  0
    6.2499    1.5678    1.5636 F   0  0  0  0  0  0  0  0  0  0  0  0
    4.4521    0.2469    0.7984 C   0  0  0  0  0  0  0  0  0  0  0  0
   -1.1331   -0.3956    0.9039 C   0  0  0  0  0  0  0  0  0  0  0  0
   -3.7578    1.6842   -0.4454 N   0  0  0  0  0  0  0  0  0  0  0  0
   -6.6588    2.9853    0.0157 H   0  0  0  0  0  0  0  0  0  0  0  0
   -5.3025    3.7503   -0.8286 H   0  0  0  0  0  0  0  0  0  0  0  0
   -5.5131    4.0054    0.9116 H   0  0  0  0  0  0  0  0  0  0  0  0
   -1.6984    0.1566   -1.0886 H   0  0  0  0  0  0  0  0  0  0  0  0
   -3.6322   -1.9370   -0.0756 H   0  0  0  0  0  0  0  0  0  0  0  0
   -2.9732   -1.6594   -1.6727 H   0  0  0  0  0  0  0  0  0  0  0  0
   -1.8319   -3.5966   -1.0684 H   0  0  0  0  0  0  0  0  0  0  0  0
   -1.8338   -3.2050    0.6442 H   0  0  0  0  0  0  0  0  0  0  0  0
    0.4453   -3.0848   -0.3304 H   0  0  0  0  0  0  0  0  0  0  0  0
   -0.1018   -1.8572   -1.4789 H   0  0  0  0  0  0  0  0  0  0  0  0
    1.3566    0.3731    0.9576 H   0  0  0  0  0  0  0  0  0  0  0  0
    0.9773    0.1832   -0.7507 H   0  0  0  0  0  0  0  0  0  0  0  0
    2.7075   -1.7513    0.9147 H   0  0  0  0  0  0  0  0  0  0  0  0
    2.4329   -1.8879   -0.8123 H   0  0  0  0  0  0  0  0  0  0  0  0
    3.4052   -0.2352   -2.4139 H   0  0  0  0  0  0  0  0  0  0  0  0
    5.3176    1.2910   -2.8393 H   0  0  0  0  0  0  0  0  0  0  0  0
    4.2321   -0.0242    1.8274 H   0  0  0  0  0  0  0  0  0  0  0  0
   -1.5894   -0.8634    1.7874 H   0  0  0  0  0  0  0  0  0  0  0  0
   -0.8317    0.6044    1.2435 H   0  0  0  0  0  0  0  0  0  0  0  0
  1  2  1  0
  2  3  2  0
  3  4  1  0
  4  5  1  0
  5  6  1  0
  6  7  1  0
  7  8  1  0
  8  9  1  0
  9 10  1  0
 10 11  1  0
 11 12  1  0
 12 13  1  0
 13 14  1  0
 14 15  2  0
 15 16  1  0
 16 17  1  0
 16 18  2  0
 18 19  1  0
 18 20  1  0
 10 21  1  0
  5 22  2  0
 22  2  1  0
 21  6  1  0
 20 13  2  0
  1 23  1  0
  1 24  1  0
  1 25  1  0
  6 26  1  0
  7 27  1  0
  7 28  1  0
  8 29  1  0
  8 30  1  0
  9 31  1  0
  9 32  1  0
 11 33  1  0
 11 34  1  0
 12 35  1  0
 12 36  1  0
 14 37  1  0
 15 38  1  0
 20 39  1  0
 21 40  1  0
 21 41  1  0
M  END
$$$$
OCNT-2317371
     RDKit          3D

 50 52  0  0  0  0  0  0  0  0999 V2000
   -8.0015    0.8944    0.6713 C   0  0  0  0  0  0  0  0  0  0  0  0
   -7.2890   -0.3297    0.2109 C   0  0  0  0  0  0  0  0  0  0  0  0
   -5.9232   -0.4700   -0.0039 C   0  0  0  0  0  0  0  0  0  0  0  0
   -4.8801    0.5288    0.1664 C   0  0  0  0  0  0  0  0  0  0  0  0
   -5.1058    1.6771    0.5421 O   0  0  0  0  0  0  0  0  0  0  0  0
   -3.5929    0.1064   -0.1114 N   0  0  0  0  0  0  0  0  0  0  0  0
   -2.4442    0.9391    0.1847 C   0  0  0  0  0  0  0  0  0  0  0  0
   -1.1746    0.4541   -0.5301 C   0  0  0  0  0  0  0  0  0  0  0  0
   -0.7559   -0.9467   -0.0412 C   0  0  0  0  0  0  0  0  0  0  0  0
    0.7631   -1.1074   -0.0103 C   0  0  0  0  0  0  0  0  0  0  0  0
    1.3573   -0.1636    0.9340 N   0  0  0  0  0  0  0  0  0  0  0  0
    2.8323   -0.2121    0.9734 C   0  0  0  0  0  0  0  0  0  0  0  0
    3.6221    0.1647   -0.3138 C   0  0  0  0  0  0  0  0  0  0  0  0
    3.4272    1.5372   -0.6675 O   0  0  0  0  0  0  0  0  0  0  0  0
    5.1094   -0.0927   -0.1499 C   0  0  0  0  0  0  0  0  0  0  0  0
    5.8870    0.6969    0.7133 C   0  0  0  0  0  0  0  0  0  0  0  0
    7.2521    0.4518    0.8645 C   0  0  0  0  0  0  0  0  0  0  0  0
    7.8563   -0.5843    0.1558 C   0  0  0  0  0  0  0  0  0  0  0  0
    7.0970   -1.3754   -0.7045 C   0  0  0  0  0  0  0  0  0  0  0  0
    5.7307   -1.1325   -0.8572 C   0  0  0  0  0  0  0  0  0  0  0  0
    0.8091    1.1950    0.8789 C   0  0  0  0  0  0  0  0  0  0  0  0
   -0.0284    1.4690   -0.3698 C   0  0  0  0  0  0  0  0  0  0  0  0
   -5.5923   -2.0752   -0.5311 S   0  0  0  0  0  0  0  0  0  0  0  0
   -7.2589   -2.4437   -0.4336 C   0  0  0  0  0  0  0  0  0  0  0  0
   -8.0440   -1.4689   -0.0380 N   0  0  0  0  0  0  0  0  0  0  0  0
   -9.0793    0.7139    0.7449 H   0  0  0  0  0  0  0  0  0  0  0  0
   -7.8463    1.7186   -0.0330 H   0  0  0  0  0  0  0  0  0  0  0  0
   -7.6429    1.1989    1.6602 H   0  0  0  0  0  0  0  0  0  0  0  0
   -3.4583   -0.8891   -0.2333 H   0  0  0  0  0  0  0  0  0  0  0  0
   -2.6816    1.9645   -0.1220 H   0  0  0  0  0  0  0  0  0  0  0  0
   -2.3122    0.9467    1.2726 H   0  0  0  0  0  0  0  0  0  0  0  0
   -1.4012    0.3888   -1.6031 H   0  0  0  0  0  0  0  0  0  0  0  0
   -1.1543   -1.1450    0.9621 H   0  0  0  0  0  0  0  0  0  0  0  0
   -1.1923   -1.7072   -0.6996 H   0  0  0  0  0  0  0  0  0  0  0  0
    1.0037   -2.1312    0.2985 H   0  0  0  0  0  0  0  0  0  0  0  0
    1.1515   -0.9756   -1.0262 H   0  0  0  0  0  0  0  0  0  0  0  0
    3.1186   -1.2297    1.2726 H   0  0  0  0  0  0  0  0  0  0  0  0
    3.1605    0.4319    1.8007 H   0  0  0  0  0  0  0  0  0  0  0  0
    3.2576   -0.4271   -1.1600 H   0  0  0  0  0  0  0  0  0  0  0  0
    4.1878    1.8010   -1.2126 H   0  0  0  0  0  0  0  0  0  0  0  0
    5.4281    1.5107    1.2728 H   0  0  0  0  0  0  0  0  0  0  0  0
    7.8434    1.0686    1.5370 H   0  0  0  0  0  0  0  0  0  0  0  0
    8.9196   -0.7757    0.2750 H   0  0  0  0  0  0  0  0  0  0  0  0
    7.5697   -2.1843   -1.2561 H   0  0  0  0  0  0  0  0  0  0  0  0
    5.1562   -1.7637   -1.5321 H   0  0  0  0  0  0  0  0  0  0  0  0
    0.1699    1.3235    1.7614 H   0  0  0  0  0  0  0  0  0  0  0  0
    1.5835    1.9640    0.9760 H   0  0  0  0  0  0  0  0  0  0  0  0
   -0.4149    2.4945   -0.3429 H   0  0  0  0  0  0  0  0  0  0  0  0
    0.6211    1.4153   -1.2534 H   0  0  0  0  0  0  0  0  0  0  0  0
   -7.6406   -3.4248   -0.6843 H   0  0  0  0  0  0  0  0  0  0  0  0
  1  2  1  0
  2  3  2  0
  3  4  1  0
  4  5  2  0
  4  6  1  0
  6  7  1  0
  7  8  1  0
  8  9  1  0
  9 10  1  0
 10 11  1  0
 11 12  1  0
 12 13  1  0
 13 14  1  0
 13 15  1  0
 15 16  2  0
 16 17  1  0
 17 18  2  0
 18 19  1  0
 19 20  2  0
 11 21  1  0
 21 22  1  0
  3 23  1  0
 23 24  1  0
 24 25  2  0
 25  2  1  0
 22  8  1  0
 20 15  1  0
  1 26  1  0
  1 27  1  0
  1 28  1  0
  6 29  1  0
  7 30  1  0
  7 31  1  0
  8 32  1  0
  9 33  1  0
  9 34  1  0
 10 35  1  0
 10 36  1  0
 12 37  1  0
 12 38  1  0
 13 39  1  0
 14 40  1  0
 16 41  1  0
 17 42  1  0
 18 43  1  0
 19 44  1  0
 20 45  1  0
 21 46  1  0
 21 47  1  0
 22 48  1  0
 22 49  1  0
 24 50  1  0
M  END
$$$$
OCNT-2317383
     RDKit          3D

 39 41  0  0  0  0  0  0  0  0999 V2000
   -3.2391   -1.9800   -0.8532 C   0  0  0  0  0  0  0  0  0  0  0  0
   -2.4420   -1.0473    0.0620 C   0  0  0  0  0  0  0  0  0  0  0  0
   -2.8502   -1.3341    1.4137 O   0  0  0  0  0  0  0  0  0  0  0  0
   -0.9085   -1.3118   -0.0125 C   0  0  0  0  0  0  0  0  0  0  0  0
   -0.3252   -1.3275   -1.3719 N   0  0  0  0  0  0  0  0  0  0  0  0
    1.1351   -1.4723   -1.3443 C   0  0  0  0  0  0  0  0  0  0  0  0
    1.8480   -0.2046   -0.9431 C   0  0  0  0  0  0  0  0  0  0  0  0
    1.8449    0.8579   -1.8515 C   0  0  0  0  0  0  0  0  0  0  0  0
    2.4300    2.0549   -1.6419 N   0  0  0  0  0  0  0  0  0  0  0  0
    3.0455    2.2146   -0.4513 C   0  0  0  0  0  0  0  0  0  0  0  0
    3.1196    1.2395    0.5454 C   0  0  0  0  0  0  0  0  0  0  0  0
    3.7748    1.4911    1.7659 C   0  0  0  0  0  0  0  0  0  0  0  0
    3.8277    0.5162    2.7596 C   0  0  0  0  0  0  0  0  0  0  0  0
    3.2329   -0.7195    2.5419 C   0  0  0  0  0  0  0  0  0  0  0  0
    2.5855   -0.9818    1.3294 C   0  0  0  0  0  0  0  0  0  0  0  0
    2.5065   -0.0114    0.3010 C   0  0  0  0  0  0  0  0  0  0  0  0
   -2.8016    0.3888   -0.1996 C   0  0  0  0  0  0  0  0  0  0  0  0
   -2.2202    1.4202   -0.9104 C   0  0  0  0  0  0  0  0  0  0  0  0
   -3.0683    2.5441   -0.7642 C   0  0  0  0  0  0  0  0  0  0  0  0
   -4.1220    2.1309    0.0170 C   0  0  0  0  0  0  0  0  0  0  0  0
   -3.9760    0.8260    0.3608 O   0  0  0  0  0  0  0  0  0  0  0  0
   -3.0579   -1.7694   -1.9132 H   0  0  0  0  0  0  0  0  0  0  0  0
   -2.9875   -3.0276   -0.6549 H   0  0  0  0  0  0  0  0  0  0  0  0
   -4.3162   -1.8815   -0.6714 H   0  0  0  0  0  0  0  0  0  0  0  0
   -3.6631   -0.8136    1.5574 H   0  0  0  0  0  0  0  0  0  0  0  0
   -0.4103   -0.5574    0.6102 H   0  0  0  0  0  0  0  0  0  0  0  0
   -0.7014   -2.2785    0.4679 H   0  0  0  0  0  0  0  0  0  0  0  0
   -0.7158   -2.1233   -1.8777 H   0  0  0  0  0  0  0  0  0  0  0  0
    1.4315   -2.3389   -0.7457 H   0  0  0  0  0  0  0  0  0  0  0  0
    1.4647   -1.7205   -2.3624 H   0  0  0  0  0  0  0  0  0  0  0  0
    1.3442    0.7641   -2.8131 H   0  0  0  0  0  0  0  0  0  0  0  0
    3.4975    3.1934   -0.3107 H   0  0  0  0  0  0  0  0  0  0  0  0
    4.2407    2.4568    1.9500 H   0  0  0  0  0  0  0  0  0  0  0  0
    4.3221    0.7249    3.7050 H   0  0  0  0  0  0  0  0  0  0  0  0
    3.2616   -1.4811    3.3177 H   0  0  0  0  0  0  0  0  0  0  0  0
    2.1249   -1.9588    1.2142 H   0  0  0  0  0  0  0  0  0  0  0  0
   -1.2932    1.3668   -1.4665 H   0  0  0  0  0  0  0  0  0  0  0  0
   -2.9284    3.5321   -1.1803 H   0  0  0  0  0  0  0  0  0  0  0  0
   -5.0110    2.6187    0.3950 H   0  0  0  0  0  0  0  0  0  0  0  0
  1  2  1  0
  2  3  1  0
  2  4  1  0
  4  5  1  0
  5  6  1  0
  6  7  1  0
  7  8  1  0
  8  9  2  0
  9 10  1  0
 10 11  2  0
 11 12  1  0
 12 13  2  0
 13 14  1  0
 14 15  2  0
 15 16  1  0
  2 17  1  0
 17 18  2  0
 18 19  1  0
 19 20  2  0
 20 21  1  0
 16  7  2  0
 21 17  1  0
 16 11  1  0
  1 22  1  0
  1 23  1  0
  1 24  1  0
  3 25  1  0
  4 26  1  0
  4 27  1  0
  5 28  1  0
  6 29  1  0
  6 30  1  0
  8 31  1  0
 10 32  1  0
 12 33  1  0
 13 34  1  0
 14 35  1  0
 15 36  1  0
 18 37  1  0
 19 38  1  0
 20 39  1  0
M  END
$$$$
OCNT-2317404
     RDKit          3D

 41 44  0  0  0  0  0  0  0  0999 V2000
    6.8222    1.6106    1.2087 C   0  0  0  0  0  0  0  0  0  0  0  0
    6.5818    0.3095    0.7865 C   0  0  0  0  0  0  0  0  0  0  0  0
    5.3175   -0.0316    0.3139 C   0  0  0  0  0  0  0  0  0  0  0  0
    4.3202    0.9427    0.2847 C   0  0  0  0  0  0  0  0  0  0  0  0
    2.9429    0.6230   -0.2555 C   0  0  0  0  0  0  0  0  0  0  0  0
    2.4922   -0.6362    0.2500 O   0  0  0  0  0  0  0  0  0  0  0  0
    1.2688   -1.0762   -0.1744 C   0  0  0  0  0  0  0  0  0  0  0  0
    0.3932   -0.3883   -1.0172 C   0  0  0  0  0  0  0  0  0  0  0  0
   -0.8422   -0.9550   -1.3815 C   0  0  0  0  0  0  0  0  0  0  0  0
   -1.8045   -0.1933   -2.2656 C   0  0  0  0  0  0  0  0  0  0  0  0
   -2.6516    0.6728   -1.4603 N   0  0  0  0  0  0  0  0  0  0  0  0
   -3.8343    0.1211   -0.9658 C   0  0  0  0  0  0  0  0  0  0  0  0
   -4.4398    0.5982    0.2168 C   0  0  0  0  0  0  0  0  0  0  0  0
   -4.0908    1.6331    1.1537 C   0  0  0  0  0  0  0  0  0  0  0  0
   -4.9951    1.7429    2.1875 C   0  0  0  0  0  0  0  0  0  0  0  0
   -6.2681    0.6117    2.0418 S   0  0  0  0  0  0  0  0  0  0  0  0
   -5.6182   -0.0246    0.5990 C   0  0  0  0  0  0  0  0  0  0  0  0
   -6.2412   -1.0248   -0.0444 N   0  0  0  0  0  0  0  0  0  0  0  0
   -5.5937   -1.3859   -1.1536 C   0  0  0  0  0  0  0  0  0  0  0  0
   -4.4480   -0.8806   -1.6374 N   0  0  0  0  0  0  0  0  0  0  0  0
   -1.1918   -2.2149   -0.8774 C   0  0  0  0  0  0  0  0  0  0  0  0
   -0.3213   -2.9023   -0.0349 C   0  0  0  0  0  0  0  0  0  0  0  0
    0.9032   -2.3330    0.3129 C   0  0  0  0  0  0  0  0  0  0  0  0
    4.5475    2.2226    0.6807 N   0  0  0  0  0  0  0  0  0  0  0  0
    5.7838    2.5227    1.1370 C   0  0  0  0  0  0  0  0  0  0  0  0
    7.7950    1.9073    1.5837 H   0  0  0  0  0  0  0  0  0  0  0  0
    7.3710   -0.4358    0.8250 H   0  0  0  0  0  0  0  0  0  0  0  0
    5.1125   -1.0442   -0.0203 H   0  0  0  0  0  0  0  0  0  0  0  0
    3.0100    0.5935   -1.3499 H   0  0  0  0  0  0  0  0  0  0  0  0
    2.2514    1.4154    0.0561 H   0  0  0  0  0  0  0  0  0  0  0  0
    0.6412    0.5948   -1.4054 H   0  0  0  0  0  0  0  0  0  0  0  0
   -1.2248    0.4397   -2.9491 H   0  0  0  0  0  0  0  0  0  0  0  0
   -2.3630   -0.8754   -2.9184 H   0  0  0  0  0  0  0  0  0  0  0  0
   -2.1420    1.1831   -0.7493 H   0  0  0  0  0  0  0  0  0  0  0  0
   -3.2170    2.2666    1.0685 H   0  0  0  0  0  0  0  0  0  0  0  0
   -4.9717    2.4324    3.0206 H   0  0  0  0  0  0  0  0  0  0  0  0
   -6.0450   -2.1845   -1.7342 H   0  0  0  0  0  0  0  0  0  0  0  0
   -2.1517   -2.6595   -1.1344 H   0  0  0  0  0  0  0  0  0  0  0  0
   -0.5980   -3.8779    0.3558 H   0  0  0  0  0  0  0  0  0  0  0  0
    1.5773   -2.8721    0.9742 H   0  0  0  0  0  0  0  0  0  0  0  0
    5.9222    3.5526    1.4534 H   0  0  0  0  0  0  0  0  0  0  0  0
  1  2  2  0
  2  3  1  0
  3  4  2  0
  4  5  1  0
  5  6  1  0
  6  7  1  0
  7  8  2  0
  8  9  1  0
  9 10  1  0
 10 11  1  0
 11 12  1  0
 12 13  2  0
 13 14  1  0
 14 15  2  0
 15 16  1  0
 16 17  1  0
 17 18  2  0
 18 19  1  0
 19 20  2  0
  9 21  2  0
 21 22  1  0
 22 23  2  0
  4 24  1  0
 24 25  2  0
 25  1  1  0
 23  7  1  0
 20 12  1  0
 17 13  1  0
  1 26  1  0
  2 27  1  0
  3 28  1  0
  5 29  1  0
  5 30  1  0
  8 31  1  0
 10 32  1  0
 10 33  1  0
 11 34  1  0
 14 35  1  0
 15 36  1  0
 19 37  1  0
 21 38  1  0
 22 39  1  0
 23 40  1  0
 25 41  1  0
M  END
$$$$
OCNT-2317414
     RDKit          3D

 43 45  0  0  0  0  0  0  0  0999 V2000
   -1.1527   -1.3628    0.8467 O   0  0  0  0  0  0  0  0  0  0  0  0
   -0.5078   -0.3955    0.4331 C   0  0  0  0  0  0  0  0  0  0  0  0
    0.9392   -0.5300   -0.0098 C   0  0  0  0  0  0  0  0  0  0  0  0
    1.4259   -1.9794    0.0520 C   0  0  0  0  0  0  0  0  0  0  0  0
    1.0105   -2.6675   -1.1317 O   0  0  0  0  0  0  0  0  0  0  0  0
    2.9398   -2.0502    0.1362 C   0  0  0  0  0  0  0  0  0  0  0  0
    3.5605   -2.4416    1.3323 C   0  0  0  0  0  0  0  0  0  0  0  0
    4.9537   -2.4940    1.4239 C   0  0  0  0  0  0  0  0  0  0  0  0
    5.7349   -2.1534    0.3218 C   0  0  0  0  0  0  0  0  0  0  0  0
    7.4503   -2.2167    0.4376 Cl  0  0  0  0  0  0  0  0  0  0  0  0
    5.1359   -1.7612   -0.8725 C   0  0  0  0  0  0  0  0  0  0  0  0
    3.7433   -1.7090   -0.9646 C   0  0  0  0  0  0  0  0  0  0  0  0
   -1.0736    0.8816    0.3806 N   0  0  0  0  0  0  0  0  0  0  0  0
   -0.4867    1.9883   -0.3823 C   0  0  0  0  0  0  0  0  0  0  0  0
   -0.8214    3.3490    0.2164 C   0  0  0  0  0  0  0  0  0  0  0  0
   -2.3218    3.5253    0.3942 C   0  0  0  0  0  0  0  0  0  0  0  0
   -2.8952    2.3786    1.2219 C   0  0  0  0  0  0  0  0  0  0  0  0
   -2.5123    0.9905    0.6877 C   0  0  0  0  0  0  0  0  0  0  0  0
   -3.3150    0.5813   -0.5223 C   0  0  0  0  0  0  0  0  0  0  0  0
   -3.9899    1.3455   -1.3600 N   0  0  0  0  0  0  0  0  0  0  0  0
   -4.5368    0.4930   -2.2840 C   0  0  0  0  0  0  0  0  0  0  0  0
   -4.1912   -0.8079   -2.0127 C   0  0  0  0  0  0  0  0  0  0  0  0
   -3.4154   -0.7418   -0.8912 N   0  0  0  0  0  0  0  0  0  0  0  0
    1.5366    0.0996    0.6606 H   0  0  0  0  0  0  0  0  0  0  0  0
    1.0259   -0.1599   -1.0379 H   0  0  0  0  0  0  0  0  0  0  0  0
    0.9917   -2.5156    0.9032 H   0  0  0  0  0  0  0  0  0  0  0  0
    1.4512   -3.5353   -1.1189 H   0  0  0  0  0  0  0  0  0  0  0  0
    2.9643   -2.7094    2.2031 H   0  0  0  0  0  0  0  0  0  0  0  0
    5.4220   -2.8001    2.3558 H   0  0  0  0  0  0  0  0  0  0  0  0
    5.7441   -1.4958   -1.7332 H   0  0  0  0  0  0  0  0  0  0  0  0
    3.2831   -1.4031   -1.9031 H   0  0  0  0  0  0  0  0  0  0  0  0
    0.6009    1.8953   -0.4260 H   0  0  0  0  0  0  0  0  0  0  0  0
   -0.8577    1.9148   -1.4115 H   0  0  0  0  0  0  0  0  0  0  0  0
   -0.4267    4.1449   -0.4253 H   0  0  0  0  0  0  0  0  0  0  0  0
   -0.3287    3.4474    1.1920 H   0  0  0  0  0  0  0  0  0  0  0  0
   -2.8084    3.5737   -0.5860 H   0  0  0  0  0  0  0  0  0  0  0  0
   -2.5257    4.4786    0.8951 H   0  0  0  0  0  0  0  0  0  0  0  0
   -3.9845    2.4819    1.2948 H   0  0  0  0  0  0  0  0  0  0  0  0
   -2.5030    2.4736    2.2435 H   0  0  0  0  0  0  0  0  0  0  0  0
   -2.7500    0.2750    1.4869 H   0  0  0  0  0  0  0  0  0  0  0  0
   -5.1478    0.8623   -3.0973 H   0  0  0  0  0  0  0  0  0  0  0  0
   -4.4147   -1.7428   -2.5057 H   0  0  0  0  0  0  0  0  0  0  0  0
   -2.9474   -1.5068   -0.4158 H   0  0  0  0  0  0  0  0  0  0  0  0
  1  2  2  0
  2  3  1  0
  3  4  1  0
  4  5  1  0
  4  6  1  0
  6  7  1  0
  7  8  2  0
  8  9  1  0
  9 10  1  0
  9 11  2  0
 11 12  1  0
  2 13  1  0
 13 14  1  0
 14 15  1  0
 15 16  1  0
 16 17  1  0
 17 18  1  0
 18 19  1  0
 19 20  2  0
 20 21  1  0
 21 22  2  0
 22 23  1  0
 12  6  2  0
 18 13  1  0
 23 19  1  0
  3 24  1  0
  3 25  1  0
  4 26  1  0
  5 27  1  0
  7 28  1  0
  8 29  1  0
 11 30  1  0
 12 31  1  0
 14 32  1  0
 14 33  1  0
 15 34  1  0
 15 35  1  0
 16 36  1  0
 16 37  1  0
 17 38  1  0
 17 39  1  0
 18 40  1  0
 21 41  1  0
 22 42  1  0
 23 43  1  0
M  END
$$$$
OCNT-2317417
     RDKit          3D

 52 55  0  0  0  0  0  0  0  0999 V2000
   -9.3972    0.0879    0.6073 C   0  0  0  0  0  0  0  0  0  0  0  0
   -8.0594    0.2802    0.1522 O   0  0  0  0  0  0  0  0  0  0  0  0
   -7.8420   -0.5895   -0.9808 N   0  0  0  0  0  0  0  0  0  0  0  0
   -7.5228    0.1075   -2.2366 C   0  0  0  0  0  0  0  0  0  0  0  0
   -6.7531   -1.8292   -0.4944 S   0  0  0  0  0  0  0  0  0  0  0  0
   -6.4967   -2.6754   -1.6438 O   0  0  0  0  0  0  0  0  0  0  0  0
   -7.2135   -2.4022    0.7548 O   0  0  0  0  0  0  0  0  0  0  0  0
   -5.2414   -0.9453   -0.1466 C   0  0  0  0  0  0  0  0  0  0  0  0
   -4.2136   -0.9233   -1.0964 C   0  0  0  0  0  0  0  0  0  0  0  0
   -3.0186   -0.2583   -0.8073 C   0  0  0  0  0  0  0  0  0  0  0  0
   -2.8467    0.3659    0.4375 C   0  0  0  0  0  0  0  0  0  0  0  0
   -1.5917    1.0929    0.7837 C   0  0  0  0  0  0  0  0  0  0  0  0
   -1.6872    2.0983    1.4755 O   0  0  0  0  0  0  0  0  0  0  0  0
   -0.4444    0.5128    0.2973 N   0  0  0  0  0  0  0  0  0  0  0  0
    0.8389    0.9745    0.4393 C   0  0  0  0  0  0  0  0  0  0  0  0
    1.8536    0.2806   -0.0198 N   0  0  0  0  0  0  0  0  0  0  0  0
    3.0446    0.9466    0.2444 C   0  0  0  0  0  0  0  0  0  0  0  0
    4.3293    0.3786   -0.1599 C   0  0  0  0  0  0  0  0  0  0  0  0
    4.3578   -0.6268   -1.1393 C   0  0  0  0  0  0  0  0  0  0  0  0
    5.5652   -1.2001   -1.5489 C   0  0  0  0  0  0  0  0  0  0  0  0
    6.7602   -0.7622   -0.9865 C   0  0  0  0  0  0  0  0  0  0  0  0
    7.9681   -1.3374   -1.3892 N   0  0  0  0  0  0  0  0  0  0  0  0
    9.2018   -0.8757   -1.0148 C   0  0  0  0  0  0  0  0  0  0  0  0
   10.2268   -1.4612   -1.3561 O   0  0  0  0  0  0  0  0  0  0  0  0
    9.2313    0.4404   -0.2727 C   0  0  0  0  0  0  0  0  0  0  0  0
    8.0534    0.5871    0.6765 C   0  0  0  0  0  0  0  0  0  0  0  0
    6.7597    0.2281   -0.0005 C   0  0  0  0  0  0  0  0  0  0  0  0
    5.5424    0.7886    0.4156 C   0  0  0  0  0  0  0  0  0  0  0  0
    2.8869    2.1628    0.8817 C   0  0  0  0  0  0  0  0  0  0  0  0
    1.2236    2.4594    1.1723 S   0  0  0  0  0  0  0  0  0  0  0  0
   -3.8820    0.3361    1.3827 C   0  0  0  0  0  0  0  0  0  0  0  0
   -5.0750   -0.3313    1.0984 C   0  0  0  0  0  0  0  0  0  0  0  0
   -9.5614    0.7385    1.4703 H   0  0  0  0  0  0  0  0  0  0  0  0
  -10.1069    0.3627   -0.1792 H   0  0  0  0  0  0  0  0  0  0  0  0
   -9.5581   -0.9495    0.9151 H   0  0  0  0  0  0  0  0  0  0  0  0
   -8.3626    0.7561   -2.5048 H   0  0  0  0  0  0  0  0  0  0  0  0
   -6.6326    0.7317   -2.1266 H   0  0  0  0  0  0  0  0  0  0  0  0
   -7.3829   -0.6039   -3.0545 H   0  0  0  0  0  0  0  0  0  0  0  0
   -4.3361   -1.4153   -2.0596 H   0  0  0  0  0  0  0  0  0  0  0  0
   -2.2445   -0.2170   -1.5697 H   0  0  0  0  0  0  0  0  0  0  0  0
   -0.4816   -0.3896   -0.1537 H   0  0  0  0  0  0  0  0  0  0  0  0
    3.4305   -0.9734   -1.5924 H   0  0  0  0  0  0  0  0  0  0  0  0
    5.5540   -1.9765   -2.3084 H   0  0  0  0  0  0  0  0  0  0  0  0
    7.9683   -2.1473   -1.9962 H   0  0  0  0  0  0  0  0  0  0  0  0
    9.2236    1.2399   -1.0234 H   0  0  0  0  0  0  0  0  0  0  0  0
   10.1685    0.5121    0.2895 H   0  0  0  0  0  0  0  0  0  0  0  0
    8.0192    1.6172    1.0494 H   0  0  0  0  0  0  0  0  0  0  0  0
    8.1829   -0.0767    1.5404 H   0  0  0  0  0  0  0  0  0  0  0  0
    5.5552    1.5301    1.2106 H   0  0  0  0  0  0  0  0  0  0  0  0
    3.6301    2.8864    1.1813 H   0  0  0  0  0  0  0  0  0  0  0  0
   -3.7568    0.8286    2.3461 H   0  0  0  0  0  0  0  0  0  0  0  0
   -5.8669   -0.3644    1.8443 H   0  0  0  0  0  0  0  0  0  0  0  0
  1  2  1  0
  2  3  1  0
  3  4  1  0
  3  5  1  0
  5  6  2  0
  5  7  2  0
  5  8  1  0
  8  9  1  0
  9 10  2  0
 10 11  1  0
 11 12  1  0
 12 13  2  0
 12 14  1  0
 14 15  1  0
 15 16  2  0
 16 17  1  0
 17 18  1  0
 18 19  1  0
 19 20  2  0
 20 21  1  0
 21 22  1  0
 22 23  1  0
 23 24  2  0
 23 25  1  0
 25 26  1  0
 26 27  1  0
 27 28  1  0
 17 29  2  0
 29 30  1  0
 11 31  2  0
 31 32  1  0
 32  8  2  0
 30 15  1  0
 28 18  2  0
 27 21  2  0
  1 33  1  0
  1 34  1  0
  1 35  1  0
  4 36  1  0
  4 37  1  0
  4 38  1  0
  9 39  1  0
 10 40  1  0
 14 41  1  0
 19 42  1  0
 20 43  1  0
 22 44  1  0
 25 45  1  0
 25 46  1  0
 26 47  1  0
 26 48  1  0
 28 49  1  0
 29 50  1  0
 31 51  1  0
 32 52  1  0
M  END
$$$$
OCNT-2317425
     RDKit          3D

 53 55  0  0  0  0  0  0  0  0999 V2000
   -7.2322   -0.6469    0.7318 C   0  0  0  0  0  0  0  0  0  0  0  0
   -5.8909   -0.6332    0.1335 N   0  0  0  0  0  0  0  0  0  0  0  0
   -4.8872   -0.3782    1.1826 C   0  0  0  0  0  0  0  0  0  0  0  0
   -3.5191   -0.9978    0.8957 C   0  0  0  0  0  0  0  0  0  0  0  0
   -3.0297   -0.9008   -0.5403 C   0  0  0  0  0  0  0  0  0  0  0  0
   -3.3260    0.4471   -1.1006 N   0  0  0  0  0  0  0  0  0  0  0  0
   -2.0576    1.1690   -1.9876 S   0  0  0  0  0  0  0  0  0  0  0  0
   -2.4846    2.4902   -2.3980 O   0  0  0  0  0  0  0  0  0  0  0  0
   -1.5946    0.1966   -2.9554 O   0  0  0  0  0  0  0  0  0  0  0  0
   -0.8038    1.3933   -0.7531 C   0  0  0  0  0  0  0  0  0  0  0  0
   -1.0475    2.2698    0.3037 C   0  0  0  0  0  0  0  0  0  0  0  0
   -0.0763    2.4267    1.2859 C   0  0  0  0  0  0  0  0  0  0  0  0
    1.1321    1.7238    1.1971 C   0  0  0  0  0  0  0  0  0  0  0  0
    1.4095    0.8777    0.1139 C   0  0  0  0  0  0  0  0  0  0  0  0
    2.5686    0.1022    0.0146 N   0  0  0  0  0  0  0  0  0  0  0  0
    3.7658    0.4983    0.7413 C   0  0  0  0  0  0  0  0  0  0  0  0
    4.9034   -0.4184    0.3532 C   0  0  0  0  0  0  0  0  0  0  0  0
    4.9320   -1.7403    0.8183 C   0  0  0  0  0  0  0  0  0  0  0  0
    5.9734   -2.5846    0.4525 C   0  0  0  0  0  0  0  0  0  0  0  0
    5.9937   -3.8429    0.9098 F   0  0  0  0  0  0  0  0  0  0  0  0
    6.9956   -2.1451   -0.3803 C   0  0  0  0  0  0  0  0  0  0  0  0
    6.9811   -0.8334   -0.8746 C   0  0  0  0  0  0  0  0  0  0  0  0
    8.0943   -0.3397   -1.7651 C   0  0  0  0  0  0  0  0  0  0  0  0
    9.1087    0.2250   -1.0552 F   0  0  0  0  0  0  0  0  0  0  0  0
    7.6836    0.6091   -2.6518 F   0  0  0  0  0  0  0  0  0  0  0  0
    8.6609   -1.3270   -2.5120 F   0  0  0  0  0  0  0  0  0  0  0  0
    5.9309    0.0242   -0.4969 C   0  0  0  0  0  0  0  0  0  0  0  0
    0.4068    0.6985   -0.8479 C   0  0  0  0  0  0  0  0  0  0  0  0
   -4.6245    0.4204   -1.8473 C   0  0  0  0  0  0  0  0  0  0  0  0
   -5.8412    0.4344   -0.8997 C   0  0  0  0  0  0  0  0  0  0  0  0
   -7.9928   -0.8512   -0.0301 H   0  0  0  0  0  0  0  0  0  0  0  0
   -7.3147   -1.4515    1.4713 H   0  0  0  0  0  0  0  0  0  0  0  0
   -7.4772    0.3025    1.2219 H   0  0  0  0  0  0  0  0  0  0  0  0
   -5.2176   -0.8115    2.1369 H   0  0  0  0  0  0  0  0  0  0  0  0
   -4.7817    0.6973    1.3798 H   0  0  0  0  0  0  0  0  0  0  0  0
   -2.7871   -0.5158    1.5567 H   0  0  0  0  0  0  0  0  0  0  0  0
   -3.5330   -2.0579    1.1793 H   0  0  0  0  0  0  0  0  0  0  0  0
   -3.4909   -1.6872   -1.1499 H   0  0  0  0  0  0  0  0  0  0  0  0
   -1.9565   -1.1164   -0.5500 H   0  0  0  0  0  0  0  0  0  0  0  0
   -1.9873    2.8131    0.3675 H   0  0  0  0  0  0  0  0  0  0  0  0
   -0.2564    3.0897    2.1285 H   0  0  0  0  0  0  0  0  0  0  0  0
    1.8505    1.8566    2.0008 H   0  0  0  0  0  0  0  0  0  0  0  0
    2.7685   -0.1603   -0.9486 H   0  0  0  0  0  0  0  0  0  0  0  0
    3.6151    0.4219    1.8250 H   0  0  0  0  0  0  0  0  0  0  0  0
    4.0315    1.5380    0.5127 H   0  0  0  0  0  0  0  0  0  0  0  0
    4.1418   -2.1200    1.4610 H   0  0  0  0  0  0  0  0  0  0  0  0
    7.7951   -2.8342   -0.6424 H   0  0  0  0  0  0  0  0  0  0  0  0
    5.9158    1.0475   -0.8746 H   0  0  0  0  0  0  0  0  0  0  0  0
    0.5683    0.0106   -1.6752 H   0  0  0  0  0  0  0  0  0  0  0  0
   -4.6665   -0.4553   -2.5063 H   0  0  0  0  0  0  0  0  0  0  0  0
   -4.7105    1.3033   -2.4906 H   0  0  0  0  0  0  0  0  0  0  0  0
   -5.9149    1.4229   -0.4256 H   0  0  0  0  0  0  0  0  0  0  0  0
   -6.7245    0.3401   -1.5458 H   0  0  0  0  0  0  0  0  0  0  0  0
  1  2  1  0
  2  3  1  0
  3  4  1  0
  4  5  1  0
  5  6  1  0
  6  7  1  0
  7  8  2  0
  7  9  2  0
  7 10  1  0
 10 11  2  0
 11 12  1  0
 12 13  2  0
 13 14  1  0
 14 15  1  0
 15 16  1  0
 16 17  1  0
 17 18  2  0
 18 19  1  0
 19 20  1  0
 19 21  2  0
 21 22  1  0
 22 23  1  0
 23 24  1  0
 23 25  1  0
 23 26  1  0
 22 27  2  0
 14 28  2  0
  6 29  1  0
 29 30  1  0
 30  2  1  0
 28 10  1  0
 27 17  1  0
  1 31  1  0
  1 32  1  0
  1 33  1  0
  3 34  1  0
  3 35  1  0
  4 36  1  0
  4 37  1  0
  5 38  1  0
  5 39  1  0
 11 40  1  0
 12 41  1  0
 13 42  1  0
 15 43  1  0
 16 44  1  0
 16 45  1  0
 18 46  1  0
 21 47  1  0
 27 48  1  0
 28 49  1  0
 29 50  1  0
 29 51  1  0
 30 52  1  0
 30 53  1  0
M  END
$$$$
OCNT-2317432
     RDKit          3D

 40 42  0  0  0  0  0  0  0  0999 V2000
    5.6545    1.9442    0.5537 C   0  0  0  0  0  0  0  0  0  0  0  0
    4.8629    0.6740    0.3916 C   0  0  0  0  0  0  0  0  0  0  0  0
    5.5963   -0.4152   -0.3433 C   0  0  0  0  0  0  0  0  0  0  0  0
    3.3410    0.8065    0.2600 C   0  0  0  0  0  0  0  0  0  0  0  0
    2.5273   -0.0864   -0.6098 C   0  0  0  0  0  0  0  0  0  0  0  0
    1.1390   -0.0167   -0.2130 N   0  0  0  0  0  0  0  0  0  0  0  0
    0.1808   -0.5392   -1.0458 C   0  0  0  0  0  0  0  0  0  0  0  0
    0.4004   -0.9794   -2.1648 O   0  0  0  0  0  0  0  0  0  0  0  0
   -1.0535   -0.5040   -0.4529 N   0  0  0  0  0  0  0  0  0  0  0  0
   -2.2145   -0.8968   -1.2185 C   0  0  0  0  0  0  0  0  0  0  0  0
   -3.4353   -0.9605   -0.3358 C   0  0  0  0  0  0  0  0  0  0  0  0
   -3.7278   -2.1638    0.3369 C   0  0  0  0  0  0  0  0  0  0  0  0
   -4.8273   -2.2813    1.1751 C   0  0  0  0  0  0  0  0  0  0  0  0
   -5.6708   -1.1903    1.3783 C   0  0  0  0  0  0  0  0  0  0  0  0
   -5.4115    0.0460    0.7417 C   0  0  0  0  0  0  0  0  0  0  0  0
   -4.2974    0.1432   -0.1014 C   0  0  0  0  0  0  0  0  0  0  0  0
   -4.1665    1.7434   -0.7516 S   0  0  0  0  0  0  0  0  0  0  0  0
   -5.5646    2.2805    0.0554 C   0  0  0  0  0  0  0  0  0  0  0  0
   -6.1312    1.2866    0.8151 C   0  0  0  0  0  0  0  0  0  0  0  0
    3.9519    0.2765    1.5047 C   0  0  0  0  0  0  0  0  0  0  0  0
    3.8855    1.0137    2.6646 F   0  0  0  0  0  0  0  0  0  0  0  0
    3.7875   -1.0438    1.8548 F   0  0  0  0  0  0  0  0  0  0  0  0
    6.5702    1.7535    1.1230 H   0  0  0  0  0  0  0  0  0  0  0  0
    5.9349    2.3440   -0.4264 H   0  0  0  0  0  0  0  0  0  0  0  0
    5.0880    2.7193    1.0812 H   0  0  0  0  0  0  0  0  0  0  0  0
    5.0771   -1.3777   -0.3045 H   0  0  0  0  0  0  0  0  0  0  0  0
    6.5898   -0.5662    0.0924 H   0  0  0  0  0  0  0  0  0  0  0  0
    5.7234   -0.1407   -1.3956 H   0  0  0  0  0  0  0  0  0  0  0  0
    2.9303    1.8097    0.2913 H   0  0  0  0  0  0  0  0  0  0  0  0
    2.6163    0.2316   -1.6546 H   0  0  0  0  0  0  0  0  0  0  0  0
    2.8308   -1.1369   -0.5515 H   0  0  0  0  0  0  0  0  0  0  0  0
    0.9454   -0.1874    0.7641 H   0  0  0  0  0  0  0  0  0  0  0  0
   -1.1872    0.2754    0.1746 H   0  0  0  0  0  0  0  0  0  0  0  0
   -2.3486   -0.1812   -2.0370 H   0  0  0  0  0  0  0  0  0  0  0  0
   -2.0251   -1.8712   -1.6854 H   0  0  0  0  0  0  0  0  0  0  0  0
   -3.0771   -3.0270    0.1989 H   0  0  0  0  0  0  0  0  0  0  0  0
   -5.0314   -3.2244    1.6761 H   0  0  0  0  0  0  0  0  0  0  0  0
   -6.5301   -1.2914    2.0367 H   0  0  0  0  0  0  0  0  0  0  0  0
   -5.9065    3.2996   -0.0622 H   0  0  0  0  0  0  0  0  0  0  0  0
   -7.0266    1.4338    1.4064 H   0  0  0  0  0  0  0  0  0  0  0  0
  1  2  1  0
  2  3  1  0
  2  4  1  0
  4  5  1  0
  5  6  1  0
  6  7  1  0
  7  8  2  0
  7  9  1  0
  9 10  1  0
 10 11  1  0
 11 12  1  0
 12 13  2  0
 13 14  1  0
 14 15  2  0
 15 16  1  0
 16 17  1  0
 17 18  1  0
 18 19  2  0
  4 20  1  0
 20 21  1  0
 20 22  1  0
 20  2  1  0
 16 11  2  0
 19 15  1  0
  1 23  1  0
  1 24  1  0
  1 25  1  0
  3 26  1  0
  3 27  1  0
  3 28  1  0
  4 29  1  0
  5 30  1  0
  5 31  1  0
  6 32  1  0
  9 33  1  0
 10 34  1  0
 10 35  1  0
 12 36  1  0
 13 37  1  0
 14 38  1  0
 18 39  1  0
 19 40  1  0
M  END
$$$$
OCNT-2317433
     RDKit          3D

 47 49  0  0  0  0  0  0  0  0999 V2000
    6.3130    0.9532   -0.0238 C   0  0  0  0  0  0  0  0  0  0  0  0
    5.1647    0.4958    0.8791 C   0  0  0  0  0  0  0  0  0  0  0  0
    5.4301   -0.9073    1.4304 C   0  0  0  0  0  0  0  0  0  0  0  0
    3.8282    0.5701    0.1629 C   0  0  0  0  0  0  0  0  0  0  0  0
    3.5597   -0.1961   -0.9801 C   0  0  0  0  0  0  0  0  0  0  0  0
    2.3213   -0.1132   -1.6220 C   0  0  0  0  0  0  0  0  0  0  0  0
    1.3239    0.7399   -1.1368 C   0  0  0  0  0  0  0  0  0  0  0  0
   -0.0191    0.8151   -1.8201 C   0  0  0  0  0  0  0  0  0  0  0  0
   -0.9269   -0.3711   -1.4838 C   0  0  0  0  0  0  0  0  0  0  0  0
   -2.2571   -0.3349   -2.2481 C   0  0  0  0  0  0  0  0  0  0  0  0
   -3.3245   -0.7221   -1.2265 C   0  0  0  0  0  0  0  0  0  0  0  0
   -2.5607   -1.2492   -0.1025 N   0  0  0  0  0  0  0  0  0  0  0  0
   -3.2839   -1.3998    1.1612 C   0  0  0  0  0  0  0  0  0  0  0  0
   -3.8901   -0.1626    1.7290 C   0  0  0  0  0  0  0  0  0  0  0  0
   -3.2758    0.8258    2.3518 N   0  0  0  0  0  0  0  0  0  0  0  0
   -4.2500    1.7245    2.7087 N   0  0  0  0  0  0  0  0  0  0  0  0
   -5.4469    1.3021    2.3296 N   0  0  0  0  0  0  0  0  0  0  0  0
   -5.2275    0.1265    1.7224 N   0  0  0  0  0  0  0  0  0  0  0  0
   -6.3221   -0.6360    1.1913 C   0  0  0  0  0  0  0  0  0  0  0  0
   -1.3513   -0.4296   -0.0175 C   0  0  0  0  0  0  0  0  0  0  0  0
    1.5866    1.5057    0.0042 C   0  0  0  0  0  0  0  0  0  0  0  0
    2.8250    1.4216    0.6462 C   0  0  0  0  0  0  0  0  0  0  0  0
    6.4496    0.2870   -0.8826 H   0  0  0  0  0  0  0  0  0  0  0  0
    7.2557    0.9740    0.5337 H   0  0  0  0  0  0  0  0  0  0  0  0
    6.1295    1.9620   -0.4099 H   0  0  0  0  0  0  0  0  0  0  0  0
    5.1389    1.1795    1.7381 H   0  0  0  0  0  0  0  0  0  0  0  0
    6.3558   -0.9219    2.0159 H   0  0  0  0  0  0  0  0  0  0  0  0
    4.6139   -1.2314    2.0858 H   0  0  0  0  0  0  0  0  0  0  0  0
    5.5310   -1.6496    0.6311 H   0  0  0  0  0  0  0  0  0  0  0  0
    4.3135   -0.8685   -1.3828 H   0  0  0  0  0  0  0  0  0  0  0  0
    2.1403   -0.7220   -2.5049 H   0  0  0  0  0  0  0  0  0  0  0  0
   -0.5145    1.7596   -1.5596 H   0  0  0  0  0  0  0  0  0  0  0  0
    0.1453    0.8584   -2.9048 H   0  0  0  0  0  0  0  0  0  0  0  0
   -0.4141   -1.3096   -1.7404 H   0  0  0  0  0  0  0  0  0  0  0  0
   -2.4712    0.6553   -2.6657 H   0  0  0  0  0  0  0  0  0  0  0  0
   -2.2296   -1.0488   -3.0793 H   0  0  0  0  0  0  0  0  0  0  0  0
   -4.0154   -1.4673   -1.6332 H   0  0  0  0  0  0  0  0  0  0  0  0
   -3.8993    0.1730   -0.9623 H   0  0  0  0  0  0  0  0  0  0  0  0
   -2.5989   -1.8193    1.9095 H   0  0  0  0  0  0  0  0  0  0  0  0
   -4.0528   -2.1697    1.0253 H   0  0  0  0  0  0  0  0  0  0  0  0
   -6.0956   -0.9098    0.1585 H   0  0  0  0  0  0  0  0  0  0  0  0
   -6.4502   -1.5301    1.8061 H   0  0  0  0  0  0  0  0  0  0  0  0
   -7.2348   -0.0348    1.2161 H   0  0  0  0  0  0  0  0  0  0  0  0
   -1.5544    0.5763    0.3674 H   0  0  0  0  0  0  0  0  0  0  0  0
   -0.5841   -0.9024    0.6042 H   0  0  0  0  0  0  0  0  0  0  0  0
    0.8275    2.1727    0.4075 H   0  0  0  0  0  0  0  0  0  0  0  0
    2.9974    2.0290    1.5321 H   0  0  0  0  0  0  0  0  0  0  0  0
  1  2  1  0
  2  3  1  0
  2  4  1  0
  4  5  1  0
  5  6  2  0
  6  7  1  0
  7  8  1  0
  8  9  1  0
  9 10  1  0
 10 11  1  0
 11 12  1  0
 12 13  1  0
 13 14  1  0
 14 15  2  0
 15 16  1  0
 16 17  2  0
 17 18  1  0
 18 19  1  0
 12 20  1  0
  7 21  2  0
 21 22  1  0
 22  4  2  0
 20  9  1  0
 18 14  1  0
  1 23  1  0
  1 24  1  0
  1 25  1  0
  2 26  1  0
  3 27  1  0
  3 28  1  0
  3 29  1  0
  5 30  1  0
  6 31  1  0
  8 32  1  0
  8 33  1  0
  9 34  1  0
 10 35  1  0
 10 36  1  0
 11 37  1  0
 11 38  1  0
 13 39  1  0
 13 40  1  0
 19 41  1  0
 19 42  1  0
 19 43  1  0
 20 44  1  0
 20 45  1  0
 21 46  1  0
 22 47  1  0
M  END
$$$$
OCNT-2317446
     RDKit          3D

 54 57  0  0  0  0  0  0  0  0999 V2000
    6.2334   -0.2370   -1.2137 C   0  0  0  0  0  0  0  0  0  0  0  0
    4.9141    0.4857   -0.9308 C   0  0  0  0  0  0  0  0  0  0  0  0
    5.1651    1.9326   -0.4866 C   0  0  0  0  0  0  0  0  0  0  0  0
    4.0555   -0.2573    0.0804 C   0  0  0  0  0  0  0  0  0  0  0  0
    4.5503   -0.5968    1.3597 C   0  0  0  0  0  0  0  0  0  0  0  0
    3.7564   -1.2745    2.2899 C   0  0  0  0  0  0  0  0  0  0  0  0
    2.4551   -1.5904    1.9401 C   0  0  0  0  0  0  0  0  0  0  0  0
    1.4375   -2.3300    2.7515 C   0  0  0  0  0  0  0  0  0  0  0  0
    0.1414   -1.9617    2.0152 C   0  0  0  0  0  0  0  0  0  0  0  0
    0.5301   -1.7493    0.5378 C   0  0  0  0  0  0  0  0  0  0  0  0
   -0.3183   -0.7960   -0.1419 N   0  0  0  0  0  0  0  0  0  0  0  0
   -1.5956   -1.1329   -0.4893 C   0  0  0  0  0  0  0  0  0  0  0  0
   -2.0886   -2.2203   -0.1924 O   0  0  0  0  0  0  0  0  0  0  0  0
   -2.2915   -0.1675   -1.1910 N   0  0  0  0  0  0  0  0  0  0  0  0
   -1.7360    1.0700   -1.7499 C   0  0  0  0  0  0  0  0  0  0  0  0
   -2.6184    2.2687   -1.4023 C   0  0  0  0  0  0  0  0  0  0  0  0
   -4.0830    2.0135   -1.7830 C   0  0  0  0  0  0  0  0  0  0  0  0
   -4.6143    0.6885   -1.1932 C   0  0  0  0  0  0  0  0  0  0  0  0
   -4.8208    0.7964    0.3000 C   0  0  0  0  0  0  0  0  0  0  0  0
   -5.2452    1.8741    0.9421 N   0  0  0  0  0  0  0  0  0  0  0  0
   -5.3295    1.5188    2.2616 C   0  0  0  0  0  0  0  0  0  0  0  0
   -4.9600    0.2038    2.4356 C   0  0  0  0  0  0  0  0  0  0  0  0
   -4.6322   -0.2479    1.1855 N   0  0  0  0  0  0  0  0  0  0  0  0
   -3.6678   -0.4509   -1.6024 C   0  0  0  0  0  0  0  0  0  0  0  0
    1.9455   -1.2588    0.6805 C   0  0  0  0  0  0  0  0  0  0  0  0
    2.7348   -0.6045   -0.2558 C   0  0  0  0  0  0  0  0  0  0  0  0
    6.7730    0.2630   -2.0261 H   0  0  0  0  0  0  0  0  0  0  0  0
    6.0547   -1.2779   -1.5143 H   0  0  0  0  0  0  0  0  0  0  0  0
    6.8957   -0.2505   -0.3404 H   0  0  0  0  0  0  0  0  0  0  0  0
    4.3665    0.5291   -1.8823 H   0  0  0  0  0  0  0  0  0  0  0  0
    5.7264    1.9811    0.4563 H   0  0  0  0  0  0  0  0  0  0  0  0
    4.2149    2.4640   -0.3403 H   0  0  0  0  0  0  0  0  0  0  0  0
    5.7398    2.4769   -1.2457 H   0  0  0  0  0  0  0  0  0  0  0  0
    5.5704   -0.3343    1.6379 H   0  0  0  0  0  0  0  0  0  0  0  0
    4.1566   -1.5416    3.2637 H   0  0  0  0  0  0  0  0  0  0  0  0
    1.4129   -1.9991    3.7942 H   0  0  0  0  0  0  0  0  0  0  0  0
    1.6272   -3.4074    2.7048 H   0  0  0  0  0  0  0  0  0  0  0  0
   -0.2621   -1.0310    2.4396 H   0  0  0  0  0  0  0  0  0  0  0  0
   -0.6328   -2.7263    2.1382 H   0  0  0  0  0  0  0  0  0  0  0  0
    0.5204   -2.7022   -0.0044 H   0  0  0  0  0  0  0  0  0  0  0  0
   -0.1907    0.1630    0.1409 H   0  0  0  0  0  0  0  0  0  0  0  0
   -1.7005    0.9367   -2.8387 H   0  0  0  0  0  0  0  0  0  0  0  0
   -0.7113    1.2532   -1.4235 H   0  0  0  0  0  0  0  0  0  0  0  0
   -2.2521    3.1621   -1.9229 H   0  0  0  0  0  0  0  0  0  0  0  0
   -2.5500    2.4729   -0.3256 H   0  0  0  0  0  0  0  0  0  0  0  0
   -4.7011    2.8644   -1.4711 H   0  0  0  0  0  0  0  0  0  0  0  0
   -4.1540    1.9632   -2.8789 H   0  0  0  0  0  0  0  0  0  0  0  0
   -5.6013    0.4901   -1.6332 H   0  0  0  0  0  0  0  0  0  0  0  0
   -5.6583    2.2258    3.0140 H   0  0  0  0  0  0  0  0  0  0  0  0
   -4.9120   -0.4350    3.3101 H   0  0  0  0  0  0  0  0  0  0  0  0
   -4.2998   -1.1812    0.9567 H   0  0  0  0  0  0  0  0  0  0  0  0
   -3.6596   -0.5563   -2.6961 H   0  0  0  0  0  0  0  0  0  0  0  0
   -4.0195   -1.4124   -1.2102 H   0  0  0  0  0  0  0  0  0  0  0  0
    2.3284   -0.3667   -1.2355 H   0  0  0  0  0  0  0  0  0  0  0  0
  1  2  1  0
  2  3  1  0
  2  4  1  0
  4  5  1  0
  5  6  2  0
  6  7  1  0
  7  8  1  0
  8  9  1  0
  9 10  1  0
 10 11  1  0
 11 12  1  0
 12 13  2  0
 12 14  1  0
 14 15  1  0
 15 16  1  0
 16 17  1  0
 17 18  1  0
 18 19  1  0
 19 20  2  0
 20 21  1  0
 21 22  2  0
 22 23  1  0
 18 24  1  0
 10 25  1  0
 25 26  1  0
 26  4  2  0
 25  7  2  0
 24 14  1  0
 23 19  1  0
  1 27  1  0
  1 28  1  0
  1 29  1  0
  2 30  1  0
  3 31  1  0
  3 32  1  0
  3 33  1  0
  5 34  1  0
  6 35  1  0
  8 36  1  0
  8 37  1  0
  9 38  1  0
  9 39  1  0
 10 40  1  0
 11 41  1  0
 15 42  1  0
 15 43  1  0
 16 44  1  0
 16 45  1  0
 17 46  1  0
 17 47  1  0
 18 48  1  0
 21 49  1  0
 22 50  1  0
 23 51  1  0
 24 52  1  0
 24 53  1  0
 26 54  1  0
M  END
$$$$
OCNT-2317449
     RDKit          3D

 43 45  0  0  0  0  0  0  0  0999 V2000
   -0.6564   -1.1096   -2.6621 C   0  0  0  0  0  0  0  0  0  0  0  0
   -1.2676   -0.8775   -1.2678 C   0  0  0  0  0  0  0  0  0  0  0  0
   -1.1911   -2.1488   -0.6321 O   0  0  0  0  0  0  0  0  0  0  0  0
   -2.7625   -0.4690   -1.4580 C   0  0  0  0  0  0  0  0  0  0  0  0
   -3.4621    0.0117   -0.2476 N   0  0  0  0  0  0  0  0  0  0  0  0
   -3.8548    1.3421   -0.1873 C   0  0  0  0  0  0  0  0  0  0  0  0
   -4.5287    1.8250    0.8633 C   0  0  0  0  0  0  0  0  0  0  0  0
   -4.8729    0.9585    1.9593 C   0  0  0  0  0  0  0  0  0  0  0  0
   -4.5090   -0.3293    1.9428 C   0  0  0  0  0  0  0  0  0  0  0  0
   -3.7447   -0.8732    0.7890 C   0  0  0  0  0  0  0  0  0  0  0  0
   -3.3794   -2.0468    0.8069 O   0  0  0  0  0  0  0  0  0  0  0  0
   -0.4678    0.3237   -0.6532 C   0  0  0  0  0  0  0  0  0  0  0  0
   -0.8422    1.4842   -0.8655 O   0  0  0  0  0  0  0  0  0  0  0  0
    0.7366    0.0853    0.0054 N   0  0  0  0  0  0  0  0  0  0  0  0
    1.1726   -1.2395    0.4681 C   0  0  0  0  0  0  0  0  0  0  0  0
    2.4113   -1.2467    1.3735 C   0  0  0  0  0  0  0  0  0  0  0  0
    3.4637   -0.3072    0.8563 C   0  0  0  0  0  0  0  0  0  0  0  0
    4.8270   -0.6101    0.9115 C   0  0  0  0  0  0  0  0  0  0  0  0
    5.7622    0.3152    0.4463 C   0  0  0  0  0  0  0  0  0  0  0  0
    5.3338    1.5426   -0.0588 C   0  0  0  0  0  0  0  0  0  0  0  0
    6.4931    2.6831   -0.6228 Cl  0  0  0  0  0  0  0  0  0  0  0  0
    3.9762    1.8583   -0.1033 C   0  0  0  0  0  0  0  0  0  0  0  0
    3.0319    0.9305    0.3505 C   0  0  0  0  0  0  0  0  0  0  0  0
    1.5555    1.2437    0.3652 C   0  0  0  0  0  0  0  0  0  0  0  0
   -0.6693   -0.1986   -3.2706 H   0  0  0  0  0  0  0  0  0  0  0  0
   -1.1984   -1.8953   -3.2012 H   0  0  0  0  0  0  0  0  0  0  0  0
    0.3842   -1.4451   -2.5864 H   0  0  0  0  0  0  0  0  0  0  0  0
   -1.9025   -2.2026    0.0422 H   0  0  0  0  0  0  0  0  0  0  0  0
   -2.8505    0.2959   -2.2403 H   0  0  0  0  0  0  0  0  0  0  0  0
   -3.3258   -1.3460   -1.8048 H   0  0  0  0  0  0  0  0  0  0  0  0
   -3.5823    1.9857   -1.0196 H   0  0  0  0  0  0  0  0  0  0  0  0
   -4.8229    2.8684    0.9084 H   0  0  0  0  0  0  0  0  0  0  0  0
   -5.4283    1.3737    2.7934 H   0  0  0  0  0  0  0  0  0  0  0  0
   -4.7421   -1.0170    2.7446 H   0  0  0  0  0  0  0  0  0  0  0  0
    0.3524   -1.7039    1.0232 H   0  0  0  0  0  0  0  0  0  0  0  0
    1.3747   -1.8398   -0.4261 H   0  0  0  0  0  0  0  0  0  0  0  0
    2.7963   -2.2698    1.4512 H   0  0  0  0  0  0  0  0  0  0  0  0
    2.1348   -0.9232    2.3849 H   0  0  0  0  0  0  0  0  0  0  0  0
    5.1675   -1.5613    1.3134 H   0  0  0  0  0  0  0  0  0  0  0  0
    6.8216    0.0764    0.4845 H   0  0  0  0  0  0  0  0  0  0  0  0
    3.6558    2.8226   -0.4896 H   0  0  0  0  0  0  0  0  0  0  0  0
    1.2609    1.5582    1.3737 H   0  0  0  0  0  0  0  0  0  0  0  0
    1.3492    2.0757   -0.3170 H   0  0  0  0  0  0  0  0  0  0  0  0
  1  2  1  0
  2  3  1  0
  2  4  1  0
  4  5  1  0
  5  6  1  0
  6  7  2  0
  7  8  1  0
  8  9  2  0
  9 10  1  0
 10 11  2  0
  2 12  1  0
 12 13  2  0
 12 14  1  0
 14 15  1  0
 15 16  1  0
 16 17  1  0
 17 18  1  0
 18 19  2  0
 19 20  1  0
 20 21  1  0
 20 22  2  0
 22 23  1  0
 23 24  1  0
 10  5  1  0
 24 14  1  0
 23 17  2  0
  1 25  1  0
  1 26  1  0
  1 27  1  0
  3 28  1  0
  4 29  1  0
  4 30  1  0
  6 31  1  0
  7 32  1  0
  8 33  1  0
  9 34  1  0
 15 35  1  0
 15 36  1  0
 16 37  1  0
 16 38  1  0
 18 39  1  0
 19 40  1  0
 22 41  1  0
 24 42  1  0
 24 43  1  0
M  END
$$$$
OCNT-2317457
     RDKit          3D

 49 52  0  0  0  0  0  0  0  0999 V2000
    6.1461    0.5547   -1.0959 C   0  0  0  0  0  0  0  0  0  0  0  0
    5.1831    0.4899    0.0091 N   0  0  0  0  0  0  0  0  0  0  0  0
    5.8135    0.0774    1.2697 C   0  0  0  0  0  0  0  0  0  0  0  0
    4.0435   -0.2020   -0.2801 C   0  0  0  0  0  0  0  0  0  0  0  0
    3.7410   -1.4278    0.0828 N   0  0  0  0  0  0  0  0  0  0  0  0
    2.5147   -1.6887   -0.4606 C   0  0  0  0  0  0  0  0  0  0  0  0
    2.0194   -0.5905   -1.1327 C   0  0  0  0  0  0  0  0  0  0  0  0
    0.7512   -0.4166   -1.8803 C   0  0  0  0  0  0  0  0  0  0  0  0
   -0.2806    0.2763   -1.1206 N   0  0  0  0  0  0  0  0  0  0  0  0
   -0.9020   -0.5237   -0.0665 C   0  0  0  0  0  0  0  0  0  0  0  0
   -0.3151   -0.2253    1.3410 C   0  0  0  0  0  0  0  0  0  0  0  0
   -1.1912   -0.8220    2.4624 C   0  0  0  0  0  0  0  0  0  0  0  0
   -2.6081   -0.2169    2.4776 C   0  0  0  0  0  0  0  0  0  0  0  0
   -3.1566   -0.0959    1.0966 C   0  0  0  0  0  0  0  0  0  0  0  0
   -2.3642   -0.2104   -0.0285 C   0  0  0  0  0  0  0  0  0  0  0  0
   -3.1547   -0.0202   -1.1276 N   0  0  0  0  0  0  0  0  0  0  0  0
   -4.4550    0.2123   -0.7387 C   0  0  0  0  0  0  0  0  0  0  0  0
   -5.5967    0.4593   -1.5105 C   0  0  0  0  0  0  0  0  0  0  0  0
   -6.8030    0.6689   -0.8352 C   0  0  0  0  0  0  0  0  0  0  0  0
   -6.8627    0.6344    0.5562 C   0  0  0  0  0  0  0  0  0  0  0  0
   -5.7121    0.3880    1.3144 C   0  0  0  0  0  0  0  0  0  0  0  0
   -4.4843    0.1710    0.6585 C   0  0  0  0  0  0  0  0  0  0  0  0
    3.0109    0.3603   -1.0021 N   0  0  0  0  0  0  0  0  0  0  0  0
    2.9726    1.7131   -1.5039 C   0  0  0  0  0  0  0  0  0  0  0  0
    6.9794    1.2150   -0.8311 H   0  0  0  0  0  0  0  0  0  0  0  0
    6.5526   -0.4372   -1.3263 H   0  0  0  0  0  0  0  0  0  0  0  0
    5.6907    0.9625   -2.0046 H   0  0  0  0  0  0  0  0  0  0  0  0
    6.6292    0.7638    1.5229 H   0  0  0  0  0  0  0  0  0  0  0  0
    5.0944    0.1141    2.0964 H   0  0  0  0  0  0  0  0  0  0  0  0
    6.2267   -0.9360    1.2025 H   0  0  0  0  0  0  0  0  0  0  0  0
    2.0413   -2.6536   -0.3323 H   0  0  0  0  0  0  0  0  0  0  0  0
    0.9475    0.1626   -2.7906 H   0  0  0  0  0  0  0  0  0  0  0  0
    0.3792   -1.3859   -2.2348 H   0  0  0  0  0  0  0  0  0  0  0  0
    0.0795    1.1379   -0.7207 H   0  0  0  0  0  0  0  0  0  0  0  0
   -0.8117   -1.5989   -0.2722 H   0  0  0  0  0  0  0  0  0  0  0  0
   -0.2354    0.8584    1.5033 H   0  0  0  0  0  0  0  0  0  0  0  0
    0.6964   -0.6328    1.4275 H   0  0  0  0  0  0  0  0  0  0  0  0
   -1.2586   -1.9083    2.3201 H   0  0  0  0  0  0  0  0  0  0  0  0
   -0.7155   -0.6565    3.4357 H   0  0  0  0  0  0  0  0  0  0  0  0
   -2.5692    0.7825    2.9281 H   0  0  0  0  0  0  0  0  0  0  0  0
   -3.2642   -0.8340    3.1013 H   0  0  0  0  0  0  0  0  0  0  0  0
   -2.8161   -0.0240   -2.0796 H   0  0  0  0  0  0  0  0  0  0  0  0
   -5.5526    0.4886   -2.5939 H   0  0  0  0  0  0  0  0  0  0  0  0
   -7.7078    0.8626   -1.4065 H   0  0  0  0  0  0  0  0  0  0  0  0
   -7.8110    0.8010    1.0606 H   0  0  0  0  0  0  0  0  0  0  0  0
   -5.7674    0.3643    2.3982 H   0  0  0  0  0  0  0  0  0  0  0  0
    1.9520    2.0964   -1.4532 H   0  0  0  0  0  0  0  0  0  0  0  0
    3.3189    1.7008   -2.5402 H   0  0  0  0  0  0  0  0  0  0  0  0
    3.6121    2.3573   -0.8959 H   0  0  0  0  0  0  0  0  0  0  0  0
  1  2  1  0
  2  3  1  0
  2  4  1  0
  4  5  2  0
  5  6  1  0
  6  7  2  0
  7  8  1  0
  8  9  1  0
  9 10  1  0
 10 11  1  0
 11 12  1  0
 12 13  1  0
 13 14  1  0
 14 15  2  0
 15 16  1  0
 16 17  1  0
 17 18  2  0
 18 19  1  0
 19 20  2  0
 20 21  1  0
 21 22  2  0
  7 23  1  0
 23 24  1  0
 23  4  1  0
 15 10  1  0
 22 17  1  0
 22 14  1  0
  1 25  1  0
  1 26  1  0
  1 27  1  0
  3 28  1  0
  3 29  1  0
  3 30  1  0
  6 31  1  0
  8 32  1  0
  8 33  1  0
  9 34  1  0
 10 35  1  0
 11 36  1  0
 11 37  1  0
 12 38  1  0
 12 39  1  0
 13 40  1  0
 13 41  1  0
 16 42  1  0
 18 43  1  0
 19 44  1  0
 20 45  1  0
 21 46  1  0
 24 47  1  0
 24 48  1  0
 24 49  1  0
M  END
$$$$
OCNT-2317458
     RDKit          3D

 39 42  0  0  0  0  0  0  0  0999 V2000
    6.2486   -0.9096    1.2449 C   0  0  0  0  0  0  0  0  0  0  0  0
    5.6316   -0.6517   -0.0096 O   0  0  0  0  0  0  0  0  0  0  0  0
    4.2874   -0.3943    0.0023 C   0  0  0  0  0  0  0  0  0  0  0  0
    3.7316   -0.1470   -1.2644 C   0  0  0  0  0  0  0  0  0  0  0  0
    2.3691    0.1323   -1.4193 C   0  0  0  0  0  0  0  0  0  0  0  0
    1.5723    0.1604   -0.2900 C   0  0  0  0  0  0  0  0  0  0  0  0
    2.1181   -0.0839    0.9699 C   0  0  0  0  0  0  0  0  0  0  0  0
    3.4708   -0.3622    1.1346 C   0  0  0  0  0  0  0  0  0  0  0  0
    1.0789   -0.0007    2.0406 C   0  0  0  0  0  0  0  0  0  0  0  0
   -0.1881    0.3232    1.2388 C   0  0  0  0  0  0  0  0  0  0  0  0
    0.1930    0.4114   -0.1834 N   0  0  0  0  0  0  0  0  0  0  0  0
   -0.6570    0.6902   -1.2408 C   0  0  0  0  0  0  0  0  0  0  0  0
   -0.3545    0.7744   -2.4264 O   0  0  0  0  0  0  0  0  0  0  0  0
   -2.0780    0.9082   -0.8996 C   0  0  0  0  0  0  0  0  0  0  0  0
   -2.4795    2.2250   -0.6381 C   0  0  0  0  0  0  0  0  0  0  0  0
   -3.8012    2.4855   -0.2930 C   0  0  0  0  0  0  0  0  0  0  0  0
   -4.7165    1.4351   -0.2150 C   0  0  0  0  0  0  0  0  0  0  0  0
   -4.3232    0.1113   -0.4929 C   0  0  0  0  0  0  0  0  0  0  0  0
   -5.2198   -0.9584   -0.4298 C   0  0  0  0  0  0  0  0  0  0  0  0
   -4.9018   -2.2471   -0.6891 N   0  0  0  0  0  0  0  0  0  0  0  0
   -3.6265   -2.4920   -1.0459 C   0  0  0  0  0  0  0  0  0  0  0  0
   -2.6519   -1.5119   -1.1386 C   0  0  0  0  0  0  0  0  0  0  0  0
   -2.9896   -0.1735   -0.8515 C   0  0  0  0  0  0  0  0  0  0  0  0
    6.1704   -0.0425    1.9091 H   0  0  0  0  0  0  0  0  0  0  0  0
    7.3117   -1.0943    1.0629 H   0  0  0  0  0  0  0  0  0  0  0  0
    5.8304   -1.8065    1.7137 H   0  0  0  0  0  0  0  0  0  0  0  0
    4.3720   -0.1725   -2.1434 H   0  0  0  0  0  0  0  0  0  0  0  0
    1.9702    0.3194   -2.4101 H   0  0  0  0  0  0  0  0  0  0  0  0
    3.8549   -0.5459    2.1306 H   0  0  0  0  0  0  0  0  0  0  0  0
    1.3078    0.7965    2.7546 H   0  0  0  0  0  0  0  0  0  0  0  0
    0.9770   -0.9522    2.5714 H   0  0  0  0  0  0  0  0  0  0  0  0
   -0.6256    1.2765    1.5555 H   0  0  0  0  0  0  0  0  0  0  0  0
   -0.9448   -0.4591    1.3632 H   0  0  0  0  0  0  0  0  0  0  0  0
   -1.7627    3.0400   -0.7092 H   0  0  0  0  0  0  0  0  0  0  0  0
   -4.1218    3.5046   -0.0902 H   0  0  0  0  0  0  0  0  0  0  0  0
   -5.7480    1.6555    0.0548 H   0  0  0  0  0  0  0  0  0  0  0  0
   -6.2615   -0.8033   -0.1590 H   0  0  0  0  0  0  0  0  0  0  0  0
   -3.3963   -3.5309   -1.2656 H   0  0  0  0  0  0  0  0  0  0  0  0
   -1.6474   -1.7933   -1.4419 H   0  0  0  0  0  0  0  0  0  0  0  0
  1  2  1  0
  2  3  1  0
  3  4  1  0
  4  5  2  0
  5  6  1  0
  6  7  2  0
  7  8  1  0
  7  9  1  0
  9 10  1  0
 10 11  1  0
 11 12  1  0
 12 13  2  0
 12 14  1  0
 14 15  2  0
 15 16  1  0
 16 17  2  0
 17 18  1  0
 18 19  2  0
 19 20  1  0
 20 21  2  0
 21 22  1  0
 22 23  2  0
  8  3  2  0
 23 14  1  0
 11  6  1  0
 23 18  1  0
  1 24  1  0
  1 25  1  0
  1 26  1  0
  4 27  1  0
  5 28  1  0
  8 29  1  0
  9 30  1  0
  9 31  1  0
 10 32  1  0
 10 33  1  0
 15 34  1  0
 16 35  1  0
 17 36  1  0
 19 37  1  0
 21 38  1  0
 22 39  1  0
M  END
$$$$
OCNT-2317464
     RDKit          3D

 57 59  0  0  0  0  0  0  0  0999 V2000
    8.3297    0.9924   -1.6465 C   0  0  0  0  0  0  0  0  0  0  0  0
    7.6449    1.4560   -0.3693 C   0  0  0  0  0  0  0  0  0  0  0  0
    6.3012    0.8007   -0.1845 C   0  0  0  0  0  0  0  0  0  0  0  0
    5.1565    1.3499   -0.7663 C   0  0  0  0  0  0  0  0  0  0  0  0
    3.9139    0.7296   -0.6059 C   0  0  0  0  0  0  0  0  0  0  0  0
    3.7697   -0.4578    0.1408 C   0  0  0  0  0  0  0  0  0  0  0  0
    2.3770   -1.1156    0.2663 C   0  0  0  0  0  0  0  0  0  0  0  0
    2.0615   -1.7812   -1.0918 C   0  0  0  0  0  0  0  0  0  0  0  0
    2.3289   -2.2010    1.3669 C   0  0  0  0  0  0  0  0  0  0  0  0
    1.4024   -0.0619    0.6060 N   0  0  0  0  0  0  0  0  0  0  0  0
   -0.0202   -0.3729    0.4280 C   0  0  0  0  0  0  0  0  0  0  0  0
   -0.8713    0.5709    1.3036 C   0  0  0  0  0  0  0  0  0  0  0  0
   -0.3626    1.1916    2.2425 O   0  0  0  0  0  0  0  0  0  0  0  0
   -2.2327    0.6457    1.0319 N   0  0  0  0  0  0  0  0  0  0  0  0
   -3.0827    1.4527    1.9163 C   0  0  0  0  0  0  0  0  0  0  0  0
   -4.4822    0.8518    2.0921 C   0  0  0  0  0  0  0  0  0  0  0  0
   -5.1571    0.6005    0.8161 N   0  0  0  0  0  0  0  0  0  0  0  0
   -6.5439    0.5716    0.7980 C   0  0  0  0  0  0  0  0  0  0  0  0
   -7.2352    0.6891    1.8035 O   0  0  0  0  0  0  0  0  0  0  0  0
   -7.1986    0.3942   -0.5291 C   0  0  0  0  0  0  0  0  0  0  0  0
   -7.4503   -0.9982   -1.0647 C   0  0  0  0  0  0  0  0  0  0  0  0
   -8.6058   -0.1541   -0.6209 C   0  0  0  0  0  0  0  0  0  0  0  0
   -4.3073    0.4571   -0.3675 C   0  0  0  0  0  0  0  0  0  0  0  0
   -2.9130   -0.0960   -0.0358 C   0  0  0  0  0  0  0  0  0  0  0  0
    4.9324   -1.0007    0.7114 C   0  0  0  0  0  0  0  0  0  0  0  0
    6.1788   -0.3817    0.5508 C   0  0  0  0  0  0  0  0  0  0  0  0
    7.7261    1.2266   -2.5300 H   0  0  0  0  0  0  0  0  0  0  0  0
    8.5009   -0.0895   -1.6334 H   0  0  0  0  0  0  0  0  0  0  0  0
    9.2992    1.4878   -1.7576 H   0  0  0  0  0  0  0  0  0  0  0  0
    8.2861    1.2361    0.4935 H   0  0  0  0  0  0  0  0  0  0  0  0
    7.5229    2.5465   -0.3858 H   0  0  0  0  0  0  0  0  0  0  0  0
    5.2193    2.2660   -1.3486 H   0  0  0  0  0  0  0  0  0  0  0  0
    3.0406    1.1874   -1.0680 H   0  0  0  0  0  0  0  0  0  0  0  0
    1.9840   -1.0442   -1.9004 H   0  0  0  0  0  0  0  0  0  0  0  0
    2.8501   -2.4894   -1.3749 H   0  0  0  0  0  0  0  0  0  0  0  0
    1.1206   -2.3430   -1.0651 H   0  0  0  0  0  0  0  0  0  0  0  0
    3.0049   -3.0339    1.1408 H   0  0  0  0  0  0  0  0  0  0  0  0
    1.3327   -2.6436    1.4701 H   0  0  0  0  0  0  0  0  0  0  0  0
    2.6110   -1.7948    2.3454 H   0  0  0  0  0  0  0  0  0  0  0  0
    1.5576    0.2660    1.5644 H   0  0  0  0  0  0  0  0  0  0  0  0
   -0.2651   -0.2266   -0.6257 H   0  0  0  0  0  0  0  0  0  0  0  0
   -0.2743   -1.3917    0.7335 H   0  0  0  0  0  0  0  0  0  0  0  0
   -3.1571    2.4449    1.4551 H   0  0  0  0  0  0  0  0  0  0  0  0
   -2.6118    1.5783    2.8965 H   0  0  0  0  0  0  0  0  0  0  0  0
   -5.0961    1.5105    2.7161 H   0  0  0  0  0  0  0  0  0  0  0  0
   -4.4108   -0.1169    2.6015 H   0  0  0  0  0  0  0  0  0  0  0  0
   -6.9569    1.1730   -1.2470 H   0  0  0  0  0  0  0  0  0  0  0  0
   -7.3229   -1.1643   -2.1281 H   0  0  0  0  0  0  0  0  0  0  0  0
   -7.1808   -1.8466   -0.4453 H   0  0  0  0  0  0  0  0  0  0  0  0
   -9.1131   -0.4256    0.2994 H   0  0  0  0  0  0  0  0  0  0  0  0
   -9.2609    0.2597   -1.3787 H   0  0  0  0  0  0  0  0  0  0  0  0
   -4.2145    1.4582   -0.8053 H   0  0  0  0  0  0  0  0  0  0  0  0
   -4.7870   -0.1853   -1.1102 H   0  0  0  0  0  0  0  0  0  0  0  0
   -2.3034   -0.0915   -0.9430 H   0  0  0  0  0  0  0  0  0  0  0  0
   -2.9956   -1.1340    0.3092 H   0  0  0  0  0  0  0  0  0  0  0  0
    4.9039   -1.9176    1.2925 H   0  0  0  0  0  0  0  0  0  0  0  0
    7.0562   -0.8349    1.0072 H   0  0  0  0  0  0  0  0  0  0  0  0
  1  2  1  0
  2  3  1  0
  3  4  1  0
  4  5  2  0
  5  6  1  0
  6  7  1  0
  7  8  1  0
  7  9  1  0
  7 10  1  0
 10 11  1  0
 11 12  1  0
 12 13  2  0
 12 14  1  0
 14 15  1  0
 15 16  1  0
 16 17  1  0
 17 18  1  0
 18 19  2  0
 18 20  1  0
 20 21  1  0
 21 22  1  0
 17 23  1  0
 23 24  1  0
  6 25  2  0
 25 26  1  0
 26  3  2  0
 24 14  1  0
 22 20  1  0
  1 27  1  0
  1 28  1  0
  1 29  1  0
  2 30  1  0
  2 31  1  0
  4 32  1  0
  5 33  1  0
  8 34  1  0
  8 35  1  0
  8 36  1  0
  9 37  1  0
  9 38  1  0
  9 39  1  0
 10 40  1  0
 11 41  1  0
 11 42  1  0
 15 43  1  0
 15 44  1  0
 16 45  1  0
 16 46  1  0
 20 47  1  0
 21 48  1  0
 21 49  1  0
 22 50  1  0
 22 51  1  0
 23 52  1  0
 23 53  1  0
 24 54  1  0
 24 55  1  0
 25 56  1  0
 26 57  1  0
M  END
$$$$
OCNT-2317466
     RDKit          3D

 40 43  0  0  0  0  0  0  0  0999 V2000
   -4.2430   -3.3980   -0.8604 C   0  0  0  0  0  0  0  0  0  0  0  0
   -4.2623   -1.9903   -1.3267 C   0  0  0  0  0  0  0  0  0  0  0  0
   -4.9605   -1.6475   -2.4212 N   0  0  0  0  0  0  0  0  0  0  0  0
   -4.7478   -0.3190   -2.5279 N   0  0  0  0  0  0  0  0  0  0  0  0
   -3.9417    0.1925   -1.5551 C   0  0  0  0  0  0  0  0  0  0  0  0
   -3.5745    1.4784   -1.4148 N   0  0  0  0  0  0  0  0  0  0  0  0
   -2.7661    1.6639   -0.3344 C   0  0  0  0  0  0  0  0  0  0  0  0
   -2.2893    0.6862    0.5507 C   0  0  0  0  0  0  0  0  0  0  0  0
   -1.5008    0.9477    1.6766 N   0  0  0  0  0  0  0  0  0  0  0  0
   -0.5739    2.0769    1.6987 C   0  0  0  0  0  0  0  0  0  0  0  0
    0.6271    1.8257    0.8258 C   0  0  0  0  0  0  0  0  0  0  0  0
    0.8116    2.5170   -0.3791 C   0  0  0  0  0  0  0  0  0  0  0  0
    1.9324    2.2641   -1.1736 C   0  0  0  0  0  0  0  0  0  0  0  0
    2.8782    1.3146   -0.7789 C   0  0  0  0  0  0  0  0  0  0  0  0
    2.6991    0.6058    0.4095 C   0  0  0  0  0  0  0  0  0  0  0  0
    3.5819   -0.3318    0.8847 O   0  0  0  0  0  0  0  0  0  0  0  0
    4.3446   -1.0386   -0.1115 C   0  0  0  0  0  0  0  0  0  0  0  0
    5.4578   -1.8892    0.4405 C   0  0  0  0  0  0  0  0  0  0  0  0
    5.7785   -0.6158   -0.2837 C   0  0  0  0  0  0  0  0  0  0  0  0
    1.5832    0.8763    1.2051 C   0  0  0  0  0  0  0  0  0  0  0  0
    1.4101    0.2032    2.3549 F   0  0  0  0  0  0  0  0  0  0  0  0
   -2.7593   -0.6206    0.3501 C   0  0  0  0  0  0  0  0  0  0  0  0
   -3.5980   -0.8767   -0.7473 C   0  0  0  0  0  0  0  0  0  0  0  0
   -4.5249   -3.4552    0.1958 H   0  0  0  0  0  0  0  0  0  0  0  0
   -3.2399   -3.8213   -0.9737 H   0  0  0  0  0  0  0  0  0  0  0  0
   -4.9412   -4.0208   -1.4292 H   0  0  0  0  0  0  0  0  0  0  0  0
   -5.1814    0.1925   -3.2852 H   0  0  0  0  0  0  0  0  0  0  0  0
   -2.5054    2.7085   -0.1911 H   0  0  0  0  0  0  0  0  0  0  0  0
   -1.0513    0.1053    2.0336 H   0  0  0  0  0  0  0  0  0  0  0  0
   -0.2286    2.2167    2.7310 H   0  0  0  0  0  0  0  0  0  0  0  0
   -1.0713    3.0177    1.4376 H   0  0  0  0  0  0  0  0  0  0  0  0
    0.0856    3.2568   -0.7097 H   0  0  0  0  0  0  0  0  0  0  0  0
    2.0706    2.8105   -2.1042 H   0  0  0  0  0  0  0  0  0  0  0  0
    3.7491    1.1511   -1.4059 H   0  0  0  0  0  0  0  0  0  0  0  0
    3.8172   -1.4555   -0.9656 H   0  0  0  0  0  0  0  0  0  0  0  0
    5.5938   -1.9129    1.5155 H   0  0  0  0  0  0  0  0  0  0  0  0
    5.6712   -2.8276   -0.0570 H   0  0  0  0  0  0  0  0  0  0  0  0
    6.2117   -0.6885   -1.2737 H   0  0  0  0  0  0  0  0  0  0  0  0
    6.1362    0.2234    0.3015 H   0  0  0  0  0  0  0  0  0  0  0  0
   -2.4787   -1.4257    1.0204 H   0  0  0  0  0  0  0  0  0  0  0  0
  1  2  1  0
  2  3  2  0
  3  4  1  0
  4  5  1  0
  5  6  1  0
  6  7  2  0
  7  8  1  0
  8  9  1  0
  9 10  1  0
 10 11  1  0
 11 12  2  0
 12 13  1  0
 13 14  2  0
 14 15  1  0
 15 16  1  0
 16 17  1  0
 17 18  1  0
 18 19  1  0
 15 20  2  0
 20 21  1  0
  8 22  2  0
 22 23  1  0
 23  2  1  0
 23  5  2  0
 20 11  1  0
 19 17  1  0
  1 24  1  0
  1 25  1  0
  1 26  1  0
  4 27  1  0
  7 28  1  0
  9 29  1  0
 10 30  1  0
 10 31  1  0
 12 32  1  0
 13 33  1  0
 14 34  1  0
 17 35  1  0
 18 36  1  0
 18 37  1  0
 19 38  1  0
 19 39  1  0
 22 40  1  0
M  END
$$$$
OCNT-2317467
     RDKit          3D

 41 43  0  0  0  0  0  0  0  0999 V2000
    5.2092    0.9611    1.0591 C   0  0  0  0  0  0  0  0  0  0  0  0
    4.2239    0.1854    0.2361 C   0  0  0  0  0  0  0  0  0  0  0  0
    2.8589    0.2166    0.5577 C   0  0  0  0  0  0  0  0  0  0  0  0
    1.9331   -0.5028   -0.1986 C   0  0  0  0  0  0  0  0  0  0  0  0
    0.5810   -0.4227    0.1723 N   0  0  0  0  0  0  0  0  0  0  0  0
   -0.4935   -1.1126   -0.3619 C   0  0  0  0  0  0  0  0  0  0  0  0
   -0.4098   -1.9725   -1.2360 O   0  0  0  0  0  0  0  0  0  0  0  0
   -1.8643   -0.7106    0.2892 C   0  0  0  0  0  0  0  0  0  0  0  0
   -1.5618    0.1302    1.4947 N   0  0  0  0  0  0  0  0  0  0  0  0
   -2.5887   -0.0663    2.5305 C   0  0  0  0  0  0  0  0  0  0  0  0
   -4.0230    0.0285    2.0071 C   0  0  0  0  0  0  0  0  0  0  0  0
   -4.1429    1.1380    1.1150 O   0  0  0  0  0  0  0  0  0  0  0  0
   -3.8877    0.8274   -0.1996 C   0  0  0  0  0  0  0  0  0  0  0  0
   -4.7390    1.4858   -1.0973 C   0  0  0  0  0  0  0  0  0  0  0  0
   -4.6275    1.2718   -2.4660 C   0  0  0  0  0  0  0  0  0  0  0  0
   -3.6593    0.3985   -2.9411 C   0  0  0  0  0  0  0  0  0  0  0  0
   -2.7895   -0.2397   -2.0503 C   0  0  0  0  0  0  0  0  0  0  0  0
   -2.8537   -0.0196   -0.6587 C   0  0  0  0  0  0  0  0  0  0  0  0
    2.4255   -1.2327   -1.2710 C   0  0  0  0  0  0  0  0  0  0  0  0
    3.7372   -1.2835   -1.6170 N   0  0  0  0  0  0  0  0  0  0  0  0
    4.6186   -0.5797   -0.8668 C   0  0  0  0  0  0  0  0  0  0  0  0
    6.0565   -0.6725   -1.2885 C   0  0  0  0  0  0  0  0  0  0  0  0
    5.9649    0.2912    1.4814 H   0  0  0  0  0  0  0  0  0  0  0  0
    5.6998    1.7240    0.4461 H   0  0  0  0  0  0  0  0  0  0  0  0
    4.7203    1.4728    1.8949 H   0  0  0  0  0  0  0  0  0  0  0  0
    2.5241    0.8062    1.4075 H   0  0  0  0  0  0  0  0  0  0  0  0
    0.3325    0.1303    0.9900 H   0  0  0  0  0  0  0  0  0  0  0  0
   -2.2977   -1.6689    0.6085 H   0  0  0  0  0  0  0  0  0  0  0  0
   -1.6384    1.1055    1.1841 H   0  0  0  0  0  0  0  0  0  0  0  0
   -2.4374   -1.0251    3.0386 H   0  0  0  0  0  0  0  0  0  0  0  0
   -2.4331    0.7148    3.2839 H   0  0  0  0  0  0  0  0  0  0  0  0
   -4.7002    0.2115    2.8489 H   0  0  0  0  0  0  0  0  0  0  0  0
   -4.3607   -0.9047    1.5374 H   0  0  0  0  0  0  0  0  0  0  0  0
   -5.5049    2.1587   -0.7194 H   0  0  0  0  0  0  0  0  0  0  0  0
   -5.2982    1.7760   -3.1558 H   0  0  0  0  0  0  0  0  0  0  0  0
   -3.5711    0.2109   -4.0088 H   0  0  0  0  0  0  0  0  0  0  0  0
   -2.0558   -0.9146   -2.4863 H   0  0  0  0  0  0  0  0  0  0  0  0
    1.7837   -1.8166   -1.9216 H   0  0  0  0  0  0  0  0  0  0  0  0
    6.4530    0.3208   -1.5204 H   0  0  0  0  0  0  0  0  0  0  0  0
    6.6571   -1.1295   -0.4959 H   0  0  0  0  0  0  0  0  0  0  0  0
    6.1590   -1.2915   -2.1862 H   0  0  0  0  0  0  0  0  0  0  0  0
  1  2  1  0
  2  3  1  0
  3  4  2  0
  4  5  1  0
  5  6  1  0
  6  7  2  0
  6  8  1  0
  8  9  1  0
  9 10  1  0
 10 11  1  0
 11 12  1  0
 12 13  1  0
 13 14  2  0
 14 15  1  0
 15 16  2  0
 16 17  1  0
 17 18  2  0
  4 19  1  0
 19 20  2  0
 20 21  1  0
 21 22  1  0
 21  2  2  0
 18  8  1  0
 18 13  1  0
  1 23  1  0
  1 24  1  0
  1 25  1  0
  3 26  1  0
  5 27  1  0
  8 28  1  0
  9 29  1  0
 10 30  1  0
 10 31  1  0
 11 32  1  0
 11 33  1  0
 14 34  1  0
 15 35  1  0
 16 36  1  0
 17 37  1  0
 19 38  1  0
 22 39  1  0
 22 40  1  0
 22 41  1  0
M  END
$$$$
OCNT-2317470
     RDKit          3D

 48 50  0  0  0  0  0  0  0  0999 V2000
    2.0008    0.9560   -1.5888 O   0  0  0  0  0  0  0  0  0  0  0  0
    1.8159   -0.0557   -0.9103 C   0  0  0  0  0  0  0  0  0  0  0  0
    2.9244   -1.1123   -0.7295 C   0  0  0  0  0  0  0  0  0  0  0  0
    4.1858   -0.8004   -1.3012 O   0  0  0  0  0  0  0  0  0  0  0  0
    5.0327    0.0189   -0.6075 C   0  0  0  0  0  0  0  0  0  0  0  0
    4.6923    0.7913    0.5063 C   0  0  0  0  0  0  0  0  0  0  0  0
    5.6577    1.5977    1.1192 C   0  0  0  0  0  0  0  0  0  0  0  0
    6.9548    1.6323    0.6171 C   0  0  0  0  0  0  0  0  0  0  0  0
    7.8707    2.4065    1.2130 F   0  0  0  0  0  0  0  0  0  0  0  0
    7.3110    0.8791   -0.4898 C   0  0  0  0  0  0  0  0  0  0  0  0
    6.3462    0.0813   -1.0945 C   0  0  0  0  0  0  0  0  0  0  0  0
    6.7016   -0.6510   -2.1616 F   0  0  0  0  0  0  0  0  0  0  0  0
    0.6037   -0.2901   -0.2488 N   0  0  0  0  0  0  0  0  0  0  0  0
    0.3189   -1.5344    0.4623 C   0  0  0  0  0  0  0  0  0  0  0  0
   -1.1326   -1.8171    0.8421 C   0  0  0  0  0  0  0  0  0  0  0  0
   -2.0830   -1.8541   -0.3589 C   0  0  0  0  0  0  0  0  0  0  0  0
   -2.6139   -0.5617   -0.8103 N   0  0  0  0  0  0  0  0  0  0  0  0
   -3.5194    0.0982    0.1432 C   0  0  0  0  0  0  0  0  0  0  0  0
   -4.7019   -0.7708    0.5963 C   0  0  0  0  0  0  0  0  0  0  0  0
   -5.6854    0.2181    1.2116 C   0  0  0  0  0  0  0  0  0  0  0  0
   -5.4251    1.5517    0.5178 C   0  0  0  0  0  0  0  0  0  0  0  0
   -4.2631    1.3089   -0.4409 C   0  0  0  0  0  0  0  0  0  0  0  0
   -1.5576    0.3192   -1.3448 C   0  0  0  0  0  0  0  0  0  0  0  0
   -0.4465    0.7269   -0.3604 C   0  0  0  0  0  0  0  0  0  0  0  0
    3.0387   -1.3769    0.3279 H   0  0  0  0  0  0  0  0  0  0  0  0
    2.5834   -2.0133   -1.2517 H   0  0  0  0  0  0  0  0  0  0  0  0
    3.6862    0.8090    0.9107 H   0  0  0  0  0  0  0  0  0  0  0  0
    5.4021    2.2073    1.9809 H   0  0  0  0  0  0  0  0  0  0  0  0
    8.3208    0.9109   -0.8799 H   0  0  0  0  0  0  0  0  0  0  0  0
    0.9236   -1.5183    1.3769 H   0  0  0  0  0  0  0  0  0  0  0  0
    0.6878   -2.3682   -0.1451 H   0  0  0  0  0  0  0  0  0  0  0  0
   -1.1579   -2.8039    1.3229 H   0  0  0  0  0  0  0  0  0  0  0  0
   -1.4752   -1.1134    1.6076 H   0  0  0  0  0  0  0  0  0  0  0  0
   -2.9194   -2.5212   -0.1202 H   0  0  0  0  0  0  0  0  0  0  0  0
   -1.5860   -2.3489   -1.2042 H   0  0  0  0  0  0  0  0  0  0  0  0
   -2.9738    0.4289    1.0359 H   0  0  0  0  0  0  0  0  0  0  0  0
   -5.1707   -1.2694   -0.2618 H   0  0  0  0  0  0  0  0  0  0  0  0
   -4.4131   -1.5396    1.3199 H   0  0  0  0  0  0  0  0  0  0  0  0
   -5.5008    0.3180    2.2875 H   0  0  0  0  0  0  0  0  0  0  0  0
   -6.7205   -0.1148    1.0854 H   0  0  0  0  0  0  0  0  0  0  0  0
   -6.3098    1.9125   -0.0166 H   0  0  0  0  0  0  0  0  0  0  0  0
   -5.1577    2.3120    1.2605 H   0  0  0  0  0  0  0  0  0  0  0  0
   -4.6548    1.0794   -1.4402 H   0  0  0  0  0  0  0  0  0  0  0  0
   -3.6309    2.1987   -0.5224 H   0  0  0  0  0  0  0  0  0  0  0  0
   -1.1071   -0.1704   -2.2187 H   0  0  0  0  0  0  0  0  0  0  0  0
   -2.0159    1.2282   -1.7497 H   0  0  0  0  0  0  0  0  0  0  0  0
   -0.0109    1.6670   -0.7173 H   0  0  0  0  0  0  0  0  0  0  0  0
   -0.8263    0.9477    0.6423 H   0  0  0  0  0  0  0  0  0  0  0  0
  1  2  2  0
  2  3  1  0
  3  4  1  0
  4  5  1  0
  5  6  1  0
  6  7  2  0
  7  8  1  0
  8  9  1  0
  8 10  2  0
 10 11  1  0
 11 12  1  0
  2 13  1  0
 13 14  1  0
 14 15  1  0
 15 16  1  0
 16 17  1  0
 17 18  1  0
 18 19  1  0
 19 20  1  0
 20 21  1  0
 21 22  1  0
 17 23  1  0
 23 24  1  0
 11  5  2  0
 24 13  1  0
 22 18  1  0
  3 25  1  0
  3 26  1  0
  6 27  1  0
  7 28  1  0
 10 29  1  0
 14 30  1  0
 14 31  1  0
 15 32  1  0
 15 33  1  0
 16 34  1  0
 16 35  1  0
 18 36  1  0
 19 37  1  0
 19 38  1  0
 20 39  1  0
 20 40  1  0
 21 41  1  0
 21 42  1  0
 22 43  1  0
 22 44  1  0
 23 45  1  0
 23 46  1  0
 24 47  1  0
 24 48  1  0
M  END
$$$$
OCNT-2317471
     RDKit          3D

  0  0  0  0  0  0  0  0  0  0999 V3000
M  V30 BEGIN CTAB
M  V30 COUNTS 43 45 0 0 0
M  V30 BEGIN ATOM
M  V30 1 C 4.989758 -1.168640 1.616385 0
M  V30 2 C 3.734896 -0.311611 1.690750 0
M  V30 3 C 3.291656 0.202533 0.313973 0
M  V30 4 C 4.301748 1.159694 -0.326760 0
M  V30 5 C 2.750476 -0.880945 -0.653771 0
M  V30 6 N 1.584281 -0.030170 -0.831347 0
M  V30 7 C 0.417796 -0.360201 -1.460664 0
M  V30 8 O 0.310035 -1.343375 -2.186679 0
M  V30 9 N -0.610656 0.510397 -1.218345 0
M  V30 10 C -1.942362 0.288924 -1.720758 0
M  V30 11 C -2.842769 -0.418471 -0.733145 0 CFG=2
M  V30 12 C -4.070290 -1.051890 -1.336276 0
M  V30 13 N -5.197793 -0.400078 -0.647547 0
M  V30 14 C -4.751678 -0.005586 0.699804 0
M  V30 15 C -3.279769 0.227287 0.561434 0 CFG=2
M  V30 16 C -2.819715 1.567997 1.019821 0
M  V30 17 F -3.209607 1.799458 2.294126 0
M  V30 18 F -3.341701 2.544085 0.241520 0
M  V30 19 F -1.470275 1.697457 0.980570 0
M  V30 20 C -2.337216 -0.962125 0.596674 0
M  V30 21 C 1.856386 0.792115 0.333683 0
M  V30 22 H 5.853665 -0.587127 1.281379 0
M  V30 23 H 4.859674 -2.008963 0.927525 0
M  V30 24 H 5.226889 -1.573893 2.605312 0
M  V30 25 H 2.936041 -0.912142 2.143846 0
M  V30 26 H 3.912471 0.533427 2.366809 0
M  V30 27 H 4.533914 1.990557 0.348039 0
M  V30 28 H 3.916401 1.588139 -1.259097 0
M  V30 29 H 5.236699 0.646071 -0.571673 0
M  V30 30 H 2.498590 -1.847343 -0.205205 0
M  V30 31 H 3.323850 -1.033759 -1.572022 0
M  V30 32 H -0.472340 1.212605 -0.505799 0
M  V30 33 H -1.878309 -0.291418 -2.647924 0
M  V30 34 H -2.363517 1.268333 -1.971717 0
M  V30 35 H -4.087784 -2.131150 -1.148773 0
M  V30 36 H -4.151612 -0.894486 -2.416604 0
M  V30 37 H -5.430986 0.448190 -1.164934 0
M  V30 38 H -4.956873 -0.811535 1.413072 0
M  V30 39 H -5.303107 0.881926 1.027434 0
M  V30 40 H -1.306465 -0.801719 0.890262 0
M  V30 41 H -2.718705 -1.920233 0.936935 0
M  V30 42 H 1.775550 1.865900 0.142971 0
M  V30 43 H 1.232753 0.521767 1.192194 0
M  V30 END ATOM
M  V30 BEGIN BOND
M  V30 1 1 1 2
M  V30 2 1 2 3
M  V30 3 1 3 4
M  V30 4 1 3 5
M  V30 5 1 5 6
M  V30 6 1 6 7
M  V30 7 2 7 8
M  V30 8 1 7 9
M  V30 9 1 9 10
M  V30 10 1 11 10 CFG=3
M  V30 11 1 11 12
M  V30 12 1 12 13
M  V30 13 1 13 14
M  V30 14 1 14 15
M  V30 15 1 15 16 CFG=3
M  V30 16 1 16 17
M  V30 17 1 16 18
M  V30 18 1 16 19
M  V30 19 1 15 20
M  V30 20 1 6 21
M  V30 21 1 21 3
M  V30 22 1 15 11
M  V30 23 1 20 11
M  V30 24 1 1 22
M  V30 25 1 1 23
M  V30 26 1 1 24
M  V30 27 1 2 25
M  V30 28 1 2 26
M  V30 29 1 4 27
M  V30 30 1 4 28
M  V30 31 1 4 29
M  V30 32 1 5 30
M  V30 33 1 5 31
M  V30 34 1 9 32
M  V30 35 1 10 33
M  V30 36 1 10 34
M  V30 37 1 12 35
M  V30 38 1 12 36
M  V30 39 1 13 37
M  V30 40 1 14 38
M  V30 41 1 14 39
M  V30 42 1 20 40
M  V30 43 1 20 41
M  V30 44 1 21 42
M  V30 45 1 21 43
M  V30 END BOND
M  V30 BEGIN COLLECTION
M  V30 MDLV30/STERAC1 ATOMS=(2 11 15)
M  V30 END COLLECTION
M  V30 END CTAB
M  END
>  <_CXSMILES_Data>  (1233) 
|&1:10,14|

$$$$
OCNT-2317479
     RDKit          3D

 46 48  0  0  0  0  0  0  0  0999 V2000
   -2.8120   -3.0097   -1.3310 C   0  0  0  0  0  0  0  0  0  0  0  0
   -3.7097   -2.2240   -0.7214 C   0  0  0  0  0  0  0  0  0  0  0  0
   -3.9484   -0.7814   -1.0522 C   0  0  0  0  0  0  0  0  0  0  0  0
   -3.6840   -0.0384    0.1369 O   0  0  0  0  0  0  0  0  0  0  0  0
   -3.5755    1.3227    0.0039 C   0  0  0  0  0  0  0  0  0  0  0  0
   -4.1011    2.0549   -1.0652 C   0  0  0  0  0  0  0  0  0  0  0  0
   -3.9304    3.4399   -1.1216 C   0  0  0  0  0  0  0  0  0  0  0  0
   -3.2379    4.1015   -0.1117 C   0  0  0  0  0  0  0  0  0  0  0  0
   -2.7235    3.3813    0.9651 C   0  0  0  0  0  0  0  0  0  0  0  0
   -2.8956    1.9899    1.0416 C   0  0  0  0  0  0  0  0  0  0  0  0
   -2.3364    1.2359    2.2252 C   0  0  0  0  0  0  0  0  0  0  0  0
   -1.3169    0.2986    1.8125 N   0  0  0  0  0  0  0  0  0  0  0  0
    0.0142    0.6396    1.7924 C   0  0  0  0  0  0  0  0  0  0  0  0
    0.4382    1.6813    2.2840 O   0  0  0  0  0  0  0  0  0  0  0  0
    0.8909   -0.3179    1.1236 C   0  0  0  0  0  0  0  0  0  0  0  0
    2.2781   -0.2376    1.0167 C   0  0  0  0  0  0  0  0  0  0  0  0
    3.2052    0.7225    1.6789 C   0  0  0  0  0  0  0  0  0  0  0  0
    2.6821   -1.3002    0.2071 N   0  0  0  0  0  0  0  0  0  0  0  0
    3.9274   -1.6093   -0.4008 C   0  0  0  0  0  0  0  0  0  0  0  0
    4.2337   -2.8429   -0.6804 N   0  0  0  0  0  0  0  0  0  0  0  0
    5.4562   -3.0637   -1.2538 N   0  0  0  0  0  0  0  0  0  0  0  0
    6.3846   -2.1019   -1.5551 C   0  0  0  0  0  0  0  0  0  0  0  0
    7.4840   -2.3461   -2.0369 O   0  0  0  0  0  0  0  0  0  0  0  0
    5.9753   -0.7110   -1.2803 C   0  0  0  0  0  0  0  0  0  0  0  0
    4.7870   -0.4472   -0.7283 C   0  0  0  0  0  0  0  0  0  0  0  0
    1.6427   -2.1549   -0.0109 N   0  0  0  0  0  0  0  0  0  0  0  0
    0.5789   -1.5346    0.4885 C   0  0  0  0  0  0  0  0  0  0  0  0
   -2.6941   -4.0496   -1.0391 H   0  0  0  0  0  0  0  0  0  0  0  0
   -2.1727   -2.6429   -2.1288 H   0  0  0  0  0  0  0  0  0  0  0  0
   -4.3250   -2.6418    0.0724 H   0  0  0  0  0  0  0  0  0  0  0  0
   -4.9963   -0.6554   -1.3468 H   0  0  0  0  0  0  0  0  0  0  0  0
   -3.2893   -0.4607   -1.8682 H   0  0  0  0  0  0  0  0  0  0  0  0
   -4.6570    1.5788   -1.8662 H   0  0  0  0  0  0  0  0  0  0  0  0
   -4.3392    4.0036   -1.9567 H   0  0  0  0  0  0  0  0  0  0  0  0
   -3.0995    5.1787   -0.1603 H   0  0  0  0  0  0  0  0  0  0  0  0
   -2.1795    3.9103    1.7457 H   0  0  0  0  0  0  0  0  0  0  0  0
   -1.9297    1.9219    2.9765 H   0  0  0  0  0  0  0  0  0  0  0  0
   -3.1385    0.6658    2.7075 H   0  0  0  0  0  0  0  0  0  0  0  0
   -1.6524   -0.4678    1.2478 H   0  0  0  0  0  0  0  0  0  0  0  0
    4.2060    0.3016    1.8121 H   0  0  0  0  0  0  0  0  0  0  0  0
    2.8506    0.9731    2.6840 H   0  0  0  0  0  0  0  0  0  0  0  0
    3.2764    1.6504    1.1038 H   0  0  0  0  0  0  0  0  0  0  0  0
    5.6974   -4.0310   -1.4443 H   0  0  0  0  0  0  0  0  0  0  0  0
    6.6691    0.0645   -1.5779 H   0  0  0  0  0  0  0  0  0  0  0  0
    4.4503    0.5691   -0.5949 H   0  0  0  0  0  0  0  0  0  0  0  0
   -0.3837   -2.0158    0.3756 H   0  0  0  0  0  0  0  0  0  0  0  0
  1  2  2  0
  2  3  1  0
  3  4  1  0
  4  5  1  0
  5  6  2  0
  6  7  1  0
  7  8  2  0
  8  9  1  0
  9 10  2  0
 10 11  1  0
 11 12  1  0
 12 13  1  0
 13 14  2  0
 13 15  1  0
 15 16  2  0
 16 17  1  0
 16 18  1  0
 18 19  1  0
 19 20  2  0
 20 21  1  0
 21 22  1  0
 22 23  2  0
 22 24  1  0
 24 25  2  0
 18 26  1  0
 26 27  2  0
 10  5  1  0
 27 15  1  0
 25 19  1  0
  1 28  1  0
  1 29  1  0
  2 30  1  0
  3 31  1  0
  3 32  1  0
  6 33  1  0
  7 34  1  0
  8 35  1  0
  9 36  1  0
 11 37  1  0
 11 38  1  0
 12 39  1  0
 17 40  1  0
 17 41  1  0
 17 42  1  0
 21 43  1  0
 24 44  1  0
 25 45  1  0
 27 46  1  0
M  END
$$$$
OCNT-2317486
     RDKit          3D

 42 44  0  0  0  0  0  0  0  0999 V2000
    4.5387    1.6964    2.3398 C   0  0  0  0  0  0  0  0  0  0  0  0
    3.5232    1.0448    1.5855 O   0  0  0  0  0  0  0  0  0  0  0  0
    3.8921    0.7255    0.3233 C   0  0  0  0  0  0  0  0  0  0  0  0
    5.1019    1.0318   -0.1499 N   0  0  0  0  0  0  0  0  0  0  0  0
    5.0624    0.5512   -1.4095 N   0  0  0  0  0  0  0  0  0  0  0  0
    6.2199    0.6898   -2.2591 C   0  0  0  0  0  0  0  0  0  0  0  0
    3.8734   -0.0330   -1.7383 C   0  0  0  0  0  0  0  0  0  0  0  0
    3.0786    0.0591   -0.6215 C   0  0  0  0  0  0  0  0  0  0  0  0
    1.7825   -0.3794   -0.4304 N   0  0  0  0  0  0  0  0  0  0  0  0
    1.0246   -1.0782   -1.3412 C   0  0  0  0  0  0  0  0  0  0  0  0
    1.3982   -1.4503   -2.4504 O   0  0  0  0  0  0  0  0  0  0  0  0
   -0.2493   -1.3470   -0.8868 N   0  0  0  0  0  0  0  0  0  0  0  0
   -1.3713   -1.7628   -1.7223 C   0  0  0  0  0  0  0  0  0  0  0  0
   -2.2732   -1.3997   -0.5272 C   0  0  0  0  0  0  0  0  0  0  0  0
   -3.5480   -0.6520   -0.8936 C   0  0  0  0  0  0  0  0  0  0  0  0
   -4.2665   -0.1914    0.3551 C   0  0  0  0  0  0  0  0  0  0  0  0
   -4.0383    1.1201    0.8117 C   0  0  0  0  0  0  0  0  0  0  0  0
   -4.6541    1.5979    1.9698 C   0  0  0  0  0  0  0  0  0  0  0  0
   -5.5089    0.7734    2.6939 C   0  0  0  0  0  0  0  0  0  0  0  0
   -5.7494   -0.5287    2.2587 C   0  0  0  0  0  0  0  0  0  0  0  0
   -5.1338   -1.0112    1.0978 C   0  0  0  0  0  0  0  0  0  0  0  0
   -5.5360   -2.7979    0.5899 Br  0  0  0  0  0  0  0  0  0  0  0  0
   -1.0901   -0.5737    0.0179 C   0  0  0  0  0  0  0  0  0  0  0  0
    4.8123    2.6587    1.8929 H   0  0  0  0  0  0  0  0  0  0  0  0
    4.1343    1.8983    3.3366 H   0  0  0  0  0  0  0  0  0  0  0  0
    5.4182    1.0545    2.4636 H   0  0  0  0  0  0  0  0  0  0  0  0
    7.0580    0.1717   -1.7863 H   0  0  0  0  0  0  0  0  0  0  0  0
    6.0106    0.2468   -3.2359 H   0  0  0  0  0  0  0  0  0  0  0  0
    6.4393    1.7544   -2.3713 H   0  0  0  0  0  0  0  0  0  0  0  0
    3.6987   -0.4594   -2.7165 H   0  0  0  0  0  0  0  0  0  0  0  0
    1.4030   -0.2372    0.4940 H   0  0  0  0  0  0  0  0  0  0  0  0
   -1.4835   -1.1467   -2.6201 H   0  0  0  0  0  0  0  0  0  0  0  0
   -1.3535   -2.8228   -1.9870 H   0  0  0  0  0  0  0  0  0  0  0  0
   -2.4735   -2.2841    0.0954 H   0  0  0  0  0  0  0  0  0  0  0  0
   -4.2063   -1.2816   -1.5025 H   0  0  0  0  0  0  0  0  0  0  0  0
   -3.3191    0.2160   -1.5260 H   0  0  0  0  0  0  0  0  0  0  0  0
   -3.3767    1.7867    0.2611 H   0  0  0  0  0  0  0  0  0  0  0  0
   -4.4672    2.6154    2.3047 H   0  0  0  0  0  0  0  0  0  0  0  0
   -5.9907    1.1437    3.5953 H   0  0  0  0  0  0  0  0  0  0  0  0
   -6.4219   -1.1622    2.8322 H   0  0  0  0  0  0  0  0  0  0  0  0
   -1.0919    0.4946   -0.2192 H   0  0  0  0  0  0  0  0  0  0  0  0
   -0.8667   -0.7315    1.0758 H   0  0  0  0  0  0  0  0  0  0  0  0
  1  2  1  0
  2  3  1  0
  3  4  2  0
  4  5  1  0
  5  6  1  0
  5  7  1  0
  7  8  2  0
  8  9  1  0
  9 10  1  0
 10 11  2  0
 10 12  1  0
 12 13  1  0
 13 14  1  0
 14 15  1  0
 15 16  1  0
 16 17  2  0
 17 18  1  0
 18 19  2  0
 19 20  1  0
 20 21  2  0
 21 22  1  0
 14 23  1  0
  8  3  1  0
 23 12  1  0
 21 16  1  0
  1 24  1  0
  1 25  1  0
  1 26  1  0
  6 27  1  0
  6 28  1  0
  6 29  1  0
  7 30  1  0
  9 31  1  0
 13 32  1  0
 13 33  1  0
 14 34  1  0
 15 35  1  0
 15 36  1  0
 17 37  1  0
 18 38  1  0
 19 39  1  0
 20 40  1  0
 23 41  1  0
 23 42  1  0
M  END
$$$$
OCNT-2317489
     RDKit          3D

 48 51  0  0  0  0  0  0  0  0999 V2000
   -1.5578   -0.4671    2.2199 O   0  0  0  0  0  0  0  0  0  0  0  0
   -1.6395   -0.9149    1.0853 C   0  0  0  0  0  0  0  0  0  0  0  0
   -0.7688   -1.8239    0.5430 N   0  0  0  0  0  0  0  0  0  0  0  0
    0.3997   -2.2595    1.2767 C   0  0  0  0  0  0  0  0  0  0  0  0
    1.6175   -1.4656    0.8999 C   0  0  0  0  0  0  0  0  0  0  0  0
    1.8077   -0.1590    1.3575 C   0  0  0  0  0  0  0  0  0  0  0  0
    2.9429    0.5485    0.9726 C   0  0  0  0  0  0  0  0  0  0  0  0
    3.8548   -0.0740    0.1366 C   0  0  0  0  0  0  0  0  0  0  0  0
    4.9632    0.6685   -0.2164 O   0  0  0  0  0  0  0  0  0  0  0  0
    5.8555   -0.0329   -1.0811 C   0  0  0  0  0  0  0  0  0  0  0  0
    7.0195    0.8699   -1.3690 C   0  0  0  0  0  0  0  0  0  0  0  0
    6.9294    1.9161   -2.4506 C   0  0  0  0  0  0  0  0  0  0  0  0
    7.8152    0.7147   -2.6399 C   0  0  0  0  0  0  0  0  0  0  0  0
    3.7060   -1.3327   -0.3292 N   0  0  0  0  0  0  0  0  0  0  0  0
    2.5945   -1.9958    0.0632 C   0  0  0  0  0  0  0  0  0  0  0  0
   -2.6179   -0.5744    0.1841 N   0  0  0  0  0  0  0  0  0  0  0  0
   -3.6942    0.3182    0.5790 C   0  0  0  0  0  0  0  0  0  0  0  0
   -4.7636   -0.3922    1.4373 C   0  0  0  0  0  0  0  0  0  0  0  0
   -6.0564   -0.1695    0.6307 C   0  0  0  0  0  0  0  0  0  0  0  0
   -6.4406    1.3188    0.6972 C   0  0  0  0  0  0  0  0  0  0  0  0
   -5.3858    1.9893   -0.1964 C   0  0  0  0  0  0  0  0  0  0  0  0
   -4.5085    0.8052   -0.6407 C   0  0  0  0  0  0  0  0  0  0  0  0
   -5.5551   -0.2998   -0.8059 C   0  0  0  0  0  0  0  0  0  0  0  0
   -0.6802   -1.7773   -0.4609 H   0  0  0  0  0  0  0  0  0  0  0  0
    0.2267   -2.1952    2.3571 H   0  0  0  0  0  0  0  0  0  0  0  0
    0.5462   -3.3183    1.0360 H   0  0  0  0  0  0  0  0  0  0  0  0
    1.0740    0.3102    2.0107 H   0  0  0  0  0  0  0  0  0  0  0  0
    3.1116    1.5628    1.3155 H   0  0  0  0  0  0  0  0  0  0  0  0
    5.3462   -0.3057   -2.0143 H   0  0  0  0  0  0  0  0  0  0  0  0
    6.2341   -0.9371   -0.5887 H   0  0  0  0  0  0  0  0  0  0  0  0
    7.5591    1.1258   -0.4639 H   0  0  0  0  0  0  0  0  0  0  0  0
    7.4010    2.8745   -2.2654 H   0  0  0  0  0  0  0  0  0  0  0  0
    6.0185    1.9769   -3.0355 H   0  0  0  0  0  0  0  0  0  0  0  0
    8.8880    0.8620   -2.5866 H   0  0  0  0  0  0  0  0  0  0  0  0
    7.5061   -0.0335   -3.3609 H   0  0  0  0  0  0  0  0  0  0  0  0
    2.5115   -3.0045   -0.3334 H   0  0  0  0  0  0  0  0  0  0  0  0
   -2.8462   -1.3032   -0.4756 H   0  0  0  0  0  0  0  0  0  0  0  0
   -3.2508    1.1583    1.1269 H   0  0  0  0  0  0  0  0  0  0  0  0
   -4.8287    0.0397    2.4415 H   0  0  0  0  0  0  0  0  0  0  0  0
   -4.5576   -1.4642    1.5399 H   0  0  0  0  0  0  0  0  0  0  0  0
   -6.8677   -0.8439    0.9113 H   0  0  0  0  0  0  0  0  0  0  0  0
   -6.4244    1.7116    1.7187 H   0  0  0  0  0  0  0  0  0  0  0  0
   -7.4421    1.4823    0.2835 H   0  0  0  0  0  0  0  0  0  0  0  0
   -4.8199    2.7579    0.3392 H   0  0  0  0  0  0  0  0  0  0  0  0
   -5.8688    2.4610   -1.0597 H   0  0  0  0  0  0  0  0  0  0  0  0
   -3.9094    1.0152   -1.5298 H   0  0  0  0  0  0  0  0  0  0  0  0
   -5.1255   -1.2821   -1.0264 H   0  0  0  0  0  0  0  0  0  0  0  0
   -6.3196   -0.0607   -1.5528 H   0  0  0  0  0  0  0  0  0  0  0  0
  1  2  2  0
  2  3  1  0
  3  4  1  0
  4  5  1  0
  5  6  2  0
  6  7  1  0
  7  8  2  0
  8  9  1  0
  9 10  1  0
 10 11  1  0
 11 12  1  0
 12 13  1  0
  8 14  1  0
 14 15  2  0
  2 16  1  0
 16 17  1  0
 17 18  1  0
 18 19  1  0
 19 20  1  0
 20 21  1  0
 21 22  1  0
 22 23  1  0
 15  5  1  0
 22 17  1  0
 13 11  1  0
 23 19  1  0
  3 24  1  0
  4 25  1  0
  4 26  1  0
  6 27  1  0
  7 28  1  0
 10 29  1  0
 10 30  1  0
 11 31  1  0
 12 32  1  0
 12 33  1  0
 13 34  1  0
 13 35  1  0
 15 36  1  0
 16 37  1  0
 17 38  1  0
 18 39  1  0
 18 40  1  0
 19 41  1  0
 20 42  1  0
 20 43  1  0
 21 44  1  0
 21 45  1  0
 22 46  1  0
 23 47  1  0
 23 48  1  0
M  END
$$$$
OCNT-2317493
     RDKit          3D

 48 51  0  0  0  0  0  0  0  0999 V2000
   -5.9781   -1.1410   -0.4273 C   0  0  0  0  0  0  0  0  0  0  0  0
   -4.5835   -1.0059    0.2098 C   0  0  0  0  0  0  0  0  0  0  0  0
   -4.7549   -0.5475    1.6699 C   0  0  0  0  0  0  0  0  0  0  0  0
   -3.8845   -2.3771    0.2065 C   0  0  0  0  0  0  0  0  0  0  0  0
   -3.7621   -0.0168   -0.5710 C   0  0  0  0  0  0  0  0  0  0  0  0
   -3.1357    1.1723   -0.2789 C   0  0  0  0  0  0  0  0  0  0  0  0
   -2.5242    1.5646   -1.4939 C   0  0  0  0  0  0  0  0  0  0  0  0
   -1.7063    2.7730   -1.7703 C   0  0  0  0  0  0  0  0  0  0  0  0
   -0.4970    2.7536   -0.9719 N   0  0  0  0  0  0  0  0  0  0  0  0
    0.6653    2.0851   -1.2192 C   0  0  0  0  0  0  0  0  0  0  0  0
    1.4612    2.3851   -0.1329 C   0  0  0  0  0  0  0  0  0  0  0  0
    2.8537    1.9479    0.1856 C   0  0  0  0  0  0  0  0  0  0  0  0
    2.8442    0.8342    1.1535 N   0  0  0  0  0  0  0  0  0  0  0  0
    2.4704   -0.4523    0.4976 C   0  0  0  0  0  0  0  0  0  0  0  0
    3.7573   -1.1598    0.2156 C   0  0  0  0  0  0  0  0  0  0  0  0
    3.9952   -2.2813   -0.5589 C   0  0  0  0  0  0  0  0  0  0  0  0
    5.3045   -2.7616   -0.6355 C   0  0  0  0  0  0  0  0  0  0  0  0
    6.3427   -2.1252    0.0648 C   0  0  0  0  0  0  0  0  0  0  0  0
    6.0857   -1.0000    0.8514 C   0  0  0  0  0  0  0  0  0  0  0  0
    4.7861   -0.5291    0.9096 C   0  0  0  0  0  0  0  0  0  0  0  0
    4.2219    0.6186    1.6825 C   0  0  0  0  0  0  0  0  0  0  0  0
    0.7772    3.2464    0.6916 N   0  0  0  0  0  0  0  0  0  0  0  0
   -0.4185    3.4704    0.1635 N   0  0  0  0  0  0  0  0  0  0  0  0
   -2.7739    0.6781   -2.4662 N   0  0  0  0  0  0  0  0  0  0  0  0
   -3.5456   -0.3101   -1.8858 O   0  0  0  0  0  0  0  0  0  0  0  0
   -5.9167   -1.5067   -1.4590 H   0  0  0  0  0  0  0  0  0  0  0  0
   -6.6041   -1.8435    0.1346 H   0  0  0  0  0  0  0  0  0  0  0  0
   -6.4980   -0.1759   -0.4532 H   0  0  0  0  0  0  0  0  0  0  0  0
   -3.7870   -0.4481    2.1755 H   0  0  0  0  0  0  0  0  0  0  0  0
   -5.3535   -1.2653    2.2425 H   0  0  0  0  0  0  0  0  0  0  0  0
   -5.2599    0.4241    1.7287 H   0  0  0  0  0  0  0  0  0  0  0  0
   -4.4539   -3.1137    0.7849 H   0  0  0  0  0  0  0  0  0  0  0  0
   -2.8806   -2.3122    0.6428 H   0  0  0  0  0  0  0  0  0  0  0  0
   -3.7736   -2.7710   -0.8106 H   0  0  0  0  0  0  0  0  0  0  0  0
   -3.1048    1.6831    0.6734 H   0  0  0  0  0  0  0  0  0  0  0  0
   -2.2633    3.6850   -1.5288 H   0  0  0  0  0  0  0  0  0  0  0  0
   -1.4015    2.8313   -2.8212 H   0  0  0  0  0  0  0  0  0  0  0  0
    0.8127    1.4636   -2.0901 H   0  0  0  0  0  0  0  0  0  0  0  0
    3.3983    1.6933   -0.7326 H   0  0  0  0  0  0  0  0  0  0  0  0
    3.3604    2.8171    0.6255 H   0  0  0  0  0  0  0  0  0  0  0  0
    1.8834   -1.0476    1.2066 H   0  0  0  0  0  0  0  0  0  0  0  0
    1.8808   -0.3288   -0.4152 H   0  0  0  0  0  0  0  0  0  0  0  0
    3.1909   -2.7784   -1.0912 H   0  0  0  0  0  0  0  0  0  0  0  0
    5.5229   -3.6404   -1.2377 H   0  0  0  0  0  0  0  0  0  0  0  0
    7.3546   -2.5178   -0.0020 H   0  0  0  0  0  0  0  0  0  0  0  0
    6.8853   -0.5148    1.4015 H   0  0  0  0  0  0  0  0  0  0  0  0
    4.1497    0.3370    2.7395 H   0  0  0  0  0  0  0  0  0  0  0  0
    4.8573    1.5080    1.6082 H   0  0  0  0  0  0  0  0  0  0  0  0
  1  2  1  0
  2  3  1  0
  2  4  1  0
  2  5  1  0
  5  6  2  0
  6  7  1  0
  7  8  1  0
  8  9  1  0
  9 10  1  0
 10 11  2  0
 11 12  1  0
 12 13  1  0
 13 14  1  0
 14 15  1  0
 15 16  2  0
 16 17  1  0
 17 18  2  0
 18 19  1  0
 19 20  2  0
 20 21  1  0
 11 22  1  0
 22 23  2  0
  7 24  2  0
 24 25  1  0
 25  5  1  0
 23  9  1  0
 21 13  1  0
 20 15  1  0
  1 26  1  0
  1 27  1  0
  1 28  1  0
  3 29  1  0
  3 30  1  0
  3 31  1  0
  4 32  1  0
  4 33  1  0
  4 34  1  0
  6 35  1  0
  8 36  1  0
  8 37  1  0
 10 38  1  0
 12 39  1  0
 12 40  1  0
 14 41  1  0
 14 42  1  0
 16 43  1  0
 17 44  1  0
 18 45  1  0
 19 46  1  0
 21 47  1  0
 21 48  1  0
M  END
$$$$
OCNT-2317505
     RDKit          3D

 38 40  0  0  0  0  0  0  0  0999 V2000
   -2.3641   -2.6245    0.5736 C   0  0  0  0  0  0  0  0  0  0  0  0
   -2.4056   -1.2104    0.0643 C   0  0  0  0  0  0  0  0  0  0  0  0
   -1.3169   -0.4875   -0.2942 C   0  0  0  0  0  0  0  0  0  0  0  0
    0.0522   -1.0716   -0.2156 C   0  0  0  0  0  0  0  0  0  0  0  0
    0.4322   -1.8253   -1.1091 O   0  0  0  0  0  0  0  0  0  0  0  0
    0.8315   -0.7077    0.8743 N   0  0  0  0  0  0  0  0  0  0  0  0
    0.4114    0.2345    1.9054 C   0  0  0  0  0  0  0  0  0  0  0  0
    2.2387   -1.0962    0.8639 C   0  0  0  0  0  0  0  0  0  0  0  0
    3.1287   -0.0019    0.3180 C   0  0  0  0  0  0  0  0  0  0  0  0
    3.2421    0.1935   -1.0685 C   0  0  0  0  0  0  0  0  0  0  0  0
    4.0446    1.2160   -1.5775 C   0  0  0  0  0  0  0  0  0  0  0  0
    4.7342    2.0505   -0.7040 C   0  0  0  0  0  0  0  0  0  0  0  0
    5.4964    3.0290   -1.2143 F   0  0  0  0  0  0  0  0  0  0  0  0
    4.6305    1.8733    0.6734 C   0  0  0  0  0  0  0  0  0  0  0  0
    5.4758    2.9077    1.7595 Cl  0  0  0  0  0  0  0  0  0  0  0  0
    3.8298    0.8505    1.1865 C   0  0  0  0  0  0  0  0  0  0  0  0
   -1.4760    0.8767   -0.7955 C   0  0  0  0  0  0  0  0  0  0  0  0
   -2.6844    1.4594   -0.8896 C   0  0  0  0  0  0  0  0  0  0  0  0
   -3.8320    0.7242   -0.4995 C   0  0  0  0  0  0  0  0  0  0  0  0
   -5.1856    0.9623   -0.4456 C   0  0  0  0  0  0  0  0  0  0  0  0
   -5.8564   -0.1378    0.0206 N   0  0  0  0  0  0  0  0  0  0  0  0
   -4.9254   -1.0406    0.2423 C   0  0  0  0  0  0  0  0  0  0  0  0
   -3.6603   -0.5793   -0.0476 N   0  0  0  0  0  0  0  0  0  0  0  0
   -2.8085   -2.6831    1.5731 H   0  0  0  0  0  0  0  0  0  0  0  0
   -2.9226   -3.2873   -0.0961 H   0  0  0  0  0  0  0  0  0  0  0  0
   -1.3500   -3.0258    0.6533 H   0  0  0  0  0  0  0  0  0  0  0  0
    0.9028   -0.0157    2.8502 H   0  0  0  0  0  0  0  0  0  0  0  0
    0.6952    1.2453    1.5987 H   0  0  0  0  0  0  0  0  0  0  0  0
   -0.6681    0.1997    2.0668 H   0  0  0  0  0  0  0  0  0  0  0  0
    2.5326   -1.3613    1.8868 H   0  0  0  0  0  0  0  0  0  0  0  0
    2.3832   -2.0045    0.2665 H   0  0  0  0  0  0  0  0  0  0  0  0
    2.7019   -0.4550   -1.7584 H   0  0  0  0  0  0  0  0  0  0  0  0
    4.1348    1.3667   -2.6490 H   0  0  0  0  0  0  0  0  0  0  0  0
    3.7508    0.7189    2.2632 H   0  0  0  0  0  0  0  0  0  0  0  0
   -0.5804    1.4097   -1.1035 H   0  0  0  0  0  0  0  0  0  0  0  0
   -2.7925    2.4712   -1.2681 H   0  0  0  0  0  0  0  0  0  0  0  0
   -5.7143    1.8663   -0.7186 H   0  0  0  0  0  0  0  0  0  0  0  0
   -5.1068   -2.0400    0.6129 H   0  0  0  0  0  0  0  0  0  0  0  0
  1  2  1  0
  2  3  2  0
  3  4  1  0
  4  5  2  0
  4  6  1  0
  6  7  1  0
  6  8  1  0
  8  9  1  0
  9 10  1  0
 10 11  2  0
 11 12  1  0
 12 13  1  0
 12 14  2  0
 14 15  1  0
 14 16  1  0
  3 17  1  0
 17 18  2  0
 18 19  1  0
 19 20  2  0
 20 21  1  0
 21 22  2  0
 22 23  1  0
 23  2  1  0
 16  9  2  0
 23 19  1  0
  1 24  1  0
  1 25  1  0
  1 26  1  0
  7 27  1  0
  7 28  1  0
  7 29  1  0
  8 30  1  0
  8 31  1  0
 10 32  1  0
 11 33  1  0
 16 34  1  0
 17 35  1  0
 18 36  1  0
 20 37  1  0
 22 38  1  0
M  END
$$$$
OCNT-2317506
     RDKit          3D

 49 51  0  0  0  0  0  0  0  0999 V2000
   -4.5119    2.6665   -0.5051 C   0  0  0  0  0  0  0  0  0  0  0  0
   -3.5871    1.7015    0.1715 C   0  0  0  0  0  0  0  0  0  0  0  0
   -3.1042    1.9608    1.4391 C   0  0  0  0  0  0  0  0  0  0  0  0
   -2.2289    1.0452    2.0122 C   0  0  0  0  0  0  0  0  0  0  0  0
   -1.8417   -0.1264    1.3277 C   0  0  0  0  0  0  0  0  0  0  0  0
   -0.7966   -0.9766    2.0034 C   0  0  0  0  0  0  0  0  0  0  0  0
    0.3466   -1.3455    1.1671 N   0  0  0  0  0  0  0  0  0  0  0  0
    1.3157   -0.2659    0.9303 C   0  0  0  0  0  0  0  0  0  0  0  0
    0.9011    0.7960   -0.0768 C   0  0  0  0  0  0  0  0  0  0  0  0
    2.2345    1.4491   -0.4520 C   0  0  0  0  0  0  0  0  0  0  0  0
    2.5615    2.6374    0.4565 C   0  0  0  0  0  0  0  0  0  0  0  0
    2.2619    1.8861   -1.9143 C   0  0  0  0  0  0  0  0  0  0  0  0
    3.2614    0.4568   -0.2473 O   0  0  0  0  0  0  0  0  0  0  0  0
    2.6668   -0.7296    0.3223 C   0  0  0  0  0  0  0  0  0  0  0  0
    2.5231   -1.7536   -0.8145 C   0  0  0  0  0  0  0  0  0  0  0  0
    3.6164   -1.2786    1.3866 C   0  0  0  0  0  0  0  0  0  0  0  0
   -2.4248   -0.3437    0.0688 C   0  0  0  0  0  0  0  0  0  0  0  0
   -2.2078   -1.5293   -0.7240 N   0  0  0  0  0  0  0  0  0  0  0  0
   -1.8690   -2.8082   -0.3258 C   0  0  0  0  0  0  0  0  0  0  0  0
   -1.7645   -3.5738   -1.4577 C   0  0  0  0  0  0  0  0  0  0  0  0
   -1.3388   -5.2046   -1.5802 Cl  0  0  0  0  0  0  0  0  0  0  0  0
   -2.1251   -2.7219   -2.5041 C   0  0  0  0  0  0  0  0  0  0  0  0
   -2.4402   -1.4997   -2.0763 N   0  0  0  0  0  0  0  0  0  0  0  0
   -3.2588    0.5812   -0.5029 N   0  0  0  0  0  0  0  0  0  0  0  0
   -4.7890    2.3079   -1.5017 H   0  0  0  0  0  0  0  0  0  0  0  0
   -4.0262    3.6409   -0.6170 H   0  0  0  0  0  0  0  0  0  0  0  0
   -5.4283    2.7864    0.0810 H   0  0  0  0  0  0  0  0  0  0  0  0
   -3.3838    2.8650    1.9697 H   0  0  0  0  0  0  0  0  0  0  0  0
   -1.8236    1.2689    2.9975 H   0  0  0  0  0  0  0  0  0  0  0  0
   -1.2907   -1.8830    2.3709 H   0  0  0  0  0  0  0  0  0  0  0  0
   -0.4220   -0.4896    2.9134 H   0  0  0  0  0  0  0  0  0  0  0  0
    0.8356   -2.1136    1.6291 H   0  0  0  0  0  0  0  0  0  0  0  0
    1.5305    0.2314    1.8865 H   0  0  0  0  0  0  0  0  0  0  0  0
    0.1889    1.5236    0.3220 H   0  0  0  0  0  0  0  0  0  0  0  0
    0.4367    0.3301   -0.9546 H   0  0  0  0  0  0  0  0  0  0  0  0
    3.5469    3.0516    0.2134 H   0  0  0  0  0  0  0  0  0  0  0  0
    2.6093    2.3346    1.5081 H   0  0  0  0  0  0  0  0  0  0  0  0
    1.8172    3.4344    0.3589 H   0  0  0  0  0  0  0  0  0  0  0  0
    3.2388    2.3074   -2.1775 H   0  0  0  0  0  0  0  0  0  0  0  0
    2.1077    1.0311   -2.5820 H   0  0  0  0  0  0  0  0  0  0  0  0
    1.4910    2.6344   -2.1244 H   0  0  0  0  0  0  0  0  0  0  0  0
    1.8675   -1.3884   -1.6117 H   0  0  0  0  0  0  0  0  0  0  0  0
    3.4953   -1.9408   -1.2855 H   0  0  0  0  0  0  0  0  0  0  0  0
    2.1298   -2.7101   -0.4558 H   0  0  0  0  0  0  0  0  0  0  0  0
    3.2201   -2.1829    1.8585 H   0  0  0  0  0  0  0  0  0  0  0  0
    3.8011   -0.5310    2.1664 H   0  0  0  0  0  0  0  0  0  0  0  0
    4.5947   -1.5136    0.9518 H   0  0  0  0  0  0  0  0  0  0  0  0
   -1.7459   -3.0792    0.7066 H   0  0  0  0  0  0  0  0  0  0  0  0
   -2.1913   -2.9385   -3.5620 H   0  0  0  0  0  0  0  0  0  0  0  0
  1  2  1  0
  2  3  2  0
  3  4  1  0
  4  5  2  0
  5  6  1  0
  6  7  1  0
  7  8  1  0
  8  9  1  0
  9 10  1  0
 10 11  1  0
 10 12  1  0
 10 13  1  0
 13 14  1  0
 14 15  1  0
 14 16  1  0
  5 17  1  0
 17 18  1  0
 18 19  1  0
 19 20  2  0
 20 21  1  0
 20 22  1  0
 22 23  2  0
 17 24  2  0
 24  2  1  0
 14  8  1  0
 23 18  1  0
  1 25  1  0
  1 26  1  0
  1 27  1  0
  3 28  1  0
  4 29  1  0
  6 30  1  0
  6 31  1  0
  7 32  1  0
  8 33  1  0
  9 34  1  0
  9 35  1  0
 11 36  1  0
 11 37  1  0
 11 38  1  0
 12 39  1  0
 12 40  1  0
 12 41  1  0
 15 42  1  0
 15 43  1  0
 15 44  1  0
 16 45  1  0
 16 46  1  0
 16 47  1  0
 19 48  1  0
 22 49  1  0
M  END
$$$$
OCNT-2317510
     RDKit          3D

 48 50  0  0  0  0  0  0  0  0999 V2000
    7.5575   -1.0744   -0.6417 C   0  0  0  0  0  0  0  0  0  0  0  0
    6.8443   -0.0585    0.2365 C   0  0  0  0  0  0  0  0  0  0  0  0
    5.3487   -0.1688    0.1181 C   0  0  0  0  0  0  0  0  0  0  0  0
    4.6525    0.5381   -0.8675 C   0  0  0  0  0  0  0  0  0  0  0  0
    3.2617    0.4153   -0.9850 C   0  0  0  0  0  0  0  0  0  0  0  0
    2.5444   -0.4193   -0.1249 C   0  0  0  0  0  0  0  0  0  0  0  0
    1.1472   -0.5895   -0.1768 N   0  0  0  0  0  0  0  0  0  0  0  0
    0.2638   -0.0850   -1.1058 C   0  0  0  0  0  0  0  0  0  0  0  0
    0.5594    0.5614   -2.1059 O   0  0  0  0  0  0  0  0  0  0  0  0
   -1.0471   -0.3900   -0.8221 N   0  0  0  0  0  0  0  0  0  0  0  0
   -1.7126   -0.7522    0.4173 C   0  0  0  0  0  0  0  0  0  0  0  0
   -2.9912   -0.1000   -0.1495 C   0  0  0  0  0  0  0  0  0  0  0  0
   -4.1522   -1.0771   -0.3284 C   0  0  0  0  0  0  0  0  0  0  0  0
   -4.5849   -1.5172    0.9602 O   0  0  0  0  0  0  0  0  0  0  0  0
   -5.7049   -2.3884    0.8693 C   0  0  0  0  0  0  0  0  0  0  0  0
   -3.3626    1.1614    0.6810 C   0  0  0  0  0  0  0  0  0  0  0  0
   -2.3184    2.3001    0.7581 C   0  0  0  0  0  0  0  0  0  0  0  0
   -3.5013    3.2840    0.6208 C   0  0  0  0  0  0  0  0  0  0  0  0
   -4.2765    2.1485   -0.0818 C   0  0  0  0  0  0  0  0  0  0  0  0
   -2.2290    0.1697   -1.4606 C   0  0  0  0  0  0  0  0  0  0  0  0
    3.2391   -1.1266    0.8606 C   0  0  0  0  0  0  0  0  0  0  0  0
    4.6224   -1.0017    0.9694 C   0  0  0  0  0  0  0  0  0  0  0  0
    5.2576   -1.7068    1.9168 F   0  0  0  0  0  0  0  0  0  0  0  0
    7.2827   -2.0988   -0.3685 H   0  0  0  0  0  0  0  0  0  0  0  0
    7.3076   -0.9300   -1.6980 H   0  0  0  0  0  0  0  0  0  0  0  0
    8.6420   -0.9728   -0.5332 H   0  0  0  0  0  0  0  0  0  0  0  0
    7.1611    0.9549   -0.0388 H   0  0  0  0  0  0  0  0  0  0  0  0
    7.1466   -0.1950    1.2817 H   0  0  0  0  0  0  0  0  0  0  0  0
    5.1836    1.1923   -1.5558 H   0  0  0  0  0  0  0  0  0  0  0  0
    2.7674    0.9919   -1.7616 H   0  0  0  0  0  0  0  0  0  0  0  0
    0.7422   -1.2220    0.4963 H   0  0  0  0  0  0  0  0  0  0  0  0
   -1.2782   -0.2829    1.3051 H   0  0  0  0  0  0  0  0  0  0  0  0
   -1.7479   -1.8363    0.5641 H   0  0  0  0  0  0  0  0  0  0  0  0
   -3.8441   -1.9512   -0.9152 H   0  0  0  0  0  0  0  0  0  0  0  0
   -4.9841   -0.5885   -0.8495 H   0  0  0  0  0  0  0  0  0  0  0  0
   -5.9874   -2.6925    1.8807 H   0  0  0  0  0  0  0  0  0  0  0  0
   -6.5537   -1.8736    0.4089 H   0  0  0  0  0  0  0  0  0  0  0  0
   -5.4481   -3.2827    0.2933 H   0  0  0  0  0  0  0  0  0  0  0  0
   -3.7586    0.9125    1.6761 H   0  0  0  0  0  0  0  0  0  0  0  0
   -1.5989    2.3853   -0.0607 H   0  0  0  0  0  0  0  0  0  0  0  0
   -1.7694    2.3664    1.7020 H   0  0  0  0  0  0  0  0  0  0  0  0
   -3.9368    3.5876    1.5797 H   0  0  0  0  0  0  0  0  0  0  0  0
   -3.3118    4.1743    0.0158 H   0  0  0  0  0  0  0  0  0  0  0  0
   -5.3409    2.0881    0.1617 H   0  0  0  0  0  0  0  0  0  0  0  0
   -4.1681    2.1590   -1.1716 H   0  0  0  0  0  0  0  0  0  0  0  0
   -2.1104    1.2049   -1.7871 H   0  0  0  0  0  0  0  0  0  0  0  0
   -2.5410   -0.4272   -2.3245 H   0  0  0  0  0  0  0  0  0  0  0  0
    2.7278   -1.7866    1.5535 H   0  0  0  0  0  0  0  0  0  0  0  0
  1  2  1  0
  2  3  1  0
  3  4  1  0
  4  5  2  0
  5  6  1  0
  6  7  1  0
  7  8  1  0
  8  9  2  0
  8 10  1  0
 10 11  1  0
 11 12  1  0
 12 13  1  0
 13 14  1  0
 14 15  1  0
 12 16  1  0
 16 17  1  0
 17 18  1  0
 18 19  1  0
 12 20  1  0
  6 21  2  0
 21 22  1  0
 22 23  1  0
 22  3  2  0
 20 10  1  0
 19 16  1  0
  1 24  1  0
  1 25  1  0
  1 26  1  0
  2 27  1  0
  2 28  1  0
  4 29  1  0
  5 30  1  0
  7 31  1  0
 11 32  1  0
 11 33  1  0
 13 34  1  0
 13 35  1  0
 15 36  1  0
 15 37  1  0
 15 38  1  0
 16 39  1  0
 17 40  1  0
 17 41  1  0
 18 42  1  0
 18 43  1  0
 19 44  1  0
 19 45  1  0
 20 46  1  0
 20 47  1  0
 21 48  1  0
M  END
$$$$
OCNT-2317519
     RDKit          3D

 38 41  0  0  0  0  0  0  0  0999 V2000
   -0.3425    2.7423   -1.0323 C   0  0  0  0  0  0  0  0  0  0  0  0
   -1.3304    2.1805   -2.0424 C   0  0  0  0  0  0  0  0  0  0  0  0
   -2.0499    0.9808   -1.4883 C   0  0  0  0  0  0  0  0  0  0  0  0
   -1.4113   -0.2027   -1.5760 N   0  0  0  0  0  0  0  0  0  0  0  0
   -1.9713   -1.3129   -1.0504 C   0  0  0  0  0  0  0  0  0  0  0  0
   -1.2873   -2.5313   -1.1185 N   0  0  0  0  0  0  0  0  0  0  0  0
    0.1669   -2.4184   -1.2872 C   0  0  0  0  0  0  0  0  0  0  0  0
    0.9422   -1.8407   -0.1477 C   0  0  0  0  0  0  0  0  0  0  0  0
    1.8017   -0.8466   -0.1171 N   0  0  0  0  0  0  0  0  0  0  0  0
    2.1460   -0.7877    1.2161 C   0  0  0  0  0  0  0  0  0  0  0  0
    3.0740    0.2102    1.7325 C   0  0  0  0  0  0  0  0  0  0  0  0
    3.4360    0.2320    3.0821 C   0  0  0  0  0  0  0  0  0  0  0  0
    4.3209    1.2058    3.5128 C   0  0  0  0  0  0  0  0  0  0  0  0
    4.8589    2.1417    2.7031 N   0  0  0  0  0  0  0  0  0  0  0  0
    4.4953    2.1050    1.4042 C   0  0  0  0  0  0  0  0  0  0  0  0
    3.6187    1.1723    0.8777 C   0  0  0  0  0  0  0  0  0  0  0  0
    1.5539   -1.7278    1.9722 N   0  0  0  0  0  0  0  0  0  0  0  0
    0.7542   -2.4249    1.0704 O   0  0  0  0  0  0  0  0  0  0  0  0
   -3.2382   -1.1986   -0.4471 C   0  0  0  0  0  0  0  0  0  0  0  0
   -4.1228   -2.1458    0.1759 C   0  0  0  0  0  0  0  0  0  0  0  0
   -5.2818   -1.5634    0.6411 C   0  0  0  0  0  0  0  0  0  0  0  0
   -5.3166    0.1179    0.3335 S   0  0  0  0  0  0  0  0  0  0  0  0
   -3.7894    0.0720   -0.4241 C   0  0  0  0  0  0  0  0  0  0  0  0
   -3.2409    1.1924   -0.9171 N   0  0  0  0  0  0  0  0  0  0  0  0
    0.4167    1.9997   -0.7636 H   0  0  0  0  0  0  0  0  0  0  0  0
   -0.8498    3.0506   -0.1118 H   0  0  0  0  0  0  0  0  0  0  0  0
    0.1696    3.6157   -1.4480 H   0  0  0  0  0  0  0  0  0  0  0  0
   -2.0587    2.9519   -2.3175 H   0  0  0  0  0  0  0  0  0  0  0  0
   -0.8027    1.8947   -2.9595 H   0  0  0  0  0  0  0  0  0  0  0  0
   -1.5621   -3.1550   -0.3681 H   0  0  0  0  0  0  0  0  0  0  0  0
    0.5470   -3.4341   -1.4539 H   0  0  0  0  0  0  0  0  0  0  0  0
    0.4030   -1.8711   -2.2088 H   0  0  0  0  0  0  0  0  0  0  0  0
    3.0419   -0.4895    3.7905 H   0  0  0  0  0  0  0  0  0  0  0  0
    4.6298    1.2604    4.5530 H   0  0  0  0  0  0  0  0  0  0  0  0
    4.9416    2.8707    0.7760 H   0  0  0  0  0  0  0  0  0  0  0  0
    3.3669    1.2004   -0.1779 H   0  0  0  0  0  0  0  0  0  0  0  0
   -3.9182   -3.2048    0.2704 H   0  0  0  0  0  0  0  0  0  0  0  0
   -6.1112   -2.0417    1.1445 H   0  0  0  0  0  0  0  0  0  0  0  0
  1  2  1  0
  2  3  1  0
  3  4  2  0
  4  5  1  0
  5  6  1  0
  6  7  1  0
  7  8  1  0
  8  9  2  0
  9 10  1  0
 10 11  1  0
 11 12  2  0
 12 13  1  0
 13 14  2  0
 14 15  1  0
 15 16  2  0
 10 17  2  0
 17 18  1  0
  5 19  2  0
 19 20  1  0
 20 21  2  0
 21 22  1  0
 22 23  1  0
 23 24  2  0
 24  3  1  0
 18  8  1  0
 23 19  1  0
 16 11  1  0
  1 25  1  0
  1 26  1  0
  1 27  1  0
  2 28  1  0
  2 29  1  0
  6 30  1  0
  7 31  1  0
  7 32  1  0
 12 33  1  0
 13 34  1  0
 15 35  1  0
 16 36  1  0
 20 37  1  0
 21 38  1  0
M  END
$$$$
OCNT-2317520
     RDKit          3D

 48 51  0  0  0  0  0  0  0  0999 V2000
   -0.7489   -0.8476   -2.4440 O   0  0  0  0  0  0  0  0  0  0  0  0
   -1.0893   -0.3810   -1.3609 C   0  0  0  0  0  0  0  0  0  0  0  0
   -0.1818    0.1382   -0.4687 N   0  0  0  0  0  0  0  0  0  0  0  0
    1.2490    0.1478   -0.7785 C   0  0  0  0  0  0  0  0  0  0  0  0
    1.8450   -1.2623   -0.6428 C   0  0  0  0  0  0  0  0  0  0  0  0
    3.3604   -1.1969   -0.4968 C   0  0  0  0  0  0  0  0  0  0  0  0
    3.7422   -0.4326    0.7036 N   0  0  0  0  0  0  0  0  0  0  0  0
    5.0605    0.0673    0.6508 C   0  0  0  0  0  0  0  0  0  0  0  0
    6.1254   -0.7909    0.3819 C   0  0  0  0  0  0  0  0  0  0  0  0
    7.4279   -0.3001    0.3322 C   0  0  0  0  0  0  0  0  0  0  0  0
    7.6255    1.0430    0.5594 C   0  0  0  0  0  0  0  0  0  0  0  0
    6.6063    1.8735    0.8283 N   0  0  0  0  0  0  0  0  0  0  0  0
    5.3242    1.3740    0.8786 N   0  0  0  0  0  0  0  0  0  0  0  0
    2.7414    0.5113    1.2266 C   0  0  0  0  0  0  0  0  0  0  0  0
    1.9828    1.1831    0.0880 C   0  0  0  0  0  0  0  0  0  0  0  0
   -2.4118   -0.3319   -0.9321 N   0  0  0  0  0  0  0  0  0  0  0  0
   -3.4171   -0.8313   -1.8678 C   0  0  0  0  0  0  0  0  0  0  0  0
   -4.6437   -1.3724   -1.1387 C   0  0  0  0  0  0  0  0  0  0  0  0
   -5.1650   -0.3861   -0.1311 C   0  0  0  0  0  0  0  0  0  0  0  0
   -6.4894   -0.4581    0.3123 C   0  0  0  0  0  0  0  0  0  0  0  0
   -7.3090   -1.3941   -0.1860 F   0  0  0  0  0  0  0  0  0  0  0  0
   -6.9828    0.4273    1.2667 C   0  0  0  0  0  0  0  0  0  0  0  0
   -6.1411    1.4005    1.8000 C   0  0  0  0  0  0  0  0  0  0  0  0
   -4.8172    1.4695    1.3735 C   0  0  0  0  0  0  0  0  0  0  0  0
   -4.0165    2.4075    1.8988 F   0  0  0  0  0  0  0  0  0  0  0  0
   -4.3083    0.5828    0.4176 C   0  0  0  0  0  0  0  0  0  0  0  0
   -2.8684    0.7104   -0.0074 C   0  0  0  0  0  0  0  0  0  0  0  0
   -0.4134   -0.0476    0.4955 H   0  0  0  0  0  0  0  0  0  0  0  0
    1.3409    0.4676   -1.8251 H   0  0  0  0  0  0  0  0  0  0  0  0
    1.5822   -1.8678   -1.5182 H   0  0  0  0  0  0  0  0  0  0  0  0
    1.4145   -1.7774    0.2264 H   0  0  0  0  0  0  0  0  0  0  0  0
    3.7489   -2.2191   -0.4202 H   0  0  0  0  0  0  0  0  0  0  0  0
    3.7820   -0.7432   -1.4043 H   0  0  0  0  0  0  0  0  0  0  0  0
    5.9542   -1.8512    0.2327 H   0  0  0  0  0  0  0  0  0  0  0  0
    8.2640   -0.9585    0.1282 H   0  0  0  0  0  0  0  0  0  0  0  0
    8.6095    1.4951    0.5379 H   0  0  0  0  0  0  0  0  0  0  0  0
    2.0351   -0.0532    1.8495 H   0  0  0  0  0  0  0  0  0  0  0  0
    3.1699    1.2619    1.9015 H   0  0  0  0  0  0  0  0  0  0  0  0
    1.2867    1.9298    0.4879 H   0  0  0  0  0  0  0  0  0  0  0  0
    2.6982    1.7278   -0.5419 H   0  0  0  0  0  0  0  0  0  0  0  0
   -2.9981   -1.6266   -2.4946 H   0  0  0  0  0  0  0  0  0  0  0  0
   -3.6885   -0.0011   -2.5327 H   0  0  0  0  0  0  0  0  0  0  0  0
   -4.3812   -2.2957   -0.6077 H   0  0  0  0  0  0  0  0  0  0  0  0
   -5.4179   -1.6138   -1.8759 H   0  0  0  0  0  0  0  0  0  0  0  0
   -8.0170    0.3500    1.5875 H   0  0  0  0  0  0  0  0  0  0  0  0
   -6.5043    2.1019    2.5446 H   0  0  0  0  0  0  0  0  0  0  0  0
   -2.7253    1.6744   -0.5115 H   0  0  0  0  0  0  0  0  0  0  0  0
   -2.2407    0.6958    0.8891 H   0  0  0  0  0  0  0  0  0  0  0  0
  1  2  2  0
  2  3  1  0
  3  4  1  0
  4  5  1  0
  5  6  1  0
  6  7  1  0
  7  8  1  0
  8  9  2  0
  9 10  1  0
 10 11  2  0
 11 12  1  0
 12 13  2  0
  7 14  1  0
 14 15  1  0
  2 16  1  0
 16 17  1  0
 17 18  1  0
 18 19  1  0
 19 20  2  0
 20 21  1  0
 20 22  1  0
 22 23  2  0
 23 24  1  0
 24 25  1  0
 24 26  2  0
 26 27  1  0
 15  4  1  0
 27 16  1  0
 13  8  1  0
 26 19  1  0
  3 28  1  0
  4 29  1  0
  5 30  1  0
  5 31  1  0
  6 32  1  0
  6 33  1  0
  9 34  1  0
 10 35  1  0
 11 36  1  0
 14 37  1  0
 14 38  1  0
 15 39  1  0
 15 40  1  0
 17 41  1  0
 17 42  1  0
 18 43  1  0
 18 44  1  0
 22 45  1  0
 23 46  1  0
 27 47  1  0
 27 48  1  0
M  END
$$$$
OCNT-2317521
     RDKit          3D

 45 47  0  0  0  0  0  0  0  0999 V2000
   -1.9941   -0.2085    2.5786 O   0  0  0  0  0  0  0  0  0  0  0  0
   -1.4210    0.5894    1.8406 C   0  0  0  0  0  0  0  0  0  0  0  0
    0.0378    0.9352    2.0243 C   0  0  0  0  0  0  0  0  0  0  0  0
    0.8190    0.4891    0.8962 N   0  0  0  0  0  0  0  0  0  0  0  0
    1.6021   -0.6178    0.7934 C   0  0  0  0  0  0  0  0  0  0  0  0
    2.1218   -0.5440   -0.4846 C   0  0  0  0  0  0  0  0  0  0  0  0
    3.0420   -1.4670   -1.2114 C   0  0  0  0  0  0  0  0  0  0  0  0
    2.6285   -2.8291   -1.1020 O   0  0  0  0  0  0  0  0  0  0  0  0
    4.4140   -1.2509   -0.5974 C   0  0  0  0  0  0  0  0  0  0  0  0
    4.9487   -2.1427    0.3511 C   0  0  0  0  0  0  0  0  0  0  0  0
    6.2096   -1.9202    0.9083 C   0  0  0  0  0  0  0  0  0  0  0  0
    6.9427   -0.8056    0.5225 C   0  0  0  0  0  0  0  0  0  0  0  0
    8.1513   -0.5922    1.0593 F   0  0  0  0  0  0  0  0  0  0  0  0
    6.4405    0.0921   -0.4108 C   0  0  0  0  0  0  0  0  0  0  0  0
    5.1805   -0.1288   -0.9702 C   0  0  0  0  0  0  0  0  0  0  0  0
    1.6147    0.5744   -1.1033 N   0  0  0  0  0  0  0  0  0  0  0  0
    0.8256    1.2042   -0.2449 N   0  0  0  0  0  0  0  0  0  0  0  0
   -2.0535    1.2675    0.8152 N   0  0  0  0  0  0  0  0  0  0  0  0
   -3.4225    0.9570    0.4264 C   0  0  0  0  0  0  0  0  0  0  0  0
   -4.0468    2.1528   -0.3008 C   0  0  0  0  0  0  0  0  0  0  0  0
   -5.4628    1.8454   -0.7802 C   0  0  0  0  0  0  0  0  0  0  0  0
   -5.5021    0.5906   -1.6470 C   0  0  0  0  0  0  0  0  0  0  0  0
   -4.8822   -0.6059   -0.9317 C   0  0  0  0  0  0  0  0  0  0  0  0
   -3.4660   -0.3031   -0.4492 C   0  0  0  0  0  0  0  0  0  0  0  0
    0.4225    0.4491    2.9265 H   0  0  0  0  0  0  0  0  0  0  0  0
    0.1622    2.0176    2.1319 H   0  0  0  0  0  0  0  0  0  0  0  0
    1.7307   -1.3341    1.5921 H   0  0  0  0  0  0  0  0  0  0  0  0
    3.0788   -1.2254   -2.2799 H   0  0  0  0  0  0  0  0  0  0  0  0
    1.7211   -2.8567   -1.4498 H   0  0  0  0  0  0  0  0  0  0  0  0
    4.3825   -3.0209    0.6565 H   0  0  0  0  0  0  0  0  0  0  0  0
    6.6223   -2.6100    1.6373 H   0  0  0  0  0  0  0  0  0  0  0  0
    7.0300    0.9575   -0.6956 H   0  0  0  0  0  0  0  0  0  0  0  0
    4.7917    0.5842   -1.6957 H   0  0  0  0  0  0  0  0  0  0  0  0
   -1.4532    1.6793    0.1024 H   0  0  0  0  0  0  0  0  0  0  0  0
   -3.9944    0.7646    1.3436 H   0  0  0  0  0  0  0  0  0  0  0  0
   -3.4254    2.4333   -1.1615 H   0  0  0  0  0  0  0  0  0  0  0  0
   -4.0661    3.0253    0.3637 H   0  0  0  0  0  0  0  0  0  0  0  0
   -5.8529    2.6978   -1.3477 H   0  0  0  0  0  0  0  0  0  0  0  0
   -6.1205    1.7110    0.0874 H   0  0  0  0  0  0  0  0  0  0  0  0
   -6.5389    0.3618   -1.9181 H   0  0  0  0  0  0  0  0  0  0  0  0
   -4.9605    0.7766   -2.5827 H   0  0  0  0  0  0  0  0  0  0  0  0
   -4.8648   -1.4696   -1.6058 H   0  0  0  0  0  0  0  0  0  0  0  0
   -5.5076   -0.8825   -0.0740 H   0  0  0  0  0  0  0  0  0  0  0  0
   -3.0800   -1.1660    0.1066 H   0  0  0  0  0  0  0  0  0  0  0  0
   -2.8054   -0.1748   -1.3169 H   0  0  0  0  0  0  0  0  0  0  0  0
  1  2  2  0
  2  3  1  0
  3  4  1  0
  4  5  1  0
  5  6  2  0
  6  7  1  0
  7  8  1  0
  7  9  1  0
  9 10  1  0
 10 11  2  0
 11 12  1  0
 12 13  1  0
 12 14  2  0
 14 15  1  0
  6 16  1  0
 16 17  2  0
  2 18  1  0
 18 19  1  0
 19 20  1  0
 20 21  1  0
 21 22  1  0
 22 23  1  0
 23 24  1  0
 17  4  1  0
 24 19  1  0
 15  9  2  0
  3 25  1  0
  3 26  1  0
  5 27  1  0
  7 28  1  0
  8 29  1  0
 10 30  1  0
 11 31  1  0
 14 32  1  0
 15 33  1  0
 18 34  1  0
 19 35  1  0
 20 36  1  0
 20 37  1  0
 21 38  1  0
 21 39  1  0
 22 40  1  0
 22 41  1  0
 23 42  1  0
 23 43  1  0
 24 44  1  0
 24 45  1  0
M  END
$$$$
OCNT-2317535
     RDKit          3D

  0  0  0  0  0  0  0  0  0  0999 V3000
M  V30 BEGIN CTAB
M  V30 COUNTS 50 52 0 0 0
M  V30 BEGIN ATOM
M  V30 1 C 4.543529 2.905408 1.581976 0
M  V30 2 O 5.319837 1.823715 1.081143 0
M  V30 3 C 4.647070 0.835433 0.413666 0
M  V30 4 C 3.270759 0.793623 0.185781 0
M  V30 5 C 2.699826 -0.278923 -0.515480 0
M  V30 6 C 1.209793 -0.332063 -0.739616 0
M  V30 7 C 0.480182 -0.950099 0.455369 0
M  V30 8 N -0.957237 -1.002548 0.251382 0
M  V30 9 C -1.750869 0.115766 0.420075 0
M  V30 10 O -1.277996 1.192110 0.776458 0
M  V30 11 C -3.244762 -0.092113 0.140755 0 CFG=2
M  V30 12 C -3.432264 -0.536299 -1.322904 0
M  V30 13 N -4.544362 0.255562 -1.851373 0
M  V30 14 C -4.400544 1.559879 -1.218495 0
M  V30 15 C -4.050957 1.231602 0.232900 0 CFG=1
M  V30 16 C -5.289883 1.088191 1.129790 0
M  V30 17 C -6.013252 -0.238781 0.942739 0
M  V30 18 O -5.173242 -1.388902 1.009071 0
M  V30 19 C -3.783113 -1.117502 1.150414 0
M  V30 20 C 3.526873 -1.310897 -0.976515 0
M  V30 21 C 4.905260 -1.278077 -0.753841 0
M  V30 22 O 5.590226 -2.349307 -1.259426 0
M  V30 23 C 7.000177 -2.354160 -1.071480 0
M  V30 24 C 5.458532 -0.202589 -0.059001 0
M  V30 25 H 5.224249 3.601775 2.081115 0
M  V30 26 H 3.817727 2.559415 2.325318 0
M  V30 27 H 4.050633 3.447710 0.768332 0
M  V30 28 H 2.615715 1.582835 0.543800 0
M  V30 29 H 0.990445 -0.906716 -1.648878 0
M  V30 30 H 0.837688 0.680739 -0.939644 0
M  V30 31 H 0.817130 -1.978778 0.625416 0
M  V30 32 H 0.681065 -0.379227 1.369674 0
M  V30 33 H -1.347924 -1.856010 -0.127350 0
M  V30 34 H -3.654410 -1.604639 -1.413382 0
M  V30 35 H -2.537576 -0.335272 -1.925830 0
M  V30 36 H -4.490040 0.332728 -2.866092 0
M  V30 37 H -5.313657 2.154615 -1.314684 0
M  V30 38 H -3.580923 2.115750 -1.690550 0
M  V30 39 H -3.463693 2.065409 0.633924 0
M  V30 40 H -5.984211 1.921492 0.972604 0
M  V30 41 H -4.959121 1.156371 2.174664 0
M  V30 42 H -6.536674 -0.264151 -0.018516 0
M  V30 43 H -6.782807 -0.350055 1.714301 0
M  V30 44 H -3.591652 -0.794034 2.181997 0
M  V30 45 H -3.271675 -2.080456 1.041971 0
M  V30 46 H 3.102342 -2.153841 -1.517694 0
M  V30 47 H 7.256314 -2.384982 -0.007290 0
M  V30 48 H 7.467958 -1.497260 -1.567492 0
M  V30 49 H 7.395610 -3.263147 -1.534984 0
M  V30 50 H 6.523904 -0.139299 0.135884 0
M  V30 END ATOM
M  V30 BEGIN BOND
M  V30 1 1 1 2
M  V30 2 1 2 3
M  V30 3 1 3 4
M  V30 4 2 4 5
M  V30 5 1 5 6
M  V30 6 1 6 7
M  V30 7 1 7 8
M  V30 8 1 8 9
M  V30 9 2 9 10
M  V30 10 1 11 9 CFG=1
M  V30 11 1 11 12
M  V30 12 1 12 13
M  V30 13 1 13 14
M  V30 14 1 14 15
M  V30 15 1 15 16
M  V30 16 1 16 17
M  V30 17 1 17 18
M  V30 18 1 18 19
M  V30 19 1 5 20
M  V30 20 2 20 21
M  V30 21 1 21 22
M  V30 22 1 22 23
M  V30 23 1 21 24
M  V30 24 2 24 3
M  V30 25 1 15 11
M  V30 26 1 19 11
M  V30 27 1 1 25
M  V30 28 1 1 26
M  V30 29 1 1 27
M  V30 30 1 4 28
M  V30 31 1 6 29
M  V30 32 1 6 30
M  V30 33 1 7 31
M  V30 34 1 7 32
M  V30 35 1 8 33
M  V30 36 1 12 34
M  V30 37 1 12 35
M  V30 38 1 13 36
M  V30 39 1 14 37
M  V30 40 1 14 38
M  V30 41 1 15 39 CFG=1
M  V30 42 1 16 40
M  V30 43 1 16 41
M  V30 44 1 17 42
M  V30 45 1 17 43
M  V30 46 1 19 44
M  V30 47 1 19 45
M  V30 48 1 20 46
M  V30 49 1 23 47
M  V30 50 1 23 48
M  V30 51 1 23 49
M  V30 52 1 24 50
M  V30 END BOND
M  V30 BEGIN COLLECTION
M  V30 MDLV30/STERAC1 ATOMS=(2 11 15)
M  V30 END COLLECTION
M  V30 END CTAB
M  END
>  <_CXSMILES_Data>  (1244) 
|&1:10,14|

$$$$
OCNT-2317536
     RDKit          3D

 48 51  0  0  0  0  0  0  0  0999 V2000
   -2.8523    1.5967    2.0063 C   0  0  0  0  0  0  0  0  0  0  0  0
   -2.2892    1.7269    0.5866 C   0  0  0  0  0  0  0  0  0  0  0  0
   -0.9724    2.5081    0.6201 C   0  0  0  0  0  0  0  0  0  0  0  0
   -2.2044    0.3668   -0.1914 C   0  0  0  0  0  0  0  0  0  0  0  0
   -3.6294   -0.0033   -0.6478 C   0  0  0  0  0  0  0  0  0  0  0  0
   -3.6317   -1.3348   -1.3669 C   0  0  0  0  0  0  0  0  0  0  0  0
   -3.0714   -2.3859   -0.4557 C   0  0  0  0  0  0  0  0  0  0  0  0
   -3.5236   -3.7098   -0.5852 C   0  0  0  0  0  0  0  0  0  0  0  0
   -2.9910   -4.7213    0.2089 C   0  0  0  0  0  0  0  0  0  0  0  0
   -1.9954   -4.4198    1.1295 C   0  0  0  0  0  0  0  0  0  0  0  0
   -1.5297   -3.1080    1.2532 C   0  0  0  0  0  0  0  0  0  0  0  0
   -2.0570   -2.0712    0.4659 C   0  0  0  0  0  0  0  0  0  0  0  0
   -1.5477   -0.7294    0.5604 N   0  0  0  0  0  0  0  0  0  0  0  0
   -0.2568   -0.5499    1.0829 C   0  0  0  0  0  0  0  0  0  0  0  0
   -0.0176   -0.6405    2.2865 O   0  0  0  0  0  0  0  0  0  0  0  0
    0.8113   -0.2851    0.0979 C   0  0  0  0  0  0  0  0  0  0  0  0
    0.8169   -0.7177   -1.2185 C   0  0  0  0  0  0  0  0  0  0  0  0
    2.2460   -0.2101   -2.0130 S   0  0  0  0  0  0  0  0  0  0  0  0
    2.7835    0.5223   -0.5593 C   0  0  0  0  0  0  0  0  0  0  0  0
    4.1400    1.2703   -0.4241 C   0  0  0  0  0  0  0  0  0  0  0  0
    5.0970    1.4680   -1.3925 C   0  0  0  0  0  0  0  0  0  0  0  0
    6.0949    2.1744   -0.7837 N   0  0  0  0  0  0  0  0  0  0  0  0
    7.3287    2.6257   -1.3806 C   0  0  0  0  0  0  0  0  0  0  0  0
    5.8477    2.4507    0.5108 N   0  0  0  0  0  0  0  0  0  0  0  0
    4.6512    1.8935    0.7278 C   0  0  0  0  0  0  0  0  0  0  0  0
    1.9624    0.4164    0.4613 N   0  0  0  0  0  0  0  0  0  0  0  0
   -2.9754    2.5872    2.4589 H   0  0  0  0  0  0  0  0  0  0  0  0
   -3.8343    1.1151    2.0116 H   0  0  0  0  0  0  0  0  0  0  0  0
   -2.1880    1.0205    2.6571 H   0  0  0  0  0  0  0  0  0  0  0  0
   -2.9842    2.3682    0.0261 H   0  0  0  0  0  0  0  0  0  0  0  0
   -0.4996    2.5320   -0.3668 H   0  0  0  0  0  0  0  0  0  0  0  0
   -0.2635    2.0990    1.3441 H   0  0  0  0  0  0  0  0  0  0  0  0
   -1.1605    3.5463    0.9168 H   0  0  0  0  0  0  0  0  0  0  0  0
   -1.6114    0.5393   -1.0980 H   0  0  0  0  0  0  0  0  0  0  0  0
   -4.0239    0.7710   -1.3170 H   0  0  0  0  0  0  0  0  0  0  0  0
   -4.3104   -0.0617    0.2101 H   0  0  0  0  0  0  0  0  0  0  0  0
   -4.6599   -1.5819   -1.6565 H   0  0  0  0  0  0  0  0  0  0  0  0
   -3.0276   -1.2875   -2.2808 H   0  0  0  0  0  0  0  0  0  0  0  0
   -4.2976   -3.9583   -1.3085 H   0  0  0  0  0  0  0  0  0  0  0  0
   -3.3523   -5.7412    0.1104 H   0  0  0  0  0  0  0  0  0  0  0  0
   -1.5777   -5.2021    1.7583 H   0  0  0  0  0  0  0  0  0  0  0  0
   -0.7600   -2.9213    1.9986 H   0  0  0  0  0  0  0  0  0  0  0  0
    0.0716   -1.3020   -1.7384 H   0  0  0  0  0  0  0  0  0  0  0  0
    5.1558    1.1752   -2.4308 H   0  0  0  0  0  0  0  0  0  0  0  0
    7.3459    2.3441   -2.4360 H   0  0  0  0  0  0  0  0  0  0  0  0
    8.1598    2.1499   -0.8534 H   0  0  0  0  0  0  0  0  0  0  0  0
    7.3819    3.7131   -1.2835 H   0  0  0  0  0  0  0  0  0  0  0  0
    4.2012    1.9623    1.7105 H   0  0  0  0  0  0  0  0  0  0  0  0
  1  2  1  0
  2  3  1  0
  2  4  1  0
  4  5  1  0
  5  6  1  0
  6  7  1  0
  7  8  2  0
  8  9  1  0
  9 10  2  0
 10 11  1  0
 11 12  2  0
 12 13  1  0
 13 14  1  0
 14 15  2  0
 14 16  1  0
 16 17  2  0
 17 18  1  0
 18 19  1  0
 19 20  1  0
 20 21  2  0
 21 22  1  0
 22 23  1  0
 22 24  1  0
 24 25  2  0
 19 26  2  0
 13  4  1  0
 26 16  1  0
 12  7  1  0
 25 20  1  0
  1 27  1  0
  1 28  1  0
  1 29  1  0
  2 30  1  0
  3 31  1  0
  3 32  1  0
  3 33  1  0
  4 34  1  0
  5 35  1  0
  5 36  1  0
  6 37  1  0
  6 38  1  0
  8 39  1  0
  9 40  1  0
 10 41  1  0
 11 42  1  0
 17 43  1  0
 21 44  1  0
 23 45  1  0
 23 46  1  0
 23 47  1  0
 25 48  1  0
M  END
$$$$
OCNT-2317551
     RDKit          3D

 51 54  0  0  0  0  0  0  0  0999 V2000
    0.3446   -1.9850    1.9121 C   0  0  0  0  0  0  0  0  0  0  0  0
    0.6820   -0.9026    0.8810 C   0  0  0  0  0  0  0  0  0  0  0  0
   -0.4994    0.0912    0.6872 C   0  0  0  0  0  0  0  0  0  0  0  0
   -1.6198   -0.5696   -0.0354 N   0  0  0  0  0  0  0  0  0  0  0  0
   -2.7622    0.2655   -0.1219 C   0  0  0  0  0  0  0  0  0  0  0  0
   -2.7629    1.4303   -0.9092 C   0  0  0  0  0  0  0  0  0  0  0  0
   -3.8879    2.2502   -0.9802 C   0  0  0  0  0  0  0  0  0  0  0  0
   -5.0335    1.9209   -0.2618 C   0  0  0  0  0  0  0  0  0  0  0  0
   -5.0641    0.7661    0.5364 C   0  0  0  0  0  0  0  0  0  0  0  0
   -6.1954    0.4040    1.2734 C   0  0  0  0  0  0  0  0  0  0  0  0
   -6.2880   -0.6934    2.0590 N   0  0  0  0  0  0  0  0  0  0  0  0
   -5.1948   -1.4784    2.1150 C   0  0  0  0  0  0  0  0  0  0  0  0
   -4.0206   -1.2167    1.4278 C   0  0  0  0  0  0  0  0  0  0  0  0
   -3.9311   -0.0724    0.6146 C   0  0  0  0  0  0  0  0  0  0  0  0
   -1.2055   -1.1283   -1.3491 C   0  0  0  0  0  0  0  0  0  0  0  0
   -0.0521   -2.1296   -1.1409 C   0  0  0  0  0  0  0  0  0  0  0  0
    1.0673   -1.4930   -0.4268 N   0  0  0  0  0  0  0  0  0  0  0  0
    2.1083   -0.9898   -1.2131 C   0  0  0  0  0  0  0  0  0  0  0  0
    2.1315   -1.1594   -2.4362 O   0  0  0  0  0  0  0  0  0  0  0  0
    3.2390   -0.2002   -0.5061 C   0  0  1  0  0  0  0  0  0  0  0  0
    4.5275   -0.2278   -1.3445 C   0  0  0  0  0  0  0  0  0  0  0  0
    5.6263    0.6078   -0.6944 C   0  0  0  0  0  0  0  0  0  0  0  0
    5.1248    2.0186   -0.4058 C   0  0  0  0  0  0  0  0  0  0  0  0
    3.8119    1.9895    0.3732 C   0  0  0  0  0  0  0  0  0  0  0  0
    2.7842    1.1998   -0.3091 N   0  0  0  0  0  0  0  0  0  0  0  0
    0.1625   -1.5339    2.8934 H   0  0  0  0  0  0  0  0  0  0  0  0
    1.1765   -2.6903    2.0132 H   0  0  0  0  0  0  0  0  0  0  0  0
   -0.5474   -2.5591    1.6443 H   0  0  0  0  0  0  0  0  0  0  0  0
    1.5152   -0.3392    1.3034 H   0  0  0  0  0  0  0  0  0  0  0  0
   -0.8390    0.4496    1.6672 H   0  0  0  0  0  0  0  0  0  0  0  0
   -0.1444    0.9582    0.1156 H   0  0  0  0  0  0  0  0  0  0  0  0
   -1.8778    1.7124   -1.4730 H   0  0  0  0  0  0  0  0  0  0  0  0
   -3.8685    3.1463   -1.5950 H   0  0  0  0  0  0  0  0  0  0  0  0
   -5.9038    2.5703   -0.3264 H   0  0  0  0  0  0  0  0  0  0  0  0
   -7.0964    1.0119    1.2514 H   0  0  0  0  0  0  0  0  0  0  0  0
   -5.2855   -2.3566    2.7474 H   0  0  0  0  0  0  0  0  0  0  0  0
   -3.1814   -1.8981    1.5208 H   0  0  0  0  0  0  0  0  0  0  0  0
   -0.8724   -0.3313   -2.0256 H   0  0  0  0  0  0  0  0  0  0  0  0
   -2.0485   -1.6497   -1.8181 H   0  0  0  0  0  0  0  0  0  0  0  0
   -0.3915   -2.9831   -0.5445 H   0  0  0  0  0  0  0  0  0  0  0  0
    0.2731   -2.5296   -2.1068 H   0  0  0  0  0  0  0  0  0  0  0  0
    3.4425   -0.6809    0.4588 H   0  0  0  0  0  0  0  0  0  0  0  0
    4.8731   -1.2617   -1.4642 H   0  0  0  0  0  0  0  0  0  0  0  0
    4.3379    0.1555   -2.3560 H   0  0  0  0  0  0  0  0  0  0  0  0
    6.5048    0.6477   -1.3477 H   0  0  0  0  0  0  0  0  0  0  0  0
    5.9421    0.1321    0.2422 H   0  0  0  0  0  0  0  0  0  0  0  0
    4.9793    2.5548   -1.3521 H   0  0  0  0  0  0  0  0  0  0  0  0
    5.8814    2.5717    0.1619 H   0  0  0  0  0  0  0  0  0  0  0  0
    3.9758    1.5902    1.3814 H   0  0  0  0  0  0  0  0  0  0  0  0
    3.4423    3.0131    0.4993 H   0  0  0  0  0  0  0  0  0  0  0  0
    2.6200    1.6022   -1.2357 H   0  0  0  0  0  0  0  0  0  0  0  0
  1  2  1  0
  2  3  1  0
  3  4  1  0
  4  5  1  0
  5  6  2  0
  6  7  1  0
  7  8  2  0
  8  9  1  0
  9 10  2  0
 10 11  1  0
 11 12  2  0
 12 13  1  0
 13 14  2  0
  4 15  1  0
 15 16  1  0
 16 17  1  0
 17 18  1  0
 18 19  2  0
 18 20  1  0
 20 21  1  0
 21 22  1  0
 22 23  1  0
 23 24  1  0
 24 25  1  0
 17  2  1  0
 25 20  1  0
 14  5  1  0
 14  9  1  0
  1 26  1  0
  1 27  1  0
  1 28  1  0
  2 29  1  0
  3 30  1  0
  3 31  1  0
  6 32  1  0
  7 33  1  0
  8 34  1  0
 10 35  1  0
 12 36  1  0
 13 37  1  0
 15 38  1  0
 15 39  1  0
 16 40  1  0
 16 41  1  0
 20 42  1  1
 21 43  1  0
 21 44  1  0
 22 45  1  0
 22 46  1  0
 23 47  1  0
 23 48  1  0
 24 49  1  0
 24 50  1  0
 25 51  1  0
M  END
$$$$
OCNT-2317552
     RDKit          3D

 54 56  0  0  0  0  0  0  0  0999 V2000
    2.0298    0.7364   -2.5341 O   0  0  0  0  0  0  0  0  0  0  0  0
    1.9647    0.5011   -1.3320 C   0  0  0  0  0  0  0  0  0  0  0  0
    0.7764    0.3263   -0.6684 N   0  0  0  0  0  0  0  0  0  0  0  0
   -0.4791    0.4901   -1.3804 C   0  0  0  0  0  0  0  0  0  0  0  0
   -1.6677   -0.2092   -0.6921 C   0  0  0  0  0  0  0  0  0  0  0  0
   -1.9352    0.3094    0.7402 C   0  0  0  0  0  0  0  0  0  0  0  0
   -2.2062    1.7935    0.8208 C   0  0  0  0  0  0  0  0  0  0  0  0
   -3.3616    2.3359    0.2410 C   0  0  0  0  0  0  0  0  0  0  0  0
   -3.6103    3.7075    0.3059 C   0  0  0  0  0  0  0  0  0  0  0  0
   -2.7102    4.5499    0.9548 C   0  0  0  0  0  0  0  0  0  0  0  0
   -1.5637    4.0208    1.5438 C   0  0  0  0  0  0  0  0  0  0  0  0
   -1.3134    2.6489    1.4807 C   0  0  0  0  0  0  0  0  0  0  0  0
   -1.4442   -1.7398   -0.6976 C   0  0  0  0  0  0  0  0  0  0  0  0
   -2.6769   -2.5355   -0.3360 C   0  0  0  0  0  0  0  0  0  0  0  0
   -3.7552   -2.6194   -1.2277 C   0  0  0  0  0  0  0  0  0  0  0  0
   -4.8976   -3.3470   -0.8912 C   0  0  0  0  0  0  0  0  0  0  0  0
   -4.9729   -3.9989    0.3379 C   0  0  0  0  0  0  0  0  0  0  0  0
   -3.9053   -3.9258    1.2304 C   0  0  0  0  0  0  0  0  0  0  0  0
   -2.7616   -3.1989    0.8955 C   0  0  0  0  0  0  0  0  0  0  0  0
    3.0888    0.3852   -0.5336 N   0  0  0  0  0  0  0  0  0  0  0  0
    3.1017   -0.1430    0.8336 C   0  0  0  0  0  0  0  0  0  0  0  0
    4.3670   -0.9451    1.1106 C   0  0  0  0  0  0  0  0  0  0  0  0
    5.6403   -0.1176    0.9150 C   0  0  0  0  0  0  0  0  0  0  0  0
    6.7090   -1.0163    0.5815 O   0  0  0  0  0  0  0  0  0  0  0  0
    5.4719    1.0041   -0.1211 C   0  0  0  0  0  0  0  0  0  0  0  0
    5.1526    2.1563    0.5359 F   0  0  0  0  0  0  0  0  0  0  0  0
    6.6657    1.2411   -0.7269 F   0  0  0  0  0  0  0  0  0  0  0  0
    4.3892    0.6973   -1.1461 C   0  0  0  0  0  0  0  0  0  0  0  0
    0.7928    0.7287    0.2554 H   0  0  0  0  0  0  0  0  0  0  0  0
   -0.3648    0.0958   -2.3977 H   0  0  0  0  0  0  0  0  0  0  0  0
   -0.6570    1.5664   -1.4839 H   0  0  0  0  0  0  0  0  0  0  0  0
   -2.5509    0.0107   -1.3072 H   0  0  0  0  0  0  0  0  0  0  0  0
   -2.8093   -0.1977    1.1679 H   0  0  0  0  0  0  0  0  0  0  0  0
   -1.0964    0.0469    1.3975 H   0  0  0  0  0  0  0  0  0  0  0  0
   -4.0786    1.6911   -0.2628 H   0  0  0  0  0  0  0  0  0  0  0  0
   -4.5081    4.1183   -0.1486 H   0  0  0  0  0  0  0  0  0  0  0  0
   -2.9045    5.6180    1.0048 H   0  0  0  0  0  0  0  0  0  0  0  0
   -0.8649    4.6782    2.0547 H   0  0  0  0  0  0  0  0  0  0  0  0
   -0.4174    2.2570    1.9544 H   0  0  0  0  0  0  0  0  0  0  0  0
   -0.6217   -2.0034   -0.0200 H   0  0  0  0  0  0  0  0  0  0  0  0
   -1.1222   -2.0674   -1.6953 H   0  0  0  0  0  0  0  0  0  0  0  0
   -3.7096   -2.1207   -2.1933 H   0  0  0  0  0  0  0  0  0  0  0  0
   -5.7280   -3.4071   -1.5897 H   0  0  0  0  0  0  0  0  0  0  0  0
   -5.8623   -4.5662    0.5990 H   0  0  0  0  0  0  0  0  0  0  0  0
   -3.9627   -4.4367    2.1880 H   0  0  0  0  0  0  0  0  0  0  0  0
   -1.9380   -3.1534    1.6040 H   0  0  0  0  0  0  0  0  0  0  0  0
    3.0304    0.7132    1.5142 H   0  0  0  0  0  0  0  0  0  0  0  0
    2.2273   -0.7794    1.0030 H   0  0  0  0  0  0  0  0  0  0  0  0
    4.3452   -1.3445    2.1316 H   0  0  0  0  0  0  0  0  0  0  0  0
    4.3907   -1.8214    0.4488 H   0  0  0  0  0  0  0  0  0  0  0  0
    5.9120    0.3415    1.8730 H   0  0  0  0  0  0  0  0  0  0  0  0
    7.4520   -0.4673    0.2617 H   0  0  0  0  0  0  0  0  0  0  0  0
    4.6801   -0.1608   -1.7640 H   0  0  0  0  0  0  0  0  0  0  0  0
    4.2701    1.5528   -1.8210 H   0  0  0  0  0  0  0  0  0  0  0  0
  1  2  2  0
  2  3  1  0
  3  4  1  0
  4  5  1  0
  5  6  1  0
  6  7  1  0
  7  8  2  0
  8  9  1  0
  9 10  2  0
 10 11  1  0
 11 12  2  0
  5 13  1  0
 13 14  1  0
 14 15  2  0
 15 16  1  0
 16 17  2  0
 17 18  1  0
 18 19  2  0
  2 20  1  0
 20 21  1  0
 21 22  1  0
 22 23  1  0
 23 24  1  0
 23 25  1  0
 25 26  1  0
 25 27  1  0
 25 28  1  0
 12  7  1  0
 19 14  1  0
 28 20  1  0
  3 29  1  0
  4 30  1  0
  4 31  1  0
  5 32  1  0
  6 33  1  0
  6 34  1  0
  8 35  1  0
  9 36  1  0
 10 37  1  0
 11 38  1  0
 12 39  1  0
 13 40  1  0
 13 41  1  0
 15 42  1  0
 16 43  1  0
 17 44  1  0
 18 45  1  0
 19 46  1  0
 21 47  1  0
 21 48  1  0
 22 49  1  0
 22 50  1  0
 23 51  1  0
 24 52  1  0
 28 53  1  0
 28 54  1  0
M  END
$$$$
OCNT-2317570
     RDKit          3D

 49 51  0  0  0  0  0  0  0  0999 V2000
   -4.6786    2.4942   -1.3223 C   0  0  0  0  0  0  0  0  0  0  0  0
   -3.8765    1.5493   -0.6271 O   0  0  0  0  0  0  0  0  0  0  0  0
   -4.3496    0.2661   -0.5263 C   0  0  0  0  0  0  0  0  0  0  0  0
   -5.4748   -0.2110   -1.2094 C   0  0  0  0  0  0  0  0  0  0  0  0
   -5.8715   -1.5428   -1.0803 C   0  0  0  0  0  0  0  0  0  0  0  0
   -5.1424   -2.4104   -0.2762 C   0  0  0  0  0  0  0  0  0  0  0  0
   -4.0185   -1.9471    0.4073 C   0  0  0  0  0  0  0  0  0  0  0  0
   -3.6118   -0.6034    0.3079 C   0  0  0  0  0  0  0  0  0  0  0  0
   -2.3674   -0.0998    1.0462 C   0  0  0  0  0  0  0  0  0  0  0  0
   -2.2119   -0.7179    2.4457 C   0  0  0  0  0  0  0  0  0  0  0  0
   -1.1270   -0.3548    0.1711 C   0  0  0  0  0  0  0  0  0  0  0  0
    0.1126    0.3965    0.6341 C   0  0  0  0  0  0  0  0  0  0  0  0
    0.0589    1.2772    1.4927 O   0  0  0  0  0  0  0  0  0  0  0  0
    1.3171    0.0496    0.0274 N   0  0  0  0  0  0  0  0  0  0  0  0
    1.4500   -0.8779   -1.0981 C   0  0  0  0  0  0  0  0  0  0  0  0
    2.5710   -0.4502   -2.0387 C   0  0  0  0  0  0  0  0  0  0  0  0
    3.9263   -0.3540   -1.3349 C   0  0  0  0  0  0  0  0  0  0  0  0
    3.8057   -0.1073    0.1779 C   0  0  0  0  0  0  0  0  0  0  0  0
    5.0519    0.5202    0.7267 C   0  0  0  0  0  0  0  0  0  0  0  0
    5.9971   -0.1046    1.3999 N   0  0  0  0  0  0  0  0  0  0  0  0
    6.9402    0.8441    1.6940 C   0  0  0  0  0  0  0  0  0  0  0  0
    6.5726    2.0657    1.1872 C   0  0  0  0  0  0  0  0  0  0  0  0
    5.3722    1.8490    0.5707 N   0  0  0  0  0  0  0  0  0  0  0  0
    2.5406    0.6865    0.5234 C   0  0  0  0  0  0  0  0  0  0  0  0
   -4.1965    3.4723   -1.2313 H   0  0  0  0  0  0  0  0  0  0  0  0
   -5.6765    2.5730   -0.8781 H   0  0  0  0  0  0  0  0  0  0  0  0
   -4.7363    2.2509   -2.3881 H   0  0  0  0  0  0  0  0  0  0  0  0
   -6.0622    0.4281   -1.8598 H   0  0  0  0  0  0  0  0  0  0  0  0
   -6.7466   -1.9030   -1.6147 H   0  0  0  0  0  0  0  0  0  0  0  0
   -5.4456   -3.4499   -0.1812 H   0  0  0  0  0  0  0  0  0  0  0  0
   -3.4635   -2.6545    1.0177 H   0  0  0  0  0  0  0  0  0  0  0  0
   -2.4801    0.9786    1.2160 H   0  0  0  0  0  0  0  0  0  0  0  0
   -3.1417   -0.6287    3.0186 H   0  0  0  0  0  0  0  0  0  0  0  0
   -1.4278   -0.2093    3.0156 H   0  0  0  0  0  0  0  0  0  0  0  0
   -1.9400   -1.7777    2.4016 H   0  0  0  0  0  0  0  0  0  0  0  0
   -1.3316   -0.0226   -0.8546 H   0  0  0  0  0  0  0  0  0  0  0  0
   -0.9089   -1.4293    0.1459 H   0  0  0  0  0  0  0  0  0  0  0  0
    0.5154   -0.9390   -1.6609 H   0  0  0  0  0  0  0  0  0  0  0  0
    1.6524   -1.8711   -0.6810 H   0  0  0  0  0  0  0  0  0  0  0  0
    2.6423   -1.1425   -2.8850 H   0  0  0  0  0  0  0  0  0  0  0  0
    2.3232    0.5337   -2.4582 H   0  0  0  0  0  0  0  0  0  0  0  0
    4.5161    0.4305   -1.8265 H   0  0  0  0  0  0  0  0  0  0  0  0
    4.4856   -1.2856   -1.4933 H   0  0  0  0  0  0  0  0  0  0  0  0
    3.7062   -1.0918    0.6588 H   0  0  0  0  0  0  0  0  0  0  0  0
    7.8326    0.5957    2.2538 H   0  0  0  0  0  0  0  0  0  0  0  0
    7.0442    3.0374    1.2114 H   0  0  0  0  0  0  0  0  0  0  0  0
    4.8181    2.5422    0.0868 H   0  0  0  0  0  0  0  0  0  0  0  0
    2.5716    1.6896    0.0787 H   0  0  0  0  0  0  0  0  0  0  0  0
    2.4632    0.8224    1.6094 H   0  0  0  0  0  0  0  0  0  0  0  0
  1  2  1  0
  2  3  1  0
  3  4  2  0
  4  5  1  0
  5  6  2  0
  6  7  1  0
  7  8  2  0
  8  9  1  0
  9 10  1  0
  9 11  1  0
 11 12  1  0
 12 13  2  0
 12 14  1  0
 14 15  1  0
 15 16  1  0
 16 17  1  0
 17 18  1  0
 18 19  1  0
 19 20  2  0
 20 21  1  0
 21 22  2  0
 22 23  1  0
 18 24  1  0
  8  3  1  0
 24 14  1  0
 23 19  1  0
  1 25  1  0
  1 26  1  0
  1 27  1  0
  4 28  1  0
  5 29  1  0
  6 30  1  0
  7 31  1  0
  9 32  1  0
 10 33  1  0
 10 34  1  0
 10 35  1  0
 11 36  1  0
 11 37  1  0
 15 38  1  0
 15 39  1  0
 16 40  1  0
 16 41  1  0
 17 42  1  0
 17 43  1  0
 18 44  1  0
 21 45  1  0
 22 46  1  0
 23 47  1  0
 24 48  1  0
 24 49  1  0
M  END
$$$$
OCNT-2317579
     RDKit          3D

 45 47  0  0  0  0  0  0  0  0999 V2000
    1.3509   -2.1062    1.4348 C   0  0  0  0  0  0  0  0  0  0  0  0
    1.6233   -1.4860    0.0689 C   0  0  0  0  0  0  0  0  0  0  0  0
    1.1279   -0.0397   -0.1145 C   0  0  0  0  0  0  0  0  0  0  0  0
    1.7568    1.0143    0.8251 C   0  0  0  0  0  0  0  0  0  0  0  0
    3.2562    1.3230    0.6890 C   0  0  0  0  0  0  0  0  0  0  0  0
    4.2065    0.4041    1.4665 C   0  0  0  0  0  0  0  0  0  0  0  0
    5.5201    0.3961    0.6795 C   0  0  0  0  0  0  0  0  0  0  0  0
    5.3310    1.3823   -0.4665 C   0  0  0  0  0  0  0  0  0  0  0  0
    3.8322    1.3538   -0.7246 C   0  0  0  0  0  0  0  0  0  0  0  0
   -0.3692    0.0143   -0.0551 C   0  0  0  0  0  0  0  0  0  0  0  0
   -1.2372   -0.0356   -1.0389 N   0  0  0  0  0  0  0  0  0  0  0  0
   -2.4510    0.0339   -0.3777 C   0  0  0  0  0  0  0  0  0  0  0  0
   -3.7158    0.0309   -1.1116 C   0  0  0  0  0  0  0  0  0  0  0  0
   -3.6911    0.4201   -2.4609 C   0  0  0  0  0  0  0  0  0  0  0  0
   -4.8719    0.4410   -3.1791 C   0  0  0  0  0  0  0  0  0  0  0  0
   -6.0633    0.1014   -2.6551 N   0  0  0  0  0  0  0  0  0  0  0  0
   -6.0687   -0.2824   -1.3552 C   0  0  0  0  0  0  0  0  0  0  0  0
   -4.9427   -0.3402   -0.5364 C   0  0  0  0  0  0  0  0  0  0  0  0
   -4.9522   -0.7619    0.7639 O   0  0  0  0  0  0  0  0  0  0  0  0
   -6.2124   -1.0103    1.3728 C   0  0  0  0  0  0  0  0  0  0  0  0
   -2.3263    0.1548    0.9541 N   0  0  0  0  0  0  0  0  0  0  0  0
   -0.9536    0.1295    1.1702 O   0  0  0  0  0  0  0  0  0  0  0  0
    0.2782   -2.2222    1.6150 H   0  0  0  0  0  0  0  0  0  0  0  0
    1.7995   -3.1039    1.4840 H   0  0  0  0  0  0  0  0  0  0  0  0
    1.7738   -1.5116    2.2484 H   0  0  0  0  0  0  0  0  0  0  0  0
    1.1510   -2.1246   -0.6897 H   0  0  0  0  0  0  0  0  0  0  0  0
    2.6981   -1.5339   -0.1351 H   0  0  0  0  0  0  0  0  0  0  0  0
    1.3781    0.2504   -1.1437 H   0  0  0  0  0  0  0  0  0  0  0  0
    1.5365    0.7756    1.8735 H   0  0  0  0  0  0  0  0  0  0  0  0
    1.2324    1.9631    0.6355 H   0  0  0  0  0  0  0  0  0  0  0  0
    3.3957    2.3284    1.1160 H   0  0  0  0  0  0  0  0  0  0  0  0
    4.3619    0.7859    2.4820 H   0  0  0  0  0  0  0  0  0  0  0  0
    3.8324   -0.6162    1.5674 H   0  0  0  0  0  0  0  0  0  0  0  0
    5.7028   -0.6094    0.2823 H   0  0  0  0  0  0  0  0  0  0  0  0
    6.3766    0.6630    1.3063 H   0  0  0  0  0  0  0  0  0  0  0  0
    5.9128    1.1072   -1.3509 H   0  0  0  0  0  0  0  0  0  0  0  0
    5.6421    2.3862   -0.1535 H   0  0  0  0  0  0  0  0  0  0  0  0
    3.5831    0.4524   -1.2934 H   0  0  0  0  0  0  0  0  0  0  0  0
    3.4957    2.2267   -1.2918 H   0  0  0  0  0  0  0  0  0  0  0  0
   -2.7635    0.7094   -2.9462 H   0  0  0  0  0  0  0  0  0  0  0  0
   -4.8887    0.7406   -4.2231 H   0  0  0  0  0  0  0  0  0  0  0  0
   -7.0564   -0.5577   -1.0008 H   0  0  0  0  0  0  0  0  0  0  0  0
   -6.7126   -1.8640    0.9042 H   0  0  0  0  0  0  0  0  0  0  0  0
   -6.8469   -0.1181    1.3502 H   0  0  0  0  0  0  0  0  0  0  0  0
   -6.0326   -1.2648    2.4217 H   0  0  0  0  0  0  0  0  0  0  0  0
  1  2  1  0
  2  3  1  0
  3  4  1  0
  4  5  1  0
  5  6  1  0
  6  7  1  0
  7  8  1  0
  8  9  1  0
  3 10  1  0
 10 11  2  0
 11 12  1  0
 12 13  1  0
 13 14  2  0
 14 15  1  0
 15 16  2  0
 16 17  1  0
 17 18  2  0
 18 19  1  0
 19 20  1  0
 12 21  2  0
 21 22  1  0
  9  5  1  0
 22 10  1  0
 18 13  1  0
  1 23  1  0
  1 24  1  0
  1 25  1  0
  2 26  1  0
  2 27  1  0
  3 28  1  0
  4 29  1  0
  4 30  1  0
  5 31  1  0
  6 32  1  0
  6 33  1  0
  7 34  1  0
  7 35  1  0
  8 36  1  0
  8 37  1  0
  9 38  1  0
  9 39  1  0
 14 40  1  0
 15 41  1  0
 17 42  1  0
 20 43  1  0
 20 44  1  0
 20 45  1  0
M  END
$$$$
OCNT-2317589
     RDKit          3D

 50 53  0  0  0  0  0  0  0  0999 V2000
    0.0912   -1.3540    0.1825 O   0  0  0  0  0  0  0  0  0  0  0  0
    0.1433   -0.8744   -0.9449 C   0  0  0  0  0  0  0  0  0  0  0  0
   -0.9725   -0.4980   -1.6476 N   0  0  0  0  0  0  0  0  0  0  0  0
   -2.3076   -0.7134   -1.1102 C   0  0  0  0  0  0  0  0  0  0  0  0
   -2.8888    0.5393   -0.4193 C   0  0  0  0  0  0  0  0  0  0  0  0
   -2.1339    0.9620    0.8447 C   0  0  0  0  0  0  0  0  0  0  0  0
   -2.4531    0.0037    1.9801 C   0  0  0  0  0  0  0  0  0  0  0  0
   -3.8417    0.0160    2.3234 O   0  0  0  0  0  0  0  0  0  0  0  0
   -4.7137    0.0450    1.2689 C   0  0  0  0  0  0  0  0  0  0  0  0
   -6.0554   -0.1620    1.5927 C   0  0  0  0  0  0  0  0  0  0  0  0
   -7.0334   -0.1248    0.5997 C   0  0  0  0  0  0  0  0  0  0  0  0
   -6.6714    0.1284   -0.7209 C   0  0  0  0  0  0  0  0  0  0  0  0
   -5.3319    0.3443   -1.0478 C   0  0  0  0  0  0  0  0  0  0  0  0
   -4.3389    0.3043   -0.0553 C   0  0  0  0  0  0  0  0  0  0  0  0
    1.3350   -0.6492   -1.6191 N   0  0  0  0  0  0  0  0  0  0  0  0
    1.5272    0.5266   -2.4761 C   0  0  0  0  0  0  0  0  0  0  0  0
    2.0460    1.6975   -1.6266 C   0  0  0  0  0  0  0  0  0  0  0  0
    3.2612    1.3501   -0.9409 O   0  0  0  0  0  0  0  0  0  0  0  0
    3.0773    0.1945   -0.0898 C   0  0  0  0  0  0  0  0  0  0  0  0
    4.3782   -0.0813    0.6248 C   0  0  0  0  0  0  0  0  0  0  0  0
    4.4529    0.0267    2.0234 C   0  0  0  0  0  0  0  0  0  0  0  0
    5.6517   -0.2282    2.6960 C   0  0  0  0  0  0  0  0  0  0  0  0
    6.7928   -0.5916    1.9819 C   0  0  0  0  0  0  0  0  0  0  0  0
    6.7350   -0.6975    0.5944 C   0  0  0  0  0  0  0  0  0  0  0  0
    5.5378   -0.4412   -0.0706 C   0  0  0  0  0  0  0  0  0  0  0  0
    5.5173   -0.5563   -1.4063 F   0  0  0  0  0  0  0  0  0  0  0  0
    2.5710   -1.0124   -0.9157 C   0  0  0  0  0  0  0  0  0  0  0  0
   -0.8740   -0.6373   -2.6432 H   0  0  0  0  0  0  0  0  0  0  0  0
   -2.9303   -0.9823   -1.9722 H   0  0  0  0  0  0  0  0  0  0  0  0
   -2.3063   -1.5854   -0.4469 H   0  0  0  0  0  0  0  0  0  0  0  0
   -2.8361    1.3809   -1.1239 H   0  0  0  0  0  0  0  0  0  0  0  0
   -2.4669    1.9688    1.1329 H   0  0  0  0  0  0  0  0  0  0  0  0
   -1.0557    1.0264    0.6746 H   0  0  0  0  0  0  0  0  0  0  0  0
   -1.9013    0.3089    2.8757 H   0  0  0  0  0  0  0  0  0  0  0  0
   -2.1538   -1.0263    1.7591 H   0  0  0  0  0  0  0  0  0  0  0  0
   -6.3372   -0.3516    2.6250 H   0  0  0  0  0  0  0  0  0  0  0  0
   -8.0755   -0.2891    0.8590 H   0  0  0  0  0  0  0  0  0  0  0  0
   -7.4332    0.1617   -1.4953 H   0  0  0  0  0  0  0  0  0  0  0  0
   -5.0680    0.5500   -2.0826 H   0  0  0  0  0  0  0  0  0  0  0  0
    0.6067    0.8168   -2.9882 H   0  0  0  0  0  0  0  0  0  0  0  0
    2.2704    0.2528   -3.2338 H   0  0  0  0  0  0  0  0  0  0  0  0
    1.3005    2.0111   -0.8863 H   0  0  0  0  0  0  0  0  0  0  0  0
    2.2633    2.5561   -2.2691 H   0  0  0  0  0  0  0  0  0  0  0  0
    2.3136    0.4638    0.6524 H   0  0  0  0  0  0  0  0  0  0  0  0
    3.5759    0.3131    2.6015 H   0  0  0  0  0  0  0  0  0  0  0  0
    5.6940   -0.1407    3.7791 H   0  0  0  0  0  0  0  0  0  0  0  0
    7.7246   -0.7888    2.5056 H   0  0  0  0  0  0  0  0  0  0  0  0
    7.6143   -0.9770    0.0229 H   0  0  0  0  0  0  0  0  0  0  0  0
    2.4101   -1.8875   -0.2756 H   0  0  0  0  0  0  0  0  0  0  0  0
    3.2893   -1.2983   -1.6919 H   0  0  0  0  0  0  0  0  0  0  0  0
  1  2  2  0
  2  3  1  0
  3  4  1  0
  4  5  1  0
  5  6  1  0
  6  7  1  0
  7  8  1  0
  8  9  1  0
  9 10  2  0
 10 11  1  0
 11 12  2  0
 12 13  1  0
 13 14  2  0
  2 15  1  0
 15 16  1  0
 16 17  1  0
 17 18  1  0
 18 19  1  0
 19 20  1  0
 20 21  2  0
 21 22  1  0
 22 23  2  0
 23 24  1  0
 24 25  2  0
 25 26  1  0
 19 27  1  0
 14  5  1  0
 27 15  1  0
 14  9  1  0
 25 20  1  0
  3 28  1  0
  4 29  1  0
  4 30  1  0
  5 31  1  0
  6 32  1  0
  6 33  1  0
  7 34  1  0
  7 35  1  0
 10 36  1  0
 11 37  1  0
 12 38  1  0
 13 39  1  0
 16 40  1  0
 16 41  1  0
 17 42  1  0
 17 43  1  0
 19 44  1  0
 21 45  1  0
 22 46  1  0
 23 47  1  0
 24 48  1  0
 27 49  1  0
 27 50  1  0
M  END
$$$$
OCNT-2317592
     RDKit          3D

 38 39  0  0  0  0  0  0  0  0999 V2000
   -3.7974    0.2685   -2.8896 O   0  0  0  0  0  0  0  0  0  0  0  0
   -3.2320    0.4231   -1.8064 C   0  0  0  0  0  0  0  0  0  0  0  0
   -1.8506   -0.1476   -1.5711 C   0  0  0  0  0  0  0  0  0  0  0  0
   -1.0306    0.4365   -0.4417 C   0  0  0  0  0  0  0  0  0  0  0  0
   -1.4186    1.4242    0.1865 O   0  0  0  0  0  0  0  0  0  0  0  0
    0.1702   -0.2029   -0.1401 N   0  0  0  0  0  0  0  0  0  0  0  0
    0.7058   -1.3424   -0.8876 C   0  0  0  0  0  0  0  0  0  0  0  0
    2.2155   -1.4737   -0.7349 C   0  0  0  0  0  0  0  0  0  0  0  0
    2.6345   -1.6054    0.7404 C   0  0  0  0  0  0  0  0  0  0  0  0
    4.0452   -1.1019    0.9224 C   0  0  0  0  0  0  0  0  0  0  0  0
    4.4069    0.1547    0.7620 N   0  0  0  0  0  0  0  0  0  0  0  0
    5.7599    0.2847    1.0029 C   0  0  0  0  0  0  0  0  0  0  0  0
    6.4164   -0.8754    1.3496 C   0  0  0  0  0  0  0  0  0  0  0  0
    5.3077   -2.1802    1.3785 S   0  0  0  0  0  0  0  0  0  0  0  0
    1.6722   -0.8766    1.6945 C   0  0  0  0  0  0  0  0  0  0  0  0
    0.9519    0.2737    1.0023 C   0  0  0  0  0  0  0  0  0  0  0  0
   -3.8521    1.0404   -0.7478 N   0  0  0  0  0  0  0  0  0  0  0  0
   -5.1383    1.7131   -0.9391 C   0  0  0  0  0  0  0  0  0  0  0  0
   -5.8315    2.1632    0.3431 C   0  0  0  0  0  0  0  0  0  0  0  0
   -6.9806    2.8207    0.0626 F   0  0  0  0  0  0  0  0  0  0  0  0
   -6.1433    1.1150    1.1383 F   0  0  0  0  0  0  0  0  0  0  0  0
   -5.0445    3.0021    1.0552 F   0  0  0  0  0  0  0  0  0  0  0  0
   -1.2877    0.0102   -2.4989 H   0  0  0  0  0  0  0  0  0  0  0  0
   -1.9801   -1.2221   -1.3986 H   0  0  0  0  0  0  0  0  0  0  0  0
    0.2029   -2.2417   -0.5139 H   0  0  0  0  0  0  0  0  0  0  0  0
    0.4574   -1.2423   -1.9478 H   0  0  0  0  0  0  0  0  0  0  0  0
    2.6867   -0.5959   -1.1976 H   0  0  0  0  0  0  0  0  0  0  0  0
    2.5747   -2.3452   -1.2970 H   0  0  0  0  0  0  0  0  0  0  0  0
    2.5999   -2.6706    1.0083 H   0  0  0  0  0  0  0  0  0  0  0  0
    6.2230    1.2600    0.9124 H   0  0  0  0  0  0  0  0  0  0  0  0
    7.4620   -1.0138    1.5845 H   0  0  0  0  0  0  0  0  0  0  0  0
    0.9174   -1.5937    2.0443 H   0  0  0  0  0  0  0  0  0  0  0  0
    2.1918   -0.5120    2.5892 H   0  0  0  0  0  0  0  0  0  0  0  0
    0.2978    0.7805    1.7202 H   0  0  0  0  0  0  0  0  0  0  0  0
    1.6634    1.0178    0.6282 H   0  0  0  0  0  0  0  0  0  0  0  0
   -3.2245    1.4344   -0.0407 H   0  0  0  0  0  0  0  0  0  0  0  0
   -4.9510    2.5824   -1.5796 H   0  0  0  0  0  0  0  0  0  0  0  0
   -5.8004    1.0382   -1.4931 H   0  0  0  0  0  0  0  0  0  0  0  0
  1  2  2  0
  2  3  1  0
  3  4  1  0
  4  5  2  0
  4  6  1  0
  6  7  1  0
  7  8  1  0
  8  9  1  0
  9 10  1  0
 10 11  2  0
 11 12  1  0
 12 13  2  0
 13 14  1  0
  9 15  1  0
 15 16  1  0
  2 17  1  0
 17 18  1  0
 18 19  1  0
 19 20  1  0
 19 21  1  0
 19 22  1  0
 16  6  1  0
 14 10  1  0
  3 23  1  0
  3 24  1  0
  7 25  1  0
  7 26  1  0
  8 27  1  0
  8 28  1  0
  9 29  1  0
 12 30  1  0
 13 31  1  0
 15 32  1  0
 15 33  1  0
 16 34  1  0
 16 35  1  0
 17 36  1  0
 18 37  1  0
 18 38  1  0
M  END
$$$$
OCNT-2317599
     RDKit          3D

 40 42  0  0  0  0  0  0  0  0999 V2000
   -4.8823    1.5200    1.7493 C   0  0  0  0  0  0  0  0  0  0  0  0
   -3.9582    0.7396    0.9615 N   0  0  0  0  0  0  0  0  0  0  0  0
   -2.6747    1.1352    0.8649 N   0  0  0  0  0  0  0  0  0  0  0  0
   -2.1094    0.1993    0.0813 C   0  0  0  0  0  0  0  0  0  0  0  0
   -0.6489    0.2854   -0.2633 C   0  0  0  0  0  0  0  0  0  0  0  0
    0.1278    0.2644    0.9871 N   0  0  0  0  0  0  0  0  0  0  0  0
    1.5028    0.7561    0.7929 C   0  0  0  0  0  0  0  0  0  0  0  0
    2.3894   -0.1157   -0.1331 C   0  0  1  0  0  0  0  0  0  0  0  0
    2.0352    0.0874   -1.5067 O   0  0  0  0  0  0  0  0  0  0  0  0
    3.8642    0.2010    0.0365 C   0  0  0  0  0  0  0  0  0  0  0  0
    4.7170   -0.7218    0.6619 C   0  0  0  0  0  0  0  0  0  0  0  0
    6.0747   -0.4348    0.8264 C   0  0  0  0  0  0  0  0  0  0  0  0
    6.5878    0.7769    0.3688 C   0  0  0  0  0  0  0  0  0  0  0  0
    8.2598    1.1283    0.5717 Cl  0  0  0  0  0  0  0  0  0  0  0  0
    5.7552    1.7060   -0.2507 C   0  0  0  0  0  0  0  0  0  0  0  0
    4.3981    1.4196   -0.4155 C   0  0  0  0  0  0  0  0  0  0  0  0
   -3.0499   -0.7857   -0.3296 C   0  0  0  0  0  0  0  0  0  0  0  0
   -3.0182   -1.9467   -1.1256 C   0  0  0  0  0  0  0  0  0  0  0  0
   -4.1961   -2.6819   -1.3052 C   0  0  0  0  0  0  0  0  0  0  0  0
   -5.3875   -2.2755   -0.7069 C   0  0  0  0  0  0  0  0  0  0  0  0
   -5.4407   -1.1264    0.0885 C   0  0  0  0  0  0  0  0  0  0  0  0
   -4.2519   -0.4022    0.2592 C   0  0  0  0  0  0  0  0  0  0  0  0
   -5.6067    1.9789    1.0722 H   0  0  0  0  0  0  0  0  0  0  0  0
   -5.3829    0.8564    2.4589 H   0  0  0  0  0  0  0  0  0  0  0  0
   -4.3361    2.2946    2.2940 H   0  0  0  0  0  0  0  0  0  0  0  0
   -0.3657   -0.5610   -0.8968 H   0  0  0  0  0  0  0  0  0  0  0  0
   -0.4847    1.2150   -0.8222 H   0  0  0  0  0  0  0  0  0  0  0  0
   -0.3610    0.9008    1.6248 H   0  0  0  0  0  0  0  0  0  0  0  0
    1.9608    0.7908    1.7889 H   0  0  0  0  0  0  0  0  0  0  0  0
    1.4677    1.7892    0.4241 H   0  0  0  0  0  0  0  0  0  0  0  0
    2.2164   -1.1765    0.0861 H   0  0  0  0  0  0  0  0  0  0  0  0
    2.7717   -0.2600   -2.0392 H   0  0  0  0  0  0  0  0  0  0  0  0
    4.3293   -1.6703    1.0301 H   0  0  0  0  0  0  0  0  0  0  0  0
    6.7236   -1.1583    1.3133 H   0  0  0  0  0  0  0  0  0  0  0  0
    6.1538    2.6526   -0.6062 H   0  0  0  0  0  0  0  0  0  0  0  0
    3.7546    2.1520   -0.9015 H   0  0  0  0  0  0  0  0  0  0  0  0
   -2.0948   -2.2735   -1.5942 H   0  0  0  0  0  0  0  0  0  0  0  0
   -4.1788   -3.5805   -1.9175 H   0  0  0  0  0  0  0  0  0  0  0  0
   -6.2910   -2.8625   -0.8593 H   0  0  0  0  0  0  0  0  0  0  0  0
   -6.3704   -0.8161    0.5535 H   0  0  0  0  0  0  0  0  0  0  0  0
  1  2  1  0
  2  3  1  0
  3  4  2  0
  4  5  1  0
  5  6  1  0
  6  7  1  0
  7  8  1  0
  8  9  1  0
  8 10  1  0
 10 11  1  0
 11 12  2  0
 12 13  1  0
 13 14  1  0
 13 15  2  0
 15 16  1  0
  4 17  1  0
 17 18  2  0
 18 19  1  0
 19 20  2  0
 20 21  1  0
 21 22  2  0
 22  2  1  0
 16 10  2  0
 22 17  1  0
  1 23  1  0
  1 24  1  0
  1 25  1  0
  5 26  1  0
  5 27  1  0
  6 28  1  0
  7 29  1  0
  7 30  1  0
  8 31  1  1
  9 32  1  0
 11 33  1  0
 12 34  1  0
 15 35  1  0
 16 36  1  0
 18 37  1  0
 19 38  1  0
 20 39  1  0
 21 40  1  0
M  END
$$$$
OCNT-2317600
     RDKit          3D

 57 59  0  0  0  0  0  0  0  0999 V2000
    8.0272   -1.4414    1.3696 C   0  0  0  0  0  0  0  0  0  0  0  0
    7.5332   -0.6706    0.2556 N   0  0  0  0  0  0  0  0  0  0  0  0
    6.5029   -1.1497   -0.5376 C   0  0  0  0  0  0  0  0  0  0  0  0
    6.0210   -2.2700   -0.3945 O   0  0  0  0  0  0  0  0  0  0  0  0
    6.0475   -0.1506   -1.6125 C   0  0  0  0  0  0  0  0  0  0  0  0
    4.8644   -0.5185   -2.3139 O   0  0  0  0  0  0  0  0  0  0  0  0
    3.7523   -0.0334   -1.6858 C   0  0  0  0  0  0  0  0  0  0  0  0
    3.2846    1.2414   -1.9914 C   0  0  0  0  0  0  0  0  0  0  0  0
    2.1301    1.7265   -1.3686 C   0  0  0  0  0  0  0  0  0  0  0  0
    1.4377    0.9365   -0.4467 C   0  0  0  0  0  0  0  0  0  0  0  0
    0.2592    1.3423    0.2139 N   0  0  0  0  0  0  0  0  0  0  0  0
   -0.3194    2.5894    0.2200 C   0  0  0  0  0  0  0  0  0  0  0  0
    0.2094    3.5922   -0.2534 O   0  0  0  0  0  0  0  0  0  0  0  0
   -1.5845    2.6510    0.8131 N   0  0  0  0  0  0  0  0  0  0  0  0
   -2.2164    3.9631    0.8905 C   0  0  0  0  0  0  0  0  0  0  0  0
   -2.4500    1.5094    1.1930 C   0  0  0  0  0  0  0  0  0  0  0  0
   -1.9863    0.8274    2.4930 C   0  0  0  0  0  0  0  0  0  0  0  0
   -2.1338   -0.6888    2.4377 C   0  0  0  0  0  0  0  0  0  0  0  0
   -3.4734   -1.1049    1.8326 C   0  0  0  0  0  0  0  0  0  0  0  0
   -3.6575   -0.5419    0.4889 N   0  0  0  0  0  0  0  0  0  0  0  0
   -4.4425   -1.2405   -0.4261 C   0  0  0  0  0  0  0  0  0  0  0  0
   -5.5414   -2.0108   -0.0050 C   0  0  0  0  0  0  0  0  0  0  0  0
   -6.3470   -2.7142   -0.9083 C   0  0  0  0  0  0  0  0  0  0  0  0
   -6.0742   -2.6630   -2.2691 C   0  0  0  0  0  0  0  0  0  0  0  0
   -5.0006   -1.9065   -2.7207 C   0  0  0  0  0  0  0  0  0  0  0  0
   -4.2010   -1.2046   -1.8093 C   0  0  0  0  0  0  0  0  0  0  0  0
   -2.7449    0.5182    0.0386 C   0  0  0  0  0  0  0  0  0  0  0  0
    1.9049   -0.3581   -0.1756 C   0  0  0  0  0  0  0  0  0  0  0  0
    3.0547   -0.8460   -0.8001 C   0  0  0  0  0  0  0  0  0  0  0  0
    8.0504   -2.5063    1.1206 H   0  0  0  0  0  0  0  0  0  0  0  0
    7.3645   -1.2795    2.2249 H   0  0  0  0  0  0  0  0  0  0  0  0
    9.0346   -1.0941    1.6116 H   0  0  0  0  0  0  0  0  0  0  0  0
    7.7506    0.3163    0.2268 H   0  0  0  0  0  0  0  0  0  0  0  0
    5.9657    0.8513   -1.1680 H   0  0  0  0  0  0  0  0  0  0  0  0
    6.8520   -0.1038   -2.3563 H   0  0  0  0  0  0  0  0  0  0  0  0
    3.8060    1.8586   -2.7172 H   0  0  0  0  0  0  0  0  0  0  0  0
    1.7907    2.7229   -1.6336 H   0  0  0  0  0  0  0  0  0  0  0  0
   -0.1093    0.6770    0.8695 H   0  0  0  0  0  0  0  0  0  0  0  0
   -1.5085    4.7804    0.7281 H   0  0  0  0  0  0  0  0  0  0  0  0
   -2.6566    4.0868    1.8852 H   0  0  0  0  0  0  0  0  0  0  0  0
   -3.0021    4.0171    0.1302 H   0  0  0  0  0  0  0  0  0  0  0  0
   -3.4296    1.9488    1.4374 H   0  0  0  0  0  0  0  0  0  0  0  0
   -2.5966    1.2131    3.3204 H   0  0  0  0  0  0  0  0  0  0  0  0
   -0.9552    1.0877    2.7566 H   0  0  0  0  0  0  0  0  0  0  0  0
   -2.0373   -1.1038    3.4474 H   0  0  0  0  0  0  0  0  0  0  0  0
   -1.3156   -1.1141    1.8434 H   0  0  0  0  0  0  0  0  0  0  0  0
   -3.4939   -2.2013    1.8061 H   0  0  0  0  0  0  0  0  0  0  0  0
   -4.2907   -0.7669    2.4807 H   0  0  0  0  0  0  0  0  0  0  0  0
   -5.8075   -2.0590    1.0472 H   0  0  0  0  0  0  0  0  0  0  0  0
   -7.1893   -3.2945   -0.5429 H   0  0  0  0  0  0  0  0  0  0  0  0
   -6.6955   -3.2074   -2.9736 H   0  0  0  0  0  0  0  0  0  0  0  0
   -4.7745   -1.8607   -3.7828 H   0  0  0  0  0  0  0  0  0  0  0  0
   -3.3627   -0.6450   -2.2144 H   0  0  0  0  0  0  0  0  0  0  0  0
   -1.8346    0.0572   -0.3558 H   0  0  0  0  0  0  0  0  0  0  0  0
   -3.1946    1.0996   -0.7764 H   0  0  0  0  0  0  0  0  0  0  0  0
    1.3793   -1.0096    0.5170 H   0  0  0  0  0  0  0  0  0  0  0  0
    3.4039   -1.8547   -0.5930 H   0  0  0  0  0  0  0  0  0  0  0  0
  1  2  1  0
  2  3  1  0
  3  4  2  0
  3  5  1  0
  5  6  1  0
  6  7  1  0
  7  8  1  0
  8  9  2  0
  9 10  1  0
 10 11  1  0
 11 12  1  0
 12 13  2  0
 12 14  1  0
 14 15  1  0
 14 16  1  0
 16 17  1  0
 17 18  1  0
 18 19  1  0
 19 20  1  0
 20 21  1  0
 21 22  2  0
 22 23  1  0
 23 24  2  0
 24 25  1  0
 25 26  2  0
 20 27  1  0
 10 28  2  0
 28 29  1  0
 29  7  2  0
 27 16  1  0
 26 21  1  0
  1 30  1  0
  1 31  1  0
  1 32  1  0
  2 33  1  0
  5 34  1  0
  5 35  1  0
  8 36  1  0
  9 37  1  0
 11 38  1  0
 15 39  1  0
 15 40  1  0
 15 41  1  0
 16 42  1  0
 17 43  1  0
 17 44  1  0
 18 45  1  0
 18 46  1  0
 19 47  1  0
 19 48  1  0
 22 49  1  0
 23 50  1  0
 24 51  1  0
 25 52  1  0
 26 53  1  0
 27 54  1  0
 27 55  1  0
 28 56  1  0
 29 57  1  0
M  END
$$$$
OCNT-2317602
     RDKit          3D

 52 55  0  0  0  0  0  0  0  0999 V2000
   -7.5278   -1.6741   -1.3108 C   0  0  0  0  0  0  0  0  0  0  0  0
   -6.1342   -1.6906   -0.8751 N   0  0  0  0  0  0  0  0  0  0  0  0
   -5.9713   -0.9126    0.3685 C   0  0  0  0  0  0  0  0  0  0  0  0
   -4.5257   -0.4457    0.6188 C   0  0  0  0  0  0  0  0  0  0  0  0
   -4.0245    0.3868   -0.4792 N   0  0  0  0  0  0  0  0  0  0  0  0
   -3.0393    1.3595   -0.3576 C   0  0  0  0  0  0  0  0  0  0  0  0
   -2.7789    2.1234   -1.2880 O   0  0  0  0  0  0  0  0  0  0  0  0
   -2.3341    1.4506    0.9924 C   0  0  0  0  0  0  0  0  0  0  0  0
   -1.0044    2.1685    0.9518 C   0  0  0  0  0  0  0  0  0  0  0  0
   -0.9398    3.5579    1.1146 C   0  0  0  0  0  0  0  0  0  0  0  0
    0.2890    4.2125    1.0680 C   0  0  0  0  0  0  0  0  0  0  0  0
    1.4610    3.4850    0.8523 C   0  0  0  0  0  0  0  0  0  0  0  0
    1.4161    2.0983    0.6749 C   0  0  0  0  0  0  0  0  0  0  0  0
    2.6368    1.4418    0.4535 N   0  0  0  0  0  0  0  0  0  0  0  0
    2.8763    0.0931    0.2877 C   0  0  0  0  0  0  0  0  0  0  0  0
    2.0491   -0.8114    0.3162 O   0  0  0  0  0  0  0  0  0  0  0  0
    4.3106   -0.1786    0.0664 C   0  0  0  0  0  0  0  0  0  0  0  0
    5.2331    0.8124    0.0761 N   0  0  0  0  0  0  0  0  0  0  0  0
    6.3934    0.1734   -0.1651 N   0  0  0  0  0  0  0  0  0  0  0  0
    6.2502   -1.1713   -0.3202 C   0  0  0  0  0  0  0  0  0  0  0  0
    7.3788   -2.1804   -0.6179 C   0  0  0  0  0  0  0  0  0  0  0  0
    7.5057   -3.4151    0.2332 C   0  0  0  0  0  0  0  0  0  0  0  0
    8.5099   -2.3080    0.3674 C   0  0  0  0  0  0  0  0  0  0  0  0
    4.9135   -1.4400   -0.1832 C   0  0  0  0  0  0  0  0  0  0  0  0
    0.1810    1.4475    0.7231 C   0  0  0  0  0  0  0  0  0  0  0  0
   -4.6703    0.1911   -1.7782 C   0  0  0  0  0  0  0  0  0  0  0  0
   -5.2218   -1.2370   -1.9449 C   0  0  0  0  0  0  0  0  0  0  0  0
   -8.1896   -2.0285   -0.5117 H   0  0  0  0  0  0  0  0  0  0  0  0
   -7.6742   -2.3465   -2.1640 H   0  0  0  0  0  0  0  0  0  0  0  0
   -7.8508   -0.6685   -1.6033 H   0  0  0  0  0  0  0  0  0  0  0  0
   -6.3049   -1.5234    1.2148 H   0  0  0  0  0  0  0  0  0  0  0  0
   -6.6086   -0.0187    0.3443 H   0  0  0  0  0  0  0  0  0  0  0  0
   -3.8548   -1.3076    0.7092 H   0  0  0  0  0  0  0  0  0  0  0  0
   -4.4831    0.1165    1.5568 H   0  0  0  0  0  0  0  0  0  0  0  0
   -3.0048    1.9672    1.6897 H   0  0  0  0  0  0  0  0  0  0  0  0
   -2.1654    0.4443    1.3938 H   0  0  0  0  0  0  0  0  0  0  0  0
   -1.8475    4.1371    1.2657 H   0  0  0  0  0  0  0  0  0  0  0  0
    0.3332    5.2925    1.1874 H   0  0  0  0  0  0  0  0  0  0  0  0
    2.4066    4.0204    0.8136 H   0  0  0  0  0  0  0  0  0  0  0  0
    3.4818    2.0055    0.4062 H   0  0  0  0  0  0  0  0  0  0  0  0
    7.2501    0.7169   -0.2025 H   0  0  0  0  0  0  0  0  0  0  0  0
    7.6268   -2.2817   -1.6705 H   0  0  0  0  0  0  0  0  0  0  0  0
    7.8181   -4.3326   -0.2525 H   0  0  0  0  0  0  0  0  0  0  0  0
    6.8032   -3.5664    1.0461 H   0  0  0  0  0  0  0  0  0  0  0  0
    8.4858   -1.7203    1.2777 H   0  0  0  0  0  0  0  0  0  0  0  0
    9.5067   -2.4833   -0.0182 H   0  0  0  0  0  0  0  0  0  0  0  0
    4.4180   -2.3986   -0.2457 H   0  0  0  0  0  0  0  0  0  0  0  0
    0.1108    0.3747    0.5718 H   0  0  0  0  0  0  0  0  0  0  0  0
   -3.9575    0.4061   -2.5803 H   0  0  0  0  0  0  0  0  0  0  0  0
   -5.4814    0.9251   -1.8534 H   0  0  0  0  0  0  0  0  0  0  0  0
   -5.6815   -1.3403   -2.9351 H   0  0  0  0  0  0  0  0  0  0  0  0
   -4.3692   -1.9270   -1.9431 H   0  0  0  0  0  0  0  0  0  0  0  0
  1  2  1  0
  2  3  1  0
  3  4  1  0
  4  5  1  0
  5  6  1  0
  6  7  2  0
  6  8  1  0
  8  9  1  0
  9 10  2  0
 10 11  1  0
 11 12  2  0
 12 13  1  0
 13 14  1  0
 14 15  1  0
 15 16  2  0
 15 17  1  0
 17 18  2  0
 18 19  1  0
 19 20  1  0
 20 21  1  0
 21 22  1  0
 22 23  1  0
 20 24  2  0
 13 25  2  0
  5 26  1  0
 26 27  1  0
 27  2  1  0
 25  9  1  0
 24 17  1  0
 23 21  1  0
  1 28  1  0
  1 29  1  0
  1 30  1  0
  3 31  1  0
  3 32  1  0
  4 33  1  0
  4 34  1  0
  8 35  1  0
  8 36  1  0
 10 37  1  0
 11 38  1  0
 12 39  1  0
 14 40  1  0
 19 41  1  0
 21 42  1  0
 22 43  1  0
 22 44  1  0
 23 45  1  0
 23 46  1  0
 24 47  1  0
 25 48  1  0
 26 49  1  0
 26 50  1  0
 27 51  1  0
 27 52  1  0
M  END
$$$$
OCNT-2317611
     RDKit          3D

 63 66  0  0  0  0  0  0  0  0999 V2000
    8.9403   -0.8667   -3.0599 C   0  0  0  0  0  0  0  0  0  0  0  0
    9.3438   -1.0400   -1.5997 C   0  0  0  0  0  0  0  0  0  0  0  0
    8.2032   -1.5565   -0.7282 C   0  0  0  0  0  0  0  0  0  0  0  0
    7.1183   -0.5244   -0.4491 C   0  0  0  0  0  0  0  0  0  0  0  0
    7.2122    0.6418   -0.8155 O   0  0  0  0  0  0  0  0  0  0  0  0
    6.0703   -1.0853    0.2709 N   0  0  0  0  0  0  0  0  0  0  0  0
    4.9102   -0.4406    0.7484 C   0  0  0  0  0  0  0  0  0  0  0  0
    4.0063   -1.2161    1.4802 C   0  0  0  0  0  0  0  0  0  0  0  0
    2.8466   -0.6491    2.0174 C   0  0  0  0  0  0  0  0  0  0  0  0
    2.5606    0.7072    1.8219 C   0  0  0  0  0  0  0  0  0  0  0  0
    1.3570    1.3516    2.4628 C   0  0  0  0  0  0  0  0  0  0  0  0
    0.1579    0.5694    2.2933 N   0  0  0  0  0  0  0  0  0  0  0  0
   -0.9449    0.7928    3.0851 C   0  0  0  0  0  0  0  0  0  0  0  0
   -0.9300    1.5000    4.0854 O   0  0  0  0  0  0  0  0  0  0  0  0
   -2.1831    0.0010    2.6480 C   0  0  0  0  0  0  0  0  0  0  0  0
   -2.2809   -0.0382    1.1634 N   0  0  0  0  0  0  0  0  0  0  0  0
   -2.8072    1.2388    0.6269 C   0  0  0  0  0  0  0  0  0  0  0  0
   -4.3160    1.1649    0.8041 C   0  0  0  0  0  0  0  0  0  0  0  0
   -5.1671    1.7566   -0.3111 C   0  0  0  0  0  0  0  0  0  0  0  0
   -6.2848    0.8100   -0.3567 N   0  0  0  0  0  0  0  0  0  0  0  0
   -7.2109    1.0018   -1.4667 C   0  0  0  0  0  0  0  0  0  0  0  0
   -6.6921    0.5259   -2.8224 C   0  0  0  0  0  0  0  0  0  0  0  0
   -6.2036   -0.9158   -2.7337 C   0  0  0  0  0  0  0  0  0  0  0  0
   -5.1577   -1.0458   -1.6341 C   0  0  0  0  0  0  0  0  0  0  0  0
   -5.6899   -0.5360   -0.2821 C   0  0  0  0  0  0  0  0  0  0  0  0
   -4.6386   -0.3326    0.8205 C   0  0  0  0  0  0  0  0  0  0  0  0
   -3.2869   -1.0333    0.7294 C   0  0  0  0  0  0  0  0  0  0  0  0
    3.4661    1.4790    1.0854 C   0  0  0  0  0  0  0  0  0  0  0  0
    4.6270    0.9107    0.5475 C   0  0  0  0  0  0  0  0  0  0  0  0
    8.5825   -1.8115   -3.4856 H   0  0  0  0  0  0  0  0  0  0  0  0
    9.8021   -0.5325   -3.6491 H   0  0  0  0  0  0  0  0  0  0  0  0
    8.1463   -0.1149   -3.1724 H   0  0  0  0  0  0  0  0  0  0  0  0
    9.7201   -0.0851   -1.2163 H   0  0  0  0  0  0  0  0  0  0  0  0
   10.1774   -1.7533   -1.5545 H   0  0  0  0  0  0  0  0  0  0  0  0
    8.6209   -1.8468    0.2416 H   0  0  0  0  0  0  0  0  0  0  0  0
    7.7461   -2.4420   -1.1859 H   0  0  0  0  0  0  0  0  0  0  0  0
    6.1610   -2.0623    0.5186 H   0  0  0  0  0  0  0  0  0  0  0  0
    4.1892   -2.2702    1.6550 H   0  0  0  0  0  0  0  0  0  0  0  0
    2.1739   -1.2731    2.6033 H   0  0  0  0  0  0  0  0  0  0  0  0
    1.1567    2.3314    2.0157 H   0  0  0  0  0  0  0  0  0  0  0  0
    1.5555    1.5083    3.5301 H   0  0  0  0  0  0  0  0  0  0  0  0
   -0.0766    0.2422    1.3561 H   0  0  0  0  0  0  0  0  0  0  0  0
   -3.0676    0.4406    3.1207 H   0  0  0  0  0  0  0  0  0  0  0  0
   -2.0464   -1.0147    3.0440 H   0  0  0  0  0  0  0  0  0  0  0  0
   -2.5365    1.3052   -0.4383 H   0  0  0  0  0  0  0  0  0  0  0  0
   -2.3783    2.1233    1.1095 H   0  0  0  0  0  0  0  0  0  0  0  0
   -4.6039    1.6041    1.7708 H   0  0  0  0  0  0  0  0  0  0  0  0
   -5.5074    2.7687   -0.0592 H   0  0  0  0  0  0  0  0  0  0  0  0
   -4.6176    1.8047   -1.2594 H   0  0  0  0  0  0  0  0  0  0  0  0
   -8.1304    0.4457   -1.2345 H   0  0  0  0  0  0  0  0  0  0  0  0
   -7.5188    2.0540   -1.5257 H   0  0  0  0  0  0  0  0  0  0  0  0
   -7.4892    0.5997   -3.5703 H   0  0  0  0  0  0  0  0  0  0  0  0
   -5.8823    1.1790   -3.1628 H   0  0  0  0  0  0  0  0  0  0  0  0
   -5.7775   -1.2227   -3.6923 H   0  0  0  0  0  0  0  0  0  0  0  0
   -7.0428   -1.5848   -2.5219 H   0  0  0  0  0  0  0  0  0  0  0  0
   -4.2654   -0.4837   -1.9411 H   0  0  0  0  0  0  0  0  0  0  0  0
   -4.8608   -2.0980   -1.5412 H   0  0  0  0  0  0  0  0  0  0  0  0
   -6.4525   -1.2433    0.0750 H   0  0  0  0  0  0  0  0  0  0  0  0
   -5.0961   -0.5606    1.7962 H   0  0  0  0  0  0  0  0  0  0  0  0
   -3.2651   -1.9555    1.3189 H   0  0  0  0  0  0  0  0  0  0  0  0
   -3.0249   -1.3234   -0.2923 H   0  0  0  0  0  0  0  0  0  0  0  0
    3.2849    2.5405    0.9210 H   0  0  0  0  0  0  0  0  0  0  0  0
    5.2974    1.5599   -0.0054 H   0  0  0  0  0  0  0  0  0  0  0  0
  1  2  1  0
  2  3  1  0
  3  4  1  0
  4  5  2  0
  4  6  1  0
  6  7  1  0
  7  8  1  0
  8  9  2  0
  9 10  1  0
 10 11  1  0
 11 12  1  0
 12 13  1  0
 13 14  2  0
 13 15  1  0
 15 16  1  0
 16 17  1  0
 17 18  1  0
 18 19  1  0
 19 20  1  0
 20 21  1  0
 21 22  1  0
 22 23  1  0
 23 24  1  0
 24 25  1  0
 25 26  1  0
 26 27  1  0
 10 28  2  0
 28 29  1  0
 29  7  2  0
 27 16  1  0
 26 18  1  0
 25 20  1  0
  1 30  1  0
  1 31  1  0
  1 32  1  0
  2 33  1  0
  2 34  1  0
  3 35  1  0
  3 36  1  0
  6 37  1  0
  8 38  1  0
  9 39  1  0
 11 40  1  0
 11 41  1  0
 12 42  1  0
 15 43  1  0
 15 44  1  0
 17 45  1  0
 17 46  1  0
 18 47  1  0
 19 48  1  0
 19 49  1  0
 21 50  1  0
 21 51  1  0
 22 52  1  0
 22 53  1  0
 23 54  1  0
 23 55  1  0
 24 56  1  0
 24 57  1  0
 25 58  1  0
 26 59  1  0
 27 60  1  0
 27 61  1  0
 28 62  1  0
 29 63  1  0
M  END
$$$$
OCNT-2317626
     RDKit          3D

 54 57  0  0  0  0  0  0  0  0999 V2000
   -0.4122   -1.6611   -2.0790 O   0  0  0  0  0  0  0  0  0  0  0  0
   -0.1936   -2.0992   -0.9557 C   0  0  0  0  0  0  0  0  0  0  0  0
   -1.2420   -2.2167    0.1443 C   0  0  0  0  0  0  0  0  0  0  0  0
   -2.3798   -1.1512    0.1146 C   0  0  0  0  0  0  0  0  0  0  0  0
   -1.8580    0.2464    0.0739 N   0  0  0  0  0  0  0  0  0  0  0  0
   -0.7963    0.5585    1.0582 C   0  0  0  0  0  0  0  0  0  0  0  0
   -0.2298    1.9758    0.8562 C   0  0  0  0  0  0  0  0  0  0  0  0
   -1.2582    2.9675    0.9523 O   0  0  0  0  0  0  0  0  0  0  0  0
   -2.2555    2.7123   -0.0441 C   0  0  0  0  0  0  0  0  0  0  0  0
   -2.8788    1.3185    0.1447 C   0  0  0  0  0  0  0  0  0  0  0  0
   -3.3042   -1.4530   -1.1137 C   0  0  0  0  0  0  0  0  0  0  0  0
   -4.6116   -2.0056   -0.5548 C   0  0  0  0  0  0  0  0  0  0  0  0
   -4.7351   -1.3708    0.8139 C   0  0  0  0  0  0  0  0  0  0  0  0
   -3.3091   -1.4216    1.3415 C   0  0  0  0  0  0  0  0  0  0  0  0
    1.0346   -2.6090   -0.5776 N   0  0  0  0  0  0  0  0  0  0  0  0
    2.2094   -2.4179   -1.3984 C   0  0  0  0  0  0  0  0  0  0  0  0
    3.0178   -1.2539   -0.8831 C   0  0  0  0  0  0  0  0  0  0  0  0
    4.1060   -1.4598   -0.0214 C   0  0  0  0  0  0  0  0  0  0  0  0
    4.8276   -0.3736    0.4802 C   0  0  0  0  0  0  0  0  0  0  0  0
    4.4655    0.9245    0.1285 C   0  0  0  0  0  0  0  0  0  0  0  0
    5.2281    1.9396    0.6472 O   0  0  0  0  0  0  0  0  0  0  0  0
    4.9844    3.1748   -0.0366 C   0  0  0  0  0  0  0  0  0  0  0  0
    3.4929    3.4032   -0.2177 C   0  0  0  0  0  0  0  0  0  0  0  0
    2.9262    2.3921   -1.0581 O   0  0  0  0  0  0  0  0  0  0  0  0
    3.3640    1.1420   -0.7034 C   0  0  0  0  0  0  0  0  0  0  0  0
    2.6517    0.0595   -1.2172 C   0  0  0  0  0  0  0  0  0  0  0  0
   -1.6717   -3.2236    0.0489 H   0  0  0  0  0  0  0  0  0  0  0  0
   -0.7437   -2.1947    1.1221 H   0  0  0  0  0  0  0  0  0  0  0  0
    0.0481   -0.1297    0.9704 H   0  0  0  0  0  0  0  0  0  0  0  0
   -1.1941    0.4765    2.0767 H   0  0  0  0  0  0  0  0  0  0  0  0
    0.2683    2.0671   -0.1157 H   0  0  0  0  0  0  0  0  0  0  0  0
    0.5121    2.1915    1.6317 H   0  0  0  0  0  0  0  0  0  0  0  0
   -3.0291    3.4798    0.0610 H   0  0  0  0  0  0  0  0  0  0  0  0
   -1.8133    2.8205   -1.0420 H   0  0  0  0  0  0  0  0  0  0  0  0
   -3.6468    1.1994   -0.6237 H   0  0  0  0  0  0  0  0  0  0  0  0
   -3.3742    1.3025    1.1226 H   0  0  0  0  0  0  0  0  0  0  0  0
   -3.5114   -0.5600   -1.7117 H   0  0  0  0  0  0  0  0  0  0  0  0
   -2.8721   -2.1748   -1.8149 H   0  0  0  0  0  0  0  0  0  0  0  0
   -5.4656   -1.7764   -1.1988 H   0  0  0  0  0  0  0  0  0  0  0  0
   -4.5437   -3.0960   -0.4593 H   0  0  0  0  0  0  0  0  0  0  0  0
   -5.4308   -1.9151    1.4593 H   0  0  0  0  0  0  0  0  0  0  0  0
   -5.0912   -0.3391    0.7304 H   0  0  0  0  0  0  0  0  0  0  0  0
   -3.1639   -0.7239    2.1718 H   0  0  0  0  0  0  0  0  0  0  0  0
   -3.1237   -2.4219    1.7550 H   0  0  0  0  0  0  0  0  0  0  0  0
    1.1900   -2.8262    0.3963 H   0  0  0  0  0  0  0  0  0  0  0  0
    2.7954   -3.3420   -1.3482 H   0  0  0  0  0  0  0  0  0  0  0  0
    1.9384   -2.2595   -2.4480 H   0  0  0  0  0  0  0  0  0  0  0  0
    4.4023   -2.4673    0.2622 H   0  0  0  0  0  0  0  0  0  0  0  0
    5.6767   -0.5393    1.1375 H   0  0  0  0  0  0  0  0  0  0  0  0
    5.4199    3.9783    0.5656 H   0  0  0  0  0  0  0  0  0  0  0  0
    5.5070    3.1485   -1.0009 H   0  0  0  0  0  0  0  0  0  0  0  0
    2.9652    3.3931    0.7441 H   0  0  0  0  0  0  0  0  0  0  0  0
    3.3129    4.3712   -0.6956 H   0  0  0  0  0  0  0  0  0  0  0  0
    1.7949    0.2400   -1.8653 H   0  0  0  0  0  0  0  0  0  0  0  0
  1  2  2  0
  2  3  1  0
  3  4  1  0
  4  5  1  0
  5  6  1  0
  6  7  1  0
  7  8  1  0
  8  9  1  0
  9 10  1  0
  4 11  1  0
 11 12  1  0
 12 13  1  0
 13 14  1  0
  2 15  1  0
 15 16  1  0
 16 17  1  0
 17 18  1  0
 18 19  2  0
 19 20  1  0
 20 21  1  0
 21 22  1  0
 22 23  1  0
 23 24  1  0
 24 25  1  0
 25 26  1  0
 14  4  1  0
 26 17  2  0
 10  5  1  0
 25 20  2  0
  3 27  1  0
  3 28  1  0
  6 29  1  0
  6 30  1  0
  7 31  1  0
  7 32  1  0
  9 33  1  0
  9 34  1  0
 10 35  1  0
 10 36  1  0
 11 37  1  0
 11 38  1  0
 12 39  1  0
 12 40  1  0
 13 41  1  0
 13 42  1  0
 14 43  1  0
 14 44  1  0
 15 45  1  0
 16 46  1  0
 16 47  1  0
 18 48  1  0
 19 49  1  0
 22 50  1  0
 22 51  1  0
 23 52  1  0
 23 53  1  0
 26 54  1  0
M  END
$$$$
OCNT-2317634
     RDKit          3D

 56 59  0  0  0  0  0  0  0  0999 V2000
   -0.8320   -1.4647   -2.5712 C   0  0  0  0  0  0  0  0  0  0  0  0
   -1.3219   -1.4519   -1.2357 O   0  0  0  0  0  0  0  0  0  0  0  0
   -2.5995   -1.8998   -1.0257 C   0  0  0  0  0  0  0  0  0  0  0  0
   -3.4680   -2.3289   -2.0346 C   0  0  0  0  0  0  0  0  0  0  0  0
   -4.7535   -2.7765   -1.7204 C   0  0  0  0  0  0  0  0  0  0  0  0
   -5.1814   -2.8008   -0.3971 C   0  0  0  0  0  0  0  0  0  0  0  0
   -4.3254   -2.3742    0.6159 C   0  0  0  0  0  0  0  0  0  0  0  0
   -3.0317   -1.9155    0.3147 C   0  0  0  0  0  0  0  0  0  0  0  0
   -2.1316   -1.4512    1.4416 C   0  0  0  0  0  0  0  0  0  0  0  0
   -1.9319    0.0816    1.4805 C   0  0  0  0  0  0  0  0  0  0  0  0
   -3.1882    0.8314    1.9486 C   0  0  0  0  0  0  0  0  0  0  0  0
   -3.0660    0.8124    3.4674 C   0  0  0  0  0  0  0  0  0  0  0  0
   -1.5727    0.9900    3.6939 C   0  0  0  0  0  0  0  0  0  0  0  0
   -0.9361    0.4664    2.4947 N   0  0  0  0  0  0  0  0  0  0  0  0
    0.4418    0.4326    2.4065 C   0  0  0  0  0  0  0  0  0  0  0  0
    1.1443    0.7554    3.3659 O   0  0  0  0  0  0  0  0  0  0  0  0
    1.0586    0.0767    1.0538 C   0  0  0  0  0  0  0  0  0  0  0  0
    2.4737   -0.5041    1.2080 C   0  0  0  0  0  0  0  0  0  0  0  0
    3.3020   -0.2642   -0.0499 C   0  0  0  0  0  0  0  0  0  0  0  0
    3.4622    1.1742   -0.2658 N   0  0  0  0  0  0  0  0  0  0  0  0
    4.2988    1.5503   -1.3109 C   0  0  0  0  0  0  0  0  0  0  0  0
    4.7104    2.8763   -1.5054 C   0  0  0  0  0  0  0  0  0  0  0  0
    5.5295    3.2957   -2.5077 N   0  0  0  0  0  0  0  0  0  0  0  0
    5.9608    2.3193   -3.3266 C   0  0  0  0  0  0  0  0  0  0  0  0
    5.5899    1.0009   -3.1509 C   0  0  0  0  0  0  0  0  0  0  0  0
    4.7665    0.5980   -2.1546 N   0  0  0  0  0  0  0  0  0  0  0  0
    2.3733    2.0598    0.1507 C   0  0  0  0  0  0  0  0  0  0  0  0
    1.0386    1.3148    0.1406 C   0  0  0  0  0  0  0  0  0  0  0  0
    0.2019   -1.1066   -2.5503 H   0  0  0  0  0  0  0  0  0  0  0  0
   -1.4073   -0.7835   -3.2071 H   0  0  0  0  0  0  0  0  0  0  0  0
   -0.8236   -2.4800   -2.9804 H   0  0  0  0  0  0  0  0  0  0  0  0
   -3.1760   -2.3302   -3.0793 H   0  0  0  0  0  0  0  0  0  0  0  0
   -5.4204   -3.1098   -2.5118 H   0  0  0  0  0  0  0  0  0  0  0  0
   -6.1803   -3.1535   -0.1534 H   0  0  0  0  0  0  0  0  0  0  0  0
   -4.6737   -2.4010    1.6465 H   0  0  0  0  0  0  0  0  0  0  0  0
   -1.1689   -1.9677    1.3438 H   0  0  0  0  0  0  0  0  0  0  0  0
   -2.5273   -1.8057    2.4024 H   0  0  0  0  0  0  0  0  0  0  0  0
   -1.6190    0.4563    0.5022 H   0  0  0  0  0  0  0  0  0  0  0  0
   -4.1289    0.4030    1.5950 H   0  0  0  0  0  0  0  0  0  0  0  0
   -3.1444    1.8708    1.5986 H   0  0  0  0  0  0  0  0  0  0  0  0
   -3.6577    1.5940    3.9519 H   0  0  0  0  0  0  0  0  0  0  0  0
   -3.3977   -0.1548    3.8618 H   0  0  0  0  0  0  0  0  0  0  0  0
   -1.2164    0.4600    4.5828 H   0  0  0  0  0  0  0  0  0  0  0  0
   -1.3062    2.0492    3.7836 H   0  0  0  0  0  0  0  0  0  0  0  0
    0.4487   -0.6991    0.5862 H   0  0  0  0  0  0  0  0  0  0  0  0
    2.9995   -0.0674    2.0656 H   0  0  0  0  0  0  0  0  0  0  0  0
    2.4036   -1.5798    1.4091 H   0  0  0  0  0  0  0  0  0  0  0  0
    4.2817   -0.7393    0.0853 H   0  0  0  0  0  0  0  0  0  0  0  0
    2.8117   -0.7359   -0.9113 H   0  0  0  0  0  0  0  0  0  0  0  0
    4.4038    3.6627   -0.8246 H   0  0  0  0  0  0  0  0  0  0  0  0
    6.6199    2.6231   -4.1312 H   0  0  0  0  0  0  0  0  0  0  0  0
    5.9470    0.2194   -3.8119 H   0  0  0  0  0  0  0  0  0  0  0  0
    2.5875    2.4406    1.1563 H   0  0  0  0  0  0  0  0  0  0  0  0
    2.2688    2.9304   -0.5072 H   0  0  0  0  0  0  0  0  0  0  0  0
    0.8251    0.9904   -0.8867 H   0  0  0  0  0  0  0  0  0  0  0  0
    0.2382    2.0103    0.4190 H   0  0  0  0  0  0  0  0  0  0  0  0
  1  2  1  0
  2  3  1  0
  3  4  2  0
  4  5  1  0
  5  6  2  0
  6  7  1  0
  7  8  2  0
  8  9  1  0
  9 10  1  0
 10 11  1  0
 11 12  1  0
 12 13  1  0
 13 14  1  0
 14 15  1  0
 15 16  2  0
 15 17  1  0
 17 18  1  0
 18 19  1  0
 19 20  1  0
 20 21  1  0
 21 22  2  0
 22 23  1  0
 23 24  2  0
 24 25  1  0
 25 26  2  0
 20 27  1  0
 27 28  1  0
  8  3  1  0
 14 10  1  0
 28 17  1  0
 26 21  1  0
  1 29  1  0
  1 30  1  0
  1 31  1  0
  4 32  1  0
  5 33  1  0
  6 34  1  0
  7 35  1  0
  9 36  1  0
  9 37  1  0
 10 38  1  0
 11 39  1  0
 11 40  1  0
 12 41  1  0
 12 42  1  0
 13 43  1  0
 13 44  1  0
 17 45  1  0
 18 46  1  0
 18 47  1  0
 19 48  1  0
 19 49  1  0
 22 50  1  0
 24 51  1  0
 25 52  1  0
 27 53  1  0
 27 54  1  0
 28 55  1  0
 28 56  1  0
M  END
$$$$
OCNT-2317648
     RDKit          3D

  0  0  0  0  0  0  0  0  0  0999 V3000
M  V30 BEGIN CTAB
M  V30 COUNTS 53 56 0 0 0
M  V30 BEGIN ATOM
M  V30 1 O -0.993663 -1.558493 -0.187227 0
M  V30 2 C -0.730651 -0.670576 0.608883 0
M  V30 3 N -1.570885 -0.214845 1.589874 0
M  V30 4 C -2.873903 -0.835537 1.845459 0
M  V30 5 C -3.828069 -0.892353 0.635848 0
M  V30 6 C -4.121650 0.466710 0.036887 0
M  V30 7 C -5.022741 1.343312 0.655904 0
M  V30 8 C -5.276842 2.600656 0.105012 0
M  V30 9 C -4.634991 2.991841 -1.067496 0
M  V30 10 C -3.738162 2.127145 -1.691511 0
M  V30 11 C -3.482604 0.870470 -1.142237 0
M  V30 12 C -2.657069 -2.167402 2.511538 0
M  V30 13 N -1.914999 -2.425331 3.576956 0
M  V30 14 C -2.056234 -3.777938 3.753459 0
M  V30 15 C -2.895435 -4.288938 2.797589 0
M  V30 16 O -3.298176 -3.264496 1.998071 0
M  V30 17 N 0.452931 0.025922 0.631246 0
M  V30 18 C 1.465977 -0.192145 -0.391523 0 CFG=1
M  V30 19 C 1.060315 0.469144 -1.721360 0
M  V30 20 C 2.252842 0.843147 -2.605494 0
M  V30 21 C 3.448030 -0.072567 -2.369319 0
M  V30 22 C 3.947555 -0.008974 -0.912930 0 CFG=1
M  V30 23 C 5.069690 0.994710 -0.773447 0
M  V30 24 C 6.491576 0.594748 -1.075703 0
M  V30 25 C 6.071280 0.855186 0.344896 0
M  V30 26 C 2.823176 0.322426 0.086845 0
M  V30 27 H -1.071243 0.034557 2.431289 0
M  V30 28 H -3.334888 -0.189137 2.604458 0
M  V30 29 H -3.451693 -1.563380 -0.145142 0
M  V30 30 H -4.785869 -1.333326 0.945162 0
M  V30 31 H -5.536603 1.052530 1.567707 0
M  V30 32 H -5.977588 3.274729 0.589210 0
M  V30 33 H -4.835951 3.969766 -1.496963 0
M  V30 34 H -3.238979 2.427659 -2.608063 0
M  V30 35 H -2.779517 0.204314 -1.639164 0
M  V30 36 H -1.549769 -4.304216 4.551856 0
M  V30 37 H -3.276478 -5.270010 2.555651 0
M  V30 38 H 0.359115 0.968951 0.978764 0
M  V30 39 H 1.540787 -1.276666 -0.549901 0
M  V30 40 H 0.402597 -0.218895 -2.268182 0
M  V30 41 H 0.463148 1.373638 -1.543320 0
M  V30 42 H 1.951354 0.807796 -3.658867 0
M  V30 43 H 2.546800 1.880908 -2.400915 0
M  V30 44 H 4.253439 0.176239 -3.071390 0
M  V30 45 H 3.145059 -1.103351 -2.597827 0
M  V30 46 H 4.337724 -1.005846 -0.665803 0
M  V30 47 H 4.767874 2.000238 -1.049978 0
M  V30 48 H 7.132141 1.324361 -1.558608 0
M  V30 49 H 6.695248 -0.430312 -1.365383 0
M  V30 50 H 6.428910 1.761085 0.822539 0
M  V30 51 H 5.993629 0.003909 1.013148 0
M  V30 52 H 2.760823 1.407459 0.254391 0
M  V30 53 H 3.072630 -0.108821 1.065106 0
M  V30 END ATOM
M  V30 BEGIN BOND
M  V30 1 2 1 2
M  V30 2 1 2 3
M  V30 3 1 3 4
M  V30 4 1 4 5
M  V30 5 1 5 6
M  V30 6 2 6 7
M  V30 7 1 7 8
M  V30 8 2 8 9
M  V30 9 1 9 10
M  V30 10 2 10 11
M  V30 11 1 4 12
M  V30 12 2 12 13
M  V30 13 1 13 14
M  V30 14 2 14 15
M  V30 15 1 15 16
M  V30 16 1 2 17
M  V30 17 1 17 18
M  V30 18 1 18 19
M  V30 19 1 19 20
M  V30 20 1 20 21
M  V30 21 1 21 22
M  V30 22 1 22 23
M  V30 23 1 23 24
M  V30 24 1 24 25
M  V30 25 1 22 26
M  V30 26 1 11 6
M  V30 27 1 16 12
M  V30 28 1 26 18
M  V30 29 1 25 23
M  V30 30 1 3 27
M  V30 31 1 4 28
M  V30 32 1 5 29
M  V30 33 1 5 30
M  V30 34 1 7 31
M  V30 35 1 8 32
M  V30 36 1 9 33
M  V30 37 1 10 34
M  V30 38 1 11 35
M  V30 39 1 14 36
M  V30 40 1 15 37
M  V30 41 1 17 38
M  V30 42 1 18 39 CFG=3
M  V30 43 1 19 40
M  V30 44 1 19 41
M  V30 45 1 20 42
M  V30 46 1 20 43
M  V30 47 1 21 44
M  V30 48 1 21 45
M  V30 49 1 22 46 CFG=1
M  V30 50 1 23 47
M  V30 51 1 24 48
M  V30 52 1 24 49
M  V30 53 1 25 50
M  V30 54 1 25 51
M  V30 55 1 26 52
M  V30 56 1 26 53
M  V30 END BOND
M  V30 BEGIN COLLECTION
M  V30 MDLV30/STERAC1 ATOMS=(2 18 22)
M  V30 END COLLECTION
M  V30 END CTAB
M  END
>  <_CXSMILES_Data>  (1258) 
|&1:17,21|

$$$$
OCNT-2317650
     RDKit          3D

 60 63  0  0  0  0  0  0  0  0999 V2000
   -0.4513   -2.4961    2.2333 O   0  0  0  0  0  0  0  0  0  0  0  0
   -0.4580   -1.5061    1.5145 C   0  0  0  0  0  0  0  0  0  0  0  0
    0.5668   -0.5957    1.4418 N   0  0  0  0  0  0  0  0  0  0  0  0
    1.6929   -0.6935    2.3505 C   0  0  0  0  0  0  0  0  0  0  0  0
    2.9359    0.0740    1.8800 C   0  0  0  0  0  0  0  0  0  0  0  0
    2.7322    1.5989    1.8995 C   0  0  0  0  0  0  0  0  0  0  0  0
    3.5820    2.3116    0.8477 C   0  0  0  0  0  0  0  0  0  0  0  0
    4.8955    1.5783    0.5909 C   0  0  0  0  0  0  0  0  0  0  0  0
    4.7232    0.1880    0.1435 N   0  0  0  0  0  0  0  0  0  0  0  0
    4.9836    0.0112   -1.2961 C   0  0  0  0  0  0  0  0  0  0  0  0
    6.4415    0.1676   -1.6402 C   0  0  0  0  0  0  0  0  0  0  0  0
    7.5412   -0.3727   -0.9999 C   0  0  0  0  0  0  0  0  0  0  0  0
    8.7687   -0.0156   -1.6265 C   0  0  0  0  0  0  0  0  0  0  0  0
    8.5678    0.7822   -2.7295 C   0  0  0  0  0  0  0  0  0  0  0  0
    6.9089    1.0955   -3.0043 S   0  0  0  0  0  0  0  0  0  0  0  0
    3.4194   -0.3971    0.5008 C   0  0  0  0  0  0  0  0  0  0  0  0
   -1.4682   -1.2019    0.6423 N   0  0  0  0  0  0  0  0  0  0  0  0
   -2.6993   -1.9729    0.6448 C   0  0  0  0  0  0  0  0  0  0  0  0
   -3.5590   -1.6285   -0.5768 C   0  0  0  0  0  0  0  0  0  0  0  0
   -4.8844   -2.3740   -0.5920 C   0  0  0  0  0  0  0  0  0  0  0  0
   -5.8194   -1.4123    0.1028 C   0  0  0  0  0  0  0  0  0  0  0  0
   -5.2849   -0.0592   -0.3530 C   0  0  0  0  0  0  0  0  0  0  0  0
   -5.9258    0.4418   -1.6498 C   0  0  0  0  0  0  0  0  0  0  0  0
   -7.2125    1.1347   -1.2083 C   0  0  0  0  0  0  0  0  0  0  0  0
   -7.0235    1.4822    0.2695 C   0  0  0  0  0  0  0  0  0  0  0  0
   -5.5932    1.0829    0.6087 C   0  0  0  0  0  0  0  0  0  0  0  0
   -3.8737   -0.2172   -0.5314 O   0  0  0  0  0  0  0  0  0  0  0  0
    0.3004    0.3220    1.1220 H   0  0  0  0  0  0  0  0  0  0  0  0
    1.9451   -1.7523    2.4805 H   0  0  0  0  0  0  0  0  0  0  0  0
    1.3589   -0.3209    3.3254 H   0  0  0  0  0  0  0  0  0  0  0  0
    3.7302   -0.1556    2.6053 H   0  0  0  0  0  0  0  0  0  0  0  0
    1.6841    1.8786    1.7468 H   0  0  0  0  0  0  0  0  0  0  0  0
    2.9983    1.9708    2.8971 H   0  0  0  0  0  0  0  0  0  0  0  0
    3.0173    2.3863   -0.0900 H   0  0  0  0  0  0  0  0  0  0  0  0
    3.7810    3.3387    1.1730 H   0  0  0  0  0  0  0  0  0  0  0  0
    5.5044    2.1682   -0.1044 H   0  0  0  0  0  0  0  0  0  0  0  0
    5.4673    1.5521    1.5274 H   0  0  0  0  0  0  0  0  0  0  0  0
    4.3550    0.6942   -1.8826 H   0  0  0  0  0  0  0  0  0  0  0  0
    4.7060   -1.0087   -1.5966 H   0  0  0  0  0  0  0  0  0  0  0  0
    7.4590   -0.9922   -0.1150 H   0  0  0  0  0  0  0  0  0  0  0  0
    9.7484   -0.3291   -1.2858 H   0  0  0  0  0  0  0  0  0  0  0  0
    9.3151    1.1960   -3.3913 H   0  0  0  0  0  0  0  0  0  0  0  0
    3.5172   -1.4896    0.5003 H   0  0  0  0  0  0  0  0  0  0  0  0
    2.6652   -0.1394   -0.2550 H   0  0  0  0  0  0  0  0  0  0  0  0
   -1.5744   -0.2346    0.3683 H   0  0  0  0  0  0  0  0  0  0  0  0
   -2.4526   -3.0401    0.6613 H   0  0  0  0  0  0  0  0  0  0  0  0
   -3.2200   -1.7245    1.5771 H   0  0  0  0  0  0  0  0  0  0  0  0
   -2.9903   -1.8198   -1.4935 H   0  0  0  0  0  0  0  0  0  0  0  0
   -5.2124   -2.5198   -1.6284 H   0  0  0  0  0  0  0  0  0  0  0  0
   -4.8428   -3.3585   -0.1169 H   0  0  0  0  0  0  0  0  0  0  0  0
   -5.7107   -1.5270    1.1881 H   0  0  0  0  0  0  0  0  0  0  0  0
   -6.8698   -1.5866   -0.1485 H   0  0  0  0  0  0  0  0  0  0  0  0
   -6.1190   -0.3541   -2.3762 H   0  0  0  0  0  0  0  0  0  0  0  0
   -5.2637    1.1627   -2.1458 H   0  0  0  0  0  0  0  0  0  0  0  0
   -7.4026    2.0280   -1.8117 H   0  0  0  0  0  0  0  0  0  0  0  0
   -8.0737    0.4676   -1.3302 H   0  0  0  0  0  0  0  0  0  0  0  0
   -7.2029    2.5438    0.4660 H   0  0  0  0  0  0  0  0  0  0  0  0
   -7.7334    0.9102    0.8784 H   0  0  0  0  0  0  0  0  0  0  0  0
   -5.4791    0.8027    1.6606 H   0  0  0  0  0  0  0  0  0  0  0  0
   -4.9115    1.9247    0.4318 H   0  0  0  0  0  0  0  0  0  0  0  0
  1  2  2  0
  2  3  1  0
  3  4  1  0
  4  5  1  0
  5  6  1  0
  6  7  1  0
  7  8  1  0
  8  9  1  0
  9 10  1  0
 10 11  1  0
 11 12  2  0
 12 13  1  0
 13 14  2  0
 14 15  1  0
  9 16  1  0
  2 17  1  0
 17 18  1  0
 18 19  1  0
 19 20  1  0
 20 21  1  0
 21 22  1  0
 22 23  1  0
 23 24  1  0
 24 25  1  0
 25 26  1  0
 22 27  1  0
 16  5  1  0
 27 19  1  0
 15 11  1  0
 26 22  1  0
  3 28  1  0
  4 29  1  0
  4 30  1  0
  5 31  1  0
  6 32  1  0
  6 33  1  0
  7 34  1  0
  7 35  1  0
  8 36  1  0
  8 37  1  0
 10 38  1  0
 10 39  1  0
 12 40  1  0
 13 41  1  0
 14 42  1  0
 16 43  1  0
 16 44  1  0
 17 45  1  0
 18 46  1  0
 18 47  1  0
 19 48  1  0
 20 49  1  0
 20 50  1  0
 21 51  1  0
 21 52  1  0
 23 53  1  0
 23 54  1  0
 24 55  1  0
 24 56  1  0
 25 57  1  0
 25 58  1  0
 26 59  1  0
 26 60  1  0
M  END
$$$$
OCNT-2317654
     RDKit          3D

 54 56  0  0  0  0  0  0  0  0999 V2000
   -8.6743   -0.2579   -0.3765 C   0  0  0  0  0  0  0  0  0  0  0  0
   -7.5756   -1.1575   -1.4406 S   0  0  0  0  0  0  0  0  0  0  0  0
   -7.6951   -2.5690   -1.1287 O   0  0  0  0  0  0  0  0  0  0  0  0
   -7.7705   -0.6734   -2.7942 O   0  0  0  0  0  0  0  0  0  0  0  0
   -5.9655   -0.6314   -0.9034 C   0  0  0  0  0  0  0  0  0  0  0  0
   -5.3976   -1.2174    0.2306 C   0  0  0  0  0  0  0  0  0  0  0  0
   -4.1302   -0.8109    0.6507 C   0  0  0  0  0  0  0  0  0  0  0  0
   -3.4150    0.1645   -0.0671 C   0  0  0  0  0  0  0  0  0  0  0  0
   -2.0362    0.6116    0.3875 C   0  0  0  0  0  0  0  0  0  0  0  0
   -2.1813    1.2059    1.6839 O   0  0  0  0  0  0  0  0  0  0  0  0
   -1.0097   -0.5570    0.4209 C   0  0  0  0  0  0  0  0  0  0  0  0
    0.4121   -0.1379    0.4406 N   0  0  0  0  0  0  0  0  0  0  0  0
    0.7349    0.6625    1.6353 C   0  0  0  0  0  0  0  0  0  0  0  0
    2.2236    0.6365    2.0154 C   0  0  0  0  0  0  0  0  0  0  0  0
    3.1131    0.4773    0.7753 C   0  0  0  0  0  0  0  0  0  0  0  0
    4.6129    0.5755    1.1305 C   0  0  0  0  0  0  0  0  0  0  0  0
    4.9902   -0.4838    2.0137 O   0  0  0  0  0  0  0  0  0  0  0  0
    5.5104    0.5954   -0.0952 C   0  0  0  0  0  0  0  0  0  0  0  0
    6.2718   -0.5195   -0.4767 C   0  0  0  0  0  0  0  0  0  0  0  0
    7.0828   -0.4787   -1.6126 C   0  0  0  0  0  0  0  0  0  0  0  0
    7.1426    0.6780   -2.3849 C   0  0  0  0  0  0  0  0  0  0  0  0
    6.3939    1.7949   -2.0215 C   0  0  0  0  0  0  0  0  0  0  0  0
    5.5854    1.7556   -0.8835 C   0  0  0  0  0  0  0  0  0  0  0  0
    2.7441   -0.8381    0.0544 C   0  0  0  0  0  0  0  0  0  0  0  0
    1.3034   -1.2931    0.3172 C   0  0  0  0  0  0  0  0  0  0  0  0
   -3.9998    0.7333   -1.2113 C   0  0  0  0  0  0  0  0  0  0  0  0
   -5.2701    0.3344   -1.6335 C   0  0  0  0  0  0  0  0  0  0  0  0
   -9.6995   -0.5123   -0.6545 H   0  0  0  0  0  0  0  0  0  0  0  0
   -8.5081    0.8125   -0.5106 H   0  0  0  0  0  0  0  0  0  0  0  0
   -8.4885   -0.5526    0.6588 H   0  0  0  0  0  0  0  0  0  0  0  0
   -5.9246   -1.9939    0.7836 H   0  0  0  0  0  0  0  0  0  0  0  0
   -3.6941   -1.2652    1.5419 H   0  0  0  0  0  0  0  0  0  0  0  0
   -1.6655    1.3936   -0.2879 H   0  0  0  0  0  0  0  0  0  0  0  0
   -2.9761    1.7652    1.6436 H   0  0  0  0  0  0  0  0  0  0  0  0
   -1.1639   -1.1596   -0.4841 H   0  0  0  0  0  0  0  0  0  0  0  0
   -1.2106   -1.2054    1.2848 H   0  0  0  0  0  0  0  0  0  0  0  0
    0.1697    0.3246    2.5142 H   0  0  0  0  0  0  0  0  0  0  0  0
    0.4472    1.7031    1.4385 H   0  0  0  0  0  0  0  0  0  0  0  0
    2.4747    1.5583    2.5550 H   0  0  0  0  0  0  0  0  0  0  0  0
    2.3993   -0.1965    2.7100 H   0  0  0  0  0  0  0  0  0  0  0  0
    2.8708    1.3071    0.0952 H   0  0  0  0  0  0  0  0  0  0  0  0
    4.7972    1.5101    1.6792 H   0  0  0  0  0  0  0  0  0  0  0  0
    4.6558   -0.2505    2.8953 H   0  0  0  0  0  0  0  0  0  0  0  0
    6.2356   -1.4338    0.1120 H   0  0  0  0  0  0  0  0  0  0  0  0
    7.6659   -1.3528   -1.8931 H   0  0  0  0  0  0  0  0  0  0  0  0
    7.7725    0.7089   -3.2700 H   0  0  0  0  0  0  0  0  0  0  0  0
    6.4381    2.6968   -2.6269 H   0  0  0  0  0  0  0  0  0  0  0  0
    5.0094    2.6385   -0.6150 H   0  0  0  0  0  0  0  0  0  0  0  0
    2.8866   -0.6910   -1.0234 H   0  0  0  0  0  0  0  0  0  0  0  0
    3.4132   -1.6549    0.3450 H   0  0  0  0  0  0  0  0  0  0  0  0
    0.9982   -1.9356   -0.5187 H   0  0  0  0  0  0  0  0  0  0  0  0
    1.2615   -1.9131    1.2222 H   0  0  0  0  0  0  0  0  0  0  0  0
   -3.4644    1.4863   -1.7891 H   0  0  0  0  0  0  0  0  0  0  0  0
   -5.7003    0.7740   -2.5327 H   0  0  0  0  0  0  0  0  0  0  0  0
  1  2  1  0
  2  3  2  0
  2  4  2  0
  2  5  1  0
  5  6  1  0
  6  7  2  0
  7  8  1  0
  8  9  1  0
  9 10  1  0
  9 11  1  0
 11 12  1  0
 12 13  1  0
 13 14  1  0
 14 15  1  0
 15 16  1  0
 16 17  1  0
 16 18  1  0
 18 19  2  0
 19 20  1  0
 20 21  2  0
 21 22  1  0
 22 23  2  0
 15 24  1  0
 24 25  1  0
  8 26  2  0
 26 27  1  0
 27  5  2  0
 25 12  1  0
 23 18  1  0
  1 28  1  0
  1 29  1  0
  1 30  1  0
  6 31  1  0
  7 32  1  0
  9 33  1  0
 10 34  1  0
 11 35  1  0
 11 36  1  0
 13 37  1  0
 13 38  1  0
 14 39  1  0
 14 40  1  0
 15 41  1  0
 16 42  1  0
 17 43  1  0
 19 44  1  0
 20 45  1  0
 21 46  1  0
 22 47  1  0
 23 48  1  0
 24 49  1  0
 24 50  1  0
 25 51  1  0
 25 52  1  0
 26 53  1  0
 27 54  1  0
M  END
$$$$
OCNT-2317662
     RDKit          3D

 59 61  0  0  0  0  0  0  0  0999 V2000
    9.4533   -0.1181    0.0163 C   0  0  0  0  0  0  0  0  0  0  0  0
    8.1797   -0.4420    0.5551 O   0  0  0  0  0  0  0  0  0  0  0  0
    7.2618   -0.9516   -0.4215 C   0  0  0  0  0  0  0  0  0  0  0  0
    6.6468    0.1616   -1.2849 C   0  0  0  0  0  0  0  0  0  0  0  0
    5.9555    1.1561   -0.4590 N   0  0  0  0  0  0  0  0  0  0  0  0
    4.6803    0.8851    0.0527 C   0  0  0  0  0  0  0  0  0  0  0  0
    3.7301    0.0961   -0.5998 C   0  0  0  0  0  0  0  0  0  0  0  0
    2.4413   -0.0817   -0.0743 C   0  0  0  0  0  0  0  0  0  0  0  0
    2.0477    0.5628    1.1041 C   0  0  0  0  0  0  0  0  0  0  0  0
    0.6892    0.3735    1.7415 C   0  0  0  0  0  0  0  0  0  0  0  0
   -0.3528   -0.0583    0.8339 N   0  0  0  0  0  0  0  0  0  0  0  0
   -1.0665    0.8493    0.0984 C   0  0  0  0  0  0  0  0  0  0  0  0
   -0.9004    2.0606    0.2160 O   0  0  0  0  0  0  0  0  0  0  0  0
   -2.0093    0.3049   -0.7656 N   0  0  0  0  0  0  0  0  0  0  0  0
   -2.8271    1.2407   -1.5201 C   0  0  0  0  0  0  0  0  0  0  0  0
   -3.9468    1.8914   -0.7111 C   0  0  0  0  0  0  0  0  0  0  0  0
   -4.5447    1.0956    0.4534 C   0  0  0  0  0  0  0  0  0  0  0  0
   -4.8710   -0.3962    0.2195 C   0  0  0  0  0  0  0  0  0  0  0  0
   -5.6700   -0.6461   -1.0697 C   0  0  0  0  0  0  0  0  0  0  0  0
   -6.3813   -1.9766   -0.8455 C   0  0  0  0  0  0  0  0  0  0  0  0
   -6.5931   -2.0874    0.6618 C   0  0  0  0  0  0  0  0  0  0  0  0
   -5.8944   -0.8764    1.2794 C   0  0  0  0  0  0  0  0  0  0  0  0
   -3.5910   -1.2726    0.3451 C   0  0  0  0  0  0  0  0  0  0  0  0
   -2.5139   -1.0646   -0.7176 C   0  0  0  0  0  0  0  0  0  0  0  0
    2.9850    1.3841    1.7419 C   0  0  0  0  0  0  0  0  0  0  0  0
    4.2697    1.5544    1.2125 C   0  0  0  0  0  0  0  0  0  0  0  0
   10.1059    0.1804    0.8413 H   0  0  0  0  0  0  0  0  0  0  0  0
    9.3835    0.7188   -0.6822 H   0  0  0  0  0  0  0  0  0  0  0  0
    9.8981   -0.9870   -0.4785 H   0  0  0  0  0  0  0  0  0  0  0  0
    7.7607   -1.6974   -1.0503 H   0  0  0  0  0  0  0  0  0  0  0  0
    6.4720   -1.4702    0.1311 H   0  0  0  0  0  0  0  0  0  0  0  0
    6.0021   -0.2611   -2.0603 H   0  0  0  0  0  0  0  0  0  0  0  0
    7.4452    0.6911   -1.8153 H   0  0  0  0  0  0  0  0  0  0  0  0
    6.5765    1.4739    0.2871 H   0  0  0  0  0  0  0  0  0  0  0  0
    3.9571   -0.3891   -1.5424 H   0  0  0  0  0  0  0  0  0  0  0  0
    1.7502   -0.7144   -0.6227 H   0  0  0  0  0  0  0  0  0  0  0  0
    0.3688    1.3034    2.2265 H   0  0  0  0  0  0  0  0  0  0  0  0
    0.7740   -0.4016    2.5115 H   0  0  0  0  0  0  0  0  0  0  0  0
   -0.2307   -0.9706    0.4358 H   0  0  0  0  0  0  0  0  0  0  0  0
   -3.2385    0.7227   -2.3939 H   0  0  0  0  0  0  0  0  0  0  0  0
   -2.1797    2.0285   -1.9266 H   0  0  0  0  0  0  0  0  0  0  0  0
   -4.7467    2.1813   -1.4041 H   0  0  0  0  0  0  0  0  0  0  0  0
   -3.5717    2.8371   -0.2971 H   0  0  0  0  0  0  0  0  0  0  0  0
   -5.4582    1.6289    0.7498 H   0  0  0  0  0  0  0  0  0  0  0  0
   -3.8768    1.1816    1.3209 H   0  0  0  0  0  0  0  0  0  0  0  0
   -6.4231    0.1412   -1.2073 H   0  0  0  0  0  0  0  0  0  0  0  0
   -5.0611   -0.6717   -1.9756 H   0  0  0  0  0  0  0  0  0  0  0  0
   -7.3264   -2.0246   -1.3956 H   0  0  0  0  0  0  0  0  0  0  0  0
   -5.7565   -2.8060   -1.1967 H   0  0  0  0  0  0  0  0  0  0  0  0
   -6.1605   -3.0219    1.0371 H   0  0  0  0  0  0  0  0  0  0  0  0
   -7.6575   -2.0959    0.9194 H   0  0  0  0  0  0  0  0  0  0  0  0
   -5.4317   -1.1215    2.2412 H   0  0  0  0  0  0  0  0  0  0  0  0
   -6.6495   -0.1034    1.4725 H   0  0  0  0  0  0  0  0  0  0  0  0
   -3.8585   -2.3363    0.3308 H   0  0  0  0  0  0  0  0  0  0  0  0
   -3.1447   -1.0977    1.3338 H   0  0  0  0  0  0  0  0  0  0  0  0
   -1.6911   -1.7571   -0.5200 H   0  0  0  0  0  0  0  0  0  0  0  0
   -2.8850   -1.3395   -1.7111 H   0  0  0  0  0  0  0  0  0  0  0  0
    2.7194    1.9147    2.6541 H   0  0  0  0  0  0  0  0  0  0  0  0
    4.9563    2.2242    1.7245 H   0  0  0  0  0  0  0  0  0  0  0  0
  1  2  1  0
  2  3  1  0
  3  4  1  0
  4  5  1  0
  5  6  1  0
  6  7  1  0
  7  8  2  0
  8  9  1  0
  9 10  1  0
 10 11  1  0
 11 12  1  0
 12 13  2  0
 12 14  1  0
 14 15  1  0
 15 16  1  0
 16 17  1  0
 17 18  1  0
 18 19  1  0
 19 20  1  0
 20 21  1  0
 21 22  1  0
 18 23  1  0
 23 24  1  0
  9 25  2  0
 25 26  1  0
 26  6  2  0
 24 14  1  0
 22 18  1  0
  1 27  1  0
  1 28  1  0
  1 29  1  0
  3 30  1  0
  3 31  1  0
  4 32  1  0
  4 33  1  0
  5 34  1  0
  7 35  1  0
  8 36  1  0
 10 37  1  0
 10 38  1  0
 11 39  1  0
 15 40  1  0
 15 41  1  0
 16 42  1  0
 16 43  1  0
 17 44  1  0
 17 45  1  0
 19 46  1  0
 19 47  1  0
 20 48  1  0
 20 49  1  0
 21 50  1  0
 21 51  1  0
 22 52  1  0
 22 53  1  0
 23 54  1  0
 23 55  1  0
 24 56  1  0
 24 57  1  0
 25 58  1  0
 26 59  1  0
M  END
$$$$
OCNT-2317667
     RDKit          3D

 47 50  0  0  0  0  0  0  0  0999 V2000
   -6.0595    0.8618    1.5321 C   0  0  0  0  0  0  0  0  0  0  0  0
   -5.5634    0.6138    0.2000 N   0  0  0  0  0  0  0  0  0  0  0  0
   -6.4206    0.2103   -0.7626 N   0  0  0  0  0  0  0  0  0  0  0  0
   -5.6558    0.0927   -1.8522 C   0  0  0  0  0  0  0  0  0  0  0  0
   -4.3135    0.4197   -1.5953 C   0  0  0  0  0  0  0  0  0  0  0  0
   -4.2855    0.7442   -0.2566 C   0  0  0  0  0  0  0  0  0  0  0  0
   -3.0851    1.1699    0.5116 C   0  0  0  0  0  0  0  0  0  0  0  0
   -1.8112    0.7533   -0.2693 C   0  0  0  0  0  0  0  0  0  0  0  0
   -0.5736    1.4080    0.3384 C   0  0  0  0  0  0  0  0  0  0  0  0
   -0.6651    2.4708    0.9551 O   0  0  0  0  0  0  0  0  0  0  0  0
    0.6525    0.7918    0.1282 N   0  0  0  0  0  0  0  0  0  0  0  0
    1.8605    1.4151    0.6784 C   0  0  0  0  0  0  0  0  0  0  0  0
    2.8134    0.3992    1.3358 C   0  0  0  0  0  0  0  0  0  0  0  0
    3.1642   -0.7102    0.4232 N   0  0  0  0  0  0  0  0  0  0  0  0
    4.3890   -1.3524    0.5361 C   0  0  0  0  0  0  0  0  0  0  0  0
    4.9985   -2.0543   -0.5169 C   0  0  0  0  0  0  0  0  0  0  0  0
    6.1981   -2.6961   -0.4678 N   0  0  0  0  0  0  0  0  0  0  0  0
    6.8490   -2.6487    0.7121 C   0  0  0  0  0  0  0  0  0  0  0  0
    6.3470   -2.0020    1.8214 C   0  0  0  0  0  0  0  0  0  0  0  0
    7.0307   -1.9944    2.9731 F   0  0  0  0  0  0  0  0  0  0  0  0
    5.1154   -1.3578    1.7346 C   0  0  0  0  0  0  0  0  0  0  0  0
    2.2983   -0.9033   -0.7521 C   0  0  0  0  0  0  0  0  0  0  0  0
    0.8318   -0.5536   -0.4314 C   0  0  0  0  0  0  0  0  0  0  0  0
   -1.9337    1.1398   -1.7671 C   0  0  0  0  0  0  0  0  0  0  0  0
   -3.1093    0.4211   -2.4614 C   0  0  0  0  0  0  0  0  0  0  0  0
   -6.0403   -0.0814    2.0822 H   0  0  0  0  0  0  0  0  0  0  0  0
   -7.0805    1.2476    1.4664 H   0  0  0  0  0  0  0  0  0  0  0  0
   -5.4248    1.6040    2.0227 H   0  0  0  0  0  0  0  0  0  0  0  0
   -6.1089   -0.2263   -2.7800 H   0  0  0  0  0  0  0  0  0  0  0  0
   -3.1269    2.2567    0.6547 H   0  0  0  0  0  0  0  0  0  0  0  0
   -3.0718    0.7112    1.5073 H   0  0  0  0  0  0  0  0  0  0  0  0
   -1.7195   -0.3366   -0.1822 H   0  0  0  0  0  0  0  0  0  0  0  0
    2.3657    1.9033   -0.1646 H   0  0  0  0  0  0  0  0  0  0  0  0
    1.6075    2.1950    1.4035 H   0  0  0  0  0  0  0  0  0  0  0  0
    2.3376   -0.0206    2.2297 H   0  0  0  0  0  0  0  0  0  0  0  0
    3.7078    0.9505    1.6486 H   0  0  0  0  0  0  0  0  0  0  0  0
    4.5330   -2.1140   -1.4966 H   0  0  0  0  0  0  0  0  0  0  0  0
    7.8088   -3.1522    0.7478 H   0  0  0  0  0  0  0  0  0  0  0  0
    4.7370   -0.8800    2.6303 H   0  0  0  0  0  0  0  0  0  0  0  0
    2.6604   -0.2741   -1.5731 H   0  0  0  0  0  0  0  0  0  0  0  0
    2.3156   -1.9468   -1.0856 H   0  0  0  0  0  0  0  0  0  0  0  0
    0.4421   -1.2572    0.3155 H   0  0  0  0  0  0  0  0  0  0  0  0
    0.2275   -0.6616   -1.3352 H   0  0  0  0  0  0  0  0  0  0  0  0
   -1.0093    0.9287   -2.3149 H   0  0  0  0  0  0  0  0  0  0  0  0
   -2.0840    2.2258   -1.8406 H   0  0  0  0  0  0  0  0  0  0  0  0
   -3.3244    0.9060   -3.4193 H   0  0  0  0  0  0  0  0  0  0  0  0
   -2.8247   -0.6168   -2.6728 H   0  0  0  0  0  0  0  0  0  0  0  0
  1  2  1  0
  2  3  1  0
  3  4  2  0
  4  5  1  0
  5  6  2  0
  6  7  1  0
  7  8  1  0
  8  9  1  0
  9 10  2  0
  9 11  1  0
 11 12  1  0
 12 13  1  0
 13 14  1  0
 14 15  1  0
 15 16  2  0
 16 17  1  0
 17 18  2  0
 18 19  1  0
 19 20  1  0
 19 21  2  0
 14 22  1  0
 22 23  1  0
  8 24  1  0
 24 25  1  0
  6  2  1  0
 23 11  1  0
 25  5  1  0
 21 15  1  0
  1 26  1  0
  1 27  1  0
  1 28  1  0
  4 29  1  0
  7 30  1  0
  7 31  1  0
  8 32  1  0
 12 33  1  0
 12 34  1  0
 13 35  1  0
 13 36  1  0
 16 37  1  0
 18 38  1  0
 21 39  1  0
 22 40  1  0
 22 41  1  0
 23 42  1  0
 23 43  1  0
 24 44  1  0
 24 45  1  0
 25 46  1  0
 25 47  1  0
M  END
$$$$
OCNT-2317673
     RDKit          3D

 41 44  0  0  0  0  0  0  0  0999 V2000
    4.4650    1.1415   -2.4718 C   0  0  0  0  0  0  0  0  0  0  0  0
    3.7210    2.0566   -1.7286 C   0  0  0  0  0  0  0  0  0  0  0  0
    2.7598    1.6087   -0.8166 C   0  0  0  0  0  0  0  0  0  0  0  0
    2.5392    0.2415   -0.6463 C   0  0  0  0  0  0  0  0  0  0  0  0
    1.6396   -0.3297    0.2094 O   0  0  0  0  0  0  0  0  0  0  0  0
    0.7817    0.5513    0.9454 C   0  0  0  0  0  0  0  0  0  0  0  0
   -0.2027   -0.2530    1.8248 C   0  0  2  0  0  0  0  0  0  0  0  0
    0.5666   -1.2031    2.7755 C   0  0  0  0  0  0  0  0  0  0  0  0
   -0.2158   -2.5068    2.7434 C   0  0  0  0  0  0  0  0  0  0  0  0
   -0.7529   -2.5497    1.3196 C   0  0  0  0  0  0  0  0  0  0  0  0
   -1.0936   -1.1575    1.0761 N   0  0  0  0  0  0  0  0  0  0  0  0
   -1.8553   -0.8144   -0.0246 C   0  0  0  0  0  0  0  0  0  0  0  0
   -2.0790   -1.8180   -0.9171 N   0  0  0  0  0  0  0  0  0  0  0  0
   -2.8051   -1.5615   -2.0149 C   0  0  0  0  0  0  0  0  0  0  0  0
   -3.3573   -0.3331   -2.2797 C   0  0  0  0  0  0  0  0  0  0  0  0
   -3.1709    0.6900   -1.3770 C   0  0  0  0  0  0  0  0  0  0  0  0
   -3.7506    1.8742   -1.6638 N   0  0  0  0  0  0  0  0  0  0  0  0
   -3.5858    2.8661   -0.7671 C   0  0  0  0  0  0  0  0  0  0  0  0
   -2.8591    2.6911    0.3862 C   0  0  0  0  0  0  0  0  0  0  0  0
   -2.2637    1.5184    0.6847 N   0  0  0  0  0  0  0  0  0  0  0  0
   -2.4078    0.4816   -0.2018 C   0  0  0  0  0  0  0  0  0  0  0  0
    3.2897   -0.6695   -1.3942 C   0  0  0  0  0  0  0  0  0  0  0  0
    4.2493   -0.2240   -2.3048 C   0  0  0  0  0  0  0  0  0  0  0  0
    5.2105    1.4924   -3.1803 H   0  0  0  0  0  0  0  0  0  0  0  0
    3.8883    3.1227   -1.8586 H   0  0  0  0  0  0  0  0  0  0  0  0
    2.2029    2.3521   -0.2570 H   0  0  0  0  0  0  0  0  0  0  0  0
    1.3935    1.1782    1.6065 H   0  0  0  0  0  0  0  0  0  0  0  0
    0.2418    1.1967    0.2475 H   0  0  0  0  0  0  0  0  0  0  0  0
   -0.8044    0.4307    2.4342 H   0  0  0  0  0  0  0  0  0  0  0  0
    1.5928   -1.3856    2.4374 H   0  0  0  0  0  0  0  0  0  0  0  0
    0.6310   -0.7921    3.7884 H   0  0  0  0  0  0  0  0  0  0  0  0
   -1.0450   -2.4599    3.4598 H   0  0  0  0  0  0  0  0  0  0  0  0
    0.3998   -3.3770    2.9874 H   0  0  0  0  0  0  0  0  0  0  0  0
   -1.6185   -3.2188    1.2614 H   0  0  0  0  0  0  0  0  0  0  0  0
    0.0196   -2.8905    0.6200 H   0  0  0  0  0  0  0  0  0  0  0  0
   -2.9349   -2.3979   -2.6950 H   0  0  0  0  0  0  0  0  0  0  0  0
   -3.9398   -0.1723   -3.1796 H   0  0  0  0  0  0  0  0  0  0  0  0
   -4.0612    3.8102   -1.0055 H   0  0  0  0  0  0  0  0  0  0  0  0
   -2.7327    3.4895    1.1077 H   0  0  0  0  0  0  0  0  0  0  0  0
    3.1201   -1.7359   -1.2676 H   0  0  0  0  0  0  0  0  0  0  0  0
    4.8241   -0.9431   -2.8817 H   0  0  0  0  0  0  0  0  0  0  0  0
  1  2  2  0
  2  3  1  0
  3  4  2  0
  4  5  1  0
  5  6  1  0
  6  7  1  0
  7  8  1  0
  8  9  1  0
  9 10  1  0
 10 11  1  0
 11 12  1  0
 12 13  1  0
 13 14  2  0
 14 15  1  0
 15 16  2  0
 16 17  1  0
 17 18  2  0
 18 19  1  0
 19 20  2  0
 20 21  1  0
  4 22  1  0
 22 23  2  0
 23  1  1  0
 11  7  1  0
 21 12  2  0
 21 16  1  0
  1 24  1  0
  2 25  1  0
  3 26  1  0
  6 27  1  0
  6 28  1  0
  7 29  1  1
  8 30  1  0
  8 31  1  0
  9 32  1  0
  9 33  1  0
 10 34  1  0
 10 35  1  0
 14 36  1  0
 15 37  1  0
 18 38  1  0
 19 39  1  0
 22 40  1  0
 23 41  1  0
M  END
$$$$
OCNT-2317689
     RDKit          3D

 46 49  0  0  0  0  0  0  0  0999 V2000
    2.3040    1.8253   -2.3190 O   0  0  0  0  0  0  0  0  0  0  0  0
    2.0227    1.0314   -1.4202 C   0  0  0  0  0  0  0  0  0  0  0  0
    3.0052    0.7145   -0.3088 C   0  0  0  0  0  0  0  0  0  0  0  0
    4.2429    1.6041   -0.3799 C   0  0  0  0  0  0  0  0  0  0  0  0
    5.1671    1.3674    0.7638 C   0  0  0  0  0  0  0  0  0  0  0  0
    5.6899    2.2768    1.6589 C   0  0  0  0  0  0  0  0  0  0  0  0
    6.4837    1.5427    2.4958 N   0  0  0  0  0  0  0  0  0  0  0  0
    6.4090    0.2394    2.0959 C   0  0  0  0  0  0  0  0  0  0  0  0
    5.6234    0.1010    1.0535 N   0  0  0  0  0  0  0  0  0  0  0  0
    0.7905    0.3821   -1.3733 N   0  0  0  0  0  0  0  0  0  0  0  0
    0.4025   -0.5834   -0.3446 C   0  0  0  0  0  0  0  0  0  0  0  0
   -0.5804   -1.6303   -0.8587 C   0  0  0  0  0  0  0  0  0  0  0  0
   -1.8002   -1.0298   -1.5806 C   0  0  0  0  0  0  0  0  0  0  0  0
   -3.1044   -1.3268   -0.8785 C   0  0  0  0  0  0  0  0  0  0  0  0
   -4.0910   -2.1594   -1.3769 C   0  0  0  0  0  0  0  0  0  0  0  0
   -5.1210   -2.2069   -0.4801 N   0  0  0  0  0  0  0  0  0  0  0  0
   -4.8364   -1.4210    0.6095 C   0  0  0  0  0  0  0  0  0  0  0  0
   -5.5960   -1.1769    1.7605 C   0  0  0  0  0  0  0  0  0  0  0  0
   -5.0524   -0.3208    2.7143 C   0  0  0  0  0  0  0  0  0  0  0  0
   -5.7490   -0.0624    3.8299 F   0  0  0  0  0  0  0  0  0  0  0  0
   -3.8110    0.2724    2.5406 C   0  0  0  0  0  0  0  0  0  0  0  0
   -3.0649    0.0160    1.3843 C   0  0  0  0  0  0  0  0  0  0  0  0
   -3.5787   -0.8496    0.3921 C   0  0  0  0  0  0  0  0  0  0  0  0
   -1.6277    0.4570   -1.9122 C   0  0  0  0  0  0  0  0  0  0  0  0
   -0.2065    0.7376   -2.3805 C   0  0  0  0  0  0  0  0  0  0  0  0
    2.5058    0.8551    0.6565 H   0  0  0  0  0  0  0  0  0  0  0  0
    3.3048   -0.3350   -0.4020 H   0  0  0  0  0  0  0  0  0  0  0  0
    4.7855    1.4212   -1.3156 H   0  0  0  0  0  0  0  0  0  0  0  0
    3.9419    2.6592   -0.3936 H   0  0  0  0  0  0  0  0  0  0  0  0
    5.5730    3.3467    1.7633 H   0  0  0  0  0  0  0  0  0  0  0  0
    7.0266    1.8947    3.2725 H   0  0  0  0  0  0  0  0  0  0  0  0
    6.9443   -0.5549    2.5972 H   0  0  0  0  0  0  0  0  0  0  0  0
   -0.0330   -0.0115    0.4807 H   0  0  0  0  0  0  0  0  0  0  0  0
    1.2838   -1.0949    0.0522 H   0  0  0  0  0  0  0  0  0  0  0  0
   -0.0432   -2.2671   -1.5758 H   0  0  0  0  0  0  0  0  0  0  0  0
   -0.8775   -2.2909   -0.0357 H   0  0  0  0  0  0  0  0  0  0  0  0
   -1.8540   -1.5505   -2.5497 H   0  0  0  0  0  0  0  0  0  0  0  0
   -4.1424   -2.7243   -2.2990 H   0  0  0  0  0  0  0  0  0  0  0  0
   -5.9698   -2.7438   -0.5956 H   0  0  0  0  0  0  0  0  0  0  0  0
   -6.5692   -1.6269    1.9165 H   0  0  0  0  0  0  0  0  0  0  0  0
   -3.4238    0.9365    3.3068 H   0  0  0  0  0  0  0  0  0  0  0  0
   -2.0998    0.4939    1.2608 H   0  0  0  0  0  0  0  0  0  0  0  0
   -1.8472    1.0867   -1.0426 H   0  0  0  0  0  0  0  0  0  0  0  0
   -2.3421    0.7499   -2.6916 H   0  0  0  0  0  0  0  0  0  0  0  0
    0.0234    0.1575   -3.2825 H   0  0  0  0  0  0  0  0  0  0  0  0
   -0.1084    1.7979   -2.6399 H   0  0  0  0  0  0  0  0  0  0  0  0
  1  2  2  0
  2  3  1  0
  3  4  1  0
  4  5  1  0
  5  6  2  0
  6  7  1  0
  7  8  1  0
  8  9  2  0
  2 10  1  0
 10 11  1  0
 11 12  1  0
 12 13  1  0
 13 14  1  0
 14 15  2  0
 15 16  1  0
 16 17  1  0
 17 18  2  0
 18 19  1  0
 19 20  1  0
 19 21  2  0
 21 22  1  0
 22 23  2  0
 13 24  1  0
 24 25  1  0
  9  5  1  0
 25 10  1  0
 23 14  1  0
 23 17  1  0
  3 26  1  0
  3 27  1  0
  4 28  1  0
  4 29  1  0
  6 30  1  0
  7 31  1  0
  8 32  1  0
 11 33  1  0
 11 34  1  0
 12 35  1  0
 12 36  1  0
 13 37  1  0
 15 38  1  0
 16 39  1  0
 18 40  1  0
 21 41  1  0
 22 42  1  0
 24 43  1  0
 24 44  1  0
 25 45  1  0
 25 46  1  0
M  END
$$$$
OCNT-2317693
     RDKit          3D

 56 59  0  0  0  0  0  0  0  0999 V2000
   -6.4445   -2.1871    1.5590 C   0  0  0  0  0  0  0  0  0  0  0  0
   -6.4392   -0.8048    1.0181 C   0  0  0  0  0  0  0  0  0  0  0  0
   -7.1663    0.1474    1.6115 N   0  0  0  0  0  0  0  0  0  0  0  0
   -6.9378    1.2403    0.8720 N   0  0  0  0  0  0  0  0  0  0  0  0
   -6.0904    1.0283   -0.1784 C   0  0  0  0  0  0  0  0  0  0  0  0
   -5.7210    2.1191   -1.1109 C   0  0  0  0  0  0  0  0  0  0  0  0
   -5.7278   -0.3047   -0.1115 C   0  0  0  0  0  0  0  0  0  0  0  0
   -4.8076   -1.0644   -1.0151 C   0  0  0  0  0  0  0  0  0  0  0  0
   -3.3859   -1.1715   -0.4615 C   0  0  0  0  0  0  0  0  0  0  0  0
   -2.5297    0.0505   -0.7552 C   0  0  0  0  0  0  0  0  0  0  0  0
   -2.8389    0.8669   -1.6232 O   0  0  0  0  0  0  0  0  0  0  0  0
   -1.3555    0.1825   -0.0183 N   0  0  0  0  0  0  0  0  0  0  0  0
   -0.6439   -0.9537    0.5990 C   0  0  0  0  0  0  0  0  0  0  0  0
    0.5225   -1.3891   -0.3095 C   0  0  0  0  0  0  0  0  0  0  0  0
    1.3963   -0.2433   -0.6041 N   0  0  0  0  0  0  0  0  0  0  0  0
    2.5488   -0.0921    0.1743 C   0  0  0  0  0  0  0  0  0  0  0  0
    2.8254   -0.9025    1.0600 O   0  0  0  0  0  0  0  0  0  0  0  0
    3.4219    1.1226   -0.1346 C   0  0  0  0  0  0  0  0  0  0  0  0
    4.8214    1.0013    0.3819 C   0  0  0  0  0  0  0  0  0  0  0  0
    5.3381    1.6058    1.5124 C   0  0  0  0  0  0  0  0  0  0  0  0
    6.6532    1.2451    1.6298 N   0  0  0  0  0  0  0  0  0  0  0  0
    7.0201    0.4307    0.5846 C   0  0  0  0  0  0  0  0  0  0  0  0
    8.2549   -0.1613    0.2928 C   0  0  0  0  0  0  0  0  0  0  0  0
    8.3363   -0.9604   -0.8511 C   0  0  0  0  0  0  0  0  0  0  0  0
    7.2253   -1.1598   -1.6668 C   0  0  0  0  0  0  0  0  0  0  0  0
    5.9980   -0.5606   -1.3597 C   0  0  0  0  0  0  0  0  0  0  0  0
    5.8895    0.2534   -0.2131 C   0  0  0  0  0  0  0  0  0  0  0  0
    0.6849    0.8933   -1.2191 C   0  0  0  0  0  0  0  0  0  0  0  0
   -0.4831    1.3289   -0.3124 C   0  0  0  0  0  0  0  0  0  0  0  0
   -7.0818   -2.2713    2.4454 H   0  0  0  0  0  0  0  0  0  0  0  0
   -5.4319   -2.4907    1.8421 H   0  0  0  0  0  0  0  0  0  0  0  0
   -6.8188   -2.8888    0.8068 H   0  0  0  0  0  0  0  0  0  0  0  0
   -7.3973    2.1039    1.1396 H   0  0  0  0  0  0  0  0  0  0  0  0
   -5.5134    1.7293   -2.1119 H   0  0  0  0  0  0  0  0  0  0  0  0
   -6.5311    2.8501   -1.2037 H   0  0  0  0  0  0  0  0  0  0  0  0
   -4.8303    2.6425   -0.7497 H   0  0  0  0  0  0  0  0  0  0  0  0
   -4.8138   -0.6263   -2.0197 H   0  0  0  0  0  0  0  0  0  0  0  0
   -5.2096   -2.0794   -1.1307 H   0  0  0  0  0  0  0  0  0  0  0  0
   -3.4172   -1.3470    0.6193 H   0  0  0  0  0  0  0  0  0  0  0  0
   -2.8906   -2.0240   -0.9418 H   0  0  0  0  0  0  0  0  0  0  0  0
   -1.3056   -1.8024    0.7784 H   0  0  0  0  0  0  0  0  0  0  0  0
   -0.2653   -0.6091    1.5683 H   0  0  0  0  0  0  0  0  0  0  0  0
    1.0833   -2.2060    0.1552 H   0  0  0  0  0  0  0  0  0  0  0  0
    0.1370   -1.7546   -1.2689 H   0  0  0  0  0  0  0  0  0  0  0  0
    2.9408    2.0043    0.3050 H   0  0  0  0  0  0  0  0  0  0  0  0
    3.4717    1.2639   -1.2205 H   0  0  0  0  0  0  0  0  0  0  0  0
    4.8779    2.2502    2.2494 H   0  0  0  0  0  0  0  0  0  0  0  0
    7.2719    1.5316    2.3752 H   0  0  0  0  0  0  0  0  0  0  0  0
    9.1206   -0.0122    0.9294 H   0  0  0  0  0  0  0  0  0  0  0  0
    9.2805   -1.4368   -1.1042 H   0  0  0  0  0  0  0  0  0  0  0  0
    7.3084   -1.7899   -2.5486 H   0  0  0  0  0  0  0  0  0  0  0  0
    5.1374   -0.7302   -1.9993 H   0  0  0  0  0  0  0  0  0  0  0  0
    0.3067    0.5503   -2.1892 H   0  0  0  0  0  0  0  0  0  0  0  0
    1.3480    1.7414   -1.3970 H   0  0  0  0  0  0  0  0  0  0  0  0
   -1.0435    2.1445   -0.7799 H   0  0  0  0  0  0  0  0  0  0  0  0
   -0.0994    1.6961    0.6470 H   0  0  0  0  0  0  0  0  0  0  0  0
  1  2  1  0
  2  3  2  0
  3  4  1  0
  4  5  1  0
  5  6  1  0
  5  7  2  0
  7  8  1  0
  8  9  1  0
  9 10  1  0
 10 11  2  0
 10 12  1  0
 12 13  1  0
 13 14  1  0
 14 15  1  0
 15 16  1  0
 16 17  2  0
 16 18  1  0
 18 19  1  0
 19 20  2  0
 20 21  1  0
 21 22  1  0
 22 23  2  0
 23 24  1  0
 24 25  2  0
 25 26  1  0
 26 27  2  0
 15 28  1  0
 28 29  1  0
  7  2  1  0
 29 12  1  0
 27 19  1  0
 27 22  1  0
  1 30  1  0
  1 31  1  0
  1 32  1  0
  4 33  1  0
  6 34  1  0
  6 35  1  0
  6 36  1  0
  8 37  1  0
  8 38  1  0
  9 39  1  0
  9 40  1  0
 13 41  1  0
 13 42  1  0
 14 43  1  0
 14 44  1  0
 18 45  1  0
 18 46  1  0
 20 47  1  0
 21 48  1  0
 23 49  1  0
 24 50  1  0
 25 51  1  0
 26 52  1  0
 28 53  1  0
 28 54  1  0
 29 55  1  0
 29 56  1  0
M  END
$$$$
OCNT-2317695
     RDKit          3D

 40 42  0  0  0  0  0  0  0  0999 V2000
    3.9699    2.1064    2.1845 C   0  0  0  0  0  0  0  0  0  0  0  0
    4.7615    1.2096    1.3006 C   0  0  0  0  0  0  0  0  0  0  0  0
    6.0830    1.1972    1.2958 N   0  0  0  0  0  0  0  0  0  0  0  0
    6.4457    0.1446    0.5133 C   0  0  0  0  0  0  0  0  0  0  0  0
    5.3374   -0.4899    0.0163 C   0  0  0  0  0  0  0  0  0  0  0  0
    4.2400    0.2168    0.4686 N   0  0  0  0  0  0  0  0  0  0  0  0
    2.8862   -0.0408    0.1100 C   0  0  0  0  0  0  0  0  0  0  0  0
    1.9408    0.9927    0.0752 C   0  0  0  0  0  0  0  0  0  0  0  0
    0.6164    0.7308   -0.2965 C   0  0  0  0  0  0  0  0  0  0  0  0
    0.2140   -0.5624   -0.6536 C   0  0  0  0  0  0  0  0  0  0  0  0
   -1.2224   -0.8429   -1.0261 C   0  0  0  0  0  0  0  0  0  0  0  0
   -1.9883   -1.2105    0.1617 N   0  0  0  0  0  0  0  0  0  0  0  0
   -3.4178   -1.3966   -0.1415 C   0  0  0  0  0  0  0  0  0  0  0  0
   -4.0615   -2.1369    1.0315 C   0  0  0  0  0  0  0  0  0  0  0  0
   -4.0765   -0.0573   -0.3508 C   0  0  0  0  0  0  0  0  0  0  0  0
   -5.1254    0.2714   -1.1849 C   0  0  0  0  0  0  0  0  0  0  0  0
   -5.3354    1.6091   -0.9943 N   0  0  0  0  0  0  0  0  0  0  0  0
   -4.4235    2.0445   -0.0760 C   0  0  0  0  0  0  0  0  0  0  0  0
   -3.6455    1.0685    0.3299 N   0  0  0  0  0  0  0  0  0  0  0  0
    1.1573   -1.5939   -0.6154 C   0  0  0  0  0  0  0  0  0  0  0  0
    2.4769   -1.3313   -0.2475 C   0  0  0  0  0  0  0  0  0  0  0  0
    3.3174   -2.3751   -0.1968 F   0  0  0  0  0  0  0  0  0  0  0  0
    4.5820    2.4226    3.0364 H   0  0  0  0  0  0  0  0  0  0  0  0
    3.6669    3.0104    1.6488 H   0  0  0  0  0  0  0  0  0  0  0  0
    3.0882    1.6052    2.5936 H   0  0  0  0  0  0  0  0  0  0  0  0
    7.4853   -0.1049    0.3455 H   0  0  0  0  0  0  0  0  0  0  0  0
    5.2530   -1.3350   -0.6506 H   0  0  0  0  0  0  0  0  0  0  0  0
    2.2040    2.0243    0.2828 H   0  0  0  0  0  0  0  0  0  0  0  0
   -0.1059    1.5464   -0.3104 H   0  0  0  0  0  0  0  0  0  0  0  0
   -1.2472   -1.6573   -1.7610 H   0  0  0  0  0  0  0  0  0  0  0  0
   -1.6334    0.0422   -1.5270 H   0  0  0  0  0  0  0  0  0  0  0  0
   -1.9440   -0.4249    0.8187 H   0  0  0  0  0  0  0  0  0  0  0  0
   -3.5347   -2.0156   -1.0399 H   0  0  0  0  0  0  0  0  0  0  0  0
   -3.5875   -3.1125    1.1875 H   0  0  0  0  0  0  0  0  0  0  0  0
   -3.9825   -1.5676    1.9654 H   0  0  0  0  0  0  0  0  0  0  0  0
   -5.1272   -2.3107    0.8434 H   0  0  0  0  0  0  0  0  0  0  0  0
   -5.7225   -0.3143   -1.8694 H   0  0  0  0  0  0  0  0  0  0  0  0
   -6.0380    2.1786   -1.4458 H   0  0  0  0  0  0  0  0  0  0  0  0
   -4.3766    3.0736    0.2545 H   0  0  0  0  0  0  0  0  0  0  0  0
    0.8703   -2.6145   -0.8541 H   0  0  0  0  0  0  0  0  0  0  0  0
  1  2  1  0
  2  3  2  0
  3  4  1  0
  4  5  2  0
  5  6  1  0
  6  7  1  0
  7  8  1  0
  8  9  2  0
  9 10  1  0
 10 11  1  0
 11 12  1  0
 12 13  1  0
 13 14  1  0
 13 15  1  0
 15 16  2  0
 16 17  1  0
 17 18  1  0
 18 19  2  0
 10 20  2  0
 20 21  1  0
 21 22  1  0
  6  2  1  0
 21  7  2  0
 19 15  1  0
  1 23  1  0
  1 24  1  0
  1 25  1  0
  4 26  1  0
  5 27  1  0
  8 28  1  0
  9 29  1  0
 11 30  1  0
 11 31  1  0
 12 32  1  0
 13 33  1  0
 14 34  1  0
 14 35  1  0
 14 36  1  0
 16 37  1  0
 17 38  1  0
 18 39  1  0
 20 40  1  0
M  END
$$$$
OCNT-2317700
     RDKit          3D

 51 54  0  0  0  0  0  0  0  0999 V2000
    1.1854   -0.0676   -1.7454 O   0  0  0  0  0  0  0  0  0  0  0  0
    0.8009   -0.0745   -0.5852 C   0  0  0  0  0  0  0  0  0  0  0  0
   -0.5133    0.0100   -0.2023 N   0  0  0  0  0  0  0  0  0  0  0  0
   -1.5593    0.0164   -1.2104 C   0  0  0  0  0  0  0  0  0  0  0  0
   -2.9867    0.2743   -0.6447 C   0  0  0  0  0  0  0  0  0  0  0  0
   -3.4632   -0.9635    0.1269 C   0  0  0  0  0  0  0  0  0  0  0  0
   -4.2274   -1.9696   -0.4980 C   0  0  0  0  0  0  0  0  0  0  0  0
   -4.6561   -3.1044    0.2031 C   0  0  0  0  0  0  0  0  0  0  0  0
   -4.3185   -3.2685    1.5429 C   0  0  0  0  0  0  0  0  0  0  0  0
   -3.5446   -2.3015    2.1676 C   0  0  0  0  0  0  0  0  0  0  0  0
   -3.1924   -2.4706    3.4498 F   0  0  0  0  0  0  0  0  0  0  0  0
   -3.1183   -1.1714    1.4723 C   0  0  0  0  0  0  0  0  0  0  0  0
   -2.3229   -0.2972    2.1073 F   0  0  0  0  0  0  0  0  0  0  0  0
   -3.0640    1.5819    0.1804 C   0  0  0  0  0  0  0  0  0  0  0  0
   -3.0637    2.7144   -0.8406 C   0  0  0  0  0  0  0  0  0  0  0  0
   -3.6835    2.1341   -2.1049 C   0  0  0  0  0  0  0  0  0  0  0  0
   -3.9378    0.6569   -1.8107 C   0  0  0  0  0  0  0  0  0  0  0  0
    1.6221   -0.1645    0.5104 N   0  0  0  0  0  0  0  0  0  0  0  0
    3.0750   -0.1592    0.3566 C   0  0  0  0  0  0  0  0  0  0  0  0
    3.6000    1.2773    0.0875 C   0  0  0  0  0  0  0  0  0  0  0  0
    5.1194    1.3060   -0.1701 C   0  0  0  0  0  0  0  0  0  0  0  0
    5.7992    0.4320    0.8143 C   0  0  0  0  0  0  0  0  0  0  0  0
    5.2111   -0.5288    1.6036 C   0  0  0  0  0  0  0  0  0  0  0  0
    6.2756   -1.0845    2.3324 C   0  0  0  0  0  0  0  0  0  0  0  0
    7.4477   -0.5187    2.0232 N   0  0  0  0  0  0  0  0  0  0  0  0
    7.1319    0.4000    1.0903 N   0  0  0  0  0  0  0  0  0  0  0  0
    3.7520   -0.7988    1.5998 C   0  0  0  0  0  0  0  0  0  0  0  0
   -0.7145   -0.4671    0.6658 H   0  0  0  0  0  0  0  0  0  0  0  0
   -1.2829    0.7754   -1.9519 H   0  0  0  0  0  0  0  0  0  0  0  0
   -1.5196   -0.9503   -1.7293 H   0  0  0  0  0  0  0  0  0  0  0  0
   -4.5017   -1.8931   -1.5486 H   0  0  0  0  0  0  0  0  0  0  0  0
   -5.2504   -3.8619   -0.3039 H   0  0  0  0  0  0  0  0  0  0  0  0
   -4.6405   -4.1443    2.0970 H   0  0  0  0  0  0  0  0  0  0  0  0
   -4.0016    1.6176    0.7519 H   0  0  0  0  0  0  0  0  0  0  0  0
   -2.2467    1.7083    0.8968 H   0  0  0  0  0  0  0  0  0  0  0  0
   -2.0383    3.0441   -1.0447 H   0  0  0  0  0  0  0  0  0  0  0  0
   -3.6189    3.5839   -0.4747 H   0  0  0  0  0  0  0  0  0  0  0  0
   -2.9968    2.2507   -2.9507 H   0  0  0  0  0  0  0  0  0  0  0  0
   -4.6144    2.6461   -2.3704 H   0  0  0  0  0  0  0  0  0  0  0  0
   -3.7869    0.0439   -2.7064 H   0  0  0  0  0  0  0  0  0  0  0  0
   -4.9879    0.5434   -1.5090 H   0  0  0  0  0  0  0  0  0  0  0  0
    1.2498    0.2810    1.3374 H   0  0  0  0  0  0  0  0  0  0  0  0
    3.3153   -0.7736   -0.5224 H   0  0  0  0  0  0  0  0  0  0  0  0
    3.0846    1.7268   -0.7694 H   0  0  0  0  0  0  0  0  0  0  0  0
    3.3646    1.9098    0.9545 H   0  0  0  0  0  0  0  0  0  0  0  0
    5.4884    2.3352   -0.1056 H   0  0  0  0  0  0  0  0  0  0  0  0
    5.3258    0.9386   -1.1822 H   0  0  0  0  0  0  0  0  0  0  0  0
    6.2532   -1.8721    3.0746 H   0  0  0  0  0  0  0  0  0  0  0  0
    7.8782    0.9602    0.6913 H   0  0  0  0  0  0  0  0  0  0  0  0
    3.5581   -1.8778    1.6116 H   0  0  0  0  0  0  0  0  0  0  0  0
    3.3147   -0.3848    2.5174 H   0  0  0  0  0  0  0  0  0  0  0  0
  1  2  2  0
  2  3  1  0
  3  4  1  0
  4  5  1  0
  5  6  1  0
  6  7  2  0
  7  8  1  0
  8  9  2  0
  9 10  1  0
 10 11  1  0
 10 12  2  0
 12 13  1  0
  5 14  1  0
 14 15  1  0
 15 16  1  0
 16 17  1  0
  2 18  1  0
 18 19  1  0
 19 20  1  0
 20 21  1  0
 21 22  1  0
 22 23  2  0
 23 24  1  0
 24 25  2  0
 25 26  1  0
 23 27  1  0
 17  5  1  0
 27 19  1  0
 12  6  1  0
 26 22  1  0
  3 28  1  0
  4 29  1  0
  4 30  1  0
  7 31  1  0
  8 32  1  0
  9 33  1  0
 14 34  1  0
 14 35  1  0
 15 36  1  0
 15 37  1  0
 16 38  1  0
 16 39  1  0
 17 40  1  0
 17 41  1  0
 18 42  1  0
 19 43  1  0
 20 44  1  0
 20 45  1  0
 21 46  1  0
 21 47  1  0
 24 48  1  0
 26 49  1  0
 27 50  1  0
 27 51  1  0
M  END
$$$$
OCNT-2317709
     RDKit          3D

 52 54  0  0  0  0  0  0  0  0999 V2000
   -2.9520   -2.1819   -1.9818 C   0  0  0  0  0  0  0  0  0  0  0  0
   -2.5775   -1.4720   -0.6791 C   0  0  0  0  0  0  0  0  0  0  0  0
   -1.8275   -2.4384    0.2404 C   0  0  0  0  0  0  0  0  0  0  0  0
   -1.7471   -0.2139   -0.9940 C   0  0  0  0  0  0  0  0  0  0  0  0
   -1.5107    0.6445    0.1495 N   0  0  0  0  0  0  0  0  0  0  0  0
   -2.4352    1.4476    0.7865 C   0  0  0  0  0  0  0  0  0  0  0  0
   -3.7996    1.7139    0.3559 C   0  0  0  0  0  0  0  0  0  0  0  0
   -4.1009    2.2618   -0.8931 C   0  0  0  0  0  0  0  0  0  0  0  0
   -5.4297    2.4918   -1.2458 C   0  0  0  0  0  0  0  0  0  0  0  0
   -6.4189    2.1710   -0.3305 C   0  0  0  0  0  0  0  0  0  0  0  0
   -6.1687    1.6541    0.8905 N   0  0  0  0  0  0  0  0  0  0  0  0
   -4.8662    1.4535    1.2110 C   0  0  0  0  0  0  0  0  0  0  0  0
   -1.8973    1.8862    1.9076 N   0  0  0  0  0  0  0  0  0  0  0  0
   -0.6110    1.4185    1.9830 N   0  0  0  0  0  0  0  0  0  0  0  0
   -0.3593    0.7128    0.9028 C   0  0  0  0  0  0  0  0  0  0  0  0
    0.7863    0.0564    0.5624 N   0  0  0  0  0  0  0  0  0  0  0  0
    1.5374    0.5942   -0.5967 C   0  0  0  0  0  0  0  0  0  0  0  0
    2.9442    1.1081   -0.2089 C   0  0  0  0  0  0  0  0  0  0  0  0
    3.8194    0.1193    0.4664 N   0  0  0  0  0  0  0  0  0  0  0  0
    4.8328   -0.4953   -0.4166 C   0  0  0  0  0  0  0  0  0  0  0  0
    5.6058   -1.6411    0.2623 C   0  0  0  0  0  0  0  0  0  0  0  0
    5.8736    0.5457   -0.8649 C   0  0  0  0  0  0  0  0  0  0  0  0
    2.9985   -0.8690    1.2074 C   0  0  0  0  0  0  0  0  0  0  0  0
    1.6544   -0.2994    1.7103 C   0  0  0  0  0  0  0  0  0  0  0  0
   -3.5661   -3.0662   -1.7810 H   0  0  0  0  0  0  0  0  0  0  0  0
   -3.5286   -1.5177   -2.6343 H   0  0  0  0  0  0  0  0  0  0  0  0
   -2.0601   -2.5056   -2.5291 H   0  0  0  0  0  0  0  0  0  0  0  0
   -3.5089   -1.1842   -0.1772 H   0  0  0  0  0  0  0  0  0  0  0  0
   -0.8650   -2.7328   -0.1916 H   0  0  0  0  0  0  0  0  0  0  0  0
   -1.6390   -1.9883    1.2199 H   0  0  0  0  0  0  0  0  0  0  0  0
   -2.4142   -3.3481    0.4079 H   0  0  0  0  0  0  0  0  0  0  0  0
   -0.7851   -0.5022   -1.4280 H   0  0  0  0  0  0  0  0  0  0  0  0
   -2.2432    0.3953   -1.7563 H   0  0  0  0  0  0  0  0  0  0  0  0
   -3.3108    2.5346   -1.5871 H   0  0  0  0  0  0  0  0  0  0  0  0
   -5.6875    2.9214   -2.2075 H   0  0  0  0  0  0  0  0  0  0  0  0
   -7.4687    2.3331   -0.5584 H   0  0  0  0  0  0  0  0  0  0  0  0
   -4.6986    1.0559    2.2099 H   0  0  0  0  0  0  0  0  0  0  0  0
    1.6417   -0.2088   -1.3368 H   0  0  0  0  0  0  0  0  0  0  0  0
    0.9885    1.4085   -1.0874 H   0  0  0  0  0  0  0  0  0  0  0  0
    2.8211    1.9513    0.4837 H   0  0  0  0  0  0  0  0  0  0  0  0
    3.4088    1.5335   -1.1028 H   0  0  0  0  0  0  0  0  0  0  0  0
    4.3414   -0.9077   -1.3075 H   0  0  0  0  0  0  0  0  0  0  0  0
    6.0709   -1.3088    1.1973 H   0  0  0  0  0  0  0  0  0  0  0  0
    6.4022   -2.0127   -0.3926 H   0  0  0  0  0  0  0  0  0  0  0  0
    4.9600   -2.4965    0.4842 H   0  0  0  0  0  0  0  0  0  0  0  0
    6.6632    0.0719   -1.4594 H   0  0  0  0  0  0  0  0  0  0  0  0
    5.4421    1.3299   -1.4925 H   0  0  0  0  0  0  0  0  0  0  0  0
    6.3499    1.0258   -0.0023 H   0  0  0  0  0  0  0  0  0  0  0  0
    3.5680   -1.2277    2.0721 H   0  0  0  0  0  0  0  0  0  0  0  0
    2.7737   -1.7324    0.5667 H   0  0  0  0  0  0  0  0  0  0  0  0
    1.1494   -1.0608    2.3173 H   0  0  0  0  0  0  0  0  0  0  0  0
    1.8443    0.5707    2.3532 H   0  0  0  0  0  0  0  0  0  0  0  0
  1  2  1  0
  2  3  1  0
  2  4  1  0
  4  5  1  0
  5  6  1  0
  6  7  1  0
  7  8  1  0
  8  9  2  0
  9 10  1  0
 10 11  2  0
 11 12  1  0
  6 13  2  0
 13 14  1  0
 14 15  2  0
 15 16  1  0
 16 17  1  0
 17 18  1  0
 18 19  1  0
 19 20  1  0
 20 21  1  0
 20 22  1  0
 19 23  1  0
 23 24  1  0
 15  5  1  0
 24 16  1  0
 12  7  2  0
  1 25  1  0
  1 26  1  0
  1 27  1  0
  2 28  1  0
  3 29  1  0
  3 30  1  0
  3 31  1  0
  4 32  1  0
  4 33  1  0
  8 34  1  0
  9 35  1  0
 10 36  1  0
 12 37  1  0
 17 38  1  0
 17 39  1  0
 18 40  1  0
 18 41  1  0
 20 42  1  0
 21 43  1  0
 21 44  1  0
 21 45  1  0
 22 46  1  0
 22 47  1  0
 22 48  1  0
 23 49  1  0
 23 50  1  0
 24 51  1  0
 24 52  1  0
M  END
$$$$
OCNT-2317724
     RDKit          3D

 45 48  0  0  0  0  0  0  0  0999 V2000
   -0.2236    0.6254    2.7077 O   0  0  0  0  0  0  0  0  0  0  0  0
   -0.4871   -0.3275    1.9768 C   0  0  0  0  0  0  0  0  0  0  0  0
    0.3115   -1.4595    1.9498 N   0  0  0  0  0  0  0  0  0  0  0  0
    1.5415   -1.5222    2.7027 C   0  0  0  0  0  0  0  0  0  0  0  0
    2.7204   -1.1590    1.8481 C   0  0  0  0  0  0  0  0  0  0  0  0
    3.4902   -2.1299    1.2043 C   0  0  0  0  0  0  0  0  0  0  0  0
    4.5705   -1.7494    0.4056 C   0  0  0  0  0  0  0  0  0  0  0  0
    4.8524   -0.3931    0.2651 C   0  0  0  0  0  0  0  0  0  0  0  0
    5.9432    0.0422   -0.5383 N   0  0  0  0  0  0  0  0  0  0  0  0
    6.3114    1.3543   -0.7519 C   0  0  0  0  0  0  0  0  0  0  0  0
    7.4042    1.3123   -1.5825 C   0  0  0  0  0  0  0  0  0  0  0  0
    7.7276    0.0200   -1.8920 N   0  0  0  0  0  0  0  0  0  0  0  0
    6.8409   -0.7155   -1.2555 C   0  0  0  0  0  0  0  0  0  0  0  0
    4.1114    0.5670    0.8755 N   0  0  0  0  0  0  0  0  0  0  0  0
    3.0697    0.1697    1.6421 C   0  0  0  0  0  0  0  0  0  0  0  0
   -1.6456   -0.3562    1.0584 C   0  0  0  0  0  0  0  0  0  0  0  0
   -2.3650    0.7531    0.8055 N   0  0  0  0  0  0  0  0  0  0  0  0
   -3.3220    0.3658   -0.0529 N   0  0  0  0  0  0  0  0  0  0  0  0
   -4.2804    1.3463   -0.5363 C   0  0  0  0  0  0  0  0  0  0  0  0
   -4.1197    1.6428   -2.0364 C   0  0  0  0  0  0  0  0  0  0  0  0
   -5.5406    1.7386   -2.5741 C   0  0  0  0  0  0  0  0  0  0  0  0
   -6.3007    0.7206   -1.7420 C   0  0  0  0  0  0  0  0  0  0  0  0
   -5.7481    0.9279   -0.3376 C   0  0  0  0  0  0  0  0  0  0  0  0
   -3.2505   -0.9588   -0.3709 C   0  0  0  0  0  0  0  0  0  0  0  0
   -2.1817   -1.4591    0.3332 C   0  0  0  0  0  0  0  0  0  0  0  0
    0.1766   -2.1306    1.2096 H   0  0  0  0  0  0  0  0  0  0  0  0
    1.6424   -2.5503    3.0683 H   0  0  0  0  0  0  0  0  0  0  0  0
    1.4949   -0.8738    3.5850 H   0  0  0  0  0  0  0  0  0  0  0  0
    3.2598   -3.1862    1.3218 H   0  0  0  0  0  0  0  0  0  0  0  0
    5.1533   -2.5241   -0.0781 H   0  0  0  0  0  0  0  0  0  0  0  0
    5.7714    2.1761   -0.3023 H   0  0  0  0  0  0  0  0  0  0  0  0
    7.9732    2.1463   -1.9727 H   0  0  0  0  0  0  0  0  0  0  0  0
    6.8161   -1.7950   -1.2888 H   0  0  0  0  0  0  0  0  0  0  0  0
    2.5025    0.9799    2.0981 H   0  0  0  0  0  0  0  0  0  0  0  0
   -4.1040    2.2659    0.0376 H   0  0  0  0  0  0  0  0  0  0  0  0
   -3.5820    0.8408   -2.5564 H   0  0  0  0  0  0  0  0  0  0  0  0
   -3.5625    2.5697   -2.2082 H   0  0  0  0  0  0  0  0  0  0  0  0
   -5.9422    2.7445   -2.4039 H   0  0  0  0  0  0  0  0  0  0  0  0
   -5.5939    1.5255   -3.6455 H   0  0  0  0  0  0  0  0  0  0  0  0
   -6.0808   -0.2952   -2.0904 H   0  0  0  0  0  0  0  0  0  0  0  0
   -7.3831    0.8706   -1.7873 H   0  0  0  0  0  0  0  0  0  0  0  0
   -6.2931    1.7504    0.1429 H   0  0  0  0  0  0  0  0  0  0  0  0
   -5.8820    0.0404    0.2889 H   0  0  0  0  0  0  0  0  0  0  0  0
   -3.9502   -1.4254   -1.0498 H   0  0  0  0  0  0  0  0  0  0  0  0
   -1.8461   -2.4854    0.3293 H   0  0  0  0  0  0  0  0  0  0  0  0
  1  2  2  0
  2  3  1  0
  3  4  1  0
  4  5  1  0
  5  6  2  0
  6  7  1  0
  7  8  2  0
  8  9  1  0
  9 10  1  0
 10 11  2  0
 11 12  1  0
 12 13  2  0
  8 14  1  0
 14 15  2  0
  2 16  1  0
 16 17  2  0
 17 18  1  0
 18 19  1  0
 19 20  1  0
 20 21  1  0
 21 22  1  0
 22 23  1  0
 18 24  1  0
 24 25  2  0
 15  5  1  0
 25 16  1  0
 13  9  1  0
 23 19  1  0
  3 26  1  0
  4 27  1  0
  4 28  1  0
  6 29  1  0
  7 30  1  0
 10 31  1  0
 11 32  1  0
 13 33  1  0
 15 34  1  0
 19 35  1  0
 20 36  1  0
 20 37  1  0
 21 38  1  0
 21 39  1  0
 22 40  1  0
 22 41  1  0
 23 42  1  0
 23 43  1  0
 24 44  1  0
 25 45  1  0
M  END
$$$$
OCNT-2317729
     RDKit          3D

  0  0  0  0  0  0  0  0  0  0999 V3000
M  V30 BEGIN CTAB
M  V30 COUNTS 46 49 0 0 0
M  V30 BEGIN ATOM
M  V30 1 C -4.076338 -0.449610 2.323455 0
M  V30 2 C -5.059739 -0.336042 1.191052 0
M  V30 3 C -6.283965 -1.018375 1.283991 0
M  V30 4 C -7.224483 -0.948418 0.255352 0
M  V30 5 C -6.953468 -0.198284 -0.882869 0
M  V30 6 C -5.743283 0.485766 -0.990924 0
M  V30 7 C -4.789206 0.437413 0.041763 0
M  V30 8 C -3.490625 1.178376 -0.150426 0
M  V30 9 N -2.518266 0.332553 -0.803768 0
M  V30 10 C -1.359177 0.879990 -1.318094 0
M  V30 11 O -1.150480 2.089542 -1.343797 0
M  V30 12 C -0.374971 -0.130813 -1.863421 0
M  V30 13 C 0.801234 -0.239035 -0.977884 0
M  V30 14 N 0.740143 -0.804450 0.237475 0
M  V30 15 O 2.054207 -0.713698 0.698048 0
M  V30 16 C 2.782548 -0.128672 -0.302363 0
M  V30 17 C 4.308358 0.178348 -0.197093 0 CFG=2
M  V30 18 C 5.158590 -0.449276 -1.344538 0
M  V30 19 C 5.549564 -1.585640 -0.380575 0
M  V30 20 C 5.102858 -0.692560 0.794743 0 CFG=1
M  V30 21 C 6.113080 0.270360 1.400399 0
M  V30 22 N 5.456362 1.577191 1.421867 0
M  V30 23 C 4.616896 1.615081 0.209817 0
M  V30 24 N 2.055700 0.164204 -1.359927 0
M  V30 25 H -3.904616 0.528570 2.775786 0
M  V30 26 H -4.447259 -1.113399 3.108834 0
M  V30 27 H -3.127528 -0.864815 1.968146 0
M  V30 28 H -6.515601 -1.613590 2.164902 0
M  V30 29 H -8.167889 -1.482019 0.344449 0
M  V30 30 H -7.682474 -0.143598 -1.687879 0
M  V30 31 H -5.542419 1.062896 -1.892183 0
M  V30 32 H -3.072932 1.514696 0.802812 0
M  V30 33 H -3.646591 2.081024 -0.749267 0
M  V30 34 H -2.502582 -0.636634 -0.524979 0
M  V30 35 H -0.083163 0.193698 -2.867647 0
M  V30 36 H -0.851750 -1.110220 -1.975683 0
M  V30 37 H 6.012961 0.163841 -1.666568 0
M  V30 38 H 4.617170 -0.775084 -2.241355 0
M  V30 39 H 6.604889 -1.875321 -0.392455 0
M  V30 40 H 4.936014 -2.486486 -0.499523 0
M  V30 41 H 4.513123 -1.211086 1.560156 0
M  V30 42 H 7.025157 0.338040 0.793705 0
M  V30 43 H 6.411824 -0.037379 2.409094 0
M  V30 44 H 4.842208 1.616220 2.238906 0
M  V30 45 H 3.711120 2.195477 0.421844 0
M  V30 46 H 5.154800 2.141217 -0.585795 0
M  V30 END ATOM
M  V30 BEGIN BOND
M  V30 1 1 1 2
M  V30 2 2 2 3
M  V30 3 1 3 4
M  V30 4 2 4 5
M  V30 5 1 5 6
M  V30 6 2 6 7
M  V30 7 1 7 8
M  V30 8 1 8 9
M  V30 9 1 9 10
M  V30 10 2 10 11
M  V30 11 1 10 12
M  V30 12 1 12 13
M  V30 13 2 13 14
M  V30 14 1 14 15
M  V30 15 1 15 16
M  V30 16 1 17 16 CFG=3
M  V30 17 1 17 18
M  V30 18 1 18 19
M  V30 19 1 19 20
M  V30 20 1 20 21
M  V30 21 1 21 22
M  V30 22 1 22 23
M  V30 23 2 16 24
M  V30 24 1 7 2
M  V30 25 1 24 13
M  V30 26 1 20 17
M  V30 27 1 23 17
M  V30 28 1 1 25
M  V30 29 1 1 26
M  V30 30 1 1 27
M  V30 31 1 3 28
M  V30 32 1 4 29
M  V30 33 1 5 30
M  V30 34 1 6 31
M  V30 35 1 8 32
M  V30 36 1 8 33
M  V30 37 1 9 34
M  V30 38 1 12 35
M  V30 39 1 12 36
M  V30 40 1 18 37
M  V30 41 1 18 38
M  V30 42 1 19 39
M  V30 43 1 19 40
M  V30 44 1 20 41 CFG=1
M  V30 45 1 21 42
M  V30 46 1 21 43
M  V30 47 1 22 44
M  V30 48 1 23 45
M  V30 49 1 23 46
M  V30 END BOND
M  V30 BEGIN COLLECTION
M  V30 MDLV30/STERAC1 ATOMS=(2 17 20)
M  V30 END COLLECTION
M  V30 END CTAB
M  END
>  <_CXSMILES_Data>  (1270) 
|&1:16,19|

$$$$
OCNT-2317738
     RDKit          3D

 50 53  0  0  0  0  0  0  0  0999 V2000
   -1.6042   -4.8124    2.8250 Br  0  0  0  0  0  0  0  0  0  0  0  0
   -1.6962   -3.1794    1.8800 C   0  0  0  0  0  0  0  0  0  0  0  0
   -1.8109   -1.9816    2.5771 C   0  0  0  0  0  0  0  0  0  0  0  0
   -1.8717   -0.7700    1.8795 C   0  0  0  0  0  0  0  0  0  0  0  0
   -1.8186   -0.7344    0.4749 C   0  0  0  0  0  0  0  0  0  0  0  0
   -1.8692    0.5864   -0.3299 C   0  0  0  0  0  0  0  0  0  0  0  0
   -0.4965    0.8052   -1.0729 C   0  0  0  0  0  0  0  0  0  0  0  0
    0.6180    1.1961   -0.2028 N   0  0  0  0  0  0  0  0  0  0  0  0
    1.4759    0.0989    0.2769 C   0  0  0  0  0  0  0  0  0  0  0  0
    2.1609   -0.6805   -0.8300 C   0  0  0  0  0  0  0  0  0  0  0  0
    3.0101   -0.0809   -1.7688 C   0  0  0  0  0  0  0  0  0  0  0  0
    3.6063   -0.8533   -2.7614 C   0  0  0  0  0  0  0  0  0  0  0  0
    3.3368   -2.2107   -2.7862 C   0  0  0  0  0  0  0  0  0  0  0  0
    2.5304   -2.8321   -1.8996 N   0  0  0  0  0  0  0  0  0  0  0  0
    1.9698   -2.0559   -0.9437 C   0  0  0  0  0  0  0  0  0  0  0  0
    2.4961    0.6782    1.2362 C   0  0  0  0  0  0  0  0  0  0  0  0
    3.2985    1.7107    1.0314 N   0  0  0  0  0  0  0  0  0  0  0  0
    4.0286    1.8486    2.1824 C   0  0  0  0  0  0  0  0  0  0  0  0
    3.6712    0.8949    3.1034 C   0  0  0  0  0  0  0  0  0  0  0  0
    2.6948    0.1583    2.4935 N   0  0  0  0  0  0  0  0  0  0  0  0
   -2.2012    1.8318    0.5362 C   0  0  0  0  0  0  0  0  0  0  0  0
   -2.3460    3.1075   -0.2955 C   0  0  0  0  0  0  0  0  0  0  0  0
   -2.8009    2.8645   -1.6266 O   0  0  0  0  0  0  0  0  0  0  0  0
   -3.7157    1.7828   -1.6976 C   0  0  0  0  0  0  0  0  0  0  0  0
   -3.0096    0.4619   -1.3948 C   0  0  0  0  0  0  0  0  0  0  0  0
   -1.7037   -1.9665   -0.2028 C   0  0  0  0  0  0  0  0  0  0  0  0
   -1.6434   -3.1783    0.4914 C   0  0  0  0  0  0  0  0  0  0  0  0
   -1.8584   -1.9752    3.6631 H   0  0  0  0  0  0  0  0  0  0  0  0
   -1.9562    0.1410    2.4662 H   0  0  0  0  0  0  0  0  0  0  0  0
   -0.6163    1.6206   -1.7964 H   0  0  0  0  0  0  0  0  0  0  0  0
   -0.2449   -0.0618   -1.6942 H   0  0  0  0  0  0  0  0  0  0  0  0
    1.2300    1.8584   -0.6819 H   0  0  0  0  0  0  0  0  0  0  0  0
    0.8568   -0.5899    0.8604 H   0  0  0  0  0  0  0  0  0  0  0  0
    3.2217    0.9853   -1.7183 H   0  0  0  0  0  0  0  0  0  0  0  0
    4.2701   -0.4057   -3.4924 H   0  0  0  0  0  0  0  0  0  0  0  0
    3.7796   -2.8544   -3.5407 H   0  0  0  0  0  0  0  0  0  0  0  0
    1.3364   -2.5984   -0.2472 H   0  0  0  0  0  0  0  0  0  0  0  0
    4.7723    2.6280    2.2864 H   0  0  0  0  0  0  0  0  0  0  0  0
    4.0140    0.6848    4.1062 H   0  0  0  0  0  0  0  0  0  0  0  0
    2.1997   -0.6283    2.8907 H   0  0  0  0  0  0  0  0  0  0  0  0
   -1.4622    2.0076    1.3270 H   0  0  0  0  0  0  0  0  0  0  0  0
   -3.1550    1.6592    1.0553 H   0  0  0  0  0  0  0  0  0  0  0  0
   -3.0394    3.8014    0.1927 H   0  0  0  0  0  0  0  0  0  0  0  0
   -1.3828    3.6227   -0.3741 H   0  0  0  0  0  0  0  0  0  0  0  0
   -4.1399    1.7542   -2.7066 H   0  0  0  0  0  0  0  0  0  0  0  0
   -4.5479    1.9584   -1.0048 H   0  0  0  0  0  0  0  0  0  0  0  0
   -3.7824   -0.2531   -1.0831 H   0  0  0  0  0  0  0  0  0  0  0  0
   -2.5943    0.0621   -2.3295 H   0  0  0  0  0  0  0  0  0  0  0  0
   -1.6559   -1.9978   -1.2905 H   0  0  0  0  0  0  0  0  0  0  0  0
   -1.5545   -4.1091   -0.0634 H   0  0  0  0  0  0  0  0  0  0  0  0
  1  2  1  0
  2  3  1  0
  3  4  2  0
  4  5  1  0
  5  6  1  0
  6  7  1  0
  7  8  1  0
  8  9  1  0
  9 10  1  0
 10 11  1  0
 11 12  2  0
 12 13  1  0
 13 14  2  0
 14 15  1  0
  9 16  1  0
 16 17  2  0
 17 18  1  0
 18 19  2  0
 19 20  1  0
  6 21  1  0
 21 22  1  0
 22 23  1  0
 23 24  1  0
 24 25  1  0
  5 26  2  0
 26 27  1  0
 27  2  2  0
 25  6  1  0
 15 10  2  0
 20 16  1  0
  3 28  1  0
  4 29  1  0
  7 30  1  0
  7 31  1  0
  8 32  1  0
  9 33  1  0
 11 34  1  0
 12 35  1  0
 13 36  1  0
 15 37  1  0
 18 38  1  0
 19 39  1  0
 20 40  1  0
 21 41  1  0
 21 42  1  0
 22 43  1  0
 22 44  1  0
 24 45  1  0
 24 46  1  0
 25 47  1  0
 25 48  1  0
 26 49  1  0
 27 50  1  0
M  END
$$$$
OCNT-2317740
     RDKit          3D

 45 48  0  0  0  0  0  0  0  0999 V2000
   -9.4270    2.1746    1.6582 F   0  0  0  0  0  0  0  0  0  0  0  0
   -8.2810    1.6239    1.2377 C   0  0  0  0  0  0  0  0  0  0  0  0
   -7.0994    2.3482    1.3269 C   0  0  0  0  0  0  0  0  0  0  0  0
   -5.9046    1.7717    0.8878 C   0  0  0  0  0  0  0  0  0  0  0  0
   -5.8855    0.4697    0.3580 C   0  0  0  0  0  0  0  0  0  0  0  0
   -4.6198   -0.1047   -0.0918 C   0  0  0  0  0  0  0  0  0  0  0  0
   -3.4111    0.4266   -0.0767 N   0  0  0  0  0  0  0  0  0  0  0  0
   -2.6035   -0.5493   -0.6158 C   0  0  0  0  0  0  0  0  0  0  0  0
   -1.1399   -0.3411   -0.7830 C   0  0  0  0  0  0  0  0  0  0  0  0
   -0.4246   -0.1830    0.5656 C   0  0  0  0  0  0  0  0  0  0  0  0
    1.0261    0.0084    0.4403 N   0  0  0  0  0  0  0  0  0  0  0  0
    1.7317   -1.2321    0.1204 C   0  0  0  0  0  0  0  0  0  0  0  0
    3.2263   -1.0127    0.1335 C   0  0  0  0  0  0  0  0  0  0  0  0
    4.0169   -1.5139    1.1791 C   0  0  0  0  0  0  0  0  0  0  0  0
    5.3969   -1.2956    1.1922 C   0  0  0  0  0  0  0  0  0  0  0  0
    5.9959   -0.5692    0.1660 C   0  0  0  0  0  0  0  0  0  0  0  0
    7.3509   -0.3754    0.2575 O   0  0  0  0  0  0  0  0  0  0  0  0
    7.7882    0.6566   -0.6341 C   0  0  0  0  0  0  0  0  0  0  0  0
    7.1709    0.4731   -2.0105 C   0  0  0  0  0  0  0  0  0  0  0  0
    5.7474    0.6140   -1.9499 O   0  0  0  0  0  0  0  0  0  0  0  0
    5.2216   -0.0822   -0.8911 C   0  0  0  0  0  0  0  0  0  0  0  0
    3.8427   -0.2871   -0.8984 C   0  0  0  0  0  0  0  0  0  0  0  0
   -3.3690   -1.6456   -0.9373 C   0  0  0  0  0  0  0  0  0  0  0  0
   -4.6607   -1.3760   -0.6048 O   0  0  0  0  0  0  0  0  0  0  0  0
   -7.0952   -0.2410    0.2787 C   0  0  0  0  0  0  0  0  0  0  0  0
   -8.2907    0.3354    0.7180 C   0  0  0  0  0  0  0  0  0  0  0  0
   -7.1123    3.3537    1.7352 H   0  0  0  0  0  0  0  0  0  0  0  0
   -4.9801    2.3436    0.9586 H   0  0  0  0  0  0  0  0  0  0  0  0
   -0.9766    0.5535   -1.3964 H   0  0  0  0  0  0  0  0  0  0  0  0
   -0.7235   -1.1880   -1.3405 H   0  0  0  0  0  0  0  0  0  0  0  0
   -0.8287    0.7045    1.0693 H   0  0  0  0  0  0  0  0  0  0  0  0
   -0.6448   -1.0300    1.2281 H   0  0  0  0  0  0  0  0  0  0  0  0
    1.3886    0.3589    1.3277 H   0  0  0  0  0  0  0  0  0  0  0  0
    1.4507   -1.6023   -0.8722 H   0  0  0  0  0  0  0  0  0  0  0  0
    1.4728   -2.0183    0.8405 H   0  0  0  0  0  0  0  0  0  0  0  0
    3.5632   -2.0736    1.9939 H   0  0  0  0  0  0  0  0  0  0  0  0
    6.0020   -1.6804    2.0082 H   0  0  0  0  0  0  0  0  0  0  0  0
    7.5223    1.6286   -0.2004 H   0  0  0  0  0  0  0  0  0  0  0  0
    8.8793    0.5987   -0.6980 H   0  0  0  0  0  0  0  0  0  0  0  0
    7.4062   -0.5139   -2.4279 H   0  0  0  0  0  0  0  0  0  0  0  0
    7.5502    1.2340   -2.6997 H   0  0  0  0  0  0  0  0  0  0  0  0
    3.2447    0.1184   -1.7113 H   0  0  0  0  0  0  0  0  0  0  0  0
   -3.1750   -2.6148   -1.3723 H   0  0  0  0  0  0  0  0  0  0  0  0
   -7.1171   -1.2507   -0.1265 H   0  0  0  0  0  0  0  0  0  0  0  0
   -9.2256   -0.2125    0.6571 H   0  0  0  0  0  0  0  0  0  0  0  0
  1  2  1  0
  2  3  1  0
  3  4  2  0
  4  5  1  0
  5  6  1  0
  6  7  2  0
  7  8  1  0
  8  9  1  0
  9 10  1  0
 10 11  1  0
 11 12  1  0
 12 13  1  0
 13 14  1  0
 14 15  2  0
 15 16  1  0
 16 17  1  0
 17 18  1  0
 18 19  1  0
 19 20  1  0
 20 21  1  0
 21 22  1  0
  8 23  2  0
 23 24  1  0
  5 25  2  0
 25 26  1  0
 26  2  2  0
 24  6  1  0
 22 13  2  0
 21 16  2  0
  3 27  1  0
  4 28  1  0
  9 29  1  0
  9 30  1  0
 10 31  1  0
 10 32  1  0
 11 33  1  0
 12 34  1  0
 12 35  1  0
 14 36  1  0
 15 37  1  0
 18 38  1  0
 18 39  1  0
 19 40  1  0
 19 41  1  0
 22 42  1  0
 23 43  1  0
 25 44  1  0
 26 45  1  0
M  END
$$$$
OCNT-2317761
     RDKit          3D

 35 38  0  0  0  0  0  0  0  0999 V2000
    0.6165    0.4826    1.2547 O   0  0  0  0  0  0  0  0  0  0  0  0
    1.0713    0.2425    0.1432 C   0  0  0  0  0  0  0  0  0  0  0  0
    0.3894   -0.2681   -0.9473 N   0  0  0  0  0  0  0  0  0  0  0  0
   -0.9931   -0.5468   -1.0381 C   0  0  0  0  0  0  0  0  0  0  0  0
   -1.4475   -1.1243   -2.2293 C   0  0  0  0  0  0  0  0  0  0  0  0
   -2.7986   -1.4246   -2.4021 C   0  0  0  0  0  0  0  0  0  0  0  0
   -3.7107   -1.1478   -1.3842 C   0  0  0  0  0  0  0  0  0  0  0  0
   -3.2822   -0.5669   -0.1839 C   0  0  0  0  0  0  0  0  0  0  0  0
   -4.2442   -0.2845    0.8716 C   0  0  0  0  0  0  0  0  0  0  0  0
   -4.0902    0.6618    1.8636 C   0  0  0  0  0  0  0  0  0  0  0  0
   -5.2163    0.6064    2.6325 N   0  0  0  0  0  0  0  0  0  0  0  0
   -6.1071   -0.3050    2.2116 N   0  0  0  0  0  0  0  0  0  0  0  0
   -5.5148   -0.8472    1.1440 C   0  0  0  0  0  0  0  0  0  0  0  0
   -1.9163   -0.2721   -0.0241 C   0  0  0  0  0  0  0  0  0  0  0  0
    2.5196    0.4763   -0.0709 C   0  0  0  0  0  0  0  0  0  0  0  0
    3.0073    0.9879   -1.2718 C   0  0  0  0  0  0  0  0  0  0  0  0
    4.3113    1.2225   -1.5606 N   0  0  0  0  0  0  0  0  0  0  0  0
    5.1658    0.9459   -0.5444 C   0  0  0  0  0  0  0  0  0  0  0  0
    6.5658    1.0571   -0.4416 C   0  0  0  0  0  0  0  0  0  0  0  0
    7.0235    0.6775    0.7578 N   0  0  0  0  0  0  0  0  0  0  0  0
    5.9037    0.3313    1.4234 N   0  0  0  0  0  0  0  0  0  0  0  0
    4.7552    0.4616    0.6903 C   0  0  0  0  0  0  0  0  0  0  0  0
    3.4123    0.2133    0.9732 C   0  0  0  0  0  0  0  0  0  0  0  0
    0.9347   -0.5410   -1.7553 H   0  0  0  0  0  0  0  0  0  0  0  0
   -0.7600   -1.3501   -3.0403 H   0  0  0  0  0  0  0  0  0  0  0  0
   -3.1429   -1.8718   -3.3313 H   0  0  0  0  0  0  0  0  0  0  0  0
   -4.7600   -1.3810   -1.5485 H   0  0  0  0  0  0  0  0  0  0  0  0
   -3.2998    1.3631    2.0907 H   0  0  0  0  0  0  0  0  0  0  0  0
   -5.4436    1.1600    3.4519 H   0  0  0  0  0  0  0  0  0  0  0  0
   -6.0321   -1.6339    0.6106 H   0  0  0  0  0  0  0  0  0  0  0  0
   -1.5853    0.1670    0.9106 H   0  0  0  0  0  0  0  0  0  0  0  0
    2.3316    1.2587   -2.0801 H   0  0  0  0  0  0  0  0  0  0  0  0
    7.2633    1.3994   -1.1935 H   0  0  0  0  0  0  0  0  0  0  0  0
    5.9959    0.0096    2.3809 H   0  0  0  0  0  0  0  0  0  0  0  0
    3.0774   -0.1596    1.9355 H   0  0  0  0  0  0  0  0  0  0  0  0
  1  2  2  0
  2  3  1  0
  3  4  1  0
  4  5  2  0
  5  6  1  0
  6  7  2  0
  7  8  1  0
  8  9  1  0
  9 10  2  0
 10 11  1  0
 11 12  1  0
 12 13  2  0
  8 14  2  0
  2 15  1  0
 15 16  1  0
 16 17  2  0
 17 18  1  0
 18 19  1  0
 19 20  2  0
 20 21  1  0
 21 22  1  0
 22 23  1  0
 14  4  1  0
 23 15  2  0
 13  9  1  0
 22 18  2  0
  3 24  1  0
  5 25  1  0
  6 26  1  0
  7 27  1  0
 10 28  1  0
 11 29  1  0
 13 30  1  0
 14 31  1  0
 16 32  1  0
 19 33  1  0
 21 34  1  0
 23 35  1  0
M  END
$$$$
OCNT-2317763
     RDKit          3D

 45 47  0  0  0  0  0  0  0  0999 V2000
   -2.1260    2.8797   -0.5278 C   0  0  0  0  0  0  0  0  0  0  0  0
   -2.1866    2.0272    0.7382 C   0  0  2  0  0  0  0  0  0  0  0  0
   -1.1095    0.9489    0.8154 C   0  0  0  0  0  0  0  0  0  0  0  0
   -1.3390   -0.1194   -0.2566 C   0  0  1  0  0  0  0  0  0  0  0  0
   -0.3742   -1.2147   -0.0650 N   0  0  0  0  0  0  0  0  0  0  0  0
    0.3541   -1.5836   -1.2866 C   0  0  0  0  0  0  0  0  0  0  0  0
    1.4353   -0.5863   -1.7883 C   0  0  0  0  0  0  0  0  0  0  0  0
    2.0562   -1.1063   -2.9662 O   0  0  0  0  0  0  0  0  0  0  0  0
    2.5286   -0.3118   -0.7765 C   0  0  0  0  0  0  0  0  0  0  0  0
    3.3648   -1.3393   -0.3156 C   0  0  0  0  0  0  0  0  0  0  0  0
    4.3627   -1.0809    0.6275 C   0  0  0  0  0  0  0  0  0  0  0  0
    4.5565    0.2159    1.1223 C   0  0  0  0  0  0  0  0  0  0  0  0
    5.6203    0.4947    2.1549 C   0  0  0  0  0  0  0  0  0  0  0  0
    6.1517    1.7453    2.0494 F   0  0  0  0  0  0  0  0  0  0  0  0
    6.6762   -0.3635    2.0871 F   0  0  0  0  0  0  0  0  0  0  0  0
    5.1423    0.3997    3.4265 F   0  0  0  0  0  0  0  0  0  0  0  0
    3.7236    1.2455    0.6614 C   0  0  0  0  0  0  0  0  0  0  0  0
    2.7260    0.9854   -0.2822 C   0  0  0  0  0  0  0  0  0  0  0  0
   -2.7799   -0.5762   -0.1811 C   0  0  0  0  0  0  0  0  0  0  0  0
   -3.1896   -1.8171   -0.7004 C   0  0  0  0  0  0  0  0  0  0  0  0
   -4.5286   -2.2122   -0.6539 C   0  0  0  0  0  0  0  0  0  0  0  0
   -5.4830   -1.3695   -0.0943 C   0  0  0  0  0  0  0  0  0  0  0  0
   -5.0962   -0.1320    0.4147 C   0  0  0  0  0  0  0  0  0  0  0  0
   -3.7575    0.2677    0.3648 C   0  0  0  0  0  0  0  0  0  0  0  0
   -3.5076    1.5035    0.8973 O   0  0  0  0  0  0  0  0  0  0  0  0
   -2.4011    2.3096   -1.4207 H   0  0  0  0  0  0  0  0  0  0  0  0
   -1.1280    3.3040   -0.6728 H   0  0  0  0  0  0  0  0  0  0  0  0
   -2.8458    3.7030   -0.4587 H   0  0  0  0  0  0  0  0  0  0  0  0
   -2.0295    2.7034    1.5876 H   0  0  0  0  0  0  0  0  0  0  0  0
   -1.1542    0.4878    1.8126 H   0  0  0  0  0  0  0  0  0  0  0  0
   -0.1160    1.3991    0.7110 H   0  0  0  0  0  0  0  0  0  0  0  0
   -1.2012    0.3420   -1.2421 H   0  0  0  0  0  0  0  0  0  0  0  0
    0.2970   -0.9851    0.6686 H   0  0  0  0  0  0  0  0  0  0  0  0
    0.8273   -2.5567   -1.1034 H   0  0  0  0  0  0  0  0  0  0  0  0
   -0.3535   -1.7804   -2.1024 H   0  0  0  0  0  0  0  0  0  0  0  0
    0.9579    0.3572   -2.0773 H   0  0  0  0  0  0  0  0  0  0  0  0
    1.3677   -1.1799   -3.6479 H   0  0  0  0  0  0  0  0  0  0  0  0
    3.2494   -2.3506   -0.7020 H   0  0  0  0  0  0  0  0  0  0  0  0
    4.9963   -1.8991    0.9675 H   0  0  0  0  0  0  0  0  0  0  0  0
    3.8554    2.2615    1.0316 H   0  0  0  0  0  0  0  0  0  0  0  0
    2.1064    1.8085   -0.6319 H   0  0  0  0  0  0  0  0  0  0  0  0
   -2.4619   -2.4984   -1.1336 H   0  0  0  0  0  0  0  0  0  0  0  0
   -4.8222   -3.1807   -1.0502 H   0  0  0  0  0  0  0  0  0  0  0  0
   -6.5248   -1.6743   -0.0517 H   0  0  0  0  0  0  0  0  0  0  0  0
   -5.8398    0.5286    0.8529 H   0  0  0  0  0  0  0  0  0  0  0  0
  1  2  1  0
  2  3  1  0
  3  4  1  0
  4  5  1  0
  5  6  1  0
  6  7  1  0
  7  8  1  0
  7  9  1  0
  9 10  1  0
 10 11  2  0
 11 12  1  0
 12 13  1  0
 13 14  1  0
 13 15  1  0
 13 16  1  0
 12 17  2  0
 17 18  1  0
  4 19  1  0
 19 20  2  0
 20 21  1  0
 21 22  2  0
 22 23  1  0
 23 24  2  0
 24 25  1  0
 25  2  1  0
 18  9  2  0
 24 19  1  0
  1 26  1  0
  1 27  1  0
  1 28  1  0
  2 29  1  1
  3 30  1  0
  3 31  1  0
  4 32  1  6
  5 33  1  0
  6 34  1  0
  6 35  1  0
  7 36  1  0
  8 37  1  0
 10 38  1  0
 11 39  1  0
 17 40  1  0
 18 41  1  0
 20 42  1  0
 21 43  1  0
 22 44  1  0
 23 45  1  0
M  END
$$$$
OCNT-2317790
     RDKit          3D

 43 45  0  0  0  0  0  0  0  0999 V2000
    3.5784    1.2364    0.6910 O   0  0  0  0  0  0  0  0  0  0  0  0
    3.6913    0.3388   -0.1357 C   0  0  0  0  0  0  0  0  0  0  0  0
    2.6068   -0.3605   -0.6342 N   0  0  0  0  0  0  0  0  0  0  0  0
    1.2415    0.0077   -0.2590 C   0  0  0  0  0  0  0  0  0  0  0  0
    0.2281   -0.7304   -1.1302 C   0  0  0  0  0  0  0  0  0  0  0  0
   -1.2051   -0.3075   -0.7848 C   0  0  0  0  0  0  0  0  0  0  0  0
   -1.4185    0.0006    0.6358 N   0  0  0  0  0  0  0  0  0  0  0  0
   -2.8073   -0.2019    1.0813 C   0  0  0  0  0  0  0  0  0  0  0  0
   -3.8162    0.8160    0.5343 C   0  0  0  0  0  0  0  0  0  0  0  0
   -5.1538    0.7475    1.2516 C   0  0  0  0  0  0  0  0  0  0  0  0
   -6.0665    1.4612    0.2813 C   0  0  0  0  0  0  0  0  0  0  0  0
   -5.5859    1.1420   -1.0291 O   0  0  0  0  0  0  0  0  0  0  0  0
   -4.2513    0.6200   -0.9097 C   0  0  0  0  0  0  0  0  0  0  0  0
   -0.4771   -0.7278    1.4918 C   0  0  0  0  0  0  0  0  0  0  0  0
    0.9613   -0.2730    1.2265 C   0  0  0  0  0  0  0  0  0  0  0  0
    4.9658   -0.0582   -0.6971 C   0  0  0  0  0  0  0  0  0  0  0  0
    6.1473    0.6695   -0.7169 C   0  0  0  0  0  0  0  0  0  0  0  0
    7.1351   -0.1120   -1.3540 C   0  0  0  0  0  0  0  0  0  0  0  0
    8.7390    0.3641   -1.6261 Cl  0  0  0  0  0  0  0  0  0  0  0  0
    6.5567   -1.3102   -1.6932 C   0  0  0  0  0  0  0  0  0  0  0  0
    5.2516   -1.2771   -1.2773 N   0  0  0  0  0  0  0  0  0  0  0  0
    2.7298   -0.7806   -1.5438 H   0  0  0  0  0  0  0  0  0  0  0  0
    1.1433    1.0861   -0.4420 H   0  0  0  0  0  0  0  0  0  0  0  0
    0.3401   -1.8140   -0.9897 H   0  0  0  0  0  0  0  0  0  0  0  0
    0.4192   -0.5375   -2.1931 H   0  0  0  0  0  0  0  0  0  0  0  0
   -1.8737   -1.1061   -1.1291 H   0  0  0  0  0  0  0  0  0  0  0  0
   -1.4395    0.5909   -1.3655 H   0  0  0  0  0  0  0  0  0  0  0  0
   -3.1358   -1.2276    0.8664 H   0  0  0  0  0  0  0  0  0  0  0  0
   -2.8334   -0.0978    2.1746 H   0  0  0  0  0  0  0  0  0  0  0  0
   -3.4165    1.8328    0.6549 H   0  0  0  0  0  0  0  0  0  0  0  0
   -5.1435    1.2144    2.2406 H   0  0  0  0  0  0  0  0  0  0  0  0
   -5.4748   -0.2952    1.3668 H   0  0  0  0  0  0  0  0  0  0  0  0
   -6.0099    2.5479    0.4066 H   0  0  0  0  0  0  0  0  0  0  0  0
   -7.1107    1.1515    0.3781 H   0  0  0  0  0  0  0  0  0  0  0  0
   -3.6111    1.1512   -1.6185 H   0  0  0  0  0  0  0  0  0  0  0  0
   -4.2882   -0.4373   -1.1928 H   0  0  0  0  0  0  0  0  0  0  0  0
   -0.5707   -1.8107    1.3356 H   0  0  0  0  0  0  0  0  0  0  0  0
   -0.6884   -0.5450    2.5528 H   0  0  0  0  0  0  0  0  0  0  0  0
    1.1675    0.6391    1.8017 H   0  0  0  0  0  0  0  0  0  0  0  0
    1.6423   -1.0407    1.6155 H   0  0  0  0  0  0  0  0  0  0  0  0
    6.2666    1.6674   -0.3126 H   0  0  0  0  0  0  0  0  0  0  0  0
    6.9652   -2.1859   -2.1789 H   0  0  0  0  0  0  0  0  0  0  0  0
    4.6010   -2.0482   -1.3463 H   0  0  0  0  0  0  0  0  0  0  0  0
  1  2  2  0
  2  3  1  0
  3  4  1  0
  4  5  1  0
  5  6  1  0
  6  7  1  0
  7  8  1  0
  8  9  1  0
  9 10  1  0
 10 11  1  0
 11 12  1  0
 12 13  1  0
  7 14  1  0
 14 15  1  0
  2 16  1  0
 16 17  2  0
 17 18  1  0
 18 19  1  0
 18 20  2  0
 20 21  1  0
 15  4  1  0
 21 16  1  0
 13  9  1  0
  3 22  1  0
  4 23  1  0
  5 24  1  0
  5 25  1  0
  6 26  1  0
  6 27  1  0
  8 28  1  0
  8 29  1  0
  9 30  1  0
 10 31  1  0
 10 32  1  0
 11 33  1  0
 11 34  1  0
 13 35  1  0
 13 36  1  0
 14 37  1  0
 14 38  1  0
 15 39  1  0
 15 40  1  0
 17 41  1  0
 20 42  1  0
 21 43  1  0
M  END
$$$$
OCNT-2317809
     RDKit          3D

 46 49  0  0  0  0  0  0  0  0999 V2000
   -2.6355    2.4078    2.5168 O   0  0  0  0  0  0  0  0  0  0  0  0
   -3.4285    2.4407    1.3056 S   0  0  0  0  0  0  0  0  0  0  0  0
   -4.0860    3.6462    0.8455 O   0  0  0  0  0  0  0  0  0  0  0  0
   -4.6382    1.1329    1.3924 C   0  0  0  0  0  0  0  0  0  0  0  0
   -4.4591    0.3399    0.1033 C   0  0  0  0  0  0  0  0  0  0  0  0
   -2.9431    0.2906   -0.2103 C   0  0  0  0  0  0  0  0  0  0  0  0
   -2.6975   -0.1681   -1.6718 C   0  0  0  0  0  0  0  0  0  0  0  0
   -2.2702   -1.6295   -1.7322 C   0  0  0  0  0  0  0  0  0  0  0  0
   -0.9944   -1.8640   -0.9110 C   0  0  0  0  0  0  0  0  0  0  0  0
   -0.8923   -0.9869    0.2690 N   0  0  0  0  0  0  0  0  0  0  0  0
   -0.0129   -1.5488    1.3084 C   0  0  0  0  0  0  0  0  0  0  0  0
    1.3986   -1.6660    0.8634 C   0  0  0  0  0  0  0  0  0  0  0  0
    2.2333   -2.7166    0.5657 C   0  0  0  0  0  0  0  0  0  0  0  0
    3.4684   -2.2476    0.1984 N   0  0  0  0  0  0  0  0  0  0  0  0
    3.3512   -0.9340    0.2843 C   0  0  0  0  0  0  0  0  0  0  0  0
    4.3437    0.1023    0.0111 C   0  0  0  0  0  0  0  0  0  0  0  0
    5.6334   -0.2646   -0.4032 C   0  0  0  0  0  0  0  0  0  0  0  0
    6.6032    0.7051   -0.6716 C   0  0  0  0  0  0  0  0  0  0  0  0
    6.2949    2.0560   -0.5289 C   0  0  0  0  0  0  0  0  0  0  0  0
    5.0193    2.4382   -0.1187 C   0  0  0  0  0  0  0  0  0  0  0  0
    4.0498    1.4675    0.1495 C   0  0  0  0  0  0  0  0  0  0  0  0
    2.1124   -0.5109    0.6931 O   0  0  0  0  0  0  0  0  0  0  0  0
   -2.2121   -0.6467    0.7961 C   0  0  0  0  0  0  0  0  0  0  0  0
   -2.4734    1.7557   -0.0441 C   0  0  0  0  0  0  0  0  0  0  0  0
   -4.4199    0.5218    2.2724 H   0  0  0  0  0  0  0  0  0  0  0  0
   -5.6386    1.5621    1.4805 H   0  0  0  0  0  0  0  0  0  0  0  0
   -4.9907    0.8601   -0.7044 H   0  0  0  0  0  0  0  0  0  0  0  0
   -4.8996   -0.6591    0.1888 H   0  0  0  0  0  0  0  0  0  0  0  0
   -1.9031    0.4363   -2.1301 H   0  0  0  0  0  0  0  0  0  0  0  0
   -3.5898   -0.0184   -2.2907 H   0  0  0  0  0  0  0  0  0  0  0  0
   -2.0993   -1.9303   -2.7720 H   0  0  0  0  0  0  0  0  0  0  0  0
   -3.0817   -2.2607   -1.3486 H   0  0  0  0  0  0  0  0  0  0  0  0
   -0.9711   -2.9247   -0.6292 H   0  0  0  0  0  0  0  0  0  0  0  0
   -0.1255   -1.6805   -1.5544 H   0  0  0  0  0  0  0  0  0  0  0  0
   -0.3852   -2.5244    1.6460 H   0  0  0  0  0  0  0  0  0  0  0  0
   -0.0174   -0.8903    2.1868 H   0  0  0  0  0  0  0  0  0  0  0  0
    2.0132   -3.7744    0.5934 H   0  0  0  0  0  0  0  0  0  0  0  0
    5.8876   -1.3172   -0.5185 H   0  0  0  0  0  0  0  0  0  0  0  0
    7.5973    0.4033   -0.9912 H   0  0  0  0  0  0  0  0  0  0  0  0
    7.0486    2.8112   -0.7369 H   0  0  0  0  0  0  0  0  0  0  0  0
    4.7765    3.4918   -0.0062 H   0  0  0  0  0  0  0  0  0  0  0  0
    3.0601    1.7888    0.4684 H   0  0  0  0  0  0  0  0  0  0  0  0
   -2.1109   -0.1415    1.7631 H   0  0  0  0  0  0  0  0  0  0  0  0
   -2.7961   -1.5572    0.9879 H   0  0  0  0  0  0  0  0  0  0  0  0
   -1.4086    1.8503    0.1834 H   0  0  0  0  0  0  0  0  0  0  0  0
   -2.7112    2.3539   -0.9305 H   0  0  0  0  0  0  0  0  0  0  0  0
  1  2  2  0
  2  3  2  0
  2  4  1  0
  4  5  1  0
  5  6  1  0
  6  7  1  0
  7  8  1  0
  8  9  1  0
  9 10  1  0
 10 11  1  0
 11 12  1  0
 12 13  2  0
 13 14  1  0
 14 15  2  0
 15 16  1  0
 16 17  2  0
 17 18  1  0
 18 19  2  0
 19 20  1  0
 20 21  2  0
 15 22  1  0
 10 23  1  0
  6 24  1  0
 24  2  1  0
 23  6  1  0
 22 12  1  0
 21 16  1  0
  4 25  1  0
  4 26  1  0
  5 27  1  0
  5 28  1  0
  7 29  1  0
  7 30  1  0
  8 31  1  0
  8 32  1  0
  9 33  1  0
  9 34  1  0
 11 35  1  0
 11 36  1  0
 13 37  1  0
 17 38  1  0
 18 39  1  0
 19 40  1  0
 20 41  1  0
 21 42  1  0
 23 43  1  0
 23 44  1  0
 24 45  1  0
 24 46  1  0
M  END
$$$$
OCNT-2317811
     RDKit          3D

 42 44  0  0  0  0  0  0  0  0999 V2000
   -5.1172    0.5932    2.6897 C   0  0  0  0  0  0  0  0  0  0  0  0
   -5.0340    0.7272    1.2788 O   0  0  0  0  0  0  0  0  0  0  0  0
   -3.7868    0.6702    0.7058 C   0  0  0  0  0  0  0  0  0  0  0  0
   -2.5933    0.5271    1.4219 C   0  0  0  0  0  0  0  0  0  0  0  0
   -1.3591    0.4866    0.7564 C   0  0  0  0  0  0  0  0  0  0  0  0
   -1.3157    0.5622   -0.6426 C   0  0  0  0  0  0  0  0  0  0  0  0
   -2.5133    0.7147   -1.3599 C   0  0  0  0  0  0  0  0  0  0  0  0
   -3.7464    0.7657   -0.6987 C   0  0  0  0  0  0  0  0  0  0  0  0
   -4.9584    0.9134   -1.3283 O   0  0  0  0  0  0  0  0  0  0  0  0
   -4.9681    0.9147   -2.7479 C   0  0  0  0  0  0  0  0  0  0  0  0
    0.0061    0.5541   -1.3831 C   0  0  0  0  0  0  0  0  0  0  0  0
    1.1326    0.0212   -0.5958 N   0  0  0  0  0  0  0  0  0  0  0  0
    2.3878    0.2087   -1.3482 C   0  0  0  0  0  0  0  0  0  0  0  0
    3.4863   -0.6753   -0.8208 C   0  0  0  0  0  0  0  0  0  0  0  0
    3.6193   -1.9435   -1.2402 N   0  0  0  0  0  0  0  0  0  0  0  0
    4.6751   -2.4110   -0.5595 N   0  0  0  0  0  0  0  0  0  0  0  0
    5.2592   -1.4807    0.2459 C   0  0  0  0  0  0  0  0  0  0  0  0
    6.4412   -1.8143    1.0506 C   0  0  0  0  0  0  0  0  0  0  0  0
    6.8448   -3.0940    0.8437 F   0  0  0  0  0  0  0  0  0  0  0  0
    7.4944   -1.0149    0.7547 F   0  0  0  0  0  0  0  0  0  0  0  0
    6.2012   -1.6848    2.3777 F   0  0  0  0  0  0  0  0  0  0  0  0
    4.5133   -0.3324    0.0943 C   0  0  0  0  0  0  0  0  0  0  0  0
    1.1655    0.6663    0.7237 C   0  0  0  0  0  0  0  0  0  0  0  0
   -0.0834    0.2962    1.5360 C   0  0  0  0  0  0  0  0  0  0  0  0
   -6.1742    0.6432    2.9684 H   0  0  0  0  0  0  0  0  0  0  0  0
   -4.6018    1.4164    3.1955 H   0  0  0  0  0  0  0  0  0  0  0  0
   -4.7332   -0.3779    3.0191 H   0  0  0  0  0  0  0  0  0  0  0  0
   -2.5935    0.4431    2.5036 H   0  0  0  0  0  0  0  0  0  0  0  0
   -2.4548    0.7929   -2.4406 H   0  0  0  0  0  0  0  0  0  0  0  0
   -4.5639   -0.0207   -3.1489 H   0  0  0  0  0  0  0  0  0  0  0  0
   -6.0092    0.9935   -3.0751 H   0  0  0  0  0  0  0  0  0  0  0  0
   -4.4299    1.7817   -3.1445 H   0  0  0  0  0  0  0  0  0  0  0  0
   -0.1107   -0.0634   -2.2828 H   0  0  0  0  0  0  0  0  0  0  0  0
    0.2125    1.5848   -1.7024 H   0  0  0  0  0  0  0  0  0  0  0  0
    2.7061    1.2593   -1.3354 H   0  0  0  0  0  0  0  0  0  0  0  0
    2.2369   -0.0595   -2.4030 H   0  0  0  0  0  0  0  0  0  0  0  0
    4.9481   -3.3800   -0.7010 H   0  0  0  0  0  0  0  0  0  0  0  0
    4.6750    0.6190    0.5824 H   0  0  0  0  0  0  0  0  0  0  0  0
    2.0356    0.3427    1.3045 H   0  0  0  0  0  0  0  0  0  0  0  0
    1.2364    1.7576    0.6191 H   0  0  0  0  0  0  0  0  0  0  0  0
   -0.0231   -0.7557    1.8429 H   0  0  0  0  0  0  0  0  0  0  0  0
   -0.1071    0.9105    2.4440 H   0  0  0  0  0  0  0  0  0  0  0  0
  1  2  1  0
  2  3  1  0
  3  4  2  0
  4  5  1  0
  5  6  2  0
  6  7  1  0
  7  8  2  0
  8  9  1  0
  9 10  1  0
  6 11  1  0
 11 12  1  0
 12 13  1  0
 13 14  1  0
 14 15  2  0
 15 16  1  0
 16 17  1  0
 17 18  1  0
 18 19  1  0
 18 20  1  0
 18 21  1  0
 17 22  2  0
 12 23  1  0
 23 24  1  0
  8  3  1  0
 22 14  1  0
 24  5  1  0
  1 25  1  0
  1 26  1  0
  1 27  1  0
  4 28  1  0
  7 29  1  0
 10 30  1  0
 10 31  1  0
 10 32  1  0
 11 33  1  0
 11 34  1  0
 13 35  1  0
 13 36  1  0
 16 37  1  0
 22 38  1  0
 23 39  1  0
 23 40  1  0
 24 41  1  0
 24 42  1  0
M  END
$$$$
OCNT-2317813
     RDKit          3D

 41 43  0  0  0  0  0  0  0  0999 V2000
    3.0569    2.5723    0.2161 C   0  0  0  0  0  0  0  0  0  0  0  0
    3.1049    1.5765    1.3634 C   0  0  0  0  0  0  0  0  0  0  0  0
    2.7636    0.1887    0.8927 C   0  0  0  0  0  0  0  0  0  0  0  0
    1.4552   -0.1319    0.8459 N   0  0  0  0  0  0  0  0  0  0  0  0
    1.0736   -1.3513    0.4057 C   0  0  0  0  0  0  0  0  0  0  0  0
   -0.2803   -1.6766    0.3438 N   0  0  0  0  0  0  0  0  0  0  0  0
   -1.2037   -0.9102    1.1746 C   0  0  0  0  0  0  0  0  0  0  0  0
   -2.0506    0.1105    0.3657 C   0  0  0  0  0  0  0  0  0  0  0  0
   -2.9125    0.7843    1.3017 O   0  0  0  0  0  0  0  0  0  0  0  0
   -1.2069    1.1899   -0.3281 C   0  0  0  0  0  0  0  0  0  0  0  0
   -2.0602    2.2550   -1.0300 C   0  0  0  0  0  0  0  0  0  0  0  0
   -3.3504    1.7048   -1.6222 C   0  0  0  0  0  0  0  0  0  0  0  0
   -4.3921    1.9777   -0.7962 F   0  0  0  0  0  0  0  0  0  0  0  0
   -3.6177    2.3622   -2.7821 F   0  0  0  0  0  0  0  0  0  0  0  0
   -3.3010    0.2151   -1.8936 C   0  0  0  0  0  0  0  0  0  0  0  0
   -2.9762   -0.6098   -0.6433 C   0  0  0  0  0  0  0  0  0  0  0  0
    2.0746   -2.2513   -0.0095 C   0  0  0  0  0  0  0  0  0  0  0  0
    2.0404   -3.5868   -0.5430 C   0  0  0  0  0  0  0  0  0  0  0  0
    3.2971   -4.0846   -0.8109 C   0  0  0  0  0  0  0  0  0  0  0  0
    4.5225   -2.9550   -0.4307 S   0  0  0  0  0  0  0  0  0  0  0  0
    3.3803   -1.7997    0.0879 C   0  0  0  0  0  0  0  0  0  0  0  0
    3.7818   -0.5985    0.5290 N   0  0  0  0  0  0  0  0  0  0  0  0
    3.3083    3.5757    0.5739 H   0  0  0  0  0  0  0  0  0  0  0  0
    2.0588    2.6121   -0.2337 H   0  0  0  0  0  0  0  0  0  0  0  0
    3.7688    2.3034   -0.5718 H   0  0  0  0  0  0  0  0  0  0  0  0
    2.3998    1.8778    2.1466 H   0  0  0  0  0  0  0  0  0  0  0  0
    4.1043    1.5763    1.8135 H   0  0  0  0  0  0  0  0  0  0  0  0
   -0.4420   -2.6773    0.3505 H   0  0  0  0  0  0  0  0  0  0  0  0
   -1.8921   -1.6183    1.6561 H   0  0  0  0  0  0  0  0  0  0  0  0
   -0.7052   -0.4121    2.0169 H   0  0  0  0  0  0  0  0  0  0  0  0
   -2.3565    1.3135    1.9011 H   0  0  0  0  0  0  0  0  0  0  0  0
   -0.5484    0.7269   -1.0732 H   0  0  0  0  0  0  0  0  0  0  0  0
   -0.5631    1.7015    0.3975 H   0  0  0  0  0  0  0  0  0  0  0  0
   -1.4551    2.7260   -1.8137 H   0  0  0  0  0  0  0  0  0  0  0  0
   -2.3095    3.0477   -0.3141 H   0  0  0  0  0  0  0  0  0  0  0  0
   -4.2566   -0.1216   -2.3122 H   0  0  0  0  0  0  0  0  0  0  0  0
   -2.5474    0.0188   -2.6669 H   0  0  0  0  0  0  0  0  0  0  0  0
   -2.5353   -1.5532   -0.9858 H   0  0  0  0  0  0  0  0  0  0  0  0
   -3.9190   -0.8737   -0.1462 H   0  0  0  0  0  0  0  0  0  0  0  0
    1.1343   -4.1505   -0.7251 H   0  0  0  0  0  0  0  0  0  0  0  0
    3.5566   -5.0541   -1.2143 H   0  0  0  0  0  0  0  0  0  0  0  0
  1  2  1  0
  2  3  1  0
  3  4  2  0
  4  5  1  0
  5  6  1  0
  6  7  1  0
  7  8  1  0
  8  9  1  0
  8 10  1  0
 10 11  1  0
 11 12  1  0
 12 13  1  0
 12 14  1  0
 12 15  1  0
 15 16  1  0
  5 17  2  0
 17 18  1  0
 18 19  2  0
 19 20  1  0
 20 21  1  0
 21 22  2  0
 22  3  1  0
 16  8  1  0
 21 17  1  0
  1 23  1  0
  1 24  1  0
  1 25  1  0
  2 26  1  0
  2 27  1  0
  6 28  1  0
  7 29  1  0
  7 30  1  0
  9 31  1  0
 10 32  1  0
 10 33  1  0
 11 34  1  0
 11 35  1  0
 15 36  1  0
 15 37  1  0
 16 38  1  0
 16 39  1  0
 18 40  1  0
 19 41  1  0
M  END
$$$$
OCNT-2317818
     RDKit          3D

 48 50  0  0  0  0  0  0  0  0999 V2000
    6.7034   -0.9838   -1.8185 C   0  0  0  0  0  0  0  0  0  0  0  0
    5.3657   -1.6119   -2.1749 C   0  0  0  0  0  0  0  0  0  0  0  0
    4.8426   -2.3510   -1.0723 O   0  0  0  0  0  0  0  0  0  0  0  0
    4.0442   -1.7074   -0.1679 C   0  0  0  0  0  0  0  0  0  0  0  0
    3.7675   -0.3434   -0.1308 C   0  0  0  0  0  0  0  0  0  0  0  0
    2.9369    0.1799    0.8670 C   0  0  0  0  0  0  0  0  0  0  0  0
    2.3789   -0.6503    1.8469 C   0  0  0  0  0  0  0  0  0  0  0  0
    1.4866   -0.0740    2.9143 C   0  0  0  0  0  0  0  0  0  0  0  0
    0.1084   -0.0215    2.4764 N   0  0  0  0  0  0  0  0  0  0  0  0
   -0.4163    1.1223    1.9387 C   0  0  0  0  0  0  0  0  0  0  0  0
    0.2458    2.1488    1.8130 O   0  0  0  0  0  0  0  0  0  0  0  0
   -1.7443    1.0345    1.5477 N   0  0  0  0  0  0  0  0  0  0  0  0
   -2.5383   -0.1926    1.4807 C   0  0  0  0  0  0  0  0  0  0  0  0
   -3.1976   -0.3611    0.1128 C   0  0  0  0  0  0  0  0  0  0  0  0
   -3.9634    0.9054   -0.2880 C   0  0  0  0  0  0  0  0  0  0  0  0
   -4.6112    0.7656   -1.5848 N   0  0  0  0  0  0  0  0  0  0  0  0
   -4.0068    0.5823   -2.7981 C   0  0  0  0  0  0  0  0  0  0  0  0
   -5.0408    0.5167   -3.7035 C   0  0  0  0  0  0  0  0  0  0  0  0
   -6.2498    0.6540   -3.0743 N   0  0  0  0  0  0  0  0  0  0  0  0
   -5.9611    0.8026   -1.8009 C   0  0  0  0  0  0  0  0  0  0  0  0
   -3.0510    2.1361   -0.2275 C   0  0  0  0  0  0  0  0  0  0  0  0
   -2.4365    2.2617    1.1604 C   0  0  0  0  0  0  0  0  0  0  0  0
    2.6507   -2.0214    1.7992 C   0  0  0  0  0  0  0  0  0  0  0  0
    3.4805   -2.5413    0.8021 C   0  0  0  0  0  0  0  0  0  0  0  0
    6.5990   -0.2541   -1.0119 H   0  0  0  0  0  0  0  0  0  0  0  0
    7.1373   -0.4793   -2.6876 H   0  0  0  0  0  0  0  0  0  0  0  0
    7.4078   -1.7492   -1.4695 H   0  0  0  0  0  0  0  0  0  0  0  0
    5.5266   -2.3327   -2.9853 H   0  0  0  0  0  0  0  0  0  0  0  0
    4.6512   -0.8788   -2.5688 H   0  0  0  0  0  0  0  0  0  0  0  0
    4.1840    0.3510   -0.8552 H   0  0  0  0  0  0  0  0  0  0  0  0
    2.7230    1.2479    0.8752 H   0  0  0  0  0  0  0  0  0  0  0  0
    1.5215   -0.7056    3.8096 H   0  0  0  0  0  0  0  0  0  0  0  0
    1.8384    0.9185    3.2175 H   0  0  0  0  0  0  0  0  0  0  0  0
   -0.5349   -0.5829    3.0077 H   0  0  0  0  0  0  0  0  0  0  0  0
   -1.9349   -1.0810    1.6816 H   0  0  0  0  0  0  0  0  0  0  0  0
   -3.3006   -0.1271    2.2654 H   0  0  0  0  0  0  0  0  0  0  0  0
   -3.8777   -1.2217    0.1402 H   0  0  0  0  0  0  0  0  0  0  0  0
   -2.4250   -0.5910   -0.6343 H   0  0  0  0  0  0  0  0  0  0  0  0
   -4.7759    1.0477    0.4379 H   0  0  0  0  0  0  0  0  0  0  0  0
   -2.9347    0.5135   -2.9206 H   0  0  0  0  0  0  0  0  0  0  0  0
   -4.9789    0.3747   -4.7750 H   0  0  0  0  0  0  0  0  0  0  0  0
   -6.6860    0.9374   -1.0072 H   0  0  0  0  0  0  0  0  0  0  0  0
   -2.2498    2.0540   -0.9727 H   0  0  0  0  0  0  0  0  0  0  0  0
   -3.6160    3.0447   -0.4690 H   0  0  0  0  0  0  0  0  0  0  0  0
   -1.7682    3.1279    1.1872 H   0  0  0  0  0  0  0  0  0  0  0  0
   -3.2190    2.4379    1.9082 H   0  0  0  0  0  0  0  0  0  0  0  0
    2.2260   -2.6938    2.5387 H   0  0  0  0  0  0  0  0  0  0  0  0
    3.6928   -3.6081    0.7825 H   0  0  0  0  0  0  0  0  0  0  0  0
  1  2  1  0
  2  3  1  0
  3  4  1  0
  4  5  1  0
  5  6  2  0
  6  7  1  0
  7  8  1  0
  8  9  1  0
  9 10  1  0
 10 11  2  0
 10 12  1  0
 12 13  1  0
 13 14  1  0
 14 15  1  0
 15 16  1  0
 16 17  1  0
 17 18  2  0
 18 19  1  0
 19 20  2  0
 15 21  1  0
 21 22  1  0
  7 23  2  0
 23 24  1  0
 24  4  2  0
 22 12  1  0
 20 16  1  0
  1 25  1  0
  1 26  1  0
  1 27  1  0
  2 28  1  0
  2 29  1  0
  5 30  1  0
  6 31  1  0
  8 32  1  0
  8 33  1  0
  9 34  1  0
 13 35  1  0
 13 36  1  0
 14 37  1  0
 14 38  1  0
 15 39  1  0
 17 40  1  0
 18 41  1  0
 20 42  1  0
 21 43  1  0
 21 44  1  0
 22 45  1  0
 22 46  1  0
 23 47  1  0
 24 48  1  0
M  END
$$$$
OCNT-2317832
     RDKit          3D

 51 55  0  0  0  0  0  0  0  0999 V2000
    3.1541    2.7806   -0.8389 C   0  0  0  0  0  0  0  0  0  0  0  0
    3.7064    1.6899   -0.0082 C   0  0  0  0  0  0  0  0  0  0  0  0
    3.6628    0.3066   -0.0773 C   0  0  0  0  0  0  0  0  0  0  0  0
    2.9906   -0.4925   -1.0851 C   0  0  0  0  0  0  0  0  0  0  0  0
    3.6138   -1.3319   -1.7305 O   0  0  0  0  0  0  0  0  0  0  0  0
    1.6231   -0.2778   -1.2864 N   0  0  0  0  0  0  0  0  0  0  0  0
    0.7376    0.3454   -0.2953 C   0  0  0  0  0  0  0  0  0  0  0  0
   -0.5657   -0.4358   -0.1468 C   0  0  0  0  0  0  0  0  0  0  0  0
   -1.3383   -0.5574   -1.4790 C   0  0  0  0  0  0  0  0  0  0  0  0
   -2.4703    0.4795   -1.6157 C   0  0  0  0  0  0  0  0  0  0  0  0
   -3.5674    0.2739   -0.6258 C   0  0  0  0  0  0  0  0  0  0  0  0
   -3.8149    1.0207    0.4306 N   0  0  0  0  0  0  0  0  0  0  0  0
   -4.8972    0.4421    1.0480 C   0  0  0  0  0  0  0  0  0  0  0  0
   -5.5709    0.8188    2.2191 C   0  0  0  0  0  0  0  0  0  0  0  0
   -6.6532    0.0397    2.6512 C   0  0  0  0  0  0  0  0  0  0  0  0
   -7.0534   -1.0919    1.9335 C   0  0  0  0  0  0  0  0  0  0  0  0
   -6.3988   -1.4765    0.7572 C   0  0  0  0  0  0  0  0  0  0  0  0
   -5.3270   -0.6792    0.3472 C   0  0  0  0  0  0  0  0  0  0  0  0
   -4.4776   -0.7497   -0.7265 N   0  0  0  0  0  0  0  0  0  0  0  0
   -0.3953   -0.4455   -2.6928 C   0  0  0  0  0  0  0  0  0  0  0  0
    0.9891   -0.9976   -2.3842 C   0  0  0  0  0  0  0  0  0  0  0  0
    4.4760   -0.1649    0.9989 C   0  0  0  0  0  0  0  0  0  0  0  0
    4.8808   -1.4246    1.4787 C   0  0  0  0  0  0  0  0  0  0  0  0
    5.7020   -1.4858    2.6142 C   0  0  0  0  0  0  0  0  0  0  0  0
    6.1103   -0.3209    3.2687 C   0  0  0  0  0  0  0  0  0  0  0  0
    5.7166    0.9419    2.8110 C   0  0  0  0  0  0  0  0  0  0  0  0
    4.9088    0.9672    1.6770 C   0  0  0  0  0  0  0  0  0  0  0  0
    4.4428    2.0889    1.0676 O   0  0  0  0  0  0  0  0  0  0  0  0
    2.2246    3.1544   -0.3990 H   0  0  0  0  0  0  0  0  0  0  0  0
    2.9434    2.4412   -1.8588 H   0  0  0  0  0  0  0  0  0  0  0  0
    3.8612    3.6155   -0.9035 H   0  0  0  0  0  0  0  0  0  0  0  0
    0.5274    1.3647   -0.6369 H   0  0  0  0  0  0  0  0  0  0  0  0
    1.2275    0.4052    0.6802 H   0  0  0  0  0  0  0  0  0  0  0  0
   -0.3223   -1.4495    0.1998 H   0  0  0  0  0  0  0  0  0  0  0  0
   -1.1778    0.0151    0.6413 H   0  0  0  0  0  0  0  0  0  0  0  0
   -1.7880   -1.5595   -1.4977 H   0  0  0  0  0  0  0  0  0  0  0  0
   -2.9000    0.4299   -2.6249 H   0  0  0  0  0  0  0  0  0  0  0  0
   -2.0649    1.4929   -1.4956 H   0  0  0  0  0  0  0  0  0  0  0  0
   -5.2493    1.6924    2.7749 H   0  0  0  0  0  0  0  0  0  0  0  0
   -7.1810    0.3156    3.5604 H   0  0  0  0  0  0  0  0  0  0  0  0
   -7.8936   -1.6833    2.2949 H   0  0  0  0  0  0  0  0  0  0  0  0
   -6.7092   -2.3555    0.2030 H   0  0  0  0  0  0  0  0  0  0  0  0
   -4.4947   -1.4562   -1.4472 H   0  0  0  0  0  0  0  0  0  0  0  0
   -0.8323   -0.9787   -3.5447 H   0  0  0  0  0  0  0  0  0  0  0  0
   -0.2949    0.6042   -2.9980 H   0  0  0  0  0  0  0  0  0  0  0  0
    1.6297   -0.9261   -3.2705 H   0  0  0  0  0  0  0  0  0  0  0  0
    0.9297   -2.0559   -2.1058 H   0  0  0  0  0  0  0  0  0  0  0  0
    4.5728   -2.3348    0.9719 H   0  0  0  0  0  0  0  0  0  0  0  0
    6.0275   -2.4569    2.9850 H   0  0  0  0  0  0  0  0  0  0  0  0
    6.7500   -0.3942    4.1463 H   0  0  0  0  0  0  0  0  0  0  0  0
    6.0292    1.8558    3.2994 H   0  0  0  0  0  0  0  0  0  0  0  0
  1  2  1  0
  2  3  2  0
  3  4  1  0
  4  5  2  0
  4  6  1  0
  6  7  1  0
  7  8  1  0
  8  9  1  0
  9 10  1  0
 10 11  1  0
 11 12  2  0
 12 13  1  0
 13 14  2  0
 14 15  1  0
 15 16  2  0
 16 17  1  0
 17 18  2  0
 18 19  1  0
  9 20  1  0
 20 21  1  0
  3 22  1  0
 22 23  2  0
 23 24  1  0
 24 25  2  0
 25 26  1  0
 26 27  2  0
 27 28  1  0
 28  2  1  0
 21  6  1  0
 27 22  1  0
 19 11  1  0
 18 13  1  0
  1 29  1  0
  1 30  1  0
  1 31  1  0
  7 32  1  0
  7 33  1  0
  8 34  1  0
  8 35  1  0
  9 36  1  0
 10 37  1  0
 10 38  1  0
 14 39  1  0
 15 40  1  0
 16 41  1  0
 17 42  1  0
 19 43  1  0
 20 44  1  0
 20 45  1  0
 21 46  1  0
 21 47  1  0
 23 48  1  0
 24 49  1  0
 25 50  1  0
 26 51  1  0
M  END
$$$$
OCNT-2317840
     RDKit          3D

  0  0  0  0  0  0  0  0  0  0999 V3000
M  V30 BEGIN CTAB
M  V30 COUNTS 54 57 0 0 0
M  V30 BEGIN ATOM
M  V30 1 C -0.964344 3.031593 0.832448 0
M  V30 2 C -1.329583 2.343463 -0.484075 0 CFG=1
M  V30 3 C -0.111228 2.147286 -1.396172 0
M  V30 4 N 0.176230 0.712044 -1.313139 0
M  V30 5 C 0.995686 0.212305 -2.426566 0
M  V30 6 C 2.453388 0.711878 -2.414913 0
M  V30 7 C 3.312684 0.060466 -1.355063 0
M  V30 8 C 4.163217 -1.000967 -1.684562 0
M  V30 9 C 4.955198 -1.605660 -0.704639 0
M  V30 10 C 4.910198 -1.166634 0.627907 0
M  V30 11 C 5.696522 -1.767025 1.625691 0
M  V30 12 C 5.634486 -1.322021 2.947266 0
M  V30 13 C 4.787586 -0.271106 3.287712 0
M  V30 14 C 4.002011 0.337459 2.306859 0
M  V30 15 C 4.051892 -0.098854 0.973172 0
M  V30 16 C 3.264611 0.501544 -0.024294 0
M  V30 17 C -1.143543 0.076271 -1.273668 0
M  V30 18 C -1.877812 0.918186 -0.237399 0 CFG=2
M  V30 19 C -3.388124 0.798862 -0.413328 0
M  V30 20 O -4.029171 1.682822 -0.985639 0
M  V30 21 N -4.021118 -0.334070 0.089929 0
M  V30 22 C -3.341832 -1.554588 0.543478 0
M  V30 23 C -4.174166 -2.322386 1.576457 0
M  V30 24 O -5.500625 -2.571806 1.094652 0
M  V30 25 C -6.172268 -1.330680 0.834648 0
M  V30 26 C -5.438918 -0.523507 -0.238700 0
M  V30 27 H -0.591572 4.044369 0.647308 0
M  V30 28 H -1.840309 3.111186 1.483200 0
M  V30 29 H -0.183802 2.481259 1.371512 0
M  V30 30 H -2.052684 2.982945 -1.005834 0
M  V30 31 H -0.381006 2.437609 -2.421763 0
M  V30 32 H 0.744809 2.756207 -1.085544 0
M  V30 33 H 1.007726 -0.885912 -2.397723 0
M  V30 34 H 0.536414 0.493779 -3.383707 0
M  V30 35 H 2.893214 0.503429 -3.399606 0
M  V30 36 H 2.503751 1.802739 -2.308264 0
M  V30 37 H 4.217953 -1.366809 -2.707701 0
M  V30 38 H 5.609413 -2.426654 -0.990737 0
M  V30 39 H 6.362106 -2.590952 1.377956 0
M  V30 40 H 6.246456 -1.796954 3.709647 0
M  V30 41 H 4.736481 0.076932 4.315443 0
M  V30 42 H 3.346123 1.157169 2.589968 0
M  V30 43 H 2.595646 1.319462 0.238872 0
M  V30 44 H -1.061862 -0.971600 -0.973250 0
M  V30 45 H -1.647952 0.115241 -2.247564 0
M  V30 46 H -1.609781 0.611245 0.780613 0
M  V30 47 H -2.360566 -1.333255 0.966243 0
M  V30 48 H -3.198422 -2.174224 -0.349947 0
M  V30 49 H -4.234681 -1.770383 2.521681 0
M  V30 50 H -3.706412 -3.290485 1.784111 0
M  V30 51 H -7.187954 -1.563333 0.499683 0
M  V30 52 H -6.248545 -0.763988 1.770171 0
M  V30 53 H -5.464945 -1.063104 -1.193087 0
M  V30 54 H -5.940576 0.439206 -0.380894 0
M  V30 END ATOM
M  V30 BEGIN BOND
M  V30 1 1 1 2
M  V30 2 1 2 3
M  V30 3 1 3 4
M  V30 4 1 4 5
M  V30 5 1 5 6
M  V30 6 1 6 7
M  V30 7 1 7 8
M  V30 8 2 8 9
M  V30 9 1 9 10
M  V30 10 2 10 11
M  V30 11 1 11 12
M  V30 12 2 12 13
M  V30 13 1 13 14
M  V30 14 2 14 15
M  V30 15 1 15 16
M  V30 16 1 4 17
M  V30 17 1 17 18
M  V30 18 1 18 19
M  V30 19 2 19 20
M  V30 20 1 19 21
M  V30 21 1 21 22
M  V30 22 1 22 23
M  V30 23 1 23 24
M  V30 24 1 24 25
M  V30 25 1 25 26
M  V30 26 1 18 2
M  V30 27 1 26 21
M  V30 28 2 16 7
M  V30 29 1 15 10
M  V30 30 1 1 27
M  V30 31 1 1 28
M  V30 32 1 1 29
M  V30 33 1 2 30 CFG=3
M  V30 34 1 3 31
M  V30 35 1 3 32
M  V30 36 1 5 33
M  V30 37 1 5 34
M  V30 38 1 6 35
M  V30 39 1 6 36
M  V30 40 1 8 37
M  V30 41 1 9 38
M  V30 42 1 11 39
M  V30 43 1 12 40
M  V30 44 1 13 41
M  V30 45 1 14 42
M  V30 46 1 16 43
M  V30 47 1 17 44
M  V30 48 1 17 45
M  V30 49 1 18 46 CFG=1
M  V30 50 1 22 47
M  V30 51 1 22 48
M  V30 52 1 23 49
M  V30 53 1 23 50
M  V30 54 1 25 51
M  V30 55 1 25 52
M  V30 56 1 26 53
M  V30 57 1 26 54
M  V30 END BOND
M  V30 BEGIN COLLECTION
M  V30 MDLV30/STERAC1 ATOMS=(2 2 18)
M  V30 END COLLECTION
M  V30 END CTAB
M  END
>  <_CXSMILES_Data>  (1281) 
|&1:1,17|

$$$$
OCNT-2317842
     RDKit          3D

 49 51  0  0  0  0  0  0  0  0999 V2000
    6.7627   -0.5458    2.0460 C   0  0  0  0  0  0  0  0  0  0  0  0
    5.4534   -0.7995    1.3204 C   0  0  0  0  0  0  0  0  0  0  0  0
    4.8892    0.4648    0.9769 O   0  0  0  0  0  0  0  0  0  0  0  0
    3.6866    0.4518    0.3256 C   0  0  0  0  0  0  0  0  0  0  0  0
    2.9706   -0.6812   -0.0558 C   0  0  0  0  0  0  0  0  0  0  0  0
    1.7456   -0.5476   -0.7187 C   0  0  0  0  0  0  0  0  0  0  0  0
    1.2127    0.7185   -1.0075 C   0  0  0  0  0  0  0  0  0  0  0  0
   -0.1112    0.8725   -1.7273 C   0  0  0  0  0  0  0  0  0  0  0  0
   -0.0163    0.4728   -3.2091 C   0  0  0  0  0  0  0  0  0  0  0  0
   -1.1515   -0.5173   -3.4279 C   0  0  0  0  0  0  0  0  0  0  0  0
   -2.0975   -0.2494   -2.2741 C   0  0  0  0  0  0  0  0  0  0  0  0
   -1.1694    0.0053   -1.1727 N   0  0  0  0  0  0  0  0  0  0  0  0
   -1.8034    0.5815    0.0121 C   0  0  0  0  0  0  0  0  0  0  0  0
   -2.6638   -0.4157    0.6991 C   0  0  0  0  0  0  0  0  0  0  0  0
   -2.3475   -1.5887    1.3617 C   0  0  0  0  0  0  0  0  0  0  0  0
   -1.0316   -2.2273    1.5628 C   0  0  0  0  0  0  0  0  0  0  0  0
   -3.4908   -2.1558    1.8564 N   0  0  0  0  0  0  0  0  0  0  0  0
   -4.5119   -1.3788    1.5288 N   0  0  0  0  0  0  0  0  0  0  0  0
   -4.0251   -0.3376    0.8306 N   0  0  0  0  0  0  0  0  0  0  0  0
   -4.9411    0.6647    0.3325 C   0  0  0  0  0  0  0  0  0  0  0  0
   -5.1051    1.8243    1.2987 C   0  0  0  0  0  0  0  0  0  0  0  0
    1.9434    1.8508   -0.6261 C   0  0  0  0  0  0  0  0  0  0  0  0
    3.1674    1.7147    0.0346 C   0  0  0  0  0  0  0  0  0  0  0  0
    7.2389   -1.4880    2.3317 H   0  0  0  0  0  0  0  0  0  0  0  0
    6.5941    0.0530    2.9474 H   0  0  0  0  0  0  0  0  0  0  0  0
    7.4520    0.0208    1.4111 H   0  0  0  0  0  0  0  0  0  0  0  0
    5.6536   -1.3849    0.4156 H   0  0  0  0  0  0  0  0  0  0  0  0
    4.7778   -1.3507    1.9848 H   0  0  0  0  0  0  0  0  0  0  0  0
    3.3329   -1.6837    0.1443 H   0  0  0  0  0  0  0  0  0  0  0  0
    1.1977   -1.4432   -1.0073 H   0  0  0  0  0  0  0  0  0  0  0  0
   -0.4343    1.9227   -1.6850 H   0  0  0  0  0  0  0  0  0  0  0  0
   -0.1733    1.3573   -3.8388 H   0  0  0  0  0  0  0  0  0  0  0  0
    0.9429    0.0295   -3.4980 H   0  0  0  0  0  0  0  0  0  0  0  0
   -1.6320   -0.3869   -4.4021 H   0  0  0  0  0  0  0  0  0  0  0  0
   -0.7653   -1.5430   -3.3740 H   0  0  0  0  0  0  0  0  0  0  0  0
   -2.7462   -1.1110   -2.0889 H   0  0  0  0  0  0  0  0  0  0  0  0
   -2.7216    0.6263   -2.4923 H   0  0  0  0  0  0  0  0  0  0  0  0
   -1.0340    0.8863    0.7337 H   0  0  0  0  0  0  0  0  0  0  0  0
   -2.3547    1.4945   -0.2409 H   0  0  0  0  0  0  0  0  0  0  0  0
   -0.2911   -1.4955    1.9004 H   0  0  0  0  0  0  0  0  0  0  0  0
   -1.0916   -3.0182    2.3170 H   0  0  0  0  0  0  0  0  0  0  0  0
   -0.6781   -2.6743    0.6286 H   0  0  0  0  0  0  0  0  0  0  0  0
   -5.9066    0.1775    0.1548 H   0  0  0  0  0  0  0  0  0  0  0  0
   -4.5718    1.0137   -0.6366 H   0  0  0  0  0  0  0  0  0  0  0  0
   -5.4884    1.4806    2.2654 H   0  0  0  0  0  0  0  0  0  0  0  0
   -5.8076    2.5594    0.8942 H   0  0  0  0  0  0  0  0  0  0  0  0
   -4.1500    2.3284    1.4795 H   0  0  0  0  0  0  0  0  0  0  0  0
    1.5691    2.8494   -0.8374 H   0  0  0  0  0  0  0  0  0  0  0  0
    3.7222    2.6030    0.3276 H   0  0  0  0  0  0  0  0  0  0  0  0
  1  2  1  0
  2  3  1  0
  3  4  1  0
  4  5  1  0
  5  6  2  0
  6  7  1  0
  7  8  1  0
  8  9  1  0
  9 10  1  0
 10 11  1  0
 11 12  1  0
 12 13  1  0
 13 14  1  0
 14 15  2  0
 15 16  1  0
 15 17  1  0
 17 18  2  0
 18 19  1  0
 19 20  1  0
 20 21  1  0
  7 22  2  0
 22 23  1  0
 23  4  2  0
 12  8  1  0
 19 14  1  0
  1 24  1  0
  1 25  1  0
  1 26  1  0
  2 27  1  0
  2 28  1  0
  5 29  1  0
  6 30  1  0
  8 31  1  0
  9 32  1  0
  9 33  1  0
 10 34  1  0
 10 35  1  0
 11 36  1  0
 11 37  1  0
 13 38  1  0
 13 39  1  0
 16 40  1  0
 16 41  1  0
 16 42  1  0
 20 43  1  0
 20 44  1  0
 21 45  1  0
 21 46  1  0
 21 47  1  0
 22 48  1  0
 23 49  1  0
M  END
$$$$
OCNT-2317846
     RDKit          3D

 40 41  0  0  0  0  0  0  0  0999 V2000
    5.7687    0.8255   -1.3320 C   0  0  0  0  0  0  0  0  0  0  0  0
    5.6556   -0.6325   -0.9138 C   0  0  0  0  0  0  0  0  0  0  0  0
    4.2579   -1.0436   -0.8048 N   0  0  0  0  0  0  0  0  0  0  0  0
    3.6173   -0.7315    0.4073 C   0  0  0  0  0  0  0  0  0  0  0  0
    2.2892   -1.1265    0.5597 C   0  0  0  0  0  0  0  0  0  0  0  0
    1.5931   -0.8176    1.7353 C   0  0  0  0  0  0  0  0  0  0  0  0
    0.1531   -1.2137    1.8943 C   0  0  0  0  0  0  0  0  0  0  0  0
   -0.6893   -0.4350    1.0146 N   0  0  0  0  0  0  0  0  0  0  0  0
   -2.0401   -0.7132    0.9622 C   0  0  0  0  0  0  0  0  0  0  0  0
   -2.5434   -1.6331    1.5918 O   0  0  0  0  0  0  0  0  0  0  0  0
   -2.6794    0.1619    0.1116 N   0  0  0  0  0  0  0  0  0  0  0  0
   -4.0660    0.2591   -0.1508 C   0  0  0  0  0  0  0  0  0  0  0  0
   -5.0152   -0.4479    0.5871 C   0  0  0  0  0  0  0  0  0  0  0  0
   -6.3562   -0.2930    0.2770 C   0  0  0  0  0  0  0  0  0  0  0  0
   -6.8126    0.5117   -0.7013 N   0  0  0  0  0  0  0  0  0  0  0  0
   -5.8817    1.1919   -1.4015 C   0  0  0  0  0  0  0  0  0  0  0  0
   -4.5077    1.1128   -1.1768 C   0  0  0  0  0  0  0  0  0  0  0  0
   -3.5798    1.9250   -2.0300 C   0  0  0  0  0  0  0  0  0  0  0  0
    2.2612   -0.1073    2.7294 C   0  0  0  0  0  0  0  0  0  0  0  0
    3.5762    0.2546    2.5005 C   0  0  0  0  0  0  0  0  0  0  0  0
    4.2544   -0.0371    1.3692 N   0  0  0  0  0  0  0  0  0  0  0  0
    5.3531    1.5001   -0.5774 H   0  0  0  0  0  0  0  0  0  0  0  0
    6.8187    1.0948   -1.4830 H   0  0  0  0  0  0  0  0  0  0  0  0
    5.2327    1.0051   -2.2701 H   0  0  0  0  0  0  0  0  0  0  0  0
    6.2228   -0.8322    0.0033 H   0  0  0  0  0  0  0  0  0  0  0  0
    6.1205   -1.2435   -1.6969 H   0  0  0  0  0  0  0  0  0  0  0  0
    4.1508   -2.0407   -0.9698 H   0  0  0  0  0  0  0  0  0  0  0  0
    1.7897   -1.6597   -0.2444 H   0  0  0  0  0  0  0  0  0  0  0  0
   -0.1887   -1.0551    2.9241 H   0  0  0  0  0  0  0  0  0  0  0  0
    0.0243   -2.2795    1.6706 H   0  0  0  0  0  0  0  0  0  0  0  0
   -0.4487    0.5414    0.9311 H   0  0  0  0  0  0  0  0  0  0  0  0
   -2.0605    0.6846   -0.4881 H   0  0  0  0  0  0  0  0  0  0  0  0
   -4.7501   -1.1128    1.3996 H   0  0  0  0  0  0  0  0  0  0  0  0
   -7.1201   -0.8313    0.8309 H   0  0  0  0  0  0  0  0  0  0  0  0
   -6.2905    1.8297   -2.1815 H   0  0  0  0  0  0  0  0  0  0  0  0
   -2.9017    1.2692   -2.5855 H   0  0  0  0  0  0  0  0  0  0  0  0
   -2.9970    2.6140   -1.4101 H   0  0  0  0  0  0  0  0  0  0  0  0
   -4.1272    2.5277   -2.7628 H   0  0  0  0  0  0  0  0  0  0  0  0
    1.7761    0.1661    3.6604 H   0  0  0  0  0  0  0  0  0  0  0  0
    4.1406    0.8115    3.2431 H   0  0  0  0  0  0  0  0  0  0  0  0
  1  2  1  0
  2  3  1  0
  3  4  1  0
  4  5  2  0
  5  6  1  0
  6  7  1  0
  7  8  1  0
  8  9  1  0
  9 10  2  0
  9 11  1  0
 11 12  1  0
 12 13  2  0
 13 14  1  0
 14 15  2  0
 15 16  1  0
 16 17  2  0
 17 18  1  0
  6 19  2  0
 19 20  1  0
 20 21  2  0
 21  4  1  0
 17 12  1  0
  1 22  1  0
  1 23  1  0
  1 24  1  0
  2 25  1  0
  2 26  1  0
  3 27  1  0
  5 28  1  0
  7 29  1  0
  7 30  1  0
  8 31  1  0
 11 32  1  0
 13 33  1  0
 14 34  1  0
 16 35  1  0
 18 36  1  0
 18 37  1  0
 18 38  1  0
 19 39  1  0
 20 40  1  0
M  END
$$$$
OCNT-2317874
     RDKit          3D

 42 44  0  0  0  0  0  0  0  0999 V2000
    7.6022   -0.4862   -0.5953 C   0  0  0  0  0  0  0  0  0  0  0  0
    6.8628    0.3312    0.4522 C   0  0  0  0  0  0  0  0  0  0  0  0
    5.3859    0.3266    0.2089 C   0  0  0  0  0  0  0  0  0  0  0  0
    4.7740    1.1599   -0.6038 N   0  0  0  0  0  0  0  0  0  0  0  0
    3.4147    0.8970   -0.6133 C   0  0  0  0  0  0  0  0  0  0  0  0
    2.4463    1.5853   -1.3666 C   0  0  0  0  0  0  0  0  0  0  0  0
    1.1005    1.2083   -1.2756 C   0  0  0  0  0  0  0  0  0  0  0  0
    0.6971    0.1561   -0.4480 C   0  0  0  0  0  0  0  0  0  0  0  0
   -0.6807   -0.1370   -0.4294 N   0  0  0  0  0  0  0  0  0  0  0  0
   -1.3421   -1.1196    0.2857 C   0  0  0  0  0  0  0  0  0  0  0  0
   -0.8003   -1.9665    0.9924 O   0  0  0  0  0  0  0  0  0  0  0  0
   -2.8743   -1.1379    0.0276 C   0  0  1  0  0  0  0  0  0  0  0  0
   -3.5744   -2.1993    0.8969 C   0  0  0  0  0  0  0  0  0  0  0  0
   -4.9200   -1.5765    1.2375 C   0  0  2  0  0  0  0  0  0  0  0  0
   -5.8452   -1.7898    0.1715 O   0  0  0  0  0  0  0  0  0  0  0  0
   -4.5904   -0.0935    1.3759 C   0  0  0  0  0  0  0  0  0  0  0  0
   -3.5669    0.1252    0.3574 N   0  0  0  0  0  0  0  0  0  0  0  0
   -3.4672    1.2444   -0.4364 C   0  0  0  0  0  0  0  0  0  0  0  0
   -4.2670    2.4557   -0.0346 C   0  0  0  0  0  0  0  0  0  0  0  0
   -2.7395    1.2628   -1.4304 O   0  0  0  0  0  0  0  0  0  0  0  0
    1.6492   -0.5365    0.3078 C   0  0  0  0  0  0  0  0  0  0  0  0
    3.0001   -0.1499    0.2092 C   0  0  0  0  0  0  0  0  0  0  0  0
    4.3766   -0.8089    1.0083 S   0  0  0  0  0  0  0  0  0  0  0  0
    7.2884   -1.5354   -0.5754 H   0  0  0  0  0  0  0  0  0  0  0  0
    7.4164   -0.0996   -1.6032 H   0  0  0  0  0  0  0  0  0  0  0  0
    8.6807   -0.4512   -0.4116 H   0  0  0  0  0  0  0  0  0  0  0  0
    7.0959   -0.0528    1.4522 H   0  0  0  0  0  0  0  0  0  0  0  0
    7.2233    1.3663    0.4221 H   0  0  0  0  0  0  0  0  0  0  0  0
    2.7510    2.4026   -2.0122 H   0  0  0  0  0  0  0  0  0  0  0  0
    0.3710    1.7570   -1.8686 H   0  0  0  0  0  0  0  0  0  0  0  0
   -1.2709    0.4509   -1.0224 H   0  0  0  0  0  0  0  0  0  0  0  0
   -3.0378   -1.3504   -1.0365 H   0  0  0  0  0  0  0  0  0  0  0  0
   -3.0261   -2.3837    1.8279 H   0  0  0  0  0  0  0  0  0  0  0  0
   -3.6668   -3.1480    0.3584 H   0  0  0  0  0  0  0  0  0  0  0  0
   -5.3597   -1.9928    2.1478 H   0  0  0  0  0  0  0  0  0  0  0  0
   -5.5230   -1.3155   -0.6155 H   0  0  0  0  0  0  0  0  0  0  0  0
   -5.4638    0.5430    1.2159 H   0  0  0  0  0  0  0  0  0  0  0  0
   -4.1341    0.1256    2.3468 H   0  0  0  0  0  0  0  0  0  0  0  0
   -3.8553    3.3395   -0.5312 H   0  0  0  0  0  0  0  0  0  0  0  0
   -4.2067    2.6202    1.0445 H   0  0  0  0  0  0  0  0  0  0  0  0
   -5.3078    2.3298   -0.3429 H   0  0  0  0  0  0  0  0  0  0  0  0
    1.3839   -1.3565    0.9643 H   0  0  0  0  0  0  0  0  0  0  0  0
  1  2  1  0
  2  3  1  0
  3  4  2  0
  4  5  1  0
  5  6  2  0
  6  7  1  0
  7  8  2  0
  8  9  1  0
  9 10  1  0
 10 11  2  0
 10 12  1  0
 12 13  1  0
 13 14  1  0
 14 15  1  0
 14 16  1  0
 16 17  1  0
 17 18  1  0
 18 19  1  0
 18 20  2  0
  8 21  1  0
 21 22  2  0
 22 23  1  0
 23  3  1  0
 22  5  1  0
 17 12  1  0
  1 24  1  0
  1 25  1  0
  1 26  1  0
  2 27  1  0
  2 28  1  0
  6 29  1  0
  7 30  1  0
  9 31  1  0
 12 32  1  6
 13 33  1  0
 13 34  1  0
 14 35  1  1
 15 36  1  0
 16 37  1  0
 16 38  1  0
 19 39  1  0
 19 40  1  0
 19 41  1  0
 21 42  1  0
M  END
$$$$
OCNT-2317890
     RDKit          3D

 47 50  0  0  0  0  0  0  0  0999 V2000
   -4.5493   -0.0287    2.2523 O   0  0  0  0  0  0  0  0  0  0  0  0
   -4.2208    0.1283    0.8590 C   0  0  0  0  0  0  0  0  0  0  0  0
   -2.9823    0.9799    0.6232 C   0  0  0  0  0  0  0  0  0  0  0  0
   -1.8254    0.4876    1.5162 C   0  0  0  0  0  0  0  0  0  0  0  0
   -0.4766    0.9573    0.9822 C   0  0  0  0  0  0  0  0  0  0  0  0
   -0.1673    0.3589   -0.3250 N   0  0  0  0  0  0  0  0  0  0  0  0
    0.9202    1.0978   -0.9769 C   0  0  0  0  0  0  0  0  0  0  0  0
    1.5297    0.3400   -2.0976 C   0  0  0  0  0  0  0  0  0  0  0  0
    1.6759    0.6551   -3.4318 C   0  0  0  0  0  0  0  0  0  0  0  0
    2.3283   -0.3503   -4.0806 N   0  0  0  0  0  0  0  0  0  0  0  0
    2.6045   -1.2957   -3.1948 N   0  0  0  0  0  0  0  0  0  0  0  0
    2.1370   -0.8871   -1.9950 N   0  0  0  0  0  0  0  0  0  0  0  0
    2.2924   -1.7544   -0.8382 C   0  0  0  0  0  0  0  0  0  0  0  0
    3.3011   -1.2264    0.1544 C   0  0  0  0  0  0  0  0  0  0  0  0
    2.9454   -1.0671    1.5021 C   0  0  0  0  0  0  0  0  0  0  0  0
    3.8744   -0.5955    2.4309 C   0  0  0  0  0  0  0  0  0  0  0  0
    5.1714   -0.2874    2.0260 C   0  0  0  0  0  0  0  0  0  0  0  0
    5.5424   -0.4548    0.6936 C   0  0  0  0  0  0  0  0  0  0  0  0
    4.6153   -0.9264   -0.2369 C   0  0  0  0  0  0  0  0  0  0  0  0
   -1.3557    0.1840   -1.1755 C   0  0  0  0  0  0  0  0  0  0  0  0
   -2.5133    1.1258   -0.8368 C   0  0  0  0  0  0  0  0  0  0  0  0
   -4.5856   -1.0471   -0.0084 C   0  0  0  0  0  0  0  0  0  0  0  0
   -5.4311    0.1982   -0.0393 C   0  0  0  0  0  0  0  0  0  0  0  0
   -4.9367    0.7870    2.6137 H   0  0  0  0  0  0  0  0  0  0  0  0
   -3.2541    1.9904    0.9600 H   0  0  0  0  0  0  0  0  0  0  0  0
   -1.9671    0.8606    2.5382 H   0  0  0  0  0  0  0  0  0  0  0  0
   -1.8292   -0.6085    1.5873 H   0  0  0  0  0  0  0  0  0  0  0  0
   -0.4833    2.0542    0.9243 H   0  0  0  0  0  0  0  0  0  0  0  0
    0.3065    0.6790    1.6963 H   0  0  0  0  0  0  0  0  0  0  0  0
    1.7169    1.3123   -0.2526 H   0  0  0  0  0  0  0  0  0  0  0  0
    0.5595    2.0720   -1.3325 H   0  0  0  0  0  0  0  0  0  0  0  0
    1.3502    1.5435   -3.9530 H   0  0  0  0  0  0  0  0  0  0  0  0
    2.6141   -2.7420   -1.1902 H   0  0  0  0  0  0  0  0  0  0  0  0
    1.3022   -1.8823   -0.3901 H   0  0  0  0  0  0  0  0  0  0  0  0
    1.9384   -1.3076    1.8377 H   0  0  0  0  0  0  0  0  0  0  0  0
    3.5872   -0.4724    3.4720 H   0  0  0  0  0  0  0  0  0  0  0  0
    5.8955    0.0777    2.7497 H   0  0  0  0  0  0  0  0  0  0  0  0
    6.5560   -0.2213    0.3773 H   0  0  0  0  0  0  0  0  0  0  0  0
    4.9263   -1.0569   -1.2730 H   0  0  0  0  0  0  0  0  0  0  0  0
   -1.1200    0.2841   -2.2412 H   0  0  0  0  0  0  0  0  0  0  0  0
   -1.6922   -0.8524   -1.0527 H   0  0  0  0  0  0  0  0  0  0  0  0
   -2.1685    2.1577   -0.9917 H   0  0  0  0  0  0  0  0  0  0  0  0
   -3.3236    0.9802   -1.5559 H   0  0  0  0  0  0  0  0  0  0  0  0
   -3.9970   -1.2796   -0.8853 H   0  0  0  0  0  0  0  0  0  0  0  0
   -4.9905   -1.9256    0.4830 H   0  0  0  0  0  0  0  0  0  0  0  0
   -6.4138    0.1427    0.4170 H   0  0  0  0  0  0  0  0  0  0  0  0
   -5.4073    0.8150   -0.9278 H   0  0  0  0  0  0  0  0  0  0  0  0
  1  2  1  0
  2  3  1  0
  3  4  1  0
  4  5  1  0
  5  6  1  0
  6  7  1  0
  7  8  1  0
  8  9  2  0
  9 10  1  0
 10 11  2  0
 11 12  1  0
 12 13  1  0
 13 14  1  0
 14 15  2  0
 15 16  1  0
 16 17  2  0
 17 18  1  0
 18 19  2  0
  6 20  1  0
 20 21  1  0
  2 22  1  0
 22 23  1  0
 23  2  1  0
 21  3  1  0
 12  8  1  0
 19 14  1  0
  1 24  1  0
  3 25  1  0
  4 26  1  0
  4 27  1  0
  5 28  1  0
  5 29  1  0
  7 30  1  0
  7 31  1  0
  9 32  1  0
 13 33  1  0
 13 34  1  0
 15 35  1  0
 16 36  1  0
 17 37  1  0
 18 38  1  0
 19 39  1  0
 20 40  1  0
 20 41  1  0
 21 42  1  0
 21 43  1  0
 22 44  1  0
 22 45  1  0
 23 46  1  0
 23 47  1  0
M  END
$$$$
OCNT-2317895
     RDKit          3D

 56 58  0  0  0  0  0  0  0  0999 V2000
    3.5711    0.9402    2.3105 C   0  0  0  0  0  0  0  0  0  0  0  0
    2.7524    0.6249    1.1539 N   0  0  0  0  0  0  0  0  0  0  0  0
    3.2566    1.0391   -0.1526 C   0  0  0  0  0  0  0  0  0  0  0  0
    3.7982   -0.1461   -0.8942 C   0  0  0  0  0  0  0  0  0  0  0  0
    3.0569   -1.1194   -1.4022 N   0  0  0  0  0  0  0  0  0  0  0  0
    3.9311   -2.0045   -1.9735 C   0  0  0  0  0  0  0  0  0  0  0  0
    5.2221   -1.5589   -1.8426 C   0  0  0  0  0  0  0  0  0  0  0  0
    5.1295   -0.3714   -1.1622 N   0  0  0  0  0  0  0  0  0  0  0  0
    6.2388    0.5133   -0.8571 C   0  0  0  0  0  0  0  0  0  0  0  0
    6.1902    0.9527    0.4257 F   0  0  0  0  0  0  0  0  0  0  0  0
    7.4366   -0.1093   -1.0093 F   0  0  0  0  0  0  0  0  0  0  0  0
    1.4761    0.1246    1.3617 C   0  0  0  0  0  0  0  0  0  0  0  0
    0.9571    0.0612    2.4730 O   0  0  0  0  0  0  0  0  0  0  0  0
    0.8255   -0.2771    0.2233 N   0  0  0  0  0  0  0  0  0  0  0  0
   -0.5132   -0.8439    0.2715 C   0  0  0  0  0  0  0  0  0  0  0  0
   -1.6657    0.1590   -0.0946 C   0  0  0  0  0  0  0  0  0  0  0  0
   -3.0079   -0.4874    0.0363 N   0  0  0  0  0  0  0  0  0  0  0  0
   -3.3629   -0.9925    1.3801 C   0  0  0  0  0  0  0  0  0  0  0  0
   -3.4915   -2.5245    1.4495 C   0  0  0  0  0  0  0  0  0  0  0  0
   -4.4567   -3.0616    0.5373 O   0  0  0  0  0  0  0  0  0  0  0  0
   -4.6372   -2.2500   -0.6286 C   0  0  0  0  0  0  0  0  0  0  0  0
   -3.3761   -1.4573   -1.0104 C   0  0  0  0  0  0  0  0  0  0  0  0
   -1.6126    1.4249    0.8093 C   0  0  0  0  0  0  0  0  0  0  0  0
   -2.7230    2.4422    0.5158 C   0  0  0  0  0  0  0  0  0  0  0  0
   -3.2744    2.3789   -0.9070 C   0  0  0  0  0  0  0  0  0  0  0  0
   -2.2405    1.9387   -1.9337 C   0  0  0  0  0  0  0  0  0  0  0  0
   -1.4233    0.6977   -1.5427 C   0  0  0  0  0  0  0  0  0  0  0  0
    4.5645    0.5064    2.1726 H   0  0  0  0  0  0  0  0  0  0  0  0
    3.1477    0.5400    3.2356 H   0  0  0  0  0  0  0  0  0  0  0  0
    3.6517    2.0275    2.3995 H   0  0  0  0  0  0  0  0  0  0  0  0
    3.9985    1.8329   -0.0246 H   0  0  0  0  0  0  0  0  0  0  0  0
    2.4328    1.4728   -0.7321 H   0  0  0  0  0  0  0  0  0  0  0  0
    3.5851   -2.9122   -2.4520 H   0  0  0  0  0  0  0  0  0  0  0  0
    6.1691   -1.9725   -2.1636 H   0  0  0  0  0  0  0  0  0  0  0  0
    6.1924    1.3697   -1.5362 H   0  0  0  0  0  0  0  0  0  0  0  0
    1.4445   -0.6886   -0.4737 H   0  0  0  0  0  0  0  0  0  0  0  0
   -0.5070   -1.6779   -0.4395 H   0  0  0  0  0  0  0  0  0  0  0  0
   -0.6690   -1.2765    1.2648 H   0  0  0  0  0  0  0  0  0  0  0  0
   -2.6727   -0.6612    2.1607 H   0  0  0  0  0  0  0  0  0  0  0  0
   -4.3379   -0.5559    1.6309 H   0  0  0  0  0  0  0  0  0  0  0  0
   -2.5279   -3.0035    1.2413 H   0  0  0  0  0  0  0  0  0  0  0  0
   -3.7914   -2.8289    2.4575 H   0  0  0  0  0  0  0  0  0  0  0  0
   -4.9241   -2.9159   -1.4490 H   0  0  0  0  0  0  0  0  0  0  0  0
   -5.4825   -1.5748   -0.4496 H   0  0  0  0  0  0  0  0  0  0  0  0
   -3.5823   -0.9320   -1.9485 H   0  0  0  0  0  0  0  0  0  0  0  0
   -2.5621   -2.1701   -1.1828 H   0  0  0  0  0  0  0  0  0  0  0  0
   -0.6549    1.9392    0.6487 H   0  0  0  0  0  0  0  0  0  0  0  0
   -1.6250    1.1751    1.8759 H   0  0  0  0  0  0  0  0  0  0  0  0
   -2.3335    3.4486    0.7136 H   0  0  0  0  0  0  0  0  0  0  0  0
   -3.5516    2.2981    1.2201 H   0  0  0  0  0  0  0  0  0  0  0  0
   -3.6821    3.3581   -1.1853 H   0  0  0  0  0  0  0  0  0  0  0  0
   -4.1273    1.6904   -0.9383 H   0  0  0  0  0  0  0  0  0  0  0  0
   -2.7352    1.7616   -2.8961 H   0  0  0  0  0  0  0  0  0  0  0  0
   -1.5451    2.7710   -2.1042 H   0  0  0  0  0  0  0  0  0  0  0  0
   -1.5649   -0.0908   -2.2910 H   0  0  0  0  0  0  0  0  0  0  0  0
   -0.3666    0.9759   -1.6576 H   0  0  0  0  0  0  0  0  0  0  0  0
  1  2  1  0
  2  3  1  0
  3  4  1  0
  4  5  2  0
  5  6  1  0
  6  7  2  0
  7  8  1  0
  8  9  1  0
  9 10  1  0
  9 11  1  0
  2 12  1  0
 12 13  2  0
 12 14  1  0
 14 15  1  0
 15 16  1  0
 16 17  1  0
 17 18  1  0
 18 19  1  0
 19 20  1  0
 20 21  1  0
 21 22  1  0
 16 23  1  0
 23 24  1  0
 24 25  1  0
 25 26  1  0
 26 27  1  0
  8  4  1  0
 27 16  1  0
 22 17  1  0
  1 28  1  0
  1 29  1  0
  1 30  1  0
  3 31  1  0
  3 32  1  0
  6 33  1  0
  7 34  1  0
  9 35  1  0
 14 36  1  0
 15 37  1  0
 15 38  1  0
 18 39  1  0
 18 40  1  0
 19 41  1  0
 19 42  1  0
 21 43  1  0
 21 44  1  0
 22 45  1  0
 22 46  1  0
 23 47  1  0
 23 48  1  0
 24 49  1  0
 24 50  1  0
 25 51  1  0
 25 52  1  0
 26 53  1  0
 26 54  1  0
 27 55  1  0
 27 56  1  0
M  END
$$$$
OCNT-2317896
     RDKit          3D

 38 40  0  0  0  0  0  0  0  0999 V2000
   -4.9660    0.4971    0.9516 C   0  0  0  0  0  0  0  0  0  0  0  0
   -3.7474    0.1801    0.0811 C   0  0  0  0  0  0  0  0  0  0  0  0
   -4.1317    0.1547   -1.3989 C   0  0  0  0  0  0  0  0  0  0  0  0
   -2.6093    1.1462    0.3188 C   0  0  0  0  0  0  0  0  0  0  0  0
   -1.2386    0.9311    0.4898 C   0  0  0  0  0  0  0  0  0  0  0  0
   -0.5574   -0.3697    0.4712 C   0  0  0  0  0  0  0  0  0  0  0  0
   -1.1443   -1.4472    0.4512 O   0  0  0  0  0  0  0  0  0  0  0  0
    0.8189   -0.3020    0.4497 N   0  0  0  0  0  0  0  0  0  0  0  0
    1.6015   -1.5077    0.2833 C   0  0  0  0  0  0  0  0  0  0  0  0
    1.6968   -1.9727   -1.1812 C   0  0  0  0  0  0  0  0  0  0  0  0
    2.9015   -1.4114   -1.7656 O   0  0  0  0  0  0  0  0  0  0  0  0
    3.7203   -1.1754   -0.6847 C   0  0  0  0  0  0  0  0  0  0  0  0
    5.0741   -0.8768   -0.7524 C   0  0  0  0  0  0  0  0  0  0  0  0
    5.8608   -0.8042   -2.2867 Cl  0  0  0  0  0  0  0  0  0  0  0  0
    5.7506   -0.6486    0.4542 C   0  0  0  0  0  0  0  0  0  0  0  0
    7.4392   -0.2729    0.5091 Cl  0  0  0  0  0  0  0  0  0  0  0  0
    5.0648   -0.7153    1.6836 C   0  0  0  0  0  0  0  0  0  0  0  0
    3.6983   -1.0053    1.7258 C   0  0  0  0  0  0  0  0  0  0  0  0
    3.0422   -1.2359    0.5282 C   0  0  0  0  0  0  0  0  0  0  0  0
   -0.6606    2.2264    0.6949 C   0  0  0  0  0  0  0  0  0  0  0  0
   -1.6611    3.1648    0.6117 C   0  0  0  0  0  0  0  0  0  0  0  0
   -2.8318    2.5053    0.3682 N   0  0  0  0  0  0  0  0  0  0  0  0
   -5.4292    1.4509    0.6764 H   0  0  0  0  0  0  0  0  0  0  0  0
   -5.7276   -0.2821    0.8419 H   0  0  0  0  0  0  0  0  0  0  0  0
   -4.6900    0.5490    2.0103 H   0  0  0  0  0  0  0  0  0  0  0  0
   -3.4286   -0.8290    0.3594 H   0  0  0  0  0  0  0  0  0  0  0  0
   -4.4904    1.1329   -1.7396 H   0  0  0  0  0  0  0  0  0  0  0  0
   -3.2738   -0.1177   -2.0233 H   0  0  0  0  0  0  0  0  0  0  0  0
   -4.9259   -0.5773   -1.5815 H   0  0  0  0  0  0  0  0  0  0  0  0
    1.2483    0.5793    0.2117 H   0  0  0  0  0  0  0  0  0  0  0  0
    1.2008   -2.3049    0.9186 H   0  0  0  0  0  0  0  0  0  0  0  0
    1.7898   -3.0652   -1.2382 H   0  0  0  0  0  0  0  0  0  0  0  0
    0.8350   -1.6726   -1.7869 H   0  0  0  0  0  0  0  0  0  0  0  0
    5.5994   -0.5335    2.6145 H   0  0  0  0  0  0  0  0  0  0  0  0
    3.1675   -1.0414    2.6734 H   0  0  0  0  0  0  0  0  0  0  0  0
    0.3782    2.4588    0.8922 H   0  0  0  0  0  0  0  0  0  0  0  0
   -1.6392    4.2421    0.7061 H   0  0  0  0  0  0  0  0  0  0  0  0
   -3.7353    2.9500    0.2609 H   0  0  0  0  0  0  0  0  0  0  0  0
  1  2  1  0
  2  3  1  0
  2  4  1  0
  4  5  2  0
  5  6  1  0
  6  7  2  0
  6  8  1  0
  8  9  1  0
  9 10  1  0
 10 11  1  0
 11 12  1  0
 12 13  1  0
 13 14  1  0
 13 15  2  0
 15 16  1  0
 15 17  1  0
 17 18  2  0
 18 19  1  0
  5 20  1  0
 20 21  2  0
 21 22  1  0
 22  4  1  0
 19  9  1  0
 19 12  2  0
  1 23  1  0
  1 24  1  0
  1 25  1  0
  2 26  1  0
  3 27  1  0
  3 28  1  0
  3 29  1  0
  8 30  1  0
  9 31  1  0
 10 32  1  0
 10 33  1  0
 17 34  1  0
 18 35  1  0
 20 36  1  0
 21 37  1  0
 22 38  1  0
M  END
$$$$
OCNT-2317901
     RDKit          3D

 54 58  0  0  0  0  0  0  0  0999 V2000
    2.2440   -0.3874    2.2551 O   0  0  0  0  0  0  0  0  0  0  0  0
    1.6756    0.3592    1.4712 C   0  0  0  0  0  0  0  0  0  0  0  0
    2.1368    1.5945    1.1005 N   0  0  0  0  0  0  0  0  0  0  0  0
    3.4293    2.0708    1.5350 C   0  0  0  0  0  0  0  0  0  0  0  0
    4.4974    1.7532    0.5156 C   0  0  0  0  0  0  0  0  0  0  0  0
    4.8266    2.6872   -0.4821 C   0  0  0  0  0  0  0  0  0  0  0  0
    5.7939    2.4097   -1.4555 C   0  0  0  0  0  0  0  0  0  0  0  0
    6.4065    1.1613   -1.3855 C   0  0  0  0  0  0  0  0  0  0  0  0
    7.3666    0.7002   -2.2362 O   0  0  0  0  0  0  0  0  0  0  0  0
    7.6938   -0.5521   -1.8213 C   0  0  0  0  0  0  0  0  0  0  0  0
    6.9533   -0.9072   -0.7172 C   0  0  0  0  0  0  0  0  0  0  0  0
    6.1133    0.2004   -0.4254 C   0  0  0  0  0  0  0  0  0  0  0  0
    5.1367    0.4952    0.5421 C   0  0  0  0  0  0  0  0  0  0  0  0
    0.4988    0.0666    0.8411 N   0  0  0  0  0  0  0  0  0  0  0  0
   -0.2406   -1.1379    1.1766 C   0  0  0  0  0  0  0  0  0  0  0  0
    0.4291   -2.4143    0.6138 C   0  0  0  0  0  0  0  0  0  0  0  0
   -0.5162   -3.6302    0.6755 C   0  0  0  0  0  0  0  0  0  0  0  0
   -1.7885   -3.4284   -0.1682 C   0  0  0  0  0  0  0  0  0  0  0  0
   -2.3455   -2.0641    0.0180 C   0  0  0  0  0  0  0  0  0  0  0  0
   -3.5518   -1.5135   -0.3399 C   0  0  0  0  0  0  0  0  0  0  0  0
   -3.5049   -0.2016    0.0504 N   0  0  0  0  0  0  0  0  0  0  0  0
   -4.5342    0.8037   -0.1016 C   0  0  0  0  0  0  0  0  0  0  0  0
   -4.7893    1.2218   -1.5543 C   0  0  0  0  0  0  0  0  0  0  0  0
   -6.2729    1.5936   -1.6299 C   0  0  0  0  0  0  0  0  0  0  0  0
   -6.8236    1.4360   -0.2160 C   0  0  0  0  0  0  0  0  0  0  0  0
   -5.9120    0.4032    0.4274 C   0  0  0  0  0  0  0  0  0  0  0  0
   -2.3285    0.1422    0.6216 N   0  0  0  0  0  0  0  0  0  0  0  0
   -1.6311   -1.0018    0.6169 C   0  0  0  0  0  0  0  0  0  0  0  0
    1.8186    1.9083    0.1962 H   0  0  0  0  0  0  0  0  0  0  0  0
    3.6907    1.6472    2.5114 H   0  0  0  0  0  0  0  0  0  0  0  0
    3.3463    3.1560    1.6647 H   0  0  0  0  0  0  0  0  0  0  0  0
    4.3259    3.6538   -0.5088 H   0  0  0  0  0  0  0  0  0  0  0  0
    6.0566    3.1227   -2.2269 H   0  0  0  0  0  0  0  0  0  0  0  0
    8.4543   -1.0520   -2.4050 H   0  0  0  0  0  0  0  0  0  0  0  0
    7.0094   -1.8469   -0.1858 H   0  0  0  0  0  0  0  0  0  0  0  0
    4.8734   -0.2407    1.2983 H   0  0  0  0  0  0  0  0  0  0  0  0
   -0.1058    0.8631    0.6769 H   0  0  0  0  0  0  0  0  0  0  0  0
   -0.3074   -1.2117    2.2700 H   0  0  0  0  0  0  0  0  0  0  0  0
    1.3455   -2.6359    1.1731 H   0  0  0  0  0  0  0  0  0  0  0  0
    0.7323   -2.2514   -0.4304 H   0  0  0  0  0  0  0  0  0  0  0  0
   -0.7975   -3.8057    1.7223 H   0  0  0  0  0  0  0  0  0  0  0  0
    0.0099   -4.5283    0.3343 H   0  0  0  0  0  0  0  0  0  0  0  0
   -2.5335   -4.1862    0.0964 H   0  0  0  0  0  0  0  0  0  0  0  0
   -1.5475   -3.5702   -1.2295 H   0  0  0  0  0  0  0  0  0  0  0  0
   -4.4164   -1.9319   -0.8353 H   0  0  0  0  0  0  0  0  0  0  0  0
   -4.2007    1.6889    0.4579 H   0  0  0  0  0  0  0  0  0  0  0  0
   -4.5716    0.4177   -2.2670 H   0  0  0  0  0  0  0  0  0  0  0  0
   -4.1525    2.0712   -1.8266 H   0  0  0  0  0  0  0  0  0  0  0  0
   -6.7895    0.9125   -2.3180 H   0  0  0  0  0  0  0  0  0  0  0  0
   -6.4198    2.6129   -2.0055 H   0  0  0  0  0  0  0  0  0  0  0  0
   -7.8731    1.1271   -0.2120 H   0  0  0  0  0  0  0  0  0  0  0  0
   -6.7492    2.3899    0.3211 H   0  0  0  0  0  0  0  0  0  0  0  0
   -5.9604    0.4341    1.5206 H   0  0  0  0  0  0  0  0  0  0  0  0
   -6.2005   -0.6051    0.1058 H   0  0  0  0  0  0  0  0  0  0  0  0
  1  2  2  0
  2  3  1  0
  3  4  1  0
  4  5  1  0
  5  6  2  0
  6  7  1  0
  7  8  2  0
  8  9  1  0
  9 10  1  0
 10 11  2  0
 11 12  1  0
 12 13  2  0
  2 14  1  0
 14 15  1  0
 15 16  1  0
 16 17  1  0
 17 18  1  0
 18 19  1  0
 19 20  2  0
 20 21  1  0
 21 22  1  0
 22 23  1  0
 23 24  1  0
 24 25  1  0
 25 26  1  0
 21 27  1  0
 27 28  2  0
 13  5  1  0
 28 15  1  0
 12  8  1  0
 28 19  1  0
 26 22  1  0
  3 29  1  0
  4 30  1  0
  4 31  1  0
  6 32  1  0
  7 33  1  0
 10 34  1  0
 11 35  1  0
 13 36  1  0
 14 37  1  0
 15 38  1  0
 16 39  1  0
 16 40  1  0
 17 41  1  0
 17 42  1  0
 18 43  1  0
 18 44  1  0
 20 45  1  0
 22 46  1  0
 23 47  1  0
 23 48  1  0
 24 49  1  0
 24 50  1  0
 25 51  1  0
 25 52  1  0
 26 53  1  0
 26 54  1  0
M  END
$$$$
OCNT-2317904
     RDKit          3D

 39 42  0  0  0  0  0  0  0  0999 V2000
   -2.6860   -2.5943   -0.2429 O   0  0  0  0  0  0  0  0  0  0  0  0
   -2.3186   -1.4513    0.0033 C   0  0  0  0  0  0  0  0  0  0  0  0
   -1.0114   -1.1052    0.2270 N   0  0  0  0  0  0  0  0  0  0  0  0
    0.0787   -2.0673    0.0681 C   0  0  0  0  0  0  0  0  0  0  0  0
    0.5348   -2.1338   -1.3862 C   0  0  0  0  0  0  0  0  0  0  0  0
    1.4406   -0.9086   -1.5379 C   0  0  0  0  0  0  0  0  0  0  0  0
    1.9342   -0.6364   -0.1820 N   0  0  0  0  0  0  0  0  0  0  0  0
    3.0511    0.1273    0.0725 C   0  0  0  0  0  0  0  0  0  0  0  0
    3.5827    0.9998   -0.8949 C   0  0  0  0  0  0  0  0  0  0  0  0
    4.7108    1.7950   -0.6462 C   0  0  0  0  0  0  0  0  0  0  0  0
    5.3345    1.7382    0.5933 C   0  0  0  0  0  0  0  0  0  0  0  0
    6.7177    2.7132    0.8987 Cl  0  0  0  0  0  0  0  0  0  0  0  0
    4.8242    0.8940    1.5695 C   0  0  0  0  0  0  0  0  0  0  0  0
    5.4000    0.8186    2.7792 F   0  0  0  0  0  0  0  0  0  0  0  0
    3.6998    0.1048    1.3162 C   0  0  0  0  0  0  0  0  0  0  0  0
    1.3605   -1.5918    0.7736 C   0  0  0  0  0  0  0  0  0  0  0  0
   -3.3059   -0.3352    0.1163 C   0  0  0  0  0  0  0  0  0  0  0  0
   -3.0269    0.9097   -0.3172 C   0  0  0  0  0  0  0  0  0  0  0  0
   -3.9973    1.9028   -0.2179 N   0  0  0  0  0  0  0  0  0  0  0  0
   -3.9307    3.2051   -0.5745 N   0  0  0  0  0  0  0  0  0  0  0  0
   -5.1095    3.7324   -0.2712 N   0  0  0  0  0  0  0  0  0  0  0  0
   -5.9512    2.7969    0.2751 N   0  0  0  0  0  0  0  0  0  0  0  0
   -5.2701    1.6744    0.3057 C   0  0  0  0  0  0  0  0  0  0  0  0
   -5.5813    0.3592    0.7398 C   0  0  0  0  0  0  0  0  0  0  0  0
   -4.6452   -0.6052    0.6449 C   0  0  0  0  0  0  0  0  0  0  0  0
   -0.7469   -0.1465    0.4172 H   0  0  0  0  0  0  0  0  0  0  0  0
   -0.2536   -3.0418    0.4400 H   0  0  0  0  0  0  0  0  0  0  0  0
    1.1257   -3.0446   -1.5451 H   0  0  0  0  0  0  0  0  0  0  0  0
   -0.2837   -2.1302   -2.1124 H   0  0  0  0  0  0  0  0  0  0  0  0
    0.8668   -0.0491   -1.9027 H   0  0  0  0  0  0  0  0  0  0  0  0
    2.2484   -1.1288   -2.2446 H   0  0  0  0  0  0  0  0  0  0  0  0
    3.1160    1.0879   -1.8732 H   0  0  0  0  0  0  0  0  0  0  0  0
    5.0866    2.4537   -1.4246 H   0  0  0  0  0  0  0  0  0  0  0  0
    3.3547   -0.5324    2.1234 H   0  0  0  0  0  0  0  0  0  0  0  0
    2.0497   -2.4315    0.9227 H   0  0  0  0  0  0  0  0  0  0  0  0
    1.1308   -1.1261    1.7381 H   0  0  0  0  0  0  0  0  0  0  0  0
   -2.0913    1.2161   -0.7645 H   0  0  0  0  0  0  0  0  0  0  0  0
   -6.5725    0.1551    1.1303 H   0  0  0  0  0  0  0  0  0  0  0  0
   -4.8667   -1.6238    0.9577 H   0  0  0  0  0  0  0  0  0  0  0  0
  1  2  2  0
  2  3  1  0
  3  4  1  0
  4  5  1  0
  5  6  1  0
  6  7  1  0
  7  8  1  0
  8  9  1  0
  9 10  2  0
 10 11  1  0
 11 12  1  0
 11 13  2  0
 13 14  1  0
 13 15  1  0
  7 16  1  0
  2 17  1  0
 17 18  2  0
 18 19  1  0
 19 20  1  0
 20 21  2  0
 21 22  1  0
 22 23  2  0
 23 24  1  0
 24 25  2  0
 16  4  1  0
 25 17  1  0
 15  8  2  0
 23 19  1  0
  3 26  1  0
  4 27  1  0
  5 28  1  0
  5 29  1  0
  6 30  1  0
  6 31  1  0
  9 32  1  0
 10 33  1  0
 15 34  1  0
 16 35  1  0
 16 36  1  0
 18 37  1  0
 24 38  1  0
 25 39  1  0
M  END
$$$$
OCNT-2317909
     RDKit          3D

 37 39  0  0  0  0  0  0  0  0999 V2000
    4.3566    1.4272    1.8221 C   0  0  0  0  0  0  0  0  0  0  0  0
    3.6842    0.6295    0.7318 C   0  0  0  0  0  0  0  0  0  0  0  0
    4.4132    0.2378   -0.2700 N   0  0  0  0  0  0  0  0  0  0  0  0
    3.7782   -0.4859   -1.2360 C   0  0  0  0  0  0  0  0  0  0  0  0
    4.2662   -0.9985   -2.3452 N   0  0  0  0  0  0  0  0  0  0  0  0
    3.1929   -1.6130   -2.9113 C   0  0  0  0  0  0  0  0  0  0  0  0
    2.0466   -1.5306   -2.2371 N   0  0  0  0  0  0  0  0  0  0  0  0
    2.4163   -0.7967   -1.1504 N   0  0  0  0  0  0  0  0  0  0  0  0
    1.6226   -0.3832   -0.0526 C   0  0  0  0  0  0  0  0  0  0  0  0
    0.2775   -0.7444   -0.0663 N   0  0  0  0  0  0  0  0  0  0  0  0
   -0.6432   -0.8511    1.0797 C   0  0  1  0  0  0  0  0  0  0  0  0
   -1.4441    0.4451    1.2828 C   0  0  0  0  0  0  0  0  0  0  0  0
   -2.4297    0.7761    0.1826 C   0  0  0  0  0  0  0  0  0  0  0  0
   -1.9950    1.3549   -1.0169 C   0  0  0  0  0  0  0  0  0  0  0  0
   -2.9058    1.6499   -2.0328 C   0  0  0  0  0  0  0  0  0  0  0  0
   -4.2594    1.3688   -1.8604 C   0  0  0  0  0  0  0  0  0  0  0  0
   -4.7037    0.7925   -0.6724 C   0  0  0  0  0  0  0  0  0  0  0  0
   -3.7944    0.4977    0.3449 C   0  0  0  0  0  0  0  0  0  0  0  0
   -1.5937   -2.0460    0.9299 C   0  0  0  0  0  0  0  0  0  0  0  0
   -2.4528   -2.3855    1.7301 O   0  0  0  0  0  0  0  0  0  0  0  0
   -1.4015   -2.7561   -0.2058 O   0  0  0  0  0  0  0  0  0  0  0  0
    2.2268    0.3357    0.9106 C   0  0  0  0  0  0  0  0  0  0  0  0
    3.6236    1.9527    2.4397 H   0  0  0  0  0  0  0  0  0  0  0  0
    5.0303    2.1652    1.3757 H   0  0  0  0  0  0  0  0  0  0  0  0
    4.9385    0.7501    2.4539 H   0  0  0  0  0  0  0  0  0  0  0  0
    3.2484   -2.1396   -3.8555 H   0  0  0  0  0  0  0  0  0  0  0  0
    0.0503   -1.4118   -0.8198 H   0  0  0  0  0  0  0  0  0  0  0  0
   -0.0507   -1.0628    1.9791 H   0  0  0  0  0  0  0  0  0  0  0  0
   -0.7597    1.2959    1.3975 H   0  0  0  0  0  0  0  0  0  0  0  0
   -1.9897    0.3822    2.2339 H   0  0  0  0  0  0  0  0  0  0  0  0
   -0.9408    1.5748   -1.1716 H   0  0  0  0  0  0  0  0  0  0  0  0
   -2.5567    2.0964   -2.9602 H   0  0  0  0  0  0  0  0  0  0  0  0
   -4.9675    1.5985   -2.6522 H   0  0  0  0  0  0  0  0  0  0  0  0
   -5.7596    0.5729   -0.5366 H   0  0  0  0  0  0  0  0  0  0  0  0
   -4.1614    0.0459    1.2644 H   0  0  0  0  0  0  0  0  0  0  0  0
   -2.0840   -3.4587   -0.1761 H   0  0  0  0  0  0  0  0  0  0  0  0
    1.7213    0.7139    1.7869 H   0  0  0  0  0  0  0  0  0  0  0  0
  1  2  1  0
  2  3  2  0
  3  4  1  0
  4  5  2  0
  5  6  1  0
  6  7  2  0
  7  8  1  0
  8  9  1  0
  9 10  1  0
 10 11  1  0
 11 12  1  0
 12 13  1  0
 13 14  2  0
 14 15  1  0
 15 16  2  0
 16 17  1  0
 17 18  2  0
 11 19  1  0
 19 20  2  0
 19 21  1  0
  9 22  2  0
 22  2  1  0
  8  4  1  0
 18 13  1  0
  1 23  1  0
  1 24  1  0
  1 25  1  0
  6 26  1  0
 10 27  1  0
 11 28  1  1
 12 29  1  0
 12 30  1  0
 14 31  1  0
 15 32  1  0
 16 33  1  0
 17 34  1  0
 18 35  1  0
 21 36  1  0
 22 37  1  0
M  END
$$$$
OCNT-2317923
     RDKit          3D

 41 43  0  0  0  0  0  0  0  0999 V2000
    5.1550    1.6159    2.4590 C   0  0  0  0  0  0  0  0  0  0  0  0
    4.5999    0.6685    1.4638 C   0  0  0  0  0  0  0  0  0  0  0  0
    5.1516   -0.5354    1.3010 N   0  0  0  0  0  0  0  0  0  0  0  0
    4.4123   -1.1124    0.3321 N   0  0  0  0  0  0  0  0  0  0  0  0
    4.7524   -2.4515   -0.0950 C   0  0  0  0  0  0  0  0  0  0  0  0
    3.3867   -0.3200   -0.1330 C   0  0  0  0  0  0  0  0  0  0  0  0
    2.4553   -0.7150   -1.1678 C   0  0  0  0  0  0  0  0  0  0  0  0
    2.5514   -1.7667   -1.7937 O   0  0  0  0  0  0  0  0  0  0  0  0
    1.4325    0.1768   -1.4005 N   0  0  0  0  0  0  0  0  0  0  0  0
    0.3483   -0.1231   -2.3061 C   0  0  0  0  0  0  0  0  0  0  0  0
   -0.8611   -0.6074   -1.5487 C   0  0  0  0  0  0  0  0  0  0  0  0
   -0.9620   -1.9502   -1.1660 C   0  0  0  0  0  0  0  0  0  0  0  0
   -2.0698   -2.3971   -0.4496 C   0  0  0  0  0  0  0  0  0  0  0  0
   -3.0856   -1.5042   -0.1031 C   0  0  0  0  0  0  0  0  0  0  0  0
   -3.0109   -0.1486   -0.4610 C   0  0  0  0  0  0  0  0  0  0  0  0
   -4.0780    0.7911   -0.0901 C   0  0  0  0  0  0  0  0  0  0  0  0
   -5.4217    0.5445   -0.3987 C   0  0  0  0  0  0  0  0  0  0  0  0
   -6.4074    1.4612   -0.0359 C   0  0  0  0  0  0  0  0  0  0  0  0
   -6.0219    2.6108    0.6315 C   0  0  0  0  0  0  0  0  0  0  0  0
   -4.7433    2.8949    0.9531 N   0  0  0  0  0  0  0  0  0  0  0  0
   -3.8102    1.9812    0.5888 C   0  0  0  0  0  0  0  0  0  0  0  0
   -1.8845    0.2835   -1.1845 C   0  0  0  0  0  0  0  0  0  0  0  0
    3.5017    0.8532    0.5966 C   0  0  0  0  0  0  0  0  0  0  0  0
    6.1965    1.8556    2.2219 H   0  0  0  0  0  0  0  0  0  0  0  0
    5.1183    1.1831    3.4639 H   0  0  0  0  0  0  0  0  0  0  0  0
    4.5869    2.5515    2.4725 H   0  0  0  0  0  0  0  0  0  0  0  0
    3.8863   -3.0985    0.0630 H   0  0  0  0  0  0  0  0  0  0  0  0
    5.5937   -2.8197    0.4989 H   0  0  0  0  0  0  0  0  0  0  0  0
    5.0377   -2.4175   -1.1490 H   0  0  0  0  0  0  0  0  0  0  0  0
    1.2983    0.9415   -0.7584 H   0  0  0  0  0  0  0  0  0  0  0  0
    0.1137    0.8000   -2.8478 H   0  0  0  0  0  0  0  0  0  0  0  0
    0.6526   -0.8653   -3.0526 H   0  0  0  0  0  0  0  0  0  0  0  0
   -0.1714   -2.6536   -1.4241 H   0  0  0  0  0  0  0  0  0  0  0  0
   -2.1401   -3.4413   -0.1553 H   0  0  0  0  0  0  0  0  0  0  0  0
   -3.9354   -1.8749    0.4671 H   0  0  0  0  0  0  0  0  0  0  0  0
   -5.7069   -0.3579   -0.9347 H   0  0  0  0  0  0  0  0  0  0  0  0
   -7.4502    1.2824   -0.2726 H   0  0  0  0  0  0  0  0  0  0  0  0
   -6.7529    3.3553    0.9336 H   0  0  0  0  0  0  0  0  0  0  0  0
   -2.7958    2.2422    0.8807 H   0  0  0  0  0  0  0  0  0  0  0  0
   -1.8098    1.3282   -1.4837 H   0  0  0  0  0  0  0  0  0  0  0  0
    2.8877    1.7385    0.5204 H   0  0  0  0  0  0  0  0  0  0  0  0
  1  2  1  0
  2  3  2  0
  3  4  1  0
  4  5  1  0
  4  6  1  0
  6  7  1  0
  7  8  2  0
  7  9  1  0
  9 10  1  0
 10 11  1  0
 11 12  2  0
 12 13  1  0
 13 14  2  0
 14 15  1  0
 15 16  1  0
 16 17  1  0
 17 18  2  0
 18 19  1  0
 19 20  2  0
 20 21  1  0
 15 22  2  0
  6 23  2  0
 23  2  1  0
 22 11  1  0
 21 16  2  0
  1 24  1  0
  1 25  1  0
  1 26  1  0
  5 27  1  0
  5 28  1  0
  5 29  1  0
  9 30  1  0
 10 31  1  0
 10 32  1  0
 12 33  1  0
 13 34  1  0
 14 35  1  0
 17 36  1  0
 18 37  1  0
 19 38  1  0
 21 39  1  0
 22 40  1  0
 23 41  1  0
M  END
$$$$
OCNT-2317940
     RDKit          3D

 49 52  0  0  0  0  0  0  0  0999 V2000
    7.1144   -1.2194    1.6999 C   0  0  0  0  0  0  0  0  0  0  0  0
    5.8512   -0.8528    2.4576 C   0  0  0  0  0  0  0  0  0  0  0  0
    5.1097    0.2051    1.8023 N   0  0  0  0  0  0  0  0  0  0  0  0
    5.3789    1.5029    2.0949 N   0  0  0  0  0  0  0  0  0  0  0  0
    4.5228    2.1853    1.3223 C   0  0  0  0  0  0  0  0  0  0  0  0
    3.7224    1.3358    0.5509 C   0  0  0  0  0  0  0  0  0  0  0  0
    4.1149    0.0620    0.8740 C   0  0  0  0  0  0  0  0  0  0  0  0
    3.6292   -1.1003    0.3783 N   0  0  0  0  0  0  0  0  0  0  0  0
    2.6833   -0.9145   -0.4938 C   0  0  0  0  0  0  0  0  0  0  0  0
    2.1791    0.3168   -0.9146 N   0  0  0  0  0  0  0  0  0  0  0  0
    1.1018    0.3456   -1.8962 C   0  0  0  0  0  0  0  0  0  0  0  0
   -0.2732    0.0162   -1.2807 C   0  0  0  0  0  0  0  0  0  0  0  0
   -1.3308   -0.1561   -2.3766 C   0  0  0  0  0  0  0  0  0  0  0  0
   -2.6737   -0.6347   -1.8125 C   0  0  0  0  0  0  0  0  0  0  0  0
   -2.9174   -0.2014   -0.3534 C   0  0  0  0  0  0  0  0  0  0  0  0
   -4.3964   -0.2101   -0.0111 C   0  0  0  0  0  0  0  0  0  0  0  0
   -5.2818    0.7416   -0.5398 C   0  0  0  0  0  0  0  0  0  0  0  0
   -6.6399    0.7104   -0.2158 C   0  0  0  0  0  0  0  0  0  0  0  0
   -7.1319   -0.2735    0.6381 C   0  0  0  0  0  0  0  0  0  0  0  0
   -6.2669   -1.2281    1.1671 C   0  0  0  0  0  0  0  0  0  0  0  0
   -4.9087   -1.1980    0.8438 C   0  0  0  0  0  0  0  0  0  0  0  0
   -2.2429    1.1452   -0.0617 C   0  0  0  0  0  0  0  0  0  0  0  0
   -0.7238    1.0829   -0.2635 C   0  0  0  0  0  0  0  0  0  0  0  0
    2.6785    1.5279   -0.4145 C   0  0  0  0  0  0  0  0  0  0  0  0
    2.2849    2.6401   -0.7486 O   0  0  0  0  0  0  0  0  0  0  0  0
    6.8810   -1.5688    0.6885 H   0  0  0  0  0  0  0  0  0  0  0  0
    7.7843   -0.3579    1.6087 H   0  0  0  0  0  0  0  0  0  0  0  0
    7.6524   -2.0171    2.2212 H   0  0  0  0  0  0  0  0  0  0  0  0
    5.1911   -1.7217    2.5513 H   0  0  0  0  0  0  0  0  0  0  0  0
    6.0938   -0.5107    3.4698 H   0  0  0  0  0  0  0  0  0  0  0  0
    4.5234    3.2673    1.3579 H   0  0  0  0  0  0  0  0  0  0  0  0
    2.2035   -1.7838   -0.9729 H   0  0  0  0  0  0  0  0  0  0  0  0
    1.3407   -0.4033   -2.6619 H   0  0  0  0  0  0  0  0  0  0  0  0
    1.0715    1.3198   -2.3977 H   0  0  0  0  0  0  0  0  0  0  0  0
   -0.1876   -0.9418   -0.7491 H   0  0  0  0  0  0  0  0  0  0  0  0
   -1.4783    0.8018   -2.8925 H   0  0  0  0  0  0  0  0  0  0  0  0
   -0.9906   -0.8682   -3.1379 H   0  0  0  0  0  0  0  0  0  0  0  0
   -2.7174   -1.7309   -1.8599 H   0  0  0  0  0  0  0  0  0  0  0  0
   -3.4686   -0.2800   -2.4805 H   0  0  0  0  0  0  0  0  0  0  0  0
   -2.4243   -0.9413    0.2940 H   0  0  0  0  0  0  0  0  0  0  0  0
   -4.9236    1.5159   -1.2140 H   0  0  0  0  0  0  0  0  0  0  0  0
   -7.3136    1.4549   -0.6317 H   0  0  0  0  0  0  0  0  0  0  0  0
   -8.1886   -0.2969    0.8902 H   0  0  0  0  0  0  0  0  0  0  0  0
   -6.6490   -1.9976    1.8328 H   0  0  0  0  0  0  0  0  0  0  0  0
   -4.2523   -1.9545    1.2681 H   0  0  0  0  0  0  0  0  0  0  0  0
   -2.6490    1.9203   -0.7246 H   0  0  0  0  0  0  0  0  0  0  0  0
   -2.4582    1.4773    0.9616 H   0  0  0  0  0  0  0  0  0  0  0  0
   -0.2407    0.8744    0.6995 H   0  0  0  0  0  0  0  0  0  0  0  0
   -0.3837    2.0801   -0.5672 H   0  0  0  0  0  0  0  0  0  0  0  0
  1  2  1  0
  2  3  1  0
  3  4  1  0
  4  5  2  0
  5  6  1  0
  6  7  2  0
  7  8  1  0
  8  9  2  0
  9 10  1  0
 10 11  1  0
 11 12  1  0
 12 13  1  0
 13 14  1  0
 14 15  1  0
 15 16  1  0
 16 17  2  0
 17 18  1  0
 18 19  2  0
 19 20  1  0
 20 21  2  0
 15 22  1  0
 22 23  1  0
 10 24  1  0
 24 25  2  0
  7  3  1  0
 23 12  1  0
 24  6  1  0
 21 16  1  0
  1 26  1  0
  1 27  1  0
  1 28  1  0
  2 29  1  0
  2 30  1  0
  5 31  1  0
  9 32  1  0
 11 33  1  0
 11 34  1  0
 12 35  1  0
 13 36  1  0
 13 37  1  0
 14 38  1  0
 14 39  1  0
 15 40  1  0
 17 41  1  0
 18 42  1  0
 19 43  1  0
 20 44  1  0
 21 45  1  0
 22 46  1  0
 22 47  1  0
 23 48  1  0
 23 49  1  0
M  END
$$$$
OCNT-2317957
     RDKit          3D

 43 45  0  0  0  0  0  0  0  0999 V2000
   -3.2964   -1.7048    1.0548 C   0  0  0  0  0  0  0  0  0  0  0  0
   -3.6961   -0.4200    1.6067 N   0  0  0  0  0  0  0  0  0  0  0  0
   -4.3425    0.7557    0.6230 S   0  0  0  0  0  0  0  0  0  0  0  0
   -4.6513    1.8667    1.4911 O   0  0  0  0  0  0  0  0  0  0  0  0
   -5.3289    0.1506   -0.2364 O   0  0  0  0  0  0  0  0  0  0  0  0
   -3.0018    1.1691   -0.2783 N   0  0  0  0  0  0  0  0  0  0  0  0
   -1.9132    1.9444    0.3207 C   0  0  0  0  0  0  0  0  0  0  0  0
   -0.5914    1.2003    0.1854 C   0  0  0  0  0  0  0  0  0  0  0  0
   -0.2447    0.8312   -1.2682 C   0  0  0  0  0  0  0  0  0  0  0  0
    0.3018   -0.5960   -1.3238 C   0  0  0  0  0  0  0  0  0  0  0  0
   -0.3809   -1.4873   -1.8456 O   0  0  0  0  0  0  0  0  0  0  0  0
    1.5080   -0.9186   -0.7344 N   0  0  0  0  0  0  0  0  0  0  0  0
    1.8914   -2.3410   -0.6680 C   0  0  0  0  0  0  0  0  0  0  0  0
    3.1064   -2.4484    0.2487 C   0  0  0  0  0  0  0  0  0  0  0  0
    3.5363   -1.0189    0.3315 C   0  0  0  0  0  0  0  0  0  0  0  0
    4.7091   -0.5508    0.9126 C   0  0  0  0  0  0  0  0  0  0  0  0
    4.9359    0.8210    0.9146 C   0  0  0  0  0  0  0  0  0  0  0  0
    6.3751    1.4484    1.6166 Cl  0  0  0  0  0  0  0  0  0  0  0  0
    4.0039    1.6950    0.3456 C   0  0  0  0  0  0  0  0  0  0  0  0
    2.8210    1.2063   -0.2309 C   0  0  0  0  0  0  0  0  0  0  0  0
    2.5797   -0.1573   -0.2253 C   0  0  0  0  0  0  0  0  0  0  0  0
   -1.4638    0.9928   -2.1993 C   0  0  0  0  0  0  0  0  0  0  0  0
   -2.7538    0.4900   -1.5593 C   0  0  0  0  0  0  0  0  0  0  0  0
   -2.2647   -1.6623    0.6960 H   0  0  0  0  0  0  0  0  0  0  0  0
   -3.3447   -2.4579    1.8472 H   0  0  0  0  0  0  0  0  0  0  0  0
   -3.9573   -2.0318    0.2488 H   0  0  0  0  0  0  0  0  0  0  0  0
   -3.1536   -0.0430    2.3777 H   0  0  0  0  0  0  0  0  0  0  0  0
   -1.8600    2.9229   -0.1708 H   0  0  0  0  0  0  0  0  0  0  0  0
   -2.0982    2.1392    1.3823 H   0  0  0  0  0  0  0  0  0  0  0  0
   -0.6306    0.2998    0.8116 H   0  0  0  0  0  0  0  0  0  0  0  0
    0.1992    1.8276    0.6101 H   0  0  0  0  0  0  0  0  0  0  0  0
    0.5131    1.4978   -1.6830 H   0  0  0  0  0  0  0  0  0  0  0  0
    1.0545   -2.9501   -0.3079 H   0  0  0  0  0  0  0  0  0  0  0  0
    2.1343   -2.6680   -1.6871 H   0  0  0  0  0  0  0  0  0  0  0  0
    2.8207   -2.8131    1.2408 H   0  0  0  0  0  0  0  0  0  0  0  0
    3.8770   -3.0970   -0.1784 H   0  0  0  0  0  0  0  0  0  0  0  0
    5.4275   -1.2369    1.3501 H   0  0  0  0  0  0  0  0  0  0  0  0
    4.1972    2.7657    0.3406 H   0  0  0  0  0  0  0  0  0  0  0  0
    2.1572    1.9303   -0.6776 H   0  0  0  0  0  0  0  0  0  0  0  0
   -1.5804    2.0576   -2.4435 H   0  0  0  0  0  0  0  0  0  0  0  0
   -1.2999    0.4799   -3.1549 H   0  0  0  0  0  0  0  0  0  0  0  0
   -3.5841    0.7026   -2.2420 H   0  0  0  0  0  0  0  0  0  0  0  0
   -2.7107   -0.5916   -1.4142 H   0  0  0  0  0  0  0  0  0  0  0  0
  1  2  1  0
  2  3  1  0
  3  4  2  0
  3  5  2  0
  3  6  1  0
  6  7  1  0
  7  8  1  0
  8  9  1  0
  9 10  1  0
 10 11  2  0
 10 12  1  0
 12 13  1  0
 13 14  1  0
 14 15  1  0
 15 16  1  0
 16 17  2  0
 17 18  1  0
 17 19  1  0
 19 20  2  0
 20 21  1  0
  9 22  1  0
 22 23  1  0
 23  6  1  0
 21 12  1  0
 21 15  2  0
  1 24  1  0
  1 25  1  0
  1 26  1  0
  2 27  1  0
  7 28  1  0
  7 29  1  0
  8 30  1  0
  8 31  1  0
  9 32  1  0
 13 33  1  0
 13 34  1  0
 14 35  1  0
 14 36  1  0
 16 37  1  0
 19 38  1  0
 20 39  1  0
 22 40  1  0
 22 41  1  0
 23 42  1  0
 23 43  1  0
M  END
$$$$
OCNT-2317970
     RDKit          3D

 53 54  0  0  0  0  0  0  0  0999 V2000
    4.9104   -0.0249    2.5515 C   0  0  0  0  0  0  0  0  0  0  0  0
    4.6459   -1.2746    1.9274 O   0  0  0  0  0  0  0  0  0  0  0  0
    3.2775   -1.4390    1.5322 C   0  0  0  0  0  0  0  0  0  0  0  0
    2.8832   -0.5504    0.3412 C   0  0  0  0  0  0  0  0  0  0  0  0
    1.6253   -1.1153   -0.3474 C   0  0  0  0  0  0  0  0  0  0  0  0
    1.0709   -0.2012   -1.3514 N   0  0  0  0  0  0  0  0  0  0  0  0
    0.0643   -0.5319   -2.2501 C   0  0  0  0  0  0  0  0  0  0  0  0
   -0.1396    0.1706   -3.2469 O   0  0  0  0  0  0  0  0  0  0  0  0
   -0.8972   -1.7283   -1.9233 C   0  0  0  0  0  0  0  0  0  0  0  0
   -1.6698   -2.1099   -3.1985 C   0  0  0  0  0  0  0  0  0  0  0  0
   -0.2043   -2.9094   -1.5046 O   0  0  0  0  0  0  0  0  0  0  0  0
   -1.8677   -1.3408   -0.7862 C   0  0  0  0  0  0  0  0  0  0  0  0
   -2.6953   -0.0758   -1.0416 C   0  0  0  0  0  0  0  0  0  0  0  0
   -3.6378    0.1980    0.1064 C   0  0  0  0  0  0  0  0  0  0  0  0
   -4.9535   -0.2830    0.0764 C   0  0  0  0  0  0  0  0  0  0  0  0
   -5.8173   -0.0457    1.1467 C   0  0  0  0  0  0  0  0  0  0  0  0
   -5.3733    0.6698    2.2572 C   0  0  0  0  0  0  0  0  0  0  0  0
   -4.0650    1.1479    2.2992 C   0  0  0  0  0  0  0  0  0  0  0  0
   -3.1998    0.9119    1.2299 C   0  0  0  0  0  0  0  0  0  0  0  0
    1.8490    1.0158   -1.5716 C   0  0  0  0  0  0  0  0  0  0  0  0
    2.2243    1.7021   -0.2307 C   0  0  0  0  0  0  0  0  0  0  0  0
    3.4002    2.6584   -0.4479 C   0  0  0  0  0  0  0  0  0  0  0  0
    1.0233    2.4816    0.3173 C   0  0  0  0  0  0  0  0  0  0  0  0
    2.6082    0.7807    0.8141 O   0  0  0  0  0  0  0  0  0  0  0  0
    4.9353    0.7774    1.8100 H   0  0  0  0  0  0  0  0  0  0  0  0
    4.1752    0.1927    3.3319 H   0  0  0  0  0  0  0  0  0  0  0  0
    5.8995   -0.0814    3.0147 H   0  0  0  0  0  0  0  0  0  0  0  0
    2.6280   -1.2634    2.3980 H   0  0  0  0  0  0  0  0  0  0  0  0
    3.1803   -2.4930    1.2504 H   0  0  0  0  0  0  0  0  0  0  0  0
    3.7262   -0.4968   -0.3593 H   0  0  0  0  0  0  0  0  0  0  0  0
    0.8442   -1.2970    0.3959 H   0  0  0  0  0  0  0  0  0  0  0  0
    1.8840   -2.0597   -0.8350 H   0  0  0  0  0  0  0  0  0  0  0  0
   -0.9792   -2.4880   -3.9619 H   0  0  0  0  0  0  0  0  0  0  0  0
   -2.2155   -1.2673   -3.6337 H   0  0  0  0  0  0  0  0  0  0  0  0
   -2.3858   -2.9157   -2.9999 H   0  0  0  0  0  0  0  0  0  0  0  0
   -0.8226   -3.6582   -1.5630 H   0  0  0  0  0  0  0  0  0  0  0  0
   -1.3104   -1.2208    0.1506 H   0  0  0  0  0  0  0  0  0  0  0  0
   -2.5413   -2.1882   -0.5935 H   0  0  0  0  0  0  0  0  0  0  0  0
   -2.0441    0.7958   -1.1778 H   0  0  0  0  0  0  0  0  0  0  0  0
   -3.2789   -0.1690   -1.9642 H   0  0  0  0  0  0  0  0  0  0  0  0
   -5.3148   -0.8443   -0.7822 H   0  0  0  0  0  0  0  0  0  0  0  0
   -6.8375   -0.4189    1.1140 H   0  0  0  0  0  0  0  0  0  0  0  0
   -6.0467    0.8548    3.0898 H   0  0  0  0  0  0  0  0  0  0  0  0
   -3.7177    1.7050    3.1653 H   0  0  0  0  0  0  0  0  0  0  0  0
   -2.1811    1.2891    1.2785 H   0  0  0  0  0  0  0  0  0  0  0  0
    1.3170    1.7180   -2.2235 H   0  0  0  0  0  0  0  0  0  0  0  0
    2.7501    0.7049   -2.1161 H   0  0  0  0  0  0  0  0  0  0  0  0
    4.2899    2.1111   -0.7796 H   0  0  0  0  0  0  0  0  0  0  0  0
    3.1656    3.4240   -1.1946 H   0  0  0  0  0  0  0  0  0  0  0  0
    3.6771    3.1574    0.4878 H   0  0  0  0  0  0  0  0  0  0  0  0
    0.1864    1.8074    0.5297 H   0  0  0  0  0  0  0  0  0  0  0  0
    1.2736    2.9699    1.2662 H   0  0  0  0  0  0  0  0  0  0  0  0
    0.6813    3.2476   -0.3863 H   0  0  0  0  0  0  0  0  0  0  0  0
  1  2  1  0
  2  3  1  0
  3  4  1  0
  4  5  1  0
  5  6  1  0
  6  7  1  0
  7  8  2  0
  7  9  1  0
  9 10  1  0
  9 11  1  0
  9 12  1  0
 12 13  1  0
 13 14  1  0
 14 15  2  0
 15 16  1  0
 16 17  2  0
 17 18  1  0
 18 19  2  0
  6 20  1  0
 20 21  1  0
 21 22  1  0
 21 23  1  0
 21 24  1  0
 24  4  1  0
 19 14  1  0
  1 25  1  0
  1 26  1  0
  1 27  1  0
  3 28  1  0
  3 29  1  0
  4 30  1  0
  5 31  1  0
  5 32  1  0
 10 33  1  0
 10 34  1  0
 10 35  1  0
 11 36  1  0
 12 37  1  0
 12 38  1  0
 13 39  1  0
 13 40  1  0
 15 41  1  0
 16 42  1  0
 17 43  1  0
 18 44  1  0
 19 45  1  0
 20 46  1  0
 20 47  1  0
 22 48  1  0
 22 49  1  0
 22 50  1  0
 23 51  1  0
 23 52  1  0
 23 53  1  0
M  END
$$$$
OCNT-2317981
     RDKit          3D

 40 42  0  0  0  0  0  0  0  0999 V2000
    2.9564    1.7471   -3.7155 N   0  0  0  0  0  0  0  0  0  0  0  0
    3.1992    1.9508   -2.5989 C   0  0  0  0  0  0  0  0  0  0  0  0
    3.4914    2.1786   -1.2159 C   0  0  0  0  0  0  0  0  0  0  0  0
    3.0043    1.4206   -0.1582 C   0  0  0  0  0  0  0  0  0  0  0  0
    2.1970    0.2716   -0.1602 N   0  0  0  0  0  0  0  0  0  0  0  0
    1.8014   -0.4654   -1.3400 C   0  0  0  0  0  0  0  0  0  0  0  0
    1.2435   -1.7755   -0.8335 C   0  0  0  0  0  0  0  0  0  0  0  0
    0.6930   -1.4506    0.5490 C   0  0  0  0  0  0  0  0  0  0  0  0
   -0.7599   -1.1893    0.6806 N   0  0  0  0  0  0  0  0  0  0  0  0
   -1.5396   -2.4321    0.5799 C   0  0  0  0  0  0  0  0  0  0  0  0
   -3.0005   -2.1947    0.9662 C   0  0  0  0  0  0  0  0  0  0  0  0
   -3.6259   -1.0621    0.1521 C   0  0  0  0  0  0  0  0  0  0  0  0
   -2.7524    0.2024    0.1848 C   0  0  0  0  0  0  0  0  0  0  0  0
   -2.7349    0.6924    1.5472 O   0  0  0  0  0  0  0  0  0  0  0  0
   -3.3001    1.2587   -0.7924 C   0  0  0  0  0  0  0  0  0  0  0  0
   -2.5501    2.3846   -0.7895 F   0  0  0  0  0  0  0  0  0  0  0  0
   -4.5743    1.6079   -0.5087 F   0  0  0  0  0  0  0  0  0  0  0  0
   -3.2904    0.7844   -2.0641 F   0  0  0  0  0  0  0  0  0  0  0  0
   -1.3006   -0.1458   -0.2158 C   0  0  0  0  0  0  0  0  0  0  0  0
    1.5203   -0.2260    0.9802 C   0  0  0  0  0  0  0  0  0  0  0  0
    1.5026    0.2083    2.1240 O   0  0  0  0  0  0  0  0  0  0  0  0
    3.5896    2.0409    1.3302 S   0  0  0  0  0  0  0  0  0  0  0  0
    4.4525    3.3020    0.5811 C   0  0  0  0  0  0  0  0  0  0  0  0
    4.3204    3.2633   -0.7854 C   0  0  0  0  0  0  0  0  0  0  0  0
    2.6620   -0.6492   -1.9898 H   0  0  0  0  0  0  0  0  0  0  0  0
    1.0435    0.1112   -1.8797 H   0  0  0  0  0  0  0  0  0  0  0  0
    0.5180   -2.2170   -1.5226 H   0  0  0  0  0  0  0  0  0  0  0  0
    2.0596   -2.5026   -0.7280 H   0  0  0  0  0  0  0  0  0  0  0  0
    0.9702   -2.2571    1.2409 H   0  0  0  0  0  0  0  0  0  0  0  0
   -1.1332   -3.1901    1.2604 H   0  0  0  0  0  0  0  0  0  0  0  0
   -1.4898   -2.8456   -0.4349 H   0  0  0  0  0  0  0  0  0  0  0  0
   -3.5757   -3.1154    0.8148 H   0  0  0  0  0  0  0  0  0  0  0  0
   -3.0633   -1.9583    2.0359 H   0  0  0  0  0  0  0  0  0  0  0  0
   -4.6215   -0.8474    0.5587 H   0  0  0  0  0  0  0  0  0  0  0  0
   -3.7596   -1.4022   -0.8825 H   0  0  0  0  0  0  0  0  0  0  0  0
   -2.0052    0.2170    1.9970 H   0  0  0  0  0  0  0  0  0  0  0  0
   -0.6975    0.7638   -0.1143 H   0  0  0  0  0  0  0  0  0  0  0  0
   -1.2578   -0.4707   -1.2624 H   0  0  0  0  0  0  0  0  0  0  0  0
    5.0143    4.0093    1.1768 H   0  0  0  0  0  0  0  0  0  0  0  0
    4.7931    3.9818   -1.4458 H   0  0  0  0  0  0  0  0  0  0  0  0
  1  2  3  0
  2  3  1  0
  3  4  2  0
  4  5  1  0
  5  6  1  0
  6  7  1  0
  7  8  1  0
  8  9  1  0
  9 10  1  0
 10 11  1  0
 11 12  1  0
 12 13  1  0
 13 14  1  0
 13 15  1  0
 15 16  1  0
 15 17  1  0
 15 18  1  0
 13 19  1  0
  8 20  1  0
 20 21  2  0
  4 22  1  0
 22 23  1  0
 23 24  2  0
 24  3  1  0
 20  5  1  0
 19  9  1  0
  6 25  1  0
  6 26  1  0
  7 27  1  0
  7 28  1  0
  8 29  1  0
 10 30  1  0
 10 31  1  0
 11 32  1  0
 11 33  1  0
 12 34  1  0
 12 35  1  0
 14 36  1  0
 19 37  1  0
 19 38  1  0
 23 39  1  0
 24 40  1  0
M  END
$$$$
OCNT-2317996
     RDKit          3D

 46 48  0  0  0  0  0  0  0  0999 V2000
    4.5794   -1.4789   -2.4833 C   0  0  0  0  0  0  0  0  0  0  0  0
    3.9503   -0.8955   -1.2519 C   0  0  0  0  0  0  0  0  0  0  0  0
    4.6980   -0.7385   -0.0804 C   0  0  0  0  0  0  0  0  0  0  0  0
    4.1169   -0.1446    1.0439 C   0  0  0  0  0  0  0  0  0  0  0  0
    4.8730    0.0534    2.3077 C   0  0  0  0  0  0  0  0  0  0  0  0
    6.2338    0.1598    2.2157 N   0  0  0  0  0  0  0  0  0  0  0  0
    4.3080    0.1535    3.3892 O   0  0  0  0  0  0  0  0  0  0  0  0
    2.7789    0.2693    1.0009 C   0  0  0  0  0  0  0  0  0  0  0  0
    1.9997    0.1001   -0.1508 C   0  0  0  0  0  0  0  0  0  0  0  0
    0.6962    0.6059   -0.1539 N   0  0  0  0  0  0  0  0  0  0  0  0
   -0.2688    0.0986   -1.1188 C   0  0  0  0  0  0  0  0  0  0  0  0
   -1.6480    0.6012   -0.7514 C   0  0  0  0  0  0  0  0  0  0  0  0
   -2.0444    1.8615   -1.2197 C   0  0  0  0  0  0  0  0  0  0  0  0
   -3.3029    2.3472   -0.8959 C   0  0  0  0  0  0  0  0  0  0  0  0
   -3.7423    3.6933   -1.3870 C   0  0  0  0  0  0  0  0  0  0  0  0
   -4.1736    1.6491   -0.1373 N   0  0  0  0  0  0  0  0  0  0  0  0
   -3.7900    0.4361    0.3325 C   0  0  0  0  0  0  0  0  0  0  0  0
   -2.5301   -0.1227    0.0758 C   0  0  0  0  0  0  0  0  0  0  0  0
   -2.1629   -1.4834    0.6195 C   0  0  0  0  0  0  0  0  0  0  0  0
   -3.0768   -1.9755    1.7407 C   0  0  0  0  0  0  0  0  0  0  0  0
   -4.5361   -1.7472    1.3775 C   0  0  0  0  0  0  0  0  0  0  0  0
   -4.7997   -0.2551    1.2128 C   0  0  0  0  0  0  0  0  0  0  0  0
    2.6192   -0.4465   -1.2827 C   0  0  0  0  0  0  0  0  0  0  0  0
    5.3671   -2.1925   -2.2200 H   0  0  0  0  0  0  0  0  0  0  0  0
    3.8382   -2.0203   -3.0806 H   0  0  0  0  0  0  0  0  0  0  0  0
    5.0141   -0.6819   -3.0943 H   0  0  0  0  0  0  0  0  0  0  0  0
    5.7240   -1.0941   -0.0492 H   0  0  0  0  0  0  0  0  0  0  0  0
    6.7066    0.4349    3.0676 H   0  0  0  0  0  0  0  0  0  0  0  0
    6.6878    0.3875    1.3430 H   0  0  0  0  0  0  0  0  0  0  0  0
    2.3444    0.7361    1.8834 H   0  0  0  0  0  0  0  0  0  0  0  0
    0.3080    0.6694    0.7853 H   0  0  0  0  0  0  0  0  0  0  0  0
   -0.0208    0.4493   -2.1286 H   0  0  0  0  0  0  0  0  0  0  0  0
   -0.2613   -0.9969   -1.1566 H   0  0  0  0  0  0  0  0  0  0  0  0
   -1.3700    2.4593   -1.8269 H   0  0  0  0  0  0  0  0  0  0  0  0
   -3.0729    4.4714   -1.0072 H   0  0  0  0  0  0  0  0  0  0  0  0
   -4.7574    3.9206   -1.0459 H   0  0  0  0  0  0  0  0  0  0  0  0
   -3.7375    3.7168   -2.4812 H   0  0  0  0  0  0  0  0  0  0  0  0
   -2.2019   -2.2004   -0.2103 H   0  0  0  0  0  0  0  0  0  0  0  0
   -1.1370   -1.4722    1.0048 H   0  0  0  0  0  0  0  0  0  0  0  0
   -2.8931   -3.0399    1.9252 H   0  0  0  0  0  0  0  0  0  0  0  0
   -2.8425   -1.4438    2.6718 H   0  0  0  0  0  0  0  0  0  0  0  0
   -5.1892   -2.1541    2.1574 H   0  0  0  0  0  0  0  0  0  0  0  0
   -4.7737   -2.2775    0.4468 H   0  0  0  0  0  0  0  0  0  0  0  0
   -4.7754    0.2309    2.1962 H   0  0  0  0  0  0  0  0  0  0  0  0
   -5.8056   -0.1098    0.8019 H   0  0  0  0  0  0  0  0  0  0  0  0
    2.0700   -0.5336   -2.2165 H   0  0  0  0  0  0  0  0  0  0  0  0
  1  2  1  0
  2  3  2  0
  3  4  1  0
  4  5  1  0
  5  6  1  0
  5  7  2  0
  4  8  2  0
  8  9  1  0
  9 10  1  0
 10 11  1  0
 11 12  1  0
 12 13  2  0
 13 14  1  0
 14 15  1  0
 14 16  2  0
 16 17  1  0
 17 18  2  0
 18 19  1  0
 19 20  1  0
 20 21  1  0
 21 22  1  0
  9 23  2  0
 23  2  1  0
 18 12  1  0
 22 17  1  0
  1 24  1  0
  1 25  1  0
  1 26  1  0
  3 27  1  0
  6 28  1  0
  6 29  1  0
  8 30  1  0
 10 31  1  0
 11 32  1  0
 11 33  1  0
 13 34  1  0
 15 35  1  0
 15 36  1  0
 15 37  1  0
 19 38  1  0
 19 39  1  0
 20 40  1  0
 20 41  1  0
 21 42  1  0
 21 43  1  0
 22 44  1  0
 22 45  1  0
 23 46  1  0
M  END
$$$$
OCNT-2318002
     RDKit          3D

 47 50  0  0  0  0  0  0  0  0999 V2000
    5.3357    2.6673   -0.6891 C   0  0  0  0  0  0  0  0  0  0  0  0
    4.1919    2.3378   -1.4141 C   0  0  0  0  0  0  0  0  0  0  0  0
    3.7646    1.0109   -1.4806 C   0  0  0  0  0  0  0  0  0  0  0  0
    4.4828   -0.0008   -0.8269 C   0  0  0  0  0  0  0  0  0  0  0  0
    4.0126   -1.4367   -0.8872 C   0  0  0  0  0  0  0  0  0  0  0  0
    3.0251   -1.7924    0.1966 C   0  0  0  0  0  0  0  0  0  0  0  0
    3.5080   -2.3116    1.3402 N   0  0  0  0  0  0  0  0  0  0  0  0
    2.5946   -2.6035    2.2769 C   0  0  0  0  0  0  0  0  0  0  0  0
    1.2453   -2.3874    2.1166 C   0  0  0  0  0  0  0  0  0  0  0  0
    0.8263   -1.8374    0.9185 C   0  0  0  0  0  0  0  0  0  0  0  0
   -0.5278   -1.6055    0.6778 N   0  0  0  0  0  0  0  0  0  0  0  0
   -1.3203   -0.9729    1.7525 C   0  0  0  0  0  0  0  0  0  0  0  0
   -2.1597    0.2308    1.2590 C   0  0  0  0  0  0  0  0  0  0  0  0
   -2.9991   -0.1255    0.1039 N   0  0  0  0  0  0  0  0  0  0  0  0
   -4.1087    0.6274   -0.2543 C   0  0  0  0  0  0  0  0  0  0  0  0
   -4.3632    1.8982    0.2861 C   0  0  0  0  0  0  0  0  0  0  0  0
   -5.4908    2.6466   -0.0762 C   0  0  0  0  0  0  0  0  0  0  0  0
   -6.4040    2.1356   -0.9899 C   0  0  0  0  0  0  0  0  0  0  0  0
   -6.1882    0.8771   -1.5364 C   0  0  0  0  0  0  0  0  0  0  0  0
   -5.0571    0.1378   -1.1692 C   0  0  0  0  0  0  0  0  0  0  0  0
   -2.3986   -1.0589   -0.8735 C   0  0  0  0  0  0  0  0  0  0  0  0
   -0.8691   -1.1877   -0.6938 C   0  0  0  0  0  0  0  0  0  0  0  0
    1.7181   -1.5613   -0.0501 N   0  0  0  0  0  0  0  0  0  0  0  0
    5.6249    0.3439   -0.0902 C   0  0  0  0  0  0  0  0  0  0  0  0
    6.0504    1.6716   -0.0253 C   0  0  0  0  0  0  0  0  0  0  0  0
    5.6666    3.7009   -0.6360 H   0  0  0  0  0  0  0  0  0  0  0  0
    3.6289    3.1148   -1.9243 H   0  0  0  0  0  0  0  0  0  0  0  0
    2.8624    0.7685   -2.0386 H   0  0  0  0  0  0  0  0  0  0  0  0
    3.5590   -1.6326   -1.8673 H   0  0  0  0  0  0  0  0  0  0  0  0
    4.8772   -2.1100   -0.8259 H   0  0  0  0  0  0  0  0  0  0  0  0
    2.9871   -3.0357    3.1922 H   0  0  0  0  0  0  0  0  0  0  0  0
    0.5493   -2.6646    2.8958 H   0  0  0  0  0  0  0  0  0  0  0  0
   -0.6901   -0.6168    2.5767 H   0  0  0  0  0  0  0  0  0  0  0  0
   -1.9940   -1.7356    2.1618 H   0  0  0  0  0  0  0  0  0  0  0  0
   -1.4925    1.0571    0.9836 H   0  0  0  0  0  0  0  0  0  0  0  0
   -2.7797    0.5600    2.1015 H   0  0  0  0  0  0  0  0  0  0  0  0
   -3.6722    2.3501    0.9912 H   0  0  0  0  0  0  0  0  0  0  0  0
   -5.6481    3.6302    0.3582 H   0  0  0  0  0  0  0  0  0  0  0  0
   -7.2800    2.7128   -1.2713 H   0  0  0  0  0  0  0  0  0  0  0  0
   -6.8995    0.4603   -2.2441 H   0  0  0  0  0  0  0  0  0  0  0  0
   -4.9426   -0.8540   -1.5985 H   0  0  0  0  0  0  0  0  0  0  0  0
   -2.8659   -2.0431   -0.7478 H   0  0  0  0  0  0  0  0  0  0  0  0
   -2.5792   -0.7238   -1.9023 H   0  0  0  0  0  0  0  0  0  0  0  0
   -0.5029   -1.9270   -1.4171 H   0  0  0  0  0  0  0  0  0  0  0  0
   -0.3990   -0.2221   -0.9242 H   0  0  0  0  0  0  0  0  0  0  0  0
    6.1846   -0.4218    0.4432 H   0  0  0  0  0  0  0  0  0  0  0  0
    6.9371    1.9291    0.5477 H   0  0  0  0  0  0  0  0  0  0  0  0
  1  2  2  0
  2  3  1  0
  3  4  2  0
  4  5  1  0
  5  6  1  0
  6  7  2  0
  7  8  1  0
  8  9  2  0
  9 10  1  0
 10 11  1  0
 11 12  1  0
 12 13  1  0
 13 14  1  0
 14 15  1  0
 15 16  2  0
 16 17  1  0
 17 18  2  0
 18 19  1  0
 19 20  2  0
 14 21  1  0
 21 22  1  0
 10 23  2  0
  4 24  1  0
 24 25  2  0
 25  1  1  0
 23  6  1  0
 22 11  1  0
 20 15  1  0
  1 26  1  0
  2 27  1  0
  3 28  1  0
  5 29  1  0
  5 30  1  0
  8 31  1  0
  9 32  1  0
 12 33  1  0
 12 34  1  0
 13 35  1  0
 13 36  1  0
 16 37  1  0
 17 38  1  0
 18 39  1  0
 19 40  1  0
 20 41  1  0
 21 42  1  0
 21 43  1  0
 22 44  1  0
 22 45  1  0
 24 46  1  0
 25 47  1  0
M  END
$$$$
OCNT-2318019
     RDKit          3D

 47 49  0  0  0  0  0  0  0  0999 V2000
   -1.3187    2.6381   -0.3009 C   0  0  0  0  0  0  0  0  0  0  0  0
   -2.1064    1.7800    0.5732 N   0  0  0  0  0  0  0  0  0  0  0  0
   -2.9438    2.4827    1.5312 C   0  0  0  0  0  0  0  0  0  0  0  0
   -1.7433    0.4714    0.9005 C   0  0  0  0  0  0  0  0  0  0  0  0
   -2.1462   -0.0593    1.9441 O   0  0  0  0  0  0  0  0  0  0  0  0
   -0.8305   -0.3544   -0.0419 C   0  0  0  0  0  0  0  0  0  0  0  0
   -1.4794   -0.5863   -1.4220 C   0  0  0  0  0  0  0  0  0  0  0  0
   -2.6744   -1.5126   -1.3649 C   0  0  0  0  0  0  0  0  0  0  0  0
   -3.9735   -0.9935   -1.2830 C   0  0  0  0  0  0  0  0  0  0  0  0
   -5.0733   -1.8499   -1.2143 C   0  0  0  0  0  0  0  0  0  0  0  0
   -4.8853   -3.2314   -1.2231 C   0  0  0  0  0  0  0  0  0  0  0  0
   -3.5976   -3.7582   -1.3019 C   0  0  0  0  0  0  0  0  0  0  0  0
   -2.4960   -2.9039   -1.3716 C   0  0  0  0  0  0  0  0  0  0  0  0
    0.5219    0.2529   -0.1654 N   0  0  0  0  0  0  0  0  0  0  0  0
    1.2329    0.2361    1.1198 C   0  0  0  0  0  0  0  0  0  0  0  0
    2.6536    0.7232    0.9364 C   0  0  0  0  0  0  0  0  0  0  0  0
    2.9002    2.1122    0.8717 C   0  0  0  0  0  0  0  0  0  0  0  0
    4.1848    2.6216    0.6938 C   0  0  0  0  0  0  0  0  0  0  0  0
    5.2806    1.7691    0.5640 C   0  0  0  0  0  0  0  0  0  0  0  0
    5.0383    0.3926    0.6168 C   0  0  0  0  0  0  0  0  0  0  0  0
    3.7633   -0.1479    0.7965 C   0  0  0  0  0  0  0  0  0  0  0  0
    3.9174   -1.5663    0.7958 C   0  0  0  0  0  0  0  0  0  0  0  0
    5.2520   -1.8500    0.6241 C   0  0  0  0  0  0  0  0  0  0  0  0
    5.9197   -0.6606    0.5169 N   0  0  0  0  0  0  0  0  0  0  0  0
   -0.5180    3.0940    0.2914 H   0  0  0  0  0  0  0  0  0  0  0  0
   -1.9621    3.4245   -0.7097 H   0  0  0  0  0  0  0  0  0  0  0  0
   -0.8765    2.1017   -1.1380 H   0  0  0  0  0  0  0  0  0  0  0  0
   -2.3011    2.9629    2.2752 H   0  0  0  0  0  0  0  0  0  0  0  0
   -3.6284    1.7986    2.0409 H   0  0  0  0  0  0  0  0  0  0  0  0
   -3.5374    3.2395    1.0104 H   0  0  0  0  0  0  0  0  0  0  0  0
   -0.7038   -1.3403    0.4280 H   0  0  0  0  0  0  0  0  0  0  0  0
   -1.7852    0.3490   -1.9013 H   0  0  0  0  0  0  0  0  0  0  0  0
   -0.7443   -1.0346   -2.1048 H   0  0  0  0  0  0  0  0  0  0  0  0
   -4.1381    0.0821   -1.2666 H   0  0  0  0  0  0  0  0  0  0  0  0
   -6.0777   -1.4383   -1.1500 H   0  0  0  0  0  0  0  0  0  0  0  0
   -5.7426   -3.8965   -1.1665 H   0  0  0  0  0  0  0  0  0  0  0  0
   -3.4510   -4.8353   -1.3085 H   0  0  0  0  0  0  0  0  0  0  0  0
   -1.4979   -3.3320   -1.4289 H   0  0  0  0  0  0  0  0  0  0  0  0
    1.0707   -0.3025   -0.8219 H   0  0  0  0  0  0  0  0  0  0  0  0
    0.7352    0.8805    1.8538 H   0  0  0  0  0  0  0  0  0  0  0  0
    1.2493   -0.7774    1.5379 H   0  0  0  0  0  0  0  0  0  0  0  0
    2.0665    2.8060    0.9622 H   0  0  0  0  0  0  0  0  0  0  0  0
    4.3342    3.6986    0.6560 H   0  0  0  0  0  0  0  0  0  0  0  0
    6.2807    2.1664    0.4262 H   0  0  0  0  0  0  0  0  0  0  0  0
    3.1327   -2.3011    0.9174 H   0  0  0  0  0  0  0  0  0  0  0  0
    5.7820   -2.7912    0.5757 H   0  0  0  0  0  0  0  0  0  0  0  0
    6.9167   -0.5603    0.3871 H   0  0  0  0  0  0  0  0  0  0  0  0
  1  2  1  0
  2  3  1  0
  2  4  1  0
  4  5  2  0
  4  6  1  0
  6  7  1  0
  7  8  1  0
  8  9  2  0
  9 10  1  0
 10 11  2  0
 11 12  1  0
 12 13  2  0
  6 14  1  0
 14 15  1  0
 15 16  1  0
 16 17  1  0
 17 18  2  0
 18 19  1  0
 19 20  2  0
 20 21  1  0
 21 22  1  0
 22 23  2  0
 23 24  1  0
 13  8  1  0
 21 16  2  0
 24 20  1  0
  1 25  1  0
  1 26  1  0
  1 27  1  0
  3 28  1  0
  3 29  1  0
  3 30  1  0
  6 31  1  0
  7 32  1  0
  7 33  1  0
  9 34  1  0
 10 35  1  0
 11 36  1  0
 12 37  1  0
 13 38  1  0
 14 39  1  0
 15 40  1  0
 15 41  1  0
 17 42  1  0
 18 43  1  0
 19 44  1  0
 22 45  1  0
 23 46  1  0
 24 47  1  0
M  END
$$$$
OCNT-2318020
     RDKit          3D

 52 55  0  0  0  0  0  0  0  0999 V2000
   -2.0062   -1.7284    1.1964 C   0  0  0  0  0  0  0  0  0  0  0  0
   -1.1573   -1.5086   -0.0476 C   0  0  0  0  0  0  0  0  0  0  0  0
   -1.1906   -0.1271   -0.5372 N   0  0  0  0  0  0  0  0  0  0  0  0
   -2.1678    0.1934   -1.5815 C   0  0  0  0  0  0  0  0  0  0  0  0
   -3.5687    0.3681   -1.0431 C   0  0  0  0  0  0  0  0  0  0  0  0
   -3.8812    1.4839   -0.2306 C   0  0  0  0  0  0  0  0  0  0  0  0
   -5.1685    1.6639    0.2847 C   0  0  0  0  0  0  0  0  0  0  0  0
   -6.1203    0.7193   -0.0285 C   0  0  0  0  0  0  0  0  0  0  0  0
   -7.4166    0.7297    0.3819 O   0  0  0  0  0  0  0  0  0  0  0  0
   -7.9116   -0.4667   -0.2536 C   0  0  0  0  0  0  0  0  0  0  0  0
   -6.9061   -1.1757   -1.0079 O   0  0  0  0  0  0  0  0  0  0  0  0
   -5.8295   -0.3658   -0.8209 C   0  0  0  0  0  0  0  0  0  0  0  0
   -4.5699   -0.5701   -1.3443 C   0  0  0  0  0  0  0  0  0  0  0  0
   -0.3456    0.8913   -0.1175 C   0  0  0  0  0  0  0  0  0  0  0  0
   -0.3689    2.0190   -0.5979 O   0  0  0  0  0  0  0  0  0  0  0  0
    0.5371    0.5361    0.8725 N   0  0  0  0  0  0  0  0  0  0  0  0
    1.4640    1.5161    1.4114 C   0  0  0  0  0  0  0  0  0  0  0  0
    2.6497    1.7163    0.5317 C   0  0  0  0  0  0  0  0  0  0  0  0
    3.1336    2.8883    0.1662 N   0  0  0  0  0  0  0  0  0  0  0  0
    4.2258    2.6792   -0.6342 N   0  0  0  0  0  0  0  0  0  0  0  0
    4.4068    1.3822   -0.7424 C   0  0  0  0  0  0  0  0  0  0  0  0
    5.4533    0.7030   -1.5468 C   0  0  0  0  0  0  0  0  0  0  0  0
    6.4116   -0.1185   -0.6896 C   0  0  0  0  0  0  0  0  0  0  0  0
    5.8175   -1.4381   -0.1948 C   0  0  0  0  0  0  0  0  0  0  0  0
    4.6750   -1.2889    0.8104 C   0  0  0  0  0  0  0  0  0  0  0  0
    3.3962   -0.6921    0.2220 C   0  0  0  0  0  0  0  0  0  0  0  0
    3.4659    0.7364    0.0188 N   0  0  0  0  0  0  0  0  0  0  0  0
   -1.8743   -2.7510    1.5639 H   0  0  0  0  0  0  0  0  0  0  0  0
   -3.0695   -1.5878    0.9871 H   0  0  0  0  0  0  0  0  0  0  0  0
   -1.7364   -1.0397    2.0021 H   0  0  0  0  0  0  0  0  0  0  0  0
   -0.1193   -1.7798    0.1747 H   0  0  0  0  0  0  0  0  0  0  0  0
   -1.4857   -2.1793   -0.8495 H   0  0  0  0  0  0  0  0  0  0  0  0
   -1.8886    1.1098   -2.1149 H   0  0  0  0  0  0  0  0  0  0  0  0
   -2.1346   -0.6045   -2.3336 H   0  0  0  0  0  0  0  0  0  0  0  0
   -3.1099    2.2202   -0.0045 H   0  0  0  0  0  0  0  0  0  0  0  0
   -5.4097    2.5189    0.9058 H   0  0  0  0  0  0  0  0  0  0  0  0
   -8.3057   -1.1364    0.5195 H   0  0  0  0  0  0  0  0  0  0  0  0
   -8.7290   -0.1923   -0.9304 H   0  0  0  0  0  0  0  0  0  0  0  0
   -4.3716   -1.4359   -1.9665 H   0  0  0  0  0  0  0  0  0  0  0  0
    0.1213   -0.0605    1.5671 H   0  0  0  0  0  0  0  0  0  0  0  0
    1.7963    1.1470    2.3877 H   0  0  0  0  0  0  0  0  0  0  0  0
    0.9355    2.4623    1.5709 H   0  0  0  0  0  0  0  0  0  0  0  0
    4.9880    0.0766   -2.3168 H   0  0  0  0  0  0  0  0  0  0  0  0
    6.0316    1.4698   -2.0771 H   0  0  0  0  0  0  0  0  0  0  0  0
    6.7717    0.4713    0.1627 H   0  0  0  0  0  0  0  0  0  0  0  0
    7.2917   -0.3590   -1.2993 H   0  0  0  0  0  0  0  0  0  0  0  0
    5.4827   -2.0382   -1.0499 H   0  0  0  0  0  0  0  0  0  0  0  0
    6.6202   -2.0099    0.2876 H   0  0  0  0  0  0  0  0  0  0  0  0
    5.0112   -0.6997    1.6726 H   0  0  0  0  0  0  0  0  0  0  0  0
    4.4359   -2.2912    1.1879 H   0  0  0  0  0  0  0  0  0  0  0  0
    2.5825   -0.9052    0.9188 H   0  0  0  0  0  0  0  0  0  0  0  0
    3.1380   -1.1513   -0.7387 H   0  0  0  0  0  0  0  0  0  0  0  0
  1  2  1  0
  2  3  1  0
  3  4  1  0
  4  5  1  0
  5  6  1  0
  6  7  2  0
  7  8  1  0
  8  9  1  0
  9 10  1  0
 10 11  1  0
 11 12  1  0
 12 13  1  0
  3 14  1  0
 14 15  2  0
 14 16  1  0
 16 17  1  0
 17 18  1  0
 18 19  2  0
 19 20  1  0
 20 21  2  0
 21 22  1  0
 22 23  1  0
 23 24  1  0
 24 25  1  0
 25 26  1  0
 26 27  1  0
 13  5  2  0
 27 18  1  0
 12  8  2  0
 27 21  1  0
  1 28  1  0
  1 29  1  0
  1 30  1  0
  2 31  1  0
  2 32  1  0
  4 33  1  0
  4 34  1  0
  6 35  1  0
  7 36  1  0
 10 37  1  0
 10 38  1  0
 13 39  1  0
 16 40  1  0
 17 41  1  0
 17 42  1  0
 22 43  1  0
 22 44  1  0
 23 45  1  0
 23 46  1  0
 24 47  1  0
 24 48  1  0
 25 49  1  0
 25 50  1  0
 26 51  1  0
 26 52  1  0
M  END
$$$$
OCNT-2318022
     RDKit          3D

 56 58  0  0  0  0  0  0  0  0999 V2000
   -6.6288   -3.5751   -0.5127 C   0  0  0  0  0  0  0  0  0  0  0  0
   -5.6563   -2.5248   -0.3365 N   0  0  0  0  0  0  0  0  0  0  0  0
   -6.0164   -1.2946    0.1716 C   0  0  0  0  0  0  0  0  0  0  0  0
   -7.1694   -0.9917    0.4571 O   0  0  0  0  0  0  0  0  0  0  0  0
   -4.9222   -0.2994    0.3452 C   0  0  0  0  0  0  0  0  0  0  0  0
   -5.2417    1.0593    0.2528 C   0  0  0  0  0  0  0  0  0  0  0  0
   -4.2509    2.0309    0.4198 C   0  0  0  0  0  0  0  0  0  0  0  0
   -2.9263    1.6632    0.7036 C   0  0  0  0  0  0  0  0  0  0  0  0
   -1.8806    2.7485    0.8565 C   0  0  0  0  0  0  0  0  0  0  0  0
   -0.7516    2.3665    1.7045 N   0  0  0  0  0  0  0  0  0  0  0  0
   -0.9388    2.5291    3.1381 C   0  0  0  0  0  0  0  0  0  0  0  0
    0.5316    2.1381    1.2416 C   0  0  0  0  0  0  0  0  0  0  0  0
    1.5170    2.1187    1.9731 O   0  0  0  0  0  0  0  0  0  0  0  0
    0.6301    1.9187   -0.1091 N   0  0  0  0  0  0  0  0  0  0  0  0
    1.9239    1.6093   -0.7164 C   0  0  0  0  0  0  0  0  0  0  0  0
    1.8353    1.7671   -2.2343 C   0  0  0  0  0  0  0  0  0  0  0  0
    3.1727    1.4911   -2.9217 C   0  0  0  0  0  0  0  0  0  0  0  0
    4.1621    0.7052   -2.0586 C   0  0  0  0  0  0  0  0  0  0  0  0
    3.4474   -0.3220   -1.2957 N   0  0  0  0  0  0  0  0  0  0  0  0
    4.1765   -1.4172   -0.7979 C   0  0  0  0  0  0  0  0  0  0  0  0
    3.4958   -2.5588   -0.3306 C   0  0  0  0  0  0  0  0  0  0  0  0
    4.1756   -3.6772    0.1685 C   0  0  0  0  0  0  0  0  0  0  0  0
    5.5639   -3.6800    0.2080 C   0  0  0  0  0  0  0  0  0  0  0  0
    6.2512   -2.5685   -0.2561 C   0  0  0  0  0  0  0  0  0  0  0  0
    7.5910   -2.5634   -0.2221 F   0  0  0  0  0  0  0  0  0  0  0  0
    5.5772   -1.4540   -0.7551 C   0  0  0  0  0  0  0  0  0  0  0  0
    2.4288    0.1897   -0.3452 C   0  0  0  0  0  0  0  0  0  0  0  0
   -2.6147    0.2972    0.7926 C   0  0  0  0  0  0  0  0  0  0  0  0
   -3.6041   -0.6778    0.6228 C   0  0  0  0  0  0  0  0  0  0  0  0
   -7.6020   -3.1620   -0.7916 H   0  0  0  0  0  0  0  0  0  0  0  0
   -6.7200   -4.1221    0.4289 H   0  0  0  0  0  0  0  0  0  0  0  0
   -6.2742   -4.2489   -1.2960 H   0  0  0  0  0  0  0  0  0  0  0  0
   -4.7019   -2.7068   -0.6090 H   0  0  0  0  0  0  0  0  0  0  0  0
   -6.2669    1.3648    0.0497 H   0  0  0  0  0  0  0  0  0  0  0  0
   -4.5266    3.0803    0.3346 H   0  0  0  0  0  0  0  0  0  0  0  0
   -1.5379    3.0432   -0.1408 H   0  0  0  0  0  0  0  0  0  0  0  0
   -2.3329    3.6417    1.3065 H   0  0  0  0  0  0  0  0  0  0  0  0
   -0.1679    1.9967    3.7018 H   0  0  0  0  0  0  0  0  0  0  0  0
   -1.9167    2.1373    3.4307 H   0  0  0  0  0  0  0  0  0  0  0  0
   -0.8811    3.5945    3.3788 H   0  0  0  0  0  0  0  0  0  0  0  0
   -0.1681    1.4570   -0.5188 H   0  0  0  0  0  0  0  0  0  0  0  0
    2.6438    2.3444   -0.3312 H   0  0  0  0  0  0  0  0  0  0  0  0
    1.0808    1.0728   -2.6284 H   0  0  0  0  0  0  0  0  0  0  0  0
    1.4840    2.7717   -2.4999 H   0  0  0  0  0  0  0  0  0  0  0  0
    3.6423    2.4367   -3.2198 H   0  0  0  0  0  0  0  0  0  0  0  0
    2.9783    0.9424   -3.8524 H   0  0  0  0  0  0  0  0  0  0  0  0
    4.9046    0.2653   -2.7358 H   0  0  0  0  0  0  0  0  0  0  0  0
    4.6922    1.3824   -1.3759 H   0  0  0  0  0  0  0  0  0  0  0  0
    2.4103   -2.5987   -0.3744 H   0  0  0  0  0  0  0  0  0  0  0  0
    3.6169   -4.5415    0.5172 H   0  0  0  0  0  0  0  0  0  0  0  0
    6.1124   -4.5338    0.5907 H   0  0  0  0  0  0  0  0  0  0  0  0
    6.1829   -0.6169   -1.0827 H   0  0  0  0  0  0  0  0  0  0  0  0
    2.8314    0.2131    0.6760 H   0  0  0  0  0  0  0  0  0  0  0  0
    1.5712   -0.4944   -0.3442 H   0  0  0  0  0  0  0  0  0  0  0  0
   -1.6006   -0.0255    1.0217 H   0  0  0  0  0  0  0  0  0  0  0  0
   -3.3327   -1.7221    0.7472 H   0  0  0  0  0  0  0  0  0  0  0  0
  1  2  1  0
  2  3  1  0
  3  4  2  0
  3  5  1  0
  5  6  1  0
  6  7  2  0
  7  8  1  0
  8  9  1  0
  9 10  1  0
 10 11  1  0
 10 12  1  0
 12 13  2  0
 12 14  1  0
 14 15  1  0
 15 16  1  0
 16 17  1  0
 17 18  1  0
 18 19  1  0
 19 20  1  0
 20 21  2  0
 21 22  1  0
 22 23  2  0
 23 24  1  0
 24 25  1  0
 24 26  2  0
 19 27  1  0
  8 28  2  0
 28 29  1  0
 29  5  2  0
 27 15  1  0
 26 20  1  0
  1 30  1  0
  1 31  1  0
  1 32  1  0
  2 33  1  0
  6 34  1  0
  7 35  1  0
  9 36  1  0
  9 37  1  0
 11 38  1  0
 11 39  1  0
 11 40  1  0
 14 41  1  0
 15 42  1  0
 16 43  1  0
 16 44  1  0
 17 45  1  0
 17 46  1  0
 18 47  1  0
 18 48  1  0
 21 49  1  0
 22 50  1  0
 23 51  1  0
 26 52  1  0
 27 53  1  0
 27 54  1  0
 28 55  1  0
 29 56  1  0
M  END
$$$$
